data_PCOD9255389
_publ_section_title
;
Structure prediction by ZEFSAII (Michael W. Deem and Ramdas Pophale) SiO2 
 PCOD9255389
Probable space group: C 2/C
;
_chemical_formula_sum "Si O2"
_cell_formula_units_Z 60
_cell_length_a 17.303421
_cell_length_b 15.710050
_cell_length_c 17.770587
_cell_angle_alpha 90.000000
_cell_angle_beta 36.567878
_cell_angle_gamma 90.000000
_cell_volume 2878.017085
_symmetry_space_group_name_H-M "C 2/C"
_symmetry_group_IT_number 15
_symmetry_cell_setting 'monoclinic'
loop_
_space_group_symop_operation_xyz
x,y,z
-x,y,1/2-z
-x,-y,-z
x,-y,1/2+z
1/2+x,1/2+y,z
1/2-x,1/2+y,1/2-z
1/2-x,1/2-y,-z
1/2+x,1/2-y,1/2+z
loop_
_atom_site_type_symbol
_atom_site_label
_atom_site_fract_x
_atom_site_fract_y
_atom_site_fract_z
Si Si1 0.191905 0.905772 0.225542
Si Si2 0.662349 0.409922 0.515398
Si Si3 0.000000 0.035458 0.750000
Si Si4 0.475764 0.100664 0.528790
Si Si5 0.351483 0.304671 0.838461
Si Si6 0.746346 0.399216 0.729286
Si Si7 0.401965 0.881809 0.257953
Si Si8 0.999514 0.896143 0.503147
O O1 0.337042 0.868017 0.105403
O O2 0.091878 0.865784 0.363907
O O3 0.229870 0.998708 0.231393
O O4 0.108730 0.916589 0.214624
O O5 0.582314 0.479023 0.625747
O O6 0.717390 0.342849 0.533753
O O7 0.781637 0.443838 0.371442
O O8 0.565854 0.369877 0.529882
O O9 0.606414 0.134541 0.387029
O O10 0.467593 0.113102 0.625478
O O11 0.500000 0.000000 0.500000
O O12 0.500000 0.309005 0.750000
O O13 0.313088 0.366666 0.802335
O O14 0.338495 0.211615 0.813915
O O15 0.651022 0.371162 0.871155
O O16 0.500000 0.892100 0.250000
O O17 0.000000 0.000000 0.500000
#
# Coordination Sequence:
#
# PCOD9255389 Si02
#       8
#     8   8   4   8   8   8   8   8
#     4  10  19  34  51  76  99 141 183 240 272 337
#     4  12  18  33  48  72 105 150 186 226 270 325
#     4  12  20  30  58  74 100 138 196 226 286 318
#     4  10  22  37  52  72 113 153 187 232 286 331
#     4  11  19  34  50  77 113 153 187 225 260 341
#     4  10  18  33  53  72 101 149 182 221 281 320
#     4  11  25  33  49  78 115 158 189 220 272 339
#     4  10  17  30  54  72  97 138 191 228 265 324
#
# _framework density 20.847685999999999
#
# number of rings (size 3 to 8) (size 9 to 14) (size 15 to 20)
#    0.000    1.333    7.333    1.200    1.867    1.067 
#    0.000    0.000    0.000    0.000    0.000    0.000 
#    0.000    4.267    2.400    0.000    0.000    0.000 
#
# Total GULP energy -167082.219672 kJ/mol
# GULP energy per Si atom -5569.407322 kJ/mol
# Density = 2.080024 g / cm^3
# Si number density = 20.847686 Si / 1000 Ang^3
#
#
#
# Elastic Constant Matrix: (Units=GPa)
#
#
# Indices 1 2 3 4 5 6 
#
# 1 110.3536 0.1646 61.0344 0.0000 -15.4669 -0.0001
# 2 0.1646 18.9339 9.1224 0.0000 7.2838 0.0000
# 3 61.0344 9.1224 183.1398 0.0000 -32.3538 0.0000
# 4 0.0000 0.0000 0.0000 1.4713 0.0000 -3.0962
# 5 -15.4669 7.2838 -32.3538 0.0000 42.7145 0.0000
# 6 -0.0001 0.0000 0.0000 -3.0962 0.0000 3.2382
#
#
#
# Elastic Compliance Matrix: (Units=1/GPa)
#
#
# Indices 1 2 3 4 5 6 
#
# 1 0.011207 0.001200 -0.003595 0.000000 0.001130 0.000000
# 2 0.001200 0.061325 -0.006032 0.000000 -0.014592 0.000000
# 3 -0.003595 -0.006032 0.007978 0.000000 0.005770 0.000000
# 4 0.000000 0.000000 0.000000 -0.671545 0.000000 -0.642093
# 5 0.001130 -0.014592 0.005770 0.000000 0.030679 0.000000
# 6 0.000000 0.000000 0.000000 -0.642093 0.000000 -0.305116
#
#
# Mechanical properties :
#
#
# Convention : Reuss Voigt Hill
#
# Bulk Modulus (GPa) = 15.70979 50.34113 33.02546
# Shear Modulus (GPa) = -6.04304 25.62517 9.79107
#
# Velocity S-wave (km/s) = -1.70439 3.50974 2.16949
# Velocity P-wave (km/s) = 1.91797 6.37369 4.70651
#
# Compressibility (1/GPa) = 0.06365459
#
# Stress axis : x y z
#
# Youngs Moduli (GPa) = 89.23251 16.30664 125.34206
#
# Poissons Ratio (x) = -0.01956 0.45059
# Poissons Ratio (y) = -0.10705 0.75610
# Poissons Ratio (z) = 0.32078 0.09837
#
# Static dielectric constant tensor:
#      x y z
#    x 1.783400 0.000000 -0.085790 
#    y 0.000000 1.806060 0.000000 
#    z -0.085790 0.000000 1.889150 
# 
# From -- ./inp_files/163535.got.cif
#   From: 2010.05.17/outbox.cif.g08.bks.cpg/sg15_82_cif.got.tgz:163535.got - 2010.06.03 18:47:42.
