data_PCOD9255602
_publ_section_title
;
Structure prediction by ZEFSAII (Michael W. Deem and Ramdas Pophale) SiO2 
 PCOD9255602
Probable space group: C 2/C
;
_chemical_formula_sum "Si O2"
_cell_formula_units_Z 32
_cell_length_a 11.667958
_cell_length_b 7.919598
_cell_length_c 27.430459
_cell_angle_alpha 90.000000
_cell_angle_beta 145.507030
_cell_angle_gamma 90.000000
_cell_volume 1435.428463
_symmetry_space_group_name_H-M "C 2/C"
_symmetry_group_IT_number 15
_symmetry_cell_setting 'monoclinic'
loop_
_space_group_symop_operation_xyz
x,y,z
-x,y,1/2-z
-x,-y,-z
x,-y,1/2+z
1/2+x,1/2+y,z
1/2-x,1/2+y,1/2-z
1/2-x,1/2-y,-z
1/2+x,1/2-y,1/2+z
loop_
_atom_site_type_symbol
_atom_site_label
_atom_site_fract_x
_atom_site_fract_y
_atom_site_fract_z
Si Si1 0.115731 0.450543 0.227906
Si Si2 0.779348 0.911753 0.688905
Si Si3 0.416891 0.735431 0.515645
Si Si4 0.300475 0.577422 0.383929
O O1 0.175876 0.270305 0.270326
O O2 0.187077 0.473847 0.198547
O O3 0.217446 0.589225 0.299872
O O4 0.877452 0.476415 0.150354
O O5 0.601515 0.865028 0.588710
O O6 0.000000 0.974595 0.750000
O O7 0.250000 0.750000 0.500000
O O8 0.337558 0.736652 0.431991
O O9 0.507545 0.545693 0.552460
#
# Coordination Sequence:
#
# PCOD9255602 Si02
#       4
#     8   8   8   8
#     4  10  19  37  58  82 116 150 187 233 280 336
#     4  11  21  38  57  83 114 151 190 231 284 337
#     4  10  17  31  60  85 108 148 191 229 279 336
#     4   9  18  33  56  84 111 148 187 228 284 333
#
# _framework density 22.292994
#
# number of rings (size 3 to 8) (size 9 to 14) (size 15 to 20)
#    0.000    2.000    7.500    0.000    0.000    0.000 
#    4.500    1.250    0.000    7.500    0.000    0.000 
#    0.000    0.000    0.000    0.000    0.000    0.000 
#
# Total GULP energy -89265.530629 kJ/mol
# GULP energy per Si atom -5579.095664 kJ/mol
# Density = 2.224225 g / cm^3
# Si number density = 22.292994 Si / 1000 Ang^3
#
#
#
# Elastic Constant Matrix: (Units=GPa)
#
#
# Indices 1 2 3 4 5 6 
#
# 1 100.4551 25.6920 13.6650 0.0000 18.9303 0.0000
# 2 25.6920 45.8994 10.4799 0.0000 9.7020 0.0000
# 3 13.6650 10.4799 69.8011 0.0000 18.9393 0.0000
# 4 0.0000 0.0000 0.0000 5.8117 0.0000 1.3622
# 5 18.9303 9.7020 18.9393 0.0000 28.3321 0.0000
# 6 0.0000 0.0000 0.0000 1.3622 0.0000 37.5880
#
#
#
# Elastic Compliance Matrix: (Units=1/GPa)
#
#
# Indices 1 2 3 4 5 6 
#
# 1 0.012638 -0.005718 0.000176 0.000000 -0.006604 0.000000
# 2 -0.005718 0.026229 -0.001732 0.000000 -0.004003 0.000000
# 3 0.000176 -0.001732 0.017619 0.000000 -0.011302 0.000000
# 4 0.000000 0.000000 0.000000 0.173541 0.000000 -0.006289
# 5 -0.006604 -0.004003 -0.011302 0.000000 0.048634 0.000000
# 6 0.000000 0.000000 0.000000 -0.006289 0.000000 0.026832
#
#
# Mechanical properties :
#
#
# Convention : Reuss Voigt Hill
#
# Bulk Modulus (GPa) = 23.84549 35.09215 29.46882
# Shear Modulus (GPa) = 14.96917 25.43428 20.20172
#
# Velocity S-wave (km/s) = 2.59409 3.38140 3.01357
# Velocity P-wave (km/s) = 4.43757 5.56962 5.03551
#
# Compressibility (1/GPa) = 0.04193666
#
# Stress axis : x y z
#
# Youngs Moduli (GPa) = 79.12877 38.12537 56.75799
#
# Poissons Ratio (x) = 0.21801 -0.01000
# Poissons Ratio (y) = 0.45248 0.09833
# Poissons Ratio (z) = -0.01395 0.06605
#
# Static dielectric constant tensor:
#      x y z
#    x 1.794590 0.000000 -0.048100 
#    y 0.000000 1.852790 0.000000 
#    z -0.048100 0.000000 1.916270 
# 
# From -- ./inp_files/132009.got.cif
#   From: 2010.05.17/outbox.cif.g08.bks.cpg/sg15_67_cif.got.tgz:132009.got - 2010.06.03 18:47:42.
