data_PCOD9255883
_publ_section_title
;
Structure prediction by ZEFSAII (Michael W. Deem and Ramdas Pophale) SiO2 
 PCOD9255883
Probable space group: C 2/C
;
_chemical_formula_sum "Si O2"
_cell_formula_units_Z 52
_cell_length_a 24.317523
_cell_length_b 22.547746
_cell_length_c 5.675719
_cell_angle_alpha 90.000000
_cell_angle_beta 102.911835
_cell_angle_gamma 90.000000
_cell_volume 3033.339571
_symmetry_space_group_name_H-M "C 2/C"
_symmetry_group_IT_number 15
_symmetry_cell_setting 'monoclinic'
loop_
_space_group_symop_operation_xyz
x,y,z
-x,y,1/2-z
-x,-y,-z
x,-y,1/2+z
1/2+x,1/2+y,z
1/2-x,1/2+y,1/2-z
1/2-x,1/2-y,-z
1/2+x,1/2-y,1/2+z
loop_
_atom_site_type_symbol
_atom_site_label
_atom_site_fract_x
_atom_site_fract_y
_atom_site_fract_z
Si Si1 0.303280 0.034165 0.668568
Si Si2 0.760792 0.659095 0.509435
Si Si3 0.324585 0.736104 0.306568
Si Si4 0.562413 0.786900 0.322005
Si Si5 0.000000 0.465732 0.750000
Si Si6 0.904907 0.602340 0.931793
Si Si7 0.854035 0.691804 0.221240
O O1 0.265076 0.093568 0.617612
O O2 0.368740 0.056246 0.744855
O O3 0.294627 0.999173 0.412317
O O4 0.703129 0.677240 0.323807
O O5 0.778751 0.712357 0.700796
O O6 0.811141 0.665370 0.367098
O O7 0.385630 0.750831 0.248846
O O8 0.333440 0.746151 0.591952
O O9 0.500000 0.760601 0.250000
O O10 0.561018 0.851283 0.194894
O O11 0.585165 0.797656 0.605588
O O12 0.944192 0.426805 0.664585
O O13 0.000000 0.500000 0.500000
O O14 0.860432 0.643502 0.024650
#
# Coordination Sequence:
#
# PCOD9255883 Si02
#       7
#     8   8   8   8   4   8   8
#     4  12  24  37  55  77 111 149 186 231 275 323
#     4  10  19  35  53  76 107 131 188 223 283 329
#     4   9  19  33  55  80  98 139 177 231 275 335
#     4  10  20  33  54  76 106 137 176 225 283 323
#     4  12  28  38  50  70  98 150 206 246 266 298
#     4  11  22  37  50  70 103 142 194 231 271 315
#     4  10  17  33  55  77  97 143 172 230 281 324
#
# _framework density 17.142823
#
# number of rings (size 3 to 8) (size 9 to 14) (size 15 to 20)
#    0.000    1.538    4.615    3.231    3.231    1.846 
#    0.000    0.000    0.000    0.000    0.000    0.000 
#    0.000    1.231    0.000    0.000    0.000    0.000 
#
# Total GULP energy -144880.203272 kJ/mol
# GULP energy per Si atom -5572.315510 kJ/mol
# Density = 1.710381 g / cm^3
# Si number density = 17.142823 Si / 1000 Ang^3
#
#
#
# Elastic Constant Matrix: (Units=GPa)
#
#
# Indices 1 2 3 4 5 6 
#
# 1 58.5250 28.3830 27.3522 0.0000 17.3275 0.0000
# 2 28.3830 64.9922 41.7104 0.0000 18.2951 0.0000
# 3 27.3522 41.7104 107.9126 0.0000 18.4776 0.0000
# 4 0.0000 0.0000 0.0000 38.0569 0.0000 10.7531
# 5 17.3275 18.2951 18.4776 0.0000 25.3119 0.0000
# 6 0.0000 0.0000 0.0000 10.7531 0.0000 18.7968
#
#
#
# Elastic Compliance Matrix: (Units=1/GPa)
#
#
# Indices 1 2 3 4 5 6 
#
# 1 0.024186 -0.006399 -0.001845 0.000000 -0.010585 0.000000
# 2 -0.006399 0.024812 -0.006455 0.000000 -0.008842 0.000000
# 3 -0.001845 -0.006455 0.012816 0.000000 -0.003428 0.000000
# 4 0.000000 0.000000 0.000000 0.031343 0.000000 -0.017930
# 5 -0.010585 -0.008842 -0.003428 0.000000 0.055646 0.000000
# 6 0.000000 0.000000 0.000000 -0.017930 0.000000 0.063458
#
#
# Mechanical properties :
#
#
# Convention : Reuss Voigt Hill
#
# Bulk Modulus (GPa) = 30.84684 47.36899 39.10792
# Shear Modulus (GPa) = 19.80490 25.36542 22.58516
#
# Velocity S-wave (km/s) = 3.40264 3.85080 3.63363
# Velocity P-wave (km/s) = 5.78536 6.88937 6.36136
#
# Compressibility (1/GPa) = 0.03241823
#
# Stress axis : x y z
#
# Youngs Moduli (GPa) = 41.34616 40.30269 78.02727
#
# Poissons Ratio (x) = 0.25789 0.14393
# Poissons Ratio (y) = 0.26457 0.50363
# Poissons Ratio (z) = 0.07627 0.26014
#
# Static dielectric constant tensor:
#      x y z
#    x 1.640230 0.000000 -0.038380 
#    y 0.000000 1.648150 0.000000 
#    z -0.038380 0.000000 1.750280 
# 
# From -- ./inp_files/16072.got.cif
#   From: 2010.05.17/outbox.cif.g08.bks.cpg/sg15_9_cif.got.tgz:16072.got - 2010.06.03 18:47:42.
