data_PCOD9255967
_publ_section_title
;
Structure prediction by ZEFSAII (Michael W. Deem and Ramdas Pophale) SiO2 
 PCOD9255967
Probable space group: C 2/C
;
_chemical_formula_sum "Si O2"
_cell_formula_units_Z 64
_cell_length_a 15.426547
_cell_length_b 14.268107
_cell_length_c 23.857367
_cell_angle_alpha 90.000000
_cell_angle_beta 139.938796
_cell_angle_gamma 90.000000
_cell_volume 3379.693912
_symmetry_space_group_name_H-M "C 2/C"
_symmetry_group_IT_number 15
_symmetry_cell_setting 'monoclinic'
loop_
_space_group_symop_operation_xyz
x,y,z
-x,y,1/2-z
-x,-y,-z
x,-y,1/2+z
1/2+x,1/2+y,z
1/2-x,1/2+y,1/2-z
1/2-x,1/2-y,-z
1/2+x,1/2-y,1/2+z
loop_
_atom_site_type_symbol
_atom_site_label
_atom_site_fract_x
_atom_site_fract_y
_atom_site_fract_z
Si Si1 0.725328 0.465157 0.168355
Si Si2 0.714163 0.689978 0.926658
Si Si3 0.491812 0.916469 0.541037
Si Si4 0.444559 0.222158 0.514411
Si Si5 0.691493 0.654727 0.096388
Si Si6 0.719397 0.390033 0.043031
Si Si7 0.559079 0.554987 0.920976
Si Si8 0.991397 0.432222 0.361027
O O1 0.748651 0.573676 0.163848
O O2 0.684896 0.418315 0.089634
O O3 0.598709 0.455123 0.146685
O O4 0.858917 0.419606 0.258895
O O5 0.702254 0.767709 0.872288
O O6 0.597001 0.619203 0.886821
O O7 0.750000 0.750000 0.000000
O O8 0.843064 0.627050 0.973798
O O9 0.578777 0.832538 0.556206
O O10 0.500000 0.000000 0.500000
O O11 0.522512 0.966705 0.615063
O O12 0.567877 0.293107 0.565151
O O13 0.320212 0.281146 0.477109
O O14 0.492349 0.145339 0.582654
O O15 0.627092 0.605615 0.009054
O O16 0.872118 0.420750 0.106853
O O17 0.628922 0.452839 0.956360
#
# Coordination Sequence:
#
# PCOD9255967 Si02
#       8
#     8   8   8   8   8   8   8   8
#     4  11  21  36  56  84 123 151 180 248 311 330
#     4   9  17  30  58  87 103 137 201 232 262 340
#     4   9  19  36  57  82 112 151 187 238 286 343
#     4  10  19  37  60  83 109 152 206 230 277 360
#     4   9  17  34  57  83 110 147 193 231 280 353
#     4  11  19  37  58  85 112 157 198 235 283 354
#     4  10  17  33  61  81 111 151 191 230 289 352
#     4  11  23  36  57  87 117 151 195 249 295 340
#
# _framework density 18.936626
#
# number of rings (size 3 to 8) (size 9 to 14) (size 15 to 20)
#    0.000    2.000    3.750    1.500    0.000    0.000 
#    2.250    0.000    2.750    6.000    0.000    0.000 
#    0.000    0.000    0.000    0.000    0.000    0.000 
#
# Total GULP energy -178286.396130 kJ/mol
# GULP energy per Si atom -5571.449879 kJ/mol
# Density = 1.889353 g / cm^3
# Si number density = 18.936626 Si / 1000 Ang^3
#
#
#
# Elastic Constant Matrix: (Units=GPa)
#
#
# Indices 1 2 3 4 5 6 
#
# 1 104.9997 39.9098 19.3268 0.0000 18.4243 0.0000
# 2 39.9098 96.2977 20.6048 0.0000 4.9284 0.0000
# 3 19.3268 20.6048 33.9860 0.0000 15.9320 0.0000
# 4 0.0000 0.0000 0.0000 11.0908 0.0000 2.0880
# 5 18.4243 4.9284 15.9320 0.0000 16.3242 0.0000
# 6 0.0000 0.0000 0.0000 2.0880 0.0000 34.7481
#
#
#
# Elastic Compliance Matrix: (Units=1/GPa)
#
#
# Indices 1 2 3 4 5 6 
#
# 1 0.014174 -0.005789 0.003925 0.000000 -0.018081 0.000000
# 2 -0.005789 0.014668 -0.012144 0.000000 0.013957 0.000000
# 3 0.003925 -0.012144 0.064357 0.000000 -0.063575 0.000000
# 4 0.000000 0.000000 0.000000 0.091197 0.000000 -0.005480
# 5 -0.018081 0.013957 -0.063575 0.000000 0.139500 0.000000
# 6 0.000000 0.000000 0.000000 -0.005480 0.000000 0.029108
#
#
# Mechanical properties :
#
#
# Convention : Reuss Voigt Hill
#
# Bulk Modulus (GPa) = 15.34106 43.88512 29.61309
# Shear Modulus (GPa) = 12.41476 22.79540 17.60508
#
# Velocity S-wave (km/s) = 2.56324 3.47331 3.05238
# Velocity P-wave (km/s) = 4.10842 6.26978 5.30044
#
# Compressibility (1/GPa) = 0.06518455
#
# Stress axis : x y z
#
# Youngs Moduli (GPa) = 70.54973 68.17702 15.53837
#
# Poissons Ratio (x) = 0.39468 -0.06099
# Poissons Ratio (y) = 0.40841 0.18869
# Poissons Ratio (z) = -0.27693 0.82791
#
# Static dielectric constant tensor:
#      x y z
#    x 1.688380 0.000000 -0.012190 
#    y 0.000000 1.716660 0.000000 
#    z -0.012190 0.000000 1.615810 
# 
# From -- ./inp_files/274359.got.cif
#   From: 2010.05.17/outbox.cif.g08.bks.cpg/sg15_138_cif.got.tgz:274359.got - 2010.06.03 18:47:42.
