data_PCOD9255359
_publ_section_title
;
Structure prediction by ZEFSAII (Michael W. Deem and Ramdas Pophale) SiO2 
 PCOD9255359
Probable space group: C 2/C
;
_chemical_formula_sum "Si O2"
_cell_formula_units_Z 48
_cell_length_a 20.714767
_cell_length_b 5.059541
_cell_length_c 27.278589
_cell_angle_alpha 90.000000
_cell_angle_beta 72.169930
_cell_angle_gamma 90.000000
_cell_volume 2721.672103
_symmetry_space_group_name_H-M "C 2/C"
_symmetry_group_IT_number 15
_symmetry_cell_setting 'monoclinic'
loop_
_space_group_symop_operation_xyz
x,y,z
-x,y,1/2-z
-x,-y,-z
x,-y,1/2+z
1/2+x,1/2+y,z
1/2-x,1/2+y,1/2-z
1/2-x,1/2-y,-z
1/2+x,1/2-y,1/2+z
loop_
_atom_site_type_symbol
_atom_site_label
_atom_site_fract_x
_atom_site_fract_y
_atom_site_fract_z
Si Si1 0.366293 0.491372 0.149881
Si Si2 0.784293 0.508876 0.632991
Si Si3 0.788915 0.117080 0.757857
Si Si4 0.003157 0.780933 0.433109
Si Si5 0.716692 0.001015 0.481841
Si Si6 0.566009 0.216460 0.527801
O O1 0.341120 0.775407 0.136258
O O2 0.354299 0.462751 0.211098
O O3 0.439825 0.403892 0.114866
O O4 0.314348 0.278408 0.138348
O O5 0.719336 0.566052 0.682628
O O6 0.770220 0.525098 0.579085
O O7 0.768421 0.418895 0.751467
O O8 0.979477 0.483013 0.429340
O O9 0.036358 0.753948 0.479729
O O10 0.940712 0.988180 0.449572
O O11 0.750000 0.250000 0.500000
O O12 0.636983 0.066706 0.506162
O O13 0.750000 0.750000 0.500000
#
# Coordination Sequence:
#
# PCOD9255359 Si02
#       6
#     8   8   8   8   8   8
#     4  10  17  30  52  77 101 130 154 202 272 311
#     4  10  19  32  48  72 105 130 167 208 244 301
#     4   8  16  28  46  72 100 126 156 199 257 313
#     4  10  19  31  53  73 103 128 157 208 262 307
#     4  12  24  36  51  71 101 144 178 203 238 293
#     4  10  21  33  47  75  99 133 169 202 249 300
#
# _framework density 17.636216000000001
#
# number of rings (size 3 to 8) (size 9 to 14) (size 15 to 20)
#    0.000    2.000    1.667    3.000    4.667    0.000 
#    0.000    0.000    0.000    0.000    0.000    7.000 
#    0.000    0.000    0.000    0.000    0.000    0.000 
#
# Total GULP energy -133652.430351 kJ/mol
# GULP energy per Si atom -5568.851265 kJ/mol
# Density = 1.759608 g / cm^3
# Si number density = 17.636216 Si / 1000 Ang^3
#
#
#
# Elastic Constant Matrix: (Units=GPa)
#
#
# Indices 1 2 3 4 5 6 
#
# 1 34.4364 31.0990 35.7707 -0.0089 0.9683 -0.0110
# 2 31.0990 107.6579 17.8371 -0.0141 -4.9744 -0.0007
# 3 35.7707 17.8371 129.4080 0.0041 -15.5589 -0.0019
# 4 -0.0089 -0.0141 0.0041 22.2524 0.0020 -2.4184
# 5 0.9683 -4.9744 -15.5589 0.0020 13.2387 -0.0019
# 6 -0.0110 -0.0007 -0.0019 -2.4184 -0.0019 28.9586
#
#
#
# Elastic Compliance Matrix: (Units=1/GPa)
#
#
# Indices 1 2 3 4 5 6 
#
# 1 0.067206 -0.017674 -0.020415 0.000025 -0.035549 0.000024
# 2 -0.017674 0.014218 0.004336 -0.000001 0.011731 -0.000005
# 3 -0.020415 0.004336 0.015312 -0.000011 0.021118 -0.000006
# 4 0.000025 -0.000001 -0.000011 0.045351 -0.000021 0.003787
# 5 -0.035549 0.011731 0.021118 -0.000021 0.107363 -0.000007
# 6 0.000024 -0.000005 -0.000006 0.003787 -0.000007 0.034848
#
#
# Mechanical properties :
#
#
# Convention : Reuss Voigt Hill
#
# Bulk Modulus (GPa) = 34.21141 48.99065 41.60103
# Shear Modulus (GPa) = 13.82950 25.34296 19.58623
#
# Velocity S-wave (km/s) = 2.80331 3.79487 3.33614
# Velocity P-wave (km/s) = 5.46979 6.85858 6.20317
#
# Compressibility (1/GPa) = 0.02923001
#
# Stress axis : x y z
#
# Youngs Moduli (GPa) = 14.87973 70.33494 65.30861
#
# Poissons Ratio (x) = 1.24308 1.33327
# Poissons Ratio (y) = 0.26298 -0.28318
# Poissons Ratio (z) = 0.30377 -0.30498
#
# Static dielectric constant tensor:
#      x y z
#    x 1.614090 0.000000 -0.055560 
#    y 0.000000 1.606710 -0.000010 
#    z -0.055560 -0.000010 1.643730 
# 
# From -- ./inp_files/278468.got.cif
#   From: 2010.05.17/outbox.cif.g08.bks.cpg/sg15_140_cif.got.tgz:278468.got - 2010.06.03 18:47:42.
