data_PCOD9255537
_publ_section_title
;
Structure prediction by ZEFSAII (Michael W. Deem and Ramdas Pophale) SiO2 
 PCOD9255537
Probable space group: C 2/C
;
_chemical_formula_sum "Si O2"
_cell_formula_units_Z 64
_cell_length_a 6.941410
_cell_length_b 14.373628
_cell_length_c 23.787992
_cell_angle_alpha 90.000000
_cell_angle_beta 105.429075
_cell_angle_gamma 90.000000
_cell_volume 2287.868875
_symmetry_space_group_name_H-M "C 2/C"
_symmetry_group_IT_number 15
_symmetry_cell_setting 'monoclinic'
loop_
_space_group_symop_operation_xyz
x,y,z
-x,y,1/2-z
-x,-y,-z
x,-y,1/2+z
1/2+x,1/2+y,z
1/2-x,1/2+y,1/2-z
1/2-x,1/2-y,-z
1/2+x,1/2-y,1/2+z
loop_
_atom_site_type_symbol
_atom_site_label
_atom_site_fract_x
_atom_site_fract_y
_atom_site_fract_z
Si Si1 0.242358 0.870879 0.027974
Si Si2 0.780436 0.576976 0.066639
Si Si3 0.265530 0.233885 0.634965
Si Si4 0.781440 0.704601 0.835032
Si Si5 0.289246 0.900331 0.701095
Si Si6 0.756456 0.074954 0.091613
Si Si7 0.226663 0.366065 0.053986
Si Si8 0.752251 0.598057 0.731862
O O1 0.168912 0.795094 0.067435
O O2 0.482881 0.863497 0.035445
O O3 0.206039 0.971772 0.051832
O O4 0.155452 0.877066 0.958128
O O5 0.767023 0.598246 0.131429
O O6 0.017954 0.572185 0.075233
O O7 0.710347 0.635673 0.006383
O O8 0.482781 0.189165 0.642877
O O9 0.295215 0.345501 0.641856
O O10 0.186718 0.177745 0.682536
O O11 0.768728 0.794237 0.794199
O O12 0.709085 0.708394 0.893763
O O13 0.696145 0.621965 0.791125
O O14 0.500000 0.906991 0.750000
O O15 0.182728 0.994922 0.710758
O O16 0.798961 0.965337 0.086543
O O17 0.000000 0.598760 0.750000
#
# Coordination Sequence:
#
# PCOD9255537 Si02
#       8
#     8   8   8   8   8   8   8   8
#     4   8  14  29  49  82 108 134 180 219 249 299
#     4   9  17  33  53  82 106 138 180 215 266 301
#     4  10  17  31  54  78 107 138 174 218 263 310
#     4  10  22  37  53  80 105 139 179 212 272 317
#     4  11  23  37  58  77 103 141 181 222 254 319
#     4   9  17  26  55  85 107 134 174 223 257 302
#     4   8  17  32  53  77 113 141 169 221 259 316
#     4   9  20  35  54  75 101 138 178 221 256 305
#
# _framework density 27.973633
#
# number of rings (size 3 to 8) (size 9 to 14) (size 15 to 20)
#    0.000    2.750    1.250    1.875    7.000    0.500 
#    0.000    1.250    0.000    3.000    0.000    0.000 
#    0.000    0.000    0.000    0.000    0.000    0.000 
#
# Total GULP energy -178675.663852 kJ/mol
# GULP energy per Si atom -5583.614495 kJ/mol
# Density = 2.790996 g / cm^3
# Si number density = 27.973633 Si / 1000 Ang^3
#
#
#
# Elastic Constant Matrix: (Units=GPa)
#
#
# Indices 1 2 3 4 5 6 
#
# 1 76.8302 -3.4854 25.5299 0.0000 -5.2066 0.0000
# 2 -3.4854 130.3604 90.6698 0.0000 -13.3633 0.0000
# 3 25.5299 90.6698 145.5674 0.0000 -5.5831 0.0000
# 4 0.0000 0.0000 0.0000 55.7752 0.0000 1.3396
# 5 -5.2066 -13.3633 -5.5831 0.0000 44.5713 0.0000
# 6 0.0000 0.0000 0.0000 1.3396 0.0000 12.0599
#
#
#
# Elastic Compliance Matrix: (Units=1/GPa)
#
#
# Indices 1 2 3 4 5 6 
#
# 1 0.015109 0.004285 -0.005227 0.000000 0.002395 0.000000
# 2 0.004285 0.015166 -0.010053 0.000000 0.003788 0.000000
# 3 -0.005227 -0.010053 0.013976 0.000000 -0.001874 0.000000
# 4 0.000000 0.000000 0.000000 0.017977 0.000000 -0.001997
# 5 0.002395 0.003788 -0.001874 0.000000 0.023617 0.000000
# 6 0.000000 0.000000 0.000000 -0.001997 0.000000 0.083141
#
#
# Mechanical properties :
#
#
# Convention : Reuss Voigt Hill
#
# Bulk Modulus (GPa) = 44.91963 64.24297 54.58130
# Shear Modulus (GPa) = 25.20208 38.48419 31.84314
#
# Velocity S-wave (km/s) = 3.00479 3.71311 3.37757
# Velocity P-wave (km/s) = 5.30388 6.43415 5.89616
#
# Compressibility (1/GPa) = 0.02226198
#
# Stress axis : x y z
#
# Youngs Moduli (GPa) = 66.18424 65.93742 71.55097
#
# Poissons Ratio (x) = -0.28255 0.37401
# Poissons Ratio (y) = -0.28361 0.71928
# Poissons Ratio (z) = 0.34595 0.66285
#
# Static dielectric constant tensor:
#      x y z
#    x 2.256690 0.000000 0.081680 
#    y 0.000000 2.167870 0.000000 
#    z 0.081680 0.000000 2.287910 
# 
# From -- ./inp_files/269268.got.cif
#   From: 2010.05.17/outbox.cif.g08.bks.cpg/sg15_135_cif.got.tgz:269268.got - 2010.06.03 18:47:42.
