data_PCOD9255518
_publ_section_title
;
Structure prediction by ZEFSAII (Michael W. Deem and Ramdas Pophale) SiO2 
 PCOD9255518
Probable space group: C 2/C
;
_chemical_formula_sum "Si O2"
_cell_formula_units_Z 52
_cell_length_a 14.396246
_cell_length_b 11.779456
_cell_length_c 15.694385
_cell_angle_alpha 90.000000
_cell_angle_beta 101.570808
_cell_angle_gamma 90.000000
_cell_volume 2607.365777
_symmetry_space_group_name_H-M "C 2/C"
_symmetry_group_IT_number 15
_symmetry_cell_setting 'monoclinic'
loop_
_space_group_symop_operation_xyz
x,y,z
-x,y,1/2-z
-x,-y,-z
x,-y,1/2+z
1/2+x,1/2+y,z
1/2-x,1/2+y,1/2-z
1/2-x,1/2-y,-z
1/2+x,1/2-y,1/2+z
loop_
_atom_site_type_symbol
_atom_site_label
_atom_site_fract_x
_atom_site_fract_y
_atom_site_fract_z
Si Si1 0.542433 0.298603 0.094093
Si Si2 0.098159 0.466059 0.614286
Si Si3 0.659088 0.256559 0.424470
Si Si4 0.217840 0.874465 0.022891
Si Si5 0.804390 0.985585 0.154980
Si Si6 0.393263 0.993176 0.588622
Si Si7 0.000000 0.951092 0.250000
O O1 0.579742 0.169617 0.111583
O O2 0.434970 0.290920 0.039386
O O3 0.619843 0.363595 0.053942
O O4 0.526228 0.367964 0.177204
O O5 0.200149 0.492340 0.674314
O O6 0.104003 0.506175 0.515753
O O7 0.001516 0.519826 0.633982
O O8 0.750000 0.250000 0.500000
O O9 0.681616 0.351497 0.358853
O O10 0.633636 0.132403 0.385025
O O11 0.306015 0.924803 0.092514
O O12 0.250000 0.750000 0.000000
O O13 0.200740 0.952711 0.937525
O O14 0.903498 0.021375 0.215857
#
# Coordination Sequence:
#
# PCOD9255518 Si02
#       7
#     8   8   8   8   8   8   4
#     4  10  21  36  58  81 117 149 188 236 295 346
#     4   9  16  32  59  79 109 149 181 232 287 328
#     4  10  17  31  52  84 114 139 187 229 278 332
#     4  11  19  33  61  91 113 143 189 249 296 329
#     4  10  20  36  60  82 120 153 188 236 287 338
#     4   9  17  29  53  89 112 134 179 242 287 324
#     4  10  24  40  52  76 120 164 188 222 286 364
#
# _framework density 19.943501000000001
#
# number of rings (size 3 to 8) (size 9 to 14) (size 15 to 20)
#    0.000    2.154    6.154    0.000    0.000    2.462 
#    0.000    4.615    3.385    0.000    0.000    0.000 
#    0.000    0.000    0.000    0.000    0.000    0.000 
#
# Total GULP energy -144802.299872 kJ/mol
# GULP energy per Si atom -5569.319226 kJ/mol
# Density = 1.989811 g / cm^3
# Si number density = 19.943501 Si / 1000 Ang^3
#
#
#
# Elastic Constant Matrix: (Units=GPa)
#
#
# Indices 1 2 3 4 5 6 
#
# 1 211.8219 45.4632 44.1836 0.0000 53.9396 0.0000
# 2 45.4632 68.5132 2.2864 0.0000 5.2969 0.0000
# 3 44.1836 2.2864 32.1272 0.0000 18.0169 0.0000
# 4 0.0000 0.0000 0.0000 7.6332 0.0000 5.6885
# 5 53.9396 5.2969 18.0169 0.0000 40.2125 0.0000
# 6 0.0000 0.0000 0.0000 5.6885 0.0000 40.5232
#
#
#
# Elastic Compliance Matrix: (Units=1/GPa)
#
#
# Indices 1 2 3 4 5 6 
#
# 1 0.009898 -0.005609 -0.008256 0.000000 -0.008838 0.000000
# 2 -0.005609 0.017924 0.004732 0.000000 0.003042 0.000000
# 3 -0.008256 0.004732 0.048459 0.000000 -0.011260 0.000000
# 4 0.000000 0.000000 0.000000 0.146313 0.000000 -0.020539
# 5 -0.008838 0.003042 -0.011260 0.000000 0.041368 0.000000
# 6 0.000000 0.000000 0.000000 -0.020539 0.000000 0.027560
#
#
# Mechanical properties :
#
#
# Convention : Reuss Voigt Hill
#
# Bulk Modulus (GPa) = 17.23703 55.14763 36.19233
# Shear Modulus (GPa) = 15.19175 32.37573 23.78374
#
# Velocity S-wave (km/s) = 2.76296 4.03348 3.45709
# Velocity P-wave (km/s) = 4.34054 7.02879 5.84141
#
# Compressibility (1/GPa) = 0.05801463
#
# Stress axis : x y z
#
# Youngs Moduli (GPa) = 101.03519 55.78967 20.63609
#
# Poissons Ratio (x) = 0.31292 0.17037
# Poissons Ratio (y) = 0.56669 -0.09765
# Poissons Ratio (z) = 0.83416 -0.26399
#
# Static dielectric constant tensor:
#      x y z
#    x 1.785400 0.000000 0.025150 
#    y 0.000000 1.700600 0.000000 
#    z 0.025150 0.000000 1.736010 
# 
# From -- ./inp_files/243132.got.cif
#   From: 2010.05.17/outbox.cif.g08.bks.cpg/sg15_122_cif.got.tgz:243132.got - 2010.06.03 18:47:42.
