data_PCOD9255401
_publ_section_title
;
Structure prediction by ZEFSAII (Michael W. Deem and Ramdas Pophale) SiO2 
 PCOD9255401
Probable space group: C 2/C
;
_chemical_formula_sum "Si O2"
_cell_formula_units_Z 56
_cell_length_a 23.844465
_cell_length_b 9.058307
_cell_length_c 17.572819
_cell_angle_alpha 90.000000
_cell_angle_beta 132.199766
_cell_angle_gamma 90.000000
_cell_volume 2811.779954
_symmetry_space_group_name_H-M "C 2/C"
_symmetry_group_IT_number 15
_symmetry_cell_setting 'monoclinic'
loop_
_space_group_symop_operation_xyz
x,y,z
-x,y,1/2-z
-x,-y,-z
x,-y,1/2+z
1/2+x,1/2+y,z
1/2-x,1/2+y,1/2-z
1/2-x,1/2-y,-z
1/2+x,1/2-y,1/2+z
loop_
_atom_site_type_symbol
_atom_site_label
_atom_site_fract_x
_atom_site_fract_y
_atom_site_fract_z
Si Si1 0.669943 0.258537 0.551108
Si Si2 0.073140 0.185805 0.364623
Si Si3 0.420201 0.478860 0.467805
Si Si4 0.282602 0.001576 0.644601
Si Si5 0.717055 0.656337 0.385600
Si Si6 0.275359 0.452409 0.247595
Si Si7 0.869567 0.497103 0.086931
O O1 0.612755 0.357897 0.546694
O O2 0.723140 0.380962 0.558834
O O3 0.726119 0.165036 0.656060
O O4 0.625960 0.148203 0.455173
O O5 0.074494 0.104505 0.446659
O O6 0.145723 0.151885 0.377165
O O7 0.073356 0.363846 0.376934
O O8 0.000000 0.141808 0.250000
O O9 0.500000 0.500000 0.500000
O O10 0.354237 0.400872 0.357553
O O11 0.263068 0.173192 0.612381
O O12 0.276263 0.987955 0.729810
O O13 0.359531 0.976421 0.668063
O O14 0.701985 0.578502 0.291708
O O15 0.788870 0.572484 0.486212
#
# Coordination Sequence:
#
# PCOD9255401 Si02
#       7
#     8   8   8   8   8   8   8
#     4  10  21  36  59  90 117 147 193 245 293 341
#     4  11  23  39  58  81 113 159 198 230 284 356
#     4  11  23  42  62  86 119 156 194 242 296 351
#     4  10  17  30  54  84 114 145 185 234 280 332
#     4  10  19  35  57  83 114 150 189 233 287 345
#     4  10  20  34  57  90 119 150 192 241 289 344
#     4  10  20  36  58  82 113 149 190 239 288 337
#
# _framework density 19.916211000000001
#
# number of rings (size 3 to 8) (size 9 to 14) (size 15 to 20)
#    0.000    1.714    0.000    8.143    0.000    4.571 
#    0.000    4.286    0.000    0.000    0.000    0.000 
#    0.000    0.000    0.000    0.000    0.000    0.000 
#
# Total GULP energy -156177.918374 kJ/mol
# GULP energy per Si atom -5577.782799 kJ/mol
# Density = 1.987088 g / cm^3
# Si number density = 19.916211 Si / 1000 Ang^3
#
#
#
# Elastic Constant Matrix: (Units=GPa)
#
#
# Indices 1 2 3 4 5 6 
#
# 1 106.6504 45.4655 44.3206 0.0000 -19.0410 0.0000
# 2 45.4655 103.1090 28.6967 0.0000 -12.6935 0.0000
# 3 44.3206 28.6967 107.2747 0.0000 -13.7791 0.0000
# 4 0.0000 0.0000 0.0000 27.2239 0.0000 -6.9968
# 5 -19.0410 -12.6935 -13.7791 0.0000 28.6662 0.0000
# 6 0.0000 0.0000 0.0000 -6.9968 0.0000 23.3711
#
#
#
# Elastic Compliance Matrix: (Units=1/GPa)
#
#
# Indices 1 2 3 4 5 6 
#
# 1 0.013788 -0.004347 -0.003842 0.000000 0.005387 0.000000
# 2 -0.004347 0.012191 -0.001218 0.000000 0.001925 0.000000
# 3 -0.003842 -0.001218 0.011551 0.000000 0.002461 0.000000
# 4 0.000000 0.000000 0.000000 0.039794 0.000000 0.011913
# 5 0.005387 0.001925 0.002461 0.000000 0.040498 0.000000
# 6 0.000000 0.000000 0.000000 0.011913 0.000000 0.046354
#
#
# Mechanical properties :
#
#
# Convention : Reuss Voigt Hill
#
# Bulk Modulus (GPa) = 53.42864 61.55552 57.49208
# Shear Modulus (GPa) = 26.42295 29.08901 27.75598
#
# Velocity S-wave (km/s) = 3.64635 3.82589 3.73720
# Velocity P-wave (km/s) = 6.67928 7.10569 6.89578
#
# Compressibility (1/GPa) = 0.01871655
#
# Stress axis : x y z
#
# Youngs Moduli (GPa) = 72.52714 82.02490 86.57292
#
# Poissons Ratio (x) = 0.35660 0.33258
# Poissons Ratio (y) = 0.31530 0.10543
# Poissons Ratio (z) = 0.27862 0.09989
#
# Static dielectric constant tensor:
#      x y z
#    x 1.723810 0.000000 -0.027970 
#    y 0.000000 1.737590 0.000000 
#    z -0.027970 0.000000 1.747840 
# 
# From -- ./inp_files/218646.got.cif
#   From: 2010.05.17/outbox.cif.g08.bks.cpg/sg15_110_cif.got.tgz:218646.got - 2010.06.03 18:47:42.
