data_PCOD9255258
_publ_section_title
;
Structure prediction by ZEFSAII (Michael W. Deem and Ramdas Pophale) SiO2 
 PCOD9255258
Probable space group: C 2/C
;
_chemical_formula_sum "Si O2"
_cell_formula_units_Z 52
_cell_length_a 8.606208
_cell_length_b 20.242827
_cell_length_c 14.473905
_cell_angle_alpha 90.000000
_cell_angle_beta 113.204991
_cell_angle_gamma 90.000000
_cell_volume 2317.565234
_symmetry_space_group_name_H-M "C 2/C"
_symmetry_group_IT_number 15
_symmetry_cell_setting 'monoclinic'
loop_
_space_group_symop_operation_xyz
x,y,z
-x,y,1/2-z
-x,-y,-z
x,-y,1/2+z
1/2+x,1/2+y,z
1/2-x,1/2+y,1/2-z
1/2-x,1/2-y,-z
1/2+x,1/2-y,1/2+z
loop_
_atom_site_type_symbol
_atom_site_label
_atom_site_fract_x
_atom_site_fract_y
_atom_site_fract_z
Si Si1 0.000000 0.692721 0.750000
Si Si2 0.223836 0.511958 0.975502
Si Si3 0.851940 0.740514 0.891515
Si Si4 0.823206 0.902473 0.332379
Si Si5 0.000000 0.809571 0.250000
Si Si6 0.668327 0.991558 0.667175
Si Si7 0.279920 0.143560 0.033040
Si Si8 0.500000 0.890964 0.750000
O O1 0.019479 0.735542 0.662108
O O2 0.161609 0.645706 0.800562
O O3 0.329057 0.554586 0.926927
O O4 0.263842 0.433530 0.986088
O O5 0.024922 0.516223 0.898129
O O6 0.235704 0.533881 0.084867
O O7 0.667770 0.732514 0.801352
O O8 0.855677 0.805746 0.954851
O O9 0.856605 0.676664 0.959320
O O10 0.975944 0.856792 0.333581
O O11 0.780421 0.951398 0.237484
O O12 0.647018 0.937176 0.741836
O O13 0.428069 0.144612 0.144448
#
# Coordination Sequence:
#
# PCOD9255258 Si02
#       8
#     4   8   8   8   4   8   8   4
#     4  10  19  34  60  80 112 143 204 242 272 326
#     4  10  18  29  57  88 110 139 186 245 291 337
#     4  10  22  39  59  85 112 163 196 235 278 344
#     4  11  18  35  53  86 112 145 184 245 288 349
#     4  10  23  36  58  80 126 155 190 226 300 352
#     4  10  17  29  53  90 110 136 188 238 293 329
#     4  10  20  36  60  83 119 149 198 234 289 336
#     4  10  18  32  60  88 120 146 190 248 280 344
#
# _framework density 22.437342000000001
#
# number of rings (size 3 to 8) (size 9 to 14) (size 15 to 20)
#    0.000    1.846    4.615    2.308    4.308    0.000 
#    0.000    3.846    6.769    8.308    0.000    0.000 
#    0.000    0.000    0.000    0.000    0.000    0.000 
#
# Total GULP energy -145251.000444 kJ/mol
# GULP energy per Si atom -5586.576940 kJ/mol
# Density = 2.238627 g / cm^3
# Si number density = 22.437342 Si / 1000 Ang^3
#
#
#
# Elastic Constant Matrix: (Units=GPa)
#
#
# Indices 1 2 3 4 5 6 
#
# 1 44.8290 13.2706 12.9927 0.0000 -23.2366 0.0000
# 2 13.2706 68.7412 6.3968 0.0000 -22.0702 0.0000
# 3 12.9927 6.3968 109.8878 0.0000 -34.7973 0.0000
# 4 0.0000 0.0000 0.0000 36.5187 0.0000 0.2457
# 5 -23.2366 -22.0702 -34.7973 0.0000 44.1371 0.0000
# 6 0.0000 0.0000 0.0000 0.2457 0.0000 -0.1797
#
#
#
# Elastic Compliance Matrix: (Units=1/GPa)
#
#
# Indices 1 2 3 4 5 6 
#
# 1 0.031021 -0.000519 0.001935 0.000000 0.017597 0.000000
# 2 -0.000519 0.017791 0.002341 0.000000 0.010468 0.000000
# 3 0.001935 0.002341 0.012565 0.000000 0.012095 0.000000
# 4 0.000000 0.000000 0.000000 0.027134 0.000000 0.037099
# 5 0.017597 0.010468 0.012095 0.000000 0.046691 0.000000
# 6 0.000000 0.000000 0.000000 0.037099 0.000000 -5.514198
#
#
# Mechanical properties :
#
#
# Convention : Reuss Voigt Hill
#
# Bulk Modulus (GPa) = 14.51587 32.08649 23.30118
# Shear Modulus (GPa) = -0.93222 28.81508 13.94143
#
# Velocity S-wave (km/s) = -0.64527 3.58753 2.49539
# Velocity P-wave (km/s) = 2.43483 5.61177 4.32553
#
# Compressibility (1/GPa) = 0.06889011
#
# Stress axis : x y z
#
# Youngs Moduli (GPa) = 32.23595 56.20955 79.58419
#
# Poissons Ratio (x) = 0.02917 -0.15398
# Poissons Ratio (y) = 0.01673 -0.18627
# Poissons Ratio (z) = -0.06237 -0.13156
#
# Static dielectric constant tensor:
#      x y z
#    x 1.836910 0.000000 0.010240 
#    y 0.000000 1.874430 0.000000 
#    z 0.010240 0.000000 1.847520 
# 
# From -- ./inp_files/136941.got.cif
#   From: 2010.05.17/outbox.cif.g08.bks.cpg/sg15_69_cif.got.tgz:136941.got - 2010.06.03 18:47:42.
