data_PCOD9255728
_publ_section_title
;
Structure prediction by ZEFSAII (Michael W. Deem and Ramdas Pophale) SiO2 
 PCOD9255728
Probable space group: C 2/C
;
_chemical_formula_sum "Si O2"
_cell_formula_units_Z 64
_cell_length_a 14.373227
_cell_length_b 12.923071
_cell_length_c 28.319517
_cell_angle_alpha 90.000000
_cell_angle_beta 140.721004
_cell_angle_gamma 90.000000
_cell_volume 3330.245227
_symmetry_space_group_name_H-M "C 2/C"
_symmetry_group_IT_number 15
_symmetry_cell_setting 'monoclinic'
loop_
_space_group_symop_operation_xyz
x,y,z
-x,y,1/2-z
-x,-y,-z
x,-y,1/2+z
1/2+x,1/2+y,z
1/2-x,1/2+y,1/2-z
1/2-x,1/2-y,-z
1/2+x,1/2-y,1/2+z
loop_
_atom_site_type_symbol
_atom_site_label
_atom_site_fract_x
_atom_site_fract_y
_atom_site_fract_z
Si Si1 0.169581 0.491871 0.804176
Si Si2 0.703760 0.375604 0.067133
Si Si3 0.326423 0.688852 0.180839
Si Si4 0.926786 0.609239 0.575833
Si Si5 0.457752 0.235123 0.966024
Si Si6 0.160639 0.752159 0.294225
Si Si7 0.705168 0.164805 0.744801
Si Si8 0.545675 0.932390 0.563332
O O1 0.258238 0.526567 0.885377
O O2 0.172142 0.371836 0.792252
O O3 0.226616 0.561167 0.783424
O O4 0.000000 0.520488 0.750000
O O5 0.782392 0.276482 0.124486
O O6 0.773501 0.389842 0.042831
O O7 0.532383 0.346825 0.998294
O O8 0.500000 0.667275 0.250000
O O9 0.288124 0.742152 0.215563
O O10 0.219566 0.590364 0.133196
O O11 0.044366 0.655816 0.658491
O O12 0.983368 0.495088 0.583134
O O13 0.940687 0.677396 0.533844
O O14 0.293766 0.224393 0.882465
O O15 0.475321 0.178326 0.023084
O O16 0.189102 0.813106 0.257201
O O17 0.000000 0.776205 0.250000
O O18 0.500000 0.000000 0.500000
#
# Coordination Sequence:
#
# PCOD9255728 Si02
#       8
#     8   8   8   8   8   8   8   8
#     4  10  19  35  59  85 112 148 190 236 288 349
#     4  10  17  32  58  84 111 140 189 244 288 334
#     4  10  18  33  57  87 114 144 187 248 286 334
#     4  10  17  32  55  82 116 147 186 232 288 348
#     4   9  20  36  53  80 114 152 191 233 290 342
#     4  10  23  39  58  79 115 159 192 235 285 350
#     4  10  19  34  58  87 114 141 194 239 294 330
#     4   9  20  34  51  79 120 162 183 225 290 349
#
# _framework density 19.217804999999998
#
# number of rings (size 3 to 8) (size 9 to 14) (size 15 to 20)
#    0.000    2.250    2.500    1.125    1.750    0.500 
#    0.000    6.875    0.000    7.500    0.000    0.000 
#    0.000    0.000    0.000    0.000    0.000    0.000 
#
# Total GULP energy -178381.559870 kJ/mol
# GULP energy per Si atom -5574.423746 kJ/mol
# Density = 1.917406 g / cm^3
# Si number density = 19.217805 Si / 1000 Ang^3
#
#
#
# Elastic Constant Matrix: (Units=GPa)
#
#
# Indices 1 2 3 4 5 6 
#
# 1 77.3498 37.2944 42.8433 0.0000 15.4183 0.0000
# 2 37.2944 45.4284 13.4336 0.0000 8.5860 0.0000
# 3 42.8433 13.4336 86.1702 0.0000 9.6278 0.0000
# 4 0.0000 0.0000 0.0000 27.7400 0.0000 1.3208
# 5 15.4183 8.5860 9.6278 0.0000 24.8726 0.0000
# 6 0.0000 0.0000 0.0000 1.3208 0.0000 21.0648
#
#
#
# Elastic Compliance Matrix: (Units=1/GPa)
#
#
# Indices 1 2 3 4 5 6 
#
# 1 0.030284 -0.020165 -0.011073 0.000000 -0.007526 0.000000
# 2 -0.020165 0.037684 0.004398 0.000000 -0.002211 0.000000
# 3 -0.011073 0.004398 0.016543 0.000000 -0.001058 0.000000
# 4 0.000000 0.000000 0.000000 0.036157 0.000000 -0.002267
# 5 -0.007526 -0.002211 -0.001058 0.000000 0.046043 0.000000
# 6 0.000000 0.000000 0.000000 -0.002267 0.000000 0.047615
#
#
# Mechanical properties :
#
#
# Convention : Reuss Voigt Hill
#
# Bulk Modulus (GPa) = 32.43356 44.01010 38.22183
# Shear Modulus (GPa) = 17.96743 22.42729 20.19736
#
# Velocity S-wave (km/s) = 3.06099 3.41985 3.24539
# Velocity P-wave (km/s) = 5.42276 6.20840 5.82883
#
# Compressibility (1/GPa) = 0.03083226
#
# Stress axis : x y z
#
# Youngs Moduli (GPa) = 33.02084 26.53624 60.44971
#
# Poissons Ratio (x) = 0.53510 0.66933
# Poissons Ratio (y) = 0.66586 -0.26586
# Poissons Ratio (z) = 0.36562 -0.11671
#
# Static dielectric constant tensor:
#      x y z
#    x 1.664040 0.000000 -0.005850 
#    y 0.000000 1.735300 0.000000 
#    z -0.005850 0.000000 1.693560 
# 
# From -- ./inp_files/293088.got.cif
#   From: 2010.05.17/outbox.cif.g08.bks.cpg/sg15_147_cif.got.tgz:293088.got - 2010.06.03 18:47:42.
