data_PCOD9255168
_publ_section_title
;
Structure prediction by ZEFSAII (Michael W. Deem and Ramdas Pophale) SiO2 
 PCOD9255168
Probable space group: C 2/C
;
_chemical_formula_sum "Si O2"
_cell_formula_units_Z 48
_cell_length_a 17.496674
_cell_length_b 9.069944
_cell_length_c 11.700646
_cell_angle_alpha 90.000000
_cell_angle_beta 99.354371
_cell_angle_gamma 90.000000
_cell_volume 1832.128447
_symmetry_space_group_name_H-M "C 2/C"
_symmetry_group_IT_number 15
_symmetry_cell_setting 'monoclinic'
loop_
_space_group_symop_operation_xyz
x,y,z
-x,y,1/2-z
-x,-y,-z
x,-y,1/2+z
1/2+x,1/2+y,z
1/2-x,1/2+y,1/2-z
1/2-x,1/2-y,-z
1/2+x,1/2-y,1/2+z
loop_
_atom_site_type_symbol
_atom_site_label
_atom_site_fract_x
_atom_site_fract_y
_atom_site_fract_z
Si Si1 0.348967 0.109324 0.005029
Si Si2 0.204606 0.073224 0.087948
Si Si3 0.344390 0.604371 0.197804
Si Si4 0.591634 0.278420 0.269686
Si Si5 0.462813 0.824429 0.353413
Si Si6 0.389956 0.695335 0.980872
O O1 0.274582 0.016739 0.025426
O O2 0.388081 0.155609 0.132930
O O3 0.313346 0.260205 0.947927
O O4 0.412097 0.072311 0.924653
O O5 0.224036 0.080076 0.227526
O O6 0.127809 0.975558 0.054178
O O7 0.372180 0.436517 0.183007
O O8 0.410181 0.696160 0.283224
O O9 0.336417 0.701601 0.081791
O O10 0.500000 0.300898 0.250000
O O11 0.619966 0.241069 0.148346
O O12 0.500000 0.899052 0.250000
O O13 0.527785 0.747148 0.448863
#
# Coordination Sequence:
#
# PCOD9255168 Si02
#       6
#     8   8   8   8   8   8
#     4  10  18  30  41  67 100 135 161 193 258 296
#     4   9  19  29  43  60 100 140 158 196 246 308
#     4   9  18  27  42  65  96 129 165 201 234 291
#     4  11  18  24  44  68  95 127 162 203 239 289
#     4   9  17  28  46  70  99 125 167 206 239 284
#     4  10  17  29  44  71  93 131 168 201 237 294
#
# _framework density 26.199037000000001
#
# number of rings (size 3 to 8) (size 9 to 14) (size 15 to 20)
#    0.000    2.333    3.333    1.500    0.000    2.667 
#    0.000    0.833    0.000    0.000    0.000    0.000 
#    0.000    4.000    0.000    0.000    0.000    0.000 
#
# Total GULP energy -133834.421156 kJ/mol
# GULP energy per Si atom -5576.434215 kJ/mol
# Density = 2.613941 g / cm^3
# Si number density = 26.199037 Si / 1000 Ang^3
#
#
#
# Elastic Constant Matrix: (Units=GPa)
#
#
# Indices 1 2 3 4 5 6 
#
# 1 101.7968 32.0020 51.0195 0.0000 -22.7258 0.0000
# 2 32.0020 87.7860 13.2872 0.0000 4.2799 0.0000
# 3 51.0195 13.2872 206.2256 0.0000 -43.2861 0.0000
# 4 0.0000 0.0000 0.0000 -7.1167 0.0000 18.6851
# 5 -22.7258 4.2799 -43.2861 0.0000 36.8914 0.0000
# 6 0.0000 0.0000 0.0000 18.6851 0.0000 4.4491
#
#
#
# Elastic Compliance Matrix: (Units=1/GPa)
#
#
# Indices 1 2 3 4 5 6 
#
# 1 0.013865 -0.005174 -0.001563 0.000000 0.007307 0.000000
# 2 -0.005174 0.013677 -0.000800 0.000000 -0.005713 0.000000
# 3 -0.001563 -0.000800 0.006773 0.000000 0.007077 0.000000
# 4 0.000000 0.000000 0.000000 -0.011684 0.000000 0.049069
# 5 0.007307 -0.005713 0.007077 0.000000 0.040574 0.000000
# 6 0.000000 0.000000 0.000000 0.049069 0.000000 0.018689
#
#
# Mechanical properties :
#
#
# Convention : Reuss Voigt Hill
#
# Bulk Modulus (GPa) = 51.97521 65.38062 58.67792
# Shear Modulus (GPa) = 48.36438 26.81142 37.58790
#
# Velocity S-wave (km/s) = 4.30121 3.20249 3.79186
# Velocity P-wave (km/s) = 6.67450 6.21966 6.45109
#
# Compressibility (1/GPa) = 0.01923994
#
# Stress axis : x y z
#
# Youngs Moduli (GPa) = 72.12558 73.11453 147.65241
#
# Poissons Ratio (x) = 0.37830 0.23077
# Poissons Ratio (y) = 0.37318 0.11818
# Poissons Ratio (z) = 0.11273 0.05852
#
# Static dielectric constant tensor:
#      x y z
#    x 2.146410 0.000000 -0.062660 
#    y 0.000000 1.993120 0.000000 
#    z -0.062660 0.000000 2.160230 
# 
# From -- ./inp_files/103838.got.cif
#   From: 2010.05.17/outbox.cif.g08.bks.cpg/sg15_52_cif.got.tgz:103838.got - 2010.06.03 18:47:42.
