data_PCOD9255787
_publ_section_title
;
Structure prediction by ZEFSAII (Michael W. Deem and Ramdas Pophale) SiO2 
 PCOD9255787
Probable space group: C 2/C
;
_chemical_formula_sum "Si O2"
_cell_formula_units_Z 52
_cell_length_a 19.225901
_cell_length_b 10.790592
_cell_length_c 28.376732
_cell_angle_alpha 90.000000
_cell_angle_beta 25.084754
_cell_angle_gamma 90.000000
_cell_volume 2495.845168
_symmetry_space_group_name_H-M "C 2/C"
_symmetry_group_IT_number 15
_symmetry_cell_setting 'monoclinic'
loop_
_space_group_symop_operation_xyz
x,y,z
-x,y,1/2-z
-x,-y,-z
x,-y,1/2+z
1/2+x,1/2+y,z
1/2-x,1/2+y,1/2-z
1/2-x,1/2-y,-z
1/2+x,1/2-y,1/2+z
loop_
_atom_site_type_symbol
_atom_site_label
_atom_site_fract_x
_atom_site_fract_y
_atom_site_fract_z
Si Si1 0.500000 0.166403 0.250000
Si Si2 0.937132 0.794133 0.387464
Si Si3 0.120380 0.874725 0.980858
Si Si4 0.091151 0.690156 0.742356
Si Si5 0.562633 0.461067 0.663119
Si Si6 0.539764 0.653279 0.014200
Si Si7 0.621306 0.169388 0.547295
O O1 0.516536 0.232430 0.292009
O O2 0.683168 0.107274 0.132235
O O3 0.750000 0.750000 0.500000
O O4 0.965500 0.788260 0.426601
O O5 0.951446 0.940894 0.369135
O O6 0.037065 0.010435 0.031665
O O7 0.090401 0.822743 0.946828
O O8 0.281678 0.673060 0.618920
O O9 0.000000 0.654522 0.750000
O O10 0.041760 0.835178 0.779740
O O11 0.011407 0.618127 0.834874
O O12 0.500000 0.518605 0.750000
O O13 0.754329 0.427688 0.551603
O O14 0.537553 0.744669 0.059913
O O15 0.750000 0.250000 0.500000
#
# Coordination Sequence:
#
# PCOD9255787 Si02
#       7
#     4   8   8   8   8   8   8
#     4  10  22  40  62  76 106 160 206 240 288 350
#     4  10  21  38  59  83 110 155 208 243 284 358
#     4  10  24  37  59  83 119 157 197 245 293 364
#     4  10  19  30  55  89 115 150 186 239 300 353
#     4  10  17  32  58  88 110 148 199 247 300 342
#     4  11  21  38  55  91 123 151 192 243 308 355
#     4  10  18  31  55  88 121 149 185 236 295 358
#
# _framework density 20.834624999999999
#
# number of rings (size 3 to 8) (size 9 to 14) (size 15 to 20)
#    0.000    1.846    5.385    1.846    1.077    2.462 
#    0.000    0.000    0.000    8.308    0.000    0.000 
#    0.000    0.000    0.000    0.000    0.000    0.000 
#
# Total GULP energy -144736.216759 kJ/mol
# GULP energy per Si atom -5566.777568 kJ/mol
# Density = 2.078720 g / cm^3
# Si number density = 20.834625 Si / 1000 Ang^3
#
#
#
# Elastic Constant Matrix: (Units=GPa)
#
#
# Indices 1 2 3 4 5 6 
#
# 1 132.5100 18.9613 20.4078 0.0002 16.0653 -0.0003
# 2 18.9613 11.6250 1.3194 -0.0002 6.0425 0.0002
# 3 20.4078 1.3194 87.7061 -0.0010 21.4447 0.0005
# 4 0.0002 -0.0002 -0.0010 12.8744 0.0004 -1.2788
# 5 16.0653 6.0425 21.4447 0.0004 40.7013 0.0001
# 6 -0.0003 0.0002 0.0005 -1.2788 0.0001 15.7557
#
#
#
# Elastic Compliance Matrix: (Units=1/GPa)
#
#
# Indices 1 2 3 4 5 6 
#
# 1 0.010239 -0.016167 -0.001995 0.000000 -0.000590 0.000000
# 2 -0.016167 0.119139 0.005434 0.000002 -0.014169 -0.000002
# 3 -0.001995 0.005434 0.013532 0.000001 -0.007149 0.000000
# 4 0.000000 0.000002 0.000001 0.078305 -0.000002 0.006356
# 5 -0.000590 -0.014169 -0.007149 -0.000002 0.030672 0.000000
# 6 0.000000 -0.000002 0.000000 0.006356 0.000000 0.063985
#
#
# Mechanical properties :
#
#
# Convention : Reuss Voigt Hill
#
# Bulk Modulus (GPa) = 8.51397 34.80203 21.65800
# Shear Modulus (GPa) = 13.14131 26.60978 19.87555
#
# Velocity S-wave (km/s) = 2.51419 3.57766 3.09199
# Velocity P-wave (km/s) = 3.53886 5.81432 4.81300
#
# Compressibility (1/GPa) = 0.11745397
#
# Stress axis : x y z
#
# Youngs Moduli (GPa) = 97.66778 8.39355 73.89803
#
# Poissons Ratio (x) = 0.13570 0.14742
# Poissons Ratio (y) = 1.57901 -0.40156
# Poissons Ratio (z) = 0.19484 -0.04561
#
# Static dielectric constant tensor:
#      x y z
#    x 1.789940 0.000000 0.058210 
#    y 0.000000 1.773180 0.000000 
#    z 0.058210 0.000000 1.769530 
# 
# From -- ./inp_files/298861.got.cif
#   From: 2010.05.17/outbox.cif.g08.bks.cpg/sg15_150_cif.got.tgz:298861.got - 2010.06.03 18:47:42.
