data_PCOD9255406
_publ_section_title
;
Structure prediction by ZEFSAII (Michael W. Deem and Ramdas Pophale) SiO2 
 PCOD9255406
Probable space group: C 2/C
;
_chemical_formula_sum "Si O2"
_cell_formula_units_Z 44
_cell_length_a 10.441837
_cell_length_b 21.394043
_cell_length_c 8.815686
_cell_angle_alpha 90.000000
_cell_angle_beta 90.332849
_cell_angle_gamma 90.000000
_cell_volume 1969.330279
_symmetry_space_group_name_H-M "C 2/C"
_symmetry_group_IT_number 15
_symmetry_cell_setting 'monoclinic'
loop_
_space_group_symop_operation_xyz
x,y,z
-x,y,1/2-z
-x,-y,-z
x,-y,1/2+z
1/2+x,1/2+y,z
1/2-x,1/2+y,1/2-z
1/2-x,1/2-y,-z
1/2+x,1/2-y,1/2+z
loop_
_atom_site_type_symbol
_atom_site_label
_atom_site_fract_x
_atom_site_fract_y
_atom_site_fract_z
Si Si1 0.025920 0.740007 0.590421
Si Si2 0.200340 0.391908 0.832239
Si Si3 0.088368 0.626049 0.035367
Si Si4 0.500000 0.701959 0.750000
Si Si5 0.354580 0.029468 0.704701
Si Si6 0.742809 0.648224 0.870056
O O1 0.163989 0.707430 0.611623
O O2 0.000000 0.775236 0.750000
O O3 0.926628 0.680954 0.585877
O O4 0.010099 0.764184 0.415955
O O5 0.182467 0.357165 0.673153
O O6 0.221379 0.465062 0.802437
O O7 0.056361 0.385005 0.903937
O O8 0.297329 0.364452 0.955046
O O9 0.137341 0.563372 0.957308
O O10 0.628814 0.661996 0.755239
O O11 0.500000 0.013591 0.750000
O O12 0.306741 0.083294 0.817293
#
# Coordination Sequence:
#
# PCOD9255406 Si02
#       6
#     8   8   8   4   8   8
#     4  11  21  42  66  90 116 153 205 261 310 351
#     4  10  19  29  59  92 124 155 180 242 319 361
#     4  10  17  30  54  95 125 139 187 251 311 367
#     4  12  28  44  60  82 124 172 210 248 296 346
#     4  12  17  33  60  94 125 149 191 247 313 363
#     4  11  23  42  58  88 124 155 203 252 294 370
#
# _framework density 22.34262
#
# number of rings (size 3 to 8) (size 9 to 14) (size 15 to 20)
#    0.000    1.091    7.273    4.364    0.000    0.727 
#    3.273    0.909    0.000    0.000    0.000    0.000 
#    0.000    0.000    0.000    0.000    0.000    0.000 
#
# Total GULP energy -122702.145861 kJ/mol
# GULP energy per Si atom -5577.370266 kJ/mol
# Density = 2.229177 g / cm^3
# Si number density = 22.342620 Si / 1000 Ang^3
#
#
#
# Elastic Constant Matrix: (Units=GPa)
#
#
# Indices 1 2 3 4 5 6 
#
# 1 42.9348 16.1293 26.1703 0.0000 27.4063 0.0000
# 2 16.1293 44.2619 22.5277 0.0000 6.1577 0.0000
# 3 26.1703 22.5277 158.5239 0.0000 17.4226 0.0000
# 4 0.0000 0.0000 0.0000 108.9679 0.0000 71.3451
# 5 27.4063 6.1577 17.4226 0.0000 35.3719 0.0000
# 6 0.0000 0.0000 0.0000 71.3451 0.0000 77.4922
#
#
#
# Elastic Compliance Matrix: (Units=1/GPa)
#
#
# Indices 1 2 3 4 5 6 
#
# 1 0.054615 -0.013045 -0.002919 0.000000 -0.038607 0.000000
# 2 -0.013045 0.027713 -0.002501 0.000000 0.006515 0.000000
# 3 -0.002919 -0.002501 0.007241 0.000000 -0.000869 0.000000
# 4 0.000000 0.000000 0.000000 0.023104 0.000000 -0.021271
# 5 -0.038607 0.006515 -0.000869 0.000000 0.057478 0.000000
# 6 0.000000 0.000000 0.000000 -0.021271 0.000000 0.032489
#
#
# Mechanical properties :
#
#
# Convention : Reuss Voigt Hill
#
# Bulk Modulus (GPa) = 18.99747 41.70836 30.35291
# Shear Modulus (GPa) = 19.44647 56.42595 37.93621
#
# Velocity S-wave (km/s) = 2.95341 5.03087 4.12507
# Velocity P-wave (km/s) = 4.48904 7.24254 6.02519
#
# Compressibility (1/GPa) = 0.05263860
#
# Stress axis : x y z
#
# Youngs Moduli (GPa) = 18.31001 36.08421 138.10139
#
# Poissons Ratio (x) = 0.47073 0.40316
# Poissons Ratio (y) = 0.23886 0.34535
# Poissons Ratio (z) = 0.05345 0.09024
#
# Static dielectric constant tensor:
#      x y z
#    x 1.836130 0.000000 -0.040680 
#    y 0.000000 1.863570 0.000000 
#    z -0.040680 0.000000 1.958290 
# 
# From -- ./inp_files/30942.got.cif
#   From: 2010.05.17/outbox.cif.g08.bks.cpg/sg15_16_cif.got.tgz:30942.got - 2010.06.03 18:47:42.
