data_PCOD9255187
_publ_section_title
;
Structure prediction by ZEFSAII (Michael W. Deem and Ramdas Pophale) SiO2 
 PCOD9255187
Probable space group: C 2/C
;
_chemical_formula_sum "Si O2"
_cell_formula_units_Z 52
_cell_length_a 6.903851
_cell_length_b 18.814788
_cell_length_c 23.646702
_cell_angle_alpha 90.000000
_cell_angle_beta 129.865382
_cell_angle_gamma 90.000000
_cell_volume 2357.596347
_symmetry_space_group_name_H-M "C 2/C"
_symmetry_group_IT_number 15
_symmetry_cell_setting 'monoclinic'
loop_
_space_group_symop_operation_xyz
x,y,z
-x,y,1/2-z
-x,-y,-z
x,-y,1/2+z
1/2+x,1/2+y,z
1/2-x,1/2+y,1/2-z
1/2-x,1/2-y,-z
1/2+x,1/2-y,1/2+z
loop_
_atom_site_type_symbol
_atom_site_label
_atom_site_fract_x
_atom_site_fract_y
_atom_site_fract_z
Si Si1 0.671429 0.921641 0.725539
Si Si2 0.206211 0.406379 0.086977
Si Si3 0.000000 0.051643 0.750000
Si Si4 0.774849 0.865882 0.921688
Si Si5 0.814986 0.971171 0.528308
Si Si6 0.426346 0.347833 0.631559
Si Si7 0.030129 0.264437 0.505341
O O1 0.500000 0.928238 0.750000
O O2 0.505987 0.890836 0.643295
O O3 0.898395 0.869154 0.784443
O O4 0.785358 0.998016 0.732636
O O5 0.383020 0.406481 0.175016
O O6 0.324113 0.451194 0.056861
O O7 0.126905 0.329138 0.050637
O O8 0.944348 0.449478 0.050721
O O9 0.871313 0.830373 0.880597
O O10 0.862150 0.805905 0.981662
O O11 0.943653 0.937477 0.957865
O O12 0.808318 0.920565 0.583784
O O13 0.202763 0.290880 0.590105
O O14 0.250000 0.250000 0.500000
#
# Coordination Sequence:
#
# PCOD9255187 Si02
#       7
#     8   8   4   8   8   8   8
#     4  10  18  34  54  79 107 144 180 220 279 330
#     4  10  17  29  47  80 109 135 180 225 276 328
#     4  12  22  32  52  90 110 132 182 240 264 320
#     4   8  15  29  49  75  97 138 183 221 258 326
#     4   8  15  29  51  69 103 146 178 210 279 329
#     4   7  13  26  48  68  94 138 171 207 265 322
#     4   9  15  29  48  75 108 135 181 227 261 333
#
# _framework density 22.056363999999999
#
# number of rings (size 3 to 8) (size 9 to 14) (size 15 to 20)
#    0.923    2.154    3.077    0.000    0.000    0.000 
#    6.923    0.769    0.000    0.923    6.000    0.000 
#    0.000    0.000    0.000    0.000    0.000    0.000 
#
# Total GULP energy -144924.338024 kJ/mol
# GULP energy per Si atom -5574.013001 kJ/mol
# Density = 2.200616 g / cm^3
# Si number density = 22.056364 Si / 1000 Ang^3
#
#
#
# Elastic Constant Matrix: (Units=GPa)
#
#
# Indices 1 2 3 4 5 6 
#
# 1 68.6177 19.8295 47.4962 0.0000 -9.9818 -0.0001
# 2 19.8295 124.0596 65.6017 0.0000 10.8898 0.0000
# 3 47.4962 65.6017 160.9308 0.0000 28.7263 0.0000
# 4 0.0000 0.0000 0.0000 23.8605 0.0000 0.1238
# 5 -9.9818 10.8898 28.7263 0.0000 30.0461 0.0000
# 6 -0.0001 0.0000 0.0000 0.1238 0.0000 23.3055
#
#
#
# Elastic Compliance Matrix: (Units=1/GPa)
#
#
# Indices 1 2 3 4 5 6 
#
# 1 0.024435 0.000035 -0.010457 0.000000 0.018103 0.000000
# 2 0.000035 0.010279 -0.004265 0.000000 0.000364 0.000000
# 3 -0.010457 -0.004265 0.013725 0.000000 -0.015051 0.000000
# 4 0.000000 0.000000 0.000000 0.041911 0.000000 -0.000223
# 5 0.018103 0.000364 -0.015051 0.000000 0.053554 0.000000
# 6 0.000000 0.000000 0.000000 -0.000223 0.000000 0.042910
#
#
# Mechanical properties :
#
#
# Convention : Reuss Voigt Hill
#
# Bulk Modulus (GPa) = 52.45504 68.82921 60.64213
# Shear Modulus (GPa) = 22.46745 30.15447 26.31096
#
# Velocity S-wave (km/s) = 3.19507 3.70152 3.45758
# Velocity P-wave (km/s) = 6.11925 7.03862 6.59497
#
# Compressibility (1/GPa) = 0.01906394
#
# Stress axis : x y z
#
# Youngs Moduli (GPa) = 40.92443 97.29035 72.85736
#
# Poissons Ratio (x) = -0.00341 0.76190
# Poissons Ratio (y) = -0.00143 0.31076
# Poissons Ratio (z) = 0.42796 0.41497
#
# Static dielectric constant tensor:
#      x y z
#    x 1.903580 0.000000 -0.017630 
#    y 0.000000 1.823520 0.000000 
#    z -0.017630 0.000000 1.836470 
# 
# From -- ./inp_files/232094.got.cif
#   From: 2010.05.17/outbox.cif.g08.bks.cpg/sg15_117_cif.got.tgz:232094.got - 2010.06.03 18:47:42.
