data_PCOD9255850
_publ_section_title
;
Structure prediction by ZEFSAII (Michael W. Deem and Ramdas Pophale) SiO2 
 PCOD9255850
Probable space group: C 2/C
;
_chemical_formula_sum "Si O2"
_cell_formula_units_Z 48
_cell_length_a 26.899727
_cell_length_b 13.147963
_cell_length_c 23.724739
_cell_angle_alpha 90.000000
_cell_angle_beta 17.649362
_cell_angle_gamma 90.000000
_cell_volume 2544.040766
_symmetry_space_group_name_H-M "C 2/C"
_symmetry_group_IT_number 15
_symmetry_cell_setting 'monoclinic'
loop_
_space_group_symop_operation_xyz
x,y,z
-x,y,1/2-z
-x,-y,-z
x,-y,1/2+z
1/2+x,1/2+y,z
1/2-x,1/2+y,1/2-z
1/2-x,1/2-y,-z
1/2+x,1/2-y,1/2+z
loop_
_atom_site_type_symbol
_atom_site_label
_atom_site_fract_x
_atom_site_fract_y
_atom_site_fract_z
Si Si1 0.336050 0.950684 0.121016
Si Si2 0.886341 0.246926 0.020680
Si Si3 0.323170 0.168440 0.463695
Si Si4 0.948328 0.868279 0.990490
Si Si5 0.293859 0.167930 0.180867
Si Si6 0.899668 0.046296 0.730554
O O1 0.443808 0.852313 0.988680
O O2 0.197107 0.921629 0.316855
O O3 0.238225 0.966364 0.168177
O O4 0.396831 0.063381 0.070726
O O5 0.740903 0.213785 0.219871
O O6 0.843258 0.277090 0.003092
O O7 0.999035 0.147565 0.895107
O O8 0.500000 0.135825 0.250000
O O9 0.250000 0.250000 0.500000
O O10 0.196649 0.075917 0.609001
O O11 0.883270 0.755350 0.048577
O O12 0.112043 0.853828 0.851887
O O13 0.993346 0.944702 0.891166
#
# Coordination Sequence:
#
# PCOD9255850 Si02
#       6
#     8   8   8   8   8   8
#     4   9  17  29  49  75 109 144 174 199 259 314
#     4  10  18  30  52  78 108 139 167 215 257 314
#     4  11  22  34  53  77 105 135 176 222 268 317
#     4  10  18  31  52  74 109 145 176 208 250 315
#     4  10  18  32  50  76 109 149 173 200 252 319
#     4  10  17  33  52  73 106 141 170 211 269 307
#
# _framework density 18.867621
#
# number of rings (size 3 to 8) (size 9 to 14) (size 15 to 20)
#    0.000    2.000    5.000    1.000    0.000    0.000 
#    0.000    6.667    0.000    0.000    0.000   10.500 
#   10.000    0.333    0.000    0.000    0.000    0.000 
#
# Total GULP energy -133672.228918 kJ/mol
# GULP energy per Si atom -5569.676205 kJ/mol
# Density = 1.882468 g / cm^3
# Si number density = 18.867621 Si / 1000 Ang^3
#
#
#
# Elastic Constant Matrix: (Units=GPa)
#
#
# Indices 1 2 3 4 5 6 
#
# 1 52.5089 27.6425 14.7214 0.0001 18.2653 -0.0002
# 2 27.6425 167.8230 55.1908 -0.0025 19.6798 0.0008
# 3 14.7214 55.1908 77.9932 -0.0023 17.3719 0.0005
# 4 0.0001 -0.0025 -0.0023 32.7724 0.0004 10.9482
# 5 18.2653 19.6798 17.3719 0.0004 19.3673 0.0000
# 6 -0.0002 0.0008 0.0005 10.9482 0.0000 23.4350
#
#
#
# Elastic Compliance Matrix: (Units=1/GPa)
#
#
# Indices 1 2 3 4 5 6 
#
# 1 0.029047 -0.002338 0.002180 0.000000 -0.026974 0.000000
# 2 -0.002338 0.008172 -0.004978 0.000000 -0.001634 0.000000
# 3 0.002180 -0.004978 0.019075 0.000001 -0.014107 -0.000001
# 4 0.000000 0.000000 0.000001 0.036156 -0.000003 -0.016891
# 5 -0.026974 -0.001634 -0.014107 -0.000003 0.091387 0.000001
# 6 0.000000 0.000000 -0.000001 -0.016891 0.000001 0.050562
#
#
# Mechanical properties :
#
#
# Convention : Reuss Voigt Hill
#
# Bulk Modulus (GPa) = 21.72870 54.82604 38.27737
# Shear Modulus (GPa) = 19.22984 28.49963 23.86474
#
# Velocity S-wave (km/s) = 3.19595 3.89074 3.56033
# Velocity P-wave (km/s) = 5.01599 7.02176 6.10186
#
# Compressibility (1/GPa) = 0.04602208
#
# Stress axis : x y z
#
# Youngs Moduli (GPa) = 34.42704 122.36257 52.42510
#
# Poissons Ratio (x) = 0.28611 -0.11428
# Poissons Ratio (y) = 0.08050 0.26096
# Poissons Ratio (z) = -0.07505 0.60909
#
# Static dielectric constant tensor:
#      x y z
#    x 1.671610 0.000000 -0.041200 
#    y 0.000000 1.738670 0.000000 
#    z -0.041200 0.000000 1.714500 
# 
# From -- ./inp_files/283532.got.cif
#   From: 2010.05.17/outbox.cif.g08.bks.cpg/sg15_142_cif.got.tgz:283532.got - 2010.06.03 18:47:42.
