data_PCOD9255842
_publ_section_title
;
Structure prediction by ZEFSAII (Michael W. Deem and Ramdas Pophale) SiO2 
 PCOD9255842
Probable space group: C 2/C
;
_chemical_formula_sum "Si O2"
_cell_formula_units_Z 56
_cell_length_a 11.643907
_cell_length_b 19.730277
_cell_length_c 23.553668
_cell_angle_alpha 90.000000
_cell_angle_beta 38.402136
_cell_angle_gamma 90.000000
_cell_volume 3361.288766
_symmetry_space_group_name_H-M "C 2/C"
_symmetry_group_IT_number 15
_symmetry_cell_setting 'monoclinic'
loop_
_space_group_symop_operation_xyz
x,y,z
-x,y,1/2-z
-x,-y,-z
x,-y,1/2+z
1/2+x,1/2+y,z
1/2-x,1/2+y,1/2-z
1/2-x,1/2-y,-z
1/2+x,1/2-y,1/2+z
loop_
_atom_site_type_symbol
_atom_site_label
_atom_site_fract_x
_atom_site_fract_y
_atom_site_fract_z
Si Si1 0.758936 0.299083 0.285333
Si Si2 0.849884 0.316824 0.759023
Si Si3 0.765576 0.026568 0.539137
Si Si4 0.604494 0.558401 0.883064
Si Si5 0.339774 0.765067 0.379373
Si Si6 0.930183 0.840594 0.932253
Si Si7 0.913296 0.464845 0.719538
O O1 0.674512 0.248581 0.271513
O O2 0.650417 0.368582 0.338995
O O3 0.776441 0.262093 0.339350
O O4 0.976106 0.312038 0.186585
O O5 0.647338 0.336919 0.862062
O O6 0.903194 0.386332 0.706029
O O7 0.000000 0.304621 0.750000
O O8 0.818313 0.052488 0.582321
O O9 0.834501 0.086813 0.472525
O O10 0.552881 0.006078 0.625624
O O11 0.891719 0.962344 0.473240
O O12 0.718363 0.502618 0.802750
O O13 0.177564 0.795128 0.480249
O O14 0.401779 0.694195 0.382306
O O15 0.000000 0.464077 0.750000
#
# Coordination Sequence:
#
# PCOD9255842 Si02
#       7
#     8   8   8   8   8   8   8
#     4  10  19  33  51  76 104 129 170 209 252 302
#     4  10  21  35  50  71 105 141 164 200 257 312
#     4  10  18  28  50  73 101 127 167 210 252 292
#     4  10  18  28  48  74  99 128 163 213 252 289
#     4   9  19  30  53  77  98 128 166 213 257 284
#     4  10  17  33  51  75 102 127 166 212 251 302
#     4   9  18  30  47  72 100 127 165 210 258 292
#
# _framework density 16.660276
#
# number of rings (size 3 to 8) (size 9 to 14) (size 15 to 20)
#    0.000    2.286    2.857    0.857    6.000    0.000 
#    0.000    2.857    0.000    2.571    0.000    0.000 
#    0.000    0.000    0.000    0.000    0.000    0.000 
#
# Total GULP energy -155914.804856 kJ/mol
# GULP energy per Si atom -5568.385888 kJ/mol
# Density = 1.662236 g / cm^3
# Si number density = 16.660276 Si / 1000 Ang^3
#
#
#
# Elastic Constant Matrix: (Units=GPa)
#
#
# Indices 1 2 3 4 5 6 
#
# 1 51.8137 28.2941 19.2615 0.0053 -3.8015 -0.0024
# 2 28.2941 91.5568 36.5646 -0.0004 0.9634 -0.0036
# 3 19.2615 36.5646 78.2412 -0.0006 -10.9742 -0.0100
# 4 0.0053 -0.0004 -0.0006 37.3082 -0.0082 3.4794
# 5 -3.8015 0.9634 -10.9742 -0.0082 14.2436 0.0055
# 6 -0.0024 -0.0036 -0.0100 3.4794 0.0055 13.2448
#
#
#
# Elastic Compliance Matrix: (Units=1/GPa)
#
#
# Indices 1 2 3 4 5 6 
#
# 1 0.024104 -0.006677 -0.002072 -0.000002 0.005289 -0.000001
# 2 -0.006677 0.015826 -0.006898 -0.000001 -0.008167 0.000002
# 3 -0.002072 -0.006898 0.018502 0.000003 0.014169 0.000005
# 4 -0.000002 -0.000001 0.000003 0.027477 0.000020 -0.007218
# 5 0.005289 -0.008167 0.014169 0.000020 0.083088 -0.000030
# 6 -0.000001 0.000002 0.000005 -0.007218 -0.000030 0.077397
#
#
# Mechanical properties :
#
#
# Convention : Reuss Voigt Hill
#
# Bulk Modulus (GPa) = 36.84753 43.31691 40.08222
# Shear Modulus (GPa) = 17.43770 22.12543 19.78156
#
# Velocity S-wave (km/s) = 3.23873 3.64817 3.44953
# Velocity P-wave (km/s) = 6.01256 6.61832 6.32270
#
# Compressibility (1/GPa) = 0.02713886
#
# Stress axis : x y z
#
# Youngs Moduli (GPa) = 41.48620 63.18550 54.04825
#
# Poissons Ratio (x) = 0.42191 0.11197
# Poissons Ratio (y) = 0.27702 0.37282
# Poissons Ratio (z) = 0.08595 0.43585
#
# Static dielectric constant tensor:
#      x y z
#    x 1.543560 0.000000 -0.014240 
#    y 0.000000 1.596590 0.000000 
#    z -0.014240 0.000000 1.584040 
# 
# From -- ./inp_files/240297.got.cif
#   From: 2010.05.17/outbox.cif.g08.bks.cpg/sg15_121_cif.got.tgz:240297.got - 2010.06.03 18:47:42.
