data_PCOD9255131
_publ_section_title
;
Structure prediction by ZEFSAII (Michael W. Deem and Ramdas Pophale) SiO2 
 PCOD9255131
Probable space group: C 2/C
;
_chemical_formula_sum "Si O2"
_cell_formula_units_Z 64
_cell_length_a 18.925635
_cell_length_b 8.588523
_cell_length_c 17.625504
_cell_angle_alpha 90.000000
_cell_angle_beta 76.367935
_cell_angle_gamma 90.000000
_cell_volume 2784.200168
_symmetry_space_group_name_H-M "C 2/C"
_symmetry_group_IT_number 15
_symmetry_cell_setting 'monoclinic'
loop_
_space_group_symop_operation_xyz
x,y,z
-x,y,1/2-z
-x,-y,-z
x,-y,1/2+z
1/2+x,1/2+y,z
1/2-x,1/2+y,1/2-z
1/2-x,1/2-y,-z
1/2+x,1/2-y,1/2+z
loop_
_atom_site_type_symbol
_atom_site_label
_atom_site_fract_x
_atom_site_fract_y
_atom_site_fract_z
Si Si1 0.327046 0.769332 0.361872
Si Si2 0.879443 0.958344 0.264733
Si Si3 0.734708 0.997884 0.018770
Si Si4 0.398263 0.584476 0.506420
Si Si5 0.162879 0.736962 0.354042
Si Si6 0.037841 0.124291 0.379343
Si Si7 0.138409 0.393482 0.299821
Si Si8 0.763068 0.213581 0.873842
O O1 0.360677 0.613236 0.316096
O O2 0.241541 0.734113 0.371592
O O3 0.357189 0.889322 0.291654
O O4 0.322926 0.866209 0.441995
O O5 0.949592 0.009927 0.196459
O O6 0.836477 0.885450 0.202736
O O7 0.846593 0.832644 0.332971
O O8 0.736163 0.120669 0.087168
O O9 0.726010 0.094873 0.943931
O O10 0.818068 0.940266 0.994139
O O11 0.395993 0.723470 0.567373
O O12 0.454824 0.618910 0.426072
O O13 0.421593 0.438939 0.554418
O O14 0.144195 0.572641 0.322062
O O15 0.070646 0.291278 0.347480
O O16 0.208604 0.300523 0.316363
#
# Coordination Sequence:
#
# PCOD9255131 Si02
#       8
#     8   8   8   8   8   8   8   8
#     4  10  18  30  50  76 108 139 174 225 276 333
#     4  10  19  31  51  78 104 136 179 221 276 334
#     4  10  22  34  52  77 113 144 176 228 282 337
#     4   9  18  35  50  72 106 143 179 222 266 322
#     4  10  17  28  50  77 104 135 172 230 277 318
#     4   9  19  33  54  74 103 140 184 223 267 320
#     4  11  19  30  53  81 108 136 179 232 274 334
#     4  11  20  33  50  81 112 140 174 223 290 335
#
# _framework density 22.986851999999999
#
# number of rings (size 3 to 8) (size 9 to 14) (size 15 to 20)
#    0.000    2.000    3.750    0.750    1.750    1.000 
#    0.000    0.625    0.000    0.000    0.000    0.000 
#    0.000    0.000    0.000    0.000    0.000    0.000 
#
# Total GULP energy -178201.325704 kJ/mol
# GULP energy per Si atom -5568.791428 kJ/mol
# Density = 2.293453 g / cm^3
# Si number density = 22.986852 Si / 1000 Ang^3
#
#
#
# Elastic Constant Matrix: (Units=GPa)
#
#
# Indices 1 2 3 4 5 6 
#
# 1 24.3158 0.6096 21.9300 0.0000 -1.1885 0.0000
# 2 0.6096 69.3213 29.4142 0.0000 -7.7464 0.0000
# 3 21.9300 29.4142 152.4816 0.0000 -37.7490 0.0000
# 4 0.0000 0.0000 0.0000 39.6463 0.0000 -0.8685
# 5 -1.1885 -7.7464 -37.7490 0.0000 43.0801 0.0000
# 6 0.0000 0.0000 0.0000 -0.8685 0.0000 11.9243
#
#
#
# Elastic Compliance Matrix: (Units=1/GPa)
#
#
# Indices 1 2 3 4 5 6 
#
# 1 0.048949 0.002740 -0.009082 0.000000 -0.006115 0.000000
# 2 0.002740 0.015867 -0.003486 0.000000 -0.000126 0.000000
# 3 -0.009082 -0.003486 0.010624 0.000000 0.008432 0.000000
# 4 0.000000 0.000000 0.000000 0.025263 0.000000 0.001840
# 5 -0.006115 -0.000126 0.008432 0.000000 0.030410 0.000000
# 6 0.000000 0.000000 0.000000 0.001840 0.000000 0.083997
#
#
# Mechanical properties :
#
#
# Convention : Reuss Voigt Hill
#
# Bulk Modulus (GPa) = 17.92649 38.89179 28.40914
# Shear Modulus (GPa) = 19.73466 31.87446 25.80456
#
# Velocity S-wave (km/s) = 2.93323 3.72780 3.35413
# Velocity P-wave (km/s) = 4.39173 5.95689 5.23315
#
# Compressibility (1/GPa) = 0.05578338
#
# Stress axis : x y z
#
# Youngs Moduli (GPa) = 20.42935 63.02563 94.12310
#
# Poissons Ratio (x) = -0.17269 0.85486
# Poissons Ratio (y) = -0.05598 0.32811
# Poissons Ratio (z) = 0.18555 0.21970
#
# Static dielectric constant tensor:
#      x y z
#    x 1.910320 0.000000 0.027200 
#    y 0.000000 1.882520 0.000000 
#    z 0.027200 0.000000 1.930880 
# 
# From -- ./inp_files/257006.got.cif
#   From: 2010.05.17/outbox.cif.g08.bks.cpg/sg15_129_cif.got.tgz:257006.got - 2010.06.03 18:47:42.
