data_PCOD9255427
_publ_section_title
;
Structure prediction by ZEFSAII (Michael W. Deem and Ramdas Pophale) SiO2 
 PCOD9255427
Probable space group: C 2/C
;
_chemical_formula_sum "Si O2"
_cell_formula_units_Z 52
_cell_length_a 12.682425
_cell_length_b 19.532276
_cell_length_c 15.425075
_cell_angle_alpha 90.000000
_cell_angle_beta 126.147638
_cell_angle_gamma 90.000000
_cell_volume 3085.494820
_symmetry_space_group_name_H-M "C 2/C"
_symmetry_group_IT_number 15
_symmetry_cell_setting 'monoclinic'
loop_
_space_group_symop_operation_xyz
x,y,z
-x,y,1/2-z
-x,-y,-z
x,-y,1/2+z
1/2+x,1/2+y,z
1/2-x,1/2+y,1/2-z
1/2-x,1/2-y,-z
1/2+x,1/2-y,1/2+z
loop_
_atom_site_type_symbol
_atom_site_label
_atom_site_fract_x
_atom_site_fract_y
_atom_site_fract_z
Si Si1 0.652566 0.814458 0.067959
Si Si2 0.000000 0.726577 0.250000
Si Si3 0.761812 0.163432 0.439263
Si Si4 0.869331 0.293610 0.972620
Si Si5 0.089101 0.829025 0.878763
Si Si6 0.146925 0.185108 0.683322
Si Si7 0.005369 0.081017 0.007854
O O1 0.660493 0.733492 0.047080
O O2 0.730430 0.827195 0.194399
O O3 0.732471 0.846645 0.026688
O O4 0.499806 0.831209 0.002461
O O5 0.121865 0.679198 0.330546
O O6 0.040765 0.776590 0.192092
O O7 0.846935 0.104132 0.440418
O O8 0.743309 0.338623 0.933644
O O9 0.821619 0.239717 0.876470
O O10 0.913870 0.245175 0.074407
O O11 0.000000 0.828965 0.750000
O O12 0.038343 0.885409 0.922283
O O13 0.084851 0.118804 0.608175
O O14 0.000000 0.000000 0.000000
#
# Coordination Sequence:
#
# PCOD9255427 Si02
#       7
#     8   4   8   8   8   8   8
#     4  10  17  30  56  88 112 130 171 239 285 318
#     4  10  18  30  62  90 112 126 172 246 290 314
#     4  10  18  32  54  86 110 138 176 225 285 318
#     4  10  18  32  54  83 114 133 170 230 285 319
#     4  10  21  35  52  80 108 147 182 216 269 329
#     4  10  18  31  55  85 109 139 174 222 286 317
#     4  11  23  40  53  73 114 153 187 217 257 332
#
# _framework density 16.853048999999999
#
# number of rings (size 3 to 8) (size 9 to 14) (size 15 to 20)
#    0.000    1.846    4.615    2.769    2.154    0.000 
#    4.154    0.000    3.385    0.923    0.000    0.000 
#    0.000    0.000    0.000    0.000    0.000    0.000 
#
# Total GULP energy -144945.489025 kJ/mol
# GULP energy per Si atom -5574.826501 kJ/mol
# Density = 1.681469 g / cm^3
# Si number density = 16.853049 Si / 1000 Ang^3
#
#
#
# Elastic Constant Matrix: (Units=GPa)
#
#
# Indices 1 2 3 4 5 6 
#
# 1 131.4269 46.6044 49.5756 0.0000 5.1063 0.0000
# 2 46.6044 76.7405 38.8348 0.0000 -3.7028 0.0000
# 3 49.5756 38.8348 135.3742 0.0000 -5.9496 0.0000
# 4 0.0000 0.0000 0.0000 8.8085 0.0000 1.9015
# 5 5.1063 -3.7028 -5.9496 0.0000 28.6048 0.0000
# 6 0.0000 0.0000 0.0000 1.9015 0.0000 11.3278
#
#
#
# Elastic Compliance Matrix: (Units=1/GPa)
#
#
# Indices 1 2 3 4 5 6 
#
# 1 0.010541 -0.005297 -0.002476 0.000000 -0.003082 0.000000
# 2 -0.005297 0.017939 -0.003091 0.000000 0.002625 0.000000
# 3 -0.002476 -0.003091 0.009267 0.000000 0.001969 0.000000
# 4 0.000000 0.000000 0.000000 0.117795 0.000000 -0.019773
# 5 -0.003082 0.002625 0.001969 0.000000 0.036259 0.000000
# 6 0.000000 0.000000 0.000000 -0.019773 0.000000 0.091597
#
#
# Mechanical properties :
#
#
# Convention : Reuss Voigt Hill
#
# Bulk Modulus (GPa) = 62.42836 68.17456 65.30146
# Shear Modulus (GPa) = 16.10484 23.65000 19.87742
#
# Velocity S-wave (km/s) = 3.09464 3.75014 3.43805
# Velocity P-wave (km/s) = 7.06344 7.70010 7.38863
#
# Compressibility (1/GPa) = 0.01601836
#
# Stress axis : x y z
#
# Youngs Moduli (GPa) = 94.86798 55.74541 107.91072
#
# Poissons Ratio (x) = 0.29530 0.26720
# Poissons Ratio (y) = 0.50254 0.33353
# Poissons Ratio (z) = 0.23490 0.17230
#
# Static dielectric constant tensor:
#      x y z
#    x 1.615540 0.000000 -0.007490 
#    y 0.000000 1.525920 0.000000 
#    z -0.007490 0.000000 1.613000 
# 
# From -- ./inp_files/146838.got.cif
#   From: 2010.05.17/outbox.cif.g08.bks.cpg/sg15_74_cif.got.tgz:146838.got - 2010.06.03 18:47:42.
