data_PCOD9255019
_publ_section_title
;
Structure prediction by ZEFSAII (Michael W. Deem and Ramdas Pophale) SiO2 
 PCOD9255019
Probable space group: C 2/C
;
_chemical_formula_sum "Si O2"
_cell_formula_units_Z 56
_cell_length_a 24.208663
_cell_length_b 10.868207
_cell_length_c 8.462305
_cell_angle_alpha 90.000000
_cell_angle_beta 75.793714
_cell_angle_gamma 90.000000
_cell_volume 2158.383702
_symmetry_space_group_name_H-M "C 2/C"
_symmetry_group_IT_number 15
_symmetry_cell_setting 'monoclinic'
loop_
_space_group_symop_operation_xyz
x,y,z
-x,y,1/2-z
-x,-y,-z
x,-y,1/2+z
1/2+x,1/2+y,z
1/2-x,1/2+y,1/2-z
1/2-x,1/2-y,-z
1/2+x,1/2-y,1/2+z
loop_
_atom_site_type_symbol
_atom_site_label
_atom_site_fract_x
_atom_site_fract_y
_atom_site_fract_z
Si Si1 0.037284 0.713713 0.990591
Si Si2 0.264831 0.527613 0.751004
Si Si3 0.684825 0.724042 0.583980
Si Si4 0.577594 0.245572 0.319544
Si Si5 0.940257 0.966134 0.703133
Si Si6 0.146941 0.355352 0.300906
Si Si7 0.676574 0.360023 0.596028
O O1 0.053535 0.709402 0.163511
O O2 0.968984 0.693141 0.025849
O O3 0.049684 0.855386 0.927959
O O4 0.079182 0.623530 0.862072
O O5 0.303131 0.587204 0.864555
O O6 0.197274 0.548023 0.798611
O O7 0.282301 0.390118 0.781338
O O8 0.290151 0.597327 0.582275
O O9 0.750000 0.750000 0.500000
O O10 0.644752 0.783084 0.748901
O O11 0.653822 0.761272 0.444954
O O12 0.573883 0.394739 0.339618
O O13 0.886488 0.918464 0.842043
O O14 0.000000 0.974774 0.750000
O O15 0.163148 0.284778 0.129196
#
# Coordination Sequence:
#
# PCOD9255019 Si02
#       7
#     8   8   8   8   8   8   8
#     4   9  19  30  44  68  98 136 175 201 258 302
#     4  11  21  35  54  74 108 144 178 224 263 312
#     4   9  18  31  49  70 101 139 173 216 256 298
#     4  10  17  27  46  65 100 136 170 208 246 312
#     4  11  21  27  43  69 108 142 167 203 241 317
#     4   9  20  38  51  73 108 141 179 231 258 312
#     4  11  23  33  53  78 105 148 184 208 271 318
#
# _framework density 25.945339000000001
#
# number of rings (size 3 to 8) (size 9 to 14) (size 15 to 20)
#    0.000    2.000    2.857    1.714    6.000    0.000 
#    0.000    0.000    0.000    0.000    0.000    0.000 
#    0.000   73.143    0.857    0.000    0.000    0.000 
#
# Total GULP energy -155924.659419 kJ/mol
# GULP energy per Si atom -5568.737836 kJ/mol
# Density = 2.588629 g / cm^3
# Si number density = 25.945339 Si / 1000 Ang^3
#
#
#
# Elastic Constant Matrix: (Units=GPa)
#
#
# Indices 1 2 3 4 5 6 
#
# 1 169.9767 29.1037 51.2317 0.0000 -60.3290 0.0000
# 2 29.1037 14.2894 11.7018 0.0000 -6.1747 0.0000
# 3 51.2317 11.7018 74.7985 0.0000 -25.2369 0.0000
# 4 0.0000 0.0000 0.0000 7.0000 0.0000 0.4849
# 5 -60.3290 -6.1747 -25.2369 0.0000 56.4277 0.0000
# 6 0.0000 0.0000 0.0000 0.4849 0.0000 20.3410
#
#
#
# Elastic Compliance Matrix: (Units=1/GPa)
#
#
# Indices 1 2 3 4 5 6 
#
# 1 0.014987 -0.023154 -0.002463 0.000000 0.012388 0.000000
# 2 -0.023154 0.116709 -0.007588 0.000000 -0.015377 0.000000
# 3 -0.002463 -0.007588 0.017754 0.000000 0.004477 0.000000
# 4 0.000000 0.000000 0.000000 0.143093 0.000000 -0.003411
# 5 0.012388 -0.015377 0.004477 0.000000 0.031285 0.000000
# 6 0.000000 0.000000 0.000000 -0.003411 0.000000 0.049243
#
#
# Mechanical properties :
#
#
# Convention : Reuss Voigt Hill
#
# Bulk Modulus (GPa) = 12.04244 49.23767 30.64006
# Shear Modulus (GPa) = 10.70298 27.88891 19.29595
#
# Velocity S-wave (km/s) = 2.03326 3.28214 2.73007
# Velocity P-wave (km/s) = 3.18806 5.77771 4.66614
#
# Compressibility (1/GPa) = 0.08303967
#
# Stress axis : x y z
#
# Youngs Moduli (GPa) = 66.72634 8.56834 56.32631
#
# Poissons Ratio (x) = 0.19839 0.13873
# Poissons Ratio (y) = 1.54497 0.42740
# Poissons Ratio (z) = 0.16434 0.06502
#
# Static dielectric constant tensor:
#      x y z
#    x 2.172500 0.000000 -0.013240 
#    y 0.000000 2.878660 0.000000 
#    z -0.013240 0.000000 2.163290 
# 
# From -- ./inp_files/65450.got.cif
#   From: 2010.05.17/outbox.cif.g08.bks.cpg/sg15_33_cif.got.tgz:65450.got - 2010.06.03 18:47:42.
