data_PCOD9255207
_publ_section_title
;
Structure prediction by ZEFSAII (Michael W. Deem and Ramdas Pophale) SiO2 
 PCOD9255207
Probable space group: C 2/C
;
_chemical_formula_sum "Si O2"
_cell_formula_units_Z 44
_cell_length_a 6.939966
_cell_length_b 29.912548
_cell_length_c 9.915362
_cell_angle_alpha 90.000000
_cell_angle_beta 73.021851
_cell_angle_gamma 90.000000
_cell_volume 1968.639725
_symmetry_space_group_name_H-M "C 2/C"
_symmetry_group_IT_number 15
_symmetry_cell_setting 'monoclinic'
loop_
_space_group_symop_operation_xyz
x,y,z
-x,y,1/2-z
-x,-y,-z
x,-y,1/2+z
1/2+x,1/2+y,z
1/2-x,1/2+y,1/2-z
1/2-x,1/2-y,-z
1/2+x,1/2-y,1/2+z
loop_
_atom_site_type_symbol
_atom_site_label
_atom_site_fract_x
_atom_site_fract_y
_atom_site_fract_z
Si Si1 0.734742 0.751047 0.664856
Si Si2 0.747715 0.555012 0.718560
Si Si3 0.500000 0.580666 0.250000
Si Si4 0.730310 0.151154 0.157000
Si Si5 0.781199 0.985414 0.990872
Si Si6 0.262423 0.654543 0.830108
O O1 0.500000 0.751705 0.750000
O O2 0.750000 0.750000 0.500000
O O3 0.807949 0.800170 0.692558
O O4 0.817601 0.703349 0.698820
O O5 0.500000 0.554491 0.750000
O O6 0.815664 0.526721 0.572303
O O7 0.810133 0.606782 0.707643
O O8 0.805260 0.533535 0.851176
O O9 0.374350 0.612012 0.176357
O O10 0.660937 0.551275 0.133851
O O11 0.500000 0.144512 0.250000
O O12 0.732274 0.152301 0.995938
O O13 0.000000 0.000000 0.000000
O O14 0.500000 0.655793 0.750000
#
# Coordination Sequence:
#
# PCOD9255207 Si02
#       6
#     8   8   4   8   8   8
#     4   8  15  29  50  76 107 146 189 238 278 344
#     4   9  16  26  47  80 111 140 193 240 287 341
#     4  12  20  32  60  82 120 156 196 236 300 352
#     4  10  21  35  55  86 120 151 196 243 295 346
#     4  10  17  29  49  85 110 144 194 245 282 348
#     4   9  16  30  58  81 106 155 201 231 293 358
#
# _framework density 22.350458
#
# number of rings (size 3 to 8) (size 9 to 14) (size 15 to 20)
#    0.000    2.545    2.727    3.273    0.000    0.000 
#    0.000    0.000    0.000   62.182    0.000    0.000 
#    0.000    0.000    0.000    0.000    0.000    0.000 
#
# Total GULP energy -122654.609328 kJ/mol
# GULP energy per Si atom -5575.209515 kJ/mol
# Density = 2.229959 g / cm^3
# Si number density = 22.350458 Si / 1000 Ang^3
#
#
#
# Elastic Constant Matrix: (Units=GPa)
#
#
# Indices 1 2 3 4 5 6 
#
# 1 62.2539 5.9066 26.7151 0.0000 7.0283 0.0000
# 2 5.9066 132.5284 4.0933 0.0000 4.7188 0.0000
# 3 26.7151 4.0933 105.6573 0.0000 -26.2523 0.0000
# 4 0.0000 0.0000 0.0000 34.1372 0.0000 -8.9541
# 5 7.0283 4.7188 -26.2523 0.0000 31.9845 0.0000
# 6 0.0000 0.0000 0.0000 -8.9541 0.0000 -16.9132
#
#
#
# Elastic Compliance Matrix: (Units=1/GPa)
#
#
# Indices 1 2 3 4 5 6 
#
# 1 0.020773 -0.000284 -0.007996 0.000000 -0.011086 0.000000
# 2 -0.000284 0.007633 -0.000613 0.000000 -0.001567 0.000000
# 3 -0.007996 -0.000613 0.015035 0.000000 0.014188 0.000000
# 4 0.000000 0.000000 0.000000 0.025722 0.000000 -0.013617
# 5 -0.011086 -0.001567 0.014188 0.000000 0.045578 0.000000
# 6 0.000000 0.000000 0.000000 -0.013617 0.000000 -0.051916
#
#
# Mechanical properties :
#
#
# Convention : Reuss Voigt Hill
#
# Bulk Modulus (GPa) = 38.97875 41.54106 40.25990
# Shear Modulus (GPa) = 56.07737 27.42335 41.75036
#
# Velocity S-wave (km/s) = 5.01443 3.50661 4.32671
# Velocity P-wave (km/s) = 7.14168 5.91791 6.55841
#
# Compressibility (1/GPa) = 0.02565500
#
# Stress axis : x y z
#
# Youngs Moduli (GPa) = 48.13943 131.01094 66.51004
#
# Poissons Ratio (x) = 0.03723 0.53180
# Poissons Ratio (y) = 0.01368 0.04078
# Poissons Ratio (z) = 0.38491 0.08034
#
# Static dielectric constant tensor:
#      x y z
#    x 1.938870 0.000000 0.008320 
#    y 0.000000 1.915830 0.000000 
#    z 0.008320 0.000000 1.737520 
# 
# From -- ./inp_files/25448.got.cif
#   From: 2010.05.17/outbox.cif.g08.bks.cpg/sg15_13_cif.got.tgz:25448.got - 2010.06.03 18:47:42.
