data_PCOD9255651
_publ_section_title
;
Structure prediction by ZEFSAII (Michael W. Deem and Ramdas Pophale) SiO2 
 PCOD9255651
Probable space group: C 2/C
;
_chemical_formula_sum "Si O2"
_cell_formula_units_Z 64
_cell_length_a 20.513249
_cell_length_b 9.368885
_cell_length_c 20.051672
_cell_angle_alpha 90.000000
_cell_angle_beta 76.964336
_cell_angle_gamma 90.000000
_cell_volume 3754.346788
_symmetry_space_group_name_H-M "C 2/C"
_symmetry_group_IT_number 15
_symmetry_cell_setting 'monoclinic'
loop_
_space_group_symop_operation_xyz
x,y,z
-x,y,1/2-z
-x,-y,-z
x,-y,1/2+z
1/2+x,1/2+y,z
1/2-x,1/2+y,1/2-z
1/2-x,1/2-y,-z
1/2+x,1/2-y,1/2+z
loop_
_atom_site_type_symbol
_atom_site_label
_atom_site_fract_x
_atom_site_fract_y
_atom_site_fract_z
Si Si1 0.577260 0.096206 0.852038
Si Si2 0.214611 0.604921 0.532078
Si Si3 0.385530 0.299183 0.769947
Si Si4 0.171912 0.895665 0.223366
Si Si5 0.739054 0.684474 0.843163
Si Si6 0.071138 0.612657 0.623711
Si Si7 0.206097 0.496006 0.395070
Si Si8 0.924008 0.631169 0.268396
O O1 0.590055 0.238477 0.805907
O O2 0.500805 0.100420 0.894155
O O3 0.634714 0.069849 0.892442
O O4 0.583219 0.970138 0.794968
O O5 0.250000 0.750000 0.500000
O O6 0.248051 0.581382 0.596674
O O7 0.135732 0.630833 0.562764
O O8 0.221590 0.494404 0.470243
O O9 0.375471 0.467328 0.773756
O O10 0.312350 0.229197 0.799582
O O11 0.429490 0.239063 0.820893
O O12 0.198808 0.886092 0.292715
O O13 0.131346 0.752426 0.218092
O O14 0.235571 0.920411 0.160723
O O15 0.706787 0.835671 0.873373
O O16 0.081723 0.471599 0.666343
O O17 0.000000 0.689162 0.250000
#
# Coordination Sequence:
#
# PCOD9255651 Si02
#       8
#     8   8   8   8   8   8   8   8
#     4  10  17  32  51  76 107 133 172 216 259 306
#     4   9  19  35  51  76 105 137 179 212 262 314
#     4   9  18  29  48  80 104 130 170 214 265 305
#     4  11  19  31  56  80 105 134 173 218 258 312
#     4   9  17  31  51  74 104 136 170 213 259 309
#     4   9  19  34  53  72 106 143 168 215 265 305
#     4  10  19  31  53  80 102 133 177 211 253 311
#     4   9  19  33  53  78 106 137 167 214 264 304
#
# _framework density 17.046906
#
# number of rings (size 3 to 8) (size 9 to 14) (size 15 to 20)
#    0.000    2.500    2.500    1.875    0.000    1.500 
#    0.000    0.625    0.000    0.000    0.000    2.625 
#    0.000    0.000    0.000    0.000    0.000    0.000 
#
# Total GULP energy -178315.457684 kJ/mol
# GULP energy per Si atom -5572.358053 kJ/mol
# Density = 1.700811 g / cm^3
# Si number density = 17.046906 Si / 1000 Ang^3
#
#
#
# Elastic Constant Matrix: (Units=GPa)
#
#
# Indices 1 2 3 4 5 6 
#
# 1 106.7110 41.3461 35.5126 0.0000 -4.8159 0.0000
# 2 41.3461 52.4201 15.1737 0.0000 -4.3720 0.0000
# 3 35.5126 15.1737 68.0530 0.0000 -9.5635 0.0000
# 4 0.0000 0.0000 0.0000 14.8977 0.0000 -3.4921
# 5 -4.8159 -4.3720 -9.5635 0.0000 14.5509 0.0000
# 6 0.0000 0.0000 0.0000 -3.4921 0.0000 20.9006
#
#
#
# Elastic Compliance Matrix: (Units=1/GPa)
#
#
# Indices 1 2 3 4 5 6 
#
# 1 0.015344 -0.010551 -0.005935 0.000000 -0.001992 0.000000
# 2 -0.010551 0.027807 -0.000012 0.000000 0.004855 0.000000
# 3 -0.005935 -0.000012 0.019300 0.000000 0.010717 0.000000
# 4 0.000000 0.000000 0.000000 0.069860 0.000000 0.011672
# 5 -0.001992 0.004855 0.010717 0.000000 0.076567 0.000000
# 6 0.000000 0.000000 0.000000 0.011672 0.000000 0.049796
#
#
# Mechanical properties :
#
#
# Convention : Reuss Voigt Hill
#
# Bulk Modulus (GPa) = 33.94861 45.69431 39.82146
# Shear Modulus (GPa) = 16.58437 19.07996 17.83216
#
# Velocity S-wave (km/s) = 3.12246 3.34917 3.23780
# Velocity P-wave (km/s) = 5.74089 6.46677 6.11461
#
# Compressibility (1/GPa) = 0.02945629
#
# Stress axis : x y z
#
# Youngs Moduli (GPa) = 65.17096 35.96209 51.81333
#
# Poissons Ratio (x) = 0.37944 0.30749
# Poissons Ratio (y) = 0.68762 0.00062
# Poissons Ratio (z) = 0.38676 0.00043
#
# Static dielectric constant tensor:
#      x y z
#    x 1.587270 0.000000 -0.003570 
#    y 0.000000 1.566970 0.000000 
#    z -0.003570 0.000000 1.590170 
# 
# From -- ./inp_files/251550.got.cif
#   From: 2010.05.17/outbox.cif.g08.bks.cpg/sg15_126_cif.got.tgz:251550.got - 2010.06.03 18:47:42.
