data_PCOD9255870
_publ_section_title
;
Structure prediction by ZEFSAII (Michael W. Deem and Ramdas Pophale) SiO2 
 PCOD9255870
Probable space group: C 2/C
;
_chemical_formula_sum "Si O2"
_cell_formula_units_Z 52
_cell_length_a 18.623382
_cell_length_b 11.856809
_cell_length_c 22.373946
_cell_angle_alpha 90.000000
_cell_angle_beta 34.990346
_cell_angle_gamma 90.000000
_cell_volume 2833.059772
_symmetry_space_group_name_H-M "C 2/C"
_symmetry_group_IT_number 15
_symmetry_cell_setting 'monoclinic'
loop_
_space_group_symop_operation_xyz
x,y,z
-x,y,1/2-z
-x,-y,-z
x,-y,1/2+z
1/2+x,1/2+y,z
1/2-x,1/2+y,1/2-z
1/2-x,1/2-y,-z
1/2+x,1/2-y,1/2+z
loop_
_atom_site_type_symbol
_atom_site_label
_atom_site_fract_x
_atom_site_fract_y
_atom_site_fract_z
Si Si1 0.589595 0.202671 0.236134
Si Si2 0.000000 0.095868 0.250000
Si Si3 0.053998 0.136849 0.578059
Si Si4 0.342700 0.302468 0.616680
Si Si5 0.363164 0.043097 0.576485
Si Si6 0.383107 0.584152 0.214211
Si Si7 0.293064 0.409630 0.421492
O O1 0.500000 0.139766 0.250000
O O2 0.508636 0.260769 0.343357
O O3 0.707627 0.148745 0.188384
O O4 0.648227 0.305736 0.156386
O O5 0.052092 0.151574 0.274858
O O6 0.114617 0.014277 0.153557
O O7 0.068726 0.163382 0.498804
O O8 0.186713 0.117608 0.522561
O O9 0.966457 0.028525 0.647957
O O10 0.339133 0.166601 0.620992
O O11 0.380691 0.349374 0.654421
O O12 0.336003 0.061478 0.523731
O O13 0.500000 0.000000 0.500000
O O14 0.255564 0.958206 0.673137
#
# Coordination Sequence:
#
# PCOD9255870 Si02
#       7
#     8   4   8   8   8   8   8
#     4   9  16  31  48  76 109 133 166 208 260 323
#     4   8  12  30  56  68  88 138 182 210 232 288
#     4  10  17  33  54  76 105 134 179 215 254 316
#     4  11  22  31  53  83 104 139 169 215 272 304
#     4  10  21  34  51  79 107 137 171 214 267 310
#     4  10  19  36  54  76 103 138 182 217 247 309
#     4   8  13  30  52  71  99 136 172 207 251 311
#
# _framework density 18.354713
#
# number of rings (size 3 to 8) (size 9 to 14) (size 15 to 20)
#    0.000    2.462    6.923    0.462    2.154    5.538 
#    0.000    0.000    0.000   10.154    0.000    0.000 
#    0.000    0.000    0.000    0.000    0.000    0.000 
#
# Total GULP energy -144746.699552 kJ/mol
# GULP energy per Si atom -5567.180752 kJ/mol
# Density = 1.831294 g / cm^3
# Si number density = 18.354713 Si / 1000 Ang^3
#
#
#
# Elastic Constant Matrix: (Units=GPa)
#
#
# Indices 1 2 3 4 5 6 
#
# 1 167.2201 20.8807 62.3529 0.0000 11.3417 0.0000
# 2 20.8807 14.5460 12.5326 0.0000 2.7885 0.0000
# 3 62.3529 12.5326 53.1260 0.0000 6.0043 0.0000
# 4 0.0000 0.0000 0.0000 11.5820 0.0000 0.3701
# 5 11.3417 2.7885 6.0043 0.0000 40.1585 0.0000
# 6 0.0000 0.0000 0.0000 0.3701 0.0000 18.4214
#
#
#
# Elastic Compliance Matrix: (Units=1/GPa)
#
#
# Indices 1 2 3 4 5 6 
#
# 1 0.011058 -0.005770 -0.011505 0.000000 -0.001002 0.000000
# 2 -0.005770 0.089652 -0.014096 0.000000 -0.002488 0.000000
# 3 -0.011505 -0.014096 0.035778 0.000000 -0.001121 0.000000
# 4 0.000000 0.000000 0.000000 0.086396 0.000000 -0.001736
# 5 -0.001002 -0.002488 -0.001121 0.000000 0.025525 0.000000
# 6 0.000000 0.000000 0.000000 -0.001736 0.000000 0.054319
#
#
# Mechanical properties :
#
#
# Convention : Reuss Voigt Hill
#
# Bulk Modulus (GPa) = 13.55982 47.38051 30.47016
# Shear Modulus (GPa) = 12.81877 23.30744 18.06310
#
# Velocity S-wave (km/s) = 2.64558 3.56734 3.14046
# Velocity P-wave (km/s) = 4.09094 6.54505 5.45772
#
# Compressibility (1/GPa) = 0.07374730
#
# Stress axis : x y z
#
# Youngs Moduli (GPa) = 90.42847 11.15424 27.95014
#
# Poissons Ratio (x) = 0.06436 0.32156
# Poissons Ratio (y) = 0.52177 0.39398
# Poissons Ratio (z) = 1.04035 0.15723
#
# Static dielectric constant tensor:
#      x y z
#    x 1.715780 0.000000 -0.012240 
#    y 0.000000 1.618320 0.000000 
#    z -0.012240 0.000000 1.667890 
# 
# From -- ./inp_files/160387.got.cif
#   From: 2010.05.17/outbox.cif.g08.bks.cpg/sg15_81_cif.got.tgz:160387.got - 2010.06.03 18:47:42.
