data_PCOD9255308
_publ_section_title
;
Structure prediction by ZEFSAII (Michael W. Deem and Ramdas Pophale) SiO2 
 PCOD9255308
Probable space group: C 2/C
;
_chemical_formula_sum "Si O2"
_cell_formula_units_Z 48
_cell_length_a 14.837499
_cell_length_b 14.921874
_cell_length_c 19.833038
_cell_angle_alpha 90.000000
_cell_angle_beta 28.384371
_cell_angle_gamma 90.000000
_cell_volume 2087.459690
_symmetry_space_group_name_H-M "C 2/C"
_symmetry_group_IT_number 15
_symmetry_cell_setting 'monoclinic'
loop_
_space_group_symop_operation_xyz
x,y,z
-x,y,1/2-z
-x,-y,-z
x,-y,1/2+z
1/2+x,1/2+y,z
1/2-x,1/2+y,1/2-z
1/2-x,1/2-y,-z
1/2+x,1/2-y,1/2+z
loop_
_atom_site_type_symbol
_atom_site_label
_atom_site_fract_x
_atom_site_fract_y
_atom_site_fract_z
Si Si1 0.292279 0.574300 0.087222
Si Si2 0.086781 0.738665 0.829247
Si Si3 0.479935 0.374648 0.339481
Si Si4 0.537795 0.179600 0.348663
Si Si5 0.894101 0.594167 0.575134
Si Si6 0.350453 0.363984 0.060922
O O1 0.306289 0.595340 0.999160
O O2 0.470379 0.630015 0.003808
O O3 0.113439 0.606452 0.247008
O O4 0.308225 0.468206 0.081325
O O5 0.276023 0.786432 0.733257
O O6 0.021753 0.661511 0.924742
O O7 0.169008 0.689098 0.709547
O O8 0.927538 0.815130 0.942624
O O9 0.500000 0.404071 0.250000
O O10 0.477115 0.267428 0.347931
O O11 0.675529 0.414562 0.241504
O O12 0.402851 0.143350 0.496607
O O13 0.000000 0.500000 0.500000
#
# Coordination Sequence:
#
# PCOD9255308 Si02
#       6
#     8   8   8   8   8   8
#     4  10  20  32  50  78 108 151 189 235 287 331
#     4  10  17  30  48  78 110 141 177 233 300 325
#     4  11  23  38  55  80 119 161 188 225 291 362
#     4  10  19  33  50  79 114 148 191 226 278 345
#     4  11  21  33  54  84 115 146 197 244 280 331
#     4  10  18  30  50  74 112 139 188 244 286 337
#
# _framework density 22.994457000000001
#
# number of rings (size 3 to 8) (size 9 to 14) (size 15 to 20)
#    0.000    1.667    5.000    3.000    4.667    2.667 
#    0.000    0.000    0.000    0.000    0.000    4.667 
#    0.000    0.000    0.000    0.000    0.000    0.000 
#
# Total GULP energy -134023.219069 kJ/mol
# GULP energy per Si atom -5584.300795 kJ/mol
# Density = 2.294212 g / cm^3
# Si number density = 22.994457 Si / 1000 Ang^3
#
#
#
# Elastic Constant Matrix: (Units=GPa)
#
#
# Indices 1 2 3 4 5 6 
#
# 1 6.2430 3.3237 4.7300 -0.0002 0.3134 0.0011
# 2 3.3237 90.7172 39.0968 -0.0114 -20.1399 0.0012
# 3 4.7300 39.0968 150.6802 -0.0046 -6.5813 0.0015
# 4 -0.0002 -0.0114 -0.0046 40.3346 -0.0040 -0.6962
# 5 0.3134 -20.1399 -6.5813 -0.0040 24.7990 0.0001
# 6 0.0011 0.0012 0.0015 -0.6962 0.0001 1.6157
#
#
#
# Elastic Compliance Matrix: (Units=1/GPa)
#
#
# Indices 1 2 3 4 5 6 
#
# 1 0.166925 -0.006224 -0.003984 -0.000004 -0.008222 -0.000111
# 2 -0.006224 0.015222 -0.003248 0.000005 0.011579 -0.000003
# 3 -0.003984 -0.003248 0.007579 0.000000 -0.000576 -0.000002
# 4 -0.000004 0.000005 0.000000 0.024978 0.000008 0.010763
# 5 -0.008222 0.011579 -0.000576 0.000008 0.049678 -0.000003
# 6 -0.000111 -0.000003 -0.000002 0.010763 -0.000003 0.623564
#
#
# Mechanical properties :
#
#
# Convention : Reuss Voigt Hill
#
# Bulk Modulus (GPa) = 6.14201 37.99347 22.06774
# Shear Modulus (GPa) = 5.15926 26.71586 15.93756
#
# Velocity S-wave (km/s) = 1.49952 3.41227 2.63554
# Velocity P-wave (km/s) = 2.38222 5.66424 4.34503
#
# Compressibility (1/GPa) = 0.16281327
#
# Stress axis : x y z
#
# Youngs Moduli (GPa) = 5.99070 65.69500 131.93761
#
# Poissons Ratio (x) = 0.40889 0.52565
# Poissons Ratio (y) = 0.03729 0.42860
# Poissons Ratio (z) = 0.02387 0.21341
#
# Static dielectric constant tensor:
#      x y z
#    x 1.978930 0.000000 -0.012410 
#    y 0.000000 1.813870 0.000000 
#    z -0.012410 0.000000 1.860860 
# 
# From -- ./inp_files/54977.got.cif
#   From: 2010.05.17/outbox.cif.g08.bks.cpg/sg15_28_cif.got.tgz:54977.got - 2010.06.03 18:47:42.
