data_PCOD9255395
_publ_section_title
;
Structure prediction by ZEFSAII (Michael W. Deem and Ramdas Pophale) SiO2 
 PCOD9255395
Probable space group: C 2/C
;
_chemical_formula_sum "Si O2"
_cell_formula_units_Z 64
_cell_length_a 27.734073
_cell_length_b 22.012124
_cell_length_c 18.920312
_cell_angle_alpha 90.000000
_cell_angle_beta 160.366500
_cell_angle_gamma 90.000000
_cell_volume 3881.022622
_symmetry_space_group_name_H-M "C 2/C"
_symmetry_group_IT_number 15
_symmetry_cell_setting 'monoclinic'
loop_
_space_group_symop_operation_xyz
x,y,z
-x,y,1/2-z
-x,-y,-z
x,-y,1/2+z
1/2+x,1/2+y,z
1/2-x,1/2+y,1/2-z
1/2-x,1/2-y,-z
1/2+x,1/2-y,1/2+z
loop_
_atom_site_type_symbol
_atom_site_label
_atom_site_fract_x
_atom_site_fract_y
_atom_site_fract_z
Si Si1 0.802125 0.006504 0.034996
Si Si2 0.330786 0.032948 0.014871
Si Si3 0.863333 0.994876 0.963820
Si Si4 0.649149 0.577177 0.192563
Si Si5 0.332004 0.604783 0.818013
Si Si6 0.652062 0.821683 0.474399
Si Si7 0.627552 0.309475 0.007653
Si Si8 0.798315 0.148409 0.035935
O O1 0.763317 0.077173 0.994972
O O2 0.969977 0.002660 0.286226
O O3 0.782884 0.989194 0.926864
O O4 0.718321 0.963243 0.972152
O O5 0.500000 0.021031 0.250000
O O6 0.284137 0.090116 0.902514
O O7 0.232677 0.977916 0.847480
O O8 0.812759 0.055446 0.853878
O O9 0.853300 0.941573 0.892648
O O10 0.739626 0.636731 0.333377
O O11 0.489142 0.588591 0.001970
O O12 0.325142 0.669146 0.849157
O O13 0.620322 0.761027 0.475518
O O14 0.719143 0.814597 0.488485
O O15 0.500000 0.853164 0.250000
O O16 0.725749 0.334914 0.079139
O O17 0.468285 0.338849 0.781408
#
# Coordination Sequence:
#
# PCOD9255395 Si02
#       8
#     8   8   8   8   8   8   8   8
#     4  11  17  31  57  79 106 138 174 217 266 315
#     4  11  21  34  53  80 110 140 173 216 275 319
#     4  10  17  30  54  82 100 134 182 217 254 316
#     4  11  20  34  52  79 112 140 180 212 264 317
#     4  11  18  36  55  78 103 145 182 219 254 321
#     4  12  23  32  51  77 114 146 173 215 263 313
#     4  11  20  33  53  75 104 146 183 213 249 318
#     4  11  19  33  49  78 110 140 179 206 262 315
#
# _framework density 16.490499
#
# number of rings (size 3 to 8) (size 9 to 14) (size 15 to 20)
#    0.000    1.000    8.750    2.250    0.000    0.000 
#    0.000    3.750    0.000    0.000    3.250    1.750 
#    0.000    0.000    0.000    0.000    0.000    0.000 
#
# Total GULP energy -178302.666889 kJ/mol
# GULP energy per Si atom -5571.958340 kJ/mol
# Density = 1.645297 g / cm^3
# Si number density = 16.490499 Si / 1000 Ang^3
#
#
#
# Elastic Constant Matrix: (Units=GPa)
#
#
# Indices 1 2 3 4 5 6 
#
# 1 130.4442 31.9247 31.0609 0.0000 -12.6489 0.0000
# 2 31.9247 44.8863 15.9887 0.0000 -8.9617 0.0000
# 3 31.0609 15.9887 51.4357 0.0000 -2.9074 0.0000
# 4 0.0000 0.0000 0.0000 1.2326 0.0000 0.2287
# 5 -12.6489 -8.9617 -2.9074 0.0000 18.9609 0.0000
# 6 0.0000 0.0000 0.0000 0.2287 0.0000 21.1021
#
#
#
# Elastic Compliance Matrix: (Units=1/GPa)
#
#
# Indices 1 2 3 4 5 6 
#
# 1 0.010322 -0.004982 -0.004467 0.000000 0.003846 0.000000
# 2 -0.004982 0.029831 -0.005704 0.000000 0.009901 0.000000
# 3 -0.004467 -0.005704 0.023798 0.000000 -0.002027 0.000000
# 4 0.000000 0.000000 0.000000 0.812921 0.000000 -0.008811
# 5 0.003846 0.009901 -0.002027 0.000000 0.059675 0.000000
# 6 0.000000 0.000000 0.000000 -0.008811 0.000000 0.047484
#
#
# Mechanical properties :
#
#
# Convention : Reuss Voigt Hill
#
# Bulk Modulus (GPa) = 29.72387 42.74610 36.23499
# Shear Modulus (GPa) = 4.87542 18.11191 11.49366
#
# Velocity S-wave (km/s) = 1.72131 3.31769 2.64292
# Velocity P-wave (km/s) = 4.69197 6.37605 5.59770
#
# Compressibility (1/GPa) = 0.03364299
#
# Stress axis : x y z
#
# Youngs Moduli (GPa) = 96.87905 33.52237 42.02036
#
# Poissons Ratio (x) = 0.16702 0.18771
# Poissons Ratio (y) = 0.48269 0.23970
# Poissons Ratio (z) = 0.43277 0.19123
#
# Static dielectric constant tensor:
#      x y z
#    x 1.605500 0.000000 -0.002540 
#    y 0.000000 1.581540 0.000000 
#    z -0.002540 0.000000 1.566100 
# 
# From -- ./inp_files/223235.got.cif
#   From: 2010.05.17/outbox.cif.g08.bks.cpg/sg15_112_cif.got.tgz:223235.got - 2010.06.03 18:47:42.
