data_PCOD9255898
_publ_section_title
;
Structure prediction by ZEFSAII (Michael W. Deem and Ramdas Pophale) SiO2 
 PCOD9255898
Probable space group: C 2/C
;
_chemical_formula_sum "Si O2"
_cell_formula_units_Z 52
_cell_length_a 11.851547
_cell_length_b 13.545082
_cell_length_c 13.341993
_cell_angle_alpha 90.000000
_cell_angle_beta 67.239711
_cell_angle_gamma 90.000000
_cell_volume 1975.014342
_symmetry_space_group_name_H-M "C 2/C"
_symmetry_group_IT_number 15
_symmetry_cell_setting 'monoclinic'
loop_
_space_group_symop_operation_xyz
x,y,z
-x,y,1/2-z
-x,-y,-z
x,-y,1/2+z
1/2+x,1/2+y,z
1/2-x,1/2+y,1/2-z
1/2-x,1/2-y,-z
1/2+x,1/2-y,1/2+z
loop_
_atom_site_type_symbol
_atom_site_label
_atom_site_fract_x
_atom_site_fract_y
_atom_site_fract_z
Si Si1 0.500000 0.353823 0.250000
Si Si2 0.038627 0.721639 0.428886
Si Si3 0.308735 0.477425 0.830831
Si Si4 0.907656 0.088729 0.504161
Si Si5 0.679423 0.913251 0.223814
Si Si6 0.110253 0.403423 0.637811
Si Si7 0.289041 0.695609 0.228159
O O1 0.500106 0.291736 0.350254
O O2 0.616026 0.422307 0.197686
O O3 0.038466 0.799378 0.520339
O O4 0.176714 0.689822 0.350469
O O5 0.937924 0.634757 0.453047
O O6 0.185886 0.512506 0.816046
O O7 0.369434 0.396329 0.736331
O O8 0.326983 0.438679 0.935712
O O9 0.813189 0.095226 0.628349
O O10 0.000000 0.000000 0.500000
O O11 0.653027 0.802988 0.272491
O O12 0.618471 0.978669 0.155593
O O13 0.226049 0.340793 0.644502
O O14 0.000000 0.377453 0.750000
#
# Coordination Sequence:
#
# PCOD9255898 Si02
#       7
#     4   8   8   8   8   8   8
#     4  12  16  34  58  74 106 138 182 230 252 324
#     4  10  17  33  56  78 102 144 189 215 265 330
#     4  11  20  33  57  82 109 138 185 228 273 317
#     4  11  21  32  58  84 107 144 184 232 277 314
#     4  10  20  36  55  82 113 143 183 229 271 329
#     4   9  17  33  59  78 102 151 186 217 271 333
#     4   9  18  32  55  79 103 143 177 225 271 319
#
# _framework density 26.328923
#
# number of rings (size 3 to 8) (size 9 to 14) (size 15 to 20)
#    0.000    1.846    6.923    0.000    0.000    2.462 
#    1.385    0.769    3.385    9.231    0.000    0.000 
#    0.000    0.000    0.000    0.000    0.000    0.000 
#
# Total GULP energy -144882.257327 kJ/mol
# GULP energy per Si atom -5572.394513 kJ/mol
# Density = 2.626900 g / cm^3
# Si number density = 26.328923 Si / 1000 Ang^3
#
#
#
# Elastic Constant Matrix: (Units=GPa)
#
#
# Indices 1 2 3 4 5 6 
#
# 1 45.8650 12.8398 8.7173 0.0000 20.0481 0.0000
# 2 12.8398 157.0081 6.8400 0.0000 2.9306 0.0000
# 3 8.7173 6.8400 81.8875 0.0000 14.6225 0.0000
# 4 0.0000 0.0000 0.0000 37.1762 0.0000 16.2695
# 5 20.0481 2.9306 14.6225 0.0000 27.4704 0.0000
# 6 0.0000 0.0000 0.0000 16.2695 0.0000 33.7229
#
#
#
# Elastic Compliance Matrix: (Units=1/GPa)
#
#
# Indices 1 2 3 4 5 6 
#
# 1 0.032862 -0.002279 0.001029 0.000000 -0.024287 0.000000
# 2 -0.002279 0.006555 -0.000527 0.000000 0.001244 0.000000
# 3 0.001029 -0.000527 0.013559 0.000000 -0.007912 0.000000
# 4 0.000000 0.000000 0.000000 0.034098 0.000000 -0.016451
# 5 -0.024287 0.001244 -0.007912 0.000000 0.058207 0.000000
# 6 0.000000 0.000000 0.000000 -0.016451 0.000000 0.037590
#
#
# Mechanical properties :
#
#
# Convention : Reuss Voigt Hill
#
# Bulk Modulus (GPa) = 20.23386 37.95054 29.09220
# Shear Modulus (GPa) = 24.64277 36.76480 30.70379
#
# Velocity S-wave (km/s) = 3.06266 3.74085 3.41862
# Velocity P-wave (km/s) = 4.49536 5.75360 5.16295
#
# Compressibility (1/GPa) = 0.04942210
#
# Stress axis : x y z
#
# Youngs Moduli (GPa) = 30.43053 152.55065 73.75042
#
# Poissons Ratio (x) = 0.34764 -0.07589
# Poissons Ratio (y) = 0.06935 0.03888
# Poissons Ratio (z) = -0.03131 0.08042
#
# Static dielectric constant tensor:
#      x y z
#    x 2.438290 0.000000 0.056710 
#    y 0.000000 2.204520 0.000000 
#    z 0.056710 0.000000 2.123700 
# 
# From -- ./inp_files/203586.got.cif
#   From: 2010.05.17/outbox.cif.g08.bks.cpg/sg15_102_cif.got.tgz:203586.got - 2010.06.03 18:47:42.
