data_PCOD9255541
_publ_section_title
;
Structure prediction by ZEFSAII (Michael W. Deem and Ramdas Pophale) SiO2 
 PCOD9255541
Probable space group: C 2/C
;
_chemical_formula_sum "Si O2"
_cell_formula_units_Z 48
_cell_length_a 28.456194
_cell_length_b 12.634623
_cell_length_c 14.394563
_cell_angle_alpha 90.000000
_cell_angle_beta 157.864897
_cell_angle_gamma 90.000000
_cell_volume 1950.020051
_symmetry_space_group_name_H-M "C 2/C"
_symmetry_group_IT_number 15
_symmetry_cell_setting 'monoclinic'
loop_
_space_group_symop_operation_xyz
x,y,z
-x,y,1/2-z
-x,-y,-z
x,-y,1/2+z
1/2+x,1/2+y,z
1/2-x,1/2+y,1/2-z
1/2-x,1/2-y,-z
1/2+x,1/2-y,1/2+z
loop_
_atom_site_type_symbol
_atom_site_label
_atom_site_fract_x
_atom_site_fract_y
_atom_site_fract_z
Si Si1 0.615107 0.310655 0.746402
Si Si2 0.546192 0.852171 0.247020
Si Si3 0.271968 0.868687 0.510686
Si Si4 0.796798 0.971392 0.450058
Si Si5 0.680873 0.456363 0.715531
Si Si6 0.034246 0.557455 0.465935
O O1 0.528761 0.214814 0.621421
O O2 0.592685 0.373616 0.609860
O O3 0.750000 0.250000 0.000000
O O4 0.612372 0.397880 0.823590
O O5 0.500000 0.785549 0.250000
O O6 0.685067 0.899510 0.514917
O O7 0.459320 0.954357 0.086618
O O8 0.250000 0.750000 0.500000
O O9 0.411954 0.875191 0.723919
O O10 0.248778 0.939254 0.560753
O O11 0.187577 0.930703 0.280541
O O12 0.837613 0.020839 0.426967
O O13 0.671995 0.897703 0.209130
O O14 0.000000 0.500000 0.500000
#
# Coordination Sequence:
#
# PCOD9255541 Si02
#       6
#     8   8   8   8   8   8
#     4   9  19  32  50  81 109 133 169 225 266 307
#     4  10  17  31  54  82 101 135 178 219 261 312
#     4   9  19  31  47  79 109 136 166 215 268 310
#     4  10  18  33  54  77 102 137 174 220 258 308
#     4   9  18  32  51  76 109 134 173 215 266 302
#     4   9  17  31  52  76 104 127 173 225 255 297
#
# _framework density 24.615131999999999
#
# number of rings (size 3 to 8) (size 9 to 14) (size 15 to 20)
#    0.000    2.667    1.667    3.000    0.000    2.667 
#    0.000    0.000    0.000    1.000   30.333    3.500 
#    0.000    0.000    0.000    0.000    0.000    0.000 
#
# Total GULP energy -133778.693742 kJ/mol
# GULP energy per Si atom -5574.112239 kJ/mol
# Density = 2.455911 g / cm^3
# Si number density = 24.615132 Si / 1000 Ang^3
#
#
#
# Elastic Constant Matrix: (Units=GPa)
#
#
# Indices 1 2 3 4 5 6 
#
# 1 130.3438 45.7610 17.3890 0.0000 -34.1686 0.0000
# 2 45.7610 130.0866 17.2293 0.0000 1.1522 0.0000
# 3 17.3890 17.2293 47.3721 0.0000 -5.4696 0.0000
# 4 0.0000 0.0000 0.0000 16.6047 0.0000 -6.2451
# 5 -34.1686 1.1522 -5.4696 0.0000 34.2322 0.0000
# 6 0.0000 0.0000 0.0000 -6.2451 0.0000 42.0772
#
#
#
# Elastic Compliance Matrix: (Units=1/GPa)
#
#
# Indices 1 2 3 4 5 6 
#
# 1 0.012724 -0.004372 -0.001627 0.000000 0.012587 0.000000
# 2 -0.004372 0.009598 -0.002473 0.000000 -0.005082 0.000000
# 3 -0.001627 -0.002473 0.022850 0.000000 0.002110 0.000000
# 4 0.000000 0.000000 0.000000 0.063784 0.000000 0.009467
# 5 0.012587 -0.005082 0.002110 0.000000 0.042284 0.000000
# 6 0.000000 0.000000 0.000000 0.009467 0.000000 0.025171
#
#
# Mechanical properties :
#
#
# Convention : Reuss Voigt Hill
#
# Bulk Modulus (GPa) = 35.42616 52.06232 43.74424
# Shear Modulus (GPa) = 24.65937 33.74436 29.20187
#
# Velocity S-wave (km/s) = 3.16855 3.70655 3.44806
# Velocity P-wave (km/s) = 5.27348 6.28606 5.80190
#
# Compressibility (1/GPa) = 0.02822773
#
# Stress axis : x y z
#
# Youngs Moduli (GPa) = 78.59439 104.19303 43.76428
#
# Poissons Ratio (x) = 0.45551 0.07121
# Poissons Ratio (y) = 0.34360 0.10821
# Poissons Ratio (z) = 0.12788 0.25763
#
# Static dielectric constant tensor:
#      x y z
#    x 2.106570 0.000000 -0.006570 
#    y 0.000000 1.974640 0.000000 
#    z -0.006570 0.000000 2.111210 
# 
# From -- ./inp_files/152205.got.cif
#   From: 2010.05.17/outbox.cif.g08.bks.cpg/sg15_77_cif.got.tgz:152205.got - 2010.06.03 18:47:42.
