data_PCOD9255088
_publ_section_title
;
Structure prediction by ZEFSAII (Michael W. Deem and Ramdas Pophale) SiO2 
 PCOD9255088
Probable space group: C 2/C
;
_chemical_formula_sum "Si O2"
_cell_formula_units_Z 64
_cell_length_a 26.887516
_cell_length_b 15.874068
_cell_length_c 25.466507
_cell_angle_alpha 90.000000
_cell_angle_beta 158.492419
_cell_angle_gamma 90.000000
_cell_volume 3985.011525
_symmetry_space_group_name_H-M "C 2/C"
_symmetry_group_IT_number 15
_symmetry_cell_setting 'monoclinic'
loop_
_space_group_symop_operation_xyz
x,y,z
-x,y,1/2-z
-x,-y,-z
x,-y,1/2+z
1/2+x,1/2+y,z
1/2-x,1/2+y,1/2-z
1/2-x,1/2-y,-z
1/2+x,1/2-y,1/2+z
loop_
_atom_site_type_symbol
_atom_site_label
_atom_site_fract_x
_atom_site_fract_y
_atom_site_fract_z
Si Si1 0.702395 0.733431 0.656250
Si Si2 0.811915 0.372193 0.360761
Si Si3 0.075703 0.029488 0.687643
Si Si4 0.508015 0.666527 0.695581
Si Si5 0.439708 0.339812 0.864171
Si Si6 0.393720 0.565348 0.419063
Si Si7 0.881112 0.380152 0.845402
Si Si8 0.244335 0.275578 0.872956
O O1 0.756206 0.664099 0.750773
O O2 0.589851 0.694546 0.507942
O O3 0.822329 0.773114 0.739440
O O4 0.635082 0.807986 0.625687
O O5 0.706323 0.434944 0.284880
O O6 0.815135 0.291928 0.403341
O O7 0.963838 0.406623 0.504860
O O8 0.059426 0.073512 0.727683
O O9 0.946348 0.068726 0.529415
O O10 0.075975 0.928847 0.680708
O O11 0.500000 0.673203 0.750000
O O12 0.361286 0.689449 0.526150
O O13 0.623244 0.728918 0.785252
O O14 0.420872 0.354552 0.909144
O O15 0.500000 0.500000 0.500000
O O16 0.234225 0.549461 0.256980
O O17 0.828358 0.340367 0.738693
#
# Coordination Sequence:
#
# PCOD9255088 Si02
#       8
#     8   8   8   8   8   8   8   8
#     4  10  18  28  47  69  95 129 168 200 230 284
#     4  10  18  28  46  72  98 134 167 195 236 284
#     4  10  20  33  49  68  98 132 160 203 253 292
#     4  11  21  34  51  73  97 129 170 208 245 290
#     4  10  19  32  47  69  96 128 163 201 245 285
#     4   9  17  29  45  64  92 130 160 189 230 283
#     4  10  17  28  46  67  96 132 166 194 234 277
#     4  10  19  30  48  71  99 132 168 201 235 287
#
# _framework density 16.060179000000002
#
# number of rings (size 3 to 8) (size 9 to 14) (size 15 to 20)
#    0.000    2.000    5.000    0.375    0.000    0.000 
#    0.000    8.125    0.000    0.000    0.000    0.875 
#    0.000    0.000    0.000    0.000    0.000    0.000 
#
# Total GULP energy -178204.206075 kJ/mol
# GULP energy per Si atom -5568.881440 kJ/mol
# Density = 1.602363 g / cm^3
# Si number density = 16.060179 Si / 1000 Ang^3
#
#
#
# Elastic Constant Matrix: (Units=GPa)
#
#
# Indices 1 2 3 4 5 6 
#
# 1 51.6267 22.9083 24.2007 0.0001 4.1589 -0.0003
# 2 22.9083 62.5591 41.7264 0.0003 7.0386 0.0001
# 3 24.2007 41.7264 111.7482 -0.0012 29.6239 -0.0009
# 4 0.0001 0.0003 -0.0012 21.7082 0.0002 4.2468
# 5 4.1589 7.0386 29.6239 0.0002 28.2746 0.0001
# 6 -0.0003 0.0001 -0.0009 4.2468 0.0001 15.6767
#
#
#
# Elastic Compliance Matrix: (Units=1/GPa)
#
#
# Indices 1 2 3 4 5 6 
#
# 1 0.023678 -0.006884 -0.002892 0.000000 0.001260 0.000000
# 2 -0.006884 0.023653 -0.008375 -0.000001 0.003899 -0.000001
# 3 -0.002892 -0.008375 0.016665 0.000001 -0.014950 0.000001
# 4 0.000000 -0.000001 0.000001 0.048643 -0.000001 -0.013177
# 5 0.001260 0.003899 -0.014950 -0.000001 0.049875 -0.000001
# 6 0.000000 -0.000001 0.000001 -0.013177 -0.000001 0.067359
#
#
# Mechanical properties :
#
#
# Convention : Reuss Voigt Hill
#
# Bulk Modulus (GPa) = 36.10596 44.84498 40.47547
# Shear Modulus (GPa) = 18.15499 22.27179 20.21339
#
# Velocity S-wave (km/s) = 3.36584 3.72798 3.55153
# Velocity P-wave (km/s) = 6.13479 6.82013 6.48652
#
# Compressibility (1/GPa) = 0.02769626
#
# Stress axis : x y z
#
# Youngs Moduli (GPa) = 42.23272 42.27831 60.00499
#
# Poissons Ratio (x) = 0.29103 0.17351
# Poissons Ratio (y) = 0.29072 0.50252
# Poissons Ratio (z) = 0.12212 0.35407
#
# Static dielectric constant tensor:
#      x y z
#    x 1.547780 0.000000 0.005680 
#    y 0.000000 1.600230 0.000000 
#    z 0.005680 0.000000 1.595070 
# 
# From -- ./inp_files/70324.got.cif
#   From: 2010.05.17/outbox.cif.g08.bks.cpg/sg15_36_cif.got.tgz:70324.got - 2010.06.03 18:47:42.
