data_PCOD9255972
_publ_section_title
;
Structure prediction by ZEFSAII (Michael W. Deem and Ramdas Pophale) SiO2 
 PCOD9255972
Probable space group: C 2/C
;
_chemical_formula_sum "Si O2"
_cell_formula_units_Z 52
_cell_length_a 9.897097
_cell_length_b 18.873593
_cell_length_c 18.394466
_cell_angle_alpha 90.000000
_cell_angle_beta 138.544645
_cell_angle_gamma 90.000000
_cell_volume 2274.737948
_symmetry_space_group_name_H-M "C 2/C"
_symmetry_group_IT_number 15
_symmetry_cell_setting 'monoclinic'
loop_
_space_group_symop_operation_xyz
x,y,z
-x,y,1/2-z
-x,-y,-z
x,-y,1/2+z
1/2+x,1/2+y,z
1/2-x,1/2+y,1/2-z
1/2-x,1/2-y,-z
1/2+x,1/2-y,1/2+z
loop_
_atom_site_type_symbol
_atom_site_label
_atom_site_fract_x
_atom_site_fract_y
_atom_site_fract_z
Si Si1 0.354209 0.690764 0.490840
Si Si2 0.022605 0.421906 0.540811
Si Si3 0.369113 0.718286 0.306967
Si Si4 0.888868 0.936031 0.783247
Si Si5 0.950385 0.090800 0.644382
Si Si6 0.500000 0.197522 0.250000
Si Si7 0.705529 0.221151 0.074107
O O1 0.250000 0.750000 0.500000
O O2 0.504125 0.642300 0.599687
O O3 0.503623 0.730692 0.494375
O O4 0.157077 0.658941 0.368443
O O5 0.152540 0.434711 0.665792
O O6 0.131512 0.361170 0.535706
O O7 0.000000 0.500000 0.500000
O O8 0.792357 0.399036 0.458816
O O9 0.416437 0.634465 0.340559
O O10 0.596991 0.750108 0.390125
O O11 0.282057 0.719716 0.189105
O O12 0.168603 0.740875 0.271707
O O13 0.000000 0.926457 0.750000
O O14 0.970577 0.011694 0.841916
O O15 0.000000 0.102823 0.750000
#
# Coordination Sequence:
#
# PCOD9255972 Si02
#       7
#     8   8   8   8   8   4   8
#     4  12  24  40  60  94 132 176 216 264 327 398
#     4  11  16  30  55  93 125 154 210 274 326 359
#     4  10  19  39  65  91 121 167 213 269 332 393
#     4  10  17  33  61  93 125 159 217 272 318 380
#     4  11  22  35  63  99 132 167 221 279 316 383
#     4  12  26  42  66  92 128 178 216 260 334 404
#     4  10  20  37  63  87 128 166 213 268 321 393
#
# _framework density 22.859776
#
# number of rings (size 3 to 8) (size 9 to 14) (size 15 to 20)
#    0.000    1.231    9.231    0.923    1.077    0.615 
#    0.000    0.769    0.000    1.846    0.000    0.000 
#    0.000    0.000    0.000    0.000    0.000    0.000 
#
# Total GULP energy -144787.370361 kJ/mol
# GULP energy per Si atom -5568.745014 kJ/mol
# Density = 2.280775 g / cm^3
# Si number density = 22.859776 Si / 1000 Ang^3
#
#
#
# Elastic Constant Matrix: (Units=GPa)
#
#
# Indices 1 2 3 4 5 6 
#
# 1 150.5530 21.1628 16.8379 0.0001 23.7750 0.0000
# 2 21.1628 114.8414 25.5878 0.0001 3.9518 0.0000
# 3 16.8379 25.5878 124.9390 0.0004 27.9176 0.0002
# 4 0.0001 0.0001 0.0004 31.5124 0.0001 3.3546
# 5 23.7750 3.9518 27.9176 0.0001 37.9682 0.0001
# 6 0.0000 0.0000 0.0002 3.3546 0.0001 26.6405
#
#
#
# Elastic Compliance Matrix: (Units=1/GPa)
#
#
# Indices 1 2 3 4 5 6 
#
# 1 0.007551 -0.001298 0.000329 0.000000 -0.004835 0.000000
# 2 -0.001298 0.009355 -0.002040 0.000000 0.001340 0.000000
# 3 0.000329 -0.002040 0.010023 0.000000 -0.007363 0.000000
# 4 0.000000 0.000000 0.000000 0.032165 0.000000 -0.004050
# 5 -0.004835 0.001340 -0.007363 0.000000 0.034640 0.000000
# 6 0.000000 0.000000 0.000000 -0.004050 0.000000 0.038047
#
#
# Mechanical properties :
#
#
# Convention : Reuss Voigt Hill
#
# Bulk Modulus (GPa) = 47.82541 57.50114 52.66328
# Shear Modulus (GPa) = 34.53721 41.00720 37.77221
#
# Velocity S-wave (km/s) = 3.89116 4.23999 4.06931
# Velocity P-wave (km/s) = 6.41520 7.01274 6.72061
#
# Compressibility (1/GPa) = 0.02090939
#
# Stress axis : x y z
#
# Youngs Moduli (GPa) = 132.42430 106.88959 99.77289
#
# Poissons Ratio (x) = 0.13879 -0.03279
# Poissons Ratio (y) = 0.17194 0.20357
# Poissons Ratio (z) = -0.04352 0.21809
#
# Static dielectric constant tensor:
#      x y z
#    x 1.448770 0.000000 -0.031220 
#    y 0.000000 2.113870 0.000000 
#    z -0.031220 0.000000 2.015310 
# 
# From -- ./inp_files/274652.got.cif
#   From: 2010.05.17/outbox.cif.g08.bks.cpg/sg15_138_cif.got.tgz:274652.got - 2010.06.03 18:47:42.
