data_PCOD9255826
_publ_section_title
;
Structure prediction by ZEFSAII (Michael W. Deem and Ramdas Pophale) SiO2 
 PCOD9255826
Probable space group: C 2/C
;
_chemical_formula_sum "Si O2"
_cell_formula_units_Z 32
_cell_length_a 10.214846
_cell_length_b 12.107782
_cell_length_c 27.223176
_cell_angle_alpha 90.000000
_cell_angle_beta 155.390677
_cell_angle_gamma 90.000000
_cell_volume 1402.090017
_symmetry_space_group_name_H-M "C 2/C"
_symmetry_group_IT_number 15
_symmetry_cell_setting 'monoclinic'
loop_
_space_group_symop_operation_xyz
x,y,z
-x,y,1/2-z
-x,-y,-z
x,-y,1/2+z
1/2+x,1/2+y,z
1/2-x,1/2+y,1/2-z
1/2-x,1/2-y,-z
1/2+x,1/2-y,1/2+z
loop_
_atom_site_type_symbol
_atom_site_label
_atom_site_fract_x
_atom_site_fract_y
_atom_site_fract_z
Si Si1 0.751136 0.408101 0.746818
Si Si2 0.500000 0.535513 0.750000
Si Si3 0.138544 0.251972 0.130761
Si Si4 0.000000 0.581976 0.750000
Si Si5 0.955438 0.871379 0.998099
O O1 0.534744 0.462586 0.713971
O O2 0.565580 0.311088 0.655841
O O3 0.845548 0.503551 0.739396
O O4 0.082185 0.362160 0.882195
O O5 0.806360 0.617169 0.852940
O O6 0.500000 0.213195 0.250000
O O7 0.983127 0.196821 0.030730
O O8 0.714356 0.649909 0.628115
O O9 0.000000 0.000000 0.000000
#
# Coordination Sequence:
#
# PCOD9255826 Si02
#       5
#     8   4   8   4   8
#     4  10  17  35  61  88 119 159 197 245 307 360
#     4  10  21  34  61  94 124 152 191 256 309 350
#     4   8  16  35  58  81 122 155 189 246 300 348
#     4  10  17  32  63  84 112 172 201 234 311 348
#     4   9  15  32  63  85 110 167 201 236 302 361
#
# _framework density 22.823070000000001
#
# number of rings (size 3 to 8) (size 9 to 14) (size 15 to 20)
#    0.750    2.000    6.250    0.000    0.000    0.000 
#    0.000    8.750    0.000    0.000    0.000    0.000 
#    0.000    0.000    0.000    0.000    0.000    0.000 
#
# Total GULP energy -89126.275962 kJ/mol
# GULP energy per Si atom -5570.392248 kJ/mol
# Density = 2.277112 g / cm^3
# Si number density = 22.823070 Si / 1000 Ang^3
#
#
#
# Elastic Constant Matrix: (Units=GPa)
#
#
# Indices 1 2 3 4 5 6 
#
# 1 131.9670 67.3343 43.8035 -0.0001 -16.5401 0.0001
# 2 67.3343 76.8771 43.7867 0.0001 3.8626 0.0001
# 3 43.8035 43.7867 163.2427 0.0008 -18.6207 0.0006
# 4 -0.0001 0.0001 0.0008 66.1997 0.0000 -34.8342
# 5 -16.5401 3.8626 -18.6207 0.0000 21.6189 0.0001
# 6 0.0001 0.0001 0.0006 -34.8342 0.0001 49.8584
#
#
#
# Elastic Compliance Matrix: (Units=1/GPa)
#
#
# Indices 1 2 3 4 5 6 
#
# 1 0.018930 -0.018844 0.002230 0.000000 0.019771 0.000000
# 2 -0.018844 0.035123 -0.007458 0.000000 -0.027116 0.000000
# 3 0.002230 -0.007458 0.008732 0.000000 0.010560 0.000000
# 4 0.000000 0.000000 0.000000 0.023888 0.000000 0.016689
# 5 0.019771 -0.027116 0.010560 0.000000 0.075322 0.000000
# 6 0.000000 0.000000 0.000000 0.016689 0.000000 0.031717
#
#
# Mechanical properties :
#
#
# Convention : Reuss Voigt Hill
#
# Bulk Modulus (GPa) = 68.29481 75.77064 72.03273
# Shear Modulus (GPa) = 20.26455 42.01289 31.13872
#
# Velocity S-wave (km/s) = 2.98299 4.29512 3.69772
# Velocity P-wave (km/s) = 6.46938 7.60714 7.06121
#
# Compressibility (1/GPa) = 0.01464240
#
# Stress axis : x y z
#
# Youngs Moduli (GPa) = 52.82531 28.47162 114.51705
#
# Poissons Ratio (x) = 0.53652 -0.25539
# Poissons Ratio (y) = 0.99544 0.85402
# Poissons Ratio (z) = -0.11781 0.21233
#
# Static dielectric constant tensor:
#      x y z
#    x 1.918220 0.000000 0.041740 
#    y 0.000000 1.843990 0.000000 
#    z 0.041740 0.000000 1.978450 
# 
# From -- ./inp_files/123416.got.cif
#   From: 2010.05.17/outbox.cif.g08.bks.cpg/sg15_62_cif.got.tgz:123416.got - 2010.06.03 18:47:42.
