data_PCOD9255414
_publ_section_title
;
Structure prediction by ZEFSAII (Michael W. Deem and Ramdas Pophale) SiO2 
 PCOD9255414
Probable space group: C 2/C
;
_chemical_formula_sum "Si O2"
_cell_formula_units_Z 48
_cell_length_a 16.035300
_cell_length_b 11.978262
_cell_length_c 14.971746
_cell_angle_alpha 90.000000
_cell_angle_beta 104.783277
_cell_angle_gamma 90.000000
_cell_volume 2780.506837
_symmetry_space_group_name_H-M "C 2/C"
_symmetry_group_IT_number 15
_symmetry_cell_setting 'monoclinic'
loop_
_space_group_symop_operation_xyz
x,y,z
-x,y,1/2-z
-x,-y,-z
x,-y,1/2+z
1/2+x,1/2+y,z
1/2-x,1/2+y,1/2-z
1/2-x,1/2-y,-z
1/2+x,1/2-y,1/2+z
loop_
_atom_site_type_symbol
_atom_site_label
_atom_site_fract_x
_atom_site_fract_y
_atom_site_fract_z
Si Si1 0.232029 0.592994 0.432333
Si Si2 0.806033 0.662242 0.567825
Si Si3 0.094384 0.592360 0.242542
Si Si4 0.874526 0.728987 0.955863
Si Si5 0.906866 0.323491 0.259279
Si Si6 0.453731 0.880315 0.967817
O O1 0.237392 0.459355 0.434567
O O2 0.170721 0.372696 0.831003
O O3 0.182993 0.636994 0.507597
O O4 0.323210 0.655865 0.454220
O O5 0.750000 0.750000 0.500000
O O6 0.832955 0.711487 0.670533
O O7 0.893512 0.641936 0.535703
O O8 0.091756 0.457931 0.247127
O O9 0.099633 0.618722 0.138859
O O10 0.000000 0.632484 0.250000
O O11 0.885278 0.707349 0.853917
O O12 0.970656 0.711202 0.019595
O O13 0.000000 0.282549 0.250000
O O14 0.500000 0.000000 0.000000
#
# Coordination Sequence:
#
# PCOD9255414 Si02
#       6
#     8   8   8   8   8   8
#     4  10  22  36  54  86 120 147 184 237 292 334
#     4  11  23  37  56  87 113 147 190 236 279 337
#     4  10  17  30  55  84 111 140 190 235 274 329
#     4  11  20  35  57  84 114 150 185 237 290 333
#     4  10  18  33  56  80 108 147 190 232 278 329
#     4  12  18  35  59  84 110 149 192 236 280 332
#
# _framework density 17.263038999999999
#
# number of rings (size 3 to 8) (size 9 to 14) (size 15 to 20)
#    0.000    1.333    6.667    1.000    2.333    0.000 
#    0.000    0.833    0.000    0.000    0.000    0.000 
#    0.000    0.000    0.000    0.000    0.000    0.000 
#
# Total GULP energy -133814.116725 kJ/mol
# GULP energy per Si atom -5575.588197 kJ/mol
# Density = 1.722375 g / cm^3
# Si number density = 17.263039 Si / 1000 Ang^3
#
#
#
# Elastic Constant Matrix: (Units=GPa)
#
#
# Indices 1 2 3 4 5 6 
#
# 1 68.6664 34.9182 20.7883 0.0000 7.1196 0.0000
# 2 34.9182 53.0179 19.8132 0.0000 17.6600 0.0000
# 3 20.7883 19.8132 129.6205 0.0000 8.1708 0.0000
# 4 0.0000 0.0000 0.0000 21.2275 0.0000 8.9882
# 5 7.1196 17.6600 8.1708 0.0000 32.3130 0.0000
# 6 0.0000 0.0000 0.0000 8.9882 0.0000 26.4276
#
#
#
# Elastic Compliance Matrix: (Units=1/GPa)
#
#
# Indices 1 2 3 4 5 6 
#
# 1 0.022536 -0.015601 -0.001478 0.000000 0.003935 0.000000
# 2 -0.015601 0.034885 -0.001875 0.000000 -0.015154 0.000000
# 3 -0.001478 -0.001875 0.008285 0.000000 -0.000745 0.000000
# 4 0.000000 0.000000 0.000000 0.055034 0.000000 -0.018717
# 5 0.003935 -0.015154 -0.000745 0.000000 0.038551 0.000000
# 6 0.000000 0.000000 0.000000 -0.018717 0.000000 0.044205
#
#
# Mechanical properties :
#
#
# Convention : Reuss Voigt Hill
#
# Bulk Modulus (GPa) = 35.97221 44.70492 40.33857
# Shear Modulus (GPa) = 19.94660 27.71264 23.82962
#
# Velocity S-wave (km/s) = 3.40288 4.01099 3.71938
# Velocity P-wave (km/s) = 6.02681 6.88500 6.47015
#
# Compressibility (1/GPa) = 0.02779924
#
# Stress axis : x y z
#
# Youngs Moduli (GPa) = 44.37372 28.66572 120.69473
#
# Poissons Ratio (x) = 0.44721 0.17834
# Poissons Ratio (y) = 0.69226 0.22631
# Poissons Ratio (z) = 0.06557 0.05375
#
# Static dielectric constant tensor:
#      x y z
#    x 1.606680 0.000000 0.011940 
#    y 0.000000 1.582170 0.000000 
#    z 0.011940 0.000000 1.627600 
# 
# From -- ./inp_files/152034.got.cif
#   From: 2010.05.17/outbox.cif.g08.bks.cpg/sg15_77_cif.got.tgz:152034.got - 2010.06.03 18:47:42.
