data_PCOD9255951
_publ_section_title
;
Structure prediction by ZEFSAII (Michael W. Deem and Ramdas Pophale) SiO2 
 PCOD9255951
Probable space group: C 2/C
;
_chemical_formula_sum "Si O2"
_cell_formula_units_Z 52
_cell_length_a 15.345682
_cell_length_b 26.764022
_cell_length_c 5.662325
_cell_angle_alpha 90.000000
_cell_angle_beta 128.474239
_cell_angle_gamma 90.000000
_cell_volume 1820.673138
_symmetry_space_group_name_H-M "C 2/C"
_symmetry_group_IT_number 15
_symmetry_cell_setting 'monoclinic'
loop_
_space_group_symop_operation_xyz
x,y,z
-x,y,1/2-z
-x,-y,-z
x,-y,1/2+z
1/2+x,1/2+y,z
1/2-x,1/2+y,1/2-z
1/2-x,1/2-y,-z
1/2+x,1/2-y,1/2+z
loop_
_atom_site_type_symbol
_atom_site_label
_atom_site_fract_x
_atom_site_fract_y
_atom_site_fract_z
Si Si1 0.889576 0.108938 0.202727
Si Si2 0.775296 0.983820 0.451629
Si Si3 0.500000 0.542527 0.750000
Si Si4 0.648689 0.283435 0.716199
Si Si5 0.599379 0.183865 0.664856
Si Si6 0.710527 0.840320 0.858496
Si Si7 0.543328 0.917124 0.575711
O O1 0.787329 0.075858 0.942040
O O2 0.915983 0.083512 0.495533
O O3 0.874514 0.167324 0.172367
O O4 0.000000 0.095886 0.250000
O O5 0.725188 0.003849 0.122977
O O6 0.903495 0.006148 0.697123
O O7 0.555093 0.240605 0.576146
O O8 0.674227 0.310282 0.505864
O O9 0.750000 0.250000 0.000000
O O10 0.669555 0.179485 0.540245
O O11 0.516821 0.137340 0.515648
O O12 0.655756 0.174880 0.014166
O O13 0.673237 0.899178 0.796429
O O14 0.500000 0.941153 0.750000
O O15 0.500000 0.938154 0.250000
#
# Coordination Sequence:
#
# PCOD9255951 Si02
#       7
#     8   8   4   8   8   8   8
#     4  11  20  36  53  79 101 137 184 228 270 330
#     4  10  17  33  59  79 107 126 160 231 292 313
#     4  10  18  36  54  82 104 124 172 242 284 310
#     4  10  22  35  45  66 100 140 173 213 261 311
#     4   9  17  32  46  61  79 121 167 212 241 279
#     4   9  17  32  46  59  84 119 160 203 258 286
#     4   8  14  25  45  60  72 100 157 198 237 271
#
# _framework density 28.560863999999999
#
# number of rings (size 3 to 8) (size 9 to 14) (size 15 to 20)
#    0.000    2.462    2.308    1.385    0.000    3.077 
#   15.231    0.000    0.000    0.000    0.000    0.000 
#    0.000    0.000    0.000    0.000    0.000  387.692 
#
# Total GULP energy -144794.903718 kJ/mol
# GULP energy per Si atom -5569.034758 kJ/mol
# Density = 2.849586 g / cm^3
# Si number density = 28.560864 Si / 1000 Ang^3
#
#
#
# Elastic Constant Matrix: (Units=GPa)
#
#
# Indices 1 2 3 4 5 6 
#
# 1 83.5346 24.6802 38.2584 0.0000 -26.9886 0.0000
# 2 24.6802 175.5899 35.7247 0.0000 4.4145 0.0000
# 3 38.2584 35.7247 179.7953 0.0000 -34.7865 0.0000
# 4 0.0000 0.0000 0.0000 16.6980 0.0000 5.7840
# 5 -26.9886 4.4145 -34.7865 0.0000 50.5347 0.0000
# 6 0.0000 0.0000 0.0000 5.7840 0.0000 47.7765
#
#
#
# Elastic Compliance Matrix: (Units=1/GPa)
#
#
# Indices 1 2 3 4 5 6 
#
# 1 0.015705 -0.002100 -0.001461 0.000000 0.007565 0.000000
# 2 -0.002100 0.006321 -0.001307 0.000000 -0.002574 0.000000
# 3 -0.001461 -0.001307 0.006926 0.000000 0.004102 0.000000
# 4 0.000000 0.000000 0.000000 0.062509 0.000000 -0.007568
# 5 0.007565 -0.002574 0.004102 0.000000 0.026877 0.000000
# 6 0.000000 0.000000 0.000000 -0.007568 0.000000 0.021847
#
#
# Mechanical properties :
#
#
# Convention : Reuss Voigt Hill
#
# Bulk Modulus (GPa) = 52.04108 70.69403 61.36756
# Shear Modulus (GPa) = 31.98445 45.68560 38.83503
#
# Velocity S-wave (km/s) = 3.35008 4.00382 3.69145
# Velocity P-wave (km/s) = 5.76409 6.79558 6.30098
#
# Compressibility (1/GPa) = 0.01921559
#
# Stress axis : x y z
#
# Youngs Moduli (GPa) = 63.67438 158.20483 144.38392
#
# Poissons Ratio (x) = 0.33230 0.21091
# Poissons Ratio (y) = 0.13374 0.18870
# Poissons Ratio (z) = 0.09301 0.20676
#
# Static dielectric constant tensor:
#      x y z
#    x 3.261880 0.000000 -1.725410 
#    y 0.000000 2.280730 0.000000 
#    z -1.725410 0.000000 8.517080 
# 
# From -- ./inp_files/14180.got.cif
#   From: 2010.05.17/outbox.cif.g08.bks.cpg/sg15_8_cif.got.tgz:14180.got - 2010.06.03 18:47:42.
