data_PCOD9255232
_publ_section_title
;
Structure prediction by ZEFSAII (Michael W. Deem and Ramdas Pophale) SiO2 
 PCOD9255232
Probable space group: C 2/C
;
_chemical_formula_sum "Si O2"
_cell_formula_units_Z 60
_cell_length_a 16.988301
_cell_length_b 32.312463
_cell_length_c 6.594795
_cell_angle_alpha 90.000000
_cell_angle_beta 136.549119
_cell_angle_gamma 90.000000
_cell_volume 2489.664566
_symmetry_space_group_name_H-M "C 2/C"
_symmetry_group_IT_number 15
_symmetry_cell_setting 'monoclinic'
loop_
_space_group_symop_operation_xyz
x,y,z
-x,y,1/2-z
-x,-y,-z
x,-y,1/2+z
1/2+x,1/2+y,z
1/2-x,1/2+y,1/2-z
1/2-x,1/2-y,-z
1/2+x,1/2-y,1/2+z
loop_
_atom_site_type_symbol
_atom_site_label
_atom_site_fract_x
_atom_site_fract_y
_atom_site_fract_z
Si Si1 0.180626 0.652403 0.383478
Si Si2 0.847570 0.285730 0.335289
Si Si3 0.407017 0.597800 0.286020
Si Si4 0.500000 0.810998 0.250000
Si Si5 0.907130 0.005024 0.198635
Si Si6 0.409495 0.308107 0.701642
Si Si7 0.906568 0.204658 0.694485
Si Si8 0.170891 0.917816 0.420896
O O1 0.138458 0.671473 0.515954
O O2 0.292013 0.677914 0.513367
O O3 0.227282 0.606270 0.493445
O O4 0.087132 0.660958 0.038310
O O5 0.930185 0.284930 0.292205
O O6 0.715454 0.286689 0.021395
O O7 0.874098 0.251905 0.562431
O O8 0.376703 0.554063 0.124769
O O9 0.391767 0.641622 0.149318
O O10 0.457249 0.592848 0.903648
O O11 0.337637 0.598373 0.364518
O O12 0.941721 0.996054 0.015597
O O13 0.818346 0.967033 0.050327
O O14 0.443300 0.307070 0.016154
O O15 0.440404 0.296069 0.511949
#
# Coordination Sequence:
#
# PCOD9255232 Si02
#       8
#     8   8   8   4   8   8   8   8
#     4  12  25  45  73 101 140 187 241 299 359 420
#     4  12  28  50  70 105 136 188 243 304 359 423
#     4  10  18  33  59  94 146 185 222 269 353 439
#     4  12  28  50  74  96 138 186 254 300 352 422
#     4  10  17  29  51  91 140 184 214 264 337 435
#     4  12  24  43  72 105 140 184 234 294 361 437
#     4  12  25  45  70 100 140 181 232 297 364 420
#     4  10  18  34  57  94 140 180 221 276 343 421
#
# _framework density 24.099633000000001
#
# number of rings (size 3 to 8) (size 9 to 14) (size 15 to 20)
#    0.000    0.800    5.333    4.400    0.000    4.267 
#    1.200    2.000    0.000    0.000    0.000    3.733 
#    0.000    0.000    0.000    0.000    0.000    0.000 
#
# Total GULP energy -167696.380198 kJ/mol
# GULP energy per Si atom -5589.879340 kJ/mol
# Density = 2.404478 g / cm^3
# Si number density = 24.099633 Si / 1000 Ang^3
#
#
#
# Elastic Constant Matrix: (Units=GPa)
#
#
# Indices 1 2 3 4 5 6 
#
# 1 141.3707 59.7698 67.8019 0.0000 -17.3613 0.0000
# 2 59.7698 198.5983 50.6404 0.0000 -5.4762 0.0000
# 3 67.8019 50.6404 193.7022 0.0000 -3.9513 0.0000
# 4 0.0000 0.0000 0.0000 45.1499 0.0000 -4.7680
# 5 -17.3613 -5.4762 -3.9513 0.0000 63.2589 0.0000
# 6 0.0000 0.0000 0.0000 -4.7680 0.0000 44.2439
#
#
#
# Elastic Compliance Matrix: (Units=1/GPa)
#
#
# Indices 1 2 3 4 5 6 
#
# 1 0.009565 -0.002115 -0.002749 0.000000 0.002270 0.000000
# 2 -0.002115 0.005872 -0.000797 0.000000 -0.000122 0.000000
# 3 -0.002749 -0.000797 0.006324 0.000000 -0.000428 0.000000
# 4 0.000000 0.000000 0.000000 0.022403 0.000000 0.002414
# 5 0.002270 -0.000122 -0.000428 0.000000 0.016394 0.000000
# 6 0.000000 0.000000 0.000000 0.002414 0.000000 0.022862
#
#
# Mechanical properties :
#
#
# Convention : Reuss Voigt Hill
#
# Bulk Modulus (GPa) = 95.79537 98.89952 97.34744
# Shear Modulus (GPa) = 50.90488 54.22782 52.56635
#
# Velocity S-wave (km/s) = 4.60093 4.74872 4.67541
# Velocity P-wave (km/s) = 8.24989 8.43765 8.34430
#
# Compressibility (1/GPa) = 0.01043892
#
# Stress axis : x y z
#
# Youngs Moduli (GPa) = 104.54799 170.30616 158.11790
#
# Poissons Ratio (x) = 0.36022 0.43463
# Poissons Ratio (y) = 0.22114 0.12605
# Poissons Ratio (z) = 0.28738 0.13577
#
# Static dielectric constant tensor:
#      x y z
#    x 1.943420 0.000000 -0.076620 
#    y 0.000000 1.895170 0.000000 
#    z -0.076620 0.000000 2.044390 
# 
# From -- ./inp_files/12203.got.cif
#   From: 2010.05.17/outbox.cif.g08.bks.cpg/sg15_7_cif.got.tgz:12203.got - 2010.06.03 18:47:42.
