data_PCOD9255756
_publ_section_title
;
Structure prediction by ZEFSAII (Michael W. Deem and Ramdas Pophale) SiO2 
 PCOD9255756
Probable space group: C 2/C
;
_chemical_formula_sum "Si O2"
_cell_formula_units_Z 60
_cell_length_a 19.047879
_cell_length_b 10.970782
_cell_length_c 27.761440
_cell_angle_alpha 90.000000
_cell_angle_beta 154.853552
_cell_angle_gamma 90.000000
_cell_volume 2465.171100
_symmetry_space_group_name_H-M "C 2/C"
_symmetry_group_IT_number 15
_symmetry_cell_setting 'monoclinic'
loop_
_space_group_symop_operation_xyz
x,y,z
-x,y,1/2-z
-x,-y,-z
x,-y,1/2+z
1/2+x,1/2+y,z
1/2-x,1/2+y,1/2-z
1/2-x,1/2-y,-z
1/2+x,1/2-y,1/2+z
loop_
_atom_site_type_symbol
_atom_site_label
_atom_site_fract_x
_atom_site_fract_y
_atom_site_fract_z
Si Si1 0.082566 0.018389 0.852384
Si Si2 0.820834 0.314813 0.980237
Si Si3 0.000000 0.344805 0.250000
Si Si4 0.532998 0.773247 0.913172
Si Si5 0.694821 0.436860 0.249123
Si Si6 0.111523 0.633020 0.084004
Si Si7 0.630105 0.850148 0.231699
Si Si8 0.376001 0.810866 0.631375
O O1 0.108536 0.162631 0.861872
O O2 0.000000 0.978770 0.750000
O O3 0.969474 0.001738 0.829508
O O4 0.242575 0.936703 0.953572
O O5 0.661990 0.229255 0.870795
O O6 0.911121 0.340531 0.985734
O O7 0.971325 0.286139 0.108771
O O8 0.073558 0.405929 0.247612
O O9 0.366858 0.702666 0.792945
O O10 0.516679 0.844169 0.952750
O O11 0.578266 0.849677 0.894067
O O12 0.679492 0.674925 0.015361
O O13 0.820996 0.496635 0.365364
O O14 0.780299 0.445650 0.249396
O O15 0.246867 0.738120 0.180852
O O16 0.500000 0.850843 0.750000
#
# Coordination Sequence:
#
# PCOD9255756 Si02
#       8
#     8   8   4   8   8   8   8   8
#     4  10  17  32  56  91 120 144 183 253 311 348
#     4  11  20  35  63  92 117 151 200 252 319 350
#     4  10  20  40  56  80 126 158 200 246 290 366
#     4   9  20  36  55  87 122 160 195 247 312 368
#     4  10  20  37  57  86 125 153 197 248 304 358
#     4  10  21  37  59  89 128 148 198 262 304 359
#     4  10  23  37  61  90 115 164 200 245 302 366
#     4   9  19  34  59  82 118 160 200 249 304 359
#
# _framework density 24.339079999999999
#
# number of rings (size 3 to 8) (size 9 to 14) (size 15 to 20)
#    0.000    2.133    2.000    1.200    1.867    4.800 
#    0.000    0.000    1.467   18.400    0.000    0.000 
#    0.000    0.000    0.000    0.000    0.000    0.000 
#
# Total GULP energy -167098.588749 kJ/mol
# GULP energy per Si atom -5569.952958 kJ/mol
# Density = 2.428368 g / cm^3
# Si number density = 24.339080 Si / 1000 Ang^3
#
#
#
# Elastic Constant Matrix: (Units=GPa)
#
#
# Indices 1 2 3 4 5 6 
#
# 1 198.4729 28.0872 44.4019 0.0002 -13.8646 -0.0006
# 2 28.0872 38.7090 3.1955 0.0005 -4.7522 0.0002
# 3 44.4019 3.1955 79.4233 -0.0010 -16.2278 -0.0011
# 4 0.0002 0.0005 -0.0010 29.0009 0.0011 -2.2983
# 5 -13.8646 -4.7522 -16.2278 0.0011 35.9613 -0.0003
# 6 -0.0006 0.0002 -0.0011 -2.2983 -0.0003 12.1970
#
#
#
# Elastic Compliance Matrix: (Units=1/GPa)
#
#
# Indices 1 2 3 4 5 6 
#
# 1 0.006427 -0.004339 -0.003337 0.000000 0.000399 0.000000
# 2 -0.004339 0.029200 0.001870 -0.000001 0.003030 0.000000
# 3 -0.003337 0.001870 0.015608 0.000000 0.006004 0.000001
# 4 0.000000 -0.000001 0.000000 0.035004 -0.000001 0.006596
# 5 0.000399 0.003030 0.006004 -0.000001 0.031071 0.000001
# 6 0.000000 0.000000 0.000001 0.006596 0.000001 0.083230
#
#
# Mechanical properties :
#
#
# Convention : Reuss Voigt Hill
#
# Bulk Modulus (GPa) = 25.23832 51.99716 38.61774
# Shear Modulus (GPa) = 22.18679 31.49321 26.84000
#
# Velocity S-wave (km/s) = 3.02250 3.60103 3.32438
# Velocity P-wave (km/s) = 4.75107 6.22093 5.53501
#
# Compressibility (1/GPa) = 0.03962229
#
# Stress axis : x y z
#
# Youngs Moduli (GPa) = 155.59647 34.24697 64.07078
#
# Poissons Ratio (x) = 0.14859 0.21380
# Poissons Ratio (y) = 0.67512 -0.11980
# Poissons Ratio (z) = 0.51922 -0.06404
#
# Static dielectric constant tensor:
#      x y z
#    x 1.983770 0.000000 0.063060 
#    y 0.000000 1.949520 0.000000 
#    z 0.063060 0.000000 2.071050 
# 
# From -- ./inp_files/299105.got.cif
#   From: 2010.05.17/outbox.cif.g08.bks.cpg/sg15_150_cif.got.tgz:299105.got - 2010.06.03 18:47:42.
