data_PCOD9255792
_publ_section_title
;
Structure prediction by ZEFSAII (Michael W. Deem and Ramdas Pophale) SiO2 
 PCOD9255792
Probable space group: C 2/C
;
_chemical_formula_sum "Si O2"
_cell_formula_units_Z 60
_cell_length_a 12.018900
_cell_length_b 15.359372
_cell_length_c 18.574942
_cell_angle_alpha 90.000000
_cell_angle_beta 115.872679
_cell_angle_gamma 90.000000
_cell_volume 3085.284426
_symmetry_space_group_name_H-M "C 2/C"
_symmetry_group_IT_number 15
_symmetry_cell_setting 'monoclinic'
loop_
_space_group_symop_operation_xyz
x,y,z
-x,y,1/2-z
-x,-y,-z
x,-y,1/2+z
1/2+x,1/2+y,z
1/2-x,1/2+y,1/2-z
1/2-x,1/2-y,-z
1/2+x,1/2-y,1/2+z
loop_
_atom_site_type_symbol
_atom_site_label
_atom_site_fract_x
_atom_site_fract_y
_atom_site_fract_z
Si Si1 0.075730 0.594502 0.428904
Si Si2 0.919291 0.277906 0.797401
Si Si3 0.571394 0.048796 0.696754
Si Si4 0.153654 0.858695 0.554041
Si Si5 0.213027 0.094829 0.220350
Si Si6 0.169664 0.659116 0.598194
Si Si7 0.500000 0.461363 0.750000
Si Si8 0.944728 0.887143 0.127718
O O1 0.203712 0.625765 0.428691
O O2 0.105382 0.594970 0.521550
O O3 0.974769 0.667123 0.379238
O O4 0.025696 0.506471 0.379241
O O5 0.784539 0.313332 0.742759
O O6 0.000000 0.302133 0.750000
O O7 0.944103 0.177784 0.820686
O O8 0.500000 0.073207 0.750000
O O9 0.626764 0.126480 0.664083
O O10 0.683790 0.981204 0.745798
O O11 0.140016 0.909634 0.624684
O O12 0.133350 0.756698 0.564746
O O13 0.074748 0.888658 0.463250
O O14 0.120101 0.090331 0.260200
O O15 0.317165 0.651192 0.625848
O O16 0.532611 0.522990 0.826342
#
# Coordination Sequence:
#
# PCOD9255792 Si02
#       8
#     8   8   8   8   8   8   4   8
#     4  10  17  32  58  93 124 152 201 254 306 344
#     4  11  17  34  63  94 114 155 199 258 298 356
#     4  11  21  37  58  93 127 169 197 251 308 368
#     4  11  20  38  60  88 123 163 200 255 305 360
#     4  11  23  39  60  85 127 162 204 247 314 364
#     4  11  20  34  59  97 123 155 205 263 294 362
#     4  12  26  42  60  92 122 162 206 254 308 370
#     4  11  21  36  63  90 118 152 213 255 301 351
#
# _framework density 19.447154999999999
#
# number of rings (size 3 to 8) (size 9 to 14) (size 15 to 20)
#    0.000    1.067    7.333    2.000    0.000    0.533 
#    1.200    0.000    0.000    0.800    0.000    0.000 
#    0.000    0.000    0.000    0.000    0.000    0.000 
#
# Total GULP energy -167548.427755 kJ/mol
# GULP energy per Si atom -5584.947592 kJ/mol
# Density = 1.940289 g / cm^3
# Si number density = 19.447155 Si / 1000 Ang^3
#
#
#
# Elastic Constant Matrix: (Units=GPa)
#
#
# Indices 1 2 3 4 5 6 
#
# 1 78.0817 37.7326 39.8796 0.0000 -19.0864 0.0000
# 2 37.7326 55.1248 41.8910 0.0000 -10.4076 0.0000
# 3 39.8796 41.8910 123.6094 0.0000 -4.3192 0.0000
# 4 0.0000 0.0000 0.0000 10.0422 0.0000 -4.2464
# 5 -19.0864 -10.4076 -4.3192 0.0000 27.0689 0.0000
# 6 0.0000 0.0000 0.0000 -4.2464 0.0000 18.2757
#
#
#
# Elastic Compliance Matrix: (Units=1/GPa)
#
#
# Indices 1 2 3 4 5 6 
#
# 1 0.022359 -0.010803 -0.003164 0.000000 0.011107 0.000000
# 2 -0.010803 0.031565 -0.007094 0.000000 0.003387 0.000000
# 3 -0.003164 -0.007094 0.011405 0.000000 -0.003139 0.000000
# 4 0.000000 0.000000 0.000000 0.110430 0.000000 0.025659
# 5 0.011107 0.003387 -0.003139 0.000000 0.045576 0.000000
# 6 0.000000 0.000000 0.000000 0.025659 0.000000 0.060679
#
#
# Mechanical properties :
#
#
# Convention : Reuss Voigt Hill
#
# Bulk Modulus (GPa) = 43.08949 55.09136 49.09042
# Shear Modulus (GPa) = 15.06606 20.23155 17.64880
#
# Velocity S-wave (km/s) = 2.78639 3.22892 3.01579
# Velocity P-wave (km/s) = 5.70590 6.50319 6.11755
#
# Compressibility (1/GPa) = 0.02320752
#
# Stress axis : x y z
#
# Youngs Moduli (GPa) = 44.72565 31.68024 87.67829
#
# Poissons Ratio (x) = 0.34223 0.27744
# Poissons Ratio (y) = 0.48316 0.62198
# Poissons Ratio (z) = 0.14153 0.22474
#
# Static dielectric constant tensor:
#      x y z
#    x 1.675110 0.000000 -0.000900 
#    y 0.000000 1.692930 0.000000 
#    z -0.000900 0.000000 1.730940 
# 
# From -- ./inp_files/146129.got.cif
#   From: 2010.05.17/outbox.cif.g08.bks.cpg/sg15_74_cif.got.tgz:146129.got - 2010.06.03 18:47:42.
