data_PCOD9255618
_publ_section_title
;
Structure prediction by ZEFSAII (Michael W. Deem and Ramdas Pophale) SiO2 
 PCOD9255618
Probable space group: C 2/C
;
_chemical_formula_sum "Si O2"
_cell_formula_units_Z 64
_cell_length_a 22.771933
_cell_length_b 20.243534
_cell_length_c 21.316946
_cell_angle_alpha 90.000000
_cell_angle_beta 154.395697
_cell_angle_gamma 90.000000
_cell_volume 4246.676950
_symmetry_space_group_name_H-M "C 2/C"
_symmetry_group_IT_number 15
_symmetry_cell_setting 'monoclinic'
loop_
_space_group_symop_operation_xyz
x,y,z
-x,y,1/2-z
-x,-y,-z
x,-y,1/2+z
1/2+x,1/2+y,z
1/2-x,1/2+y,1/2-z
1/2-x,1/2-y,-z
1/2+x,1/2-y,1/2+z
loop_
_atom_site_type_symbol
_atom_site_label
_atom_site_fract_x
_atom_site_fract_y
_atom_site_fract_z
Si Si1 0.209233 0.539864 0.703751
Si Si2 0.552149 0.083093 0.117129
Si Si3 0.996914 0.505665 0.672685
Si Si4 0.994231 0.861493 0.670499
Si Si5 0.184394 0.321014 0.659935
Si Si6 0.731445 0.446094 0.844153
Si Si7 0.281828 0.889404 0.164082
Si Si8 0.071328 0.256067 0.151687
O O1 0.130399 0.479315 0.661502
O O2 0.296066 0.504304 0.733154
O O3 0.271596 0.581508 0.820588
O O4 0.093511 0.583596 0.558223
O O5 0.634819 0.147757 0.177537
O O6 0.531762 0.061901 0.169065
O O7 0.850657 0.529177 0.505076
O O8 0.000000 0.499111 0.750000
O O9 0.107330 0.560265 0.757383
O O10 0.843580 0.880016 0.502996
O O11 0.000000 0.850213 0.750000
O O12 0.099725 0.919072 0.752527
O O13 0.037100 0.796103 0.673362
O O14 0.208717 0.383803 0.637267
O O15 0.322318 0.279663 0.792135
O O16 0.064871 0.277758 0.514672
O O17 0.356459 0.820575 0.250322
#
# Coordination Sequence:
#
# PCOD9255618 Si02
#       8
#     8   8   8   8   8   8   8   8
#     4   8  14  27  50  68  84 112 152 190 234 261
#     4   8  14  27  47  68  91 112 141 195 233 258
#     4  10  18  29  50  73  90 118 153 180 222 279
#     4  11  24  34  41  62  99 132 154 180 219 263
#     4  10  17  32  47  67  91 117 154 194 227 253
#     4   9  18  33  48  66  92 121 149 191 229 261
#     4  11  19  31  48  67  91 120 154 193 220 266
#     4  11  20  31  47  66  88 123 161 188 216 257
#
# _framework density 15.070607000000001
#
# number of rings (size 3 to 8) (size 9 to 14) (size 15 to 20)
#    0.000    2.250    3.750    2.250    0.000    1.500 
#    0.000    0.000    0.000    0.000    0.000    0.875 
#    0.000    0.000    0.000    0.000    0.000    0.000 
#
# Total GULP energy -178263.343490 kJ/mol
# GULP energy per Si atom -5570.729484 kJ/mol
# Density = 1.503631 g / cm^3
# Si number density = 15.070607 Si / 1000 Ang^3
#
#
#
# Elastic Constant Matrix: (Units=GPa)
#
#
# Indices 1 2 3 4 5 6 
#
# 1 58.5168 25.8000 7.0076 -0.0015 -10.1784 -0.0021
# 2 25.8000 33.9891 15.4106 -0.0020 -6.0411 -0.0019
# 3 7.0076 15.4106 45.3703 -0.0025 -4.6878 -0.0023
# 4 -0.0015 -0.0020 -0.0025 5.7288 -0.0011 -2.2076
# 5 -10.1784 -6.0411 -4.6878 -0.0011 23.6421 -0.0011
# 6 -0.0021 -0.0019 -0.0023 -2.2076 -0.0011 16.1353
#
#
#
# Elastic Compliance Matrix: (Units=1/GPa)
#
#
# Indices 1 2 3 4 5 6 
#
# 1 0.027140 -0.021015 0.003674 0.000004 0.007043 0.000003
# 2 -0.021015 0.052114 -0.014308 0.000008 0.001432 0.000002
# 3 0.003674 -0.014308 0.026665 0.000010 0.003213 0.000004
# 4 0.000004 0.000008 0.000010 0.184271 0.000016 0.025212
# 5 0.007043 0.001432 0.003213 0.000016 0.046333 0.000007
# 6 0.000003 0.000002 0.000004 0.025212 0.000007 0.065425
#
#
# Mechanical properties :
#
#
# Convention : Reuss Voigt Hill
#
# Bulk Modulus (GPa) = 23.46195 26.03473 24.74834
# Shear Modulus (GPa) = 10.42858 15.07846 12.75352
#
# Velocity S-wave (km/s) = 2.63341 3.16653 2.91220
# Velocity P-wave (km/s) = 4.98480 5.53913 5.26926
#
# Compressibility (1/GPa) = 0.04262221
#
# Stress axis : x y z
#
# Youngs Moduli (GPa) = 36.84661 19.18860 37.50221
#
# Poissons Ratio (x) = 0.40324 -0.13778
# Poissons Ratio (y) = 0.77432 0.53656
# Poissons Ratio (z) = -0.13537 0.27454
#
# Static dielectric constant tensor:
#      x y z
#    x 1.512860 0.000000 0.012820 
#    y 0.000000 1.499870 0.000000 
#    z 0.012820 0.000000 1.485230 
# 
# From -- ./inp_files/57519.got.cif
#   From: 2010.05.17/outbox.cif.g08.bks.cpg/sg15_29_cif.got.tgz:57519.got - 2010.06.03 18:47:42.
