data_PCOD9255751
_publ_section_title
;
Structure prediction by ZEFSAII (Michael W. Deem and Ramdas Pophale) SiO2 
 PCOD9255751
Probable space group: C 2/C
;
_chemical_formula_sum "Si O2"
_cell_formula_units_Z 48
_cell_length_a 18.773912
_cell_length_b 8.342383
_cell_length_c 16.995939
_cell_angle_alpha 90.000000
_cell_angle_beta 44.720222
_cell_angle_gamma 90.000000
_cell_volume 1873.026830
_symmetry_space_group_name_H-M "C 2/C"
_symmetry_group_IT_number 15
_symmetry_cell_setting 'monoclinic'
loop_
_space_group_symop_operation_xyz
x,y,z
-x,y,1/2-z
-x,-y,-z
x,-y,1/2+z
1/2+x,1/2+y,z
1/2-x,1/2+y,1/2-z
1/2-x,1/2-y,-z
1/2+x,1/2-y,1/2+z
loop_
_atom_site_type_symbol
_atom_site_label
_atom_site_fract_x
_atom_site_fract_y
_atom_site_fract_z
Si Si1 0.176827 0.503522 0.928059
Si Si2 0.727706 0.919991 0.055268
Si Si3 0.681894 0.360532 0.902797
Si Si4 0.550893 0.154557 0.795283
Si Si5 0.094357 0.994072 0.818845
Si Si6 0.407202 0.841776 0.651736
O O1 0.141263 0.680084 0.930597
O O2 0.298188 0.493787 0.812854
O O3 0.122184 0.370536 0.916697
O O4 0.169069 0.498295 0.028259
O O5 0.668654 0.867292 0.179980
O O6 0.809791 0.047499 0.020919
O O7 0.750000 0.750000 0.000000
O O8 0.623495 0.467076 0.886425
O O9 0.796982 0.340648 0.780564
O O10 0.500000 0.139777 0.750000
O O11 0.534689 0.334657 0.838890
O O12 0.535417 0.000646 0.862870
O O13 0.047202 0.171853 0.855791
#
# Coordination Sequence:
#
# PCOD9255751 Si02
#       6
#     8   8   8   8   8   8
#     4  10  17  32  56  86 113 135 181 238 277 313
#     4  11  20  33  55  87 112 139 182 234 278 312
#     4   9  18  30  55  86 113 138 181 230 276 322
#     4  11  23  39  55  79 114 150 184 220 273 338
#     4  10  18  34  57  82 107 148 185 224 272 323
#     4   9  19  33  57  82 109 146 186 222 269 331
#
# _framework density 25.626968000000002
#
# number of rings (size 3 to 8) (size 9 to 14) (size 15 to 20)
#    0.000    2.000    3.333    1.500    4.667    0.667 
#    0.000    0.833    0.000    2.000    0.000    0.000 
#    0.000    0.000    0.000    0.000    0.000    0.000 
#
# Total GULP energy -134061.934852 kJ/mol
# GULP energy per Si atom -5585.913952 kJ/mol
# Density = 2.556864 g / cm^3
# Si number density = 25.626968 Si / 1000 Ang^3
#
#
#
# Elastic Constant Matrix: (Units=GPa)
#
#
# Indices 1 2 3 4 5 6 
#
# 1 64.4323 37.5539 17.1569 -0.0001 23.5477 0.0002
# 2 37.5539 203.7411 45.7724 -0.0002 11.4382 0.0007
# 3 17.1569 45.7724 76.8932 0.0000 8.2824 0.0001
# 4 -0.0001 -0.0002 0.0000 36.3529 0.0000 9.6401
# 5 23.5477 11.4382 8.2824 0.0000 45.8857 -0.0001
# 6 0.0002 0.0007 0.0001 9.6401 -0.0001 30.8530
#
#
#
# Elastic Compliance Matrix: (Units=1/GPa)
#
#
# Indices 1 2 3 4 5 6 
#
# 1 0.021367 -0.002946 -0.001950 0.000000 -0.009879 0.000000
# 2 -0.002946 0.006102 -0.003033 0.000000 0.000538 0.000000
# 3 -0.001950 -0.003033 0.015355 0.000000 -0.001015 0.000000
# 4 0.000000 0.000000 0.000000 0.029993 0.000000 -0.009371
# 5 -0.009879 0.000538 -0.001015 0.000000 0.026912 0.000000
# 6 0.000000 0.000000 0.000000 -0.009371 0.000000 0.035340
#
#
# Mechanical properties :
#
#
# Convention : Reuss Voigt Hill
#
# Bulk Modulus (GPa) = 37.08325 60.67033 48.87679
# Shear Modulus (GPa) = 31.26650 38.92388 35.09519
#
# Velocity S-wave (km/s) = 3.49673 3.90149 3.70464
# Velocity P-wave (km/s) = 5.55019 6.63485 6.11661
#
# Compressibility (1/GPa) = 0.02696635
#
# Stress axis : x y z
#
# Youngs Moduli (GPa) = 46.80210 163.87017 65.12506
#
# Poissons Ratio (x) = 0.48271 0.12699
# Poissons Ratio (y) = 0.13786 0.19754
# Poissons Ratio (z) = 0.09126 0.49706
#
# Static dielectric constant tensor:
#      x y z
#    x 2.080410 0.000000 -0.169330 
#    y 0.000000 -1.484340 0.000000 
#    z -0.169330 0.000000 2.588440 
# 
# From -- ./inp_files/166110.got.cif
#   From: 2010.05.17/outbox.cif.g08.bks.cpg/sg15_84_cif.got.tgz:166110.got - 2010.06.03 18:47:42.
