data_PCOD9255873
_publ_section_title
;
Structure prediction by ZEFSAII (Michael W. Deem and Ramdas Pophale) SiO2 
 PCOD9255873
Probable space group: C 2/C
;
_chemical_formula_sum "Si O2"
_cell_formula_units_Z 60
_cell_length_a 28.209151
_cell_length_b 20.655249
_cell_length_c 12.698007
_cell_angle_alpha 90.000000
_cell_angle_beta 28.081866
_cell_angle_gamma 90.000000
_cell_volume 3482.814545
_symmetry_space_group_name_H-M "C 2/C"
_symmetry_group_IT_number 15
_symmetry_cell_setting 'monoclinic'
loop_
_space_group_symop_operation_xyz
x,y,z
-x,y,1/2-z
-x,-y,-z
x,-y,1/2+z
1/2+x,1/2+y,z
1/2-x,1/2+y,1/2-z
1/2-x,1/2-y,-z
1/2+x,1/2-y,1/2+z
loop_
_atom_site_type_symbol
_atom_site_label
_atom_site_fract_x
_atom_site_fract_y
_atom_site_fract_z
Si Si1 0.133452 0.291498 0.389261
Si Si2 0.111140 0.971322 0.806121
Si Si3 0.242253 0.910877 0.130087
Si Si4 0.945281 0.154318 0.970856
Si Si5 0.092122 0.323686 0.714287
Si Si6 0.689646 0.614746 0.962864
Si Si7 0.901739 0.792851 0.152921
Si Si8 0.500000 0.305738 0.750000
O O1 0.132247 0.214485 0.372843
O O2 0.124206 0.301683 0.533564
O O3 0.229818 0.330717 0.160747
O O4 0.029049 0.319668 0.546598
O O5 0.157395 0.934734 0.615254
O O6 0.185474 0.028909 0.691697
O O7 0.099330 0.916067 0.918558
O O8 0.000000 0.000000 0.000000
O O9 0.236392 0.918412 0.267611
O O10 0.180050 0.845837 0.221068
O O11 0.355322 0.892948 0.873510
O O12 0.000000 0.156931 0.750000
O O13 0.023331 0.170402 0.912555
O O14 0.131495 0.270602 0.719379
O O15 0.588529 0.649832 0.122388
O O16 0.956094 0.770497 0.938449
#
# Coordination Sequence:
#
# PCOD9255873 Si02
#       8
#     8   8   8   8   8   8   8   4
#     4   9  18  35  60  81 107 140 190 235 276 322
#     4  12  23  35  51  81 118 148 178 227 280 342
#     4  10  21  33  56  78 110 152 184 221 281 336
#     4  11  20  35  58  85 111 142 185 238 275 323
#     4   9  17  35  56  83 104 141 190 235 271 320
#     4  10  21  37  54  81 111 150 184 224 282 341
#     4  10  17  33  54  80 111 141 184 230 274 326
#     4  10  18  34  50  82 112 144 174 222 292 336
#
# _framework density 17.227447000000002
#
# number of rings (size 3 to 8) (size 9 to 14) (size 15 to 20)
#    0.000    1.867    5.333    1.200    1.867    0.533 
#    0.000    0.667    0.000    0.000    0.000    0.000 
#    0.000    0.000    0.000    0.000    0.000    0.000 
#
# Total GULP energy -167182.066530 kJ/mol
# GULP energy per Si atom -5572.735551 kJ/mol
# Density = 1.718824 g / cm^3
# Si number density = 17.227447 Si / 1000 Ang^3
#
#
#
# Elastic Constant Matrix: (Units=GPa)
#
#
# Indices 1 2 3 4 5 6 
#
# 1 66.1560 43.3471 37.4613 0.0000 4.7750 0.0000
# 2 43.3471 117.8636 62.1710 0.0000 -10.4590 0.0000
# 3 37.4613 62.1710 80.5756 0.0000 0.9958 0.0000
# 4 0.0000 0.0000 0.0000 31.2191 0.0000 0.1630
# 5 4.7750 -10.4590 0.9958 0.0000 30.8131 0.0000
# 6 0.0000 0.0000 0.0000 0.1630 0.0000 20.7030
#
#
#
# Elastic Compliance Matrix: (Units=1/GPa)
#
#
# Indices 1 2 3 4 5 6 
#
# 1 0.022605 -0.005501 -0.006201 0.000000 -0.005170 0.000000
# 2 -0.005501 0.016536 -0.010285 0.000000 0.006798 0.000000
# 3 -0.006201 -0.010285 0.023270 0.000000 -0.003282 0.000000
# 4 0.000000 0.000000 0.000000 0.032033 0.000000 -0.000252
# 5 -0.005170 0.006798 -0.003282 0.000000 0.035668 0.000000
# 6 0.000000 0.000000 0.000000 -0.000252 0.000000 0.048304
#
#
# Mechanical properties :
#
#
# Convention : Reuss Voigt Hill
#
# Bulk Modulus (GPa) = 54.24141 61.17268 57.70705
# Shear Modulus (GPa) = 21.87825 24.65477 23.26651
#
# Velocity S-wave (km/s) = 3.56752 3.78714 3.67897
# Velocity P-wave (km/s) = 6.96588 7.39656 7.18445
#
# Compressibility (1/GPa) = 0.01843610
#
# Stress axis : x y z
#
# Youngs Moduli (GPa) = 44.23832 60.47304 42.97337
#
# Poissons Ratio (x) = 0.33269 0.26647
# Poissons Ratio (y) = 0.24337 0.44200
# Poissons Ratio (z) = 0.27431 0.62199
#
# Static dielectric constant tensor:
#      x y z
#    x 1.606860 0.000000 -0.008350 
#    y 0.000000 1.578880 0.000000 
#    z -0.008350 0.000000 1.627100 
# 
# From -- ./inp_files/127212.got.cif
#   From: 2010.05.17/outbox.cif.g08.bks.cpg/sg15_64_cif.got.tgz:127212.got - 2010.06.03 18:47:42.
