data_PCOD9255700
_publ_section_title
;
Structure prediction by ZEFSAII (Michael W. Deem and Ramdas Pophale) SiO2 
 PCOD9255700
Probable space group: C 2/C
;
_chemical_formula_sum "Si O2"
_cell_formula_units_Z 40
_cell_length_a 9.985285
_cell_length_b 18.452851
_cell_length_c 8.614465
_cell_angle_alpha 90.000000
_cell_angle_beta 92.631508
_cell_angle_gamma 90.000000
_cell_volume 1585.601448
_symmetry_space_group_name_H-M "C 2/C"
_symmetry_group_IT_number 15
_symmetry_cell_setting 'monoclinic'
loop_
_space_group_symop_operation_xyz
x,y,z
-x,y,1/2-z
-x,-y,-z
x,-y,1/2+z
1/2+x,1/2+y,z
1/2-x,1/2+y,1/2-z
1/2-x,1/2-y,-z
1/2+x,1/2-y,1/2+z
loop_
_atom_site_type_symbol
_atom_site_label
_atom_site_fract_x
_atom_site_fract_y
_atom_site_fract_z
Si Si1 0.303341 0.585292 0.817034
Si Si2 0.145550 0.058352 0.023851
Si Si3 0.738397 0.260044 0.247316
Si Si4 0.000000 0.165620 0.250000
Si Si5 0.378900 0.843535 0.535206
Si Si6 0.000000 0.601046 0.750000
O O1 0.357932 0.526355 0.938814
O O2 0.375911 0.572314 0.657656
O O3 0.308850 0.671339 0.857373
O O4 0.146549 0.566276 0.768468
O O5 0.055573 0.112727 0.119861
O O6 0.298372 0.083858 0.071097
O O7 0.871608 0.216515 0.202423
O O8 0.629802 0.204312 0.309847
O O9 0.785511 0.302782 0.404193
O O10 0.499317 0.859567 0.422004
#
# Coordination Sequence:
#
# PCOD9255700 Si02
#       6
#     8   8   8   4   8   4
#     4  10  19  31  48  77 106 130 165 209 253 298
#     4   9  20  32  48  75 106 132 164 208 253 301
#     4   8  14  26  47  72  94 121 168 213 235 279
#     4  10  17  32  54  74  97 134 174 208 247 292
#     4   8  14  25  43  69  94 119 160 204 239 279
#     4   8  15  26  46  68  97 126 160 208 255 284
#
# _framework density 25.227018999999999
#
# number of rings (size 3 to 8) (size 9 to 14) (size 15 to 20)
#    0.000    3.600    0.000    3.600    0.000    4.000 
#    0.000    0.000    0.000    4.800    0.000   16.800 
#    0.000    0.000    0.000    0.000    0.000    0.000 
#
# Total GULP energy -111348.943850 kJ/mol
# GULP energy per Si atom -5567.447193 kJ/mol
# Density = 2.516960 g / cm^3
# Si number density = 25.227019 Si / 1000 Ang^3
#
#
#
# Elastic Constant Matrix: (Units=GPa)
#
#
# Indices 1 2 3 4 5 6 
#
# 1 89.2928 58.9768 63.0818 0.0000 -16.4166 0.0000
# 2 58.9768 178.3529 83.6208 0.0000 -11.8966 0.0000
# 3 63.0818 83.6208 128.9548 0.0000 -39.1362 0.0000
# 4 0.0000 0.0000 0.0000 112.2409 0.0000 0.8194
# 5 -16.4166 -11.8966 -39.1362 0.0000 32.9152 0.0000
# 6 0.0000 0.0000 0.0000 0.8194 0.0000 24.2914
#
#
#
# Elastic Compliance Matrix: (Units=1/GPa)
#
#
# Indices 1 2 3 4 5 6 
#
# 1 0.017930 -0.002534 -0.007340 0.000000 -0.000701 0.000000
# 2 -0.002534 0.009017 -0.006261 0.000000 -0.005450 0.000000
# 3 -0.007340 -0.006261 0.021290 0.000000 0.019390 0.000000
# 4 0.000000 0.000000 0.000000 0.008912 0.000000 -0.000301
# 5 -0.000701 -0.005450 0.019390 0.000000 0.051116 0.000000
# 6 0.000000 0.000000 0.000000 -0.000301 0.000000 0.041177
#
#
# Mechanical properties :
#
#
# Convention : Reuss Voigt Hill
#
# Bulk Modulus (GPa) = 62.63588 89.77326 76.20457
# Shear Modulus (GPa) = 26.73307 46.61759 36.67533
#
# Velocity S-wave (km/s) = 3.25883 4.30341 3.81702
# Velocity P-wave (km/s) = 6.24842 7.76890 7.04978
#
# Compressibility (1/GPa) = 0.01596529
#
# Stress axis : x y z
#
# Youngs Moduli (GPa) = 55.77382 110.90246 46.97050
#
# Poissons Ratio (x) = 0.28105 0.34477
# Poissons Ratio (y) = 0.14134 0.29409
# Poissons Ratio (z) = 0.40939 0.69439
#
# Static dielectric constant tensor:
#      x y z
#    x 2.041840 0.000000 -0.053560 
#    y 0.000000 2.075370 0.000000 
#    z -0.053560 0.000000 2.064900 
# 
# From -- ./inp_files/144586.got.cif
#   From: 2010.05.17/outbox.cif.g08.bks.cpg/sg15_73_cif.got.tgz:144586.got - 2010.06.03 18:47:42.
