data_PCOD9255955
_publ_section_title
;
Structure prediction by ZEFSAII (Michael W. Deem and Ramdas Pophale) SiO2 
 PCOD9255955
Probable space group: C 2/C
;
_chemical_formula_sum "Si O2"
_cell_formula_units_Z 52
_cell_length_a 9.688121
_cell_length_b 19.318461
_cell_length_c 23.631573
_cell_angle_alpha 90.000000
_cell_angle_beta 145.617937
_cell_angle_gamma 90.000000
_cell_volume 2497.636100
_symmetry_space_group_name_H-M "C 2/C"
_symmetry_group_IT_number 15
_symmetry_cell_setting 'monoclinic'
loop_
_space_group_symop_operation_xyz
x,y,z
-x,y,1/2-z
-x,-y,-z
x,-y,1/2+z
1/2+x,1/2+y,z
1/2-x,1/2+y,1/2-z
1/2-x,1/2-y,-z
1/2+x,1/2-y,1/2+z
loop_
_atom_site_type_symbol
_atom_site_label
_atom_site_fract_x
_atom_site_fract_y
_atom_site_fract_z
Si Si1 0.184179 0.641448 0.501006
Si Si2 0.048675 0.858313 0.935297
Si Si3 0.500000 0.814567 0.750000
Si Si4 0.419169 0.223594 0.622751
Si Si5 0.403904 0.748544 0.839721
Si Si6 0.884058 0.512000 0.523816
Si Si7 0.284347 0.875433 0.355814
O O1 0.431410 0.686333 0.580431
O O2 0.189901 0.563484 0.479433
O O3 0.154811 0.633689 0.558149
O O4 0.967527 0.685576 0.399903
O O5 0.165603 0.931861 0.957109
O O6 0.755051 0.856800 0.839143
O O7 0.121179 0.801779 0.911736
O O8 0.175480 0.823609 0.034609
O O9 0.489525 0.770640 0.805029
O O10 0.621214 0.228128 0.740072
O O11 0.584439 0.186340 0.631136
O O12 0.000000 0.500000 0.500000
O O13 0.103222 0.552628 0.628898
O O14 0.000000 0.875802 0.250000
#
# Coordination Sequence:
#
# PCOD9255955 Si02
#       7
#     8   8   4   8   8   8   8
#     4  10  19  33  54  85 121 149 195 250 302 353
#     4   9  18  33  58  85 112 150 204 244 286 364
#     4  10  20  38  62  84 112 162 210 246 298 360
#     4   9  17  32  56  86 110 149 200 242 287 355
#     4  10  19  33  58  83 111 156 202 250 292 350
#     4   9  20  36  54  85 124 149 184 251 308 359
#     4  10  17  33  59  84 114 158 194 234 310 365
#
# _framework density 20.819686999999998
#
# number of rings (size 3 to 8) (size 9 to 14) (size 15 to 20)
#    0.000    2.462    1.538    1.846    1.077    1.231 
#   11.077    0.769    0.000   12.000    0.000    0.000 
#    0.000    0.000    0.000    0.000    0.000    0.000 
#
# Total GULP energy -144778.796309 kJ/mol
# GULP energy per Si atom -5568.415243 kJ/mol
# Density = 2.077230 g / cm^3
# Si number density = 20.819687 Si / 1000 Ang^3
#
#
#
# Elastic Constant Matrix: (Units=GPa)
#
#
# Indices 1 2 3 4 5 6 
#
# 1 75.8998 27.3079 34.0026 0.0001 9.8874 0.0001
# 2 27.3079 170.0833 52.8350 0.0003 15.4842 0.0003
# 3 34.0026 52.8350 151.3434 -0.0001 32.6220 -0.0001
# 4 0.0001 0.0003 -0.0001 7.6444 0.0002 10.6263
# 5 9.8874 15.4842 32.6220 0.0002 38.2022 0.0001
# 6 0.0001 0.0003 -0.0001 10.6263 0.0001 45.0013
#
#
#
# Elastic Compliance Matrix: (Units=1/GPa)
#
#
# Indices 1 2 3 4 5 6 
#
# 1 0.015028 -0.001502 -0.002629 0.000000 -0.001036 0.000000
# 2 -0.001502 0.006768 -0.001860 0.000000 -0.000766 0.000000
# 3 -0.002629 -0.001860 0.009239 0.000001 -0.006455 0.000000
# 4 0.000000 0.000000 0.000001 0.194733 -0.000001 -0.045983
# 5 -0.001036 -0.000766 -0.006455 -0.000001 0.032267 0.000000
# 6 0.000000 0.000000 0.000000 -0.045983 0.000000 0.033080
#
#
# Mechanical properties :
#
#
# Convention : Reuss Voigt Hill
#
# Bulk Modulus (GPa) = 52.48400 69.51304 60.99852
# Shear Modulus (GPa) = 16.15776 37.04832 26.60304
#
# Velocity S-wave (km/s) = 2.78885 4.22297 3.57849
# Velocity P-wave (km/s) = 5.96940 7.56562 6.81441
#
# Compressibility (1/GPa) = 0.01905343
#
# Stress axis : x y z
#
# Youngs Moduli (GPa) = 66.54118 147.74896 108.23785
#
# Poissons Ratio (x) = 0.22191 0.28453
# Poissons Ratio (y) = 0.09994 0.20135
# Poissons Ratio (z) = 0.17492 0.27485
#
# Static dielectric constant tensor:
#      x y z
#    x 1.813530 0.000000 -0.007690 
#    y 0.000000 1.804000 0.000000 
#    z -0.007690 0.000000 1.807390 
# 
# From -- ./inp_files/293488.got.cif
#   From: 2010.05.17/outbox.cif.g08.bks.cpg/sg15_147_cif.got.tgz:293488.got - 2010.06.03 18:47:42.
