data_PCOD9255575
_publ_section_title
;
Structure prediction by ZEFSAII (Michael W. Deem and Ramdas Pophale) SiO2 
 PCOD9255575
Probable space group: C 2/C
;
_chemical_formula_sum "Si O2"
_cell_formula_units_Z 40
_cell_length_a 9.712378
_cell_length_b 16.367617
_cell_length_c 10.966008
_cell_angle_alpha 90.000000
_cell_angle_beta 105.460243
_cell_angle_gamma 90.000000
_cell_volume 1680.171313
_symmetry_space_group_name_H-M "C 2/C"
_symmetry_group_IT_number 15
_symmetry_cell_setting 'monoclinic'
loop_
_space_group_symop_operation_xyz
x,y,z
-x,y,1/2-z
-x,-y,-z
x,-y,1/2+z
1/2+x,1/2+y,z
1/2-x,1/2+y,1/2-z
1/2-x,1/2-y,-z
1/2+x,1/2-y,1/2+z
loop_
_atom_site_type_symbol
_atom_site_label
_atom_site_fract_x
_atom_site_fract_y
_atom_site_fract_z
Si Si1 0.836875 0.868425 0.938643
Si Si2 0.142941 0.147497 0.547092
Si Si3 0.238504 0.301548 0.171499
Si Si4 0.435624 0.165070 0.509790
Si Si5 0.944359 0.540785 0.112245
O O1 0.820063 0.823554 0.066070
O O2 0.999969 0.897927 0.971022
O O3 0.791565 0.796446 0.832928
O O4 0.722411 0.940510 0.912997
O O5 0.177678 0.158665 0.697570
O O6 0.292165 0.121750 0.521961
O O7 0.103380 0.240121 0.498763
O O8 0.079881 0.340217 0.123359
O O9 0.482775 0.130454 0.390311
O O10 0.000000 0.503157 0.250000
O O11 0.000000 0.500000 0.000000
#
# Coordination Sequence:
#
# PCOD9255575 Si02
#       5
#     8   8   8   8   8
#     4   9  19  32  53  84 114 152 194 234 292 348
#     4  10  17  31  56  89 121 146 182 241 298 357
#     4   9  16  29  52  84 122 154 183 231 293 356
#     4   9  20  33  54  87 117 151 189 232 297 356
#     4  11  24  43  62  80 111 159 205 244 287 348
#
# _framework density 23.807096999999999
#
# number of rings (size 3 to 8) (size 9 to 14) (size 15 to 20)
#    0.000    2.400    0.000    3.600    0.000    3.200 
#    0.000    4.000    0.000    2.400    0.000    0.000 
#    0.000    0.000    0.000    0.000    0.000    0.000 
#
# Total GULP energy -111642.186268 kJ/mol
# GULP energy per Si atom -5582.109313 kJ/mol
# Density = 2.375291 g / cm^3
# Si number density = 23.807097 Si / 1000 Ang^3
#
#
#
# Elastic Constant Matrix: (Units=GPa)
#
#
# Indices 1 2 3 4 5 6 
#
# 1 179.8005 20.0226 36.8045 0.0000 15.5029 0.0000
# 2 20.0226 61.2256 6.0376 0.0000 3.1955 0.0000
# 3 36.8045 6.0376 79.7836 0.0000 15.2934 0.0000
# 4 0.0000 0.0000 0.0000 17.1593 0.0000 -10.4182
# 5 15.5029 3.1955 15.2934 0.0000 24.1176 0.0000
# 6 0.0000 0.0000 0.0000 -10.4182 0.0000 18.7150
#
#
#
# Elastic Compliance Matrix: (Units=1/GPa)
#
#
# Indices 1 2 3 4 5 6 
#
# 1 0.006452 -0.001749 -0.002383 0.000000 -0.002404 0.000000
# 2 -0.001749 0.016983 -0.000299 0.000000 -0.000936 0.000000
# 3 -0.002383 -0.000299 0.015202 0.000000 -0.008069 0.000000
# 4 0.000000 0.000000 0.000000 0.088030 0.000000 0.049004
# 5 -0.002404 -0.000936 -0.008069 0.000000 0.048250 0.000000
# 6 0.000000 0.000000 0.000000 0.049004 0.000000 0.080713
#
#
# Mechanical properties :
#
#
# Convention : Reuss Voigt Hill
#
# Bulk Modulus (GPa) = 33.58474 49.61545 41.60010
# Shear Modulus (GPa) = 18.22043 29.19472 23.70757
#
# Velocity S-wave (km/s) = 2.76947 3.50566 3.15908
# Velocity P-wave (km/s) = 4.93602 6.10508 5.55141
#
# Compressibility (1/GPa) = 0.02977543
#
# Stress axis : x y z
#
# Youngs Moduli (GPa) = 155.00007 58.88075 65.77902
#
# Poissons Ratio (x) = 0.10301 0.15674
# Poissons Ratio (y) = 0.27116 0.01965
# Poissons Ratio (z) = 0.36935 0.01759
#
# Static dielectric constant tensor:
#      x y z
#    x 1.953370 0.000000 -0.001050 
#    y 0.000000 2.055700 0.000000 
#    z -0.001050 0.000000 1.918090 
# 
# From -- ./inp_files/77631.got.cif
#   From: 2010.05.17/outbox.cif.g08.bks.cpg/sg15_39_cif.got.tgz:77631.got - 2010.06.03 18:47:42.
