data_PCOD9255790
_publ_section_title
;
Structure prediction by ZEFSAII (Michael W. Deem and Ramdas Pophale) SiO2 
 PCOD9255790
Probable space group: C 2/C
;
_chemical_formula_sum "Si O2"
_cell_formula_units_Z 48
_cell_length_a 11.453019
_cell_length_b 14.479275
_cell_length_c 19.630902
_cell_angle_alpha 90.000000
_cell_angle_beta 137.894777
_cell_angle_gamma 90.000000
_cell_volume 2182.740531
_symmetry_space_group_name_H-M "C 2/C"
_symmetry_group_IT_number 15
_symmetry_cell_setting 'monoclinic'
loop_
_space_group_symop_operation_xyz
x,y,z
-x,y,1/2-z
-x,-y,-z
x,-y,1/2+z
1/2+x,1/2+y,z
1/2-x,1/2+y,1/2-z
1/2-x,1/2-y,-z
1/2+x,1/2-y,1/2+z
loop_
_atom_site_type_symbol
_atom_site_label
_atom_site_fract_x
_atom_site_fract_y
_atom_site_fract_z
Si Si1 0.128478 0.277465 0.866987
Si Si2 0.021664 0.841555 0.437642
Si Si3 0.611195 0.492489 0.226829
Si Si4 0.921941 0.196577 0.315276
Si Si5 0.714603 0.222845 0.085937
Si Si6 0.633346 0.857605 0.103796
O O1 0.030026 0.250977 0.893623
O O2 0.227966 0.181028 0.890861
O O3 0.000000 0.301421 0.750000
O O4 0.283006 0.349347 0.948307
O O5 0.962102 0.920395 0.360491
O O6 0.893599 0.816880 0.444977
O O7 0.500000 0.501792 0.250000
O O8 0.613623 0.589230 0.188653
O O9 0.795022 0.450546 0.331980
O O10 0.824183 0.210830 0.202009
O O11 0.854846 0.273986 0.336943
O O12 0.128964 0.214903 0.399882
O O13 0.564620 0.146700 0.007683
#
# Coordination Sequence:
#
# PCOD9255790 Si02
#       6
#     8   8   8   8   8   8
#     4  10  17  32  58  90 117 157 206 237 295 355
#     4  10  19  33  61  90 116 162 196 246 300 349
#     4  12  21  39  63  93 120 152 202 258 295 349
#     4  11  23  41  60  92 122 155 206 244 300 359
#     4  10  21  38  62  86 123 161 198 240 302 361
#     4  11  21  38  64  87 121 164 199 245 303 354
#
# _framework density 21.990701999999999
#
# number of rings (size 3 to 8) (size 9 to 14) (size 15 to 20)
#    0.000    1.333    6.667    0.500    0.000    0.667 
#    0.000    3.333    0.000    8.000    0.000    0.000 
#    0.000    0.000    0.000    0.000    0.000    0.000 
#
# Total GULP energy -133844.867464 kJ/mol
# GULP energy per Si atom -5576.869478 kJ/mol
# Density = 2.194065 g / cm^3
# Si number density = 21.990702 Si / 1000 Ang^3
#
#
#
# Elastic Constant Matrix: (Units=GPa)
#
#
# Indices 1 2 3 4 5 6 
#
# 1 81.5989 22.9512 8.0757 0.0000 16.0823 0.0000
# 2 22.9512 74.4105 12.9544 0.0000 -0.5000 0.0000
# 3 8.0757 12.9544 153.6294 0.0000 11.3714 0.0000
# 4 0.0000 0.0000 0.0000 3.6261 0.0000 3.9598
# 5 16.0823 -0.5000 11.3714 0.0000 33.8062 0.0000
# 6 0.0000 0.0000 0.0000 3.9598 0.0000 12.7746
#
#
#
# Elastic Compliance Matrix: (Units=1/GPa)
#
#
# Indices 1 2 3 4 5 6 
#
# 1 0.014991 -0.004698 0.000145 0.000000 -0.007250 0.000000
# 2 -0.004698 0.015123 -0.001241 0.000000 0.002876 0.000000
# 3 0.000145 -0.001241 0.006782 0.000000 -0.002368 0.000000
# 4 0.000000 0.000000 0.000000 0.416893 0.000000 -0.129225
# 5 -0.007250 0.002876 -0.002368 0.000000 0.033868 0.000000
# 6 0.000000 0.000000 0.000000 -0.129225 0.000000 0.118336
#
#
# Mechanical properties :
#
#
# Convention : Reuss Voigt Hill
#
# Bulk Modulus (GPa) = 39.51408 44.17792 41.84600
# Shear Modulus (GPa) = 7.98699 27.75189 17.86944
#
# Velocity S-wave (km/s) = 1.90784 3.55629 2.85369
# Velocity P-wave (km/s) = 4.78129 6.08243 5.47068
#
# Compressibility (1/GPa) = 0.02530744
#
# Stress axis : x y z
#
# Youngs Moduli (GPa) = 66.70713 66.12300 147.45951
#
# Poissons Ratio (x) = 0.31063 -0.02134
# Poissons Ratio (y) = 0.31337 0.18302
# Poissons Ratio (z) = -0.00965 0.08207
#
# Static dielectric constant tensor:
#      x y z
#    x 2.000250 0.000000 0.017090 
#    y 0.000000 1.808460 0.000000 
#    z 0.017090 0.000000 1.855910 
# 
# From -- ./inp_files/239021.got.cif
#   From: 2010.05.17/outbox.cif.g08.bks.cpg/sg15_120_cif.got.tgz:239021.got - 2010.06.03 18:47:42.
