data_PCOD9255201
_publ_section_title
;
Structure prediction by ZEFSAII (Michael W. Deem and Ramdas Pophale) SiO2 
 PCOD9255201
Probable space group: C 2/C
;
_chemical_formula_sum "Si O2"
_cell_formula_units_Z 48
_cell_length_a 19.159859
_cell_length_b 7.087197
_cell_length_c 28.024352
_cell_angle_alpha 90.000000
_cell_angle_beta 31.366255
_cell_angle_gamma 90.000000
_cell_volume 1980.746185
_symmetry_space_group_name_H-M "C 2/C"
_symmetry_group_IT_number 15
_symmetry_cell_setting 'monoclinic'
loop_
_space_group_symop_operation_xyz
x,y,z
-x,y,1/2-z
-x,-y,-z
x,-y,1/2+z
1/2+x,1/2+y,z
1/2-x,1/2+y,1/2-z
1/2-x,1/2-y,-z
1/2+x,1/2-y,1/2+z
loop_
_atom_site_type_symbol
_atom_site_label
_atom_site_fract_x
_atom_site_fract_y
_atom_site_fract_z
Si Si1 0.649541 0.547439 0.172467
Si Si2 0.344680 0.007905 0.331653
Si Si3 0.601775 0.022410 0.801230
Si Si4 0.662837 0.461167 0.770807
Si Si5 0.663765 0.122328 0.513125
Si Si6 0.552783 0.521420 0.024439
O O1 0.500000 0.489235 0.250000
O O2 0.653390 0.777584 0.166819
O O3 0.679680 0.470074 0.207045
O O4 0.743223 0.494709 0.074040
O O5 0.500000 0.063694 0.250000
O O6 0.327545 0.056762 0.286359
O O7 0.204603 0.063237 0.438651
O O8 0.613999 0.248301 0.791388
O O9 0.443589 0.995499 0.896410
O O10 0.689856 0.957671 0.793504
O O11 0.557073 0.545575 0.871529
O O12 0.750000 0.250000 0.500000
O O13 0.582004 0.260955 0.524218
O O14 0.500000 0.500000 0.000000
#
# Coordination Sequence:
#
# PCOD9255201 Si02
#       6
#     8   8   8   8   8   8
#     4   9  17  30  49  75 103 137 174 222 274 318
#     4   9  16  28  49  75 103 133 180 230 262 308
#     4  10  19  32  50  78 108 136 177 218 278 320
#     4  10  20  32  51  77 109 142 176 223 272 325
#     4  10  19  32  53  81 109 135 183 236 275 318
#     4  10  17  29  49  76 107 139 172 217 279 329
#
# _framework density 24.233291999999999
#
# number of rings (size 3 to 8) (size 9 to 14) (size 15 to 20)
#    0.000    2.333    1.667    5.000    0.000    0.667 
#    0.000    0.000    0.000    1.000    0.000   11.667 
#    0.000    0.000    0.000    0.000    0.000    0.000 
#
# Total GULP energy -133730.638805 kJ/mol
# GULP energy per Si atom -5572.109950 kJ/mol
# Density = 2.417814 g / cm^3
# Si number density = 24.233292 Si / 1000 Ang^3
#
#
#
# Elastic Constant Matrix: (Units=GPa)
#
#
# Indices 1 2 3 4 5 6 
#
# 1 98.5870 -7.1596 28.8813 0.0008 6.2388 -0.0248
# 2 -7.1596 79.8449 15.1793 -0.0015 5.3710 -0.0058
# 3 28.8813 15.1793 204.7248 -0.0002 3.6889 -0.0069
# 4 0.0008 -0.0015 -0.0002 -6.6631 0.0042 -3.5510
# 5 6.2388 5.3710 3.6889 0.0042 43.5061 -0.0012
# 6 -0.0248 -0.0058 -0.0069 -3.5510 -0.0012 -23.5506
#
#
#
# Elastic Compliance Matrix: (Units=1/GPa)
#
#
# Indices 1 2 3 4 5 6 
#
# 1 0.010812 0.001380 -0.001599 0.000007 -0.001585 -0.000012
# 2 0.001380 0.012977 -0.001126 -0.000002 -0.001704 -0.000004
# 3 -0.001599 -0.001126 0.005195 0.000000 -0.000072 0.000001
# 4 0.000007 -0.000002 0.000000 -0.163194 0.000016 0.024607
# 5 -0.001585 -0.001704 -0.000072 0.000016 0.023429 -0.000001
# 6 -0.000012 -0.000004 0.000001 0.024607 -0.000001 -0.046172
#
#
# Mechanical properties :
#
#
# Convention : Reuss Voigt Hill
#
# Bulk Modulus (GPa) = 38.03155 50.77319 44.40237
# Shear Modulus (GPa) = -34.36469 25.74218 -4.31125
#
# Velocity S-wave (km/s) = -3.76982 3.26278 -1.33526
# Velocity P-wave (km/s) = 1.79464 5.93225 3.99818
#
# Compressibility (1/GPa) = 0.02629396
#
# Stress axis : x y z
#
# Youngs Moduli (GPa) = 92.48695 77.06064 192.49294
#
# Poissons Ratio (x) = -0.10636 0.30782
# Poissons Ratio (y) = -0.12765 0.21678
# Poissons Ratio (z) = 0.14790 0.08678
#
# Static dielectric constant tensor:
#      x y z
#    x 1.964030 0.000000 0.065600 
#    y 0.000000 2.018790 0.000010 
#    z 0.065600 0.000010 2.012690 
# 
# From -- ./inp_files/160301.got.cif
#   From: 2010.05.17/outbox.cif.g08.bks.cpg/sg15_81_cif.got.tgz:160301.got - 2010.06.03 18:47:42.
