data_PCOD9255442
_publ_section_title
;
Structure prediction by ZEFSAII (Michael W. Deem and Ramdas Pophale) SiO2 
 PCOD9255442
Probable space group: C 2/C
;
_chemical_formula_sum "Si O2"
_cell_formula_units_Z 44
_cell_length_a 12.615752
_cell_length_b 22.162026
_cell_length_c 7.605967
_cell_angle_alpha 90.000000
_cell_angle_beta 51.954098
_cell_angle_gamma 90.000000
_cell_volume 1674.700407
_symmetry_space_group_name_H-M "C 2/C"
_symmetry_group_IT_number 15
_symmetry_cell_setting 'monoclinic'
loop_
_space_group_symop_operation_xyz
x,y,z
-x,y,1/2-z
-x,-y,-z
x,-y,1/2+z
1/2+x,1/2+y,z
1/2-x,1/2+y,1/2-z
1/2-x,1/2-y,-z
1/2+x,1/2-y,1/2+z
loop_
_atom_site_type_symbol
_atom_site_label
_atom_site_fract_x
_atom_site_fract_y
_atom_site_fract_z
Si Si1 0.000000 0.040203 0.750000
Si Si2 0.311686 0.304827 0.548437
Si Si3 0.183789 0.401473 0.182544
Si Si4 0.700444 0.983603 0.512908
Si Si5 0.434160 0.873809 0.639432
Si Si6 0.565318 0.357405 0.418015
O O1 0.003985 0.079542 0.563493
O O2 0.142225 0.008125 0.604778
O O3 0.250000 0.250000 0.500000
O O4 0.194632 0.334657 0.781218
O O5 0.450658 0.305849 0.518685
O O6 0.345983 0.348824 0.349765
O O7 0.193916 0.449735 0.334297
O O8 0.151556 0.447325 0.058676
O O9 0.325032 0.365209 0.041226
O O10 0.053152 0.366298 0.378319
O O11 0.620411 0.938511 0.726779
O O12 0.500000 0.845699 0.750000
#
# Coordination Sequence:
#
# PCOD9255442 Si02
#       6
#     4   8   8   8   8   8
#     4   8  14  30  44  64  98 126 166 206 236 296
#     4  10  18  29  48  68  99 137 167 210 272 318
#     4  10  20  31  52  67 108 144 173 210 254 309
#     4  10  18  31  48  72  97 150 174 204 260 303
#     4  10  17  31  44  68 101 136 169 212 254 303
#     4   9  17  30  42  67  97 131 163 209 253 305
#
# _framework density 26.273357000000001
#
# number of rings (size 3 to 8) (size 9 to 14) (size 15 to 20)
#    0.000    2.545    7.273    0.545    2.545    2.909 
#    0.000    0.000    0.000    0.000    0.000    0.000 
#    0.000    1.455   35.273    1.273    0.000    0.000 
#
# Total GULP energy -122717.714510 kJ/mol
# GULP energy per Si atom -5578.077932 kJ/mol
# Density = 2.621356 g / cm^3
# Si number density = 26.273357 Si / 1000 Ang^3
#
#
#
# Elastic Constant Matrix: (Units=GPa)
#
#
# Indices 1 2 3 4 5 6 
#
# 1 115.6959 17.4051 54.8947 0.0000 -18.1507 0.0000
# 2 17.4051 57.6985 27.2723 0.0000 -21.5903 0.0000
# 3 54.8947 27.2723 74.7825 0.0000 -42.6809 0.0000
# 4 0.0000 0.0000 0.0000 19.3714 0.0000 -6.8816
# 5 -18.1507 -21.5903 -42.6809 0.0000 59.2788 0.0000
# 6 0.0000 0.0000 0.0000 -6.8816 0.0000 38.3703
#
#
#
# Elastic Compliance Matrix: (Units=1/GPa)
#
#
# Indices 1 2 3 4 5 6 
#
# 1 0.014200 0.000103 -0.013510 0.000000 -0.005342 0.000000
# 2 0.000103 0.021408 -0.005797 0.000000 0.003655 0.000000
# 3 -0.013510 -0.005797 0.037071 0.000000 0.020443 0.000000
# 4 0.000000 0.000000 0.000000 0.055135 0.000000 0.009888
# 5 -0.005342 0.003655 0.020443 0.000000 0.031284 0.000000
# 6 0.000000 0.000000 0.000000 0.009888 0.000000 0.027835
#
#
# Mechanical properties :
#
#
# Convention : Reuss Voigt Hill
#
# Bulk Modulus (GPa) = 29.17890 49.70234 39.44062
# Shear Modulus (GPa) = 21.11804 33.31109 27.21457
#
# Velocity S-wave (km/s) = 2.83818 3.56457 3.22191
# Velocity P-wave (km/s) = 4.67657 5.99166 5.37449
#
# Compressibility (1/GPa) = 0.03427134
#
# Stress axis : x y z
#
# Youngs Moduli (GPa) = 70.42319 46.71143 26.97540
#
# Poissons Ratio (x) = -0.00483 0.36443
# Poissons Ratio (y) = -0.00728 0.15638
# Poissons Ratio (z) = 0.95141 0.27080
#
# Static dielectric constant tensor:
#      x y z
#    x 2.213750 0.000000 0.015050 
#    y 0.000000 2.308810 0.000000 
#    z 0.015050 0.000000 2.116680 
# 
# From -- ./inp_files/100822.got.cif
#   From: 2010.05.17/outbox.cif.g08.bks.cpg/sg15_51_cif.got.tgz:100822.got - 2010.06.03 18:47:42.
