data_PCOD9255103
_publ_section_title
;
Structure prediction by ZEFSAII (Michael W. Deem and Ramdas Pophale) SiO2 
 PCOD9255103
Probable space group: C 2/C
;
_chemical_formula_sum "Si O2"
_cell_formula_units_Z 48
_cell_length_a 6.971344
_cell_length_b 15.619240
_cell_length_c 23.595665
_cell_angle_alpha 90.000000
_cell_angle_beta 137.882318
_cell_angle_gamma 90.000000
_cell_volume 1723.090816
_symmetry_space_group_name_H-M "C 2/C"
_symmetry_group_IT_number 15
_symmetry_cell_setting 'monoclinic'
loop_
_space_group_symop_operation_xyz
x,y,z
-x,y,1/2-z
-x,-y,-z
x,-y,1/2+z
1/2+x,1/2+y,z
1/2-x,1/2+y,1/2-z
1/2-x,1/2-y,-z
1/2+x,1/2-y,1/2+z
loop_
_atom_site_type_symbol
_atom_site_label
_atom_site_fract_x
_atom_site_fract_y
_atom_site_fract_z
Si Si1 0.705019 0.553701 0.429159
Si Si2 0.079054 0.169145 0.898619
Si Si3 0.631194 0.836191 0.446349
Si Si4 0.281754 0.776510 0.271700
Si Si5 0.224155 0.926985 0.753616
Si Si6 0.387234 0.870750 0.569809
O O1 0.659541 0.592701 0.481707
O O2 0.401319 0.531934 0.332247
O O3 0.000000 0.500000 0.500000
O O4 0.838861 0.621467 0.412682
O O5 0.329756 0.141716 0.910384
O O6 0.135095 0.271079 0.918797
O O7 0.794153 0.169082 0.800029
O O8 0.124541 0.119115 0.967562
O O9 0.750000 0.750000 0.500000
O O10 0.546558 0.814530 0.364243
O O11 0.305577 0.675887 0.262475
O O12 0.000000 0.779524 0.250000
O O13 0.520017 0.927713 0.855502
O O14 0.000000 0.962412 0.750000
#
# Coordination Sequence:
#
# PCOD9255103 Si02
#       6
#     8   8   8   8   8   8
#     4  10  19  30  45  70 102 129 163 202 250 302
#     4   8  15  27  46  70  96 119 157 210 248 290
#     4  10  17  28  47  72  99 126 162 206 255 295
#     4   9  16  27  45  73 100 122 161 209 259 291
#     4   9  16  28  46  69  95 125 166 202 244 301
#     4   8  15  29  46  65  94 124 161 197 244 296
#
# _framework density 27.856916999999999
#
# number of rings (size 3 to 8) (size 9 to 14) (size 15 to 20)
#    0.000    3.000    1.667    0.000    0.000    0.000 
#    0.000   12.500    0.000    1.000    0.000    0.000 
#    0.000    0.000    0.000    0.000    0.000    0.000 
#
# Total GULP energy -133683.420937 kJ/mol
# GULP energy per Si atom -5570.142539 kJ/mol
# Density = 2.779351 g / cm^3
# Si number density = 27.856917 Si / 1000 Ang^3
#
#
#
# Elastic Constant Matrix: (Units=GPa)
#
#
# Indices 1 2 3 4 5 6 
#
# 1 84.0220 -6.9423 29.6019 0.0000 -0.8202 -0.0001
# 2 -6.9423 58.5737 29.1614 0.0001 -2.4761 0.0000
# 3 29.6019 29.1614 347.6820 0.0007 -16.5782 0.0000
# 4 0.0000 0.0001 0.0007 35.1297 0.0002 11.3736
# 5 -0.8202 -2.4761 -16.5782 0.0002 50.9799 0.0000
# 6 -0.0001 0.0000 0.0000 11.3736 0.0000 21.8887
#
#
#
# Elastic Compliance Matrix: (Units=1/GPa)
#
#
# Indices 1 2 3 4 5 6 
#
# 1 0.012513 0.002099 -0.001246 0.000000 -0.000102 0.000000
# 2 0.002099 0.018176 -0.001686 0.000000 0.000368 0.000000
# 3 -0.001246 -0.001686 0.003168 0.000000 0.000928 0.000000
# 4 0.000000 0.000000 0.000000 0.034223 0.000000 -0.017783
# 5 -0.000102 0.000368 0.000928 0.000000 0.019934 0.000000
# 6 0.000000 0.000000 0.000000 -0.017783 0.000000 0.054926
#
#
# Mechanical properties :
#
#
# Convention : Reuss Voigt Hill
#
# Bulk Modulus (GPa) = 31.06376 65.99106 48.52741
# Shear Modulus (GPa) = 32.18828 50.83012 41.50920
#
# Velocity S-wave (km/s) = 3.40293 4.27627 3.86435
# Velocity P-wave (km/s) = 5.15900 6.93705 6.11302
#
# Compressibility (1/GPa) = 0.03219186
#
# Stress axis : x y z
#
# Youngs Moduli (GPa) = 79.91562 55.01723 315.66165
#
# Poissons Ratio (x) = -0.11550 0.39342
# Poissons Ratio (y) = -0.16777 0.53210
# Poissons Ratio (z) = 0.09960 0.09274
#
# Static dielectric constant tensor:
#      x y z
#    x 2.062140 -0.000020 -0.046360 
#    y -0.000020 3.249800 0.000010 
#    z -0.046360 0.000010 2.282620 
# 
# From -- ./inp_files/88560.got.cif
#   From: 2010.05.17/outbox.cif.g08.bks.cpg/sg15_45_cif.got.tgz:88560.got - 2010.06.03 18:47:42.
