data_PCOD9255403
_publ_section_title
;
Structure prediction by ZEFSAII (Michael W. Deem and Ramdas Pophale) SiO2 
 PCOD9255403
Probable space group: C 2/C
;
_chemical_formula_sum "Si O2"
_cell_formula_units_Z 40
_cell_length_a 17.483450
_cell_length_b 7.749147
_cell_length_c 28.483715
_cell_angle_alpha 90.000000
_cell_angle_beta 157.213489
_cell_angle_gamma 90.000000
_cell_volume 1494.595021
_symmetry_space_group_name_H-M "C 2/C"
_symmetry_group_IT_number 15
_symmetry_cell_setting 'monoclinic'
loop_
_space_group_symop_operation_xyz
x,y,z
-x,y,1/2-z
-x,-y,-z
x,-y,1/2+z
1/2+x,1/2+y,z
1/2-x,1/2+y,1/2-z
1/2-x,1/2-y,-z
1/2+x,1/2-y,1/2+z
loop_
_atom_site_type_symbol
_atom_site_label
_atom_site_fract_x
_atom_site_fract_y
_atom_site_fract_z
Si Si1 0.548035 0.680595 0.656436
Si Si2 0.175505 0.379738 0.313063
Si Si3 0.029521 0.591790 0.632287
Si Si4 0.166673 0.991780 0.879388
Si Si5 0.085664 0.202649 0.022519
O O1 0.778003 0.631243 0.789416
O O2 0.524055 0.886882 0.640224
O O3 0.433084 0.597340 0.634407
O O4 0.466071 0.621873 0.558691
O O5 0.073937 0.322757 0.207108
O O6 0.283208 0.567942 0.374463
O O7 0.374624 0.264342 0.427418
O O8 0.000000 0.406450 0.250000
O O9 0.823398 0.635775 0.491972
O O10 0.292346 0.127466 0.919809
O O11 0.000000 0.922392 0.750000
#
# Coordination Sequence:
#
# PCOD9255403 Si02
#       5
#     8   8   8   8   8
#     4  10  20  36  58  83 115 148 186 234 279 335
#     4  10  17  30  54  85 116 141 181 242 290 325
#     4  10  21  36  57  86 113 148 190 228 281 338
#     4  11  21  36  58  80 111 154 194 229 274 339
#     4   9  18  30  52  84 111 144 184 227 282 339
#
# _framework density 26.763103999999998
#
# number of rings (size 3 to 8) (size 9 to 14) (size 15 to 20)
#    0.000    2.000    0.000    6.600    0.000    0.800 
#    0.000    1.000    0.000   20.400    0.000   12.600 
#    0.000    0.000    0.000    0.000    0.000    0.000 
#
# Total GULP energy -112112.587154 kJ/mol
# GULP energy per Si atom -5605.629358 kJ/mol
# Density = 2.670219 g / cm^3
# Si number density = 26.763104 Si / 1000 Ang^3
#
#
#
# Elastic Constant Matrix: (Units=GPa)
#
#
# Indices 1 2 3 4 5 6 
#
# 1 149.9442 14.6648 80.1203 0.0003 23.0971 0.0002
# 2 14.6648 53.2076 24.1399 0.0005 -1.0795 0.0014
# 3 80.1203 24.1399 245.4876 0.0096 15.3266 -0.0021
# 4 0.0003 0.0005 0.0096 26.1543 -0.0018 -3.9637
# 5 23.0971 -1.0795 15.3266 -0.0018 54.7965 0.0001
# 6 0.0002 0.0014 -0.0021 -3.9637 0.0001 28.4485
#
#
#
# Elastic Compliance Matrix: (Units=1/GPa)
#
#
# Indices 1 2 3 4 5 6 
#
# 1 0.008579 -0.001295 -0.002489 0.000001 -0.002946 0.000000
# 2 -0.001295 0.019916 -0.001623 0.000000 0.001392 -0.000001
# 3 -0.002489 -0.001623 0.005070 -0.000002 -0.000401 0.000000
# 4 0.000001 0.000000 -0.000002 0.039059 0.000002 0.005442
# 5 -0.002946 0.001392 -0.000401 0.000002 0.019631 0.000000
# 6 0.000000 -0.000001 0.000000 0.005442 0.000000 0.035909
#
#
# Mechanical properties :
#
#
# Convention : Reuss Voigt Hill
#
# Bulk Modulus (GPa) = 43.95165 76.27660 60.11412
# Shear Modulus (GPa) = 34.11518 43.86082 38.98800
#
# Velocity S-wave (km/s) = 3.57418 4.05267 3.82092
# Velocity P-wave (km/s) = 5.78715 7.10362 6.47891
#
# Compressibility (1/GPa) = 0.02275228
#
# Stress axis : x y z
#
# Youngs Moduli (GPa) = 116.55789 50.21165 197.22300
#
# Poissons Ratio (x) = 0.06504 0.49085
# Poissons Ratio (y) = 0.15097 0.32001
# Poissons Ratio (z) = 0.29009 0.08147
#
# Static dielectric constant tensor:
#      x y z
#    x 2.129980 0.000000 -0.046300 
#    y 0.000000 2.056750 0.000000 
#    z -0.046300 0.000000 2.096710 
# 
# From -- ./inp_files/103553.got.cif
#   From: 2010.05.17/outbox.cif.g08.bks.cpg/sg15_52_cif.got.tgz:103553.got - 2010.06.03 18:47:42.
