data_PCOD9255912
_publ_section_title
;
Structure prediction by ZEFSAII (Michael W. Deem and Ramdas Pophale) SiO2 
 PCOD9255912
Probable space group: C 2/C
;
_chemical_formula_sum "Si O2"
_cell_formula_units_Z 60
_cell_length_a 24.600167
_cell_length_b 7.590014
_cell_length_c 17.248793
_cell_angle_alpha 90.000000
_cell_angle_beta 51.269411
_cell_angle_gamma 90.000000
_cell_volume 2512.393538
_symmetry_space_group_name_H-M "C 2/C"
_symmetry_group_IT_number 15
_symmetry_cell_setting 'monoclinic'
loop_
_space_group_symop_operation_xyz
x,y,z
-x,y,1/2-z
-x,-y,-z
x,-y,1/2+z
1/2+x,1/2+y,z
1/2-x,1/2+y,1/2-z
1/2-x,1/2-y,-z
1/2+x,1/2-y,1/2+z
loop_
_atom_site_type_symbol
_atom_site_label
_atom_site_fract_x
_atom_site_fract_y
_atom_site_fract_z
Si Si1 0.041746 0.533683 0.360882
Si Si2 0.902974 0.630516 0.415077
Si Si3 0.710638 0.636868 0.700640
Si Si4 0.105041 0.752242 0.908822
Si Si5 0.939620 0.947802 0.153118
Si Si6 0.184748 0.486965 0.637396
Si Si7 0.251325 0.731759 0.317392
Si Si8 0.000000 0.092802 0.750000
O O1 0.060528 0.412106 0.416718
O O2 0.042733 0.743460 0.377431
O O3 0.108899 0.496152 0.246456
O O4 0.968208 0.505987 0.382533
O O5 0.883775 0.733174 0.510459
O O6 0.838068 0.539310 0.430648
O O7 0.936550 0.773366 0.326077
O O8 0.637637 0.552331 0.740651
O O9 0.719921 0.811066 0.641835
O O10 0.762685 0.472031 0.653436
O O11 0.697605 0.692050 0.802567
O O12 0.179162 0.757266 0.798819
O O13 0.065335 0.925766 0.915406
O O14 0.987360 0.010813 0.181938
O O15 0.232458 0.648674 0.622978
#
# Coordination Sequence:
#
# PCOD9255912 Si02
#       8
#     8   8   8   8   8   8   8   4
#     4   9  18  35  55  77 107 149 175 211 265 322
#     4  11  18  36  57  79 113 146 168 226 269 315
#     4  10  17  33  57  77 102 137 186 217 260 319
#     4  10  22  34  53  86 110 134 187 219 268 313
#     4   9  19  36  54  79 108 141 180 220 261 323
#     4  10  18  34  54  79 107 137 182 220 261 319
#     4  10  20  33  56  82  98 142 182 225 260 316
#     4  10  18  34  58  78 108 152 176 206 274 314
#
# _framework density 23.881609000000001
#
# number of rings (size 3 to 8) (size 9 to 14) (size 15 to 20)
#    0.000    2.133    5.333    0.400    0.000    2.133 
#    7.200    2.000    0.000    0.800    0.000    0.000 
#    0.000    0.000    0.000    0.000    0.000    0.000 
#
# Total GULP energy -167516.650890 kJ/mol
# GULP energy per Si atom -5583.888363 kJ/mol
# Density = 2.382725 g / cm^3
# Si number density = 23.881609 Si / 1000 Ang^3
#
#
#
# Elastic Constant Matrix: (Units=GPa)
#
#
# Indices 1 2 3 4 5 6 
#
# 1 90.3871 23.1178 19.8438 -0.0019 40.3226 0.0005
# 2 23.1178 102.9719 25.4468 0.0014 29.4191 -0.0019
# 3 19.8438 25.4468 93.4316 -0.0007 30.1142 0.0005
# 4 -0.0019 0.0014 -0.0007 22.4244 0.0011 8.9569
# 5 40.3226 29.4191 30.1142 0.0011 48.8642 0.0010
# 6 0.0005 -0.0019 0.0005 8.9569 0.0010 36.1761
#
#
#
# Elastic Compliance Matrix: (Units=1/GPa)
#
#
# Indices 1 2 3 4 5 6 
#
# 1 0.017614 0.000140 0.001164 0.000002 -0.015336 0.000000
# 2 0.000140 0.011829 -0.001147 -0.000001 -0.006530 0.000001
# 3 0.001164 -0.001147 0.013546 0.000001 -0.008618 0.000000
# 4 0.000002 -0.000001 0.000001 0.049488 -0.000003 -0.012253
# 5 -0.015336 -0.006530 -0.008618 -0.000003 0.042363 0.000000
# 6 0.000000 0.000001 0.000000 -0.012253 0.000000 0.030676
#
#
# Mechanical properties :
#
#
# Convention : Reuss Voigt Hill
#
# Bulk Modulus (GPa) = 23.09304 47.06748 35.08026
# Shear Modulus (GPa) = 27.83385 36.05175 31.94280
#
# Velocity S-wave (km/s) = 3.41764 3.88958 3.66122
# Velocity P-wave (km/s) = 5.02637 6.31848 5.70910
#
# Compressibility (1/GPa) = 0.04330308
#
# Stress axis : x y z
#
# Youngs Moduli (GPa) = 56.77302 84.53701 73.82323
#
# Poissons Ratio (x) = -0.01179 -0.08594
# Poissons Ratio (y) = -0.00792 0.08464
# Poissons Ratio (z) = -0.06609 0.09693
#
# Static dielectric constant tensor:
#      x y z
#    x 2.050460 0.000000 -0.029090 
#    y 0.000000 1.906030 0.000000 
#    z -0.029090 0.000000 1.973030 
# 
# From -- ./inp_files/171864.got.cif
#   From: 2010.05.17/outbox.cif.g08.bks.cpg/sg15_86_cif.got.tgz:171864.got - 2010.06.03 18:47:42.
