data_PCOD9255120
_publ_section_title
;
Structure prediction by ZEFSAII (Michael W. Deem and Ramdas Pophale) SiO2 
 PCOD9255120
Probable space group: C 2/C
;
_chemical_formula_sum "Si O2"
_cell_formula_units_Z 52
_cell_length_a 31.131159
_cell_length_b 14.228083
_cell_length_c 9.315676
_cell_angle_alpha 90.000000
_cell_angle_beta 33.246816
_cell_angle_gamma 90.000000
_cell_volume 2262.205870
_symmetry_space_group_name_H-M "C 2/C"
_symmetry_group_IT_number 15
_symmetry_cell_setting 'monoclinic'
loop_
_space_group_symop_operation_xyz
x,y,z
-x,y,1/2-z
-x,-y,-z
x,-y,1/2+z
1/2+x,1/2+y,z
1/2-x,1/2+y,1/2-z
1/2-x,1/2-y,-z
1/2+x,1/2-y,1/2+z
loop_
_atom_site_type_symbol
_atom_site_label
_atom_site_fract_x
_atom_site_fract_y
_atom_site_fract_z
Si Si1 0.612140 0.050512 0.687504
Si Si2 0.764579 0.592924 0.693371
Si Si3 0.000000 0.497955 0.250000
Si Si4 0.964432 0.085513 0.507577
Si Si5 0.288149 0.776249 0.547462
Si Si6 0.445029 0.683799 0.023548
Si Si7 0.671363 0.489250 0.707673
O O1 0.690427 0.116966 0.470856
O O2 0.557011 0.058915 0.700915
O O3 0.557946 0.055607 0.980951
O O4 0.624037 0.258865 0.717223
O O5 0.754286 0.705566 0.723625
O O6 0.738937 0.557008 0.923582
O O7 0.850222 0.554225 0.420833
O O8 0.703358 0.541597 0.757659
O O9 0.000000 0.085626 0.250000
O O10 0.996028 0.169806 0.510099
O O11 0.872551 0.070681 0.757826
O O12 0.000000 0.000000 0.500000
O O13 0.250000 0.750000 0.500000
O O14 0.500000 0.725390 0.750000
O O15 0.397773 0.591424 0.087720
#
# Coordination Sequence:
#
# PCOD9255120 Si02
#       7
#     8   8   4   8   8   8   8
#     4  11  23  46  72 100 136 178 240 285 345 414
#     4  11  22  40  66  96 131 179 217 278 345 402
#     4  10  24  46  76  96 130 188 232 296 342 394
#     4  10  17  28  48  79 121 167 210 249 311 396
#     4  11  24  41  65  99 135 174 231 285 345 412
#     4  10  20  35  57  89 124 171 218 265 330 398
#     4  10  18  33  58  89 129 172 211 258 332 411
#
# _framework density 22.986412999999999
#
# number of rings (size 3 to 8) (size 9 to 14) (size 15 to 20)
#    0.000    1.538    0.000    9.231    1.077    0.000 
#    4.154    3.077    0.000    0.000    0.000    0.000 
#    0.000    0.000    0.000    0.000    0.000    0.000 
#
# Total GULP energy -144926.128825 kJ/mol
# GULP energy per Si atom -5574.081878 kJ/mol
# Density = 2.293409 g / cm^3
# Si number density = 22.986413 Si / 1000 Ang^3
#
#
#
# Elastic Constant Matrix: (Units=GPa)
#
#
# Indices 1 2 3 4 5 6 
#
# 1 121.7852 35.5901 8.2924 0.0000 16.7213 0.0000
# 2 35.5901 69.6649 19.6993 0.0000 -0.5089 0.0000
# 3 8.2924 19.6993 83.6165 0.0000 6.4750 0.0000
# 4 0.0000 0.0000 0.0000 28.5376 0.0000 -4.5569
# 5 16.7213 -0.5089 6.4750 0.0000 41.1739 0.0000
# 6 0.0000 0.0000 0.0000 -4.5569 0.0000 1.2787
#
#
#
# Elastic Compliance Matrix: (Units=1/GPa)
#
#
# Indices 1 2 3 4 5 6 
#
# 1 0.010380 -0.005507 0.000607 0.000000 -0.004379 0.000000
# 2 -0.005507 0.018324 -0.004010 0.000000 0.003094 0.000000
# 3 0.000607 -0.004010 0.013026 0.000000 -0.002344 0.000000
# 4 0.000000 0.000000 0.000000 0.081314 0.000000 0.289781
# 5 -0.004379 0.003094 -0.002344 0.000000 0.026473 0.000000
# 6 0.000000 0.000000 0.000000 0.289781 0.000000 1.814764
#
#
# Mechanical properties :
#
#
# Convention : Reuss Voigt Hill
#
# Bulk Modulus (GPa) = 41.82378 44.69226 43.25802
# Shear Modulus (GPa) = 2.51247 28.29703 15.40475
#
# Velocity S-wave (km/s) = 1.04661 3.51241 2.59157
# Velocity P-wave (km/s) = 4.43791 5.99454 5.27397
#
# Compressibility (1/GPa) = 0.02390984
#
# Stress axis : x y z
#
# Youngs Moduli (GPa) = 96.33565 54.57228 76.77225
#
# Poissons Ratio (x) = 0.30051 -0.04660
# Poissons Ratio (y) = 0.53049 0.30789
# Poissons Ratio (z) = -0.05847 0.21886
#
# Static dielectric constant tensor:
#      x y z
#    x 1.927630 0.000000 0.013970 
#    y 0.000000 2.039850 0.000000 
#    z 0.013970 0.000000 1.826480 
# 
# From -- ./inp_files/65902.got.cif
#   From: 2010.05.17/outbox.cif.g08.bks.cpg/sg15_33_cif.got.tgz:65902.got - 2010.06.03 18:47:42.
