data_PCOD9255523
_publ_section_title
;
Structure prediction by ZEFSAII (Michael W. Deem and Ramdas Pophale) SiO2 
 PCOD9255523
Probable space group: C 2/C
;
_chemical_formula_sum "Si O2"
_cell_formula_units_Z 48
_cell_length_a 9.875906
_cell_length_b 16.559525
_cell_length_c 13.662351
_cell_angle_alpha 90.000000
_cell_angle_beta 74.003152
_cell_angle_gamma 90.000000
_cell_volume 2147.824285
_symmetry_space_group_name_H-M "C 2/C"
_symmetry_group_IT_number 15
_symmetry_cell_setting 'monoclinic'
loop_
_space_group_symop_operation_xyz
x,y,z
-x,y,1/2-z
-x,-y,-z
x,-y,1/2+z
1/2+x,1/2+y,z
1/2-x,1/2+y,1/2-z
1/2-x,1/2-y,-z
1/2+x,1/2-y,1/2+z
loop_
_atom_site_type_symbol
_atom_site_label
_atom_site_fract_x
_atom_site_fract_y
_atom_site_fract_z
Si Si1 0.339135 0.532945 0.309861
Si Si2 0.867186 0.814994 0.701085
Si Si3 0.133018 0.559902 0.970339
Si Si4 0.846406 0.036698 0.527242
Si Si5 0.247647 0.189730 0.856021
Si Si6 0.019759 0.276885 0.027732
O O1 0.500000 0.507843 0.250000
O O2 0.336734 0.575443 0.419171
O O3 0.229523 0.461426 0.355553
O O4 0.293129 0.600623 0.241195
O O5 0.786700 0.733230 0.747685
O O6 0.000000 0.819905 0.750000
O O7 0.927385 0.798795 0.582423
O O8 0.232024 0.466269 0.540346
O O9 0.077290 0.649793 0.984813
O O10 0.000000 0.500000 0.000000
O O11 0.811270 0.099681 0.618809
O O12 0.000000 0.000000 0.500000
O O13 0.385264 0.193377 0.898977
O O14 0.129484 0.247345 0.926205
#
# Coordination Sequence:
#
# PCOD9255523 Si02
#       6
#     8   8   8   8   8   8
#     4   9  18  33  54  80 112 153 192 242 297 361
#     4   9  17  28  51  83 106 139 201 242 286 344
#     4  10  19  34  57  84 116 145 198 247 300 351
#     4  10  21  34  54  80 117 157 187 231 308 369
#     4  10  17  31  53  77 117 145 190 242 294 344
#     4  10  18  32  56  87 109 147 197 257 285 348
#
# _framework density 22.348196999999999
#
# number of rings (size 3 to 8) (size 9 to 14) (size 15 to 20)
#    1.000    1.333    1.667    5.000    0.000    1.333 
#    0.000    0.833    0.000    0.000    0.000    0.000 
#    0.000    0.000    0.000    0.000    0.000    0.000 
#
# Total GULP energy -133811.908113 kJ/mol
# GULP energy per Si atom -5575.496171 kJ/mol
# Density = 2.229733 g / cm^3
# Si number density = 22.348197 Si / 1000 Ang^3
#
#
#
# Elastic Constant Matrix: (Units=GPa)
#
#
# Indices 1 2 3 4 5 6 
#
# 1 62.6609 43.1733 14.0856 0.0000 -21.0926 0.0000
# 2 43.1733 101.9406 4.8992 0.0000 -13.8626 0.0000
# 3 14.0856 4.8992 74.5753 0.0000 -12.4132 0.0000
# 4 0.0000 0.0000 0.0000 38.4407 0.0000 -15.2324
# 5 -21.0926 -13.8626 -12.4132 0.0000 23.3559 0.0000
# 6 0.0000 0.0000 0.0000 -15.2324 0.0000 30.2908
#
#
#
# Elastic Compliance Matrix: (Units=1/GPa)
#
#
# Indices 1 2 3 4 5 6 
#
# 1 0.029953 -0.009841 -0.001624 0.000000 0.020346 0.000000
# 2 -0.009841 0.013914 0.000922 0.000000 -0.000139 0.000000
# 3 -0.001624 0.000922 0.014813 0.000000 0.006953 0.000000
# 4 0.000000 0.000000 0.000000 0.032488 0.000000 0.016337
# 5 0.020346 -0.000139 0.006953 0.000000 0.064803 0.000000
# 6 0.000000 0.000000 0.000000 0.016337 0.000000 0.041229
#
#
# Mechanical properties :
#
#
# Convention : Reuss Voigt Hill
#
# Bulk Modulus (GPa) = 26.60055 40.38810 33.49433
# Shear Modulus (GPa) = 21.66207 30.21873 25.94040
#
# Velocity S-wave (km/s) = 3.11673 3.68119 3.41066
# Velocity P-wave (km/s) = 4.98805 6.01495 5.52541
#
# Compressibility (1/GPa) = 0.03759321
#
# Stress axis : x y z
#
# Youngs Moduli (GPa) = 33.38540 71.86925 67.50911
#
# Poissons Ratio (x) = 0.70724 0.10966
# Poissons Ratio (y) = 0.32854 -0.06221
# Poissons Ratio (z) = 0.05423 -0.06623
#
# Static dielectric constant tensor:
#      x y z
#    x 1.856280 0.000000 0.016520 
#    y 0.000000 1.913830 0.000000 
#    z 0.016520 0.000000 1.857020 
# 
# From -- ./inp_files/244332.got.cif
#   From: 2010.05.17/outbox.cif.g08.bks.cpg/sg15_123_cif.got.tgz:244332.got - 2010.06.03 18:47:42.
