data_PCOD9255453
_publ_section_title
;
Structure prediction by ZEFSAII (Michael W. Deem and Ramdas Pophale) SiO2 
 PCOD9255453
Probable space group: C 2/C
;
_chemical_formula_sum "Si O2"
_cell_formula_units_Z 56
_cell_length_a 30.095527
_cell_length_b 12.913576
_cell_length_c 11.538695
_cell_angle_alpha 90.000000
_cell_angle_beta 38.995011
_cell_angle_gamma 90.000000
_cell_volume 2821.826257
_symmetry_space_group_name_H-M "C 2/C"
_symmetry_group_IT_number 15
_symmetry_cell_setting 'monoclinic'
loop_
_space_group_symop_operation_xyz
x,y,z
-x,y,1/2-z
-x,-y,-z
x,-y,1/2+z
1/2+x,1/2+y,z
1/2-x,1/2+y,1/2-z
1/2-x,1/2-y,-z
1/2+x,1/2-y,1/2+z
loop_
_atom_site_type_symbol
_atom_site_label
_atom_site_fract_x
_atom_site_fract_y
_atom_site_fract_z
Si Si1 0.546270 0.338401 0.416906
Si Si2 0.191574 0.871105 0.717830
Si Si3 0.894933 0.859418 0.822944
Si Si4 0.572012 0.819615 0.055544
Si Si5 0.772699 0.311068 0.774770
Si Si6 0.076354 0.935005 0.125372
Si Si7 0.698425 0.599634 0.651359
O O1 0.469224 0.377599 0.606059
O O2 0.554801 0.229201 0.464676
O O3 0.558712 0.346845 0.255490
O O4 0.612945 0.403857 0.328386
O O5 0.165831 0.828967 0.645423
O O6 0.239735 0.813274 0.713825
O O7 0.223975 0.985533 0.631082
O O8 0.118818 0.886536 0.935402
O O9 0.912714 0.774127 0.883883
O O10 0.878654 0.969635 0.914225
O O11 0.500000 0.871678 0.250000
O O12 0.650208 0.866252 0.885200
O O13 0.780714 0.193049 0.804855
O O14 0.725125 0.365980 0.969796
O O15 0.000000 0.981107 0.250000
#
# Coordination Sequence:
#
# PCOD9255453 Si02
#       7
#     8   8   8   8   8   8   8
#     4  10  17  31  48  75 107 144 171 202 244 324
#     4  12  21  32  52  80 111 141 179 218 260 312
#     4  11  20  29  47  75 110 144 172 209 255 313
#     4   9  20  36  53  71 101 138 185 226 269 314
#     4  10  21  36  55  75 103 144 177 220 268 320
#     4  12  19  27  46  77 113 145 171 201 245 326
#     4  10  20  35  52  78 111 143 181 209 258 323
#
# _framework density 19.845303000000001
#
# number of rings (size 3 to 8) (size 9 to 14) (size 15 to 20)
#    0.000    1.429    4.286    4.286    0.000    0.571 
#    0.000    0.000    0.000    0.857    0.000    5.000 
#    0.000    0.000    0.000    0.000    0.000    0.000 
#
# Total GULP energy -156061.747460 kJ/mol
# GULP energy per Si atom -5573.633838 kJ/mol
# Density = 1.980013 g / cm^3
# Si number density = 19.845303 Si / 1000 Ang^3
#
#
#
# Elastic Constant Matrix: (Units=GPa)
#
#
# Indices 1 2 3 4 5 6 
#
# 1 121.6612 24.8001 21.6288 0.0000 3.0614 0.0000
# 2 24.8001 30.4309 12.2891 0.0000 5.2805 0.0000
# 3 21.6288 12.2891 92.7024 0.0000 0.4555 0.0000
# 4 0.0000 0.0000 0.0000 14.3767 0.0000 0.9674
# 5 3.0614 5.2805 0.4555 0.0000 34.0126 0.0000
# 6 0.0000 0.0000 0.0000 0.9674 0.0000 24.9095
#
#
#
# Elastic Compliance Matrix: (Units=1/GPa)
#
#
# Indices 1 2 3 4 5 6 
#
# 1 0.010012 -0.007680 -0.001319 0.000000 0.000309 0.000000
# 2 -0.007680 0.041605 -0.003695 0.000000 -0.005718 0.000000
# 3 -0.001319 -0.003695 0.011582 0.000000 0.000537 0.000000
# 4 0.000000 0.000000 0.000000 0.069739 0.000000 -0.002708
# 5 0.000309 -0.005718 0.000537 0.000000 0.030254 0.000000
# 6 0.000000 0.000000 0.000000 -0.002708 0.000000 0.040251
#
#
# Mechanical properties :
#
#
# Convention : Reuss Voigt Hill
#
# Bulk Modulus (GPa) = 26.44844 40.24784 33.34814
# Shear Modulus (GPa) = 20.70949 27.06486 23.88718
#
# Velocity S-wave (km/s) = 3.23390 3.69696 3.47316
# Velocity P-wave (km/s) = 5.22498 6.20872 5.73797
#
# Compressibility (1/GPa) = 0.03780942
#
# Stress axis : x y z
#
# Youngs Moduli (GPa) = 99.88139 24.03564 86.33897
#
# Poissons Ratio (x) = 0.18460 0.11391
# Poissons Ratio (y) = 0.76710 0.31905
# Poissons Ratio (z) = 0.13178 0.08882
#
# Static dielectric constant tensor:
#      x y z
#    x 1.777990 0.000000 0.002420 
#    y 0.000000 1.673400 0.000000 
#    z 0.002420 0.000000 1.754540 
# 
# From -- ./inp_files/126722.got.cif
#   From: 2010.05.17/outbox.cif.g08.bks.cpg/sg15_64_cif.got.tgz:126722.got - 2010.06.03 18:47:42.
