data_PCOD9255561
_publ_section_title
;
Structure prediction by ZEFSAII (Michael W. Deem and Ramdas Pophale) SiO2 
 PCOD9255561
Probable space group: C 2/C
;
_chemical_formula_sum "Si O2"
_cell_formula_units_Z 44
_cell_length_a 15.263105
_cell_length_b 11.033570
_cell_length_c 13.691150
_cell_angle_alpha 90.000000
_cell_angle_beta 53.689903
_cell_angle_gamma 90.000000
_cell_volume 1857.971473
_symmetry_space_group_name_H-M "C 2/C"
_symmetry_group_IT_number 15
_symmetry_cell_setting 'monoclinic'
loop_
_space_group_symop_operation_xyz
x,y,z
-x,y,1/2-z
-x,-y,-z
x,-y,1/2+z
1/2+x,1/2+y,z
1/2-x,1/2+y,1/2-z
1/2-x,1/2-y,-z
1/2+x,1/2-y,1/2+z
loop_
_atom_site_type_symbol
_atom_site_label
_atom_site_fract_x
_atom_site_fract_y
_atom_site_fract_z
Si Si1 0.204884 0.008081 0.605925
Si Si2 0.376825 0.992224 0.351678
Si Si3 0.592506 0.737555 0.617094
Si Si4 0.321909 0.455048 0.154749
Si Si5 0.000000 0.827262 0.750000
Si Si6 0.474149 0.693911 0.047455
O O1 0.319374 0.956695 0.491969
O O2 0.176436 0.127124 0.561212
O O3 0.208480 0.056271 0.712722
O O4 0.106725 0.911980 0.661933
O O5 0.500000 0.954981 0.250000
O O6 0.379899 0.138371 0.347718
O O7 0.288437 0.949528 0.332403
O O8 0.500000 0.683177 0.750000
O O9 0.560123 0.768685 0.526670
O O10 0.389122 0.581108 0.103562
O O11 0.407253 0.356504 0.060356
O O12 0.979115 0.765821 0.657436
#
# Coordination Sequence:
#
# PCOD9255561 Si02
#       6
#     8   8   8   8   4   8
#     4  11  18  33  54  80 115 149 190 240 284 337
#     4  11  24  35  51  86 122 156 190 228 291 359
#     4  11  19  33  57  91 120 145 188 246 299 330
#     4  10  19  32  54  81 115 152 192 239 287 335
#     4  10  18  30  58  88 110 144 196 246 290 326
#     4  10  17  31  55  88 114 142 194 251 288 326
#
# _framework density 23.681740999999999
#
# number of rings (size 3 to 8) (size 9 to 14) (size 15 to 20)
#    0.000    1.455    6.364    1.636    0.000    0.727 
#    0.000    0.000    0.000    0.000   11.818   12.727 
#    0.000    0.000    0.000    0.000    0.000    0.000 
#
# Total GULP energy -122813.239591 kJ/mol
# GULP energy per Si atom -5582.419981 kJ/mol
# Density = 2.362784 g / cm^3
# Si number density = 23.681741 Si / 1000 Ang^3
#
#
#
# Elastic Constant Matrix: (Units=GPa)
#
#
# Indices 1 2 3 4 5 6 
#
# 1 70.5476 2.6817 66.4150 0.0000 -9.5029 0.0000
# 2 2.6817 36.0668 7.8255 0.0000 -5.4531 0.0000
# 3 66.4150 7.8255 180.0606 0.0000 -16.1955 0.0000
# 4 0.0000 0.0000 0.0000 12.3382 0.0000 5.2030
# 5 -9.5029 -5.4531 -16.1955 0.0000 69.4955 0.0000
# 6 0.0000 0.0000 0.0000 5.2030 0.0000 -10.6092
#
#
#
# Elastic Compliance Matrix: (Units=1/GPa)
#
#
# Indices 1 2 3 4 5 6 
#
# 1 0.021805 0.000278 -0.007951 0.000000 0.001150 0.000000
# 2 0.000278 0.028256 -0.001152 0.000000 0.001987 0.000000
# 3 -0.007951 -0.001152 0.008611 0.000000 0.000829 0.000000
# 4 0.000000 0.000000 0.000000 0.067160 0.000000 0.032937
# 5 0.001150 0.001987 0.000829 0.000000 0.014896 0.000000
# 6 0.000000 0.000000 0.000000 0.032937 0.000000 -0.078105
#
#
# Mechanical properties :
#
#
# Convention : Reuss Voigt Hill
#
# Bulk Modulus (GPa) = 24.37751 48.94659 36.66205
# Shear Modulus (GPa) = 53.22159 28.22841 40.72500
#
# Velocity S-wave (km/s) = 4.74578 3.45627 4.15140
# Velocity P-wave (km/s) = 6.35186 6.05319 6.20432
#
# Compressibility (1/GPa) = 0.04102141
#
# Stress axis : x y z
#
# Youngs Moduli (GPa) = 45.86172 35.39080 116.12907
#
# Poissons Ratio (x) = -0.00983 0.92337
# Poissons Ratio (y) = -0.01274 0.13376
# Poissons Ratio (z) = 0.36466 0.04076
#
# Static dielectric constant tensor:
#      x y z
#    x 1.953600 0.000000 -0.019830 
#    y 0.000000 1.885750 0.000000 
#    z -0.019830 0.000000 1.966070 
# 
# From -- ./inp_files/153235.got.cif
#   From: 2010.05.17/outbox.cif.g08.bks.cpg/sg15_77_cif.got.tgz:153235.got - 2010.06.03 18:47:42.
