data_PCOD9255981
_publ_section_title
;
Structure prediction by ZEFSAII (Michael W. Deem and Ramdas Pophale) SiO2 
 PCOD9255981
Probable space group: C 2/C
;
_chemical_formula_sum "Si O2"
_cell_formula_units_Z 56
_cell_length_a 17.246401
_cell_length_b 8.631777
_cell_length_c 21.353597
_cell_angle_alpha 90.000000
_cell_angle_beta 119.067116
_cell_angle_gamma 90.000000
_cell_volume 2778.475739
_symmetry_space_group_name_H-M "C 2/C"
_symmetry_group_IT_number 15
_symmetry_cell_setting 'monoclinic'
loop_
_space_group_symop_operation_xyz
x,y,z
-x,y,1/2-z
-x,-y,-z
x,-y,1/2+z
1/2+x,1/2+y,z
1/2-x,1/2+y,1/2-z
1/2-x,1/2-y,-z
1/2+x,1/2-y,1/2+z
loop_
_atom_site_type_symbol
_atom_site_label
_atom_site_fract_x
_atom_site_fract_y
_atom_site_fract_z
Si Si1 0.617339 0.768783 0.471366
Si Si2 0.685208 0.356401 0.132084
Si Si3 0.000000 0.988414 0.250000
Si Si4 0.055322 0.273195 0.677322
Si Si5 0.066542 0.593043 0.479667
Si Si6 0.560948 0.625564 0.061598
Si Si7 0.633311 0.254595 0.842766
Si Si8 0.500000 0.987277 0.250000
O O1 0.649488 0.701950 0.550220
O O2 0.513304 0.712717 0.425406
O O3 0.662182 0.710844 0.425303
O O4 0.628264 0.954497 0.480491
O O5 0.642839 0.260568 0.172203
O O6 0.641623 0.527251 0.122125
O O7 0.788587 0.320100 0.167292
O O8 0.085392 0.096583 0.294901
O O9 0.018932 0.879307 0.197800
O O10 0.062259 0.402687 0.733244
O O11 0.985580 0.334648 0.598949
O O12 0.099869 0.740479 0.531932
O O13 0.000000 0.500000 0.500000
O O14 0.500000 0.500000 0.000000
O O15 0.557720 0.123042 0.816397
#
# Coordination Sequence:
#
# PCOD9255981 Si02
#       8
#     8   8   4   8   8   8   8   4
#     4  10  19  36  62  89 120 156 188 244 309 365
#     4  11  22  36  63  92 120 147 190 267 298 344
#     4  10  26  40  62  82 114 180 198 242 286 366
#     4  11  20  41  62  84 115 157 212 235 290 359
#     4  10  17  33  63  90 115 152 197 238 296 361
#     4   9  17  31  56  92 111 148 187 227 310 347
#     4  11  23  41  57  88 122 153 206 241 301 351
#     4  10  24  40  62  76 112 174 200 236 282 362
#
# _framework density 20.154934999999998
#
# number of rings (size 3 to 8) (size 9 to 14) (size 15 to 20)
#    0.000    1.714    5.714    1.286    2.000    1.143 
#    0.000    3.571    0.000    0.000    0.000    0.000 
#    0.000    0.000    0.000    0.000    0.000    0.000 
#
# Total GULP energy -156032.138067 kJ/mol
# GULP energy per Si atom -5572.576360 kJ/mol
# Density = 2.010906 g / cm^3
# Si number density = 20.154935 Si / 1000 Ang^3
#
#
#
# Elastic Constant Matrix: (Units=GPa)
#
#
# Indices 1 2 3 4 5 6 
#
# 1 92.4360 33.4978 21.0831 0.0000 -8.9185 0.0000
# 2 33.4978 118.0218 30.3685 0.0000 -1.2970 0.0000
# 3 21.0831 30.3685 55.2489 0.0000 -16.4099 0.0000
# 4 0.0000 0.0000 0.0000 30.0647 0.0000 -9.0886
# 5 -8.9185 -1.2970 -16.4099 0.0000 26.4631 0.0000
# 6 0.0000 0.0000 0.0000 -9.0886 0.0000 19.0242
#
#
#
# Elastic Compliance Matrix: (Units=1/GPa)
#
#
# Indices 1 2 3 4 5 6 
#
# 1 0.012696 -0.002945 -0.002450 0.000000 0.002616 0.000000
# 2 -0.002945 0.010828 -0.006086 0.000000 -0.004236 0.000000
# 3 -0.002450 -0.006086 0.027024 0.000000 0.015634 0.000000
# 4 0.000000 0.000000 0.000000 0.038876 0.000000 0.018573
# 5 0.002616 -0.004236 0.015634 0.000000 0.048157 0.000000
# 6 0.000000 0.000000 0.000000 0.018573 0.000000 0.061437
#
#
# Mechanical properties :
#
#
# Convention : Reuss Voigt Hill
#
# Bulk Modulus (GPa) = 36.24866 48.40061 42.32463
# Shear Modulus (GPa) = 21.62856 27.16089 24.39473
#
# Velocity S-wave (km/s) = 3.27940 3.67496 3.48280
# Velocity P-wave (km/s) = 5.68888 6.48641 6.10069
#
# Compressibility (1/GPa) = 0.02758723
#
# Stress axis : x y z
#
# Youngs Moduli (GPa) = 78.76231 92.35045 37.00459
#
# Poissons Ratio (x) = 0.27193 0.09065
# Poissons Ratio (y) = 0.23192 0.22523
# Poissons Ratio (z) = 0.19294 0.56209
#
# Static dielectric constant tensor:
#      x y z
#    x 1.751820 0.000000 -0.001100 
#    y 0.000000 1.741290 0.000000 
#    z -0.001100 0.000000 1.746510 
# 
# From -- ./inp_files/247605.got.cif
#   From: 2010.05.17/outbox.cif.g08.bks.cpg/sg15_124_cif.got.tgz:247605.got - 2010.06.03 18:47:42.
