data_PCOD9255749
_publ_section_title
;
Structure prediction by ZEFSAII (Michael W. Deem and Ramdas Pophale) SiO2 
 PCOD9255749
Probable space group: C 2/C
;
_chemical_formula_sum "Si O2"
_cell_formula_units_Z 44
_cell_length_a 11.830024
_cell_length_b 6.827523
_cell_length_c 28.468814
_cell_angle_alpha 90.000000
_cell_angle_beta 40.925559
_cell_angle_gamma 90.000000
_cell_volume 1506.298828
_symmetry_space_group_name_H-M "C 2/C"
_symmetry_group_IT_number 15
_symmetry_cell_setting 'monoclinic'
loop_
_space_group_symop_operation_xyz
x,y,z
-x,y,1/2-z
-x,-y,-z
x,-y,1/2+z
1/2+x,1/2+y,z
1/2-x,1/2+y,1/2-z
1/2-x,1/2-y,-z
1/2+x,1/2-y,1/2+z
loop_
_atom_site_type_symbol
_atom_site_label
_atom_site_fract_x
_atom_site_fract_y
_atom_site_fract_z
Si Si1 0.817381 0.399406 0.072248
Si Si2 0.190475 0.559432 0.274125
Si Si3 0.000000 0.590203 0.250000
Si Si4 0.408848 0.588549 0.981690
Si Si5 0.736834 0.737432 0.153159
Si Si6 0.451472 0.300826 0.625528
O O1 0.698141 0.582727 0.123982
O O2 0.850784 0.284166 0.110739
O O3 0.000000 0.500000 0.000000
O O4 0.770228 0.240149 0.046874
O O5 0.076574 0.689785 0.272556
O O6 0.286628 0.644145 0.288818
O O7 0.347864 0.534580 0.187668
O O8 0.068362 0.388780 0.334087
O O9 0.133406 0.436565 0.184845
O O10 0.560405 0.721353 0.913612
O O11 0.388074 0.411159 0.951104
O O12 0.500000 0.500000 0.000000
#
# Coordination Sequence:
#
# PCOD9255749 Si02
#       6
#     8   8   4   8   8   8
#     4   8  17  31  57  86 111 161 205 239 298 362
#     4  11  21  36  59  91 121 160 197 248 307 361
#     4  12  22  36  66  86 128 162 190 254 318 358
#     4   9  16  32  62  84 113 165 200 242 302 358
#     4  10  20  37  59  92 119 155 208 244 308 367
#     4  10  17  32  56  85 121 147 202 247 291 361
#
# _framework density 29.210673
#
# number of rings (size 3 to 8) (size 9 to 14) (size 15 to 20)
#    0.000    2.182    3.636    0.000    0.000    0.000 
#    0.000    3.636    0.000   41.455    0.000    0.000 
#    0.000    0.000    0.000    0.000    0.000    0.000 
#
# Total GULP energy -122615.105407 kJ/mol
# GULP energy per Si atom -5573.413882 kJ/mol
# Density = 2.914419 g / cm^3
# Si number density = 29.210673 Si / 1000 Ang^3
#
#
#
# Elastic Constant Matrix: (Units=GPa)
#
#
# Indices 1 2 3 4 5 6 
#
# 1 86.8899 13.4268 32.1923 -0.0019 23.1356 -0.0005
# 2 13.4268 123.0053 61.3445 -0.0013 5.5227 -0.0006
# 3 32.1923 61.3445 180.6291 -0.0026 43.7344 -0.0016
# 4 -0.0019 -0.0013 -0.0026 82.2442 -0.0011 0.8898
# 5 23.1356 5.5227 43.7344 -0.0011 50.7239 -0.0003
# 6 -0.0005 -0.0006 -0.0016 0.8898 -0.0003 28.4749
#
#
#
# Elastic Compliance Matrix: (Units=1/GPa)
#
#
# Indices 1 2 3 4 5 6 
#
# 1 0.013347 -0.000809 -0.000823 0.000000 -0.005290 0.000000
# 2 -0.000809 0.010049 -0.003909 0.000000 0.002645 0.000000
# 3 -0.000823 -0.003909 0.008615 0.000000 -0.006627 0.000000
# 4 0.000000 0.000000 0.000000 0.012163 0.000000 -0.000380
# 5 -0.005290 0.002645 -0.006627 0.000000 0.027553 0.000000
# 6 0.000000 0.000000 0.000000 -0.000380 0.000000 0.035131
#
#
# Mechanical properties :
#
#
# Convention : Reuss Voigt Hill
#
# Bulk Modulus (GPa) = 47.78123 67.16130 57.47127
# Shear Modulus (GPa) = 40.02684 51.19264 45.60974
#
# Velocity S-wave (km/s) = 3.70575 4.19087 3.95575
# Velocity P-wave (km/s) = 5.89093 6.81614 6.37035
#
# Compressibility (1/GPa) = 0.02092872
#
# Stress axis : x y z
#
# Youngs Moduli (GPa) = 74.92127 99.51497 116.07667
#
# Poissons Ratio (x) = 0.08049 0.09557
# Poissons Ratio (y) = 0.06060 0.45375
# Poissons Ratio (z) = 0.06168 0.38901
#
# Static dielectric constant tensor:
#      x y z
#    x 2.369170 0.000000 -0.046750 
#    y 0.000000 2.501700 -0.000010 
#    z -0.046750 -0.000010 2.160870 
# 
# From -- ./inp_files/294738.got.cif
#   From: 2010.05.17/outbox.cif.g08.bks.cpg/sg15_148_cif.got.tgz:294738.got - 2010.06.03 18:47:42.
