data_PCOD9255730
_publ_section_title
;
Structure prediction by ZEFSAII (Michael W. Deem and Ramdas Pophale) SiO2 
 PCOD9255730
Probable space group: C 2/C
;
_chemical_formula_sum "Si O2"
_cell_formula_units_Z 56
_cell_length_a 11.303251
_cell_length_b 20.264737
_cell_length_c 23.508292
_cell_angle_alpha 90.000000
_cell_angle_beta 144.559242
_cell_angle_gamma 90.000000
_cell_volume 3122.404954
_symmetry_space_group_name_H-M "C 2/C"
_symmetry_group_IT_number 15
_symmetry_cell_setting 'monoclinic'
loop_
_space_group_symop_operation_xyz
x,y,z
-x,y,1/2-z
-x,-y,-z
x,-y,1/2+z
1/2+x,1/2+y,z
1/2-x,1/2+y,1/2-z
1/2-x,1/2-y,-z
1/2+x,1/2-y,1/2+z
loop_
_atom_site_type_symbol
_atom_site_label
_atom_site_fract_x
_atom_site_fract_y
_atom_site_fract_z
Si Si1 0.655596 0.228986 0.229384
Si Si2 0.810594 0.027829 0.849049
Si Si3 0.000000 0.364061 0.250000
Si Si4 0.000000 0.866022 0.750000
Si Si5 0.185061 0.578331 0.210437
Si Si6 0.708599 0.722579 0.093728
Si Si7 0.229370 0.750321 0.125955
Si Si8 0.735999 0.570354 0.063889
O O1 0.679643 0.149753 0.238220
O O2 0.417205 0.246092 0.145050
O O3 0.773074 0.245926 0.333498
O O4 0.721477 0.251712 0.192367
O O5 0.654626 0.087638 0.778691
O O6 0.785807 0.976929 0.788598
O O7 0.751564 0.985483 0.882273
O O8 0.035517 0.055816 0.948491
O O9 0.145913 0.315385 0.342966
O O10 0.167057 0.909851 0.784317
O O11 0.140051 0.813950 0.840373
O O12 0.943917 0.565350 0.108998
O O13 0.713211 0.642693 0.084534
O O14 0.499746 0.749028 0.985677
#
# Coordination Sequence:
#
# PCOD9255730 Si02
#       8
#     8   8   4   4   8   8   8   8
#     4   9  19  32  54  81 110 147 186 227 272 333
#     4  11  19  32  54  86 111 135 177 237 285 328
#     4  11  20  32  52  82 116 137 170 232 294 323
#     4   9  22  38  56  74 108 157 194 218 264 335
#     4  10  18  36  55  76 111 148 187 229 264 331
#     4  10  17  32  55  83 107 143 187 229 278 334
#     4  10  20  36  52  79 116 146 181 227 282 331
#     4  10  19  30  55  87 109 137 182 226 288 332
#
# _framework density 17.934894
#
# number of rings (size 3 to 8) (size 9 to 14) (size 15 to 20)
#    0.000    2.000    4.286    0.429    0.000    0.000 
#    0.000   10.000    0.000    1.714    0.000    0.000 
#    0.000    0.000    0.000    0.000    0.000    0.000 
#
# Total GULP energy -155874.003740 kJ/mol
# GULP energy per Si atom -5566.928705 kJ/mol
# Density = 1.789407 g / cm^3
# Si number density = 17.934894 Si / 1000 Ang^3
#
#
#
# Elastic Constant Matrix: (Units=GPa)
#
#
# Indices 1 2 3 4 5 6 
#
# 1 71.2369 21.8346 60.9191 -0.0001 23.9205 0.0000
# 2 21.8346 56.8384 34.5263 0.0001 7.4854 0.0000
# 3 60.9191 34.5263 132.0601 0.0007 19.5875 0.0002
# 4 -0.0001 0.0001 0.0007 21.1164 0.0002 5.1173
# 5 23.9205 7.4854 19.5875 0.0002 21.1386 0.0001
# 6 0.0000 0.0000 0.0002 5.1173 0.0001 17.9283
#
#
#
# Elastic Compliance Matrix: (Units=1/GPa)
#
#
# Indices 1 2 3 4 5 6 
#
# 1 0.032626 -0.002732 -0.010438 0.000001 -0.026280 0.000000
# 2 -0.002732 0.021279 -0.004225 0.000000 -0.000529 0.000000
# 3 -0.010438 -0.004225 0.013353 0.000000 0.000934 0.000000
# 4 0.000001 0.000000 0.000000 0.050876 -0.000001 -0.014522
# 5 -0.026280 -0.000529 0.000934 -0.000001 0.076367 0.000000
# 6 0.000000 0.000000 0.000000 -0.014522 0.000000 0.059923
#
#
# Mechanical properties :
#
#
# Convention : Reuss Voigt Hill
#
# Bulk Modulus (GPa) = 30.79843 54.96616 42.88230
# Shear Modulus (GPa) = 16.66473 21.56036 19.11254
#
# Velocity S-wave (km/s) = 3.05155 3.47096 3.26799
# Velocity P-wave (km/s) = 5.44294 6.83941 6.18074
#
# Compressibility (1/GPa) = 0.03246919
#
# Stress axis : x y z
#
# Youngs Moduli (GPa) = 30.65077 46.99446 74.88771
#
# Poissons Ratio (x) = 0.12837 0.78169
# Poissons Ratio (y) = 0.08373 0.31638
# Poissons Ratio (z) = 0.31994 0.19854
#
# Static dielectric constant tensor:
#      x y z
#    x 1.650400 0.000000 0.016270 
#    y 0.000000 1.623310 0.000000 
#    z 0.016270 0.000000 1.617610 
# 
# From -- ./inp_files/293707.got.cif
#   From: 2010.05.17/outbox.cif.g08.bks.cpg/sg15_147_cif.got.tgz:293707.got - 2010.06.03 18:47:42.
