data_PCOD9255079
_publ_section_title
;
Structure prediction by ZEFSAII (Michael W. Deem and Ramdas Pophale) SiO2 
 PCOD9255079
Probable space group: C 2/C
;
_chemical_formula_sum "Si O2"
_cell_formula_units_Z 64
_cell_length_a 18.998351
_cell_length_b 6.671648
_cell_length_c 19.379450
_cell_angle_alpha 90.000000
_cell_angle_beta 92.724061
_cell_angle_gamma 90.000000
_cell_volume 2453.575639
_symmetry_space_group_name_H-M "C 2/C"
_symmetry_group_IT_number 15
_symmetry_cell_setting 'monoclinic'
loop_
_space_group_symop_operation_xyz
x,y,z
-x,y,1/2-z
-x,-y,-z
x,-y,1/2+z
1/2+x,1/2+y,z
1/2-x,1/2+y,1/2-z
1/2-x,1/2-y,-z
1/2+x,1/2-y,1/2+z
loop_
_atom_site_type_symbol
_atom_site_label
_atom_site_fract_x
_atom_site_fract_y
_atom_site_fract_z
Si Si1 0.993777 0.885622 0.086195
Si Si2 0.756915 0.037577 0.652138
Si Si3 0.787971 0.579643 0.694835
Si Si4 0.312032 0.879953 0.968276
Si Si5 0.945912 0.368724 0.189977
Si Si6 0.138626 0.922327 0.145234
Si Si7 0.904949 0.896437 0.202725
Si Si8 0.450477 0.797163 0.041362
O O1 0.066856 0.005453 0.107749
O O2 0.004809 0.721042 0.026881
O O3 0.965725 0.805662 0.157820
O O4 0.940484 0.056315 0.055848
O O5 0.776846 0.801374 0.663125
O O6 0.719297 0.063353 0.576971
O O7 0.832812 0.135431 0.658038
O O8 0.718665 0.082238 0.722529
O O9 0.869176 0.529271 0.685776
O O10 0.715702 0.475075 0.661837
O O11 0.347057 0.753212 0.908121
O O12 0.250000 0.750000 0.000000
O O13 0.375937 0.903854 0.023780
O O14 0.927180 0.133664 0.206774
O O15 0.978596 0.372497 0.115405
O O16 0.000000 0.438504 0.250000
O O17 0.115032 0.847449 0.219671
#
# Coordination Sequence:
#
# PCOD9255079 Si02
#       8
#     8   8   8   8   8   8   8   8
#     4   9  15  24  40  68 109 137 157 206 265 306
#     4   9  18  31  51  76 104 139 172 214 260 303
#     4   9  18  32  50  76 103 128 170 217 255 303
#     4  10  17  28  45  70 103 136 170 211 259 309
#     4  10  18  30  49  72  96 131 176 215 250 303
#     4   9  16  25  43  70 101 134 162 203 261 305
#     4   9  15  26  44  74 106 131 170 216 259 301
#     4   9  17  26  41  70 102 134 170 206 254 310
#
# _framework density 26.084381
#
# number of rings (size 3 to 8) (size 9 to 14) (size 15 to 20)
#    0.000    2.750    0.000    4.875    0.000    0.000 
#    0.000    0.000    0.000   14.250    0.000   44.625 
#    0.000    0.000    0.000    0.000    0.000    0.000 
#
# Total GULP energy -178530.511457 kJ/mol
# GULP energy per Si atom -5579.078483 kJ/mol
# Density = 2.602501 g / cm^3
# Si number density = 26.084381 Si / 1000 Ang^3
#
#
#
# Elastic Constant Matrix: (Units=GPa)
#
#
# Indices 1 2 3 4 5 6 
#
# 1 151.0740 19.3879 69.9927 0.0000 12.6023 0.0000
# 2 19.3879 66.0118 25.0645 0.0000 -1.6014 0.0000
# 3 69.9927 25.0645 187.3385 0.0000 4.3552 0.0000
# 4 0.0000 0.0000 0.0000 33.1964 0.0000 -5.6040
# 5 12.6023 -1.6014 4.3552 0.0000 56.0113 0.0000
# 6 0.0000 0.0000 0.0000 -5.6040 0.0000 22.1690
#
#
#
# Elastic Compliance Matrix: (Units=1/GPa)
#
#
# Indices 1 2 3 4 5 6 
#
# 1 0.008263 -0.001380 -0.002864 0.000000 -0.001676 0.000000
# 2 -0.001380 0.016212 -0.001674 0.000000 0.000904 0.000000
# 3 -0.002864 -0.001674 0.006630 0.000000 0.000081 0.000000
# 4 0.000000 0.000000 0.000000 0.031467 0.000000 0.007954
# 5 -0.001676 0.000904 0.000081 0.000000 0.018250 0.000000
# 6 0.000000 0.000000 0.000000 0.007954 0.000000 0.047119
#
#
# Mechanical properties :
#
#
# Convention : Reuss Voigt Hill
#
# Bulk Modulus (GPa) = 51.89831 70.36826 61.13328
# Shear Modulus (GPa) = 34.19990 41.60729 37.90360
#
# Velocity S-wave (km/s) = 3.62488 3.99821 3.81611
# Velocity P-wave (km/s) = 6.12039 6.95341 6.55016
#
# Compressibility (1/GPa) = 0.01926845
#
# Stress axis : x y z
#
# Youngs Moduli (GPa) = 121.02328 61.68315 150.83125
#
# Poissons Ratio (x) = 0.08514 0.43191
# Poissons Ratio (y) = 0.16704 0.25255
# Poissons Ratio (z) = 0.34655 0.10328
#
# Static dielectric constant tensor:
#      x y z
#    x 2.192880 0.000000 0.093700 
#    y 0.000000 2.286110 0.000000 
#    z 0.093700 0.000000 2.093870 
# 
# From -- ./inp_files/214586.got.cif
#   From: 2010.05.17/outbox.cif.g08.bks.cpg/sg15_108_cif.got.tgz:214586.got - 2010.06.03 18:47:42.
