data_PCOD9255236
_publ_section_title
;
Structure prediction by ZEFSAII (Michael W. Deem and Ramdas Pophale) SiO2 
 PCOD9255236
Probable space group: C 2/C
;
_chemical_formula_sum "Si O2"
_cell_formula_units_Z 56
_cell_length_a 17.228207
_cell_length_b 6.899416
_cell_length_c 21.762000
_cell_angle_alpha 90.000000
_cell_angle_beta 53.794001
_cell_angle_gamma 90.000000
_cell_volume 2087.229050
_symmetry_space_group_name_H-M "C 2/C"
_symmetry_group_IT_number 15
_symmetry_cell_setting 'monoclinic'
loop_
_space_group_symop_operation_xyz
x,y,z
-x,y,1/2-z
-x,-y,-z
x,-y,1/2+z
1/2+x,1/2+y,z
1/2-x,1/2+y,1/2-z
1/2-x,1/2-y,-z
1/2+x,1/2-y,1/2+z
loop_
_atom_site_type_symbol
_atom_site_label
_atom_site_fract_x
_atom_site_fract_y
_atom_site_fract_z
Si Si1 0.113016 0.081130 0.136768
Si Si2 0.171660 0.839053 0.740668
Si Si3 0.226182 0.049238 0.480913
Si Si4 0.368173 0.223532 0.194906
Si Si5 0.391463 0.126256 0.315913
Si Si6 0.461905 0.300361 0.603077
Si Si7 0.982201 0.203478 0.962823
O O1 0.098433 0.850883 0.162309
O O2 0.123291 0.183449 0.197218
O O3 0.206204 0.084587 0.049255
O O4 0.033808 0.167194 0.126996
O O5 0.285163 0.813401 0.684392
O O6 0.131780 0.722902 0.818736
O O7 0.143380 0.056814 0.774383
O O8 0.250000 0.250000 0.500000
O O9 0.317398 0.015589 0.394965
O O10 0.123854 0.110661 0.497716
O O11 0.345417 0.116551 0.269531
O O12 0.472950 0.177129 0.115799
O O13 0.500000 0.063608 0.250000
O O14 0.450039 0.515005 0.578428
O O15 0.492639 0.201253 0.524981
#
# Coordination Sequence:
#
# PCOD9255236 Si02
#       7
#     8   8   8   8   8   8   8
#     4   9  17  30  50  77 101 132 180 228 262 306
#     4  10  19  33  54  79 106 137 177 223 269 318
#     4   9  16  27  47  73 102 132 170 223 271 309
#     4  10  20  33  53  80 107 139 177 221 269 318
#     4  10  17  29  52  78 103 132 177 226 268 314
#     4   9  16  29  51  75  99 132 179 225 257 302
#     4   9  17  29  47  76 105 130 172 223 265 307
#
# _framework density 26.829833000000001
#
# number of rings (size 3 to 8) (size 9 to 14) (size 15 to 20)
#    0.000    2.571    0.000    5.571    0.000    1.143 
#    0.000    0.714    0.000   23.143    0.000    0.000 
#    0.000    0.000    0.000    0.000    0.000    0.000 
#
# Total GULP energy -156105.091864 kJ/mol
# GULP energy per Si atom -5575.181852 kJ/mol
# Density = 2.676877 g / cm^3
# Si number density = 26.829833 Si / 1000 Ang^3
#
#
#
# Elastic Constant Matrix: (Units=GPa)
#
#
# Indices 1 2 3 4 5 6 
#
# 1 122.3471 3.1610 76.8269 0.0002 25.9446 0.0016
# 2 3.1610 67.3307 47.0065 0.0002 5.5832 0.0031
# 3 76.8269 47.0065 264.8310 0.0001 8.9995 0.0000
# 4 0.0002 0.0002 0.0001 43.7743 -0.0001 5.1083
# 5 25.9446 5.5832 8.9995 -0.0001 54.6908 0.0002
# 6 0.0016 0.0031 0.0000 5.1083 0.0002 22.3001
#
#
#
# Elastic Compliance Matrix: (Units=1/GPa)
#
#
# Indices 1 2 3 4 5 6 
#
# 1 0.011426 0.002372 -0.003563 0.000000 -0.005076 -0.000001
# 2 0.002372 0.017530 -0.003721 0.000000 -0.002303 -0.000003
# 3 -0.003563 -0.003721 0.005430 0.000000 0.001177 0.000001
# 4 0.000000 0.000000 0.000000 0.023472 0.000000 -0.005377
# 5 -0.005076 -0.002303 0.001177 0.000000 0.020734 0.000000
# 6 -0.000001 -0.000003 0.000001 -0.005377 0.000000 0.046074
#
#
# Mechanical properties :
#
#
# Convention : Reuss Voigt Hill
#
# Bulk Modulus (GPa) = 40.71470 78.72196 59.71833
# Shear Modulus (GPa) = 35.04382 45.98733 40.51557
#
# Velocity S-wave (km/s) = 3.61799 4.14458 3.89021
# Velocity P-wave (km/s) = 5.71500 7.23245 6.51804
#
# Compressibility (1/GPa) = 0.02456115
#
# Stress axis : x y z
#
# Youngs Moduli (GPa) = 87.51851 57.04612 184.15440
#
# Poissons Ratio (x) = -0.13532 0.65619
# Poissons Ratio (y) = -0.20761 0.68531
# Poissons Ratio (z) = 0.31185 0.21229
#
# Static dielectric constant tensor:
#      x y z
#    x 2.039260 0.000000 -0.005230 
#    y 0.000000 2.294360 0.000000 
#    z -0.005230 0.000000 2.291360 
# 
# From -- ./inp_files/248322.got.cif
#   From: 2010.05.17/outbox.cif.g08.bks.cpg/sg15_125_cif.got.tgz:248322.got - 2010.06.03 18:47:42.
