data_PCOD9255993
_publ_section_title
;
Structure prediction by ZEFSAII (Michael W. Deem and Ramdas Pophale) SiO2 
 PCOD9255993
Probable space group: C 2/C
;
_chemical_formula_sum "Si O2"
_cell_formula_units_Z 48
_cell_length_a 22.130914
_cell_length_b 15.323591
_cell_length_c 8.690427
_cell_angle_alpha 90.000000
_cell_angle_beta 113.613381
_cell_angle_gamma 90.000000
_cell_volume 2700.375190
_symmetry_space_group_name_H-M "C 2/C"
_symmetry_group_IT_number 15
_symmetry_cell_setting 'monoclinic'
loop_
_space_group_symop_operation_xyz
x,y,z
-x,y,1/2-z
-x,-y,-z
x,-y,1/2+z
1/2+x,1/2+y,z
1/2-x,1/2+y,1/2-z
1/2-x,1/2-y,-z
1/2+x,1/2-y,1/2+z
loop_
_atom_site_type_symbol
_atom_site_label
_atom_site_fract_x
_atom_site_fract_y
_atom_site_fract_z
Si Si1 0.053291 0.576314 0.062935
Si Si2 0.000000 0.682710 0.750000
Si Si3 0.263310 0.710572 0.182296
Si Si4 0.701798 0.050680 0.285498
Si Si5 0.500000 0.782776 0.750000
Si Si6 0.597066 0.752621 0.093530
Si Si7 0.788409 0.378031 0.362404
O O1 0.123615 0.542028 0.184578
O O2 0.032526 0.651904 0.160088
O O3 0.000000 0.500000 0.000000
O O4 0.050995 0.622053 0.894828
O O5 0.955740 0.735589 0.825124
O O6 0.224774 0.624145 0.187645
O O7 0.341510 0.694259 0.289770
O O8 0.247438 0.790176 0.284677
O O9 0.250000 0.750000 0.000000
O O10 0.717103 0.085787 0.471224
O O11 0.729803 0.955957 0.271638
O O12 0.444072 0.729808 0.601210
O O13 0.636665 0.843092 0.094406
#
# Coordination Sequence:
#
# PCOD9255993 Si02
#       7
#     8   4   8   8   4   8   8
#     4  11  21  26  46  70 105 150 181 214 269 328
#     4  10  19  30  44  68 106 139 186 220 271 334
#     4  10  21  38  55  76 113 151 198 236 282 340
#     4  12  21  36  55  74 119 152 192 238 278 334
#     4  10  17  34  42  70 108 139 180 228 261 340
#     4   9  20  35  50  77 109 148 192 223 289 334
#     4  10  23  34  53  82 106 157 195 224 285 339
#
# _framework density 17.775307999999999
#
# number of rings (size 3 to 8) (size 9 to 14) (size 15 to 20)
#    1.000    0.667    1.667    5.000    4.667    0.000 
#    0.000    0.000    0.000    0.000    0.000    0.000 
#    0.000   45.333    0.000    0.000    0.000    0.000 
#
# Total GULP energy -133693.463065 kJ/mol
# GULP energy per Si atom -5570.560961 kJ/mol
# Density = 1.773485 g / cm^3
# Si number density = 17.775308 Si / 1000 Ang^3
#
#
#
# Elastic Constant Matrix: (Units=GPa)
#
#
# Indices 1 2 3 4 5 6 
#
# 1 39.4093 8.6196 9.2574 0.0000 0.9143 0.0000
# 2 8.6196 41.7057 -4.0293 0.0000 1.8248 0.0000
# 3 9.2574 -4.0293 85.4436 0.0000 1.6231 0.0000
# 4 0.0000 0.0000 0.0000 179.0071 0.0000 -307.9326
# 5 0.9143 1.8248 1.6231 0.0000 29.3923 0.0000
# 6 0.0000 0.0000 0.0000 -307.9326 0.0000 639.8875
#
#
#
# Elastic Compliance Matrix: (Units=1/GPa)
#
#
# Indices 1 2 3 4 5 6 
#
# 1 0.027452 -0.005974 -0.003250 0.000000 -0.000304 0.000000
# 2 -0.005974 0.025459 0.001876 0.000000 -0.001498 0.000000
# 3 -0.003250 0.001876 0.012157 0.000000 -0.000687 0.000000
# 4 0.000000 0.000000 0.000000 0.032446 0.000000 0.015614
# 5 -0.000304 -0.001498 -0.000687 0.000000 0.034163 0.000000
# 6 0.000000 0.000000 0.000000 0.015614 0.000000 0.009077
#
#
# Mechanical properties :
#
#
# Convention : Reuss Voigt Hill
#
# Bulk Modulus (GPa) = 19.85236 21.58376 20.71806
# Shear Modulus (GPa) = 29.02914 179.83810 104.43362
#
# Velocity S-wave (km/s) = 4.04557 10.06939 7.67331
# Velocity P-wave (km/s) = 5.74586 12.13915 9.49668
#
# Compressibility (1/GPa) = 0.05037183
#
# Stress axis : x y z
#
# Youngs Moduli (GPa) = 36.42724 39.27858 82.25510
#
# Poissons Ratio (x) = 0.23467 0.26735
# Poissons Ratio (y) = 0.21763 -0.15434
# Poissons Ratio (z) = 0.11840 -0.07370
#
# Static dielectric constant tensor:
#      x y z
#    x 1.591980 0.000000 0.041060 
#    y 0.000000 1.589470 0.000000 
#    z 0.041060 0.000000 1.625880 
# 
# From -- ./inp_files/55447.got.cif
#   From: 2010.05.17/outbox.cif.g08.bks.cpg/sg15_28_cif.got.tgz:55447.got - 2010.06.03 18:47:42.
