data_PCOD9255691
_publ_section_title
;
Structure prediction by ZEFSAII (Michael W. Deem and Ramdas Pophale) SiO2 
 PCOD9255691
Probable space group: C 2/C
;
_chemical_formula_sum "Si O2"
_cell_formula_units_Z 64
_cell_length_a 22.096803
_cell_length_b 10.058949
_cell_length_c 19.179498
_cell_angle_alpha 90.000000
_cell_angle_beta 130.148226
_cell_angle_gamma 90.000000
_cell_volume 3258.577209
_symmetry_space_group_name_H-M "C 2/C"
_symmetry_group_IT_number 15
_symmetry_cell_setting 'monoclinic'
loop_
_space_group_symop_operation_xyz
x,y,z
-x,y,1/2-z
-x,-y,-z
x,-y,1/2+z
1/2+x,1/2+y,z
1/2-x,1/2+y,1/2-z
1/2-x,1/2-y,-z
1/2+x,1/2-y,1/2+z
loop_
_atom_site_type_symbol
_atom_site_label
_atom_site_fract_x
_atom_site_fract_y
_atom_site_fract_z
Si Si1 0.663661 0.608004 0.182491
Si Si2 0.416955 0.212615 0.323302
Si Si3 0.679404 0.938769 0.853227
Si Si4 0.082807 0.588995 0.413105
Si Si5 0.214754 0.382970 0.250119
Si Si6 0.008704 0.003862 0.590792
Si Si7 0.647832 0.623753 0.004496
Si Si8 0.406953 0.029530 0.436628
O O1 0.708623 0.466124 0.218133
O O2 0.717237 0.725023 0.252436
O O3 0.577549 0.603551 0.154883
O O4 0.652485 0.636578 0.092023
O O5 0.347150 0.184068 0.216763
O O6 0.489086 0.116981 0.351007
O O7 0.452089 0.358438 0.354861
O O8 0.395242 0.165449 0.385321
O O9 0.612801 0.959691 0.861233
O O10 0.763754 0.912205 0.952200
O O11 0.692428 0.058269 0.808803
O O12 0.120998 0.735167 0.454128
O O13 0.110705 0.490395 0.495349
O O14 0.144459 0.424471 0.145288
O O15 0.920625 0.012206 0.557340
O O16 0.000000 0.000000 0.500000
O O17 0.500000 0.000000 0.500000
#
# Coordination Sequence:
#
# PCOD9255691 Si02
#       8
#     8   8   8   8   8   8   8   8
#     4  10  20  34  56  83 117 146 186 247 286 342
#     4   9  19  32  52  85 112 143 193 238 283 336
#     4  10  20  32  54  84 116 147 187 239 287 340
#     4  10  17  32  53  81 115 150 184 232 288 339
#     4  10  21  35  53  87 115 144 194 236 295 341
#     4   9  19  33  55  80 110 145 188 234 290 330
#     4   9  18  33  50  82 112 146 192 227 281 340
#     4   9  18  31  53  79 109 139 186 232 278 339
#
# _framework density 19.640473
#
# number of rings (size 3 to 8) (size 9 to 14) (size 15 to 20)
#    0.000    2.500    1.250    0.750    7.000    0.000 
#    0.000    0.000    0.000    0.750   16.250    0.000 
#    0.000    0.000    0.000    0.000    0.000    0.000 
#
# Total GULP energy -178260.858577 kJ/mol
# GULP energy per Si atom -5570.651831 kJ/mol
# Density = 1.959577 g / cm^3
# Si number density = 19.640473 Si / 1000 Ang^3
#
#
#
# Elastic Constant Matrix: (Units=GPa)
#
#
# Indices 1 2 3 4 5 6 
#
# 1 73.2435 6.8977 30.9431 0.0000 4.7533 0.0000
# 2 6.8977 36.2700 10.1099 0.0000 5.8409 0.0000
# 3 30.9431 10.1099 65.8786 0.0000 14.7558 0.0000
# 4 0.0000 0.0000 0.0000 18.4840 0.0000 4.8193
# 5 4.7533 5.8409 14.7558 0.0000 33.0327 0.0000
# 6 0.0000 0.0000 0.0000 4.8193 0.0000 14.0686
#
#
#
# Elastic Compliance Matrix: (Units=1/GPa)
#
#
# Indices 1 2 3 4 5 6 
#
# 1 0.017129 -0.001204 -0.008174 0.000000 0.001400 0.000000
# 2 -0.001204 0.029249 -0.003115 0.000000 -0.003607 0.000000
# 3 -0.008174 -0.003115 0.021235 0.000000 -0.007759 0.000000
# 4 0.000000 0.000000 0.000000 0.059407 0.000000 -0.020350
# 5 0.001400 -0.003607 -0.007759 0.000000 0.034175 0.000000
# 6 0.000000 0.000000 0.000000 -0.020350 0.000000 0.078052
#
#
# Mechanical properties :
#
#
# Convention : Reuss Voigt Hill
#
# Bulk Modulus (GPa) = 23.46002 30.14372 26.80187
# Shear Modulus (GPa) = 17.95706 21.61316 19.78511
#
# Velocity S-wave (km/s) = 3.02700 3.32089 3.17734
# Velocity P-wave (km/s) = 4.91809 5.48502 5.20928
#
# Compressibility (1/GPa) = 0.04262570
#
# Stress axis : x y z
#
# Youngs Moduli (GPa) = 58.38055 34.18896 47.09285
#
# Poissons Ratio (x) = 0.04118 0.38494
# Poissons Ratio (y) = 0.07032 0.14669
# Poissons Ratio (z) = 0.47721 0.10650
#
# Static dielectric constant tensor:
#      x y z
#    x 1.728990 0.000000 0.026720 
#    y 0.000000 1.722960 0.000000 
#    z 0.026720 0.000000 1.772150 
# 
# From -- ./inp_files/219129.got.cif
#   From: 2010.05.17/outbox.cif.g08.bks.cpg/sg15_110_cif.got.tgz:219129.got - 2010.06.03 18:47:42.
