data_PCOD9255507
_publ_section_title
;
Structure prediction by ZEFSAII (Michael W. Deem and Ramdas Pophale) SiO2 
 PCOD9255507
Probable space group: C 2/C
;
_chemical_formula_sum "Si O2"
_cell_formula_units_Z 56
_cell_length_a 11.539164
_cell_length_b 15.222853
_cell_length_c 29.139879
_cell_angle_alpha 90.000000
_cell_angle_beta 38.656928
_cell_angle_gamma 90.000000
_cell_volume 3197.414316
_symmetry_space_group_name_H-M "C 2/C"
_symmetry_group_IT_number 15
_symmetry_cell_setting 'monoclinic'
loop_
_space_group_symop_operation_xyz
x,y,z
-x,y,1/2-z
-x,-y,-z
x,-y,1/2+z
1/2+x,1/2+y,z
1/2-x,1/2+y,1/2-z
1/2-x,1/2-y,-z
1/2+x,1/2-y,1/2+z
loop_
_atom_site_type_symbol
_atom_site_label
_atom_site_fract_x
_atom_site_fract_y
_atom_site_fract_z
Si Si1 0.319886 0.709899 0.048677
Si Si2 0.173314 0.425905 0.226209
Si Si3 0.708082 0.550576 0.034022
Si Si4 0.107638 0.588055 0.614222
Si Si5 0.415837 0.637095 0.919512
Si Si6 0.302061 0.553830 0.117983
Si Si7 0.720038 0.230646 0.455450
O O1 0.168733 0.780998 0.081049
O O2 0.249378 0.643301 0.109324
O O3 0.377528 0.655240 0.985279
O O4 0.506862 0.757023 0.007866
O O5 0.366792 0.377000 0.158027
O O6 0.208711 0.523307 0.194400
O O7 0.000000 0.389182 0.250000
O O8 0.094949 0.426542 0.301658
O O9 0.691133 0.453279 0.059287
O O10 0.519437 0.560444 0.062225
O O11 0.718896 0.629359 0.067313
O O12 0.868995 0.562555 0.946277
O O13 0.245060 0.524831 0.601018
O O14 0.167059 0.689648 0.602561
O O15 0.750000 0.250000 0.500000
#
# Coordination Sequence:
#
# PCOD9255507 Si02
#       7
#     8   8   8   8   8   8   8
#     4  11  19  34  55  79 111 137 181 229 267 316
#     4   9  19  31  52  78 103 137 176 222 275 315
#     4  10  18  32  55  79 101 143 183 218 263 315
#     4  10  17  31  52  78 107 134 174 230 268 308
#     4  10  22  34  54  78 110 143 177 227 275 311
#     4  10  17  31  56  78 103 134 181 229 257 309
#     4  10  19  30  56  84 102 140 183 222 267 313
#
# _framework density 17.514151999999999
#
# number of rings (size 3 to 8) (size 9 to 14) (size 15 to 20)
#    0.000    2.000    4.286    3.000    0.000    0.571 
#    0.000    7.143    0.000    0.000    0.000    0.000 
#    0.000    0.000    0.000    0.000    0.000    0.000 
#
# Total GULP energy -155915.157699 kJ/mol
# GULP energy per Si atom -5568.398489 kJ/mol
# Density = 1.747429 g / cm^3
# Si number density = 17.514152 Si / 1000 Ang^3
#
#
#
# Elastic Constant Matrix: (Units=GPa)
#
#
# Indices 1 2 3 4 5 6 
#
# 1 37.4818 34.0007 18.7626 -0.0001 -9.5867 0.0001
# 2 34.0007 132.4204 47.5508 -0.0002 -9.8066 0.0000
# 3 18.7626 47.5508 113.4442 0.0000 -14.2697 -0.0001
# 4 -0.0001 -0.0002 0.0000 18.4370 -0.0001 1.2896
# 5 -9.5867 -9.8066 -14.2697 -0.0001 15.9467 -0.0001
# 6 0.0001 0.0000 -0.0001 1.2896 -0.0001 35.8051
#
#
#
# Elastic Compliance Matrix: (Units=1/GPa)
#
#
# Indices 1 2 3 4 5 6 
#
# 1 0.039306 -0.008528 -0.000691 0.000000 0.017767 0.000000
# 2 -0.008528 0.010823 -0.003306 0.000000 -0.001430 0.000000
# 3 -0.000691 -0.003306 0.011276 0.000000 0.007642 0.000000
# 4 0.000000 0.000000 0.000000 0.054376 0.000001 -0.001959
# 5 0.017767 -0.001430 0.007642 0.000001 0.079349 0.000000
# 6 0.000000 0.000000 0.000000 -0.001959 0.000000 0.027999
#
#
# Mechanical properties :
#
#
# Convention : Reuss Voigt Hill
#
# Bulk Modulus (GPa) = 27.50728 53.77496 40.64112
# Shear Modulus (GPa) = 19.20878 26.23993 22.72436
#
# Velocity S-wave (km/s) = 3.31533 3.87487 3.60597
# Velocity P-wave (km/s) = 5.51317 7.12670 6.37122
#
# Compressibility (1/GPa) = 0.03635402
#
# Stress axis : x y z
#
# Youngs Moduli (GPa) = 25.44132 92.39887 88.68344
#
# Poissons Ratio (x) = 0.78801 0.06131
# Poissons Ratio (y) = 0.21697 0.29316
# Poissons Ratio (z) = 0.01759 0.30544
#
# Static dielectric constant tensor:
#      x y z
#    x 1.602210 0.000000 0.017940 
#    y 0.000000 1.652820 0.000000 
#    z 0.017940 0.000000 1.631540 
# 
# From -- ./inp_files/311034.got.cif
#   From: 2010.05.17/outbox.cif.g08.bks.cpg/sg15_156_cif.got.tgz:311034.got - 2010.06.03 18:47:42.
