data_PCOD9255566
_publ_section_title
;
Structure prediction by ZEFSAII (Michael W. Deem and Ramdas Pophale) SiO2 
 PCOD9255566
Probable space group: C 2/C
;
_chemical_formula_sum "Si O2"
_cell_formula_units_Z 56
_cell_length_a 23.749847
_cell_length_b 27.463564
_cell_length_c 15.123167
_cell_angle_alpha 90.000000
_cell_angle_beta 18.212206
_cell_angle_gamma 90.000000
_cell_volume 3082.920319
_symmetry_space_group_name_H-M "C 2/C"
_symmetry_group_IT_number 15
_symmetry_cell_setting 'monoclinic'
loop_
_space_group_symop_operation_xyz
x,y,z
-x,y,1/2-z
-x,-y,-z
x,-y,1/2+z
1/2+x,1/2+y,z
1/2-x,1/2+y,1/2-z
1/2-x,1/2-y,-z
1/2+x,1/2-y,1/2+z
loop_
_atom_site_type_symbol
_atom_site_label
_atom_site_fract_x
_atom_site_fract_y
_atom_site_fract_z
Si Si1 0.650514 0.504335 0.144813
Si Si2 0.690678 0.939562 0.432831
Si Si3 0.102683 0.219245 0.275028
Si Si4 0.764394 0.513710 0.283003
Si Si5 0.443248 0.608723 0.145919
Si Si6 0.359764 0.785587 0.541964
Si Si7 0.139580 0.394448 0.960612
O O1 0.732455 0.478370 0.109069
O O2 0.448076 0.484528 0.428625
O O3 0.626726 0.562330 0.194234
O O4 0.765047 0.494352 0.886346
O O5 0.662653 0.969311 0.384197
O O6 0.500000 0.920261 0.750000
O O7 0.846484 0.900335 0.184512
O O8 0.097923 0.162351 0.255422
O O9 0.168601 0.220897 0.278300
O O10 0.916854 0.245351 0.527067
O O11 0.250000 0.250000 0.000000
O O12 0.864168 0.562393 0.103228
O O13 0.333729 0.605382 0.218071
O O14 0.385094 0.840271 0.540074
O O15 0.500000 0.783047 0.250000
O O16 0.000000 0.401913 0.250000
#
# Coordination Sequence:
#
# PCOD9255566 Si02
#       7
#     8   8   8   8   8   8   8
#     4  10  20  35  54  80 114 148 191 234 277 343
#     4  11  21  37  53  78 117 155 192 230 278 346
#     4   9  17  33  51  81 110 141 178 232 290 353
#     4  10  19  34  53  79 108 146 192 234 281 329
#     4  10  19  36  57  76 115 156 180 227 299 340
#     4   8  16  29  49  76 108 135 178 224 284 338
#     4  10  17  31  56  80 105 149 185 228 287 345
#
# _framework density 18.164596
#
# number of rings (size 3 to 8) (size 9 to 14) (size 15 to 20)
#    0.000    2.286    2.857    2.143    0.000    0.571 
#   15.429    1.429    0.000    0.000    3.714    3.000 
#    0.000    0.000    0.000    0.000    0.000    0.000 
#
# Total GULP energy -156078.734959 kJ/mol
# GULP energy per Si atom -5574.240534 kJ/mol
# Density = 1.812325 g / cm^3
# Si number density = 18.164596 Si / 1000 Ang^3
#
#
#
# Elastic Constant Matrix: (Units=GPa)
#
#
# Indices 1 2 3 4 5 6 
#
# 1 50.2184 36.4047 20.5998 0.0313 -0.5343 -0.0105
# 2 36.4047 132.9755 33.0259 0.0022 1.6044 -0.0132
# 3 20.5998 33.0259 60.2820 0.0245 0.3060 -0.0324
# 4 0.0313 0.0022 0.0245 18.0358 0.0021 -2.8716
# 5 -0.5343 1.6044 0.3060 0.0021 27.6906 0.0116
# 6 -0.0105 -0.0132 -0.0324 -2.8716 0.0116 17.5092
#
#
#
# Elastic Compliance Matrix: (Units=1/GPa)
#
#
# Indices 1 2 3 4 5 6 
#
# 1 0.026558 -0.005818 -0.005892 -0.000039 0.000915 -0.000006
# 2 -0.005818 0.009985 -0.003479 0.000014 -0.000652 0.000000
# 3 -0.005892 -0.003479 0.020509 -0.000012 -0.000139 0.000030
# 4 -0.000039 0.000014 -0.000012 0.056932 -0.000010 0.009337
# 5 0.000915 -0.000652 -0.000139 -0.000010 0.036170 -0.000026
# 6 -0.000006 0.000000 0.000030 0.009337 -0.000026 0.058644
#
#
# Mechanical properties :
#
#
# Convention : Reuss Voigt Hill
#
# Bulk Modulus (GPa) = 37.49174 47.05963 42.27568
# Shear Modulus (GPa) = 20.15578 22.87682 21.51630
#
# Velocity S-wave (km/s) = 3.33471 3.55268 3.44542
# Velocity P-wave (km/s) = 5.95918 6.54158 6.25716
#
# Compressibility (1/GPa) = 0.02667254
#
# Stress axis : x y z
#
# Youngs Moduli (GPa) = 37.65381 100.15111 48.75942
#
# Poissons Ratio (x) = 0.58271 0.28731
# Poissons Ratio (y) = 0.21908 0.16962
# Poissons Ratio (z) = 0.22187 0.34840
#
# Static dielectric constant tensor:
#      x y z
#    x 1.649770 -0.000040 -0.049300 
#    y -0.000040 1.634510 0.000040 
#    z -0.049300 0.000040 1.678930 
# 
# From -- ./inp_files/174770.got.cif
#   From: 2010.05.17/outbox.cif.g08.bks.cpg/sg15_88_cif.got.tgz:174770.got - 2010.06.03 18:47:42.
