data_PCOD9255420
_publ_section_title
;
Structure prediction by ZEFSAII (Michael W. Deem and Ramdas Pophale) SiO2 
 PCOD9255420
Probable space group: C 2/C
;
_chemical_formula_sum "Si O2"
_cell_formula_units_Z 56
_cell_length_a 9.971497
_cell_length_b 21.782349
_cell_length_c 21.812357
_cell_angle_alpha 90.000000
_cell_angle_beta 143.000359
_cell_angle_gamma 90.000000
_cell_volume 2851.196084
_symmetry_space_group_name_H-M "C 2/C"
_symmetry_group_IT_number 15
_symmetry_cell_setting 'monoclinic'
loop_
_space_group_symop_operation_xyz
x,y,z
-x,y,1/2-z
-x,-y,-z
x,-y,1/2+z
1/2+x,1/2+y,z
1/2-x,1/2+y,1/2-z
1/2-x,1/2-y,-z
1/2+x,1/2-y,1/2+z
loop_
_atom_site_type_symbol
_atom_site_label
_atom_site_fract_x
_atom_site_fract_y
_atom_site_fract_z
Si Si1 0.470910 0.517100 0.918403
Si Si2 0.500000 0.855921 0.750000
Si Si3 0.691711 0.057046 0.226217
Si Si4 0.409190 0.953626 0.063855
Si Si5 0.673396 0.832940 0.534076
Si Si6 0.526638 0.291558 0.560088
Si Si7 0.724064 0.129117 0.865694
Si Si8 0.000000 0.867534 0.750000
O O1 0.290497 0.472996 0.823278
O O2 0.374236 0.584960 0.878191
O O3 0.500000 0.500000 0.000000
O O4 0.702694 0.498339 0.972838
O O5 0.482291 0.895638 0.806782
O O6 0.726773 0.817055 0.839616
O O7 0.885133 0.091725 0.260519
O O8 0.600557 0.001750 0.151029
O O9 0.356652 0.914123 0.106734
O O10 0.419630 0.900552 0.016485
O O11 0.488900 0.781337 0.454538
O O12 0.874457 0.814086 0.561410
O O13 0.794587 0.831875 0.643903
O O14 0.389891 0.320607 0.453390
O O15 0.500000 0.150963 0.750000
#
# Coordination Sequence:
#
# PCOD9255420 Si02
#       8
#     8   4   8   8   8   8   8   4
#     4  10  18  32  55  93 130 156 197 263 323 372
#     4  12  20  42  67 103 120 166 220 272 330 362
#     4  12  22  37  65  95 127 169 206 266 330 390
#     4  10  19  35  58  84 122 166 206 249 312 386
#     4  10  22  43  60  89 127 175 212 257 321 397
#     4  10  22  39  68  89 122 170 218 267 314 382
#     4  10  17  30  55  98 122 149 207 267 320 357
#     4  12  24  42  61  93 130 168 212 250 346 400
#
# _framework density 19.640879000000002
#
# number of rings (size 3 to 8) (size 9 to 14) (size 15 to 20)
#    0.000    1.429    4.286    4.286    1.000    0.571 
#    0.000    1.429    0.000    0.000    0.000    0.000 
#    0.000    0.000    0.000    0.000    0.000    0.000 
#
# Total GULP energy -156090.586681 kJ/mol
# GULP energy per Si atom -5574.663810 kJ/mol
# Density = 1.959618 g / cm^3
# Si number density = 19.640879 Si / 1000 Ang^3
#
#
#
# Elastic Constant Matrix: (Units=GPa)
#
#
# Indices 1 2 3 4 5 6 
#
# 1 28.2653 23.4707 3.3919 -0.0012 1.8836 -0.0006
# 2 23.4707 74.9027 38.1004 -0.0003 -1.6446 -0.0001
# 3 3.3919 38.1004 115.2617 -0.0020 0.9000 -0.0011
# 4 -0.0012 -0.0003 -0.0020 24.0479 -0.0013 -0.2183
# 5 1.8836 -1.6446 0.9000 -0.0013 19.4312 -0.0006
# 6 -0.0006 -0.0001 -0.0011 -0.2183 -0.0006 10.9005
#
#
#
# Elastic Compliance Matrix: (Units=1/GPa)
#
#
# Indices 1 2 3 4 5 6 
#
# 1 0.050474 -0.018312 0.004620 0.000002 -0.006657 0.000003
# 2 -0.018312 0.022743 -0.007010 -0.000001 0.004025 -0.000001
# 3 0.004620 -0.007010 0.010869 0.000001 -0.001545 0.000001
# 4 0.000002 -0.000001 0.000001 0.041591 0.000002 0.000833
# 5 -0.006657 0.004025 -0.001545 0.000002 0.052521 0.000003
# 6 0.000003 -0.000001 0.000001 0.000833 0.000003 0.091755
#
#
# Mechanical properties :
#
#
# Convention : Reuss Voigt Hill
#
# Bulk Modulus (GPa) = 23.42956 38.70618 31.06787
# Shear Modulus (GPa) = 15.35691 21.10706 18.23198
#
# Velocity S-wave (km/s) = 2.79925 3.28174 3.05005
# Velocity P-wave (km/s) = 4.73314 5.84033 5.31564
#
# Compressibility (1/GPa) = 0.04268112
#
# Stress axis : x y z
#
# Youngs Moduli (GPa) = 19.81215 43.96954 92.00199
#
# Poissons Ratio (x) = 0.80517 -0.42503
# Poissons Ratio (y) = 0.36280 0.64497
# Poissons Ratio (z) = -0.09153 0.30824
#
# Static dielectric constant tensor:
#      x y z
#    x 1.715920 0.000000 -0.019360 
#    y 0.000000 1.767410 0.000000 
#    z -0.019360 0.000000 1.714610 
# 
# From -- ./inp_files/200764.got.cif
#   From: 2010.05.17/outbox.cif.g08.bks.cpg/sg15_101_cif.got.tgz:200764.got - 2010.06.03 18:47:42.
