data_PCOD9255928
_publ_section_title
;
Structure prediction by ZEFSAII (Michael W. Deem and Ramdas Pophale) SiO2 
 PCOD9255928
Probable space group: C 2/C
;
_chemical_formula_sum "Si O2"
_cell_formula_units_Z 64
_cell_length_a 9.525627
_cell_length_b 13.506488
_cell_length_c 25.804096
_cell_angle_alpha 90.000000
_cell_angle_beta 59.938209
_cell_angle_gamma 90.000000
_cell_volume 2873.323602
_symmetry_space_group_name_H-M "C 2/C"
_symmetry_group_IT_number 15
_symmetry_cell_setting 'monoclinic'
loop_
_space_group_symop_operation_xyz
x,y,z
-x,y,1/2-z
-x,-y,-z
x,-y,1/2+z
1/2+x,1/2+y,z
1/2-x,1/2+y,1/2-z
1/2-x,1/2-y,-z
1/2+x,1/2-y,1/2+z
loop_
_atom_site_type_symbol
_atom_site_label
_atom_site_fract_x
_atom_site_fract_y
_atom_site_fract_z
Si Si1 0.012776 0.424854 0.590737
Si Si2 0.314058 0.118754 0.973380
Si Si3 0.309071 0.220674 0.076175
Si Si4 0.620987 0.882162 0.685546
Si Si5 0.678112 0.532537 0.657242
Si Si6 0.843177 0.041065 0.222335
Si Si7 0.145142 0.712875 0.881853
Si Si8 0.992530 0.745582 0.697813
O O1 0.978254 0.320166 0.568372
O O2 0.841978 0.478160 0.611168
O O3 0.144794 0.504140 0.545395
O O4 0.033841 0.411864 0.648568
O O5 0.205214 0.171995 0.949460
O O6 0.486665 0.180560 0.942589
O O7 0.248282 0.145895 0.041973
O O8 0.171368 0.223334 0.145912
O O9 0.500000 0.829055 0.750000
O O10 0.779216 0.821090 0.636363
O O11 0.697576 0.965387 0.708873
O O12 0.673539 0.515356 0.720344
O O13 0.510504 0.494128 0.666376
O O14 0.703263 0.644093 0.634833
O O15 0.880582 0.157074 0.227756
O O16 0.085226 0.687121 0.834844
O O17 0.000000 0.689568 0.750000
#
# Coordination Sequence:
#
# PCOD9255928 Si02
#       8
#     8   8   8   8   8   8   8   8
#     4  11  20  38  61  90 114 158 207 248 309 365
#     4   9  21  40  62  90 115 157 216 258 294 363
#     4  10  19  37  64  89 120 156 206 258 303 362
#     4  11  23  37  53  86 127 157 188 255 321 360
#     4  10  18  35  55  81 109 157 201 233 290 370
#     4  10  18  33  54  74 115 154 188 237 288 365
#     4   9  22  36  54  82 120 155 197 247 302 365
#     4  10  17  33  57  88 112 153 194 236 298 370
#
# _framework density 22.273859000000002
#
# number of rings (size 3 to 8) (size 9 to 14) (size 15 to 20)
#    0.000    2.000    3.750    0.375    3.500    0.000 
#    9.000    0.625    0.000   12.000    0.000    0.000 
#    0.000    0.000    0.000    0.000    0.000    0.000 
#
# Total GULP energy -178195.071958 kJ/mol
# GULP energy per Si atom -5568.595999 kJ/mol
# Density = 2.222316 g / cm^3
# Si number density = 22.273859 Si / 1000 Ang^3
#
#
#
# Elastic Constant Matrix: (Units=GPa)
#
#
# Indices 1 2 3 4 5 6 
#
# 1 81.6479 26.0070 9.9504 0.0000 16.2641 0.0000
# 2 26.0070 45.6855 7.8446 0.0000 -0.8912 0.0000
# 3 9.9504 7.8446 71.6680 0.0000 16.5817 0.0000
# 4 0.0000 0.0000 0.0000 13.6363 0.0000 -15.8459
# 5 16.2641 -0.8912 16.5817 0.0000 27.6862 0.0000
# 6 0.0000 0.0000 0.0000 -15.8459 0.0000 28.6687
#
#
#
# Elastic Compliance Matrix: (Units=1/GPa)
#
#
# Indices 1 2 3 4 5 6 
#
# 1 0.017757 -0.010570 0.001374 0.000000 -0.011594 0.000000
# 2 -0.010570 0.028754 -0.003866 0.000000 0.009451 0.000000
# 3 0.001374 -0.003866 0.016718 0.000000 -0.010944 0.000000
# 4 0.000000 0.000000 0.000000 0.205009 0.000000 0.113314
# 5 -0.011594 0.009451 -0.010944 0.000000 0.049789 0.000000
# 6 0.000000 0.000000 0.000000 0.113314 0.000000 0.097513
#
#
# Mechanical properties :
#
#
# Convention : Reuss Voigt Hill
#
# Bulk Modulus (GPa) = 26.95139 31.84504 29.39822
# Shear Modulus (GPa) = 11.01242 24.34486 17.67864
#
# Velocity S-wave (km/s) = 2.22595 3.30961 2.82031
# Velocity P-wave (km/s) = 4.32813 5.37892 4.88188
#
# Compressibility (1/GPa) = 0.03710383
#
# Stress axis : x y z
#
# Youngs Moduli (GPa) = 56.31662 34.77735 59.81650
#
# Poissons Ratio (x) = 0.36761 -0.08220
# Poissons Ratio (y) = 0.59529 0.23127
# Poissons Ratio (z) = -0.07739 0.13446
#
# Static dielectric constant tensor:
#      x y z
#    x 1.858250 0.000000 -0.010490 
#    y 0.000000 1.909420 0.000000 
#    z -0.010490 0.000000 1.872730 
# 
# From -- ./inp_files/288699.got.cif
#   From: 2010.05.17/outbox.cif.g08.bks.cpg/sg15_145_cif.got.tgz:288699.got - 2010.06.03 18:47:42.
