data_PCOD9255175
_publ_section_title
;
Structure prediction by ZEFSAII (Michael W. Deem and Ramdas Pophale) SiO2 
 PCOD9255175
Probable space group: C 2/C
;
_chemical_formula_sum "Si O2"
_cell_formula_units_Z 40
_cell_length_a 7.547499
_cell_length_b 20.342310
_cell_length_c 14.747075
_cell_angle_alpha 90.000000
_cell_angle_beta 42.195859
_cell_angle_gamma 90.000000
_cell_volume 1520.769041
_symmetry_space_group_name_H-M "C 2/C"
_symmetry_group_IT_number 15
_symmetry_cell_setting 'monoclinic'
loop_
_space_group_symop_operation_xyz
x,y,z
-x,y,1/2-z
-x,-y,-z
x,-y,1/2+z
1/2+x,1/2+y,z
1/2-x,1/2+y,1/2-z
1/2-x,1/2-y,-z
1/2+x,1/2-y,1/2+z
loop_
_atom_site_type_symbol
_atom_site_label
_atom_site_fract_x
_atom_site_fract_y
_atom_site_fract_z
Si Si1 0.878037 0.616936 0.966129
Si Si2 0.532357 0.607562 0.531242
Si Si3 0.034119 0.485938 0.627566
Si Si4 0.205014 0.859588 0.774546
Si Si5 0.275470 0.211955 0.756830
O O1 0.738948 0.599439 0.921206
O O2 0.035593 0.548465 0.908872
O O3 0.065994 0.679681 0.887301
O O4 0.613929 0.635827 0.120350
O O5 0.669635 0.540237 0.508173
O O6 0.715376 0.633899 0.380753
O O7 0.461481 0.662372 0.630675
O O8 0.000000 0.494575 0.750000
O O9 0.851766 0.422245 0.677511
O O10 0.307070 0.787025 0.716667
O O11 0.500000 0.211286 0.750000
#
# Coordination Sequence:
#
# PCOD9255175 Si02
#       5
#     8   8   8   8   8
#     4   9  18  27  48  68  96 114 150 183 232 268
#     4   8  18  28  48  69  96 117 147 182 234 273
#     4  10  17  29  46  72  99 116 140 189 237 281
#     4   9  20  29  45  73  92 120 153 183 229 268
#     4  10  18  31  48  67  91 124 155 187 220 266
#
# _framework density 26.302479999999999
#
# number of rings (size 3 to 8) (size 9 to 14) (size 15 to 20)
#    1.200    1.600    0.000    3.000    2.800    0.800 
#    0.000    0.000    0.000    1.200    0.000    0.000 
#    0.000    0.000    0.000    0.000    0.000    0.000 
#
# Total GULP energy -111554.182576 kJ/mol
# GULP energy per Si atom -5577.709129 kJ/mol
# Density = 2.624261 g / cm^3
# Si number density = 26.302480 Si / 1000 Ang^3
#
#
#
# Elastic Constant Matrix: (Units=GPa)
#
#
# Indices 1 2 3 4 5 6 
#
# 1 55.9035 -11.7400 -5.8826 0.0000 3.3764 0.0000
# 2 -11.7400 150.4131 49.0698 0.0000 5.0363 0.0000
# 3 -5.8826 49.0698 107.2656 0.0000 -6.6559 0.0000
# 4 0.0000 0.0000 0.0000 42.7641 0.0000 -8.1954
# 5 3.3764 5.0363 -6.6559 0.0000 11.2349 0.0000
# 6 0.0000 0.0000 0.0000 -8.1954 0.0000 26.5655
#
#
#
# Elastic Compliance Matrix: (Units=1/GPa)
#
#
# Indices 1 2 3 4 5 6 
#
# 1 0.018623 0.001726 -0.000170 0.000000 -0.006471 0.000000
# 2 0.001726 0.008361 -0.004148 0.000000 -0.006724 0.000000
# 3 -0.000170 -0.004148 0.011762 0.000000 0.008878 0.000000
# 4 0.000000 0.000000 0.000000 0.024853 0.000000 0.007667
# 5 -0.006471 -0.006724 0.008878 0.000000 0.099227 0.000000
# 6 0.000000 0.000000 0.000000 0.007667 0.000000 0.040008
#
#
# Mechanical properties :
#
#
# Convention : Reuss Voigt Hill
#
# Bulk Modulus (GPa) = 29.79464 41.83073 35.81269
# Shear Modulus (GPa) = 22.80969 34.92191 28.86580
#
# Velocity S-wave (km/s) = 2.94803 3.64772 3.31638
# Velocity P-wave (km/s) = 4.78959 5.80340 5.32069
#
# Compressibility (1/GPa) = 0.03356308
#
# Stress axis : x y z
#
# Youngs Moduli (GPa) = 53.69616 119.59960 85.02264
#
# Poissons Ratio (x) = -0.20638 0.01442
# Poissons Ratio (y) = -0.09266 0.35263
# Poissons Ratio (z) = 0.00910 0.49604
#
# Static dielectric constant tensor:
#      x y z
#    x 2.260890 0.000000 0.055940 
#    y 0.000000 2.157190 0.000000 
#    z 0.055940 0.000000 2.069460 
# 
# From -- ./inp_files/97379.got.cif
#   From: 2010.05.17/outbox.cif.g08.bks.cpg/sg15_49_cif.got.tgz:97379.got - 2010.06.03 18:47:42.
