data_PCOD9255908
_publ_section_title
;
Structure prediction by ZEFSAII (Michael W. Deem and Ramdas Pophale) SiO2 
 PCOD9255908
Probable space group: C 2/C
;
_chemical_formula_sum "Si O2"
_cell_formula_units_Z 60
_cell_length_a 12.222575
_cell_length_b 18.342909
_cell_length_c 25.170485
_cell_angle_alpha 90.000000
_cell_angle_beta 145.126280
_cell_angle_gamma 90.000000
_cell_volume 3226.588574
_symmetry_space_group_name_H-M "C 2/C"
_symmetry_group_IT_number 15
_symmetry_cell_setting 'monoclinic'
loop_
_space_group_symop_operation_xyz
x,y,z
-x,y,1/2-z
-x,-y,-z
x,-y,1/2+z
1/2+x,1/2+y,z
1/2-x,1/2+y,1/2-z
1/2-x,1/2-y,-z
1/2+x,1/2-y,1/2+z
loop_
_atom_site_type_symbol
_atom_site_label
_atom_site_fract_x
_atom_site_fract_y
_atom_site_fract_z
Si Si1 0.847481 0.840418 0.818353
Si Si2 0.116484 0.023727 0.242175
Si Si3 0.412855 0.793373 0.097178
Si Si4 0.500000 0.865849 0.750000
Si Si5 0.442859 0.077371 0.919053
Si Si6 0.747461 0.046478 0.552212
Si Si7 0.124711 0.895079 0.023424
Si Si8 0.229503 0.936007 0.555264
O O1 0.656375 0.824521 0.776302
O O2 0.824076 0.904715 0.766413
O O3 0.933466 0.767693 0.826644
O O4 0.000536 0.871846 0.922330
O O5 0.000000 0.041854 0.250000
O O6 0.699846 0.976130 0.169384
O O7 0.968032 0.974542 0.149268
O O8 0.505640 0.852483 0.094537
O O9 0.300037 0.839044 0.096902
O O10 0.250000 0.750000 0.000000
O O11 0.379653 0.913359 0.659965
O O12 0.336343 0.092386 0.932251
O O13 0.632367 0.030386 0.007118
O O14 0.713674 0.082533 0.481937
O O15 0.201035 0.976827 0.045763
O O16 0.972784 0.899089 0.010373
#
# Coordination Sequence:
#
# PCOD9255908 Si02
#       8
#     8   8   8   4   8   8   8   8
#     4  10  19  35  56  78 115 153 189 232 298 352
#     4  10  20  35  58  86 115 144 200 250 285 340
#     4  10  19  36  58  81 115 154 198 232 295 363
#     4  10  22  32  52  88 110 154 192 242 286 350
#     4  10  20  33  58  92 110 150 203 241 290 347
#     4  10  18  34  56  87 115 145 188 250 294 329
#     4   9  18  31  56  83 106 147 189 234 284 348
#     4  10  17  33  56  85 115 142 193 240 295 336
#
# _framework density 18.595492
#
# number of rings (size 3 to 8) (size 9 to 14) (size 15 to 20)
#    0.000    2.133    2.667    1.600    0.000    0.000 
#    3.600    0.000    4.400    7.200    0.000    0.000 
#    0.000    0.000    0.000    0.000    0.000    0.000 
#
# Total GULP energy -167277.509177 kJ/mol
# GULP energy per Si atom -5575.916973 kJ/mol
# Density = 1.855317 g / cm^3
# Si number density = 18.595492 Si / 1000 Ang^3
#
#
#
# Elastic Constant Matrix: (Units=GPa)
#
#
# Indices 1 2 3 4 5 6 
#
# 1 102.3297 50.7702 29.0950 0.0000 4.1273 0.0000
# 2 50.7702 77.1356 21.7429 0.0001 11.5730 0.0000
# 3 29.0950 21.7429 68.3976 0.0002 9.1301 0.0000
# 4 0.0000 0.0001 0.0002 19.9732 0.0001 7.5557
# 5 4.1273 11.5730 9.1301 0.0001 28.4630 0.0000
# 6 0.0000 0.0000 0.0000 7.5557 0.0000 29.3195
#
#
#
# Elastic Compliance Matrix: (Units=1/GPa)
#
#
# Indices 1 2 3 4 5 6 
#
# 1 0.015506 -0.009525 -0.003954 0.000000 0.002893 0.000000
# 2 -0.009525 0.020674 -0.001653 0.000000 -0.006495 0.000000
# 3 -0.003954 -0.001653 0.017407 0.000000 -0.004338 0.000000
# 4 0.000000 0.000000 0.000000 0.055475 0.000000 -0.014296
# 5 0.002893 -0.006495 -0.004338 0.000000 0.038746 0.000000
# 6 0.000000 0.000000 0.000000 -0.014296 0.000000 0.037791
#
#
# Mechanical properties :
#
#
# Convention : Reuss Voigt Hill
#
# Bulk Modulus (GPa) = 42.87857 50.11991 46.49924
# Shear Modulus (GPa) = 22.35751 25.30146 23.82948
#
# Velocity S-wave (km/s) = 3.47119 3.69266 3.58364
# Velocity P-wave (km/s) = 6.25893 6.72252 6.49486
#
# Compressibility (1/GPa) = 0.02332167
#
# Stress axis : x y z
#
# Youngs Moduli (GPa) = 64.49201 48.36969 57.44821
#
# Poissons Ratio (x) = 0.46074 0.22715
# Poissons Ratio (y) = 0.61431 0.09498
# Poissons Ratio (z) = 0.25500 0.07997
#
# Static dielectric constant tensor:
#      x y z
#    x 1.674000 0.000000 0.017750 
#    y 0.000000 1.606360 0.000000 
#    z 0.017750 0.000000 1.655420 
# 
# From -- ./inp_files/293379.got.cif
#   From: 2010.05.17/outbox.cif.g08.bks.cpg/sg15_147_cif.got.tgz:293379.got - 2010.06.03 18:47:42.
