data_PCOD9255743
_publ_section_title
;
Structure prediction by ZEFSAII (Michael W. Deem and Ramdas Pophale) SiO2 
 PCOD9255743
Probable space group: C 2/C
;
_chemical_formula_sum "Si O2"
_cell_formula_units_Z 52
_cell_length_a 11.835455
_cell_length_b 28.790236
_cell_length_c 8.483773
_cell_angle_alpha 90.000000
_cell_angle_beta 118.083989
_cell_angle_gamma 90.000000
_cell_volume 2550.439649
_symmetry_space_group_name_H-M "C 2/C"
_symmetry_group_IT_number 15
_symmetry_cell_setting 'monoclinic'
loop_
_space_group_symop_operation_xyz
x,y,z
-x,y,1/2-z
-x,-y,-z
x,-y,1/2+z
1/2+x,1/2+y,z
1/2-x,1/2+y,1/2-z
1/2-x,1/2-y,-z
1/2+x,1/2-y,1/2+z
loop_
_atom_site_type_symbol
_atom_site_label
_atom_site_fract_x
_atom_site_fract_y
_atom_site_fract_z
Si Si1 0.757331 0.112093 0.306637
Si Si2 0.256624 0.717756 0.819904
Si Si3 0.615056 0.308475 0.413899
Si Si4 0.869814 0.872697 0.563017
Si Si5 0.500000 0.143195 0.250000
Si Si6 0.009570 0.947836 0.443636
Si Si7 0.509352 0.221816 0.989461
O O1 0.818196 0.159952 0.413836
O O2 0.763522 0.113151 0.121932
O O3 0.622263 0.111262 0.302729
O O4 0.851566 0.071760 0.420375
O O5 0.289087 0.710043 0.655219
O O6 0.102063 0.718066 0.716720
O O7 0.318685 0.673219 0.945011
O O8 0.340156 0.762770 0.930043
O O9 0.500000 0.335786 0.250000
O O10 0.543915 0.266076 0.448939
O O11 0.909570 0.913350 0.467607
O O12 0.000000 0.863085 0.750000
O O13 0.499602 0.177045 0.402820
O O14 0.000000 0.947162 0.250000
O O15 0.000000 0.000000 0.500000
#
# Coordination Sequence:
#
# PCOD9255743 Si02
#       7
#     8   8   8   8   4   8   8
#     4  11  22  38  60  92 129 163 210 261 320 378
#     4  11  20  35  56  82 119 167 227 267 322 368
#     4  10  17  32  56  81 112 160 221 263 311 356
#     4  10  22  40  59  91 128 161 206 275 326 370
#     4  12  22  36  60  88 130 178 218 256 322 384
#     4  11  22  41  73 103 122 152 195 260 322 386
#     4  11  20  33  58  83 118 175 225 273 308 381
#
# _framework density 20.388642000000001
#
# number of rings (size 3 to 8) (size 9 to 14) (size 15 to 20)
#    0.000    1.231    3.846    7.846    0.000    0.000 
#    0.000    9.231    0.000    3.692    0.000    0.000 
#    0.000    0.000    0.000    0.000    0.000    0.000 
#
# Total GULP energy -145276.502890 kJ/mol
# GULP energy per Si atom -5587.557803 kJ/mol
# Density = 2.034224 g / cm^3
# Si number density = 20.388642 Si / 1000 Ang^3
#
#
#
# Elastic Constant Matrix: (Units=GPa)
#
#
# Indices 1 2 3 4 5 6 
#
# 1 151.0697 49.0626 30.4007 0.0000 8.5478 0.0000
# 2 49.0626 106.5560 46.1514 0.0000 -3.9019 0.0000
# 3 30.4007 46.1514 99.2014 0.0000 -11.6960 0.0000
# 4 0.0000 0.0000 0.0000 29.7842 0.0000 -7.6326
# 5 8.5478 -3.9019 -11.6960 0.0000 30.8323 0.0000
# 6 0.0000 0.0000 0.0000 -7.6326 0.0000 18.4507
#
#
#
# Elastic Compliance Matrix: (Units=1/GPa)
#
#
# Indices 1 2 3 4 5 6 
#
# 1 0.008135 -0.003281 -0.001341 0.000000 -0.003179 0.000000
# 2 -0.003281 0.013087 -0.005004 0.000000 0.000667 0.000000
# 3 -0.001341 -0.005004 0.013388 0.000000 0.004817 0.000000
# 4 0.000000 0.000000 0.000000 0.037556 0.000000 0.015536
# 5 -0.003179 0.000667 0.004817 0.000000 0.035227 0.000000
# 6 0.000000 0.000000 0.000000 0.015536 0.000000 0.060625
#
#
# Mechanical properties :
#
#
# Convention : Reuss Voigt Hill
#
# Bulk Modulus (GPa) = 65.12010 67.56184 66.34097
# Shear Modulus (GPa) = 25.98877 31.22759 28.60818
#
# Velocity S-wave (km/s) = 3.57412 3.91783 3.74992
# Velocity P-wave (km/s) = 7.00294 7.32631 7.16645
#
# Compressibility (1/GPa) = 0.01535624
#
# Stress axis : x y z
#
# Youngs Moduli (GPa) = 122.92762 76.40909 74.69518
#
# Poissons Ratio (x) = 0.25070 0.10019
# Poissons Ratio (y) = 0.40333 0.37381
# Poissons Ratio (z) = 0.16489 0.38239
#
# Static dielectric constant tensor:
#      x y z
#    x 1.788330 0.000000 -0.057950 
#    y 0.000000 1.681420 0.000000 
#    z -0.057950 0.000000 1.747510 
# 
# From -- ./inp_files/34454.got.cif
#   From: 2010.05.17/outbox.cif.g08.bks.cpg/sg15_18_cif.got.tgz:34454.got - 2010.06.03 18:47:42.
