data_PCOD9255058
_publ_section_title
;
Structure prediction by ZEFSAII (Michael W. Deem and Ramdas Pophale) SiO2 
 PCOD9255058
Probable space group: C 2/C
;
_chemical_formula_sum "Si O2"
_cell_formula_units_Z 48
_cell_length_a 28.393927
_cell_length_b 19.655129
_cell_length_c 5.328577
_cell_angle_alpha 90.000000
_cell_angle_beta 124.659061
_cell_angle_gamma 90.000000
_cell_volume 2446.105734
_symmetry_space_group_name_H-M "C 2/C"
_symmetry_group_IT_number 15
_symmetry_cell_setting 'monoclinic'
loop_
_space_group_symop_operation_xyz
x,y,z
-x,y,1/2-z
-x,-y,-z
x,-y,1/2+z
1/2+x,1/2+y,z
1/2-x,1/2+y,1/2-z
1/2-x,1/2-y,-z
1/2+x,1/2-y,1/2+z
loop_
_atom_site_type_symbol
_atom_site_label
_atom_site_fract_x
_atom_site_fract_y
_atom_site_fract_z
Si Si1 0.802237 0.581416 0.640911
Si Si2 0.819216 0.881420 0.684590
Si Si3 0.190817 0.792188 0.345771
Si Si4 0.846637 0.349022 0.769419
Si Si5 0.910028 0.523081 0.481215
Si Si6 0.938692 0.043508 0.615362
O O1 0.734656 0.566304 0.452887
O O2 0.814825 0.621872 0.421307
O O3 0.814490 0.630598 0.914733
O O4 0.847684 0.518968 0.798936
O O5 0.815099 0.843348 0.404753
O O6 0.811896 0.829411 0.895378
O O7 0.881076 0.914817 0.897989
O O8 0.250000 0.750000 0.500000
O O9 0.145017 0.730996 0.190238
O O10 0.901621 0.397175 0.924551
O O11 0.938261 0.491874 0.326974
O O12 0.000000 0.079452 0.750000
O O13 0.938137 0.985153 0.397480
#
# Coordination Sequence:
#
# PCOD9255058 Si02
#       6
#     8   8   8   8   8   8
#     4  10  17  28  42  62  89 124 170 209 237 287
#     4  12  22  33  53  75  97 134 178 215 266 329
#     4  12  21  33  47  70 106 139 167 207 250 319
#     4  10  18  29  41  58  93 128 159 201 239 284
#     4   8  16  25  37  54  76 113 158 195 225 260
#     4  10  23  43  62  80 104 132 177 251 309 325
#
# _framework density 19.623028999999999
#
# number of rings (size 3 to 8) (size 9 to 14) (size 15 to 20)
#    0.000    1.667    3.333    2.500    0.000    4.000 
#    0.000    0.000    0.000    0.000    0.000    0.000 
#    0.000    0.000    0.000    0.000    0.000  150.000 
#
# Total GULP energy -133742.445676 kJ/mol
# GULP energy per Si atom -5572.601903 kJ/mol
# Density = 1.957837 g / cm^3
# Si number density = 19.623029 Si / 1000 Ang^3
#
#
#
# Elastic Constant Matrix: (Units=GPa)
#
#
# Indices 1 2 3 4 5 6 
#
# 1 55.1064 4.3111 17.9329 0.0000 -4.9955 0.0000
# 2 4.3111 33.9022 -10.8980 0.0000 7.5399 0.0000
# 3 17.9329 -10.8980 66.0279 0.0000 -4.8520 0.0000
# 4 0.0000 0.0000 0.0000 24.0704 0.0000 -11.2052
# 5 -4.9955 7.5399 -4.8520 0.0000 67.2635 0.0000
# 6 0.0000 0.0000 0.0000 -11.2052 0.0000 5.0470
#
#
#
# Elastic Compliance Matrix: (Units=1/GPa)
#
#
# Indices 1 2 3 4 5 6 
#
# 1 0.020757 -0.005047 -0.006350 0.000000 0.001649 0.000000
# 2 -0.005047 0.033049 0.006561 0.000000 -0.003606 0.000000
# 3 -0.006350 0.006561 0.017959 0.000000 0.000088 0.000000
# 4 0.000000 0.000000 0.000000 -1.238872 0.000000 -2.750528
# 5 0.001649 -0.003606 0.000088 0.000000 0.015400 0.000000
# 6 0.000000 0.000000 0.000000 -2.750528 0.000000 -5.908551
#
#
# Mechanical properties :
#
#
# Convention : Reuss Voigt Hill
#
# Bulk Modulus (GPa) = 16.10479 19.74762 17.92621
# Shear Modulus (GPa) = -0.71125 28.85555 14.07215
#
# Velocity S-wave (km/s) = -0.60270 3.83886 2.68082
# Velocity P-wave (km/s) = 2.78219 5.45293 4.32869
#
# Compressibility (1/GPa) = 0.06209331
#
# Stress axis : x y z
#
# Youngs Moduli (GPa) = 48.17567 30.25770 55.68244
#
# Poissons Ratio (x) = 0.15272 0.35356
# Poissons Ratio (y) = 0.24316 -0.36532
# Poissons Ratio (z) = 0.30589 -0.19851
#
# Static dielectric constant tensor:
#      x y z
#    x 1.684550 0.000000 0.043830 
#    y 0.000000 1.706640 0.000000 
#    z 0.043830 0.000000 1.721760 
# 
# From -- ./inp_files/18572.got.cif
#   From: 2010.05.17/outbox.cif.g08.bks.cpg/sg15_10_cif.got.tgz:18572.got - 2010.06.03 18:47:42.
