data_PCOD9255577
_publ_section_title
;
Structure prediction by ZEFSAII (Michael W. Deem and Ramdas Pophale) SiO2 
 PCOD9255577
Probable space group: C 2/C
;
_chemical_formula_sum "Si O2"
_cell_formula_units_Z 44
_cell_length_a 16.837009
_cell_length_b 9.007786
_cell_length_c 22.501669
_cell_angle_alpha 90.000000
_cell_angle_beta 151.459139
_cell_angle_gamma 90.000000
_cell_volume 1630.536736
_symmetry_space_group_name_H-M "C 2/C"
_symmetry_group_IT_number 15
_symmetry_cell_setting 'monoclinic'
loop_
_space_group_symop_operation_xyz
x,y,z
-x,y,1/2-z
-x,-y,-z
x,-y,1/2+z
1/2+x,1/2+y,z
1/2-x,1/2+y,1/2-z
1/2-x,1/2-y,-z
1/2+x,1/2-y,1/2+z
loop_
_atom_site_type_symbol
_atom_site_label
_atom_site_fract_x
_atom_site_fract_y
_atom_site_fract_z
Si Si1 0.915921 0.548673 0.590431
Si Si2 0.000000 0.950546 0.750000
Si Si3 0.939362 0.835508 0.422231
Si Si4 0.220111 0.195165 0.555638
Si Si5 0.220574 0.437066 0.738596
Si Si6 0.279795 0.109938 0.882580
O O1 0.925241 0.721278 0.576306
O O2 0.803377 0.558595 0.575322
O O3 0.841958 0.450881 0.488002
O O4 0.101439 0.488998 0.714155
O O5 0.084012 0.066020 0.758427
O O6 0.143881 0.828719 0.856007
O O7 0.842852 0.820117 0.420200
O O8 0.830323 0.731597 0.306104
O O9 0.903290 0.999607 0.373226
O O10 0.123402 0.767728 0.552627
O O11 0.165256 0.517208 0.639791
#
# Coordination Sequence:
#
# PCOD9255577 Si02
#       6
#     8   4   8   8   8   8
#     4   9  17  30  59  89 122 150 208 274 318 351
#     4  10  18  30  58  82 126 160 218 244 318 366
#     4  11  21  38  63  92 130 165 216 260 329 380
#     4  10  17  31  56  99 114 153 212 279 299 368
#     4  11  20  37  60  89 129 173 207 264 323 384
#     4  10  20  39  56  90 127 176 207 263 320 387
#
# _framework density 26.98498
#
# number of rings (size 3 to 8) (size 9 to 14) (size 15 to 20)
#    0.000    1.818    5.455    2.182    0.000    0.000 
#    0.000    1.818    0.000    4.364    0.000    0.000 
#    0.000    0.000    0.000    0.000    0.000    0.000 
#
# Total GULP energy -122638.209717 kJ/mol
# GULP energy per Si atom -5574.464078 kJ/mol
# Density = 2.692356 g / cm^3
# Si number density = 26.984980 Si / 1000 Ang^3
#
#
#
# Elastic Constant Matrix: (Units=GPa)
#
#
# Indices 1 2 3 4 5 6 
#
# 1 158.7247 45.4499 15.9369 -0.0003 14.5744 -0.0001
# 2 45.4499 131.8844 45.5865 -0.0026 8.9381 -0.0005
# 3 15.9369 45.5865 48.5289 -0.0043 12.0753 -0.0010
# 4 -0.0003 -0.0026 -0.0043 57.9603 -0.0010 2.6950
# 5 14.5744 8.9381 12.0753 -0.0010 24.6542 -0.0001
# 6 -0.0001 -0.0005 -0.0010 2.6950 -0.0001 39.1571
#
#
#
# Elastic Compliance Matrix: (Units=1/GPa)
#
#
# Indices 1 2 3 4 5 6 
#
# 1 0.007299 -0.002602 0.001009 0.000000 -0.003866 0.000000
# 2 -0.002602 0.012190 -0.011250 0.000000 0.002629 0.000000
# 3 0.001009 -0.011250 0.034137 0.000002 -0.013238 0.000001
# 4 0.000000 0.000000 0.000002 0.017309 0.000000 -0.001191
# 5 -0.003866 0.002629 -0.013238 0.000000 0.048377 0.000000
# 6 0.000000 0.000000 0.000001 -0.001191 0.000000 0.025620
#
#
# Mechanical properties :
#
#
# Convention : Reuss Voigt Hill
#
# Bulk Modulus (GPa) = 35.79192 61.45387 48.62289
# Shear Modulus (GPa) = 27.78851 39.83196 33.81024
#
# Velocity S-wave (km/s) = 3.21250 3.84615 3.54351
# Velocity P-wave (km/s) = 5.20121 6.52277 5.89912
#
# Compressibility (1/GPa) = 0.02793926
#
# Stress axis : x y z
#
# Youngs Moduli (GPa) = 137.00554 82.03630 29.29382
#
# Poissons Ratio (x) = 0.21348 -0.02957
# Poissons Ratio (y) = 0.35653 0.32956
# Poissons Ratio (z) = -0.13830 0.92293
#
# Static dielectric constant tensor:
#      x y z
#    x 2.104160 0.000000 0.049830 
#    y 0.000000 2.175510 0.000000 
#    z 0.049830 0.000000 2.476310 
# 
# From -- ./inp_files/277166.got.cif
#   From: 2010.05.17/outbox.cif.g08.bks.cpg/sg15_139_cif.got.tgz:277166.got - 2010.06.03 18:47:42.
