data_PCOD9255133
_publ_section_title
;
Structure prediction by ZEFSAII (Michael W. Deem and Ramdas Pophale) SiO2 
 PCOD9255133
Probable space group: C 2/C
;
_chemical_formula_sum "Si O2"
_cell_formula_units_Z 28
_cell_length_a 18.433297
_cell_length_b 14.395489
_cell_length_c 5.127992
_cell_angle_alpha 90.000000
_cell_angle_beta 119.811236
_cell_angle_gamma 90.000000
_cell_volume 1180.674955
_symmetry_space_group_name_H-M "C 2/C"
_symmetry_group_IT_number 15
_symmetry_cell_setting 'monoclinic'
loop_
_space_group_symop_operation_xyz
x,y,z
-x,y,1/2-z
-x,-y,-z
x,-y,1/2+z
1/2+x,1/2+y,z
1/2-x,1/2+y,1/2-z
1/2-x,1/2-y,-z
1/2+x,1/2-y,1/2+z
loop_
_atom_site_type_symbol
_atom_site_label
_atom_site_fract_x
_atom_site_fract_y
_atom_site_fract_z
Si Si1 0.695902 0.365037 0.155540
Si Si2 0.353061 0.181304 0.678723
Si Si3 0.594913 0.365166 0.485259
Si Si4 0.000000 0.563522 0.750000
O O1 0.693169 0.252533 0.103012
O O2 0.629934 0.402561 0.822734
O O3 0.789336 0.384278 0.223608
O O4 0.660743 0.386997 0.374718
O O5 0.418764 0.126426 0.627986
O O6 0.399879 0.253293 0.955886
O O7 0.500000 0.391119 0.250000
O O8 0.000000 0.500000 0.500000
#
# Coordination Sequence:
#
# PCOD9255133 Si02
#       4
#     8   8   8   4
#     4   9  19  30  55  74  94 146 167 237 275 294
#     4   9  21  35  51  69 107 137 194 211 263 311
#     4  10  17  28  50  79 103 128 160 222 287 317
#     4  12  28  36  52  76 114 164 182 204 248 330
#
# _framework density 23.715247999999999
#
# number of rings (size 3 to 8) (size 9 to 14) (size 15 to 20)
#    1.714    0.571    0.000    3.429    6.000    0.000 
#    0.000    0.000    0.000    0.000    0.000    0.000 
#    0.000   22.857    0.000    0.000    0.000    0.000 
#
# Total GULP energy -78158.601922 kJ/mol
# GULP energy per Si atom -5582.757280 kJ/mol
# Density = 2.366127 g / cm^3
# Si number density = 23.715248 Si / 1000 Ang^3
#
#
#
# Elastic Constant Matrix: (Units=GPa)
#
#
# Indices 1 2 3 4 5 6 
#
# 1 138.0203 26.8268 8.5601 0.0000 -17.8256 0.0000
# 2 26.8268 54.7276 9.2142 0.0000 -6.9818 0.0000
# 3 8.5601 9.2142 93.9214 0.0000 -25.3125 0.0000
# 4 0.0000 0.0000 0.0000 -3.8722 0.0000 10.0358
# 5 -17.8256 -6.9818 -25.3125 0.0000 41.1672 0.0000
# 6 0.0000 0.0000 0.0000 10.0358 0.0000 -23.8039
#
#
#
# Elastic Compliance Matrix: (Units=1/GPa)
#
#
# Indices 1 2 3 4 5 6 
#
# 1 0.008372 -0.003767 0.000493 0.000000 0.003289 0.000000
# 2 -0.003767 0.020480 -0.001402 0.000000 0.000980 0.000000
# 3 0.000493 -0.001402 0.012865 0.000000 0.007886 0.000000
# 4 0.000000 0.000000 0.000000 2.786011 0.000000 1.174592
# 5 0.003289 0.000980 0.007886 0.000000 0.030731 0.000000
# 6 0.000000 0.000000 0.000000 1.174592 0.000000 0.453202
#
#
# Mechanical properties :
#
#
# Convention : Reuss Voigt Hill
#
# Bulk Modulus (GPa) = 30.89717 41.76349 36.33033
# Shear Modulus (GPa) = 1.50069 18.83610 10.16840
#
# Velocity S-wave (km/s) = 0.79635 2.82132 2.07292
# Velocity P-wave (km/s) = 3.72857 5.31618 4.59151
#
# Compressibility (1/GPa) = 0.03236542
#
# Stress axis : x y z
#
# Youngs Moduli (GPa) = 119.44916 48.82824 77.72930
#
# Poissons Ratio (x) = 0.18394 -0.03832
# Poissons Ratio (y) = 0.44998 0.10895
# Poissons Ratio (z) = -0.05890 0.06844
#
# Static dielectric constant tensor:
#      x y z
#    x 1.964070 0.000000 0.047740 
#    y 0.000000 1.965960 0.000000 
#    z 0.047740 0.000000 1.889440 
# 
# From -- ./inp_files/9396.got.cif
#   From: 2010.05.17/outbox.cif.g08.bks.cpg/sg15_5_cif.got.tgz:9396.got - 2010.06.03 18:47:42.
