data_PCOD9255684
_publ_section_title
;
Structure prediction by ZEFSAII (Michael W. Deem and Ramdas Pophale) SiO2 
 PCOD9255684
Probable space group: C 2/C
;
_chemical_formula_sum "Si O2"
_cell_formula_units_Z 56
_cell_length_a 18.404766
_cell_length_b 7.068636
_cell_length_c 17.967894
_cell_angle_alpha 90.000000
_cell_angle_beta 64.026819
_cell_angle_gamma 90.000000
_cell_volume 2101.466019
_symmetry_space_group_name_H-M "C 2/C"
_symmetry_group_IT_number 15
_symmetry_cell_setting 'monoclinic'
loop_
_space_group_symop_operation_xyz
x,y,z
-x,y,1/2-z
-x,-y,-z
x,-y,1/2+z
1/2+x,1/2+y,z
1/2-x,1/2+y,1/2-z
1/2-x,1/2-y,-z
1/2+x,1/2-y,1/2+z
loop_
_atom_site_type_symbol
_atom_site_label
_atom_site_fract_x
_atom_site_fract_y
_atom_site_fract_z
Si Si1 0.589675 0.303382 0.675617
Si Si2 0.597618 0.815839 0.454220
Si Si3 0.312491 0.804428 0.230551
Si Si4 0.360379 0.115354 0.396365
Si Si5 0.428639 0.734955 0.560051
Si Si6 0.135424 0.266123 0.764920
Si Si7 0.305789 0.423978 0.002624
O O1 0.500000 0.335243 0.750000
O O2 0.653568 0.315501 0.715741
O O3 0.594371 0.086726 0.639664
O O4 0.627178 0.429298 0.592727
O O5 0.655858 0.743871 0.364113
O O6 0.513451 0.708959 0.482031
O O7 0.618718 0.806588 0.531608
O O8 0.588685 0.040594 0.443599
O O9 0.217435 0.819539 0.261719
O O10 0.349241 0.009580 0.231439
O O11 0.264032 0.072687 0.444780
O O12 0.378167 0.244759 0.316561
O O13 0.432777 0.702892 0.646737
O O14 0.356682 0.628947 0.552016
O O15 0.250000 0.250000 0.000000
#
# Coordination Sequence:
#
# PCOD9255684 Si02
#       7
#     8   8   8   8   8   8   8
#     4  10  19  31  55  84 112 143 196 242 276 335
#     4  10  20  31  51  82 112 144 183 241 298 332
#     4  10  22  35  56  85 112 150 189 235 284 348
#     4  10  21  32  55  82 113 149 186 244 294 345
#     4  10  18  31  53  79 115 141 183 244 291 331
#     4  10  21  36  56  84 113 148 195 233 287 342
#     4  10  17  32  53  78 111 149 190 226 290 344
#
# _framework density 26.648064000000002
#
# number of rings (size 3 to 8) (size 9 to 14) (size 15 to 20)
#    0.000    2.000    2.857    3.429    8.000    0.571 
#    0.000    0.000    0.000    7.714    0.000    0.000 
#    0.000    0.000    0.000    0.000    0.000    0.000 
#
# Total GULP energy -156779.273867 kJ/mol
# GULP energy per Si atom -5599.259781 kJ/mol
# Density = 2.658741 g / cm^3
# Si number density = 26.648064 Si / 1000 Ang^3
#
#
#
# Elastic Constant Matrix: (Units=GPa)
#
#
# Indices 1 2 3 4 5 6 
#
# 1 64.5193 4.4085 36.6748 0.0003 -4.3403 0.0010
# 2 4.4085 66.2681 29.3888 0.0009 8.5677 0.0019
# 3 36.6748 29.3888 224.5084 0.0000 3.6709 0.0003
# 4 0.0003 0.0009 0.0000 34.4304 0.0001 7.4460
# 5 -4.3403 8.5677 3.6709 0.0001 63.2143 0.0003
# 6 0.0010 0.0019 0.0003 7.4460 0.0003 29.2662
#
#
#
# Elastic Compliance Matrix: (Units=1/GPa)
#
#
# Indices 1 2 3 4 5 6 
#
# 1 0.017200 -0.000067 -0.002823 0.000000 0.001354 -0.000001
# 2 -0.000067 0.016291 -0.002087 0.000000 -0.002091 -0.000001
# 3 -0.002823 -0.002087 0.005192 0.000000 -0.000212 0.000000
# 4 0.000000 0.000000 0.000000 0.030735 0.000000 -0.007820
# 5 0.001354 -0.002091 -0.000212 0.000000 0.016208 0.000000
# 6 -0.000001 -0.000001 0.000000 -0.007820 0.000000 0.036159
#
#
# Mechanical properties :
#
#
# Convention : Reuss Voigt Hill
#
# Bulk Modulus (GPa) = 34.81025 55.13777 44.97401
# Shear Modulus (GPa) = 35.38189 44.37042 39.87616
#
# Velocity S-wave (km/s) = 3.64778 4.08493 3.87253
# Velocity P-wave (km/s) = 5.55275 6.55629 6.07528
#
# Compressibility (1/GPa) = 0.02872717
#
# Stress axis : x y z
#
# Youngs Moduli (GPa) = 58.14092 61.38439 192.60262
#
# Poissons Ratio (x) = 0.00413 0.54371
# Poissons Ratio (y) = 0.00391 0.40202
# Poissons Ratio (z) = 0.16413 0.12813
#
# Static dielectric constant tensor:
#      x y z
#    x 1.966860 0.000000 0.009380 
#    y 0.000000 2.288250 0.000000 
#    z 0.009380 0.000000 2.027830 
# 
# From -- ./inp_files/160817.got.cif
#   From: 2010.05.17/outbox.cif.g08.bks.cpg/sg15_81_cif.got.tgz:160817.got - 2010.06.03 18:47:42.
