data_PCOD9255051
_publ_section_title
;
Structure prediction by ZEFSAII (Michael W. Deem and Ramdas Pophale) SiO2 
 PCOD9255051
Probable space group: C 2/C
;
_chemical_formula_sum "Si O2"
_cell_formula_units_Z 60
_cell_length_a 20.726232
_cell_length_b 12.486320
_cell_length_c 15.569532
_cell_angle_alpha 90.000000
_cell_angle_beta 70.162271
_cell_angle_gamma 90.000000
_cell_volume 3790.198021
_symmetry_space_group_name_H-M "C 2/C"
_symmetry_group_IT_number 15
_symmetry_cell_setting 'monoclinic'
loop_
_space_group_symop_operation_xyz
x,y,z
-x,y,1/2-z
-x,-y,-z
x,-y,1/2+z
1/2+x,1/2+y,z
1/2-x,1/2+y,1/2-z
1/2-x,1/2-y,-z
1/2+x,1/2-y,1/2+z
loop_
_atom_site_type_symbol
_atom_site_label
_atom_site_fract_x
_atom_site_fract_y
_atom_site_fract_z
Si Si1 0.493967 0.118828 0.965753
Si Si2 0.000000 0.922119 0.250000
Si Si3 0.428943 0.798500 0.230991
Si Si4 0.886106 0.995783 0.060646
Si Si5 0.294969 0.404524 0.954533
Si Si6 0.494289 0.335885 0.442416
Si Si7 0.646900 0.838198 0.070083
Si Si8 0.630439 0.437439 0.747308
O O1 0.548448 0.139371 0.864274
O O2 0.418199 0.137966 0.960278
O O3 0.505968 0.212987 0.029496
O O4 0.500000 0.000000 0.000000
O O5 0.009207 0.855104 0.158331
O O6 0.934337 0.997385 0.261917
O O7 0.500000 0.776501 0.250000
O O8 0.379053 0.857724 0.320798
O O9 0.394635 0.684280 0.227448
O O10 0.851466 0.015597 0.168228
O O11 0.937684 0.895457 0.051681
O O12 0.933019 0.097142 0.014154
O O13 0.834414 0.973661 0.007333
O O14 0.329696 0.286280 0.945296
O O15 0.311023 0.441463 0.850761
O O16 0.214925 0.400381 0.011932
#
# Coordination Sequence:
#
# PCOD9255051 Si02
#       8
#     8   4   8   8   8   8   8   8
#     4  11  21  37  55  74 104 143 185 220 246 307
#     4  10  18  28  50  84 114 136 156 220 286 320
#     4   9  17  31  53  76  98 131 181 216 254 302
#     4  10  18  29  54  82 109 131 168 223 277 315
#     4  10  18  34  54  79 112 132 169 219 272 319
#     4  10  19  31  50  82 109 131 174 220 267 313
#     4   9  20  35  54  77 103 137 175 220 261 306
#     4  10  17  27  53  84 106 137 163 213 279 325
#
# _framework density 15.830306999999999
#
# number of rings (size 3 to 8) (size 9 to 14) (size 15 to 20)
#    0.000    2.133    4.667    0.000    0.000    0.000 
#    6.000    0.000    0.000    0.800    0.000    0.000 
#    0.000    0.000    0.000    0.000    0.000    0.000 
#
# Total GULP energy -167181.642066 kJ/mol
# GULP energy per Si atom -5572.721402 kJ/mol
# Density = 1.579428 g / cm^3
# Si number density = 15.830307 Si / 1000 Ang^3
#
#
#
# Elastic Constant Matrix: (Units=GPa)
#
#
# Indices 1 2 3 4 5 6 
#
# 1 48.3418 19.9643 55.0052 0.0000 -10.9247 0.0000
# 2 19.9643 87.5255 53.0851 0.0000 1.7610 0.0000
# 3 55.0052 53.0851 150.9580 0.0000 -8.5553 0.0000
# 4 0.0000 0.0000 0.0000 19.6537 0.0000 5.8516
# 5 -10.9247 1.7610 -8.5553 0.0000 24.5318 0.0000
# 6 0.0000 0.0000 0.0000 5.8516 0.0000 11.7572
#
#
#
# Elastic Compliance Matrix: (Units=1/GPa)
#
#
# Indices 1 2 3 4 5 6 
#
# 1 0.038918 -0.001244 -0.013013 0.000000 0.012882 0.000000
# 2 -0.001244 0.014765 -0.004928 0.000000 -0.003332 0.000000
# 3 -0.013013 -0.004928 0.013048 0.000000 -0.000891 0.000000
# 4 0.000000 0.000000 0.000000 0.059732 0.000000 -0.029729
# 5 0.012882 -0.003332 -0.000891 0.000000 0.046429 0.000000
# 6 0.000000 0.000000 0.000000 -0.029729 0.000000 0.099851
#
#
# Mechanical properties :
#
#
# Convention : Reuss Voigt Hill
#
# Bulk Modulus (GPa) = 35.25878 60.32603 47.79240
# Shear Modulus (GPa) = 15.59742 21.77325 18.68534
#
# Velocity S-wave (km/s) = 3.14234 3.71268 3.43935
# Velocity P-wave (km/s) = 5.95710 7.52126 6.78441
#
# Compressibility (1/GPa) = 0.02836173
#
# Stress axis : x y z
#
# Youngs Moduli (GPa) = 25.69520 67.72908 76.63742
#
# Poissons Ratio (x) = 0.08422 0.99730
# Poissons Ratio (y) = 0.03195 0.37766
# Poissons Ratio (z) = 0.33438 0.33376
#
# Static dielectric constant tensor:
#      x y z
#    x 1.503730 0.000000 -0.003530 
#    y 0.000000 1.510530 0.000000 
#    z -0.003530 0.000000 1.549510 
# 
# From -- ./inp_files/172940.got.cif
#   From: 2010.05.17/outbox.cif.g08.bks.cpg/sg15_87_cif.got.tgz:172940.got - 2010.06.03 18:47:42.
