data_PCOD9255946
_publ_section_title
;
Structure prediction by ZEFSAII (Michael W. Deem and Ramdas Pophale) SiO2 
 PCOD9255946
Probable space group: C 2/C
;
_chemical_formula_sum "Si O2"
_cell_formula_units_Z 56
_cell_length_a 21.626041
_cell_length_b 8.054195
_cell_length_c 19.257388
_cell_angle_alpha 90.000000
_cell_angle_beta 134.850179
_cell_angle_gamma 90.000000
_cell_volume 2378.012889
_symmetry_space_group_name_H-M "C 2/C"
_symmetry_group_IT_number 15
_symmetry_cell_setting 'monoclinic'
loop_
_space_group_symop_operation_xyz
x,y,z
-x,y,1/2-z
-x,-y,-z
x,-y,1/2+z
1/2+x,1/2+y,z
1/2-x,1/2+y,1/2-z
1/2-x,1/2-y,-z
1/2+x,1/2-y,1/2+z
loop_
_atom_site_type_symbol
_atom_site_label
_atom_site_fract_x
_atom_site_fract_y
_atom_site_fract_z
Si Si1 0.472922 0.211749 0.888417
Si Si2 0.971692 0.274084 0.801975
Si Si3 0.819984 0.517255 0.207307
Si Si4 0.361576 0.619247 0.403391
Si Si5 0.427125 0.541493 0.099924
Si Si6 0.244799 0.453819 0.998406
Si Si7 0.391665 0.962384 0.492652
O O1 0.432300 0.365999 0.898750
O O2 0.531231 0.279236 0.871681
O O3 0.391141 0.108198 0.794729
O O4 0.548691 0.110682 0.990922
O O5 0.873243 0.310965 0.743032
O O6 0.000000 0.345840 0.750000
O O7 0.996897 0.084305 0.821119
O O8 0.035534 0.363515 0.905963
O O9 0.733552 0.542323 0.184636
O O10 0.791988 0.484069 0.105214
O O11 0.394642 0.520807 0.497622
O O12 0.352935 0.816844 0.414256
O O13 0.343233 0.518662 0.081339
O O14 0.184170 0.510397 0.013678
O O15 0.250000 0.250000 0.000000
#
# Coordination Sequence:
#
# PCOD9255946 Si02
#       7
#     8   8   8   8   8   8   8
#     4  11  24  39  55  96 129 154 201 258 320 345
#     4  10  17  33  58  89 118 157 203 247 301 372
#     4  10  21  36  64  90 119 161 201 265 302 350
#     4  10  21  42  65  82 118 174 213 239 290 388
#     4  10  22  37  61  89 122 167 200 254 305 366
#     4  11  17  39  69  91 112 162 221 243 300 379
#     4  10  20  36  67  88 118 159 209 252 300 366
#
# _framework density 23.549074000000001
#
# number of rings (size 3 to 8) (size 9 to 14) (size 15 to 20)
#    0.000    1.714    5.714    0.857    0.000    1.714 
#    2.571   10.000    0.000    0.000    0.000    0.000 
#    0.000    0.000    0.000    0.000    0.000    0.000 
#
# Total GULP energy -156251.594958 kJ/mol
# GULP energy per Si atom -5580.414106 kJ/mol
# Density = 2.349548 g / cm^3
# Si number density = 23.549074 Si / 1000 Ang^3
#
#
#
# Elastic Constant Matrix: (Units=GPa)
#
#
# Indices 1 2 3 4 5 6 
#
# 1 118.0651 22.8740 35.8369 0.0000 32.9039 0.0000
# 2 22.8740 36.4871 29.1527 0.0000 20.9900 0.0000
# 3 35.8369 29.1527 64.6622 0.0000 23.9330 0.0000
# 4 0.0000 0.0000 0.0000 11.3550 0.0000 1.5328
# 5 32.9039 20.9900 23.9330 0.0000 39.5962 0.0000
# 6 0.0000 0.0000 0.0000 1.5328 0.0000 33.4380
#
#
#
# Elastic Compliance Matrix: (Units=1/GPa)
#
#
# Indices 1 2 3 4 5 6 
#
# 1 0.011675 -0.000117 -0.003671 0.000000 -0.007421 0.000000
# 2 -0.000117 0.050104 -0.016398 0.000000 -0.016551 0.000000
# 3 -0.003671 -0.016398 0.026467 0.000000 -0.004254 0.000000
# 4 0.000000 0.000000 0.000000 0.088615 0.000000 -0.004062
# 5 -0.007421 -0.016551 -0.004254 0.000000 0.042767 0.000000
# 6 0.000000 0.000000 0.000000 -0.004062 0.000000 0.030092
#
#
# Mechanical properties :
#
#
# Convention : Reuss Voigt Hill
#
# Bulk Modulus (GPa) = 20.88848 43.88241 32.38544
# Shear Modulus (GPa) = 16.33717 25.63456 20.98587
#
# Velocity S-wave (km/s) = 2.63677 3.30291 2.98846
# Velocity P-wave (km/s) = 4.26140 5.76373 5.06853
#
# Compressibility (1/GPa) = 0.04787329
#
# Stress axis : x y z
#
# Youngs Moduli (GPa) = 85.65301 19.95862 37.78256
#
# Poissons Ratio (x) = 0.00233 0.13871
# Poissons Ratio (y) = 0.01002 0.61957
# Poissons Ratio (z) = 0.31444 0.32729
#
# Static dielectric constant tensor:
#      x y z
#    x 1.969860 0.000000 -0.045750 
#    y 0.000000 1.965040 0.000000 
#    z -0.045750 0.000000 1.901970 
# 
# From -- ./inp_files/281531.got.cif
#   From: 2010.05.17/outbox.cif.g08.bks.cpg/sg15_141_cif.got.tgz:281531.got - 2010.06.03 18:47:42.
