data_PCOD9255259
_publ_section_title
;
Structure prediction by ZEFSAII (Michael W. Deem and Ramdas Pophale) SiO2 
 PCOD9255259
Probable space group: C 2/C
;
_chemical_formula_sum "Si O2"
_cell_formula_units_Z 56
_cell_length_a 29.686445
_cell_length_b 13.134425
_cell_length_c 14.438292
_cell_angle_alpha 90.000000
_cell_angle_beta 154.725640
_cell_angle_gamma 90.000000
_cell_volume 2403.617703
_symmetry_space_group_name_H-M "C 2/C"
_symmetry_group_IT_number 15
_symmetry_cell_setting 'monoclinic'
loop_
_space_group_symop_operation_xyz
x,y,z
-x,y,1/2-z
-x,-y,-z
x,-y,1/2+z
1/2+x,1/2+y,z
1/2-x,1/2+y,1/2-z
1/2-x,1/2-y,-z
1/2+x,1/2-y,1/2+z
loop_
_atom_site_type_symbol
_atom_site_label
_atom_site_fract_x
_atom_site_fract_y
_atom_site_fract_z
Si Si1 0.183256 0.642864 0.971418
Si Si2 0.392948 0.424831 0.110873
Si Si3 0.456573 0.900755 0.971766
Si Si4 0.990027 0.196812 0.954461
Si Si5 0.884642 0.737045 0.985814
Si Si6 0.374206 0.993044 0.486811
Si Si7 0.837846 0.866256 0.585027
O O1 0.060941 0.639142 0.716200
O O2 0.193147 0.551842 0.061988
O O3 0.192673 0.759954 0.021957
O O4 0.253735 0.623940 0.012171
O O5 0.500000 0.441904 0.250000
O O6 0.423711 0.381967 0.269900
O O7 0.335919 0.331941 0.950706
O O8 0.341318 0.534038 0.029352
O O9 0.425691 0.801234 0.855596
O O10 0.374636 0.943142 0.892918
O O11 0.500000 0.000000 0.000000
O O12 0.048168 0.147913 0.151289
O O13 0.084829 0.232615 0.062012
O O14 0.841989 0.623741 0.915611
O O15 0.000000 0.729420 0.250000
O O16 0.500000 0.992668 0.750000
#
# Coordination Sequence:
#
# PCOD9255259 Si02
#       7
#     8   8   8   8   8   8   8
#     4   9  21  33  51  72 100 142 160 211 260 297
#     4   9  19  32  54  77 100 136 168 209 247 302
#     4  10  17  29  54  80  98 125 172 214 246 300
#     4   9  17  30  53  76  99 130 168 208 254 292
#     4   8  15  29  49  76  99 126 158 207 259 293
#     4   9  16  30  52  75  99 123 168 212 251 295
#     4  10  19  36  50  70 106 135 174 199 255 308
#
# _framework density 23.298214999999999
#
# number of rings (size 3 to 8) (size 9 to 14) (size 15 to 20)
#    0.000    3.143    1.429    0.429    2.000    2.857 
#    0.000    3.571    3.143    0.000    0.000    0.000 
#    0.000    0.000    0.000    0.000    0.000    0.000 
#
# Total GULP energy -156309.289002 kJ/mol
# GULP energy per Si atom -5582.474607 kJ/mol
# Density = 2.324519 g / cm^3
# Si number density = 23.298215 Si / 1000 Ang^3
#
#
#
# Elastic Constant Matrix: (Units=GPa)
#
#
# Indices 1 2 3 4 5 6 
#
# 1 72.4559 78.4018 -7.1479 0.0000 1.8965 0.0000
# 2 78.4018 232.0407 26.7559 0.0000 8.3093 0.0000
# 3 -7.1479 26.7559 50.8097 0.0000 -0.3028 0.0000
# 4 0.0000 0.0000 0.0000 36.3379 0.0000 -4.4463
# 5 1.8965 8.3093 -0.3028 0.0000 15.5125 0.0000
# 6 0.0000 0.0000 0.0000 -4.4463 0.0000 38.9421
#
#
#
# Elastic Compliance Matrix: (Units=1/GPa)
#
#
# Indices 1 2 3 4 5 6 
#
# 1 0.024779 -0.009426 0.008463 0.000000 0.002185 0.000000
# 2 -0.009426 0.008274 -0.005703 0.000000 -0.003391 0.000000
# 3 0.008463 -0.005703 0.023890 0.000000 0.002487 0.000000
# 4 0.000000 0.000000 0.000000 0.027909 0.000000 0.003187
# 5 0.002185 -0.003391 0.002487 0.000000 0.066062 0.000000
# 6 0.000000 0.000000 0.000000 0.003187 0.000000 0.026043
#
#
# Mechanical properties :
#
#
# Convention : Reuss Voigt Hill
#
# Bulk Modulus (GPa) = 22.93098 61.25846 42.09472
# Shear Modulus (GPa) = 24.41087 35.31159 29.86123
#
# Velocity S-wave (km/s) = 3.24042 3.89734 3.58396
# Velocity P-wave (km/s) = 4.88510 6.82661 5.93577
#
# Compressibility (1/GPa) = 0.04360913
#
# Stress axis : x y z
#
# Youngs Moduli (GPa) = 40.35645 120.86607 41.85880
#
# Poissons Ratio (x) = 1.13934 -0.35424
# Poissons Ratio (y) = 0.38042 0.23873
# Poissons Ratio (z) = -0.34153 0.68931
#
# Static dielectric constant tensor:
#      x y z
#    x 1.856400 0.000000 -0.032990 
#    y 0.000000 1.904130 0.000000 
#    z -0.032990 0.000000 2.018380 
# 
# From -- ./inp_files/177590.got.cif
#   From: 2010.05.17/outbox.cif.g08.bks.cpg/sg15_89_cif.got.tgz:177590.got - 2010.06.03 18:47:42.
