data_PCOD9255481
_publ_section_title
;
Structure prediction by ZEFSAII (Michael W. Deem and Ramdas Pophale) SiO2 
 PCOD9255481
Probable space group: C 2/C
;
_chemical_formula_sum "Si O2"
_cell_formula_units_Z 64
_cell_length_a 24.457108
_cell_length_b 22.073811
_cell_length_c 17.933273
_cell_angle_alpha 90.000000
_cell_angle_beta 24.593452
_cell_angle_gamma 90.000000
_cell_volume 4029.210241
_symmetry_space_group_name_H-M "C 2/C"
_symmetry_group_IT_number 15
_symmetry_cell_setting 'monoclinic'
loop_
_space_group_symop_operation_xyz
x,y,z
-x,y,1/2-z
-x,-y,-z
x,-y,1/2+z
1/2+x,1/2+y,z
1/2-x,1/2+y,1/2-z
1/2-x,1/2-y,-z
1/2+x,1/2-y,1/2+z
loop_
_atom_site_type_symbol
_atom_site_label
_atom_site_fract_x
_atom_site_fract_y
_atom_site_fract_z
Si Si1 0.981996 0.680076 0.862362
Si Si2 0.258611 0.514431 0.719109
Si Si3 0.516730 0.547613 0.645094
Si Si4 0.230892 0.416844 0.861172
Si Si5 0.636877 0.578273 0.158597
Si Si6 0.037677 0.900779 0.440446
Si Si7 0.211911 0.383152 0.169950
Si Si8 0.059054 0.183194 0.039675
O O1 0.096112 0.644981 0.765132
O O2 0.000000 0.678949 0.750000
O O3 0.979850 0.749110 0.892622
O O4 0.848765 0.644719 0.049137
O O5 0.336714 0.470579 0.564408
O O6 0.179566 0.472000 0.874435
O O7 0.368562 0.551509 0.631779
O O8 0.180488 0.565221 0.769787
O O9 0.500000 0.571288 0.750000
O O10 0.443250 0.483149 0.734724
O O11 0.453479 0.589308 0.658827
O O12 0.240158 0.427623 0.937907
O O13 0.384672 0.413336 0.648450
O O14 0.547083 0.636036 0.292828
O O15 0.688088 0.586650 0.012493
O O16 0.064760 0.836302 0.445739
O O17 0.298888 0.331725 0.102032
#
# Coordination Sequence:
#
# PCOD9255481 Si02
#       8
#     8   8   8   8   8   8   8   8
#     4  12  25  33  46  70 100 140 168 191 228 286
#     4  10  17  31  51  71  97 130 156 198 251 287
#     4  11  15  25  52  83  94 116 158 205 257 283
#     4  10  19  32  48  68 101 130 159 203 238 280
#     4  11  16  31  51  71 101 126 158 210 241 275
#     4   9  18  32  49  73  99 126 157 204 251 278
#     4  11  21  32  48  71 100 130 167 193 240 296
#     4  10  22  33  48  68  99 136 165 197 238 281
#
# _framework density 15.884005999999999
#
# number of rings (size 3 to 8) (size 9 to 14) (size 15 to 20)
#    0.000    1.500    7.500    1.875    3.500    1.500 
#    0.000    0.000    0.000    0.000    0.000    3.500 
#    3.750    0.000    0.000    0.000    0.000    0.000 
#
# Total GULP energy -178191.743150 kJ/mol
# GULP energy per Si atom -5568.491973 kJ/mol
# Density = 1.584785 g / cm^3
# Si number density = 15.884006 Si / 1000 Ang^3
#
#
#
# Elastic Constant Matrix: (Units=GPa)
#
#
# Indices 1 2 3 4 5 6 
#
# 1 124.9584 51.7904 18.7386 0.0084 16.8951 0.0032
# 2 51.7904 88.5876 26.4635 0.0095 8.4019 0.0041
# 3 18.7386 26.4635 15.4424 0.0160 8.4607 0.0070
# 4 0.0084 0.0095 0.0160 -49.1472 -0.0134 -22.6487
# 5 16.8951 8.4019 8.4607 -0.0134 18.3018 -0.0059
# 6 0.0032 0.0041 0.0070 -22.6487 -0.0059 10.0201
#
#
#
# Elastic Compliance Matrix: (Units=1/GPa)
#
#
# Indices 1 2 3 4 5 6 
#
# 1 0.011580 -0.006469 0.001693 0.000003 -0.008502 0.000000
# 2 -0.006469 0.028295 -0.049274 -0.000015 0.015761 -0.000001
# 3 0.001693 -0.049274 0.181602 0.000065 -0.062895 0.000004
# 4 0.000003 -0.000015 0.000065 -0.009966 -0.000041 -0.022526
# 5 -0.008502 0.015761 -0.062895 -0.000041 0.084329 -0.000003
# 6 0.000000 -0.000001 0.000004 -0.022526 -0.000003 0.048882
#
#
# Mechanical properties :
#
#
# Convention : Reuss Voigt Hill
#
# Bulk Modulus (GPa) = 8.82018 46.99704 27.90861
# Shear Modulus (GPa) = 10.19133 4.63467 7.41300
#
# Velocity S-wave (km/s) = 2.53575 1.71002 2.16266
# Velocity P-wave (km/s) = 3.76009 5.79230 4.88309
#
# Compressibility (1/GPa) = 0.11337638
#
# Stress axis : x y z
#
# Youngs Moduli (GPa) = 86.35943 35.34202 5.50655
#
# Poissons Ratio (x) = 0.22863 -0.00932
# Poissons Ratio (y) = 0.55867 0.27133
# Poissons Ratio (z) = -0.14623 1.74145
#
# Static dielectric constant tensor:
#      x y z
#    x 1.604640 0.000000 -0.005150 
#    y 0.000000 1.525300 0.000000 
#    z -0.005150 0.000000 1.547990 
# 
# From -- ./inp_files/220061.got.cif
#   From: 2010.05.17/outbox.cif.g08.bks.cpg/sg15_111_cif.got.tgz:220061.got - 2010.06.03 18:47:42.
