data_PCOD9255844
_publ_section_title
;
Structure prediction by ZEFSAII (Michael W. Deem and Ramdas Pophale) SiO2 
 PCOD9255844
Probable space group: C 2/C
;
_chemical_formula_sum "Si O2"
_cell_formula_units_Z 56
_cell_length_a 25.796620
_cell_length_b 11.353099
_cell_length_c 14.067666
_cell_angle_alpha 90.000000
_cell_angle_beta 46.859353
_cell_angle_gamma 90.000000
_cell_volume 3006.285018
_symmetry_space_group_name_H-M "C 2/C"
_symmetry_group_IT_number 15
_symmetry_cell_setting 'monoclinic'
loop_
_space_group_symop_operation_xyz
x,y,z
-x,y,1/2-z
-x,-y,-z
x,-y,1/2+z
1/2+x,1/2+y,z
1/2-x,1/2+y,1/2-z
1/2-x,1/2-y,-z
1/2+x,1/2-y,1/2+z
loop_
_atom_site_type_symbol
_atom_site_label
_atom_site_fract_x
_atom_site_fract_y
_atom_site_fract_z
Si Si1 0.425462 0.524454 0.811167
Si Si2 0.221600 0.405137 0.949984
Si Si3 0.459271 0.357963 0.589640
Si Si4 0.339233 0.800097 0.293750
Si Si5 0.738389 0.995954 0.234371
Si Si6 0.395832 0.556185 0.548632
Si Si7 0.720194 0.626602 0.504389
O O1 0.500000 0.577167 0.750000
O O2 0.439197 0.444807 0.702447
O O3 0.400076 0.439452 0.929114
O O4 0.364195 0.618517 0.875351
O O5 0.286741 0.313194 0.856236
O O6 0.199856 0.445825 0.872425
O O7 0.165414 0.345208 0.091680
O O8 0.248819 0.519723 0.971995
O O9 0.416738 0.239696 0.662949
O O10 0.425622 0.427559 0.542942
O O11 0.545032 0.356864 0.481090
O O12 0.306423 0.898255 0.265310
O O13 0.813034 0.938527 0.177779
O O14 0.761167 0.093900 0.128029
O O15 0.750000 0.750000 0.500000
#
# Coordination Sequence:
#
# PCOD9255844 Si02
#       7
#     8   8   8   8   8   8   8
#     4   9  17  30  47  72 104 130 170 222 272 320
#     4  10  20  34  50  77 113 140 181 223 277 333
#     4  10  17  33  51  76 110 138 168 230 279 327
#     4  10  20  33  55  77 112 142 178 229 277 331
#     4  10  20  33  51  82 109 145 182 228 275 329
#     4   9  18  29  50  77 111 128 176 224 278 320
#     4  10  20  32  49  78 107 138 178 225 273 327
#
# _framework density 18.627641000000001
#
# number of rings (size 3 to 8) (size 9 to 14) (size 15 to 20)
#    0.000    2.286    2.857    0.000    4.000    0.000 
#    0.000    0.000    0.000    0.000    7.429    1.000 
#    0.000    0.000    0.000    0.000    0.000    0.000 
#
# Total GULP energy -156120.980208 kJ/mol
# GULP energy per Si atom -5575.749293 kJ/mol
# Density = 1.858524 g / cm^3
# Si number density = 18.627641 Si / 1000 Ang^3
#
#
#
# Elastic Constant Matrix: (Units=GPa)
#
#
# Indices 1 2 3 4 5 6 
#
# 1 70.5090 35.4722 30.3998 0.0000 -0.0408 0.0000
# 2 35.4722 79.6696 26.2132 0.0000 -5.6710 0.0000
# 3 30.3998 26.2132 56.1889 0.0000 9.4374 0.0000
# 4 0.0000 0.0000 0.0000 27.7601 0.0000 -3.0255
# 5 -0.0408 -5.6710 9.4374 0.0000 44.2879 0.0000
# 6 0.0000 0.0000 0.0000 -3.0255 0.0000 18.9182
#
#
#
# Elastic Compliance Matrix: (Units=1/GPa)
#
#
# Indices 1 2 3 4 5 6 
#
# 1 0.021165 -0.006531 -0.008574 0.000000 0.001010 0.000000
# 2 -0.006531 0.017385 -0.005134 0.000000 0.003314 0.000000
# 3 -0.008574 -0.005134 0.025868 0.000000 -0.006178 0.000000
# 4 0.000000 0.000000 0.000000 0.036662 0.000000 0.005863
# 5 0.001010 0.003314 -0.006178 0.000000 0.024321 0.000000
# 6 0.000000 0.000000 0.000000 0.005863 0.000000 0.053797
#
#
# Mechanical properties :
#
#
# Convention : Reuss Voigt Hill
#
# Bulk Modulus (GPa) = 41.76813 43.39310 42.58061
# Shear Modulus (GPa) = 21.96302 25.81206 23.88754
#
# Velocity S-wave (km/s) = 3.43746 3.72652 3.58491
# Velocity P-wave (km/s) = 6.18273 6.47005 6.32802
#
# Compressibility (1/GPa) = 0.02394170
#
# Stress axis : x y z
#
# Youngs Moduli (GPa) = 47.24698 57.52236 38.65718
#
# Poissons Ratio (x) = 0.37566 0.33145
# Poissons Ratio (y) = 0.30856 0.19845
# Poissons Ratio (z) = 0.40510 0.29529
#
# Static dielectric constant tensor:
#      x y z
#    x 1.680070 0.000000 0.014940 
#    y 0.000000 1.620590 0.000000 
#    z 0.014940 0.000000 1.689110 
# 
# From -- ./inp_files/177554.got.cif
#   From: 2010.05.17/outbox.cif.g08.bks.cpg/sg15_89_cif.got.tgz:177554.got - 2010.06.03 18:47:42.
