data_PCOD9255578
_publ_section_title
;
Structure prediction by ZEFSAII (Michael W. Deem and Ramdas Pophale) SiO2 
 PCOD9255578
Probable space group: C 2/C
;
_chemical_formula_sum "Si O2"
_cell_formula_units_Z 48
_cell_length_a 25.813173
_cell_length_b 6.983975
_cell_length_c 19.995868
_cell_angle_alpha 90.000000
_cell_angle_beta 144.929826
_cell_angle_gamma 90.000000
_cell_volume 2071.258423
_symmetry_space_group_name_H-M "C 2/C"
_symmetry_group_IT_number 15
_symmetry_cell_setting 'monoclinic'
loop_
_space_group_symop_operation_xyz
x,y,z
-x,y,1/2-z
-x,-y,-z
x,-y,1/2+z
1/2+x,1/2+y,z
1/2-x,1/2+y,1/2-z
1/2-x,1/2-y,-z
1/2+x,1/2-y,1/2+z
loop_
_atom_site_type_symbol
_atom_site_label
_atom_site_fract_x
_atom_site_fract_y
_atom_site_fract_z
Si Si1 0.210847 0.951566 0.777233
Si Si2 0.740254 0.341680 0.070889
Si Si3 0.838399 0.617244 0.093062
Si Si4 0.149438 0.557738 0.685031
Si Si5 0.564493 0.410072 0.381365
Si Si6 0.070491 0.253614 0.673944
O O1 0.243569 0.869930 0.883433
O O2 0.146112 0.787389 0.677461
O O3 0.298015 0.981025 0.823616
O O4 0.151796 0.136784 0.726520
O O5 0.804105 0.405170 0.076380
O O6 0.780988 0.459564 0.178244
O O7 0.640948 0.427633 0.960368
O O8 0.892104 0.698414 0.086419
O O9 0.900243 0.677109 0.221286
O O10 0.750000 0.750000 0.000000
O O11 0.063429 0.439489 0.619732
O O12 0.500000 0.454628 0.250000
O O13 0.511088 0.388122 0.394306
#
# Coordination Sequence:
#
# PCOD9255578 Si02
#       6
#     8   8   8   8   8   8
#     4  10  18  32  55  79 101 136 183 213 255 314
#     4   8  17  31  54  78 105 134 179 207 251 326
#     4   8  15  31  52  75  98 136 172 205 256 312
#     4   9  18  32  54  78 102 135 180 211 259 313
#     4   9  17  31  55  76 105 140 166 213 275 296
#     4  10  17  31  57  74 104 139 167 223 263 301
#
# _framework density 23.174316000000001
#
# number of rings (size 3 to 8) (size 9 to 14) (size 15 to 20)
#    1.000    2.000    1.667    0.000    0.000    0.000 
#    0.000   10.833   22.000    2.000    0.000    0.000 
#    0.000    0.000    0.000    0.000    0.000    0.000 
#
# Total GULP energy -133660.526516 kJ/mol
# GULP energy per Si atom -5569.188605 kJ/mol
# Density = 2.312157 g / cm^3
# Si number density = 23.174316 Si / 1000 Ang^3
#
#
#
# Elastic Constant Matrix: (Units=GPa)
#
#
# Indices 1 2 3 4 5 6 
#
# 1 80.6184 -13.1871 -7.2308 0.0000 0.0263 0.0000
# 2 -13.1871 46.7844 -1.8496 0.0000 -3.4645 0.0000
# 3 -7.2308 -1.8496 60.9811 0.0000 -5.4533 0.0000
# 4 0.0000 0.0000 0.0000 11.1488 0.0000 -5.6192
# 5 0.0263 -3.4645 -5.4533 0.0000 28.0633 0.0000
# 6 0.0000 0.0000 0.0000 -5.6192 0.0000 21.5202
#
#
#
# Elastic Compliance Matrix: (Units=1/GPa)
#
#
# Indices 1 2 3 4 5 6 
#
# 1 0.013190 0.003847 0.001753 0.000000 0.000803 0.000000
# 2 0.003847 0.022743 0.001421 0.000000 0.003080 0.000000
# 3 0.001753 0.001421 0.016960 0.000000 0.003469 0.000000
# 4 0.000000 0.000000 0.000000 0.103289 0.000000 0.026970
# 5 0.000803 0.003080 0.003469 0.000000 0.036687 0.000000
# 6 0.000000 0.000000 0.000000 0.026970 0.000000 0.053510
#
#
# Mechanical properties :
#
#
# Convention : Reuss Voigt Hill
#
# Bulk Modulus (GPa) = 14.94000 15.98321 15.46161
# Shear Modulus (GPa) = 19.63477 26.18989 22.91233
#
# Velocity S-wave (km/s) = 2.91394 3.36538 3.14776
# Velocity P-wave (km/s) = 4.21689 4.69180 4.46067
#
# Compressibility (1/GPa) = 0.06693440
#
# Stress axis : x y z
#
# Youngs Moduli (GPa) = 75.81350 43.96915 58.96333
#
# Poissons Ratio (x) = -0.16914 -0.10333
# Poissons Ratio (y) = -0.29163 -0.08381
# Poissons Ratio (z) = -0.13286 -0.06250
#
# Static dielectric constant tensor:
#      x y z
#    x 1.886110 0.000000 -0.008740 
#    y 0.000000 1.942150 0.000000 
#    z -0.008740 0.000000 1.921050 
# 
# From -- ./inp_files/281406.got.cif
#   From: 2010.05.17/outbox.cif.g08.bks.cpg/sg15_141_cif.got.tgz:281406.got - 2010.06.03 18:47:42.
