data_PCOD9255781
_publ_section_title
;
Structure prediction by ZEFSAII (Michael W. Deem and Ramdas Pophale) SiO2 
 PCOD9255781
Probable space group: C 2/C
;
_chemical_formula_sum "Si O2"
_cell_formula_units_Z 64
_cell_length_a 16.455114
_cell_length_b 13.041308
_cell_length_c 17.761772
_cell_angle_alpha 90.000000
_cell_angle_beta 60.812612
_cell_angle_gamma 90.000000
_cell_volume 3327.646845
_symmetry_space_group_name_H-M "C 2/C"
_symmetry_group_IT_number 15
_symmetry_cell_setting 'monoclinic'
loop_
_space_group_symop_operation_xyz
x,y,z
-x,y,1/2-z
-x,-y,-z
x,-y,1/2+z
1/2+x,1/2+y,z
1/2-x,1/2+y,1/2-z
1/2-x,1/2-y,-z
1/2+x,1/2-y,1/2+z
loop_
_atom_site_type_symbol
_atom_site_label
_atom_site_fract_x
_atom_site_fract_y
_atom_site_fract_z
Si Si1 0.720245 0.152961 0.144403
Si Si2 0.295011 0.789711 0.671489
Si Si3 0.430247 0.389643 0.108160
Si Si4 0.899908 0.533170 0.761407
Si Si5 0.453605 0.934530 0.586149
Si Si6 0.423694 0.375713 0.587455
Si Si7 0.091349 0.227091 0.251711
Si Si8 0.450896 0.767480 0.852924
O O1 0.705674 0.188760 0.237981
O O2 0.830389 0.147842 0.081891
O O3 0.658223 0.223814 0.117845
O O4 0.675929 0.038815 0.164803
O O5 0.334367 0.674218 0.647955
O O6 0.192827 0.818339 0.689145
O O7 0.371280 0.859986 0.596628
O O8 0.413693 0.510219 0.127572
O O9 0.499612 0.334442 0.136566
O O10 0.485488 0.377305 0.004829
O O11 0.906859 0.507033 0.670070
O O12 0.891794 0.653913 0.774159
O O13 0.000000 0.505755 0.750000
O O14 0.500000 0.000000 0.500000
O O15 0.522526 0.857262 0.599897
O O16 0.427893 0.293280 0.651858
O O17 0.000000 0.189509 0.250000
O O18 0.500000 0.785779 0.750000
#
# Coordination Sequence:
#
# PCOD9255781 Si02
#       8
#     8   8   8   8   8   8   8   8
#     4  10  17  36  61  88 111 149 202 249 296 353
#     4   9  19  37  59  82 111 151 197 243 300 353
#     4  10  21  38  58  82 116 160 191 242 313 354
#     4  10  17  32  58  82 109 148 192 236 290 347
#     4  10  19  31  56  90 117 144 183 252 314 348
#     4  10  23  38  55  82 125 157 194 247 301 365
#     4  10  22  37  57  81 113 156 202 235 279 374
#     4  11  18  36  63  89 113 152 205 254 295 360
#
# _framework density 19.232809
#
# number of rings (size 3 to 8) (size 9 to 14) (size 15 to 20)
#    0.000    2.000    5.000    0.750    3.500    1.000 
#    0.000    3.125    0.000    0.000    0.000    0.000 
#    0.000    0.000    0.000    0.000    0.000    0.000 
#
# Total GULP energy -178319.053137 kJ/mol
# GULP energy per Si atom -5572.470411 kJ/mol
# Density = 1.918903 g / cm^3
# Si number density = 19.232809 Si / 1000 Ang^3
#
#
#
# Elastic Constant Matrix: (Units=GPa)
#
#
# Indices 1 2 3 4 5 6 
#
# 1 133.6991 15.9176 4.8510 0.0000 -7.9743 0.0000
# 2 15.9176 41.0178 -0.6699 0.0000 6.8915 0.0000
# 3 4.8510 -0.6699 25.7583 0.0000 -1.7843 0.0000
# 4 0.0000 0.0000 0.0000 21.6513 0.0000 2.0763
# 5 -7.9743 6.8915 -1.7843 0.0000 18.6804 0.0000
# 6 0.0000 0.0000 0.0000 2.0763 0.0000 19.9477
#
#
#
# Elastic Compliance Matrix: (Units=1/GPa)
#
#
# Indices 1 2 3 4 5 6 
#
# 1 0.008306 -0.004072 -0.001329 0.000000 0.004921 0.000000
# 2 -0.004072 0.027987 0.000663 0.000000 -0.011999 0.000000
# 3 -0.001329 0.000663 0.039294 0.000000 0.002941 0.000000
# 4 0.000000 0.000000 0.000000 0.046652 0.000000 -0.004856
# 5 0.004921 -0.011999 0.002941 0.000000 0.060340 0.000000
# 6 0.000000 0.000000 0.000000 -0.004856 0.000000 0.050637
#
#
# Mechanical properties :
#
#
# Convention : Reuss Voigt Hill
#
# Bulk Modulus (GPa) = 15.12603 26.74140 20.93371
# Shear Modulus (GPa) = 18.88734 24.08098 21.48416
#
# Velocity S-wave (km/s) = 3.13715 3.54231 3.34587
# Velocity P-wave (km/s) = 4.58302 5.53759 5.08276
#
# Compressibility (1/GPa) = 0.06611122
#
# Stress axis : x y z
#
# Youngs Moduli (GPa) = 120.39536 35.73131 25.44938
#
# Poissons Ratio (x) = 0.14549 0.03383
# Poissons Ratio (y) = 0.49022 -0.01688
# Poissons Ratio (z) = 0.16004 -0.02371
#
# Static dielectric constant tensor:
#      x y z
#    x 1.714460 0.000000 -0.010690 
#    y 0.000000 1.707340 0.000000 
#    z -0.010690 0.000000 1.654160 
# 
# From -- ./inp_files/248375.got.cif
#   From: 2010.05.17/outbox.cif.g08.bks.cpg/sg15_125_cif.got.tgz:248375.got - 2010.06.03 18:47:42.
