data_PCOD9255229
_publ_section_title
;
Structure prediction by ZEFSAII (Michael W. Deem and Ramdas Pophale) SiO2 
 PCOD9255229
Probable space group: C 2/C
;
_chemical_formula_sum "Si O2"
_cell_formula_units_Z 48
_cell_length_a 6.964001
_cell_length_b 17.996118
_cell_length_c 17.407820
_cell_angle_alpha 90.000000
_cell_angle_beta 124.118092
_cell_angle_gamma 90.000000
_cell_volume 1806.138903
_symmetry_space_group_name_H-M "C 2/C"
_symmetry_group_IT_number 15
_symmetry_cell_setting 'monoclinic'
loop_
_space_group_symop_operation_xyz
x,y,z
-x,y,1/2-z
-x,-y,-z
x,-y,1/2+z
1/2+x,1/2+y,z
1/2-x,1/2+y,1/2-z
1/2-x,1/2-y,-z
1/2+x,1/2-y,1/2+z
loop_
_atom_site_type_symbol
_atom_site_label
_atom_site_fract_x
_atom_site_fract_y
_atom_site_fract_z
Si Si1 0.410453 0.802921 0.927586
Si Si2 0.955789 0.435582 0.050965
Si Si3 0.259735 0.890739 0.245595
Si Si4 0.747398 0.019241 0.351362
Si Si5 0.103375 0.823959 0.556691
Si Si6 0.720266 0.226182 0.255986
O O1 0.663084 0.818039 0.943884
O O2 0.243095 0.812209 0.816991
O O3 0.374031 0.864078 0.984678
O O4 0.418651 0.719170 0.962600
O O5 0.171773 0.409824 0.152094
O O6 0.798074 0.473762 0.080811
O O7 0.000000 0.500000 0.000000
O O8 0.500000 0.881840 0.250000
O O9 0.151781 0.810000 0.218938
O O10 0.131077 0.959935 0.177609
O O11 0.500000 0.033897 0.250000
O O12 0.881306 0.093153 0.405361
O O13 0.100743 0.774837 0.634551
O O14 0.500000 0.191771 0.250000
#
# Coordination Sequence:
#
# PCOD9255229 Si02
#       6
#     8   8   8   8   8   8
#     4  10  19  29  51  82 104 135 175 224 276 318
#     4  10  17  29  51  79 106 130 178 228 266 311
#     4   9  20  36  52  75 108 144 174 223 271 320
#     4   9  18  31  52  74 104 143 184 220 268 320
#     4  10  18  31  49  79 111 133 174 230 270 311
#     4  10  20  33  55  78 109 138 176 223 275 322
#
# _framework density 26.576031
#
# number of rings (size 3 to 8) (size 9 to 14) (size 15 to 20)
#    0.000    2.667    3.333    1.500    2.333    0.000 
#    0.000    4.167    0.000    1.000    0.000    0.000 
#    0.000    0.000    0.000    0.000    0.000    0.000 
#
# Total GULP energy -134083.690547 kJ/mol
# GULP energy per Si atom -5586.820439 kJ/mol
# Density = 2.651554 g / cm^3
# Si number density = 26.576031 Si / 1000 Ang^3
#
#
#
# Elastic Constant Matrix: (Units=GPa)
#
#
# Indices 1 2 3 4 5 6 
#
# 1 102.3157 25.4171 47.9035 0.0000 -12.2681 0.0000
# 2 25.4171 196.4584 78.3463 0.0000 -25.4496 0.0000
# 3 47.9035 78.3463 215.3885 0.0000 -44.6452 0.0000
# 4 0.0000 0.0000 0.0000 47.3364 0.0000 -14.1476
# 5 -12.2681 -25.4496 -44.6452 0.0000 33.6230 0.0000
# 6 0.0000 0.0000 0.0000 -14.1476 0.0000 28.2581
#
#
#
# Elastic Compliance Matrix: (Units=1/GPa)
#
#
# Indices 1 2 3 4 5 6 
#
# 1 0.010973 -0.000474 -0.002087 0.000000 0.000874 0.000000
# 2 -0.000474 0.006100 -0.001645 0.000000 0.002260 0.000000
# 3 -0.002087 -0.001645 0.007298 0.000000 0.007684 0.000000
# 4 0.000000 0.000000 0.000000 0.024843 0.000000 0.012438
# 5 0.000874 0.002260 0.007684 0.000000 0.041974 0.000000
# 6 0.000000 0.000000 0.000000 0.012438 0.000000 0.041615
#
#
# Mechanical properties :
#
#
# Convention : Reuss Voigt Hill
#
# Bulk Modulus (GPa) = 62.65948 90.83292 76.74620
# Shear Modulus (GPa) = 34.12157 46.00989 40.06573
#
# Velocity S-wave (km/s) = 3.58707 4.16535 3.88698
# Velocity P-wave (km/s) = 6.38629 7.57537 7.00610
#
# Compressibility (1/GPa) = 0.01595928
#
# Stress axis : x y z
#
# Youngs Moduli (GPa) = 91.13008 163.92685 137.02493
#
# Poissons Ratio (x) = 0.07774 0.28595
# Poissons Ratio (y) = 0.04322 0.22541
# Poissons Ratio (z) = 0.19018 0.26966
#
# Static dielectric constant tensor:
#      x y z
#    x 2.221000 0.000000 -0.068770 
#    y 0.000000 2.052530 0.000000 
#    z -0.068770 0.000000 3.108130 
# 
# From -- ./inp_files/239377.got.cif
#   From: 2010.05.17/outbox.cif.g08.bks.cpg/sg15_120_cif.got.tgz:239377.got - 2010.06.03 18:47:42.
