data_PCOD9255663
_publ_section_title
;
Structure prediction by ZEFSAII (Michael W. Deem and Ramdas Pophale) SiO2 
 PCOD9255663
Probable space group: C 2/C
;
_chemical_formula_sum "Si O2"
_cell_formula_units_Z 48
_cell_length_a 6.777594
_cell_length_b 25.703458
_cell_length_c 11.716328
_cell_angle_alpha 90.000000
_cell_angle_beta 107.363333
_cell_angle_gamma 90.000000
_cell_volume 1948.064774
_symmetry_space_group_name_H-M "C 2/C"
_symmetry_group_IT_number 15
_symmetry_cell_setting 'monoclinic'
loop_
_space_group_symop_operation_xyz
x,y,z
-x,y,1/2-z
-x,-y,-z
x,-y,1/2+z
1/2+x,1/2+y,z
1/2-x,1/2+y,1/2-z
1/2-x,1/2-y,-z
1/2+x,1/2-y,1/2+z
loop_
_atom_site_type_symbol
_atom_site_label
_atom_site_fract_x
_atom_site_fract_y
_atom_site_fract_z
Si Si1 0.098542 0.273657 0.088666
Si Si2 0.053090 0.387666 0.041018
Si Si3 0.701806 0.020853 0.702168
Si Si4 0.156554 0.104425 0.612373
Si Si5 0.161180 0.091126 0.360509
Si Si6 0.659888 0.721677 0.651074
O O1 0.875485 0.275268 0.116336
O O2 0.266214 0.255888 0.213215
O O3 0.160208 0.332815 0.067039
O O4 0.023132 0.245333 0.959478
O O5 0.890065 0.385101 0.909733
O O6 0.898022 0.389961 0.121631
O O7 0.164023 0.442348 0.083184
O O8 0.500000 0.010366 0.750000
O O9 0.849748 0.055171 0.808155
O O10 0.791762 0.966720 0.674748
O O11 0.108212 0.160398 0.653679
O O12 0.935257 0.906417 0.528870
O O13 0.000000 0.118188 0.250000
#
# Coordination Sequence:
#
# PCOD9255663 Si02
#       6
#     8   8   8   8   8   8
#     4   9  15  24  41  62  92 127 159 187 241 305
#     4   8  16  29  44  62  90 129 160 190 233 291
#     4  10  17  32  52  65  90 133 173 191 229 296
#     4   8  17  29  46  60  97 128 157 191 242 283
#     4  10  21  30  44  72  98 124 165 206 242 274
#     4   9  15  25  39  64  89 128 154 191 241 297
#
# _framework density 24.639837
#
# number of rings (size 3 to 8) (size 9 to 14) (size 15 to 20)
#    1.000    2.000    1.667    0.500    0.000    2.000 
#    0.000    0.000    0.000    0.000    0.000    0.000 
#    0.000    2.667    0.000   13.833    0.000    0.000 
#
# Total GULP energy -133670.235447 kJ/mol
# GULP energy per Si atom -5569.593144 kJ/mol
# Density = 2.458376 g / cm^3
# Si number density = 24.639837 Si / 1000 Ang^3
#
#
#
# Elastic Constant Matrix: (Units=GPa)
#
#
# Indices 1 2 3 4 5 6 
#
# 1 79.5751 15.6782 41.4847 0.0000 12.2686 0.0000
# 2 15.6782 51.4339 32.3973 0.0000 -2.5750 0.0000
# 3 41.4847 32.3973 198.3113 0.0000 25.5523 0.0000
# 4 0.0000 0.0000 0.0000 50.6895 0.0000 22.2074
# 5 12.2686 -2.5750 25.5523 0.0000 52.1293 0.0000
# 6 0.0000 0.0000 0.0000 22.2074 0.0000 34.3912
#
#
#
# Elastic Compliance Matrix: (Units=1/GPa)
#
#
# Indices 1 2 3 4 5 6 
#
# 1 0.014757 -0.003218 -0.002234 0.000000 -0.002537 0.000000
# 2 -0.003218 0.022821 -0.003520 0.000000 0.003610 0.000000
# 3 -0.002234 -0.003520 0.006447 0.000000 -0.002808 0.000000
# 4 0.000000 0.000000 0.000000 0.027511 0.000000 -0.017764
# 5 -0.002537 0.003610 -0.002808 0.000000 0.021335 0.000000
# 6 0.000000 0.000000 0.000000 -0.017764 0.000000 0.040548
#
#
# Mechanical properties :
#
#
# Convention : Reuss Voigt Hill
#
# Bulk Modulus (GPa) = 38.34346 56.49342 47.41844
# Shear Modulus (GPa) = 31.23889 43.42601 37.33245
#
# Velocity S-wave (km/s) = 3.56451 4.20269 3.89668
# Velocity P-wave (km/s) = 5.70406 6.82111 6.28744
#
# Compressibility (1/GPa) = 0.02608007
#
# Stress axis : x y z
#
# Youngs Moduli (GPa) = 67.76593 43.81864 155.11302
#
# Poissons Ratio (x) = 0.14100 0.34659
# Poissons Ratio (y) = 0.21805 0.54604
# Poissons Ratio (z) = 0.15142 0.15425
#
# Static dielectric constant tensor:
#      x y z
#    x 2.330060 0.000000 0.189780 
#    y 0.000000 1.908110 0.000000 
#    z 0.189780 0.000000 2.156990 
# 
# From -- ./inp_files/80941.got.cif
#   From: 2010.05.17/outbox.cif.g08.bks.cpg/sg15_41_cif.got.tgz:80941.got - 2010.06.03 18:47:42.
