data_PCOD9255346
_publ_section_title
;
Structure prediction by ZEFSAII (Michael W. Deem and Ramdas Pophale) SiO2 
 PCOD9255346
Probable space group: C 2/C
;
_chemical_formula_sum "Si O2"
_cell_formula_units_Z 56
_cell_length_a 7.495066
_cell_length_b 16.419668
_cell_length_c 25.088991
_cell_angle_alpha 90.000000
_cell_angle_beta 69.009318
_cell_angle_gamma 90.000000
_cell_volume 2882.716089
_symmetry_space_group_name_H-M "C 2/C"
_symmetry_group_IT_number 15
_symmetry_cell_setting 'monoclinic'
loop_
_space_group_symop_operation_xyz
x,y,z
-x,y,1/2-z
-x,-y,-z
x,-y,1/2+z
1/2+x,1/2+y,z
1/2-x,1/2+y,1/2-z
1/2-x,1/2-y,-z
1/2+x,1/2-y,1/2+z
loop_
_atom_site_type_symbol
_atom_site_label
_atom_site_fract_x
_atom_site_fract_y
_atom_site_fract_z
Si Si1 0.624519 0.081180 0.986949
Si Si2 0.974866 0.989612 0.082020
Si Si3 0.985181 0.925381 0.192143
Si Si4 0.911387 0.279101 0.555573
Si Si5 0.992915 0.826243 0.554456
Si Si6 0.773026 0.351170 0.356297
Si Si7 0.846614 0.321198 0.125988
O O1 0.841892 0.051696 0.964225
O O2 0.597375 0.128960 0.933780
O O3 0.553116 0.143997 0.039900
O O4 0.500000 0.000000 0.000000
O O5 0.017746 0.990585 0.141415
O O6 0.799700 0.926264 0.098237
O O7 0.946893 0.079472 0.064131
O O8 0.148640 0.857433 0.167001
O O9 0.000000 0.957230 0.250000
O O10 0.786669 0.882547 0.195613
O O11 0.000166 0.214025 0.504608
O O12 0.709367 0.311574 0.553588
O O13 0.855081 0.227014 0.613367
O O14 0.853316 0.771667 0.605746
O O15 0.989165 0.333510 0.347738
#
# Coordination Sequence:
#
# PCOD9255346 Si02
#       7
#     8   8   8   8   8   8   8
#     4  10  17  30  51  78 112 151 176 201 257 314
#     4   9  19  32  51  81 106 138 185 214 256 322
#     4   9  20  39  60  73 101 135 183 230 272 314
#     4   9  17  29  50  76 113 149 170 208 253 319
#     4   9  16  31  52  76 115 142 168 213 261 309
#     4   9  20  34  53  81 104 135 186 210 267 318
#     4   9  19  36  55  77 108 141 172 218 265 314
#
# _framework density 19.426124000000002
#
# number of rings (size 3 to 8) (size 9 to 14) (size 15 to 20)
#    0.857    2.000    1.429    0.857    0.000    1.714 
#    0.000    0.000    6.286    0.000    0.000    0.000 
#    0.000    0.000    0.000    0.000    0.000    0.000 
#
# Total GULP energy -156064.036223 kJ/mol
# GULP energy per Si atom -5573.715579 kJ/mol
# Density = 1.938191 g / cm^3
# Si number density = 19.426124 Si / 1000 Ang^3
#
#
#
# Elastic Constant Matrix: (Units=GPa)
#
#
# Indices 1 2 3 4 5 6 
#
# 1 51.2090 13.1645 11.9118 0.0000 9.9506 0.0000
# 2 13.1645 107.5452 19.5700 0.0000 8.7567 0.0000
# 3 11.9118 19.5700 48.0149 0.0000 17.5492 0.0000
# 4 0.0000 0.0000 0.0000 12.8233 0.0000 -1.1960
# 5 9.9506 8.7567 17.5492 0.0000 22.3079 0.0000
# 6 0.0000 0.0000 0.0000 -1.1960 0.0000 24.1678
#
#
#
# Elastic Compliance Matrix: (Units=1/GPa)
#
#
# Indices 1 2 3 4 5 6 
#
# 1 0.021892 -0.001706 -0.001981 0.000000 -0.007537 0.000000
# 2 -0.001706 0.010193 -0.003575 0.000000 -0.000428 0.000000
# 3 -0.001981 -0.003575 0.030793 0.000000 -0.021938 0.000000
# 4 0.000000 0.000000 0.000000 0.078345 0.000000 0.003877
# 5 -0.007537 -0.000428 -0.021938 0.000000 0.065615 0.000000
# 6 0.000000 0.000000 0.000000 0.003877 0.000000 0.041569
#
#
# Mechanical properties :
#
#
# Convention : Reuss Voigt Hill
#
# Bulk Modulus (GPa) = 20.68045 32.89575 26.78810
# Shear Modulus (GPa) = 17.91809 22.66798 20.29304
#
# Velocity S-wave (km/s) = 3.04035 3.41967 3.23557
# Velocity P-wave (km/s) = 4.79518 5.70638 5.27051
#
# Compressibility (1/GPa) = 0.04835484
#
# Stress axis : x y z
#
# Youngs Moduli (GPa) = 45.67955 98.11101 32.47443
#
# Poissons Ratio (x) = 0.16733 0.06434
# Poissons Ratio (y) = 0.07791 0.11609
# Poissons Ratio (z) = 0.09050 0.35072
#
# Static dielectric constant tensor:
#      x y z
#    x 1.719790 0.000000 0.027870 
#    y 0.000000 1.666320 0.000000 
#    z 0.027870 0.000000 1.705760 
# 
# From -- ./inp_files/307632.got.cif
#   From: 2010.05.17/outbox.cif.g08.bks.cpg/sg15_154_cif.got.tgz:307632.got - 2010.06.03 18:47:42.
