data_PCOD9255038
_publ_section_title
;
Structure prediction by ZEFSAII (Michael W. Deem and Ramdas Pophale) SiO2 
 PCOD9255038
Probable space group: C 2/C
;
_chemical_formula_sum "Si O2"
_cell_formula_units_Z 64
_cell_length_a 19.020983
_cell_length_b 21.064243
_cell_length_c 12.164527
_cell_angle_alpha 90.000000
_cell_angle_beta 45.635943
_cell_angle_gamma 90.000000
_cell_volume 3484.386286
_symmetry_space_group_name_H-M "C 2/C"
_symmetry_group_IT_number 15
_symmetry_cell_setting 'monoclinic'
loop_
_space_group_symop_operation_xyz
x,y,z
-x,y,1/2-z
-x,-y,-z
x,-y,1/2+z
1/2+x,1/2+y,z
1/2-x,1/2+y,1/2-z
1/2-x,1/2-y,-z
1/2+x,1/2-y,1/2+z
loop_
_atom_site_type_symbol
_atom_site_label
_atom_site_fract_x
_atom_site_fract_y
_atom_site_fract_z
Si Si1 0.095123 0.713330 0.212520
Si Si2 0.284271 0.868984 0.321720
Si Si3 0.265950 0.660303 0.268821
Si Si4 0.255999 0.213779 0.646598
Si Si5 0.038932 0.459734 0.326130
Si Si6 0.389931 0.363253 0.845184
Si Si7 0.886316 0.714067 0.887558
Si Si8 0.108357 0.586499 0.327254
O O1 0.146480 0.767631 0.228308
O O2 0.071298 0.652968 0.315803
O O3 0.000000 0.733689 0.250000
O O4 0.177896 0.696481 0.030775
O O5 0.257350 0.841713 0.233438
O O6 0.371310 0.918874 0.225942
O O7 0.192364 0.896237 0.489964
O O8 0.327891 0.810355 0.345291
O O9 0.294665 0.720632 0.161838
O O10 0.350067 0.639184 0.263075
O O11 0.173095 0.684668 0.445230
O O12 0.218604 0.604642 0.245958
O O13 0.082759 0.530880 0.269964
O O14 0.000000 0.441456 0.250000
O O15 0.949680 0.442773 0.505340
O O16 0.500000 0.386104 0.750000
O O17 0.386225 0.289944 0.890594
O O18 0.000000 0.695336 0.750000
#
# Coordination Sequence:
#
# PCOD9255038 Si02
#       8
#     8   8   8   8   8   8   8   8
#     4  10  21  36  52  72 106 145 178 220 264 312
#     4  11  18  32  49  77 110 139 172 224 272 322
#     4  10  17  34  50  75 113 142 180 221 272 320
#     4  10  20  32  49  75 102 140 184 216 258 335
#     4  11  22  36  57  84 110 138 180 216 269 336
#     4  10  19  29  48  78 109 139 174 222 266 318
#     4  10  17  27  48  79 111 140 166 213 274 326
#     4  10  22  37  56  80 108 144 176 221 268 329
#
# _framework density 18.367653000000001
#
# number of rings (size 3 to 8) (size 9 to 14) (size 15 to 20)
#    0.000    1.750    2.500    4.500    0.000    3.000 
#    0.000    0.000    0.000    0.750    0.000    8.750 
#    0.000    0.000    0.000    0.000    0.000    0.000 
#
# Total GULP energy -178362.066942 kJ/mol
# GULP energy per Si atom -5573.814592 kJ/mol
# Density = 1.832585 g / cm^3
# Si number density = 18.367653 Si / 1000 Ang^3
#
#
#
# Elastic Constant Matrix: (Units=GPa)
#
#
# Indices 1 2 3 4 5 6 
#
# 1 131.2068 14.9082 7.9706 0.0000 -5.4947 0.0000
# 2 14.9082 38.4903 -8.0657 0.0000 -2.1081 0.0000
# 3 7.9706 -8.0657 17.2553 0.0000 -1.2646 0.0000
# 4 0.0000 0.0000 0.0000 23.9109 0.0000 20.1175
# 5 -5.4947 -2.1081 -1.2646 0.0000 28.9878 0.0000
# 6 0.0000 0.0000 0.0000 20.1175 0.0000 65.2781
#
#
#
# Elastic Compliance Matrix: (Units=1/GPa)
#
#
# Indices 1 2 3 4 5 6 
#
# 1 0.008539 -0.004503 -0.005974 0.000000 0.001031 0.000000
# 2 -0.004503 0.031387 0.016910 0.000000 0.002167 0.000000
# 3 -0.005974 0.016910 0.068844 0.000000 0.003101 0.000000
# 4 0.000000 0.000000 0.000000 0.056462 0.000000 -0.017401
# 5 0.001031 0.002167 0.003101 0.000000 0.034985 0.000000
# 6 0.000000 0.000000 0.000000 -0.017401 0.000000 0.020682
#
#
# Mechanical properties :
#
#
# Convention : Reuss Voigt Hill
#
# Bulk Modulus (GPa) = 8.22118 24.06429 16.14274
# Shear Modulus (GPa) = 20.11442 35.11130 27.61286
#
# Velocity S-wave (km/s) = 3.31282 4.37691 3.88150
# Velocity P-wave (km/s) = 4.37249 6.21876 5.37548
#
# Compressibility (1/GPa) = 0.12163702
#
# Stress axis : x y z
#
# Youngs Moduli (GPa) = 117.10655 31.86055 14.52558
#
# Poissons Ratio (x) = 0.14346 0.08677
# Poissons Ratio (y) = 0.52731 -0.24563
# Poissons Ratio (z) = 0.69956 -0.53876
#
# Static dielectric constant tensor:
#      x y z
#    x 1.619240 0.000000 0.019770 
#    y 0.000000 1.656750 0.000000 
#    z 0.019770 0.000000 1.669510 
# 
# From -- ./inp_files/107509.got.cif
#   From: 2010.05.17/outbox.cif.g08.bks.cpg/sg15_54_cif.got.tgz:107509.got - 2010.06.03 18:47:42.
