data_PCOD9255569
_publ_section_title
;
Structure prediction by ZEFSAII (Michael W. Deem and Ramdas Pophale) SiO2 
 PCOD9255569
Probable space group: C 2/C
;
_chemical_formula_sum "Si O2"
_cell_formula_units_Z 56
_cell_length_a 9.521639
_cell_length_b 32.437611
_cell_length_c 12.971297
_cell_angle_alpha 90.000000
_cell_angle_beta 142.442890
_cell_angle_gamma 90.000000
_cell_volume 2442.050671
_symmetry_space_group_name_H-M "C 2/C"
_symmetry_group_IT_number 15
_symmetry_cell_setting 'monoclinic'
loop_
_space_group_symop_operation_xyz
x,y,z
-x,y,1/2-z
-x,-y,-z
x,-y,1/2+z
1/2+x,1/2+y,z
1/2-x,1/2+y,1/2-z
1/2-x,1/2-y,-z
1/2+x,1/2-y,1/2+z
loop_
_atom_site_type_symbol
_atom_site_label
_atom_site_fract_x
_atom_site_fract_y
_atom_site_fract_z
Si Si1 0.470756 0.152412 0.004922
Si Si2 0.279557 0.571186 0.423476
Si Si3 0.443332 0.651069 0.416215
Si Si4 0.672356 0.479790 0.751686
Si Si5 0.158084 0.562079 0.585543
Si Si6 0.763509 0.704580 0.050441
Si Si7 0.230666 0.202996 0.452916
O O1 0.715736 0.145797 0.209667
O O2 0.379501 0.109600 0.907127
O O3 0.282610 0.170635 0.973001
O O4 0.536427 0.189475 0.967699
O O5 0.421732 0.611885 0.476790
O O6 0.360452 0.539064 0.382087
O O7 0.284686 0.560867 0.547642
O O8 0.000000 0.578978 0.250000
O O9 0.422208 0.691849 0.474220
O O10 0.671944 0.662327 0.487694
O O11 0.500000 0.473640 0.750000
O O12 0.903531 0.456334 0.920952
O O13 0.725838 0.528446 0.773574
O O14 0.000000 0.700962 0.250000
O O15 0.750000 0.750000 0.000000
O O16 0.250000 0.250000 0.500000
O O17 0.000000 0.204076 0.250000
#
# Coordination Sequence:
#
# PCOD9255569 Si02
#       7
#     8   8   8   8   8   8   8
#     4  10  18  33  57  79 107 150 190 236 287 350
#     4  10  17  34  59  81 116 147 195 251 295 349
#     4  10  17  31  56  82 102 143 193 236 286 345
#     4  10  22  34  58  87 116 146 197 246 310 361
#     4  10  20  37  58  85 117 154 191 257 301 349
#     4  10  19  32  53  81 110 145 189 232 285 348
#     4  10  22  35  57  85 118 151 195 250 295 351
#
# _framework density 22.931546999999998
#
# number of rings (size 3 to 8) (size 9 to 14) (size 15 to 20)
#    0.000    2.000    4.286    1.286    2.000    0.571 
#    0.000    0.714    3.143    0.000    0.000    0.000 
#    0.000    0.000    0.000    0.000    0.000    0.000 
#
# Total GULP energy -156094.953486 kJ/mol
# GULP energy per Si atom -5574.819767 kJ/mol
# Density = 2.287935 g / cm^3
# Si number density = 22.931547 Si / 1000 Ang^3
#
#
#
# Elastic Constant Matrix: (Units=GPa)
#
#
# Indices 1 2 3 4 5 6 
#
# 1 90.1990 41.2011 17.6249 0.0000 -8.4780 0.0000
# 2 41.2011 173.1512 23.7452 0.0000 -14.0567 0.0000
# 3 17.6249 23.7452 33.3904 0.0000 -2.0935 0.0000
# 4 0.0000 0.0000 0.0000 13.9121 0.0000 -8.0387
# 5 -8.4780 -14.0567 -2.0935 0.0000 17.5735 0.0000
# 6 0.0000 0.0000 0.0000 -8.0387 0.0000 46.3412
#
#
#
# Elastic Compliance Matrix: (Units=1/GPa)
#
#
# Indices 1 2 3 4 5 6 
#
# 1 0.013500 -0.002142 -0.005342 0.000000 0.004163 0.000000
# 2 -0.002142 0.007133 -0.003676 0.000000 0.004234 0.000000
# 3 -0.005342 -0.003676 0.035300 0.000000 -0.001312 0.000000
# 4 0.000000 0.000000 0.000000 0.079887 0.000000 0.013858
# 5 0.004163 0.004234 -0.001312 0.000000 0.062143 0.000000
# 6 0.000000 0.000000 0.000000 0.013858 0.000000 0.023983
#
#
# Mechanical properties :
#
#
# Convention : Reuss Voigt Hill
#
# Bulk Modulus (GPa) = 29.75005 51.32033 40.53519
# Shear Modulus (GPa) = 19.57175 29.84334 24.70755
#
# Velocity S-wave (km/s) = 2.92462 3.61142 3.28601
# Velocity P-wave (km/s) = 4.94025 6.31016 5.66676
#
# Compressibility (1/GPa) = 0.03361339
#
# Stress axis : x y z
#
# Youngs Moduli (GPa) = 74.07405 140.19656 28.32823
#
# Poissons Ratio (x) = 0.30027 0.15132
# Poissons Ratio (y) = 0.15865 0.10415
# Poissons Ratio (z) = 0.39568 0.51542
#
# Static dielectric constant tensor:
#      x y z
#    x 1.881550 0.000000 -0.040220 
#    y 0.000000 1.839310 0.000000 
#    z -0.040220 0.000000 1.918350 
# 
# From -- ./inp_files/139553.got.cif
#   From: 2010.05.17/outbox.cif.g08.bks.cpg/sg15_70_cif.got.tgz:139553.got - 2010.06.03 18:47:42.
