data_PCOD9255344
_publ_section_title
;
Structure prediction by ZEFSAII (Michael W. Deem and Ramdas Pophale) SiO2 
 PCOD9255344
Probable space group: C 2/C
;
_chemical_formula_sum "Si O2"
_cell_formula_units_Z 48
_cell_length_a 11.582087
_cell_length_b 23.043635
_cell_length_c 10.532345
_cell_angle_alpha 90.000000
_cell_angle_beta 56.250369
_cell_angle_gamma 90.000000
_cell_volume 2337.282124
_symmetry_space_group_name_H-M "C 2/C"
_symmetry_group_IT_number 15
_symmetry_cell_setting 'monoclinic'
loop_
_space_group_symop_operation_xyz
x,y,z
-x,y,1/2-z
-x,-y,-z
x,-y,1/2+z
1/2+x,1/2+y,z
1/2-x,1/2+y,1/2-z
1/2-x,1/2-y,-z
1/2+x,1/2-y,1/2+z
loop_
_atom_site_type_symbol
_atom_site_label
_atom_site_fract_x
_atom_site_fract_y
_atom_site_fract_z
Si Si1 0.393109 0.435681 0.692800
Si Si2 0.412856 0.759669 0.431076
Si Si3 0.177601 0.382365 0.995781
Si Si4 0.084831 0.492279 0.579503
Si Si5 0.406627 0.353102 0.062807
Si Si6 0.846546 0.940933 0.287615
O O1 0.500000 0.437652 0.750000
O O2 0.468016 0.397661 0.541254
O O3 0.352747 0.502423 0.689849
O O4 0.254840 0.402396 0.820851
O O5 0.500000 0.746832 0.250000
O O6 0.250000 0.750000 0.500000
O O7 0.424925 0.828018 0.455991
O O8 0.450422 0.713703 0.518665
O O9 0.121313 0.441273 0.090131
O O10 0.300258 0.362607 0.013203
O O11 0.224937 0.457496 0.459431
O O12 0.000000 0.467304 0.750000
O O13 0.000000 0.500000 0.500000
O O14 0.328243 0.378952 0.231977
O O15 0.000000 0.938674 0.250000
#
# Coordination Sequence:
#
# PCOD9255344 Si02
#       6
#     8   8   8   8   8   8
#     4   8  15  28  47  74 104 132 171 219 269 323
#     4  10  19  31  50  78 108 139 179 228 282 337
#     4   9  18  32  52  80 111 145 179 226 286 340
#     4  11  23  39  58  86 119 151 187 233 288 344
#     4  10  17  30  51  78 109 140 181 231 279 330
#     4  10  21  34  53  78 107 147 189 229 277 338
#
# _framework density 20.536673
#
# number of rings (size 3 to 8) (size 9 to 14) (size 15 to 20)
#    0.000    2.333    0.000    5.500    0.000    4.000 
#    0.000    0.000    0.000    1.000    0.000   12.833 
#    0.000    0.000    0.000    0.000    0.000    0.000 
#
# Total GULP energy -133717.497663 kJ/mol
# GULP energy per Si atom -5571.562403 kJ/mol
# Density = 2.048993 g / cm^3
# Si number density = 20.536673 Si / 1000 Ang^3
#
#
#
# Elastic Constant Matrix: (Units=GPa)
#
#
# Indices 1 2 3 4 5 6 
#
# 1 29.4303 2.2838 19.5708 0.0000 -7.7540 0.0000
# 2 2.2838 125.5495 54.4994 0.0000 1.1192 0.0000
# 3 19.5708 54.4994 142.8183 0.0000 -20.5896 0.0000
# 4 0.0000 0.0000 0.0000 19.1902 0.0000 5.0244
# 5 -7.7540 1.1192 -20.5896 0.0000 19.4310 0.0000
# 6 0.0000 0.0000 0.0000 5.0244 0.0000 13.2095
#
#
#
# Elastic Compliance Matrix: (Units=1/GPa)
#
#
# Indices 1 2 3 4 5 6 
#
# 1 0.039670 0.000991 -0.004179 0.000000 0.011345 0.000000
# 2 0.000991 0.010039 -0.004713 0.000000 -0.005177 0.000000
# 3 -0.004179 -0.004713 0.010825 0.000000 0.010075 0.000000
# 4 0.000000 0.000000 0.000000 0.057873 0.000000 -0.022013
# 5 0.011345 -0.005177 0.010075 0.000000 0.066965 0.000000
# 6 0.000000 0.000000 0.000000 -0.022013 0.000000 0.084076
#
#
# Mechanical properties :
#
#
# Convention : Reuss Voigt Hill
#
# Bulk Modulus (GPa) = 22.35489 50.05625 36.20557
# Shear Modulus (GPa) = 16.65776 25.12908 20.89342
#
# Velocity S-wave (km/s) = 2.85111 3.50182 3.19309
# Velocity P-wave (km/s) = 4.66341 6.38571 5.59128
#
# Compressibility (1/GPa) = 0.04473293
#
# Stress axis : x y z
#
# Youngs Moduli (GPa) = 25.20828 99.61201 92.37488
#
# Poissons Ratio (x) = -0.09873 0.38600
# Poissons Ratio (y) = -0.02498 0.43536
# Poissons Ratio (z) = 0.10534 0.46947
#
# Static dielectric constant tensor:
#      x y z
#    x 1.778390 0.000000 0.006900 
#    y 0.000000 1.829040 0.000000 
#    z 0.006900 0.000000 1.789790 
# 
# From -- ./inp_files/90647.got.cif
#   From: 2010.05.17/outbox.cif.g08.bks.cpg/sg15_46_cif.got.tgz:90647.got - 2010.06.03 18:47:42.
