data_PCOD9255061
_publ_section_title
;
Structure prediction by ZEFSAII (Michael W. Deem and Ramdas Pophale) SiO2 
 PCOD9255061
Probable space group: C 2/C
;
_chemical_formula_sum "Si O2"
_cell_formula_units_Z 56
_cell_length_a 11.790049
_cell_length_b 28.697988
_cell_length_c 15.469293
_cell_angle_alpha 90.000000
_cell_angle_beta 154.344351
_cell_angle_gamma 90.000000
_cell_volume 2266.140131
_symmetry_space_group_name_H-M "C 2/C"
_symmetry_group_IT_number 15
_symmetry_cell_setting 'monoclinic'
loop_
_space_group_symop_operation_xyz
x,y,z
-x,y,1/2-z
-x,-y,-z
x,-y,1/2+z
1/2+x,1/2+y,z
1/2-x,1/2+y,1/2-z
1/2-x,1/2-y,-z
1/2+x,1/2-y,1/2+z
loop_
_atom_site_type_symbol
_atom_site_label
_atom_site_fract_x
_atom_site_fract_y
_atom_site_fract_z
Si Si1 0.624926 0.616319 0.240182
Si Si2 0.128928 0.928242 0.433045
Si Si3 0.691812 0.467700 0.967603
Si Si4 0.751060 0.807718 0.274230
Si Si5 0.855571 0.294341 0.845598
Si Si6 0.883693 0.405223 0.316372
Si Si7 0.782192 0.172913 0.523574
O O1 0.500000 0.626648 0.250000
O O2 0.463013 0.573514 0.088337
O O3 0.646099 0.663953 0.202057
O O4 0.918063 0.599609 0.464850
O O5 0.896811 0.917443 0.339765
O O6 0.000000 0.931796 0.250000
O O7 0.300906 0.881292 0.544319
O O8 0.225913 0.979843 0.521998
O O9 0.500000 0.470395 0.750000
O O10 0.970337 0.445307 0.135431
O O11 0.737292 0.754634 0.294767
O O12 0.646219 0.854328 0.248372
O O13 0.048106 0.813070 0.443109
O O14 0.563420 0.807022 0.061907
O O15 0.035760 0.295847 0.883069
O O16 0.000000 0.174062 0.750000
#
# Coordination Sequence:
#
# PCOD9255061 Si02
#       7
#     8   8   8   8   8   8   8
#     4   8  15  26  37  54  80 108 135 166 203 237
#     4   9  14  20  35  55  76 106 132 153 197 252
#     4   8  15  23  34  53  78 107 133 159 197 244
#     4   9  17  28  43  60  82 111 136 165 208 243
#     4  10  17  28  43  59  83 110 138 170 202 237
#     4   8  15  26  34  50  81 105 127 164 203 237
#     4   8  15  25  38  60  85 106 131 167 207 244
#
# _framework density 24.711622999999999
#
# number of rings (size 3 to 8) (size 9 to 14) (size 15 to 20)
#    0.000    3.714    0.000    3.000    0.000    6.286 
#    0.000    6.429    0.000    0.000    0.000    0.000 
#    0.000   14.857    0.000    0.000    0.000    0.000 
#
# Total GULP energy -156151.319637 kJ/mol
# GULP energy per Si atom -5576.832844 kJ/mol
# Density = 2.465538 g / cm^3
# Si number density = 24.711623 Si / 1000 Ang^3
#
#
#
# Elastic Constant Matrix: (Units=GPa)
#
#
# Indices 1 2 3 4 5 6 
#
# 1 47.2474 -3.8137 12.4412 0.0005 -2.4753 0.0005
# 2 -3.8137 167.9394 12.9525 0.0005 15.5322 0.0000
# 3 12.4412 12.9525 74.5074 -0.0002 -11.2446 -0.0036
# 4 0.0005 0.0005 -0.0002 11.0699 0.0004 11.5066
# 5 -2.4753 15.5322 -11.2446 0.0004 21.8197 0.0006
# 6 0.0005 0.0000 -0.0036 11.5066 0.0006 38.1297
#
#
#
# Elastic Compliance Matrix: (Units=1/GPa)
#
#
# Indices 1 2 3 4 5 6 
#
# 1 0.022245 0.000807 -0.003861 -0.000001 -0.000040 0.000000
# 2 0.000807 0.006674 -0.002167 0.000000 -0.005776 0.000000
# 3 -0.003861 -0.002167 0.015842 -0.000002 0.009268 0.000002
# 4 -0.000001 0.000000 -0.000002 0.131623 -0.000003 -0.039720
# 5 -0.000040 -0.005776 0.009268 -0.000003 0.054713 0.000001
# 6 0.000000 0.000000 0.000002 -0.039720 0.000001 0.038213
#
#
# Mechanical properties :
#
#
# Convention : Reuss Voigt Hill
#
# Bulk Modulus (GPa) = 29.13839 36.98382 33.06110
# Shear Modulus (GPa) = 17.17088 32.07813 24.62451
#
# Velocity S-wave (km/s) = 2.63886 3.60682 3.16012
# Velocity P-wave (km/s) = 4.59366 5.68720 5.16943
#
# Compressibility (1/GPa) = 0.03431899
#
# Stress axis : x y z
#
# Youngs Moduli (GPa) = 44.95433 149.83156 63.12514
#
# Poissons Ratio (x) = -0.12086 0.24371
# Poissons Ratio (y) = -0.03626 0.13677
# Poissons Ratio (z) = 0.17356 0.32463
#
# Static dielectric constant tensor:
#      x y z
#    x 2.032290 0.000000 -0.096560 
#    y 0.000000 2.034630 0.000000 
#    z -0.096560 0.000000 2.023120 
# 
# From -- ./inp_files/108191.got.cif
#   From: 2010.05.17/outbox.cif.g08.bks.cpg/sg15_55_cif.got.tgz:108191.got - 2010.06.03 18:47:42.
