data_PCOD9255894
_publ_section_title
;
Structure prediction by ZEFSAII (Michael W. Deem and Ramdas Pophale) SiO2 
 PCOD9255894
Probable space group: C 2/C
;
_chemical_formula_sum "Si O2"
_cell_formula_units_Z 64
_cell_length_a 12.981941
_cell_length_b 15.624254
_cell_length_c 25.184601
_cell_angle_alpha 90.000000
_cell_angle_beta 139.646811
_cell_angle_gamma 90.000000
_cell_volume 3307.593231
_symmetry_space_group_name_H-M "C 2/C"
_symmetry_group_IT_number 15
_symmetry_cell_setting 'monoclinic'
loop_
_space_group_symop_operation_xyz
x,y,z
-x,y,1/2-z
-x,-y,-z
x,-y,1/2+z
1/2+x,1/2+y,z
1/2-x,1/2+y,1/2-z
1/2-x,1/2-y,-z
1/2+x,1/2-y,1/2+z
loop_
_atom_site_type_symbol
_atom_site_label
_atom_site_fract_x
_atom_site_fract_y
_atom_site_fract_z
Si Si1 0.754149 0.051642 0.020815
Si Si2 0.456611 0.242251 0.957632
Si Si3 0.522461 0.926179 0.963691
Si Si4 0.178689 0.903671 0.830229
Si Si5 0.828518 0.444933 0.207698
Si Si6 0.940260 0.066630 0.432539
Si Si7 0.298813 0.776883 0.127411
Si Si8 0.041511 0.653153 0.645939
O O1 0.790746 0.078719 0.095371
O O2 0.911636 0.069943 0.049687
O O3 0.606835 0.102312 0.937605
O O4 0.677763 0.956202 0.992440
O O5 0.397891 0.340020 0.939883
O O6 0.387723 0.203535 0.876010
O O7 0.444358 0.166875 0.997004
O O8 0.647587 0.257318 0.031150
O O9 0.345737 0.930389 0.867896
O O10 0.500000 0.000000 0.000000
O O11 0.181098 0.801558 0.825021
O O12 0.000000 0.937227 0.750000
O O13 0.708520 0.522669 0.154829
O O14 0.773035 0.364831 0.149067
O O15 0.000000 0.467782 0.250000
O O16 0.851093 0.408646 0.276011
O O17 0.000000 0.000000 0.500000
O O18 0.455735 0.784513 0.153876
#
# Coordination Sequence:
#
# PCOD9255894 Si02
#       8
#     8   8   8   8   8   8   8   8
#     4  11  21  37  59  87 119 162 197 250 312 371
#     4  11  19  35  67  85 115 162 204 248 305 375
#     4   9  19  37  57  87 123 153 194 242 319 365
#     4  10  19  32  57  90 122 146 196 252 312 368
#     4  10  22  37  57  85 122 154 197 260 304 343
#     4  12  23  39  63  88 120 161 218 250 295 366
#     4  10  17  33  55  88 115 146 193 261 305 348
#     4  11  18  33  59  86 116 149 200 247 317 353
#
# _framework density 19.349416000000002
#
# number of rings (size 3 to 8) (size 9 to 14) (size 15 to 20)
#    0.000    1.500    6.250    3.000    0.000    1.000 
#    0.000    1.875    2.750    0.000    0.000    0.000 
#    0.000    0.000    0.000    0.000    0.000    0.000 
#
# Total GULP energy -178149.203820 kJ/mol
# GULP energy per Si atom -5567.162619 kJ/mol
# Density = 1.930538 g / cm^3
# Si number density = 19.349416 Si / 1000 Ang^3
#
#
#
# Elastic Constant Matrix: (Units=GPa)
#
#
# Indices 1 2 3 4 5 6 
#
# 1 26.4585 23.4906 5.4136 0.0000 0.8050 0.0000
# 2 23.4906 106.4117 33.2070 0.0000 10.7648 0.0000
# 3 5.4136 33.2070 103.8326 0.0000 3.2326 0.0000
# 4 0.0000 0.0000 0.0000 33.6728 0.0000 2.6473
# 5 0.8050 10.7648 3.2326 0.0000 22.7730 0.0000
# 6 0.0000 0.0000 0.0000 2.6473 0.0000 24.1631
#
#
#
# Elastic Compliance Matrix: (Units=1/GPa)
#
#
# Indices 1 2 3 4 5 6 
#
# 1 0.047350 -0.011105 0.000976 0.000000 0.003437 0.000000
# 2 -0.011105 0.013520 -0.003574 0.000000 -0.005491 0.000000
# 3 0.000976 -0.003574 0.010719 0.000000 0.000133 0.000000
# 4 0.000000 0.000000 0.000000 0.029956 0.000000 -0.003282
# 5 0.003437 -0.005491 0.000133 0.000000 0.046367 0.000000
# 6 0.000000 0.000000 0.000000 -0.003282 0.000000 0.041745
#
#
# Mechanical properties :
#
#
# Convention : Reuss Voigt Hill
#
# Bulk Modulus (GPa) = 22.63336 40.10283 31.36809
# Shear Modulus (GPa) = 21.57135 27.76121 24.66628
#
# Velocity S-wave (km/s) = 3.34253 3.79189 3.57428
# Velocity P-wave (km/s) = 5.15939 6.31996 5.76893
#
# Compressibility (1/GPa) = 0.04418257
#
# Stress axis : x y z
#
# Youngs Moduli (GPa) = 21.11937 73.96686 93.29393
#
# Poissons Ratio (x) = 0.82138 -0.09103
# Poissons Ratio (y) = 0.23453 0.33341
# Poissons Ratio (z) = -0.02061 0.26434
#
# Static dielectric constant tensor:
#      x y z
#    x 1.739250 0.000000 -0.011760 
#    y 0.000000 1.751050 0.000000 
#    z -0.011760 0.000000 1.722010 
# 
# From -- ./inp_files/296429.got.cif
#   From: 2010.05.17/outbox.cif.g08.bks.cpg/sg15_149_cif.got.tgz:296429.got - 2010.06.03 18:47:42.
