data_PCOD9255036
_publ_section_title
;
Structure prediction by ZEFSAII (Michael W. Deem and Ramdas Pophale) SiO2 
 PCOD9255036
Probable space group: C 2/C
;
_chemical_formula_sum "Si O2"
_cell_formula_units_Z 48
_cell_length_a 7.767140
_cell_length_b 12.886668
_cell_length_c 22.659622
_cell_angle_alpha 90.000000
_cell_angle_beta 124.311618
_cell_angle_gamma 90.000000
_cell_volume 1873.380839
_symmetry_space_group_name_H-M "C 2/C"
_symmetry_group_IT_number 15
_symmetry_cell_setting 'monoclinic'
loop_
_space_group_symop_operation_xyz
x,y,z
-x,y,1/2-z
-x,-y,-z
x,-y,1/2+z
1/2+x,1/2+y,z
1/2-x,1/2+y,1/2-z
1/2-x,1/2-y,-z
1/2+x,1/2-y,1/2+z
loop_
_atom_site_type_symbol
_atom_site_label
_atom_site_fract_x
_atom_site_fract_y
_atom_site_fract_z
Si Si1 0.952891 0.971781 0.587058
Si Si2 0.772926 0.785121 0.701988
Si Si3 0.198470 0.332715 0.808631
Si Si4 0.821766 0.457581 0.071712
Si Si5 0.213127 0.967212 0.324506
Si Si6 0.110506 0.698288 0.425467
O O1 0.081078 0.888847 0.650300
O O2 0.139936 0.027508 0.586037
O O3 0.834310 0.036814 0.614077
O O4 0.797700 0.917532 0.509933
O O5 0.687451 0.759154 0.750324
O O6 0.769043 0.911116 0.693342
O O7 0.620271 0.753905 0.620386
O O8 0.000000 0.742154 0.750000
O O9 0.185093 0.292078 0.872165
O O10 0.000000 0.404745 0.750000
O O11 0.876861 0.575549 0.061838
O O12 0.051224 0.419058 0.136363
O O13 0.000000 0.933647 0.250000
O O14 0.250000 0.750000 0.500000
#
# Coordination Sequence:
#
# PCOD9255036 Si02
#       6
#     8   8   8   8   8   8
#     4  10  17  29  48  72 102 126 152 207 254 299
#     4   9  15  28  48  74  89 114 161 210 242 281
#     4   9  16  28  50  74  95 122 166 206 253 293
#     4   9  20  30  45  72 101 132 161 197 255 299
#     4  10  17  27  48  73  98 120 159 204 247 296
#     4   9  18  31  48  68  96 131 165 204 245 293
#
# _framework density 25.622126000000002
#
# number of rings (size 3 to 8) (size 9 to 14) (size 15 to 20)
#    0.000    2.667    3.333    1.500    0.000    0.000 
#    0.000    0.833    0.000    4.000    0.000    0.000 
#    0.000    0.000    0.000    0.000    0.000    0.000 
#
# Total GULP energy -133698.673653 kJ/mol
# GULP energy per Si atom -5570.778069 kJ/mol
# Density = 2.556381 g / cm^3
# Si number density = 25.622126 Si / 1000 Ang^3
#
#
#
# Elastic Constant Matrix: (Units=GPa)
#
#
# Indices 1 2 3 4 5 6 
#
# 1 99.1788 -13.7901 65.1719 0.0000 21.1189 0.0000
# 2 -13.7901 56.8464 17.7357 0.0000 11.1001 0.0000
# 3 65.1719 17.7357 233.4068 0.0000 28.4583 0.0000
# 4 0.0000 0.0000 0.0000 11.6231 0.0000 10.1894
# 5 21.1189 11.1001 28.4583 0.0000 52.8639 0.0000
# 6 0.0000 0.0000 0.0000 10.1894 0.0000 4.6866
#
#
#
# Elastic Compliance Matrix: (Units=1/GPa)
#
#
# Indices 1 2 3 4 5 6 
#
# 1 0.014454 0.005667 -0.003871 0.000000 -0.004880 0.000000
# 2 0.005667 0.020781 -0.002519 0.000000 -0.005272 0.000000
# 3 -0.003871 -0.002519 0.005676 0.000000 -0.000980 0.000000
# 4 0.000000 0.000000 0.000000 -0.094962 0.000000 0.206464
# 5 -0.004880 -0.005272 -0.000980 0.000000 0.022501 0.000000
# 6 0.000000 0.000000 0.000000 0.206464 0.000000 -0.235514
#
#
# Mechanical properties :
#
#
# Convention : Reuss Voigt Hill
#
# Bulk Modulus (GPa) = 25.33877 58.62966 41.98422
# Shear Modulus (GPa) = -19.80493 35.18902 7.69205
#
# Velocity S-wave (km/s) = -2.78324 3.70994 1.73454
# Velocity P-wave (km/s) = 0.64626 6.42524 4.52029
#
# Compressibility (1/GPa) = 0.03946521
#
# Stress axis : x y z
#
# Youngs Moduli (GPa) = 69.18553 48.12043 176.17273
#
# Poissons Ratio (x) = -0.27270 0.68204
# Poissons Ratio (y) = -0.39208 0.44373
# Poissons Ratio (z) = 0.26785 0.12120
#
# Static dielectric constant tensor:
#      x y z
#    x 2.230450 0.000000 0.102740 
#    y 0.000000 2.166210 0.000000 
#    z 0.102740 0.000000 2.013670 
# 
# From -- ./inp_files/189924.got.cif
#   From: 2010.05.17/outbox.cif.g08.bks.cpg/sg15_95_cif.got.tgz:189924.got - 2010.06.03 18:47:42.
