data_PCOD9255057
_publ_section_title
;
Structure prediction by ZEFSAII (Michael W. Deem and Ramdas Pophale) SiO2 
 PCOD9255057
Probable space group: C 2/C
;
_chemical_formula_sum "Si O2"
_cell_formula_units_Z 52
_cell_length_a 19.932138
_cell_length_b 27.244766
_cell_length_c 8.372246
_cell_angle_alpha 90.000000
_cell_angle_beta 151.245340
_cell_angle_gamma 90.000000
_cell_volume 2187.148451
_symmetry_space_group_name_H-M "C 2/C"
_symmetry_group_IT_number 15
_symmetry_cell_setting 'monoclinic'
loop_
_space_group_symop_operation_xyz
x,y,z
-x,y,1/2-z
-x,-y,-z
x,-y,1/2+z
1/2+x,1/2+y,z
1/2-x,1/2+y,1/2-z
1/2-x,1/2-y,-z
1/2+x,1/2-y,1/2+z
loop_
_atom_site_type_symbol
_atom_site_label
_atom_site_fract_x
_atom_site_fract_y
_atom_site_fract_z
Si Si1 0.500000 0.212511 0.750000
Si Si2 0.289383 0.649629 0.375752
Si Si3 0.291931 0.649781 0.736796
Si Si4 0.839414 0.558479 0.872405
Si Si5 0.504442 0.793593 0.591652
Si Si6 0.294100 0.693066 0.063557
Si Si7 0.654691 0.051781 0.999432
O O1 0.359449 0.179564 0.446457
O O2 0.489370 0.238019 0.555895
O O3 0.353219 0.654199 0.686342
O O4 0.357969 0.669445 0.354998
O O5 0.254650 0.592584 0.282441
O O6 0.263380 0.595932 0.750395
O O7 0.353495 0.680137 0.014366
O O8 0.140066 0.673692 0.388069
O O9 0.834780 0.557164 0.670062
O O10 0.811926 0.503656 0.879966
O O11 0.000000 0.570817 0.250000
O O12 0.500000 0.765577 0.750000
O O13 0.367243 0.827261 0.290781
O O14 0.250000 0.750000 0.000000
O O15 0.500000 0.061497 0.750000
#
# Coordination Sequence:
#
# PCOD9255057 Si02
#       7
#     4   8   8   8   8   8   8
#     4   8  14  22  38  52  68  94 128 160 192 230
#     4  10  17  28  41  55  77 103 135 172 206 237
#     4  10  18  30  45  57  78 107 139 174 209 237
#     4  11  19  26  37  58  82 106 138 174 209 240
#     4   8  15  25  40  54  70  97 128 163 199 234
#     4  10  19  29  41  58  77 102 137 174 209 244
#     4  11  19  26  37  58  82 107 138 174 210 236
#
# _framework density 23.775248999999999
#
# number of rings (size 3 to 8) (size 9 to 14) (size 15 to 20)
#    0.000    2.154    2.308    5.077    2.154    0.615 
#    0.000    0.000    0.000    0.000    0.000    0.000 
#    0.000    0.000    0.000    0.000    0.000   13.846 
#
# Total GULP energy -144968.160331 kJ/mol
# GULP energy per Si atom -5575.698474 kJ/mol
# Density = 2.372114 g / cm^3
# Si number density = 23.775249 Si / 1000 Ang^3
#
#
#
# Elastic Constant Matrix: (Units=GPa)
#
#
# Indices 1 2 3 4 5 6 
#
# 1 152.3606 45.6432 84.5183 0.0000 -68.0117 0.0000
# 2 45.6432 129.1221 44.9828 0.0000 -30.1597 0.0000
# 3 84.5183 44.9828 117.4979 0.0000 -75.1680 0.0000
# 4 0.0000 0.0000 0.0000 29.5822 0.0000 -23.4338
# 5 -68.0117 -30.1597 -75.1680 0.0000 81.9556 0.0000
# 6 0.0000 0.0000 0.0000 -23.4338 0.0000 -14.2524
#
#
#
# Elastic Compliance Matrix: (Units=1/GPa)
#
#
# Indices 1 2 3 4 5 6 
#
# 1 0.011851 -0.001348 -0.004923 0.000000 0.004824 0.000000
# 2 -0.001348 0.009094 -0.002630 0.000000 -0.000184 0.000000
# 3 -0.004923 -0.002630 0.023778 0.000000 0.016755 0.000000
# 4 0.000000 0.000000 0.000000 0.014682 0.000000 -0.024140
# 5 0.004824 -0.000184 0.016755 0.000000 0.031505 0.000000
# 6 0.000000 0.000000 0.000000 -0.024140 0.000000 -0.030473
#
#
# Mechanical properties :
#
#
# Convention : Reuss Voigt Hill
#
# Bulk Modulus (GPa) = 37.14330 83.25214 60.19772
# Shear Modulus (GPa) = 57.33205 34.37951 45.85578
#
# Velocity S-wave (km/s) = 4.91595 3.80678 4.39648
# Velocity P-wave (km/s) = 6.91944 7.37662 7.15168
#
# Compressibility (1/GPa) = 0.02692276
#
# Stress axis : x y z
#
# Youngs Moduli (GPa) = 84.37966 109.96014 42.05598
#
# Poissons Ratio (x) = 0.14817 0.20704
# Poissons Ratio (y) = 0.11370 0.11060
# Poissons Ratio (z) = 0.41540 0.28916
#
# Static dielectric constant tensor:
#      x y z
#    x 2.093980 0.000000 0.028740 
#    y 0.000000 1.897320 0.000000 
#    z 0.028740 0.000000 1.996010 
# 
# From -- ./inp_files/42970.got.cif
#   From: 2010.05.17/outbox.cif.g08.bks.cpg/sg15_22_cif.got.tgz:42970.got - 2010.06.03 18:47:42.
