data_PCOD9255906
_publ_section_title
;
Structure prediction by ZEFSAII (Michael W. Deem and Ramdas Pophale) SiO2 
 PCOD9255906
Probable space group: C 2/C
;
_chemical_formula_sum "Si O2"
_cell_formula_units_Z 52
_cell_length_a 14.151753
_cell_length_b 25.086964
_cell_length_c 7.461839
_cell_angle_alpha 90.000000
_cell_angle_beta 63.010001
_cell_angle_gamma 90.000000
_cell_volume 2360.607169
_symmetry_space_group_name_H-M "C 2/C"
_symmetry_group_IT_number 15
_symmetry_cell_setting 'monoclinic'
loop_
_space_group_symop_operation_xyz
x,y,z
-x,y,1/2-z
-x,-y,-z
x,-y,1/2+z
1/2+x,1/2+y,z
1/2-x,1/2+y,1/2-z
1/2-x,1/2-y,-z
1/2+x,1/2-y,1/2+z
loop_
_atom_site_type_symbol
_atom_site_label
_atom_site_fract_x
_atom_site_fract_y
_atom_site_fract_z
Si Si1 0.889622 0.790937 0.743040
Si Si2 0.771736 0.963738 0.836976
Si Si3 0.534984 0.599915 0.429374
Si Si4 0.041110 0.558081 0.409942
Si Si5 0.198914 0.920038 0.283411
Si Si6 0.500000 0.862059 0.250000
Si Si7 0.790287 0.315001 0.310240
O O1 0.913693 0.841522 0.595226
O O2 0.832065 0.741148 0.696632
O O3 0.000000 0.777449 0.750000
O O4 0.809615 0.807348 0.972178
O O5 0.875883 0.945447 0.638094
O O6 0.666802 0.942816 0.831081
O O7 0.766604 0.027690 0.853956
O O8 0.778530 0.937644 0.028473
O O9 0.500000 0.599760 0.250000
O O10 0.427266 0.589391 0.629109
O O11 0.000000 0.569747 0.250000
O O12 0.000000 0.500000 0.500000
O O13 0.993078 0.600493 0.585294
O O14 0.258724 0.863886 0.208323
O O15 0.390482 0.830734 0.347224
#
# Coordination Sequence:
#
# PCOD9255906 Si02
#       7
#     8   8   8   8   8   4   8
#     4  10  17  33  56  84 120 154 202 270 319 354
#     4  11  21  36  53  81 119 164 197 249 301 370
#     4   9  17  34  55  82 116 149 202 256 300 368
#     4  12  23  38  57  81 122 173 212 254 308 367
#     4  11  20  35  56  85 122 157 200 244 307 372
#     4  12  22  38  56  92 126 156 218 260 310 392
#     4  11  20  32  57  86 123 153 205 269 309 375
#
# _framework density 22.028229
#
# number of rings (size 3 to 8) (size 9 to 14) (size 15 to 20)
#    0.000    1.231    7.692    2.308    0.000    0.000 
#    0.000    0.000    0.000    0.000    0.000   19.385 
#    0.000    1.231    0.000    0.000    0.000    0.000 
#
# Total GULP energy -145327.255423 kJ/mol
# GULP energy per Si atom -5589.509824 kJ/mol
# Density = 2.197809 g / cm^3
# Si number density = 22.028229 Si / 1000 Ang^3
#
#
#
# Elastic Constant Matrix: (Units=GPa)
#
#
# Indices 1 2 3 4 5 6 
#
# 1 123.7972 30.7307 41.4555 0.0000 -23.6051 0.0000
# 2 30.7307 119.3312 11.0563 0.0000 -6.5254 0.0000
# 3 41.4555 11.0563 46.5935 0.0000 -5.8967 0.0000
# 4 0.0000 0.0000 0.0000 20.3606 0.0000 -16.7275
# 5 -23.6051 -6.5254 -5.8967 0.0000 41.8283 0.0000
# 6 0.0000 0.0000 0.0000 -16.7275 0.0000 40.7966
#
#
#
# Elastic Compliance Matrix: (Units=1/GPa)
#
#
# Indices 1 2 3 4 5 6 
#
# 1 0.013205 -0.002116 -0.010533 0.000000 0.005637 0.000000
# 2 -0.002116 0.008955 -0.000220 0.000000 0.000172 0.000000
# 3 -0.010533 -0.000220 0.030677 0.000000 -0.001654 0.000000
# 4 0.000000 0.000000 0.000000 0.074063 0.000000 0.030368
# 5 0.005637 0.000172 -0.001654 0.000000 0.026882 0.000000
# 6 0.000000 0.000000 0.000000 0.030368 0.000000 0.036963
#
#
# Mechanical properties :
#
#
# Convention : Reuss Voigt Hill
#
# Bulk Modulus (GPa) = 36.90441 50.68967 43.79704
# Shear Modulus (GPa) = 22.17119 34.36240 28.26679
#
# Velocity S-wave (km/s) = 3.17596 3.95387 3.58607
# Velocity P-wave (km/s) = 5.49896 6.62611 6.08868
#
# Compressibility (1/GPa) = 0.02709703
#
# Stress axis : x y z
#
# Youngs Moduli (GPa) = 75.72759 111.67125 32.59774
#
# Poissons Ratio (x) = 0.23635 0.34337
# Poissons Ratio (y) = 0.16028 0.00718
# Poissons Ratio (z) = 0.79767 0.02458
#
# Static dielectric constant tensor:
#      x y z
#    x 1.799030 0.000000 -0.016060 
#    y 0.000000 1.869600 0.000000 
#    z -0.016060 0.000000 1.807280 
# 
# From -- ./inp_files/42062.got.cif
#   From: 2010.05.17/outbox.cif.g08.bks.cpg/sg15_22_cif.got.tgz:42062.got - 2010.06.03 18:47:42.
