data_PCOD9255812
_publ_section_title
;
Structure prediction by ZEFSAII (Michael W. Deem and Ramdas Pophale) SiO2 
 PCOD9255812
Probable space group: C 2/C
;
_chemical_formula_sum "Si O2"
_cell_formula_units_Z 56
_cell_length_a 15.507748
_cell_length_b 13.754227
_cell_length_c 21.678010
_cell_angle_alpha 90.000000
_cell_angle_beta 38.128045
_cell_angle_gamma 90.000000
_cell_volume 2854.865969
_symmetry_space_group_name_H-M "C 2/C"
_symmetry_group_IT_number 15
_symmetry_cell_setting 'monoclinic'
loop_
_space_group_symop_operation_xyz
x,y,z
-x,y,1/2-z
-x,-y,-z
x,-y,1/2+z
1/2+x,1/2+y,z
1/2-x,1/2+y,1/2-z
1/2-x,1/2-y,-z
1/2+x,1/2-y,1/2+z
loop_
_atom_site_type_symbol
_atom_site_label
_atom_site_fract_x
_atom_site_fract_y
_atom_site_fract_z
Si Si1 0.790326 0.413434 0.725409
Si Si2 0.338188 0.784272 0.390760
Si Si3 0.109295 0.909596 0.949407
Si Si4 0.510027 0.605122 0.312562
Si Si5 0.517997 0.955956 0.057592
Si Si6 0.255915 0.984826 0.473153
Si Si7 0.405192 0.226261 0.059886
O O1 0.718284 0.395878 0.831667
O O2 0.657979 0.422299 0.755456
O O3 0.884073 0.510416 0.671720
O O4 0.880796 0.330670 0.638443
O O5 0.250000 0.750000 0.500000
O O6 0.475767 0.719912 0.324237
O O7 0.345910 0.900283 0.388749
O O8 0.244191 0.757752 0.384423
O O9 0.205337 0.932439 0.955062
O O10 0.010216 0.815483 0.009560
O O11 0.000000 0.000000 0.000000
O O12 0.500000 0.562917 0.250000
O O13 0.388954 0.562762 0.423169
O O14 0.651448 0.000940 0.017924
O O15 0.538255 0.843973 0.027245
O O16 0.500000 0.000000 0.000000
#
# Coordination Sequence:
#
# PCOD9255812 Si02
#       7
#     8   8   8   8   8   8   8
#     4  11  24  40  62  94 139 181 232 276 345 414
#     4  10  17  32  60  96 127 161 208 275 351 392
#     4  12  24  41  62 102 145 172 215 289 360 405
#     4  11  18  34  62  97 127 164 225 279 331 411
#     4  10  22  43  66  93 129 184 235 281 325 408
#     4  11  22  40  64  94 140 171 214 288 348 398
#     4  11  21  42  66  94 137 179 227 282 340 419
#
# _framework density 19.615632000000002
#
# number of rings (size 3 to 8) (size 9 to 14) (size 15 to 20)
#    0.000    1.143    7.143    1.714    0.000    1.714 
#    2.571    2.857    0.000    0.000    0.000    0.000 
#    0.000    0.000    0.000    0.000    0.000    0.000 
#
# Total GULP energy -155969.996840 kJ/mol
# GULP energy per Si atom -5570.357030 kJ/mol
# Density = 1.957099 g / cm^3
# Si number density = 19.615632 Si / 1000 Ang^3
#
#
#
# Elastic Constant Matrix: (Units=GPa)
#
#
# Indices 1 2 3 4 5 6 
#
# 1 127.0524 60.1851 24.2456 0.0000 -5.3691 0.0000
# 2 60.1851 70.4826 51.9606 0.0000 -4.6978 0.0000
# 3 24.2456 51.9606 117.0339 -0.0001 -3.0136 0.0001
# 4 0.0000 0.0000 -0.0001 20.5049 0.0001 0.9621
# 5 -5.3691 -4.6978 -3.0136 0.0001 38.2160 0.0000
# 6 0.0000 0.0000 0.0001 0.9621 0.0000 30.6123
#
#
#
# Elastic Compliance Matrix: (Units=1/GPa)
#
#
# Indices 1 2 3 4 5 6 
#
# 1 0.014189 -0.014757 0.003624 0.000000 0.000465 0.000000
# 2 -0.014757 0.036571 -0.013144 0.000000 0.001386 0.000000
# 3 0.003624 -0.013144 0.013629 0.000000 -0.000032 0.000000
# 4 0.000000 0.000000 0.000000 0.048841 0.000000 -0.001535
# 5 0.000465 0.001386 -0.000032 0.000000 0.026400 0.000000
# 6 0.000000 0.000000 0.000000 -0.001535 0.000000 0.032715
#
#
# Mechanical properties :
#
#
# Convention : Reuss Voigt Hill
#
# Bulk Modulus (GPa) = 63.14944 65.26127 64.20535
# Shear Modulus (GPa) = 22.10659 29.74513 25.92586
#
# Velocity S-wave (km/s) = 3.36071 3.89832 3.63945
# Velocity P-wave (km/s) = 6.87913 7.32153 7.10378
#
# Compressibility (1/GPa) = 0.01583545
#
# Stress axis : x y z
#
# Youngs Moduli (GPa) = 70.47591 27.34397 73.37550
#
# Poissons Ratio (x) = 0.40351 -0.26593
# Poissons Ratio (y) = 1.04001 0.96444
# Poissons Ratio (z) = -0.25542 0.35941
#
# Static dielectric constant tensor:
#      x y z
#    x 1.703470 0.000000 0.017410 
#    y 0.000000 1.747180 0.000000 
#    z 0.017410 0.000000 1.734770 
# 
# From -- ./inp_files/244525.got.cif
#   From: 2010.05.17/outbox.cif.g08.bks.cpg/sg15_123_cif.got.tgz:244525.got - 2010.06.03 18:47:42.
