data_PCOD9255012
_publ_section_title
;
Structure prediction by ZEFSAII (Michael W. Deem and Ramdas Pophale) SiO2 
 PCOD9255012
Probable space group: C 2/C
;
_chemical_formula_sum "Si O2"
_cell_formula_units_Z 40
_cell_length_a 30.679400
_cell_length_b 6.679532
_cell_length_c 10.074325
_cell_angle_alpha 90.000000
_cell_angle_beta 41.590584
_cell_angle_gamma 90.000000
_cell_volume 1370.402896
_symmetry_space_group_name_H-M "C 2/C"
_symmetry_group_IT_number 15
_symmetry_cell_setting 'monoclinic'
loop_
_space_group_symop_operation_xyz
x,y,z
-x,y,1/2-z
-x,-y,-z
x,-y,1/2+z
1/2+x,1/2+y,z
1/2-x,1/2+y,1/2-z
1/2-x,1/2-y,-z
1/2+x,1/2-y,1/2+z
loop_
_atom_site_type_symbol
_atom_site_label
_atom_site_fract_x
_atom_site_fract_y
_atom_site_fract_z
Si Si1 0.075352 0.231531 0.585207
Si Si2 0.783388 0.869305 0.041918
Si Si3 0.430687 0.754708 0.610964
Si Si4 0.317461 0.388404 0.229872
Si Si5 0.426309 0.270649 0.693326
O O1 0.081271 0.339439 0.713060
O O2 0.075210 0.343967 0.444649
O O3 0.000000 0.143926 0.750000
O O4 0.135880 0.076220 0.428258
O O5 0.853091 0.762315 0.912585
O O6 0.791485 0.071051 0.938777
O O7 0.750000 0.750000 0.000000
O O8 0.761393 0.884847 0.244002
O O9 0.372703 0.775843 0.638163
O O10 0.430429 0.511817 0.650307
O O11 0.505506 0.784498 0.394860
#
# Coordination Sequence:
#
# PCOD9255012 Si02
#       5
#     8   8   8   8   8
#     4   8  11  19  35  61  87 115 134 155 223 291
#     4  10  20  31  43  63  91 126 161 182 214 272
#     4   8  12  20  37  63  86 113 135 162 235 281
#     4  10  17  27  45  62  93 123 144 188 226 267
#     4   8  14  20  37  59  90 116 136 167 216 277
#
# _framework density 29.188497999999999
#
# number of rings (size 3 to 8) (size 9 to 14) (size 15 to 20)
#    0.000    3.600    4.000    1.200    0.000    0.000 
#    0.000    1.000    0.000    0.000    0.000    0.000 
#    0.000    6.400    0.000    3.600    0.000    0.000 
#
# Total GULP energy -111387.556711 kJ/mol
# GULP energy per Si atom -5569.377836 kJ/mol
# Density = 2.912206 g / cm^3
# Si number density = 29.188498 Si / 1000 Ang^3
#
#
#
# Elastic Constant Matrix: (Units=GPa)
#
#
# Indices 1 2 3 4 5 6 
#
# 1 243.1279 17.5546 31.1209 0.0000 63.6233 0.0000
# 2 17.5546 73.8325 7.4747 0.0000 -16.5657 0.0000
# 3 31.1209 7.4747 50.2090 0.0000 37.2578 0.0000
# 4 0.0000 0.0000 0.0000 18.8883 0.0000 -8.0257
# 5 63.6233 -16.5657 37.2578 0.0000 55.2448 0.0000
# 6 0.0000 0.0000 0.0000 -8.0257 0.0000 38.9981
#
#
#
# Elastic Compliance Matrix: (Units=1/GPa)
#
#
# Indices 1 2 3 4 5 6 
#
# 1 0.007883 -0.006507 0.008542 0.000000 -0.016791 0.000000
# 2 -0.006507 0.023551 -0.020567 0.000000 0.028426 0.000000
# 3 0.008542 -0.020567 0.059174 0.000000 -0.055913 0.000000
# 4 0.000000 0.000000 0.000000 0.058016 0.000000 0.011940
# 5 -0.016791 0.028426 -0.055913 0.000000 0.083671 0.000000
# 6 0.000000 0.000000 0.000000 0.011940 0.000000 0.028099
#
#
# Mechanical properties :
#
#
# Convention : Reuss Voigt Hill
#
# Bulk Modulus (GPa) = 18.67539 53.27442 35.97490
# Shear Modulus (GPa) = 15.85761 43.36085 29.60923
#
# Velocity S-wave (km/s) = 2.33337 3.85846 3.18844
# Velocity P-wave (km/s) = 3.69751 6.17590 5.08986
#
# Compressibility (1/GPa) = 0.05354641
#
# Stress axis : x y z
#
# Youngs Moduli (GPa) = 126.84815 42.46064 16.89931
#
# Poissons Ratio (x) = 0.27627 -0.14436
# Poissons Ratio (y) = 0.82535 0.34756
# Poissons Ratio (z) = -1.08356 0.87328
#
# Static dielectric constant tensor:
#      x y z
#    x 2.344260 0.000000 0.192110 
#    y 0.000000 2.827610 0.000000 
#    z 0.192110 0.000000 2.701640 
# 
# From -- ./inp_files/126057.got.cif
#   From: 2010.05.17/outbox.cif.g08.bks.cpg/sg15_64_cif.got.tgz:126057.got - 2010.06.03 18:47:42.
