data_PCOD9255959
_publ_section_title
;
Structure prediction by ZEFSAII (Michael W. Deem and Ramdas Pophale) SiO2 
 PCOD9255959
Probable space group: C 2/C
;
_chemical_formula_sum "Si O2"
_cell_formula_units_Z 56
_cell_length_a 6.949473
_cell_length_b 28.204821
_cell_length_c 17.542509
_cell_angle_alpha 90.000000
_cell_angle_beta 141.010958
_cell_angle_gamma 90.000000
_cell_volume 2163.396590
_symmetry_space_group_name_H-M "C 2/C"
_symmetry_group_IT_number 15
_symmetry_cell_setting 'monoclinic'
loop_
_space_group_symop_operation_xyz
x,y,z
-x,y,1/2-z
-x,-y,-z
x,-y,1/2+z
1/2+x,1/2+y,z
1/2-x,1/2+y,1/2-z
1/2-x,1/2-y,-z
1/2+x,1/2-y,1/2+z
loop_
_atom_site_type_symbol
_atom_site_label
_atom_site_fract_x
_atom_site_fract_y
_atom_site_fract_z
Si Si1 0.699392 0.039385 0.731960
Si Si2 0.796278 0.229824 0.410336
Si Si3 0.772898 0.026319 0.489727
Si Si4 0.372448 0.632287 0.500235
Si Si5 0.043406 0.628879 0.928035
Si Si6 0.719383 0.694414 0.720988
Si Si7 0.189865 0.197989 0.385012
O O1 0.500000 0.047869 0.750000
O O2 0.657664 0.084885 0.663150
O O3 0.030200 0.025708 0.870213
O O4 0.541744 0.999176 0.631039
O O5 0.707539 0.179354 0.420223
O O6 0.492946 0.263606 0.170162
O O7 0.958932 0.213263 0.382292
O O8 0.059427 0.259752 0.534863
O O9 0.718010 0.081980 0.460110
O O10 0.000000 0.000000 0.500000
O O11 0.646621 0.622791 0.524782
O O12 0.536007 0.650529 0.627396
O O13 0.876015 0.675521 0.845057
O O14 0.151843 0.647454 0.043740
O O15 0.000000 0.703947 0.750000
O O16 0.000000 0.193503 0.250000
#
# Coordination Sequence:
#
# PCOD9255959 Si02
#       7
#     8   8   8   8   8   8   8
#     4  10  17  33  60 103 147 186 245 311 381 461
#     4  10  23  42  71 106 149 196 255 311 380 460
#     4  10  18  31  61 101 153 189 239 316 387 450
#     4  10  18  35  63 104 146 190 243 308 372 453
#     4  10  18  36  68  93 137 200 243 301 380 447
#     4  10  20  38  71 108 147 197 258 302 362 465
#     4  10  24  46  69 102 148 193 254 329 383 447
#
# _framework density 25.885221000000001
#
# number of rings (size 3 to 8) (size 9 to 14) (size 15 to 20)
#    0.000    2.000    4.286    0.857    0.000    4.571 
#    0.000    3.571   12.571    8.571    0.000    4.000 
#    4.286    0.000    0.000    0.000    0.000    0.429 
#
# Total GULP energy -156611.116756 kJ/mol
# GULP energy per Si atom -5593.254170 kJ/mol
# Density = 2.582631 g / cm^3
# Si number density = 25.885221 Si / 1000 Ang^3
#
#
#
# Elastic Constant Matrix: (Units=GPa)
#
#
# Indices 1 2 3 4 5 6 
#
# 1 115.2408 65.2069 54.7223 0.0000 -14.3386 0.0000
# 2 65.2069 235.0560 115.6226 -0.0001 6.6005 -0.0001
# 3 54.7223 115.6226 220.6942 0.0000 -5.1020 0.0000
# 4 0.0000 -0.0001 0.0000 61.5629 -0.0001 2.6365
# 5 -14.3386 6.6005 -5.1020 -0.0001 21.8998 -0.0001
# 6 0.0000 -0.0001 0.0000 2.6365 -0.0001 25.6005
#
#
#
# Elastic Compliance Matrix: (Units=1/GPa)
#
#
# Indices 1 2 3 4 5 6 
#
# 1 0.011986 -0.002959 -0.001226 0.000000 0.008454 0.000000
# 2 -0.002959 0.006595 -0.002827 0.000000 -0.004584 0.000000
# 3 -0.001226 -0.002827 0.006352 0.000000 0.001529 0.000000
# 4 0.000000 0.000000 0.000000 0.016316 0.000000 -0.001680
# 5 0.008454 -0.004584 0.001529 0.000000 0.052935 0.000000
# 6 0.000000 0.000000 0.000000 -0.001680 0.000000 0.039235
#
#
# Mechanical properties :
#
#
# Convention : Reuss Voigt Hill
#
# Bulk Modulus (GPa) = 91.68311 115.78829 103.73570
# Shear Modulus (GPa) = 33.09527 44.17525 38.63526
#
# Velocity S-wave (km/s) = 3.57955 4.13556 3.86756
# Velocity P-wave (km/s) = 7.25122 8.22389 7.75282
#
# Compressibility (1/GPa) = 0.01090713
#
# Stress axis : x y z
#
# Youngs Moduli (GPa) = 83.43021 151.63897 157.43840
#
# Poissons Ratio (x) = 0.44874 0.19305
# Poissons Ratio (y) = 0.24689 0.44510
# Poissons Ratio (z) = 0.10230 0.42870
#
# Static dielectric constant tensor:
#      x y z
#    x 2.146890 0.000000 -0.047270 
#    y 0.000000 2.015680 0.000000 
#    z -0.047270 0.000000 2.130110 
# 
# From -- ./inp_files/240961.got.cif
#   From: 2010.05.17/outbox.cif.g08.bks.cpg/sg15_121_cif.got.tgz:240961.got - 2010.06.03 18:47:42.
