data_PCOD9255101
_publ_section_title
;
Structure prediction by ZEFSAII (Michael W. Deem and Ramdas Pophale) SiO2 
 PCOD9255101
Probable space group: C 2/C
;
_chemical_formula_sum "Si O2"
_cell_formula_units_Z 60
_cell_length_a 29.792240
_cell_length_b 26.483353
_cell_length_c 9.110079
_cell_angle_alpha 90.000000
_cell_angle_beta 155.102557
_cell_angle_gamma 90.000000
_cell_volume 3026.046184
_symmetry_space_group_name_H-M "C 2/C"
_symmetry_group_IT_number 15
_symmetry_cell_setting 'monoclinic'
loop_
_space_group_symop_operation_xyz
x,y,z
-x,y,1/2-z
-x,-y,-z
x,-y,1/2+z
1/2+x,1/2+y,z
1/2-x,1/2+y,1/2-z
1/2-x,1/2-y,-z
1/2+x,1/2-y,1/2+z
loop_
_atom_site_type_symbol
_atom_site_label
_atom_site_fract_x
_atom_site_fract_y
_atom_site_fract_z
Si Si1 0.103412 0.410921 0.475457
Si Si2 0.863568 0.149478 0.997776
Si Si3 0.500000 0.279134 0.750000
Si Si4 0.173656 0.979180 0.634782
Si Si5 0.971753 0.374495 0.831907
Si Si6 0.249430 0.931381 0.149924
Si Si7 0.847462 0.936819 0.217992
Si Si8 0.636332 0.809831 0.763213
O O1 0.216741 0.437594 0.827701
O O2 0.118593 0.356055 0.596259
O O3 0.000000 0.434818 0.250000
O O4 0.066601 0.402082 0.200333
O O5 0.836966 0.110249 0.049817
O O6 0.871974 0.114137 0.877267
O O7 0.757969 0.184132 0.672286
O O8 0.963367 0.186413 0.278573
O O9 0.402905 0.242501 0.418094
O O10 0.116610 0.944455 0.343297
O O11 0.234189 0.019911 0.709872
O O12 0.235411 0.945490 0.937758
O O13 0.113107 0.017104 0.564683
O O14 0.865791 0.408844 0.524414
O O15 0.939725 0.324651 0.826660
O O16 0.000000 0.364245 0.750000
#
# Coordination Sequence:
#
# PCOD9255101 Si02
#       8
#     8   8   4   8   8   8   8   8
#     4   9  15  28  43  63  98 132 162 201 241 293
#     4   9  20  32  54  77 104 125 165 212 255 296
#     4  12  18  34  60  78  94 124 178 214 246 302
#     4   9  16  30  51  66  99 136 173 199 245 305
#     4  10  17  28  47  70 104 141 165 203 252 297
#     4   9  18  32  47  74 100 139 170 206 252 295
#     4   9  17  30  46  71  94 132 164 203 248 292
#     4   9  18  33  51  74  99 132 169 199 252 306
#
# _framework density 19.827853999999999
#
# number of rings (size 3 to 8) (size 9 to 14) (size 15 to 20)
#    0.000    2.667    2.000    3.600    0.000    0.000 
#    0.000   13.333    2.933   14.400    0.000    0.000 
#    0.000    0.000    0.000    0.000    0.000    0.000 
#
# Total GULP energy -167073.383002 kJ/mol
# GULP energy per Si atom -5569.112767 kJ/mol
# Density = 1.978273 g / cm^3
# Si number density = 19.827854 Si / 1000 Ang^3
#
#
#
# Elastic Constant Matrix: (Units=GPa)
#
#
# Indices 1 2 3 4 5 6 
#
# 1 107.9958 36.0249 33.8702 0.0000 -24.1504 0.0000
# 2 36.0249 71.8353 9.2561 0.0000 3.7744 0.0000
# 3 33.8702 9.2561 25.5410 0.0000 1.2856 0.0000
# 4 0.0000 0.0000 0.0000 -80.7449 0.0000 -27.6243
# 5 -24.1504 3.7744 1.2856 0.0000 38.6229 0.0000
# 6 0.0000 0.0000 0.0000 -27.6243 0.0000 3.0432
#
#
#
# Elastic Compliance Matrix: (Units=1/GPa)
#
#
# Indices 1 2 3 4 5 6 
#
# 1 0.027891 -0.010621 -0.034125 0.000000 0.019614 0.000000
# 2 -0.010621 0.018708 0.007744 0.000000 -0.008727 0.000000
# 3 -0.034125 0.007744 0.082851 0.000000 -0.024852 0.000000
# 4 0.000000 0.000000 0.000000 -0.003017 0.000000 -0.027383
# 5 0.019614 -0.008727 -0.024852 0.000000 0.039836 0.000000
# 6 0.000000 0.000000 0.000000 -0.027383 0.000000 0.080039
#
#
# Mechanical properties :
#
#
# Convention : Reuss Voigt Hill
#
# Bulk Modulus (GPa) = 18.03560 40.40829 29.22194
# Shear Modulus (GPa) = 14.75831 0.59897 7.67864
#
# Velocity S-wave (km/s) = 2.73119 0.55022 1.97004
# Velocity P-wave (km/s) = 4.36597 4.56371 4.46593
#
# Compressibility (1/GPa) = 0.05544589
#
# Stress axis : x y z
#
# Youngs Moduli (GPa) = 35.85404 53.45405 12.06991
#
# Poissons Ratio (x) = 0.56771 0.41188
# Poissons Ratio (y) = 0.38079 -0.09347
# Poissons Ratio (z) = 1.22351 -0.41393
#
# Static dielectric constant tensor:
#      x y z
#    x 1.729420 0.000000 0.007520 
#    y 0.000000 1.716440 0.000000 
#    z 0.007520 0.000000 1.747420 
# 
# From -- ./inp_files/43166.got.cif
#   From: 2010.05.17/outbox.cif.g08.bks.cpg/sg15_22_cif.got.tgz:43166.got - 2010.06.03 18:47:42.
