data_PCOD9255600
_publ_section_title
;
Structure prediction by ZEFSAII (Michael W. Deem and Ramdas Pophale) SiO2 
 PCOD9255600
Probable space group: C 2/C
;
_chemical_formula_sum "Si O2"
_cell_formula_units_Z 40
_cell_length_a 10.259941
_cell_length_b 13.090543
_cell_length_c 13.571796
_cell_angle_alpha 90.000000
_cell_angle_beta 134.223908
_cell_angle_gamma 90.000000
_cell_volume 1306.256765
_symmetry_space_group_name_H-M "C 2/C"
_symmetry_group_IT_number 15
_symmetry_cell_setting 'monoclinic'
loop_
_space_group_symop_operation_xyz
x,y,z
-x,y,1/2-z
-x,-y,-z
x,-y,1/2+z
1/2+x,1/2+y,z
1/2-x,1/2+y,1/2-z
1/2-x,1/2-y,-z
1/2+x,1/2-y,1/2+z
loop_
_atom_site_type_symbol
_atom_site_label
_atom_site_fract_x
_atom_site_fract_y
_atom_site_fract_z
Si Si1 0.339466 0.138543 0.051613
Si Si2 0.623627 0.562653 0.440719
Si Si3 0.535925 0.824505 0.386423
Si Si4 0.204142 0.702271 0.257989
Si Si5 0.304404 0.566790 0.785244
O O1 0.226405 0.041504 0.959203
O O2 0.537762 0.155275 0.106811
O O3 0.324965 0.131665 0.162921
O O4 0.250000 0.250000 0.000000
O O5 0.757227 0.652711 0.473971
O O6 0.649225 0.571784 0.573301
O O7 0.415654 0.531078 0.307175
O O8 0.500000 0.816163 0.250000
O O9 0.418724 0.726410 0.359731
O O10 0.411296 0.924821 0.342429
O O11 0.139690 0.822203 0.229739
#
# Coordination Sequence:
#
# PCOD9255600 Si02
#       5
#     8   8   8   8   8
#     4  11  20  33  54  84 109 141 183 229 275 318
#     4  10  17  31  60  78  99 146 191 210 269 344
#     4   8  16  32  52  76 101 144 180 218 269 321
#     4   9  20  30  50  81 115 134 172 243 270 302
#     4   8  17  32  49  83 105 134 185 230 255 324
#
# _framework density 30.621850999999999
#
# number of rings (size 3 to 8) (size 9 to 14) (size 15 to 20)
#    1.200    1.600    2.000    0.000    8.400    0.000 
#    0.000    1.000    0.000   19.200   10.400    0.000 
#    0.000    0.000    0.000    0.000    0.000    0.000 
#
# Total GULP energy -111595.180351 kJ/mol
# GULP energy per Si atom -5579.759018 kJ/mol
# Density = 3.055215 g / cm^3
# Si number density = 30.621851 Si / 1000 Ang^3
#
#
#
# Elastic Constant Matrix: (Units=GPa)
#
#
# Indices 1 2 3 4 5 6 
#
# 1 137.8868 6.2916 59.2000 0.0000 31.8414 0.0000
# 2 6.2916 186.0151 24.6830 0.0000 -9.9341 0.0000
# 3 59.2000 24.6830 158.4621 0.0000 35.0133 0.0000
# 4 0.0000 0.0000 0.0000 53.4457 0.0000 -10.9128
# 5 31.8414 -9.9341 35.0133 0.0000 54.9649 0.0000
# 6 0.0000 0.0000 0.0000 -10.9128 0.0000 24.0634
#
#
#
# Elastic Compliance Matrix: (Units=1/GPa)
#
#
# Indices 1 2 3 4 5 6 
#
# 1 0.009237 -0.000166 -0.002602 0.000000 -0.003723 0.000000
# 2 -0.000166 0.005648 -0.001239 0.000000 0.001906 0.000000
# 3 -0.002602 -0.001239 0.008370 0.000000 -0.004048 0.000000
# 4 0.000000 0.000000 0.000000 0.020620 0.000000 0.009351
# 5 -0.003723 0.001906 -0.004048 0.000000 0.023274 0.000000
# 6 0.000000 0.000000 0.000000 0.009351 0.000000 0.045798
#
#
# Mechanical properties :
#
#
# Convention : Reuss Voigt Hill
#
# Bulk Modulus (GPa) = 65.61360 73.63481 69.62421
# Shear Modulus (GPa) = 39.66968 52.64077 46.15523
#
# Velocity S-wave (km/s) = 3.60317 4.15065 3.88656
# Velocity P-wave (km/s) = 6.22768 6.86070 6.55184
#
# Compressibility (1/GPa) = 0.01524074
#
# Stress axis : x y z
#
# Youngs Moduli (GPa) = 108.26068 177.06308 119.46937
#
# Poissons Ratio (x) = 0.02939 0.31090
# Poissons Ratio (y) = 0.01797 0.14801
# Poissons Ratio (z) = 0.28173 0.21936
#
# Static dielectric constant tensor:
#      x y z
#    x 3.190260 0.000000 -0.282000 
#    y 0.000000 2.379910 0.000000 
#    z -0.282000 0.000000 2.651590 
# 
# From -- ./inp_files/239196.got.cif
#   From: 2010.05.17/outbox.cif.g08.bks.cpg/sg15_120_cif.got.tgz:239196.got - 2010.06.03 18:47:42.
