data_PCOD9255089
_publ_section_title
;
Structure prediction by ZEFSAII (Michael W. Deem and Ramdas Pophale) SiO2 
 PCOD9255089
Probable space group: C 2/C
;
_chemical_formula_sum "Si O2"
_cell_formula_units_Z 64
_cell_length_a 16.750613
_cell_length_b 14.277851
_cell_length_c 12.436661
_cell_angle_alpha 90.000000
_cell_angle_beta 114.864365
_cell_angle_gamma 90.000000
_cell_volume 2698.677491
_symmetry_space_group_name_H-M "C 2/C"
_symmetry_group_IT_number 15
_symmetry_cell_setting 'monoclinic'
loop_
_space_group_symop_operation_xyz
x,y,z
-x,y,1/2-z
-x,-y,-z
x,-y,1/2+z
1/2+x,1/2+y,z
1/2-x,1/2+y,1/2-z
1/2-x,1/2-y,-z
1/2+x,1/2-y,1/2+z
loop_
_atom_site_type_symbol
_atom_site_label
_atom_site_fract_x
_atom_site_fract_y
_atom_site_fract_z
Si Si1 0.987204 0.938898 0.100703
Si Si2 0.166502 0.966148 0.909043
Si Si3 0.435067 0.050144 0.549439
Si Si4 0.511211 0.246369 0.636704
Si Si5 0.692842 0.105883 0.454787
Si Si6 0.271011 0.187891 0.402917
Si Si7 0.157597 0.205250 0.064558
Si Si8 0.363901 0.649504 0.903909
O O1 0.932596 0.002576 0.149615
O O2 0.915824 0.858681 0.036051
O O3 0.082917 0.893259 0.165109
O O4 0.000000 0.000000 0.000000
O O5 0.190541 0.882011 0.845204
O O6 0.178790 0.926511 0.039717
O O7 0.235137 0.049283 0.934744
O O8 0.493276 0.134824 0.629276
O O9 0.352125 0.113982 0.460469
O O10 0.500000 0.000000 0.500000
O O11 0.388750 0.968276 0.596243
O O12 0.500000 0.282162 0.750000
O O13 0.606762 0.265696 0.643114
O O14 0.437879 0.297092 0.519609
O O15 0.751861 0.144585 0.387972
O O16 0.666783 0.199593 0.502071
O O17 0.250000 0.250000 0.500000
O O18 0.296282 0.269411 0.335211
#
# Coordination Sequence:
#
# PCOD9255089 Si02
#       8
#     8   8   8   8   8   8   8   8
#     4   8  13  21  35  57  84 106 130 167 212 257
#     4   8  13  22  37  59  84 107 129 173 224 265
#     4  10  17  28  46  68  91 117 152 197 233 276
#     4  10  19  30  46  63  92 124 156 190 237 285
#     4   9  16  26  45  68  93 113 145 192 239 272
#     4   8  14  23  37  58  85 111 135 173 223 267
#     4   9  16  27  43  66  90 116 145 187 231 279
#     4   8  14  24  38  57  80 111 140 174 213 267
#
# _framework density 23.715319000000001
#
# number of rings (size 3 to 8) (size 9 to 14) (size 15 to 20)
#    0.000    3.250    1.250    0.000    0.000    0.000 
#    0.000    0.000    2.750    0.000    0.000    0.000 
#    0.000    7.750    0.000    0.000    0.000    0.000 
#
# Total GULP energy -178196.099515 kJ/mol
# GULP energy per Si atom -5568.628110 kJ/mol
# Density = 2.366134 g / cm^3
# Si number density = 23.715319 Si / 1000 Ang^3
#
#
#
# Elastic Constant Matrix: (Units=GPa)
#
#
# Indices 1 2 3 4 5 6 
#
# 1 153.1534 73.6758 39.9209 0.0000 -39.0399 0.0000
# 2 73.6758 168.3315 25.7476 0.0000 -11.6805 0.0000
# 3 39.9209 25.7476 47.6161 0.0000 -11.8928 0.0000
# 4 0.0000 0.0000 0.0000 22.3314 0.0000 -22.9262
# 5 -39.0399 -11.6805 -11.8928 0.0000 28.2773 0.0000
# 6 0.0000 0.0000 0.0000 -22.9262 0.0000 77.3611
#
#
#
# Elastic Compliance Matrix: (Units=1/GPa)
#
#
# Indices 1 2 3 4 5 6 
#
# 1 0.013801 -0.004146 -0.005584 0.000000 0.014993 0.000000
# 2 -0.004146 0.007768 -0.001511 0.000000 -0.003151 0.000000
# 3 -0.005584 -0.001511 0.027285 0.000000 0.003141 0.000000
# 4 0.000000 0.000000 0.000000 0.064362 0.000000 0.019074
# 5 0.014993 -0.003151 0.003141 0.000000 0.056083 0.000000
# 6 0.000000 0.000000 0.000000 0.019074 0.000000 0.018579
#
#
# Mechanical properties :
#
#
# Convention : Reuss Voigt Hill
#
# Bulk Modulus (GPa) = 37.92082 71.97662 54.94872
# Shear Modulus (GPa) = 22.81524 40.91107 31.86315
#
# Velocity S-wave (km/s) = 3.10505 4.15793 3.66945
# Velocity P-wave (km/s) = 5.37400 7.31213 6.41666
#
# Compressibility (1/GPa) = 0.02637074
#
# Stress axis : x y z
#
# Youngs Moduli (GPa) = 72.45687 128.73589 36.65028
#
# Poissons Ratio (x) = 0.53375 0.20466
# Poissons Ratio (y) = 0.30041 0.05539
# Poissons Ratio (z) = 0.40462 0.19456
#
# Static dielectric constant tensor:
#      x y z
#    x 1.943580 0.000000 -0.011460 
#    y 0.000000 2.007230 0.000000 
#    z -0.011460 0.000000 1.817880 
# 
# From -- ./inp_files/161940.got.cif
#   From: 2010.05.17/outbox.cif.g08.bks.cpg/sg15_81_cif.got.tgz:161940.got - 2010.06.03 18:47:42.
