data_PCOD9255674
_publ_section_title
;
Structure prediction by ZEFSAII (Michael W. Deem and Ramdas Pophale) SiO2 
 PCOD9255674
Probable space group: C 2/C
;
_chemical_formula_sum "Si O2"
_cell_formula_units_Z 56
_cell_length_a 20.148291
_cell_length_b 11.409506
_cell_length_c 17.558204
_cell_angle_alpha 90.000000
_cell_angle_beta 40.362923
_cell_angle_gamma 90.000000
_cell_volume 2614.026990
_symmetry_space_group_name_H-M "C 2/C"
_symmetry_group_IT_number 15
_symmetry_cell_setting 'monoclinic'
loop_
_space_group_symop_operation_xyz
x,y,z
-x,y,1/2-z
-x,-y,-z
x,-y,1/2+z
1/2+x,1/2+y,z
1/2-x,1/2+y,1/2-z
1/2-x,1/2-y,-z
1/2+x,1/2-y,1/2+z
loop_
_atom_site_type_symbol
_atom_site_label
_atom_site_fract_x
_atom_site_fract_y
_atom_site_fract_z
Si Si1 0.626320 0.697178 0.569951
Si Si2 0.600098 0.410986 0.245424
Si Si3 0.587346 0.839366 0.961829
Si Si4 0.260774 0.660716 0.737272
Si Si5 0.583299 0.103475 0.005478
Si Si6 0.339988 0.458367 0.590188
Si Si7 0.532090 0.622984 0.378653
O O1 0.512673 0.643098 0.659388
O O2 0.658817 0.650882 0.624192
O O3 0.607558 0.831256 0.563269
O O4 0.690528 0.631421 0.448621
O O5 0.649872 0.373863 0.281112
O O6 0.586331 0.552991 0.261084
O O7 0.692731 0.771334 0.848575
O O8 0.601533 0.964558 0.989255
O O9 0.527074 0.866817 0.935191
O O10 0.514911 0.753204 0.076058
O O11 0.161236 0.658980 0.875853
O O12 0.251450 0.547446 0.691149
O O13 0.431684 0.543830 0.482605
O O14 0.390601 0.393565 0.618099
#
# Coordination Sequence:
#
# PCOD9255674 Si02
#       7
#     8   8   8   8   8   8   8
#     4  10  17  32  52  82 112 140 187 236 274 330
#     4   9  18  31  56  81 106 146 190 235 279 320
#     4  10  20  36  51  84 117 143 188 235 275 344
#     4  10  20  34  54  80 110 149 195 235 271 331
#     4  11  22  31  55  81 116 151 178 231 295 320
#     4   8  14  27  50  76 101 135 180 237 260 308
#     4   8  13  29  52  73 102 138 176 232 272 314
#
# _framework density 21.422885000000001
#
# number of rings (size 3 to 8) (size 9 to 14) (size 15 to 20)
#    0.000    2.571    2.857    1.714    2.000    0.571 
#    0.000    0.000    0.000   10.286    0.000   17.000 
#    0.000    0.000    0.000    0.000    0.000    0.000 
#
# Total GULP energy -155971.070574 kJ/mol
# GULP energy per Si atom -5570.395378 kJ/mol
# Density = 2.137413 g / cm^3
# Si number density = 21.422885 Si / 1000 Ang^3
#
#
#
# Elastic Constant Matrix: (Units=GPa)
#
#
# Indices 1 2 3 4 5 6 
#
# 1 29.8920 22.2256 4.9861 0.0000 7.5757 0.0000
# 2 22.2256 197.3064 47.3039 0.0000 24.3929 0.0000
# 3 4.9861 47.3039 51.4075 0.0000 14.3701 0.0000
# 4 0.0000 0.0000 0.0000 22.1679 0.0000 3.7065
# 5 7.5757 24.3929 14.3701 0.0000 30.8713 0.0000
# 6 0.0000 0.0000 0.0000 3.7065 0.0000 14.3546
#
#
#
# Elastic Compliance Matrix: (Units=1/GPa)
#
#
# Indices 1 2 3 4 5 6 
#
# 1 0.037788 -0.003818 0.001836 0.000000 -0.007111 0.000000
# 2 -0.003818 0.007091 -0.005576 0.000000 -0.002071 0.000000
# 3 0.001836 -0.005576 0.026785 0.000000 -0.008512 0.000000
# 4 0.000000 0.000000 0.000000 0.047146 0.000000 -0.012174
# 5 -0.007111 -0.002071 -0.008512 0.000000 0.039736 0.000000
# 6 0.000000 0.000000 0.000000 -0.012174 0.000000 0.072808
#
#
# Mechanical properties :
#
#
# Convention : Reuss Voigt Hill
#
# Bulk Modulus (GPa) = 17.68407 47.51522 32.59964
# Shear Modulus (GPa) = 18.84523 27.08478 22.96501
#
# Velocity S-wave (km/s) = 2.96915 3.55955 3.27767
# Velocity P-wave (km/s) = 4.47517 6.25473 5.43823
#
# Compressibility (1/GPa) = 0.05654807
#
# Stress axis : x y z
#
# Youngs Moduli (GPa) = 26.46322 141.02139 37.33465
#
# Poissons Ratio (x) = 0.53836 -0.06853
# Poissons Ratio (y) = 0.10103 0.20818
# Poissons Ratio (z) = -0.04857 0.78633
#
# Static dielectric constant tensor:
#      x y z
#    x 1.783530 0.000000 0.014210 
#    y 0.000000 1.860150 0.000000 
#    z 0.014210 0.000000 1.911110 
# 
# From -- ./inp_files/219072.got.cif
#   From: 2010.05.17/outbox.cif.g08.bks.cpg/sg15_110_cif.got.tgz:219072.got - 2010.06.03 18:47:42.
