data_PCOD9255123
_publ_section_title
;
Structure prediction by ZEFSAII (Michael W. Deem and Ramdas Pophale) SiO2 
 PCOD9255123
Probable space group: C 2/C
;
_chemical_formula_sum "Si O2"
_cell_formula_units_Z 64
_cell_length_a 25.276116
_cell_length_b 18.205762
_cell_length_c 19.332445
_cell_angle_alpha 90.000000
_cell_angle_beta 21.425009
_cell_angle_gamma 90.000000
_cell_volume 3249.642740
_symmetry_space_group_name_H-M "C 2/C"
_symmetry_group_IT_number 15
_symmetry_cell_setting 'monoclinic'
loop_
_space_group_symop_operation_xyz
x,y,z
-x,y,1/2-z
-x,-y,-z
x,-y,1/2+z
1/2+x,1/2+y,z
1/2-x,1/2+y,1/2-z
1/2-x,1/2-y,-z
1/2+x,1/2-y,1/2+z
loop_
_atom_site_type_symbol
_atom_site_label
_atom_site_fract_x
_atom_site_fract_y
_atom_site_fract_z
Si Si1 0.646534 0.915482 0.787706
Si Si2 0.404392 0.414616 0.565713
Si Si3 0.346488 0.906565 0.211215
Si Si4 0.670616 0.331846 0.704047
Si Si5 0.650329 0.890981 0.141270
Si Si6 0.492882 0.051659 0.182056
Si Si7 0.197808 0.070454 0.762147
Si Si8 0.050039 0.752972 0.615825
O O1 0.801742 0.889737 0.627497
O O2 0.600812 0.906887 0.763123
O O3 0.646554 0.004099 0.798394
O O4 0.514450 0.884180 0.995129
O O5 0.347041 0.379533 0.706492
O O6 0.378322 0.501660 0.606963
O O7 0.576243 0.399547 0.357926
O O8 0.282982 0.888255 0.363050
O O9 0.255821 0.880903 0.255325
O O10 0.742510 0.375800 0.552493
O O11 0.782162 0.266656 0.586285
O O12 0.520422 0.299166 0.859499
O O13 0.532082 0.826221 0.285120
O O14 0.575497 0.970367 0.227154
O O15 0.500000 0.085146 0.250000
O O16 0.656006 0.045794 0.954288
O O17 0.000000 0.786697 0.750000
#
# Coordination Sequence:
#
# PCOD9255123 Si02
#       8
#     8   8   8   8   8   8   8   8
#     4   8  15  27  43  63  89 119 155 191 235 287
#     4  10  18  31  45  63  91 125 157 194 247 284
#     4   8  14  26  43  64  87 120 161 199 231 271
#     4  11  22  33  48  65  92 136 175 206 232 266
#     4  10  17  28  49  68  91 130 175 202 225 262
#     4  10  17  29  50  72  92 122 161 192 225 288
#     4   9  18  29  45  68  92 117 156 200 236 285
#     4  10  20  33  44  63  94 128 173 216 241 253
#
# _framework density 19.694472000000001
#
# number of rings (size 3 to 8) (size 9 to 14) (size 15 to 20)
#    0.000    2.500    0.000    7.125    0.000    2.000 
#    0.000    0.625    0.000    6.000    0.000    0.000 
#    0.000    0.000    0.000   56.250    0.000   40.000 
#
# Total GULP energy -178344.696669 kJ/mol
# GULP energy per Si atom -5573.271771 kJ/mol
# Density = 1.964965 g / cm^3
# Si number density = 19.694472 Si / 1000 Ang^3
#
#
#
# Elastic Constant Matrix: (Units=GPa)
#
#
# Indices 1 2 3 4 5 6 
#
# 1 148.8812 10.1988 45.7578 0.0018 -23.0271 -0.0015
# 2 10.1988 16.9131 18.7550 0.0016 0.8880 -0.0018
# 3 45.7578 18.7550 78.6585 0.0001 -22.0081 -0.0010
# 4 0.0018 0.0016 0.0001 9.7480 -0.0007 -4.3841
# 5 -23.0271 0.8880 -22.0081 -0.0007 35.8346 0.0011
# 6 -0.0015 -0.0018 -0.0010 -4.3841 0.0011 7.3161
#
#
#
# Elastic Compliance Matrix: (Units=1/GPa)
#
#
# Indices 1 2 3 4 5 6 
#
# 1 0.008434 -0.001059 -0.003780 -0.000001 0.003125 0.000000
# 2 -0.001059 0.089637 -0.026044 -0.000008 -0.018897 0.000016
# 3 -0.003780 -0.026044 0.024902 0.000004 0.013510 -0.000003
# 4 -0.000001 -0.000008 0.000004 0.140431 0.000002 0.084151
# 5 0.003125 -0.018897 0.013510 0.000002 0.038680 -0.000007
# 6 0.000000 0.000016 -0.000003 0.084151 -0.000007 0.187110
#
#
# Mechanical properties :
#
#
# Convention : Reuss Voigt Hill
#
# Bulk Modulus (GPa) = 16.33768 43.76401 30.05085
# Shear Modulus (GPa) = 8.75104 21.89583 15.32344
#
# Velocity S-wave (km/s) = 2.11022 3.33795 2.79239
# Velocity P-wave (km/s) = 3.77505 6.09308 5.06836
#
# Compressibility (1/GPa) = 0.06120821
#
# Stress axis : x y z
#
# Youngs Moduli (GPa) = 118.56406 11.15613 40.15765
#
# Poissons Ratio (x) = 0.01181 0.15179
# Poissons Ratio (y) = 0.12552 1.04586
# Poissons Ratio (z) = 0.44814 0.29055
#
# Static dielectric constant tensor:
#      x y z
#    x 1.780030 0.000000 -0.051850 
#    y 0.000000 1.701860 0.000000 
#    z -0.051850 0.000000 1.714750 
# 
# From -- ./inp_files/258067.got.cif
#   From: 2010.05.17/outbox.cif.g08.bks.cpg/sg15_130_cif.got.tgz:258067.got - 2010.06.03 18:47:42.
