data_PCOD9255032
_publ_section_title
;
Structure prediction by ZEFSAII (Michael W. Deem and Ramdas Pophale) SiO2 
 PCOD9255032
Probable space group: C 2/C
;
_chemical_formula_sum "Si O2"
_cell_formula_units_Z 52
_cell_length_a 30.373743
_cell_length_b 6.866330
_cell_length_c 9.293694
_cell_angle_alpha 90.000000
_cell_angle_beta 91.634232
_cell_angle_gamma 90.000000
_cell_volume 1937.468596
_symmetry_space_group_name_H-M "C 2/C"
_symmetry_group_IT_number 15
_symmetry_cell_setting 'monoclinic'
loop_
_space_group_symop_operation_xyz
x,y,z
-x,y,1/2-z
-x,-y,-z
x,-y,1/2+z
1/2+x,1/2+y,z
1/2-x,1/2+y,1/2-z
1/2-x,1/2-y,-z
1/2+x,1/2-y,1/2+z
loop_
_atom_site_type_symbol
_atom_site_label
_atom_site_fract_x
_atom_site_fract_y
_atom_site_fract_z
Si Si1 0.192440 0.624326 0.891447
Si Si2 0.251474 0.913048 0.377883
Si Si3 0.540717 0.343069 0.824481
Si Si4 0.656037 0.694185 0.840005
Si Si5 0.610254 0.274784 0.045458
Si Si6 0.000000 0.500000 0.000000
Si Si7 0.914416 0.315938 0.447780
O O1 0.223849 0.669349 0.759450
O O2 0.172393 0.418542 0.834340
O O3 0.151403 0.752082 0.940855
O O4 0.221302 0.580506 0.037697
O O5 0.250000 0.750000 0.500000
O O6 0.199884 0.936001 0.341383
O O7 0.500000 0.462199 0.750000
O O8 0.570720 0.392654 0.965754
O O9 0.517316 0.150994 0.884105
O O10 0.573938 0.276735 0.703363
O O11 0.626377 0.649729 0.699857
O O12 0.626420 0.710775 0.979998
O O13 0.595651 0.048997 0.073322
O O14 0.959682 0.662094 0.041168
#
# Coordination Sequence:
#
# PCOD9255032 Si02
#       7
#     8   8   8   8   8   4   8
#     4  10  19  36  51  72 101 138 184 231 277 316
#     4  10  22  36  53  74 101 136 190 238 273 321
#     4   9  17  26  40  65  96 135 169 203 248 310
#     4  10  20  32  48  74 100 140 190 221 266 322
#     4  10  17  27  48  66  97 137 178 213 254 320
#     4   8  14  24  40  64  96 136 172 192 246 316
#     4   9  16  27  44  66 100 140 177 205 255 317
#
# _framework density 26.839147000000001
#
# number of rings (size 3 to 8) (size 9 to 14) (size 15 to 20)
#    0.000    2.462    1.538    2.769    4.308    1.846 
#    0.000    2.308    0.000    0.000    0.000    0.000 
#    0.000    0.000    0.000   96.923    3.077   40.462 
#
# Total GULP energy -144881.578791 kJ/mol
# GULP energy per Si atom -5572.368415 kJ/mol
# Density = 2.677806 g / cm^3
# Si number density = 26.839147 Si / 1000 Ang^3
#
#
#
# Elastic Constant Matrix: (Units=GPa)
#
#
# Indices 1 2 3 4 5 6 
#
# 1 151.7251 26.0102 80.2576 0.0000 2.3114 0.0000
# 2 26.0102 53.8613 2.8830 0.0000 -2.4475 0.0000
# 3 80.2576 2.8830 134.8962 0.0000 -10.1433 0.0000
# 4 0.0000 0.0000 0.0000 28.6089 0.0000 -21.8075
# 5 2.3114 -2.4475 -10.1433 0.0000 80.3743 0.0000
# 6 0.0000 0.0000 0.0000 -21.8075 0.0000 103.9908
#
#
#
# Elastic Compliance Matrix: (Units=1/GPa)
#
#
# Indices 1 2 3 4 5 6 
#
# 1 0.010881 -0.004967 -0.006464 0.000000 -0.001280 0.000000
# 2 -0.004967 0.020876 0.002592 0.000000 0.001106 0.000000
# 3 -0.006464 0.002592 0.011331 0.000000 0.001695 0.000000
# 4 0.000000 0.000000 0.000000 0.041605 0.000000 0.008725
# 5 -0.001280 0.001106 0.001695 0.000000 0.012726 0.000000
# 6 0.000000 0.000000 0.000000 0.008725 0.000000 0.011446
#
#
# Mechanical properties :
#
#
# Convention : Reuss Voigt Hill
#
# Bulk Modulus (GPa) = 39.35324 62.08714 50.72019
# Shear Modulus (GPa) = 37.03372 58.01692 47.52532
#
# Velocity S-wave (km/s) = 3.71865 4.65440 4.21259
# Velocity P-wave (km/s) = 5.75606 7.21581 6.52687
#
# Compressibility (1/GPa) = 0.02541087
#
# Stress axis : x y z
#
# Youngs Moduli (GPa) = 91.90387 47.90147 88.25481
#
# Poissons Ratio (x) = 0.23791 0.57046
# Poissons Ratio (y) = 0.45646 -0.22875
# Poissons Ratio (z) = 0.59405 -0.12416
#
# Static dielectric constant tensor:
#      x y z
#    x 2.158020 0.000000 -0.000580 
#    y 0.000000 2.166690 0.000000 
#    z -0.000580 0.000000 2.015500 
# 
# From -- ./inp_files/68871.got.cif
#   From: 2010.05.17/outbox.cif.g08.bks.cpg/sg15_35_cif.got.tgz:68871.got - 2010.06.03 18:47:42.
