data_PCOD9255910
_publ_section_title
;
Structure prediction by ZEFSAII (Michael W. Deem and Ramdas Pophale) SiO2 
 PCOD9255910
Probable space group: C 2/C
;
_chemical_formula_sum "Si O2"
_cell_formula_units_Z 56
_cell_length_a 8.804881
_cell_length_b 15.500164
_cell_length_c 21.138416
_cell_angle_alpha 90.000000
_cell_angle_beta 123.427164
_cell_angle_gamma 90.000000
_cell_volume 2407.707517
_symmetry_space_group_name_H-M "C 2/C"
_symmetry_group_IT_number 15
_symmetry_cell_setting 'monoclinic'
loop_
_space_group_symop_operation_xyz
x,y,z
-x,y,1/2-z
-x,-y,-z
x,-y,1/2+z
1/2+x,1/2+y,z
1/2-x,1/2+y,1/2-z
1/2-x,1/2-y,-z
1/2+x,1/2-y,1/2+z
loop_
_atom_site_type_symbol
_atom_site_label
_atom_site_fract_x
_atom_site_fract_y
_atom_site_fract_z
Si Si1 0.963627 0.577109 0.344311
Si Si2 0.459113 0.717856 0.976342
Si Si3 0.658157 0.740470 0.887121
Si Si4 0.500000 0.612482 0.750000
Si Si5 0.145614 0.030337 0.188154
Si Si6 0.214279 0.429717 0.394778
Si Si7 0.320929 0.340554 0.639859
Si Si8 0.500000 0.194176 0.750000
O O1 0.845457 0.559065 0.255070
O O2 0.809118 0.588408 0.361259
O O3 0.074785 0.664528 0.359900
O O4 0.092344 0.501628 0.398640
O O5 0.558545 0.709077 0.929524
O O6 0.351313 0.630082 0.964554
O O7 0.299954 0.789251 0.937958
O O8 0.625749 0.747302 0.057158
O O9 0.617840 0.675732 0.820932
O O10 0.400247 0.547819 0.774711
O O11 0.162255 0.985631 0.124672
O O12 0.003976 0.109805 0.161789
O O13 0.068456 0.370111 0.321379
O O14 0.345343 0.268024 0.701765
#
# Coordination Sequence:
#
# PCOD9255910 Si02
#       8
#     8   8   8   4   8   8   8   4
#     4  11  21  37  59  94 125 159 204 265 313 364
#     4   9  21  44  63  88 125 175 211 245 326 386
#     4  10  23  41  64  91 127 167 212 262 311 381
#     4  12  23  37  64  94 122 160 208 273 301 364
#     4  12  21  38  57  98 127 157 210 267 315 363
#     4  11  22  35  62  92 126 162 208 256 316 376
#     4  10  20  37  64  85 127 164 209 256 310 378
#     4  10  17  33  56  88 118 164 202 251 299 376
#
# _framework density 23.258638999999999
#
# number of rings (size 3 to 8) (size 9 to 14) (size 15 to 20)
#    0.000    1.429    5.714    0.000    2.000    0.571 
#    0.000    2.143    0.000    1.714    0.000    0.000 
#    0.000    0.000    0.000    0.000    0.000    0.000 
#
# Total GULP energy -156229.625135 kJ/mol
# GULP energy per Si atom -5579.629469 kJ/mol
# Density = 2.320570 g / cm^3
# Si number density = 23.258639 Si / 1000 Ang^3
#
#
#
# Elastic Constant Matrix: (Units=GPa)
#
#
# Indices 1 2 3 4 5 6 
#
# 1 66.1692 32.7406 22.2473 0.0000 23.8332 0.0000
# 2 32.7406 89.7267 26.0120 0.0000 28.7049 0.0000
# 3 22.2473 26.0120 73.3453 0.0000 35.9514 0.0000
# 4 0.0000 0.0000 0.0000 23.2983 0.0000 13.6520
# 5 23.8332 28.7049 35.9514 0.0000 38.4654 0.0000
# 6 0.0000 0.0000 0.0000 13.6520 0.0000 29.4585
#
#
#
# Elastic Compliance Matrix: (Units=1/GPa)
#
#
# Indices 1 2 3 4 5 6 
#
# 1 0.020778 -0.004550 -0.000079 0.000000 -0.009405 0.000000
# 2 -0.004550 0.015640 0.000318 0.000000 -0.009150 0.000000
# 3 -0.000079 0.000318 0.025168 0.000000 -0.023712 0.000000
# 4 0.000000 0.000000 0.000000 0.058922 0.000000 -0.027306
# 5 -0.009405 -0.009150 -0.023712 0.000000 0.060815 0.000000
# 6 0.000000 0.000000 0.000000 -0.027306 0.000000 0.046601
#
#
# Mechanical properties :
#
#
# Convention : Reuss Voigt Hill
#
# Bulk Modulus (GPa) = 18.88047 43.47121 31.17584
# Shear Modulus (GPa) = 19.66957 28.12720 23.89839
#
# Velocity S-wave (km/s) = 2.91123 3.48130 3.20895
# Velocity P-wave (km/s) = 4.40858 5.90680 5.21180
#
# Compressibility (1/GPa) = 0.05296478
#
# Stress axis : x y z
#
# Youngs Moduli (GPa) = 48.12726 63.93812 39.73333
#
# Poissons Ratio (x) = 0.29093 0.00313
# Poissons Ratio (y) = 0.21899 -0.01264
# Poissons Ratio (z) = 0.00379 -0.02035
#
# Static dielectric constant tensor:
#      x y z
#    x 1.953520 0.000000 -0.098160 
#    y 0.000000 1.876580 0.000000 
#    z -0.098160 0.000000 2.034790 
# 
# From -- ./inp_files/264856.got.cif
#   From: 2010.05.17/outbox.cif.g08.bks.cpg/sg15_133_cif.got.tgz:264856.got - 2010.06.03 18:47:42.
