data_PCOD9255097
_publ_section_title
;
Structure prediction by ZEFSAII (Michael W. Deem and Ramdas Pophale) SiO2 
 PCOD9255097
Probable space group: C 2/C
;
_chemical_formula_sum "Si O2"
_cell_formula_units_Z 56
_cell_length_a 24.254709
_cell_length_b 14.596811
_cell_length_c 9.417577
_cell_angle_alpha 90.000000
_cell_angle_beta 64.559414
_cell_angle_gamma 90.000000
_cell_volume 3010.897708
_symmetry_space_group_name_H-M "C 2/C"
_symmetry_group_IT_number 15
_symmetry_cell_setting 'monoclinic'
loop_
_space_group_symop_operation_xyz
x,y,z
-x,y,1/2-z
-x,-y,-z
x,-y,1/2+z
1/2+x,1/2+y,z
1/2-x,1/2+y,1/2-z
1/2-x,1/2-y,-z
1/2+x,1/2-y,1/2+z
loop_
_atom_site_type_symbol
_atom_site_label
_atom_site_fract_x
_atom_site_fract_y
_atom_site_fract_z
Si Si1 0.139144 0.222432 0.850232
Si Si2 0.209846 0.557518 0.792833
Si Si3 0.750854 0.351280 0.782488
Si Si4 0.077844 0.436630 0.548118
Si Si5 0.551100 0.887015 0.898788
Si Si6 0.699212 0.628805 0.037449
Si Si7 0.820162 0.076537 0.887777
O O1 0.200456 0.275064 0.729029
O O2 0.084251 0.292619 0.896512
O O3 0.132948 0.132126 0.760824
O O4 0.155943 0.192254 0.991036
O O5 0.212471 0.447808 0.766825
O O6 0.240569 0.604464 0.622684
O O7 0.257212 0.574702 0.867534
O O8 0.143129 0.588908 0.911050
O O9 0.722033 0.332083 0.660772
O O10 0.696160 0.369927 0.951350
O O11 0.076688 0.426711 0.719821
O O12 0.063697 0.539669 0.509284
O O13 0.021306 0.379082 0.547943
O O14 0.666994 0.529940 0.097232
#
# Coordination Sequence:
#
# PCOD9255097 Si02
#       7
#     8   8   8   8   8   8   8
#     4  11  19  33  51  76 108 146 188 226 271 328
#     4   9  17  30  50  72 111 152 176 211 278 335
#     4  10  17  28  46  75 107 143 187 216 265 329
#     4  10  20  36  52  79 112 145 189 217 284 321
#     4  10  22  35  55  78 108 153 185 233 264 335
#     4   9  20  32  49  78 111 148 179 227 276 329
#     4   9  19  32  49  75 112 147 180 224 277 329
#
# _framework density 18.599104000000001
#
# number of rings (size 3 to 8) (size 9 to 14) (size 15 to 20)
#    0.000    2.286    1.429    2.571    4.000    1.143 
#    0.000    1.429    0.000    0.000    0.000    4.000 
#    0.000    0.000    0.571    0.714    0.000    0.000 
#
# Total GULP energy -156277.084862 kJ/mol
# GULP energy per Si atom -5581.324459 kJ/mol
# Density = 1.855677 g / cm^3
# Si number density = 18.599104 Si / 1000 Ang^3
#
#
#
# Elastic Constant Matrix: (Units=GPa)
#
#
# Indices 1 2 3 4 5 6 
#
# 1 53.6789 37.0825 16.6107 0.0000 -2.4666 0.0000
# 2 37.0825 82.6193 9.1378 0.0000 -1.5270 0.0000
# 3 16.6107 9.1378 56.1531 0.0000 11.9988 0.0000
# 4 0.0000 0.0000 0.0000 18.1890 0.0000 -2.2626
# 5 -2.4666 -1.5270 11.9988 0.0000 16.3896 0.0000
# 6 0.0000 0.0000 0.0000 -2.2626 0.0000 31.2503
#
#
#
# Elastic Compliance Matrix: (Units=1/GPa)
#
#
# Indices 1 2 3 4 5 6 
#
# 1 0.030591 -0.012527 -0.009181 0.000000 0.010158 0.000000
# 2 -0.012527 0.017590 0.001062 0.000000 -0.001024 0.000000
# 3 -0.009181 0.001062 0.024451 0.000000 -0.019183 0.000000
# 4 0.000000 0.000000 0.000000 0.055478 0.000000 0.004017
# 5 0.010158 -0.001024 -0.019183 0.000000 0.076492 0.000000
# 6 0.000000 0.000000 0.000000 0.004017 0.000000 0.032291
#
#
# Mechanical properties :
#
#
# Convention : Reuss Voigt Hill
#
# Bulk Modulus (GPa) = 31.90922 35.34592 33.62757
# Shear Modulus (GPa) = 17.32312 21.80713 19.56513
#
# Velocity S-wave (km/s) = 3.05519 3.42787 3.24688
# Velocity P-wave (km/s) = 5.44418 5.89172 5.67237
#
# Compressibility (1/GPa) = 0.03133891
#
# Stress axis : x y z
#
# Youngs Moduli (GPa) = 32.68900 56.85049 40.89875
#
# Poissons Ratio (x) = 0.71218 0.37551
# Poissons Ratio (y) = 0.40950 -0.04344
# Poissons Ratio (z) = 0.30013 -0.06038
#
# Static dielectric constant tensor:
#      x y z
#    x 1.626430 0.000000 0.011460 
#    y 0.000000 1.680520 0.000000 
#    z 0.011460 0.000000 1.685150 
# 
# From -- ./inp_files/65934.got.cif
#   From: 2010.05.17/outbox.cif.g08.bks.cpg/sg15_33_cif.got.tgz:65934.got - 2010.06.03 18:47:42.
