data_PCOD9255191
_publ_section_title
;
Structure prediction by ZEFSAII (Michael W. Deem and Ramdas Pophale) SiO2 
 PCOD9255191
Probable space group: C 2/C
;
_chemical_formula_sum "Si O2"
_cell_formula_units_Z 64
_cell_length_a 25.868859
_cell_length_b 16.387327
_cell_length_c 10.863329
_cell_angle_alpha 90.000000
_cell_angle_beta 49.605190
_cell_angle_gamma 90.000000
_cell_volume 3507.305191
_symmetry_space_group_name_H-M "C 2/C"
_symmetry_group_IT_number 15
_symmetry_cell_setting 'monoclinic'
loop_
_space_group_symop_operation_xyz
x,y,z
-x,y,1/2-z
-x,-y,-z
x,-y,1/2+z
1/2+x,1/2+y,z
1/2-x,1/2+y,1/2-z
1/2-x,1/2-y,-z
1/2+x,1/2-y,1/2+z
loop_
_atom_site_type_symbol
_atom_site_label
_atom_site_fract_x
_atom_site_fract_y
_atom_site_fract_z
Si Si1 0.795583 0.135576 0.524234
Si Si2 0.558330 0.941704 0.962130
Si Si3 0.878940 0.357749 0.428133
Si Si4 0.766295 0.187796 0.304074
Si Si5 0.890928 0.269263 0.991130
Si Si6 0.037442 0.262523 0.880828
Si Si7 0.658575 0.079579 0.781741
Si Si8 0.431279 0.319230 0.918035
O O1 0.798553 0.141979 0.372074
O O2 0.762126 0.222895 0.612786
O O3 0.739385 0.072715 0.656344
O O4 0.866982 0.127091 0.480157
O O5 0.571213 0.922996 0.086560
O O6 0.546852 0.853198 0.921802
O O7 0.625047 0.991994 0.825555
O O8 0.500000 0.000000 0.000000
O O9 0.805913 0.355969 0.612146
O O10 0.862197 0.374758 0.312806
O O11 0.913648 0.269607 0.386166
O O12 0.827288 0.209879 0.117824
O O13 0.868371 0.361403 0.067161
O O14 0.916443 0.261064 0.812235
O O15 0.958498 0.250600 0.967134
O O16 0.059524 0.199141 0.952031
O O17 0.500000 0.349270 0.750000
#
# Coordination Sequence:
#
# PCOD9255191 Si02
#       8
#     8   8   8   8   8   8   8   8
#     4   8  15  28  48  68  86 113 171 193 241 281
#     4  11  22  32  45  66 101 133 167 194 232 275
#     4   9  20  31  47  68  90 125 175 189 239 287
#     4   8  14  30  48  64  86 124 157 207 232 281
#     4  10  18  31  47  66  99 127 160 193 244 283
#     4  10  21  30  42  76  98 128 159 191 240 295
#     4  10  19  32  48  63  89 138 160 204 224 270
#     4  10  17  29  48  70  96 118 149 204 246 282
#
# _framework density 18.247627999999999
#
# number of rings (size 3 to 8) (size 9 to 14) (size 15 to 20)
#    0.000    2.500    1.250    3.750    3.500    0.000 
#    0.000   10.000    0.000    0.000    0.000    0.000 
#    3.750    3.250    0.000    0.000    0.000    0.000 
#
# Total GULP energy -178210.869181 kJ/mol
# GULP energy per Si atom -5569.089662 kJ/mol
# Density = 1.820610 g / cm^3
# Si number density = 18.247628 Si / 1000 Ang^3
#
#
#
# Elastic Constant Matrix: (Units=GPa)
#
#
# Indices 1 2 3 4 5 6 
#
# 1 102.4096 16.6407 49.8910 0.0000 -18.8754 0.0000
# 2 16.6407 15.6384 10.7738 0.0000 -10.8363 0.0000
# 3 49.8910 10.7738 103.6561 0.0000 -21.1134 0.0000
# 4 0.0000 0.0000 0.0000 15.6905 0.0000 -7.1415
# 5 -18.8754 -10.8363 -21.1134 0.0000 29.3602 0.0000
# 6 0.0000 0.0000 0.0000 -7.1415 0.0000 9.6353
#
#
#
# Elastic Compliance Matrix: (Units=1/GPa)
#
#
# Indices 1 2 3 4 5 6 
#
# 1 0.014455 -0.010587 -0.005577 0.000000 0.001375 0.000000
# 2 -0.010587 0.094420 0.001164 0.000000 0.028880 0.000000
# 3 -0.005577 0.001164 0.013553 0.000000 0.006590 0.000000
# 4 0.000000 0.000000 0.000000 0.096178 0.000000 0.071285
# 5 0.001375 0.028880 0.006590 0.000000 0.050342 0.000000
# 6 0.000000 0.000000 0.000000 0.071285 0.000000 0.156620
#
#
# Mechanical properties :
#
#
# Convention : Reuss Voigt Hill
#
# Bulk Modulus (GPa) = 10.81911 41.81281 26.31596
# Shear Modulus (GPa) = 10.28008 20.56378 15.42193
#
# Velocity S-wave (km/s) = 2.37611 3.36062 2.91030
# Velocity P-wave (km/s) = 3.67012 6.16621 5.07405
#
# Compressibility (1/GPa) = 0.09242903
#
# Stress axis : x y z
#
# Youngs Moduli (GPa) = 69.17803 10.59098 73.78446
#
# Poissons Ratio (x) = 0.11212 0.41150
# Poissons Ratio (y) = 0.73237 -0.08589
# Poissons Ratio (z) = 0.38581 -0.01233
#
# Static dielectric constant tensor:
#      x y z
#    x 1.662500 0.000000 -0.009650 
#    y 0.000000 1.630070 0.000000 
#    z -0.009650 0.000000 1.697930 
# 
# From -- ./inp_files/124074.got.cif
#   From: 2010.05.17/outbox.cif.g08.bks.cpg/sg15_63_cif.got.tgz:124074.got - 2010.06.03 18:47:42.
