data_PCOD9255597
_publ_section_title
;
Structure prediction by ZEFSAII (Michael W. Deem and Ramdas Pophale) SiO2 
 PCOD9255597
Probable space group: C 2/C
;
_chemical_formula_sum "Si O2"
_cell_formula_units_Z 56
_cell_length_a 21.563690
_cell_length_b 9.976245
_cell_length_c 30.259658
_cell_angle_alpha 90.000000
_cell_angle_beta 150.367145
_cell_angle_gamma 90.000000
_cell_volume 3218.608330
_symmetry_space_group_name_H-M "C 2/C"
_symmetry_group_IT_number 15
_symmetry_cell_setting 'monoclinic'
loop_
_space_group_symop_operation_xyz
x,y,z
-x,y,1/2-z
-x,-y,-z
x,-y,1/2+z
1/2+x,1/2+y,z
1/2-x,1/2+y,1/2-z
1/2-x,1/2-y,-z
1/2+x,1/2-y,1/2+z
loop_
_atom_site_type_symbol
_atom_site_label
_atom_site_fract_x
_atom_site_fract_y
_atom_site_fract_z
Si Si1 0.953281 0.969089 0.610462
Si Si2 0.252524 0.759295 0.580575
Si Si3 0.801791 0.721559 0.643857
Si Si4 0.952179 0.321674 0.147502
Si Si5 0.093882 0.998949 0.517558
Si Si6 0.121027 0.010170 0.794706
Si Si7 0.674024 0.083397 0.454543
O O1 0.944941 0.810289 0.613467
O O2 0.973660 0.996885 0.571856
O O3 0.819173 0.032022 0.542080
O O4 0.063421 0.021534 0.710289
O O5 0.181626 0.867109 0.566841
O O6 0.320290 0.645832 0.650833
O O7 0.343845 0.839371 0.603183
O O8 0.164181 0.681041 0.490331
O O9 0.853290 0.697342 0.626280
O O10 0.681628 0.629733 0.575244
O O11 0.912123 0.674351 0.745371
O O12 0.789387 0.880906 0.644482
O O13 0.914948 0.455809 0.099190
O O14 0.000000 0.000000 0.500000
O O15 0.000000 0.974669 0.750000
#
# Coordination Sequence:
#
# PCOD9255597 Si02
#       7
#     8   8   8   8   8   8   8
#     4  10  19  34  60  88 116 152 187 237 297 350
#     4  10  21  33  53  88 119 148 188 231 301 339
#     4  10  19  35  58  88 117 149 192 235 293 354
#     4  10  17  31  59  95 113 137 187 248 308 339
#     4  11  25  44  57  75 116 171 206 229 268 346
#     4  11  19  33  58  94 125 141 172 246 316 352
#     4  10  18  31  53  93 123 141 179 237 307 351
#
# _framework density 17.398824999999999
#
# number of rings (size 3 to 8) (size 9 to 14) (size 15 to 20)
#    0.000    1.714    7.143    0.429    2.000    1.143 
#    0.000    3.571    0.000    0.000    0.000    0.000 
#    0.000    0.000    0.000    0.000    0.000    0.000 
#
# Total GULP energy -156241.831349 kJ/mol
# GULP energy per Si atom -5580.065405 kJ/mol
# Density = 1.735922 g / cm^3
# Si number density = 17.398825 Si / 1000 Ang^3
#
#
#
# Elastic Constant Matrix: (Units=GPa)
#
#
# Indices 1 2 3 4 5 6 
#
# 1 81.6564 33.7913 34.5055 0.0000 -4.6975 0.0000
# 2 33.7913 132.7536 51.1093 -0.0004 -8.3234 -0.0001
# 3 34.5055 51.1093 57.2275 -0.0005 -13.5664 -0.0002
# 4 0.0000 -0.0004 -0.0005 32.7347 -0.0003 -7.2091
# 5 -4.6975 -8.3234 -13.5664 -0.0003 12.8306 -0.0001
# 6 0.0000 -0.0001 -0.0002 -7.2091 -0.0001 12.3273
#
#
#
# Elastic Compliance Matrix: (Units=1/GPa)
#
#
# Indices 1 2 3 4 5 6 
#
# 1 0.016790 -0.000314 -0.011255 0.000000 -0.005957 0.000000
# 2 -0.000314 0.011686 -0.011314 0.000000 -0.004496 0.000000
# 3 -0.011255 -0.011314 0.042234 0.000001 0.033196 0.000001
# 4 0.000000 0.000000 0.000001 0.035065 0.000002 0.020506
# 5 -0.005957 -0.004496 0.033196 0.000002 0.107941 0.000002
# 6 0.000000 0.000000 0.000001 0.020506 0.000002 0.093113
#
#
# Mechanical properties :
#
#
# Convention : Reuss Voigt Hill
#
# Bulk Modulus (GPa) = 40.08892 56.71663 48.40277
# Shear Modulus (GPa) = 13.85389 21.72727 17.79058
#
# Velocity S-wave (km/s) = 2.82486 3.53764 3.20115
# Velocity P-wave (km/s) = 5.80784 7.02533 6.44539
#
# Compressibility (1/GPa) = 0.02494455
#
# Stress axis : x y z
#
# Youngs Moduli (GPa) = 59.55997 85.56930 23.67756
#
# Poissons Ratio (x) = 0.02687 0.26650
# Poissons Ratio (y) = 0.01870 0.26788
# Poissons Ratio (z) = 0.67037 0.96809
#
# Static dielectric constant tensor:
#      x y z
#    x 1.562810 0.000000 -0.030130 
#    y 0.000000 1.626990 0.000000 
#    z -0.030130 0.000000 1.622660 
# 
# From -- ./inp_files/317573.got.cif
#   From: 2010.05.17/outbox.cif.g08.bks.cpg/sg15_159_cif.got.tgz:317573.got - 2010.06.03 18:47:42.
