data_PCOD9255548
_publ_section_title
;
Structure prediction by ZEFSAII (Michael W. Deem and Ramdas Pophale) SiO2 
 PCOD9255548
Probable space group: C 2/C
;
_chemical_formula_sum "Si O2"
_cell_formula_units_Z 56
_cell_length_a 16.317491
_cell_length_b 23.715084
_cell_length_c 8.237469
_cell_angle_alpha 90.000000
_cell_angle_beta 57.578038
_cell_angle_gamma 90.000000
_cell_volume 2690.774520
_symmetry_space_group_name_H-M "C 2/C"
_symmetry_group_IT_number 15
_symmetry_cell_setting 'monoclinic'
loop_
_space_group_symop_operation_xyz
x,y,z
-x,y,1/2-z
-x,-y,-z
x,-y,1/2+z
1/2+x,1/2+y,z
1/2-x,1/2+y,1/2-z
1/2-x,1/2-y,-z
1/2+x,1/2-y,1/2+z
loop_
_atom_site_type_symbol
_atom_site_label
_atom_site_fract_x
_atom_site_fract_y
_atom_site_fract_z
Si Si1 0.634609 0.696384 0.489060
Si Si2 0.106397 0.079158 0.691958
Si Si3 0.440032 0.126769 0.143107
Si Si4 0.077181 0.452886 0.356079
Si Si5 0.547515 0.662143 0.029879
Si Si6 0.163436 0.741467 0.304587
Si Si7 0.192086 0.536327 0.046952
O O1 0.641880 0.631712 0.542278
O O2 0.535543 0.693287 0.492016
O O3 0.725668 0.721521 0.296470
O O4 0.640727 0.732352 0.649111
O O5 0.192250 0.034459 0.580693
O O6 0.000000 0.059544 0.750000
O O7 0.089384 0.109116 0.884488
O O8 0.500000 0.132326 0.250000
O O9 0.398490 0.184963 0.126519
O O10 0.354479 0.081990 0.279023
O O11 0.512243 0.102189 0.931112
O O12 0.134469 0.478603 0.144908
O O13 0.158360 0.444537 0.406203
O O14 0.000000 0.500000 0.500000
O O15 0.500000 0.645795 0.250000
O O16 0.630579 0.709347 0.960008
#
# Coordination Sequence:
#
# PCOD9255548 Si02
#       7
#     8   8   8   8   8   8   8
#     4   9  18  32  55  80 106 147 193 227 259 321
#     4   9  18  36  59  77  99 147 195 227 265 328
#     4   9  16  28  53  81 107 140 181 218 265 333
#     4   9  19  33  54  80 111 138 170 227 281 330
#     4  10  21  35  50  76 120 146 176 235 284 318
#     4  10  17  31  55  80 107 147 193 220 261 330
#     4  10  18  35  56  78 107 141 179 225 280 330
#
# _framework density 20.811851000000001
#
# number of rings (size 3 to 8) (size 9 to 14) (size 15 to 20)
#    0.000    2.571    1.429    3.429    0.000    0.571 
#    0.000    6.429    3.143    0.000    0.000    0.000 
#    0.000    0.000    0.000    0.000    0.000    0.000 
#
# Total GULP energy -156010.390990 kJ/mol
# GULP energy per Si atom -5571.799678 kJ/mol
# Density = 2.076448 g / cm^3
# Si number density = 20.811851 Si / 1000 Ang^3
#
#
#
# Elastic Constant Matrix: (Units=GPa)
#
#
# Indices 1 2 3 4 5 6 
#
# 1 60.3052 3.8283 35.8652 0.0000 -27.8939 0.0000
# 2 3.8283 21.2275 8.4627 0.0000 -13.4977 0.0000
# 3 35.8652 8.4627 93.1906 0.0000 -24.6460 0.0000
# 4 0.0000 0.0000 0.0000 16.4562 0.0000 -17.1089
# 5 -27.8939 -13.4977 -24.6460 0.0000 32.9386 0.0000
# 6 0.0000 0.0000 0.0000 -17.1089 0.0000 16.5885
#
#
#
# Elastic Compliance Matrix: (Units=1/GPa)
#
#
# Indices 1 2 3 4 5 6 
#
# 1 0.033006 0.015331 -0.006285 0.000000 0.029531 0.000000
# 2 0.015331 0.070975 -0.001521 0.000000 0.040929 0.000000
# 3 -0.006285 -0.001521 0.014605 0.000000 0.004983 0.000000
# 4 0.000000 0.000000 0.000000 -0.840705 0.000000 -0.867080
# 5 0.029531 0.040929 0.004983 0.000000 0.075868 0.000000
# 6 0.000000 0.000000 0.000000 -0.867080 0.000000 -0.834000
#
#
# Mechanical properties :
#
#
# Convention : Reuss Voigt Hill
#
# Bulk Modulus (GPa) = 7.48301 30.11509 18.79905
# Shear Modulus (GPa) = -3.44648 21.63445 9.09398
#
# Velocity S-wave (km/s) = -1.28826 3.22767 2.09263
# Velocity P-wave (km/s) = 1.17921 5.32841 3.85892
#
# Compressibility (1/GPa) = 0.13363608
#
# Stress axis : x y z
#
# Youngs Moduli (GPa) = 30.29723 14.08941 68.46778
#
# Poissons Ratio (x) = -0.21600 0.43032
# Poissons Ratio (y) = -0.46447 0.10414
# Poissons Ratio (z) = 0.19042 0.02143
#
# Static dielectric constant tensor:
#      x y z
#    x 1.771070 0.000000 0.004360 
#    y 0.000000 1.752050 0.000000 
#    z 0.004360 0.000000 1.787310 
# 
# From -- ./inp_files/52001.got.cif
#   From: 2010.05.17/outbox.cif.g08.bks.cpg/sg15_27_cif.got.tgz:52001.got - 2010.06.03 18:47:42.
