data_PCOD9255966
_publ_section_title
;
Structure prediction by ZEFSAII (Michael W. Deem and Ramdas Pophale) SiO2 
 PCOD9255966
Probable space group: C 2/C
;
_chemical_formula_sum "Si O2"
_cell_formula_units_Z 56
_cell_length_a 9.610726
_cell_length_b 22.536657
_cell_length_c 23.362567
_cell_angle_alpha 90.000000
_cell_angle_beta 149.903068
_cell_angle_gamma 90.000000
_cell_volume 2537.501844
_symmetry_space_group_name_H-M "C 2/C"
_symmetry_group_IT_number 15
_symmetry_cell_setting 'monoclinic'
loop_
_space_group_symop_operation_xyz
x,y,z
-x,y,1/2-z
-x,-y,-z
x,-y,1/2+z
1/2+x,1/2+y,z
1/2-x,1/2+y,1/2-z
1/2-x,1/2-y,-z
1/2+x,1/2-y,1/2+z
loop_
_atom_site_type_symbol
_atom_site_label
_atom_site_fract_x
_atom_site_fract_y
_atom_site_fract_z
Si Si1 0.077244 0.585230 0.515108
Si Si2 0.772062 0.088500 0.388468
Si Si3 0.799493 0.396305 0.803284
Si Si4 0.438909 0.732250 0.316679
Si Si5 0.991862 0.214897 0.472740
Si Si6 0.544849 0.303105 0.333980
Si Si7 0.866230 0.033375 0.074150
O O1 0.273875 0.641632 0.583691
O O2 0.257891 0.529013 0.559483
O O3 0.834749 0.595814 0.382874
O O4 0.912530 0.573832 0.516256
O O5 0.500000 0.101402 0.250000
O O6 0.604751 0.084789 0.387890
O O7 0.973502 0.144583 0.468520
O O8 0.968708 0.039829 0.427439
O O9 0.690548 0.329689 0.750683
O O10 0.596605 0.441194 0.699193
O O11 0.746510 0.750787 0.407930
O O12 0.464936 0.727031 0.395041
O O13 0.239425 0.788413 0.235646
O O14 0.721352 0.243173 0.404458
O O15 0.500000 0.310854 0.250000
#
# Coordination Sequence:
#
# PCOD9255966 Si02
#       7
#     8   8   8   8   8   8   8
#     4  11  25  40  61  93 128 166 206 268 331 370
#     4  10  18  37  66  88 120 166 216 263 307 386
#     4  11  21  41  66  91 126 164 214 270 324 379
#     4  10  19  32  60  93 123 161 206 256 314 382
#     4  10  17  33  60  93 119 163 214 251 308 379
#     4  10  21  36  59  91 126 163 208 260 312 391
#     4  10  23  41  61  89 120 170 222 255 308 395
#
# _framework density 22.068949
#
# number of rings (size 3 to 8) (size 9 to 14) (size 15 to 20)
#    0.000    1.714    4.286    1.714    4.000    3.429 
#    0.000    0.000    0.000    0.000    0.000    0.000 
#    0.000    0.000    0.000    0.000    0.000    0.000 
#
# Total GULP energy -156102.179712 kJ/mol
# GULP energy per Si atom -5575.077847 kJ/mol
# Density = 2.201872 g / cm^3
# Si number density = 22.068949 Si / 1000 Ang^3
#
#
#
# Elastic Constant Matrix: (Units=GPa)
#
#
# Indices 1 2 3 4 5 6 
#
# 1 82.5142 4.5001 13.6568 -0.0016 22.9074 -0.0045
# 2 4.5001 58.9654 23.7491 -0.0018 7.2897 -0.0011
# 3 13.6568 23.7491 50.6769 0.0039 17.8607 0.0042
# 4 -0.0016 -0.0018 0.0039 33.9603 -0.0003 7.4739
# 5 22.9074 7.2897 17.8607 -0.0003 20.4911 -0.0026
# 6 -0.0045 -0.0011 0.0042 7.4739 -0.0026 6.2071
#
#
#
# Elastic Compliance Matrix: (Units=1/GPa)
#
#
# Indices 1 2 3 4 5 6 
#
# 1 0.017932 0.000196 0.003126 0.000000 -0.022841 0.000002
# 2 0.000196 0.020943 -0.010341 0.000000 0.001344 0.000012
# 3 0.003126 -0.010341 0.034168 0.000004 -0.029597 -0.000040
# 4 0.000000 0.000000 0.000004 0.040062 -0.000009 -0.048239
# 5 -0.022841 0.001344 -0.029597 -0.000009 0.099656 0.000055
# 6 0.000002 0.000012 -0.000040 -0.048239 0.000055 0.219190
#
#
# Mechanical properties :
#
#
# Convention : Reuss Voigt Hill
#
# Bulk Modulus (GPa) = 16.94771 30.66315 23.80543
# Shear Modulus (GPa) = 10.73746 22.14839 16.44293
#
# Velocity S-wave (km/s) = 2.20816 3.17140 2.73256
# Velocity P-wave (km/s) = 3.76795 5.22827 4.55698
#
# Compressibility (1/GPa) = 0.05900503
#
# Stress axis : x y z
#
# Youngs Moduli (GPa) = 55.76565 47.74854 29.26696
#
# Poissons Ratio (x) = -0.00937 -0.09148
# Poissons Ratio (y) = -0.01095 0.30266
# Poissons Ratio (z) = -0.17430 0.49378
#
# Static dielectric constant tensor:
#      x y z
#    x 1.968050 0.000000 0.022670 
#    y 0.000000 1.786430 -0.000010 
#    z 0.022670 -0.000010 1.805370 
# 
# From -- ./inp_files/311816.got.cif
#   From: 2010.05.17/outbox.cif.g08.bks.cpg/sg15_156_cif.got.tgz:311816.got - 2010.06.03 18:47:42.
