data_PCOD9255415
_publ_section_title
;
Structure prediction by ZEFSAII (Michael W. Deem and Ramdas Pophale) SiO2 
 PCOD9255415
Probable space group: C 2/C
;
_chemical_formula_sum "Si O2"
_cell_formula_units_Z 64
_cell_length_a 13.048880
_cell_length_b 14.890954
_cell_length_c 28.674930
_cell_angle_alpha 90.000000
_cell_angle_beta 40.378925
_cell_angle_gamma 90.000000
_cell_volume 3609.655140
_symmetry_space_group_name_H-M "C 2/C"
_symmetry_group_IT_number 15
_symmetry_cell_setting 'monoclinic'
loop_
_space_group_symop_operation_xyz
x,y,z
-x,y,1/2-z
-x,-y,-z
x,-y,1/2+z
1/2+x,1/2+y,z
1/2-x,1/2+y,1/2-z
1/2-x,1/2-y,-z
1/2+x,1/2-y,1/2+z
loop_
_atom_site_type_symbol
_atom_site_label
_atom_site_fract_x
_atom_site_fract_y
_atom_site_fract_z
Si Si1 0.472113 0.390487 0.568357
Si Si2 0.648321 0.792586 0.166759
Si Si3 0.303930 0.359605 0.923662
Si Si4 0.542421 0.809173 0.447711
Si Si5 0.732634 0.530847 0.910245
Si Si6 0.501870 0.747026 0.931393
Si Si7 0.720659 0.891532 0.525101
Si Si8 0.818788 0.531379 0.564361
O O1 0.570490 0.391838 0.581849
O O2 0.410245 0.288326 0.586988
O O3 0.343300 0.467329 0.603309
O O4 0.596366 0.409533 0.483106
O O5 0.500000 0.770889 0.250000
O O6 0.650184 0.729221 0.120445
O O7 0.647918 0.896318 0.151124
O O8 0.814492 0.776505 0.136548
O O9 0.279344 0.440629 0.895235
O O10 0.133104 0.339801 0.007995
O O11 0.514155 0.793194 0.512561
O O12 0.673843 0.887385 0.401191
O O13 0.793947 0.464722 0.929442
O O14 0.420423 0.818165 0.924731
O O15 0.386157 0.661416 0.972480
O O16 0.722780 0.934944 0.473112
O O17 0.000000 0.500000 0.500000
#
# Coordination Sequence:
#
# PCOD9255415 Si02
#       8
#     8   8   8   8   8   8   8   8
#     4  11  18  30  53  87 114 132 170 227 291 330
#     4  11  24  40  53  72 110 156 192 223 262 331
#     4  10  19  32  51  76 107 142 178 226 272 328
#     4   9  16  28  46  81 112 132 160 214 282 335
#     4  11  20  32  52  84 114 143 174 225 278 330
#     4   9  17  32  54  80 111 139 174 218 280 332
#     4  10  17  30  55  86 111 133 168 232 294 325
#     4   9  18  27  46  79 112 135 163 212 280 333
#
# _framework density 17.730225000000001
#
# number of rings (size 3 to 8) (size 9 to 14) (size 15 to 20)
#    0.000    2.000    5.000    1.875    0.000    0.000 
#    0.000    1.250    0.000    0.000    0.000    0.000 
#    0.000    0.000    0.000    0.000    0.000    0.000 
#
# Total GULP energy -178212.527210 kJ/mol
# GULP energy per Si atom -5569.141475 kJ/mol
# Density = 1.768987 g / cm^3
# Si number density = 17.730225 Si / 1000 Ang^3
#
#
#
# Elastic Constant Matrix: (Units=GPa)
#
#
# Indices 1 2 3 4 5 6 
#
# 1 84.5238 29.8981 19.2199 0.0001 -10.5779 -0.0001
# 2 29.8981 109.6697 14.7949 0.0002 -2.0631 -0.0001
# 3 19.2199 14.7949 31.8222 0.0004 -10.5916 -0.0003
# 4 0.0001 0.0002 0.0004 5.6876 0.0000 4.8414
# 5 -10.5779 -2.0631 -10.5916 0.0000 10.3682 0.0000
# 6 -0.0001 -0.0001 -0.0003 4.8414 0.0000 18.2140
#
#
#
# Elastic Compliance Matrix: (Units=1/GPa)
#
#
# Indices 1 2 3 4 5 6 
#
# 1 0.015318 -0.003424 -0.004068 0.000000 0.010790 0.000000
# 2 -0.003424 0.010608 -0.005037 0.000000 -0.006528 0.000000
# 3 -0.004068 -0.005037 0.052286 -0.000005 0.048260 0.000002
# 4 0.000000 0.000000 -0.000005 0.227236 -0.000004 -0.060401
# 5 0.010790 -0.006528 0.048260 -0.000004 0.155459 0.000002
# 6 0.000000 0.000000 0.000002 -0.060401 0.000002 0.070958
#
#
# Mechanical properties :
#
#
# Convention : Reuss Voigt Hill
#
# Bulk Modulus (GPa) = 18.81319 39.31572 29.06445
# Shear Modulus (GPa) = 8.70110 17.66080 13.18095
#
# Velocity S-wave (km/s) = 2.21769 3.15950 2.72953
# Velocity P-wave (km/s) = 4.14625 5.96091 5.13439
#
# Compressibility (1/GPa) = 0.05315421
#
# Stress axis : x y z
#
# Youngs Moduli (GPa) = 65.28449 94.26463 19.12560
#
# Poissons Ratio (x) = 0.32277 0.07781
# Poissons Ratio (y) = 0.22354 0.09633
# Poissons Ratio (z) = 0.26559 0.47478
#
# Static dielectric constant tensor:
#      x y z
#    x 1.675210 0.000000 -0.023550 
#    y 0.000000 1.719690 0.000000 
#    z -0.023550 0.000000 1.558990 
# 
# From -- ./inp_files/311189.got.cif
#   From: 2010.05.17/outbox.cif.g08.bks.cpg/sg15_156_cif.got.tgz:311189.got - 2010.06.03 18:47:42.
