data_PCOD9255673
_publ_section_title
;
Structure prediction by ZEFSAII (Michael W. Deem and Ramdas Pophale) SiO2 
 PCOD9255673
Probable space group: C 2/C
;
_chemical_formula_sum "Si O2"
_cell_formula_units_Z 44
_cell_length_a 14.897830
_cell_length_b 20.323667
_cell_length_c 12.038644
_cell_angle_alpha 90.000000
_cell_angle_beta 140.375059
_cell_angle_gamma 90.000000
_cell_volume 2324.660206
_symmetry_space_group_name_H-M "C 2/C"
_symmetry_group_IT_number 15
_symmetry_cell_setting 'monoclinic'
loop_
_space_group_symop_operation_xyz
x,y,z
-x,y,1/2-z
-x,-y,-z
x,-y,1/2+z
1/2+x,1/2+y,z
1/2-x,1/2+y,1/2-z
1/2-x,1/2-y,-z
1/2+x,1/2-y,1/2+z
loop_
_atom_site_type_symbol
_atom_site_label
_atom_site_fract_x
_atom_site_fract_y
_atom_site_fract_z
Si Si1 0.142829 0.975198 0.195558
Si Si2 0.684724 0.758568 0.686431
Si Si3 0.079799 0.761127 0.432914
Si Si4 0.839711 0.129562 0.963971
Si Si5 0.500000 0.607830 0.750000
Si Si6 0.818828 0.115645 0.200466
O O1 0.097863 0.937231 0.265644
O O2 0.221050 0.043013 0.295283
O O3 0.210073 0.924359 0.173214
O O4 0.000000 0.000000 0.000000
O O5 0.521335 0.756230 0.561281
O O6 0.709338 0.700636 0.623039
O O7 0.740210 0.826808 0.691227
O O8 0.766575 0.741426 0.879842
O O9 0.078049 0.839800 0.405473
O O10 0.000000 0.731025 0.250000
O O11 0.791798 0.117484 0.043179
O O12 0.011518 0.126217 0.125621
#
# Coordination Sequence:
#
# PCOD9255673 Si02
#       6
#     8   8   8   8   4   8
#     4  10  17  32  52  81 115 144 189 243 284 331
#     4  12  19  39  53  85 122 148 194 230 286 345
#     4  10  22  34  57  84 114 150 187 233 292 330
#     4  10  19  35  53  83 114 152 189 234 285 336
#     4  10  18  34  54  84 112 146 188 246 288 320
#     4  10  21  32  56  85 116 151 189 235 292 333
#
# _framework density 18.927498
#
# number of rings (size 3 to 8) (size 9 to 14) (size 15 to 20)
#    0.545    1.091    3.636    4.364    0.000    0.000 
#    0.000    0.000    0.000    1.091    0.000    2.545 
#    0.000    0.000    0.000    0.000    0.000    0.000 
#
# Total GULP energy -122603.995993 kJ/mol
# GULP energy per Si atom -5572.908909 kJ/mol
# Density = 1.888442 g / cm^3
# Si number density = 18.927498 Si / 1000 Ang^3
#
#
#
# Elastic Constant Matrix: (Units=GPa)
#
#
# Indices 1 2 3 4 5 6 
#
# 1 63.9963 32.1323 19.9022 0.0000 -21.7233 0.0000
# 2 32.1323 119.1516 21.1002 0.0000 -22.9342 0.0000
# 3 19.9022 21.1002 40.9950 0.0000 -12.7195 0.0000
# 4 0.0000 0.0000 0.0000 23.2691 0.0000 -3.3967
# 5 -21.7233 -22.9342 -12.7195 0.0000 30.6046 0.0000
# 6 0.0000 0.0000 0.0000 -3.3967 0.0000 32.9081
#
#
#
# Elastic Compliance Matrix: (Units=1/GPa)
#
#
# Indices 1 2 3 4 5 6 
#
# 1 0.022874 -0.002872 -0.006035 0.000000 0.011576 0.000000
# 2 -0.002872 0.010542 -0.002541 0.000000 0.004806 0.000000
# 3 -0.006035 -0.002541 0.030665 0.000000 0.006557 0.000000
# 4 0.000000 0.000000 0.000000 0.043633 0.000000 0.004504
# 5 0.011576 0.004806 0.006557 0.000000 0.047218 0.000000
# 6 0.000000 0.000000 0.000000 0.004504 0.000000 0.030853
#
#
# Mechanical properties :
#
#
# Convention : Reuss Voigt Hill
#
# Bulk Modulus (GPa) = 24.28009 41.15691 32.71850
# Shear Modulus (GPa) = 22.48116 27.42357 24.95237
#
# Velocity S-wave (km/s) = 3.45012 3.81054 3.63480
# Velocity P-wave (km/s) = 5.35974 6.41498 5.91096
#
# Compressibility (1/GPa) = 0.04118601
#
# Stress axis : x y z
#
# Youngs Moduli (GPa) = 43.71763 94.85852 32.61018
#
# Poissons Ratio (x) = 0.27241 0.19681
# Poissons Ratio (y) = 0.12555 0.08286
# Poissons Ratio (z) = 0.26384 0.24102
#
# Static dielectric constant tensor:
#      x y z
#    x 1.676150 0.000000 -0.042570 
#    y 0.000000 1.654090 0.000000 
#    z -0.042570 0.000000 1.675160 
# 
# From -- ./inp_files/99898.got.cif
#   From: 2010.05.17/outbox.cif.g08.bks.cpg/sg15_50_cif.got.tgz:99898.got - 2010.06.03 18:47:42.
