data_PCOD9255657
_publ_section_title
;
Structure prediction by ZEFSAII (Michael W. Deem and Ramdas Pophale) SiO2 
 PCOD9255657
Probable space group: C 2/C
;
_chemical_formula_sum "Si O2"
_cell_formula_units_Z 52
_cell_length_a 18.540703
_cell_length_b 19.379129
_cell_length_c 11.653408
_cell_angle_alpha 90.000000
_cell_angle_beta 42.816832
_cell_angle_gamma 90.000000
_cell_volume 2845.791549
_symmetry_space_group_name_H-M "C 2/C"
_symmetry_group_IT_number 15
_symmetry_cell_setting 'monoclinic'
loop_
_space_group_symop_operation_xyz
x,y,z
-x,y,1/2-z
-x,-y,-z
x,-y,1/2+z
1/2+x,1/2+y,z
1/2-x,1/2+y,1/2-z
1/2-x,1/2-y,-z
1/2+x,1/2-y,1/2+z
loop_
_atom_site_type_symbol
_atom_site_label
_atom_site_fract_x
_atom_site_fract_y
_atom_site_fract_z
Si Si1 0.672757 0.764666 0.697830
Si Si2 0.500000 0.701077 0.750000
Si Si3 0.243504 0.814469 0.341448
Si Si4 0.686667 0.388271 0.913757
Si Si5 0.586280 0.742196 0.222913
Si Si6 0.056192 0.905822 0.837484
Si Si7 0.341890 0.543087 0.516916
O O1 0.750000 0.750000 0.500000
O O2 0.556583 0.747562 0.782284
O O3 0.702004 0.714712 0.769467
O O4 0.708915 0.840685 0.698389
O O5 0.591838 0.651818 0.591191
O O6 0.357453 0.783668 0.242155
O O7 0.170614 0.785930 0.531063
O O8 0.238193 0.896950 0.352286
O O9 0.639256 0.399637 0.842550
O O10 0.701188 0.466179 0.939030
O O11 0.500000 0.783509 0.250000
O O12 0.530306 0.673954 0.338676
O O13 0.113468 0.937953 0.660475
O O14 0.945282 0.946551 0.979309
#
# Coordination Sequence:
#
# PCOD9255657 Si02
#       7
#     8   4   8   8   8   8   8
#     4  10  22  35  53  77 107 147 186 213 256 321
#     4  10  22  36  54  78 102 146 186 216 258 314
#     4  10  19  33  53  78 107 139 174 216 268 315
#     4  11  21  35  52  78 110 138 175 222 270 315
#     4  10  18  31  55  80 104 133 176 216 263 317
#     4  10  17  32  51  79 105 135 168 223 268 322
#     4  10  20  31  52  82 109 134 170 220 281 313
#
# _framework density 18.272596
#
# number of rings (size 3 to 8) (size 9 to 14) (size 15 to 20)
#    0.000    1.846    4.615    2.308    0.000    2.462 
#    0.000    0.000    1.692    0.000    0.000    6.462 
#    0.000    0.000    0.000    0.000    0.000    0.000 
#
# Total GULP energy -144864.423685 kJ/mol
# GULP energy per Si atom -5571.708603 kJ/mol
# Density = 1.823101 g / cm^3
# Si number density = 18.272596 Si / 1000 Ang^3
#
#
#
# Elastic Constant Matrix: (Units=GPa)
#
#
# Indices 1 2 3 4 5 6 
#
# 1 116.3993 52.4931 0.6373 0.0000 1.2527 0.0000
# 2 52.4931 140.0706 23.8917 0.0000 -10.1038 0.0000
# 3 0.6373 23.8917 19.0966 0.0000 2.5333 0.0000
# 4 0.0000 0.0000 0.0000 16.4632 0.0000 -5.7568
# 5 1.2527 -10.1038 2.5333 0.0000 22.0978 0.0000
# 6 0.0000 0.0000 0.0000 -5.7568 0.0000 28.3223
#
#
#
# Elastic Compliance Matrix: (Units=1/GPa)
#
#
# Indices 1 2 3 4 5 6 
#
# 1 0.011184 -0.005742 0.007355 0.000000 -0.004103 0.000000
# 2 -0.005742 0.012744 -0.016824 0.000000 0.008081 0.000000
# 3 0.007355 -0.016824 0.075391 0.000000 -0.016752 0.000000
# 4 0.000000 0.000000 0.000000 0.065389 0.000000 0.013291
# 5 -0.004103 0.008081 -0.016752 0.000000 0.051101 0.000000
# 6 0.000000 0.000000 0.000000 0.013291 0.000000 0.038009
#
#
# Mechanical properties :
#
#
# Convention : Reuss Voigt Hill
#
# Bulk Modulus (GPa) = 14.51453 47.73451 31.12452
# Shear Modulus (GPa) = 16.27571 26.61296 21.44433
#
# Velocity S-wave (km/s) = 2.98773 3.82047 3.42947
# Velocity P-wave (km/s) = 4.45675 6.75586 5.72295
#
# Compressibility (1/GPa) = 0.06889649
#
# Stress axis : x y z
#
# Youngs Moduli (GPa) = 89.40974 78.47032 13.26423
#
# Poissons Ratio (x) = 0.45057 -0.09755
# Poissons Ratio (y) = 0.51338 0.22316
# Poissons Ratio (z) = -0.65758 1.32018
#
# Static dielectric constant tensor:
#      x y z
#    x 1.691810 0.000000 -0.002080 
#    y 0.000000 1.649910 0.000000 
#    z -0.002080 0.000000 1.652680 
# 
# From -- ./inp_files/99696.got.cif
#   From: 2010.05.17/outbox.cif.g08.bks.cpg/sg15_50_cif.got.tgz:99696.got - 2010.06.03 18:47:42.
