data_PCOD9255667
_publ_section_title
;
Structure prediction by ZEFSAII (Michael W. Deem and Ramdas Pophale) SiO2 
 PCOD9255667
Probable space group: C 2/C
;
_chemical_formula_sum "Si O2"
_cell_formula_units_Z 56
_cell_length_a 8.793526
_cell_length_b 12.837745
_cell_length_c 24.610910
_cell_angle_alpha 90.000000
_cell_angle_beta 112.475421
_cell_angle_gamma 90.000000
_cell_volume 2567.272321
_symmetry_space_group_name_H-M "C 2/C"
_symmetry_group_IT_number 15
_symmetry_cell_setting 'monoclinic'
loop_
_space_group_symop_operation_xyz
x,y,z
-x,y,1/2-z
-x,-y,-z
x,-y,1/2+z
1/2+x,1/2+y,z
1/2-x,1/2+y,1/2-z
1/2-x,1/2-y,-z
1/2+x,1/2-y,1/2+z
loop_
_atom_site_type_symbol
_atom_site_label
_atom_site_fract_x
_atom_site_fract_y
_atom_site_fract_z
Si Si1 0.942391 0.385891 0.472174
Si Si2 0.829307 0.460483 0.282865
Si Si3 0.686936 0.524893 0.151800
Si Si4 0.315739 0.509305 0.626126
Si Si5 0.401378 0.199362 0.405598
Si Si6 0.957901 0.322347 0.688134
Si Si7 0.377527 0.132821 0.616076
O O1 0.760094 0.403452 0.423837
O O2 0.000000 0.500000 0.500000
O O3 0.978041 0.307358 0.526163
O O4 0.050581 0.359202 0.434203
O O5 0.751049 0.457483 0.212639
O O6 0.693966 0.457950 0.312044
O O7 0.928800 0.571417 0.295388
O O8 0.968744 0.378706 0.321177
O O9 0.492522 0.525468 0.129630
O O10 0.770617 0.638142 0.165374
O O11 0.767334 0.470869 0.110239
O O12 0.186303 0.413674 0.608737
O O13 0.494425 0.226030 0.362511
O O14 0.249167 0.276111 0.390851
O O15 0.000000 0.265079 0.750000
#
# Coordination Sequence:
#
# PCOD9255667 Si02
#       7
#     8   8   8   8   8   8   8
#     4   9  18  35  55  75 104 146 187 220 257 321
#     4   8  16  32  52  71 100 139 178 216 260 326
#     4  10  17  32  52  75 102 137 176 219 269 328
#     4   9  18  32  54  78 100 139 188 221 260 325
#     4  10  19  35  53  76 106 140 179 226 269 317
#     4   8  16  32  52  71  99 138 175 212 264 324
#     4  10  19  32  53  78 105 139 177 222 278 317
#
# _framework density 21.813033999999998
#
# number of rings (size 3 to 8) (size 9 to 14) (size 15 to 20)
#    0.000    2.857    0.000    4.714    0.000    0.000 
#    0.000   20.000    0.000    0.000    0.000    0.000 
#    0.000    0.000    0.000    0.000    0.000    0.000 
#
# Total GULP energy -156171.852559 kJ/mol
# GULP energy per Si atom -5577.566163 kJ/mol
# Density = 2.176339 g / cm^3
# Si number density = 21.813034 Si / 1000 Ang^3
#
#
#
# Elastic Constant Matrix: (Units=GPa)
#
#
# Indices 1 2 3 4 5 6 
#
# 1 142.9447 -2.7220 50.0954 0.0000 -6.7007 0.0000
# 2 -2.7220 28.8482 13.0766 0.0000 0.9549 0.0000
# 3 50.0954 13.0766 102.6306 0.0000 -22.1968 0.0000
# 4 0.0000 0.0000 0.0000 8.2680 0.0000 5.5848
# 5 -6.7007 0.9549 -22.1968 0.0000 19.8283 0.0000
# 6 0.0000 0.0000 0.0000 5.5848 0.0000 26.7563
#
#
#
# Elastic Compliance Matrix: (Units=1/GPa)
#
#
# Indices 1 2 3 4 5 6 
#
# 1 0.008816 0.003410 -0.005448 0.000000 -0.003284 0.000000
# 2 0.003410 0.039444 -0.009041 0.000000 -0.010868 0.000000
# 3 -0.005448 -0.009041 0.017484 0.000000 0.018167 0.000000
# 4 0.000000 0.000000 0.000000 0.140800 0.000000 -0.029389
# 5 -0.003284 -0.010868 0.018167 0.000000 0.070183 0.000000
# 6 0.000000 0.000000 0.000000 -0.029389 0.000000 0.043509
#
#
# Mechanical properties :
#
#
# Convention : Reuss Voigt Hill
#
# Bulk Modulus (GPa) = 22.94287 43.92483 33.43385
# Shear Modulus (GPa) = 14.00869 25.23541 19.62205
#
# Velocity S-wave (km/s) = 2.53695 3.40501 3.00251
# Velocity P-wave (km/s) = 4.37290 5.96988 5.23267
#
# Compressibility (1/GPa) = 0.04358653
#
# Stress axis : x y z
#
# Youngs Moduli (GPa) = 113.43098 25.35259 57.19574
#
# Poissons Ratio (x) = -0.08645 0.31159
# Poissons Ratio (y) = -0.38680 0.51708
# Poissons Ratio (z) = 0.61795 0.22920
#
# Static dielectric constant tensor:
#      x y z
#    x 1.778260 0.000000 0.000100 
#    y 0.000000 1.899540 0.000000 
#    z 0.000100 0.000000 1.846000 
# 
# From -- ./inp_files/288462.got.cif
#   From: 2010.05.17/outbox.cif.g08.bks.cpg/sg15_145_cif.got.tgz:288462.got - 2010.06.03 18:47:42.
