data_PCOD9255341
_publ_section_title
;
Structure prediction by ZEFSAII (Michael W. Deem and Ramdas Pophale) SiO2 
 PCOD9255341
Probable space group: C 2/C
;
_chemical_formula_sum "Si O2"
_cell_formula_units_Z 40
_cell_length_a 21.546414
_cell_length_b 6.988484
_cell_length_c 14.964583
_cell_angle_alpha 90.000000
_cell_angle_beta 136.039714
_cell_angle_gamma 90.000000
_cell_volume 1564.162715
_symmetry_space_group_name_H-M "C 2/C"
_symmetry_group_IT_number 15
_symmetry_cell_setting 'monoclinic'
loop_
_space_group_symop_operation_xyz
x,y,z
-x,y,1/2-z
-x,-y,-z
x,-y,1/2+z
1/2+x,1/2+y,z
1/2-x,1/2+y,1/2-z
1/2-x,1/2-y,-z
1/2+x,1/2-y,1/2+z
loop_
_atom_site_type_symbol
_atom_site_label
_atom_site_fract_x
_atom_site_fract_y
_atom_site_fract_z
Si Si1 0.282702 0.008931 0.112203
Si Si2 0.916749 0.607816 0.603659
Si Si3 0.357758 0.043736 0.863781
Si Si4 0.683332 0.607393 0.270146
Si Si5 0.902585 0.956736 0.142380
O O1 0.334662 0.984943 0.073573
O O2 0.349047 0.071404 0.260954
O O3 0.267648 0.788442 0.129867
O O4 0.188497 0.113879 0.000678
O O5 0.919246 0.538756 0.504692
O O6 0.916951 0.837705 0.609737
O O7 0.000000 0.551850 0.750000
O O8 0.375708 0.265730 0.859324
O O9 0.256614 0.019554 0.797415
O O10 0.628673 0.501319 0.289122
O O11 0.000000 0.862348 0.250000
#
# Coordination Sequence:
#
# PCOD9255341 Si02
#       5
#     8   8   8   8   8
#     4   9  18  32  54  73 106 139 176 220 254 316
#     4  10  17  30  51  77 106 135 176 224 261 310
#     4  10  18  32  56  78 106 139 179 219 267 318
#     4   9  18  33  55  78 106 138 180 218 264 314
#     4  10  17  33  57  77  99 144 189 219 248 313
#
# _framework density 25.572786000000001
#
# number of rings (size 3 to 8) (size 9 to 14) (size 15 to 20)
#    1.200    1.200    4.000    1.200    0.000    0.800 
#    0.000    2.000    0.000    1.200    0.000    1.400 
#    0.000    0.000    0.000    0.000    0.000    0.000 
#
# Total GULP energy -111615.413332 kJ/mol
# GULP energy per Si atom -5580.770667 kJ/mol
# Density = 2.551458 g / cm^3
# Si number density = 25.572786 Si / 1000 Ang^3
#
#
#
# Elastic Constant Matrix: (Units=GPa)
#
#
# Indices 1 2 3 4 5 6 
#
# 1 34.8019 18.5705 15.1422 0.0000 -4.9606 0.0000
# 2 18.5705 66.7183 37.4793 0.0000 -17.4906 0.0000
# 3 15.1422 37.4793 164.1498 0.0000 -6.8857 0.0000
# 4 0.0000 0.0000 0.0000 -35.6894 0.0000 -0.2178
# 5 -4.9606 -17.4906 -6.8857 0.0000 51.7743 0.0000
# 6 0.0000 0.0000 0.0000 -0.2178 0.0000 5.6067
#
#
#
# Elastic Compliance Matrix: (Units=1/GPa)
#
#
# Indices 1 2 3 4 5 6 
#
# 1 0.033925 -0.008778 -0.001119 0.000000 0.000136 0.000000
# 2 -0.008778 0.021054 -0.003755 0.000000 0.005772 0.000000
# 3 -0.001119 -0.003755 0.007034 0.000000 -0.000440 0.000000
# 4 0.000000 0.000000 0.000000 -0.028013 0.000000 -0.001088
# 5 0.000136 0.005772 -0.000440 0.000000 0.021219 0.000000
# 6 0.000000 0.000000 0.000000 -0.001088 0.000000 0.178315
#
#
# Mechanical properties :
#
#
# Convention : Reuss Voigt Hill
#
# Bulk Modulus (GPa) = 28.81225 45.33933 37.07579
# Shear Modulus (GPa) = 18.35476 17.30353 17.82914
#
# Velocity S-wave (km/s) = 2.68198 2.60405 2.64330
# Velocity P-wave (km/s) = 4.56968 5.17778 4.88321
#
# Compressibility (1/GPa) = 0.03470746
#
# Stress axis : x y z
#
# Youngs Moduli (GPa) = 29.47721 47.49579 142.16196
#
# Poissons Ratio (x) = 0.41692 0.15915
# Poissons Ratio (y) = 0.25875 0.53387
# Poissons Ratio (z) = 0.03300 0.17836
#
# Static dielectric constant tensor:
#      x y z
#    x 1.979870 0.000000 0.035470 
#    y 0.000000 2.047370 0.000000 
#    z 0.035470 0.000000 2.143750 
# 
# From -- ./inp_files/151193.got.cif
#   From: 2010.05.17/outbox.cif.g08.bks.cpg/sg15_76_cif.got.tgz:151193.got - 2010.06.03 18:47:42.
