data_PCOD9255035
_publ_section_title
;
Structure prediction by ZEFSAII (Michael W. Deem and Ramdas Pophale) SiO2 
 PCOD9255035
Probable space group: C 2/C
;
_chemical_formula_sum "Si O2"
_cell_formula_units_Z 48
_cell_length_a 11.590075
_cell_length_b 10.890773
_cell_length_c 19.281909
_cell_angle_alpha 90.000000
_cell_angle_beta 98.153895
_cell_angle_gamma 90.000000
_cell_volume 2409.251939
_symmetry_space_group_name_H-M "C 2/C"
_symmetry_group_IT_number 15
_symmetry_cell_setting 'monoclinic'
loop_
_space_group_symop_operation_xyz
x,y,z
-x,y,1/2-z
-x,-y,-z
x,-y,1/2+z
1/2+x,1/2+y,z
1/2-x,1/2+y,1/2-z
1/2-x,1/2-y,-z
1/2+x,1/2-y,1/2+z
loop_
_atom_site_type_symbol
_atom_site_label
_atom_site_fract_x
_atom_site_fract_y
_atom_site_fract_z
Si Si1 0.710198 0.870472 0.876824
Si Si2 0.380413 0.594207 0.635450
Si Si3 0.138021 0.978148 0.005664
Si Si4 0.037527 0.423761 0.678481
Si Si5 0.138018 0.808081 0.124267
Si Si6 0.750358 0.465799 0.242003
O O1 0.681785 0.727070 0.878989
O O2 0.585658 0.942466 0.869135
O O3 0.794447 0.919519 0.943400
O O4 0.759322 0.911581 0.805962
O O5 0.336476 0.500747 0.572557
O O6 0.517454 0.622149 0.636388
O O7 0.346472 0.546093 0.707706
O O8 0.163427 0.851464 0.048354
O O9 0.000000 0.000000 0.000000
O O10 0.111450 0.332110 0.637666
O O11 0.123741 0.530947 0.709768
O O12 0.000000 0.362948 0.750000
O O13 0.234865 0.857966 0.185045
#
# Coordination Sequence:
#
# PCOD9255035 Si02
#       6
#     8   8   8   8   8   8
#     4   9  18  32  51  71  96 128 164 199 235 289
#     4  10  18  31  51  75  97 124 161 203 243 283
#     4   9  18  31  52  76  97 124 163 205 243 284
#     4   9  17  30  49  70  93 129 167 198 238 291
#     4   9  17  31  50  71  96 125 160 203 244 284
#     4  10  17  27  48  73  94 122 161 200 237 281
#
# _framework density 19.923196999999998
#
# number of rings (size 3 to 8) (size 9 to 14) (size 15 to 20)
#    0.000    2.667    0.000    4.000    0.000    0.000 
#    0.000    1.667    0.000   60.000    0.000    0.000 
#    0.000    0.000    0.000    0.000    0.000    0.000 
#
# Total GULP energy -133667.697175 kJ/mol
# GULP energy per Si atom -5569.487382 kJ/mol
# Density = 1.987785 g / cm^3
# Si number density = 19.923197 Si / 1000 Ang^3
#
#
#
# Elastic Constant Matrix: (Units=GPa)
#
#
# Indices 1 2 3 4 5 6 
#
# 1 67.3270 28.5587 21.0343 0.0000 25.1479 0.0000
# 2 28.5587 21.7428 -0.5330 0.0000 7.4077 0.0000
# 3 21.0343 -0.5330 56.4104 0.0000 18.4146 0.0000
# 4 0.0000 0.0000 0.0000 16.2325 0.0000 -4.5220
# 5 25.1479 7.4077 18.4146 0.0000 32.5400 0.0000
# 6 0.0000 0.0000 0.0000 -4.5220 0.0000 29.4818
#
#
#
# Elastic Compliance Matrix: (Units=1/GPa)
#
#
# Indices 1 2 3 4 5 6 
#
# 1 0.053795 -0.064685 -0.014603 0.000000 -0.018585 0.000000
# 2 -0.064685 0.128875 0.022809 0.000000 0.007744 0.000000
# 3 -0.014603 0.022809 0.026248 0.000000 -0.008760 0.000000
# 4 0.000000 0.000000 0.000000 0.064355 0.000000 0.009871
# 5 -0.018585 0.007744 -0.008760 0.000000 0.048289 0.000000
# 6 0.000000 0.000000 0.000000 0.009871 0.000000 0.035433
#
#
# Mechanical properties :
#
#
# Convention : Reuss Voigt Hill
#
# Bulk Modulus (GPa) = 10.42102 27.06669 18.74386
# Shear Modulus (GPa) = 9.96138 22.07887 16.02012
#
# Velocity S-wave (km/s) = 2.23847 3.33257 2.83873
# Velocity P-wave (km/s) = 3.45296 5.33133 4.49144
#
# Compressibility (1/GPa) = 0.09595989
#
# Stress axis : x y z
#
# Youngs Moduli (GPa) = 18.58912 7.75947 38.09850
#
# Poissons Ratio (x) = 0.50192 0.55636
# Poissons Ratio (y) = 1.20243 -0.86900
# Poissons Ratio (z) = 0.27146 -0.17699
#
# Static dielectric constant tensor:
#      x y z
#    x 1.738790 0.000000 0.002820 
#    y 0.000000 1.711580 0.000000 
#    z 0.002820 0.000000 1.727750 
# 
# From -- ./inp_files/236586.got.cif
#   From: 2010.05.17/outbox.cif.g08.bks.cpg/sg15_119_cif.got.tgz:236586.got - 2010.06.03 18:47:42.
