data_PCOD9255943
_publ_section_title
;
Structure prediction by ZEFSAII (Michael W. Deem and Ramdas Pophale) SiO2 
 PCOD9255943
Probable space group: C 2/C
;
_chemical_formula_sum "Si O2"
_cell_formula_units_Z 40
_cell_length_a 10.871313
_cell_length_b 14.895085
_cell_length_c 10.548275
_cell_angle_alpha 90.000000
_cell_angle_beta 90.937267
_cell_angle_gamma 90.000000
_cell_volume 1707.844474
_symmetry_space_group_name_H-M "C 2/C"
_symmetry_group_IT_number 15
_symmetry_cell_setting 'monoclinic'
loop_
_space_group_symop_operation_xyz
x,y,z
-x,y,1/2-z
-x,-y,-z
x,-y,1/2+z
1/2+x,1/2+y,z
1/2-x,1/2+y,1/2-z
1/2-x,1/2-y,-z
1/2+x,1/2-y,1/2+z
loop_
_atom_site_type_symbol
_atom_site_label
_atom_site_fract_x
_atom_site_fract_y
_atom_site_fract_z
Si Si1 0.358951 0.957718 0.236799
Si Si2 0.615363 0.774811 0.349301
Si Si3 0.271168 0.297082 0.135120
Si Si4 0.487757 0.647905 0.946424
Si Si5 0.114541 0.967856 0.657817
O O1 0.500000 0.989921 0.250000
O O2 0.366913 0.880968 0.126305
O O3 0.305931 0.891274 0.348445
O O4 0.252800 0.030432 0.212532
O O5 0.500000 0.768350 0.250000
O O6 0.724676 0.743995 0.258696
O O7 0.588737 0.717534 0.471713
O O8 0.415655 0.310215 0.147576
O O9 0.250000 0.250000 0.000000
O O10 0.405220 0.569978 0.888536
O O11 0.584382 0.597139 0.042201
O O12 0.000000 0.950420 0.750000
#
# Coordination Sequence:
#
# PCOD9255943 Si02
#       5
#     8   8   8   8   8
#     4   9  19  37  58  84 116 159 200 250 296 370
#     4   9  17  32  56  85 112 154 199 246 290 363
#     4  10  17  33  58  86 111 158 203 250 296 361
#     4  11  21  35  58  92 118 162 197 256 310 360
#     4  11  22  36  58  89 127 155 201 250 313 377
#
# _framework density 23.421336
#
# number of rings (size 3 to 8) (size 9 to 14) (size 15 to 20)
#    1.200    0.800    4.000    0.600    0.000    0.800 
#    0.000    1.000    0.000    0.000   15.600    0.000 
#    0.000    0.000    0.000    0.000    0.000    0.000 
#
# Total GULP energy -111507.807636 kJ/mol
# GULP energy per Si atom -5575.390382 kJ/mol
# Density = 2.336803 g / cm^3
# Si number density = 23.421336 Si / 1000 Ang^3
#
#
#
# Elastic Constant Matrix: (Units=GPa)
#
#
# Indices 1 2 3 4 5 6 
#
# 1 187.2541 34.4466 67.2701 0.0000 -21.9368 0.0000
# 2 34.4466 36.6902 0.6355 0.0000 -6.4021 0.0000
# 3 67.2701 0.6355 53.0391 0.0000 -24.6875 0.0000
# 4 0.0000 0.0000 0.0000 3.7914 0.0000 7.9254
# 5 -21.9368 -6.4021 -24.6875 0.0000 43.3032 0.0000
# 6 0.0000 0.0000 0.0000 7.9254 0.0000 13.0122
#
#
#
# Elastic Compliance Matrix: (Units=1/GPa)
#
#
# Indices 1 2 3 4 5 6 
#
# 1 0.015673 -0.015642 -0.023239 0.000000 -0.007621 0.000000
# 2 -0.015642 0.043772 0.025371 0.000000 0.013012 0.000000
# 3 -0.023239 0.025371 0.060289 0.000000 0.026350 0.000000
# 4 0.000000 0.000000 0.000000 -0.965484 0.000000 0.588048
# 5 -0.007621 0.013012 0.026350 0.000000 0.036178 0.000000
# 6 0.000000 0.000000 0.000000 0.588048 0.000000 -0.281312
#
#
# Mechanical properties :
#
#
# Convention : Reuss Voigt Hill
#
# Bulk Modulus (GPa) = 10.78576 53.52085 32.15331
# Shear Modulus (GPa) = -4.84046 23.66344 9.41149
#
# Velocity S-wave (km/s) = -1.43916 3.18203 2.00675
# Velocity P-wave (km/s) = 1.36145 6.03335 4.37349
#
# Compressibility (1/GPa) = 0.09271480
#
# Stress axis : x y z
#
# Youngs Moduli (GPa) = 63.80214 22.84558 16.58681
#
# Poissons Ratio (x) = 0.35736 0.38546
# Poissons Ratio (y) = 0.99802 -0.42083
# Poissons Ratio (z) = 1.48269 -0.57962
#
# Static dielectric constant tensor:
#      x y z
#    x 2.040260 0.000000 0.014250 
#    y 0.000000 1.924610 0.000000 
#    z 0.014250 0.000000 1.946750 
# 
# From -- ./inp_files/86717.got.cif
#   From: 2010.05.17/outbox.cif.g08.bks.cpg/sg15_44_cif.got.tgz:86717.got - 2010.06.03 18:47:42.
