data_PCOD9255741
_publ_section_title
;
Structure prediction by ZEFSAII (Michael W. Deem and Ramdas Pophale) SiO2 
 PCOD9255741
Probable space group: C 2/C
;
_chemical_formula_sum "Si O2"
_cell_formula_units_Z 52
_cell_length_a 12.290698
_cell_length_b 11.251581
_cell_length_c 21.156555
_cell_angle_alpha 90.000000
_cell_angle_beta 65.344409
_cell_angle_gamma 90.000000
_cell_volume 2659.001351
_symmetry_space_group_name_H-M "C 2/C"
_symmetry_group_IT_number 15
_symmetry_cell_setting 'monoclinic'
loop_
_space_group_symop_operation_xyz
x,y,z
-x,y,1/2-z
-x,-y,-z
x,-y,1/2+z
1/2+x,1/2+y,z
1/2-x,1/2+y,1/2-z
1/2-x,1/2-y,-z
1/2+x,1/2-y,1/2+z
loop_
_atom_site_type_symbol
_atom_site_label
_atom_site_fract_x
_atom_site_fract_y
_atom_site_fract_z
Si Si1 0.000000 0.620506 0.750000
Si Si2 0.304872 0.174004 0.119930
Si Si3 0.477434 0.141433 0.506949
Si Si4 0.004979 0.991519 0.323494
Si Si5 0.756785 0.105639 0.875455
Si Si6 0.255060 0.864060 0.264273
Si Si7 0.577570 0.264407 0.607406
O O1 0.871932 0.565303 0.761762
O O2 0.971890 0.696629 0.819069
O O3 0.276499 0.033776 0.128875
O O4 0.261435 0.242900 0.192333
O O5 0.219874 0.224470 0.084646
O O6 0.444332 0.191573 0.069856
O O7 0.537115 0.196365 0.555186
O O8 0.500000 0.000000 0.500000
O O9 0.335141 0.155828 0.550505
O O10 0.000000 0.027143 0.250000
O O11 0.134789 0.938593 0.303636
O O12 0.896661 0.897433 0.358110
O O13 0.975891 0.103446 0.374293
O O14 0.735524 0.163786 0.812301
#
# Coordination Sequence:
#
# PCOD9255741 Si02
#       7
#     4   8   8   8   8   8   8
#     4  10  18  30  54  84 100 136 170 238 268 298
#     4   9  20  33  53  81 105 137 179 227 266 308
#     4  10  19  33  54  81 109 142 177 221 269 317
#     4   9  18  32  54  79 103 141 178 225 261 313
#     4   9  18  33  56  75 103 142 183 215 265 317
#     4  10  19  32  54  78 111 131 180 225 272 309
#     4  10  17  32  56  79 104 133 188 222 263 307
#
# _framework density 19.556214000000001
#
# number of rings (size 3 to 8) (size 9 to 14) (size 15 to 20)
#    0.000    2.462    2.308    0.462    2.154    0.000 
#    0.000    1.538    8.462    0.000    0.000    0.000 
#    0.000    0.000    0.000    0.000    0.000    0.000 
#
# Total GULP energy -144827.137831 kJ/mol
# GULP energy per Si atom -5570.274532 kJ/mol
# Density = 1.951170 g / cm^3
# Si number density = 19.556214 Si / 1000 Ang^3
#
#
#
# Elastic Constant Matrix: (Units=GPa)
#
#
# Indices 1 2 3 4 5 6 
#
# 1 125.3420 21.6508 27.8910 0.0000 -38.3932 0.0000
# 2 21.6508 28.7071 6.8453 0.0000 0.4168 0.0000
# 3 27.8910 6.8453 72.0266 0.0000 -28.7033 0.0000
# 4 0.0000 0.0000 0.0000 20.2728 0.0000 2.5721
# 5 -38.3932 0.4168 -28.7033 0.0000 35.7824 0.0000
# 6 0.0000 0.0000 0.0000 2.5721 0.0000 15.6378
#
#
#
# Elastic Compliance Matrix: (Units=1/GPa)
#
#
# Indices 1 2 3 4 5 6 
#
# 1 0.015238 -0.012412 0.002722 0.000000 0.018678 0.000000
# 2 -0.012412 0.046277 -0.007517 0.000000 -0.019887 0.000000
# 3 0.002722 -0.007517 0.021670 0.000000 0.020392 0.000000
# 4 0.000000 0.000000 0.000000 0.050379 0.000000 -0.008286
# 5 0.018678 -0.019887 0.020392 0.000000 0.064576 0.000000
# 6 0.000000 0.000000 0.000000 -0.008286 0.000000 0.065310
#
#
# Mechanical properties :
#
#
# Convention : Reuss Voigt Hill
#
# Bulk Modulus (GPa) = 20.50376 37.64998 29.07687
# Shear Modulus (GPa) = 15.91745 25.65118 20.78432
#
# Velocity S-wave (km/s) = 2.85605 3.62562 3.26360
# Velocity P-wave (km/s) = 4.62421 6.06801 5.39463
#
# Compressibility (1/GPa) = 0.04877154
#
# Stress axis : x y z
#
# Youngs Moduli (GPa) = 65.62736 21.60897 46.14628
#
# Poissons Ratio (x) = 0.26822 -0.12563
# Poissons Ratio (y) = 0.81460 0.34687
# Poissons Ratio (z) = -0.17867 0.16243
#
# Static dielectric constant tensor:
#      x y z
#    x 1.744590 0.000000 -0.055090 
#    y 0.000000 1.669740 0.000000 
#    z -0.055090 0.000000 1.712990 
# 
# From -- ./inp_files/237480.got.cif
#   From: 2010.05.17/outbox.cif.g08.bks.cpg/sg15_119_cif.got.tgz:237480.got - 2010.06.03 18:47:42.
