data_PCOD9255627
_publ_section_title
;
Structure prediction by ZEFSAII (Michael W. Deem and Ramdas Pophale) SiO2 
 PCOD9255627
Probable space group: C 2/C
;
_chemical_formula_sum "Si O2"
_cell_formula_units_Z 64
_cell_length_a 15.936853
_cell_length_b 29.311278
_cell_length_c 5.430534
_cell_angle_alpha 90.000000
_cell_angle_beta 87.996143
_cell_angle_gamma 90.000000
_cell_volume 2535.211495
_symmetry_space_group_name_H-M "C 2/C"
_symmetry_group_IT_number 15
_symmetry_cell_setting 'monoclinic'
loop_
_space_group_symop_operation_xyz
x,y,z
-x,y,1/2-z
-x,-y,-z
x,-y,1/2+z
1/2+x,1/2+y,z
1/2-x,1/2+y,1/2-z
1/2-x,1/2-y,-z
1/2+x,1/2-y,1/2+z
loop_
_atom_site_type_symbol
_atom_site_label
_atom_site_fract_x
_atom_site_fract_y
_atom_site_fract_z
Si Si1 0.763406 0.303283 0.019769
Si Si2 0.356724 0.191729 0.017934
Si Si3 0.686953 0.608584 0.642387
Si Si4 0.948677 0.786045 0.000603
Si Si5 0.594739 0.387308 0.652341
Si Si6 0.899888 0.593480 0.115072
Si Si7 0.374812 0.065101 0.619266
Si Si8 0.763054 0.481448 0.622995
O O1 0.829477 0.308938 0.236193
O O2 0.689532 0.336032 0.119485
O O3 0.750000 0.250000 0.000000
O O4 0.787812 0.317344 0.739585
O O5 0.391857 0.242037 0.066230
O O6 0.411081 0.146832 0.057474
O O7 0.647500 0.596113 0.383123
O O8 0.784833 0.593056 0.648415
O O9 0.633200 0.594842 0.888899
O O10 0.000000 0.795775 0.250000
O O11 0.907279 0.832644 0.902394
O O12 0.000000 0.770587 0.750000
O O13 0.500000 0.398383 0.750000
O O14 0.926279 0.583934 0.387099
O O15 0.803312 0.569088 0.141793
O O16 0.922910 0.569268 0.865046
O O17 0.345261 0.013871 0.587643
O O18 0.719535 0.497170 0.370937
#
# Coordination Sequence:
#
# PCOD9255627 Si02
#       8
#     8   8   8   8   8   8   8   8
#     4  12  23  34  50  78 111 144 171 213 283 345
#     4  12  21  36  54  78 108 143 179 225 270 321
#     4  12  20  34  54  76 107 139 177 222 273 322
#     4  11  23  40  56  72 100 145 201 240 266 304
#     4  11  23  38  53  71  98 144 196 237 264 305
#     4  10  17  32  48  77 110 139 164 211 262 332
#     4  10  18  31  48  77 111 139 162 209 265 340
#     4   8  16  27  47  69 107 140 162 193 251 331
#
# _framework density 25.244440000000001
#
# number of rings (size 3 to 8) (size 9 to 14) (size 15 to 20)
#    0.000    1.250    2.500    6.000    0.000    0.000 
#    0.000    0.000    0.000    0.000    0.000    0.000 
#    0.000  117.000    0.000    0.000    0.000    0.000 
#
# Total GULP energy -178402.895733 kJ/mol
# GULP energy per Si atom -5575.090492 kJ/mol
# Density = 2.518698 g / cm^3
# Si number density = 25.244440 Si / 1000 Ang^3
#
#
#
# Elastic Constant Matrix: (Units=GPa)
#
#
# Indices 1 2 3 4 5 6 
#
# 1 90.8388 16.1642 61.2104 0.0000 -9.1598 0.0000
# 2 16.1642 86.1259 21.7020 0.0000 10.5104 0.0000
# 3 61.2104 21.7020 230.9974 0.0000 -6.4003 0.0000
# 4 0.0000 0.0000 0.0000 38.0652 0.0000 -9.7870
# 5 -9.1598 10.5104 -6.4003 0.0000 51.1722 0.0000
# 6 0.0000 0.0000 0.0000 -9.7870 0.0000 -9.0527
#
#
#
# Elastic Compliance Matrix: (Units=1/GPa)
#
#
# Indices 1 2 3 4 5 6 
#
# 1 0.013937 -0.002055 -0.003431 0.000000 0.002488 0.000000
# 2 -0.002055 0.012548 -0.000718 0.000000 -0.003035 0.000000
# 3 -0.003431 -0.000718 0.005311 0.000000 0.000198 0.000000
# 4 0.000000 0.000000 0.000000 0.020557 0.000000 -0.022224
# 5 0.002488 -0.003035 0.000198 0.000000 0.020635 0.000000
# 6 0.000000 0.000000 0.000000 -0.022224 0.000000 -0.086438
#
#
# Mechanical properties :
#
#
# Convention : Reuss Voigt Hill
#
# Bulk Modulus (GPa) = 51.57954 67.34613 59.46284
# Shear Modulus (GPa) = 922.29196 36.62932 479.46064
#
# Velocity S-wave (km/s) = 19.13473 3.81331 13.79636
# Velocity P-wave (km/s) = 22.55349 6.79147 16.65509
#
# Compressibility (1/GPa) = 0.01938753
#
# Stress axis : x y z
#
# Youngs Moduli (GPa) = 71.75168 79.69425 188.28082
#
# Poissons Ratio (x) = 0.16375 0.64601
# Poissons Ratio (y) = 0.14743 0.13528
# Poissons Ratio (z) = 0.24619 0.05726
#
# Static dielectric constant tensor:
#      x y z
#    x 2.076990 0.000000 0.041380 
#    y 0.000000 2.037990 0.000000 
#    z 0.041380 0.000000 2.292330 
# 
# From -- ./inp_files/12165.got.cif
#   From: 2010.05.17/outbox.cif.g08.bks.cpg/sg15_7_cif.got.tgz:12165.got - 2010.06.03 18:47:42.
