data_PCOD9255880
_publ_section_title
;
Structure prediction by ZEFSAII (Michael W. Deem and Ramdas Pophale) SiO2 
 PCOD9255880
Probable space group: C 2/C
;
_chemical_formula_sum "Si O2"
_cell_formula_units_Z 60
_cell_length_a 9.017863
_cell_length_b 18.675704
_cell_length_c 14.275329
_cell_angle_alpha 90.000000
_cell_angle_beta 91.312365
_cell_angle_gamma 90.000000
_cell_volume 2403.548038
_symmetry_space_group_name_H-M "C 2/C"
_symmetry_group_IT_number 15
_symmetry_cell_setting 'monoclinic'
loop_
_space_group_symop_operation_xyz
x,y,z
-x,y,1/2-z
-x,-y,-z
x,-y,1/2+z
1/2+x,1/2+y,z
1/2-x,1/2+y,1/2-z
1/2-x,1/2-y,-z
1/2+x,1/2-y,1/2+z
loop_
_atom_site_type_symbol
_atom_site_label
_atom_site_fract_x
_atom_site_fract_y
_atom_site_fract_z
Si Si1 0.199855 0.361919 0.782272
Si Si2 0.262061 0.794476 0.312733
Si Si3 0.148273 0.481956 0.294670
Si Si4 0.722138 0.156110 0.082400
Si Si5 0.637207 0.563159 0.868052
Si Si6 0.500000 0.451737 0.750000
Si Si7 0.322549 0.987711 0.004180
Si Si8 0.590911 0.784445 0.388659
O O1 0.214640 0.287097 0.834742
O O2 0.122319 0.433723 0.818066
O O3 0.137876 0.337520 0.679792
O O4 0.362397 0.397607 0.764544
O O5 0.139605 0.852385 0.343716
O O6 0.421879 0.804350 0.365036
O O7 0.307101 0.801833 0.202157
O O8 0.256076 0.466370 0.212338
O O9 0.198230 0.453992 0.394395
O O10 0.000000 0.450561 0.250000
O O11 0.874469 0.199769 0.096682
O O12 0.734475 0.072375 0.067413
O O13 0.640393 0.184079 0.988976
O O14 0.505910 0.507363 0.840227
O O15 0.718828 0.552902 0.969112
O O16 0.500000 0.000000 0.000000
#
# Coordination Sequence:
#
# PCOD9255880 Si02
#       8
#     8   8   8   8   8   4   8   8
#     4  10  20  39  62  81 119 166 203 244 307 368
#     4  10  20  35  57  90 116 162 198 255 306 356
#     4  11  22  38  60  92 118 156 207 252 306 373
#     4  10  17  33  54  86 115 153 192 257 305 351
#     4  11  23  38  62  91 124 160 205 256 310 362
#     4  10  20  42  62  82 126 168 206 246 310 376
#     4  12  21  35  62  89 123 155 202 258 315 363
#     4   9  19  30  59  87 121 145 207 260 305 348
#
# _framework density 24.963096
#
# number of rings (size 3 to 8) (size 9 to 14) (size 15 to 20)
#    0.000    1.600    4.000    3.200    1.867    0.000 
#    1.200    3.333    8.800    0.000    0.000    0.000 
#    0.000    0.000    0.000    0.000    0.000    0.000 
#
# Total GULP energy -167259.027804 kJ/mol
# GULP energy per Si atom -5575.300927 kJ/mol
# Density = 2.490628 g / cm^3
# Si number density = 24.963096 Si / 1000 Ang^3
#
#
#
# Elastic Constant Matrix: (Units=GPa)
#
#
# Indices 1 2 3 4 5 6 
#
# 1 49.6610 3.1856 11.0516 0.0000 12.1086 0.0000
# 2 3.1856 155.8245 -0.7350 0.0000 13.7515 0.0000
# 3 11.0516 -0.7350 102.4177 0.0000 26.9751 0.0000
# 4 0.0000 0.0000 0.0000 34.6518 0.0000 5.9143
# 5 12.1086 13.7515 26.9751 0.0000 29.5157 0.0000
# 6 0.0000 0.0000 0.0000 5.9143 0.0000 21.1989
#
#
#
# Elastic Compliance Matrix: (Units=1/GPa)
#
#
# Indices 1 2 3 4 5 6 
#
# 1 0.022395 0.000374 0.000068 0.000000 -0.009424 0.000000
# 2 0.000374 0.006802 0.001164 0.000000 -0.004386 0.000000
# 3 0.000068 0.001164 0.013058 0.000000 -0.012505 0.000000
# 4 0.000000 0.000000 0.000000 0.030301 0.000000 -0.008454
# 5 -0.009424 -0.004386 -0.012505 0.000000 0.051218 0.000000
# 6 0.000000 0.000000 0.000000 -0.008454 0.000000 0.049531
#
#
# Mechanical properties :
#
#
# Convention : Reuss Voigt Hill
#
# Bulk Modulus (GPa) = 21.99335 37.21197 29.60266
# Shear Modulus (GPa) = 26.99051 36.70002 31.84526
#
# Velocity S-wave (km/s) = 3.29175 3.83844 3.57556
# Velocity P-wave (km/s) = 4.82462 5.88082 5.37871
#
# Compressibility (1/GPa) = 0.04546828
#
# Stress axis : x y z
#
# Youngs Moduli (GPa) = 44.65249 147.00679 76.57889
#
# Poissons Ratio (x) = -0.05500 -0.00523
# Poissons Ratio (y) = -0.01671 -0.08912
# Poissons Ratio (z) = -0.00305 -0.17108
#
# Static dielectric constant tensor:
#      x y z
#    x 2.351570 0.000000 0.123720 
#    y 0.000000 2.082540 0.000000 
#    z 0.123720 0.000000 2.002510 
# 
# From -- ./inp_files/145724.got.cif
#   From: 2010.05.17/outbox.cif.g08.bks.cpg/sg15_73_cif.got.tgz:145724.got - 2010.06.03 18:47:42.
