data_PCOD9255956
_publ_section_title
;
Structure prediction by ZEFSAII (Michael W. Deem and Ramdas Pophale) SiO2 
 PCOD9255956
Probable space group: C 2/C
;
_chemical_formula_sum "Si O2"
_cell_formula_units_Z 64
_cell_length_a 14.713345
_cell_length_b 17.765704
_cell_length_c 14.160084
_cell_angle_alpha 90.000000
_cell_angle_beta 53.176241
_cell_angle_gamma 90.000000
_cell_volume 2962.864093
_symmetry_space_group_name_H-M "C 2/C"
_symmetry_group_IT_number 15
_symmetry_cell_setting 'monoclinic'
loop_
_space_group_symop_operation_xyz
x,y,z
-x,y,1/2-z
-x,-y,-z
x,-y,1/2+z
1/2+x,1/2+y,z
1/2-x,1/2+y,1/2-z
1/2-x,1/2-y,-z
1/2+x,1/2-y,1/2+z
loop_
_atom_site_type_symbol
_atom_site_label
_atom_site_fract_x
_atom_site_fract_y
_atom_site_fract_z
Si Si1 0.383972 0.649692 0.525056
Si Si2 0.784647 0.007109 0.125460
Si Si3 0.854172 0.169659 0.146882
Si Si4 0.004876 0.648934 0.639295
Si Si5 0.712180 0.966947 0.376911
Si Si6 0.247937 0.861814 0.587006
Si Si7 0.740624 0.183953 0.796908
Si Si8 0.071660 0.522240 0.125898
O O1 0.374291 0.559002 0.549020
O O2 0.510855 0.679892 0.438589
O O3 0.317992 0.659495 0.467379
O O4 0.320466 0.683914 0.655272
O O5 0.834474 0.088752 0.112759
O O6 0.692872 0.011524 0.100337
O O7 0.717259 0.984742 0.262814
O O8 0.811112 0.168874 0.282212
O O9 0.777959 0.234487 0.146315
O O10 0.122175 0.665297 0.510722
O O11 0.015492 0.558791 0.645681
O O12 0.000000 0.680291 0.750000
O O13 0.887262 0.667291 0.661994
O O14 0.776941 0.886576 0.339722
O O15 0.596613 0.948423 0.505859
O O16 0.753048 0.047059 0.394384
O O17 0.000000 0.565782 0.250000
#
# Coordination Sequence:
#
# PCOD9255956 Si02
#       8
#     8   8   8   8   8   8   8   8
#     4  11  20  42  62  83 123 161 205 253 302 354
#     4  10  20  40  62  88 121 158 208 254 292 359
#     4  11  26  37  57  93 123 164 198 247 308 371
#     4  10  17  33  59  86 118 149 193 246 310 353
#     4   9  19  36  60  87 118 153 205 246 299 356
#     4  10  20  37  61  89 114 152 212 255 297 359
#     4  11  24  38  58  87 127 163 191 248 316 368
#     4  10  18  33  62  93 117 153 201 257 298 341
#
# _framework density 21.600719000000002
#
# number of rings (size 3 to 8) (size 9 to 14) (size 15 to 20)
#    0.000    1.750    3.750    3.000    1.750    7.000 
#    0.000    0.625    0.000    0.000    0.000    0.000 
#    0.000    0.000    0.000    0.000    0.000    0.000 
#
# Total GULP energy -178401.129635 kJ/mol
# GULP energy per Si atom -5575.035301 kJ/mol
# Density = 2.155156 g / cm^3
# Si number density = 21.600719 Si / 1000 Ang^3
#
#
#
# Elastic Constant Matrix: (Units=GPa)
#
#
# Indices 1 2 3 4 5 6 
#
# 1 21.9903 2.4186 14.3699 0.0000 -13.2912 0.0000
# 2 2.4186 96.7513 22.3204 0.0000 -15.0881 0.0000
# 3 14.3699 22.3204 136.5107 0.0000 -14.3680 0.0000
# 4 0.0000 0.0000 0.0000 21.7162 0.0000 -3.6903
# 5 -13.2912 -15.0881 -14.3680 0.0000 30.9707 0.0000
# 6 0.0000 0.0000 0.0000 -3.6903 0.0000 15.5200
#
#
#
# Elastic Compliance Matrix: (Units=1/GPa)
#
#
# Indices 1 2 3 4 5 6 
#
# 1 0.064600 0.003706 -0.004519 0.000000 0.027432 0.000000
# 2 0.003706 0.011629 -0.001606 0.000000 0.006510 0.000000
# 3 -0.004519 -0.001606 0.008177 0.000000 0.001071 0.000000
# 4 0.000000 0.000000 0.000000 0.047988 0.000000 0.011410
# 5 0.027432 0.006510 0.001071 0.000000 0.047730 0.000000
# 6 0.000000 0.000000 0.000000 0.011410 0.000000 0.067146
#
#
# Mechanical properties :
#
#
# Convention : Reuss Voigt Hill
#
# Bulk Modulus (GPa) = 12.56809 37.05225 24.81017
# Shear Modulus (GPa) = 17.94493 28.05095 22.99794
#
# Velocity S-wave (km/s) = 2.88541 3.60754 3.26649
# Velocity P-wave (km/s) = 4.11483 5.87732 5.07320
#
# Compressibility (1/GPa) = 0.07956659
#
# Stress axis : x y z
#
# Youngs Moduli (GPa) = 15.47986 85.99203 122.30147
#
# Poissons Ratio (x) = -0.31865 0.55265
# Poissons Ratio (y) = -0.05736 0.19645
# Poissons Ratio (z) = 0.06995 0.13812
#
# Static dielectric constant tensor:
#      x y z
#    x 1.761930 0.000000 0.006830 
#    y 0.000000 1.904440 0.000000 
#    z 0.006830 0.000000 1.812720 
# 
# From -- ./inp_files/155478.got.cif
#   From: 2010.05.17/outbox.cif.g08.bks.cpg/sg15_78_cif.got.tgz:155478.got - 2010.06.03 18:47:42.
