data_PCOD9255425
_publ_section_title
;
Structure prediction by ZEFSAII (Michael W. Deem and Ramdas Pophale) SiO2 
 PCOD9255425
Probable space group: C 2/C
;
_chemical_formula_sum "Si O2"
_cell_formula_units_Z 48
_cell_length_a 21.658865
_cell_length_b 9.104204
_cell_length_c 16.993812
_cell_angle_alpha 90.000000
_cell_angle_beta 145.329582
_cell_angle_gamma 90.000000
_cell_volume 1906.206923
_symmetry_space_group_name_H-M "C 2/C"
_symmetry_group_IT_number 15
_symmetry_cell_setting 'monoclinic'
loop_
_space_group_symop_operation_xyz
x,y,z
-x,y,1/2-z
-x,-y,-z
x,-y,1/2+z
1/2+x,1/2+y,z
1/2-x,1/2+y,1/2-z
1/2-x,1/2-y,-z
1/2+x,1/2-y,1/2+z
loop_
_atom_site_type_symbol
_atom_site_label
_atom_site_fract_x
_atom_site_fract_y
_atom_site_fract_z
Si Si1 0.037011 0.168721 0.364511
Si Si2 0.466111 0.756485 0.874639
Si Si3 0.385655 0.599534 0.348264
Si Si4 0.686649 0.286636 0.165254
Si Si5 0.389356 0.112837 0.082928
Si Si6 0.160274 0.913481 0.398732
O O1 0.938059 0.114396 0.316295
O O2 0.000000 0.263725 0.250000
O O3 0.117651 0.232709 0.513404
O O4 0.898476 0.039972 0.113496
O O5 0.368185 0.813813 0.824916
O O6 0.553537 0.878380 0.941792
O O7 0.410659 0.671085 0.743085
O O8 0.525533 0.636257 0.991695
O O9 0.323364 0.451189 0.309037
O O10 0.304606 0.734702 0.269945
O O11 0.500000 0.091188 0.250000
O O12 0.338404 0.278391 0.037837
O O13 0.278619 0.031539 0.992033
#
# Coordination Sequence:
#
# PCOD9255425 Si02
#       6
#     8   8   8   8   8   8
#     4  11  22  40  64  90 124 172 223 257 308 395
#     4  10  19  36  61  90 123 164 217 266 314 374
#     4  11  23  40  64  95 126 166 217 266 318 379
#     4  11  23  39  64  93 126 168 211 266 321 374
#     4   9  17  27  49  90 126 152 192 259 327 364
#     4  10  17  30  56  86 121 163 203 252 311 375
#
# _framework density 25.180897999999999
#
# number of rings (size 3 to 8) (size 9 to 14) (size 15 to 20)
#    0.000    1.667    0.000    8.500    0.000    3.333 
#    0.000    3.333    0.000   11.000    0.000    7.000 
#    0.000    0.000    0.000    0.000    0.000    0.000 
#
# Total GULP energy -133832.874007 kJ/mol
# GULP energy per Si atom -5576.369750 kJ/mol
# Density = 2.512358 g / cm^3
# Si number density = 25.180898 Si / 1000 Ang^3
#
#
#
# Elastic Constant Matrix: (Units=GPa)
#
#
# Indices 1 2 3 4 5 6 
#
# 1 214.0830 35.2798 75.1612 0.0000 9.8411 0.0000
# 2 35.2798 43.3760 16.2850 0.0000 15.5106 0.0000
# 3 75.1612 16.2850 103.0964 0.0000 10.4741 0.0000
# 4 0.0000 0.0000 0.0000 5.1725 0.0000 6.7516
# 5 9.8411 15.5106 10.4741 0.0000 54.7158 0.0000
# 6 0.0000 0.0000 0.0000 6.7516 0.0000 19.1898
#
#
#
# Elastic Compliance Matrix: (Units=1/GPa)
#
#
# Indices 1 2 3 4 5 6 
#
# 1 0.006888 -0.004226 -0.004436 0.000000 0.000808 0.000000
# 2 -0.004226 0.029456 -0.000817 0.000000 -0.007434 0.000000
# 3 -0.004436 -0.000817 0.013215 0.000000 -0.001500 0.000000
# 4 0.000000 0.000000 0.000000 0.357526 0.000000 -0.125790
# 5 0.000808 -0.007434 -0.001500 0.000000 0.020525 0.000000
# 6 0.000000 0.000000 0.000000 -0.125790 0.000000 0.096368
#
#
# Mechanical properties :
#
#
# Convention : Reuss Voigt Hill
#
# Bulk Modulus (GPa) = 32.67806 68.22306 50.45056
# Shear Modulus (GPa) = 9.03937 31.40424 20.22181
#
# Velocity S-wave (km/s) = 1.89673 3.53533 2.83691
# Velocity P-wave (km/s) = 4.21927 6.61942 5.55063
#
# Compressibility (1/GPa) = 0.03060157
#
# Stress axis : x y z
#
# Youngs Moduli (GPa) = 145.18575 33.94894 75.67064
#
# Poissons Ratio (x) = 0.14346 0.33568
# Poissons Ratio (y) = 0.61351 0.06182
# Poissons Ratio (z) = 0.64405 0.02773
#
# Static dielectric constant tensor:
#      x y z
#    x 2.055510 0.000000 0.011070 
#    y 0.000000 2.085400 0.000000 
#    z 0.011070 0.000000 2.187730 
# 
# From -- ./inp_files/219346.got.cif
#   From: 2010.05.17/outbox.cif.g08.bks.cpg/sg15_110_cif.got.tgz:219346.got - 2010.06.03 18:47:42.
