data_PCOD9255786
_publ_section_title
;
Structure prediction by ZEFSAII (Michael W. Deem and Ramdas Pophale) SiO2 
 PCOD9255786
Probable space group: C 2/C
;
_chemical_formula_sum "Si O2"
_cell_formula_units_Z 56
_cell_length_a 11.643489
_cell_length_b 22.464292
_cell_length_c 13.515431
_cell_angle_alpha 90.000000
_cell_angle_beta 66.405817
_cell_angle_gamma 90.000000
_cell_volume 3239.607908
_symmetry_space_group_name_H-M "C 2/C"
_symmetry_group_IT_number 15
_symmetry_cell_setting 'monoclinic'
loop_
_space_group_symop_operation_xyz
x,y,z
-x,y,1/2-z
-x,-y,-z
x,-y,1/2+z
1/2+x,1/2+y,z
1/2-x,1/2+y,1/2-z
1/2-x,1/2-y,-z
1/2+x,1/2-y,1/2+z
loop_
_atom_site_type_symbol
_atom_site_label
_atom_site_fract_x
_atom_site_fract_y
_atom_site_fract_z
Si Si1 0.368701 0.986442 0.492497
Si Si2 0.589367 0.801405 0.510065
Si Si3 0.518620 0.886024 0.353846
Si Si4 0.500000 0.148023 0.250000
Si Si5 0.628114 0.331084 0.025180
Si Si6 0.500000 0.608261 0.750000
Si Si7 0.237402 0.027518 0.717693
Si Si8 0.764845 0.571263 0.364785
O O1 0.398880 0.927877 0.419661
O O2 0.500000 0.000000 0.500000
O O3 0.267337 0.985084 0.613754
O O4 0.330293 0.041656 0.437718
O O5 0.535855 0.839873 0.437804
O O6 0.528677 0.816313 0.638692
O O7 0.582422 0.730837 0.494914
O O8 0.736068 0.818051 0.471964
O O9 0.500000 0.860523 0.250000
O O10 0.641458 0.929362 0.309668
O O11 0.377471 0.107375 0.274025
O O12 0.536384 0.352751 0.142551
O O13 0.658203 0.383310 0.936908
O O14 0.618554 0.567593 0.735503
O O15 0.219443 0.983748 0.815606
#
# Coordination Sequence:
#
# PCOD9255786 Si02
#       8
#     8   8   8   4   8   4   8   8
#     4  10  18  31  53  85 117 137 180 237 292 340
#     4  10  20  36  57  87 107 148 199 235 289 329
#     4  11  19  34  59  88 119 147 183 245 297 347
#     4  10  17  32  58  86 112 135 188 254 294 316
#     4  10  21  36  55  78 114 148 196 240 268 337
#     4  12  21  38  56  80 116 153 190 232 280 354
#     4  11  21  34  55  85 113 151 186 228 297 347
#     4  11  19  34  53  86 112 145 180 238 297 335
#
# _framework density 17.286041999999998
#
# number of rings (size 3 to 8) (size 9 to 14) (size 15 to 20)
#    0.000    1.429    4.286    5.571    0.000    0.571 
#    0.000    0.000    1.571    0.857    0.000    0.000 
#    0.000    0.000    0.000    0.000    0.000    0.000 
#
# Total GULP energy -156153.967523 kJ/mol
# GULP energy per Si atom -5576.927412 kJ/mol
# Density = 1.724670 g / cm^3
# Si number density = 17.286042 Si / 1000 Ang^3
#
#
#
# Elastic Constant Matrix: (Units=GPa)
#
#
# Indices 1 2 3 4 5 6 
#
# 1 26.2661 19.7762 23.0834 0.0000 2.8767 0.0000
# 2 19.7762 110.7561 48.4954 0.0000 9.5450 0.0000
# 3 23.0834 48.4954 100.8147 0.0000 4.3590 0.0000
# 4 0.0000 0.0000 0.0000 25.0102 0.0000 6.2532
# 5 2.8767 9.5450 4.3590 0.0000 21.5046 0.0000
# 6 0.0000 0.0000 0.0000 6.2532 0.0000 12.3447
#
#
#
# Elastic Compliance Matrix: (Units=1/GPa)
#
#
# Indices 1 2 3 4 5 6 
#
# 1 0.049856 -0.004711 -0.009030 0.000000 -0.002748 0.000000
# 2 -0.004711 0.012234 -0.004639 0.000000 -0.003860 0.000000
# 3 -0.009030 -0.004639 0.014202 0.000000 0.000389 0.000000
# 4 0.000000 0.000000 0.000000 0.045782 0.000000 -0.023191
# 5 -0.002748 -0.003860 0.000389 0.000000 0.048504 0.000000
# 6 0.000000 0.000000 0.000000 -0.023191 0.000000 0.092753
#
#
# Mechanical properties :
#
#
# Convention : Reuss Voigt Hill
#
# Bulk Modulus (GPa) = 25.29733 46.72744 36.01238
# Shear Modulus (GPa) = 15.96067 21.53736 18.74902
#
# Velocity S-wave (km/s) = 3.04193 3.53362 3.29695
# Velocity P-wave (km/s) = 5.19654 6.61356 5.94740
#
# Compressibility (1/GPa) = 0.03952987
#
# Stress axis : x y z
#
# Youngs Moduli (GPa) = 20.05769 81.73874 70.41368
#
# Poissons Ratio (x) = 0.38509 0.63586
# Poissons Ratio (y) = 0.09450 0.32668
# Poissons Ratio (z) = 0.18113 0.37922
#
# Static dielectric constant tensor:
#      x y z
#    x 1.565520 0.000000 0.000810 
#    y 0.000000 1.606530 0.000000 
#    z 0.000810 0.000000 1.629980 
# 
# From -- ./inp_files/89591.got.cif
#   From: 2010.05.17/outbox.cif.g08.bks.cpg/sg15_45_cif.got.tgz:89591.got - 2010.06.03 18:47:42.
