data_PCOD9255669
_publ_section_title
;
Structure prediction by ZEFSAII (Michael W. Deem and Ramdas Pophale) SiO2 
 PCOD9255669
Probable space group: C 2/C
;
_chemical_formula_sum "Si O2"
_cell_formula_units_Z 64
_cell_length_a 22.896636
_cell_length_b 19.335516
_cell_length_c 11.195200
_cell_angle_alpha 90.000000
_cell_angle_beta 51.229024
_cell_angle_gamma 90.000000
_cell_volume 3864.220743
_symmetry_space_group_name_H-M "C 2/C"
_symmetry_group_IT_number 15
_symmetry_cell_setting 'monoclinic'
loop_
_space_group_symop_operation_xyz
x,y,z
-x,y,1/2-z
-x,-y,-z
x,-y,1/2+z
1/2+x,1/2+y,z
1/2-x,1/2+y,1/2-z
1/2-x,1/2-y,-z
1/2+x,1/2-y,1/2+z
loop_
_atom_site_type_symbol
_atom_site_label
_atom_site_fract_x
_atom_site_fract_y
_atom_site_fract_z
Si Si1 0.916972 0.986376 0.808705
Si Si2 0.315048 0.731238 0.664521
Si Si3 0.335814 0.395483 0.301084
Si Si4 0.771739 0.137731 0.139536
Si Si5 0.780984 0.644170 0.892536
Si Si6 0.775419 0.983917 0.167775
Si Si7 0.861754 0.849985 0.750765
Si Si8 0.082745 0.277795 0.182203
O O1 0.905724 0.058564 0.753925
O O2 0.000000 0.978066 0.750000
O O3 0.896179 0.922532 0.749252
O O4 0.855704 0.986198 0.994970
O O5 0.348648 0.672265 0.706288
O O6 0.284592 0.799075 0.769073
O O7 0.247207 0.695083 0.677205
O O8 0.375905 0.751811 0.489580
O O9 0.293496 0.371599 0.474336
O O10 0.288083 0.448048 0.279199
O O11 0.842624 0.152007 0.135763
O O12 0.744982 0.061481 0.215531
O O13 0.773701 0.567189 0.850583
O O14 0.862596 0.664580 0.832532
O O15 0.718912 0.654965 0.076601
O O16 0.912776 0.787479 0.732975
O O17 0.000000 0.298799 0.250000
#
# Coordination Sequence:
#
# PCOD9255669 Si02
#       8
#     8   8   8   8   8   8   8   8
#     4  10  20  34  50  72 109 145 169 203 250 298
#     4  10  19  35  53  74 104 135 174 214 249 303
#     4  10  21  33  45  77 104 138 177 206 247 297
#     4  11  18  32  56  74 101 135 173 213 250 299
#     4   9  17  34  55  74 102 129 171 222 249 288
#     4   9  20  34  52  77 102 130 181 216 242 301
#     4  10  17  32  52  78 102 133 177 205 245 298
#     4  11  20  33  56  80 101 130 170 218 264 299
#
# _framework density 16.562201000000002
#
# number of rings (size 3 to 8) (size 9 to 14) (size 15 to 20)
#    0.000    2.000    3.750    2.250    0.000    0.500 
#    4.500    0.000    0.000    0.750    0.000    0.875 
#    0.000    0.000    0.000    0.000    0.000    0.000 
#
# Total GULP energy -178458.919063 kJ/mol
# GULP energy per Si atom -5576.841221 kJ/mol
# Density = 1.652450 g / cm^3
# Si number density = 16.562201 Si / 1000 Ang^3
#
#
#
# Elastic Constant Matrix: (Units=GPa)
#
#
# Indices 1 2 3 4 5 6 
#
# 1 104.8829 42.4893 37.4356 0.0000 -7.1260 0.0000
# 2 42.4893 101.2285 21.7078 0.0000 -7.2794 0.0000
# 3 37.4356 21.7078 32.0151 0.0000 10.5412 0.0000
# 4 0.0000 0.0000 0.0000 0.1899 0.0000 11.9801
# 5 -7.1260 -7.2794 10.5412 0.0000 28.7125 0.0000
# 6 0.0000 0.0000 0.0000 11.9801 0.0000 26.5944
#
#
#
# Elastic Compliance Matrix: (Units=1/GPa)
#
#
# Indices 1 2 3 4 5 6 
#
# 1 0.021901 -0.001676 -0.029714 0.000000 0.015919 0.000000
# 2 -0.001676 0.012905 -0.008794 0.000000 0.006085 0.000000
# 3 -0.029714 -0.008794 0.085433 0.000000 -0.040969 0.000000
# 4 0.000000 0.000000 0.000000 -0.192058 0.000000 0.086517
# 5 0.015919 0.006085 -0.040969 0.000000 0.055363 0.000000
# 6 0.000000 0.000000 0.000000 0.086517 0.000000 -0.001372
#
#
# Mechanical properties :
#
#
# Convention : Reuss Voigt Hill
#
# Bulk Modulus (GPa) = 25.08136 49.04355 37.06245
# Shear Modulus (GPa) = 65.93607 20.19895 43.06751
#
# Velocity S-wave (km/s) = 6.31646 3.49604 5.10489
# Velocity P-wave (km/s) = 8.26882 6.78030 7.56128
#
# Compressibility (1/GPa) = 0.03987024
#
# Stress axis : x y z
#
# Youngs Moduli (GPa) = 45.66064 77.48640 11.70512
#
# Poissons Ratio (x) = 0.12985 0.34781
# Poissons Ratio (y) = 0.07652 0.10294
# Poissons Ratio (z) = 1.35676 0.68145
#
# Static dielectric constant tensor:
#      x y z
#    x 1.557310 0.000000 0.031700 
#    y 0.000000 1.587890 0.000000 
#    z 0.031700 0.000000 1.556280 
# 
# From -- ./inp_files/119237.got.cif
#   From: 2010.05.17/outbox.cif.g08.bks.cpg/sg15_60_cif.got.tgz:119237.got - 2010.06.03 18:47:42.
