data_PCOD9255764
_publ_section_title
;
Structure prediction by ZEFSAII (Michael W. Deem and Ramdas Pophale) SiO2 
 PCOD9255764
Probable space group: C 2/C
;
_chemical_formula_sum "Si O2"
_cell_formula_units_Z 32
_cell_length_a 26.370010
_cell_length_b 9.330859
_cell_length_c 13.863098
_cell_angle_alpha 90.000000
_cell_angle_beta 158.877709
_cell_angle_gamma 90.000000
_cell_volume 1229.216804
_symmetry_space_group_name_H-M "C 2/C"
_symmetry_group_IT_number 15
_symmetry_cell_setting 'monoclinic'
loop_
_space_group_symop_operation_xyz
x,y,z
-x,y,1/2-z
-x,-y,-z
x,-y,1/2+z
1/2+x,1/2+y,z
1/2-x,1/2+y,1/2-z
1/2-x,1/2-y,-z
1/2+x,1/2-y,1/2+z
loop_
_atom_site_type_symbol
_atom_site_label
_atom_site_fract_x
_atom_site_fract_y
_atom_site_fract_z
Si Si1 0.500000 0.472715 0.250000
Si Si2 0.524735 0.155351 0.112679
Si Si3 0.197774 0.949056 0.447117
Si Si4 0.500000 0.051975 0.750000
Si Si5 0.797863 0.857093 0.728840
O O1 0.604152 0.541301 0.355323
O O2 0.614104 0.389093 0.517952
O O3 0.636004 0.076294 0.239971
O O4 0.619836 0.294772 0.310629
O O5 0.495759 0.056034 0.152461
O O6 0.377218 0.224629 0.818708
O O7 0.187334 0.013801 0.321464
O O8 0.362051 0.146706 0.521254
#
# Coordination Sequence:
#
# PCOD9255764 Si02
#       5
#     4   8   8   4   8
#     4  10  17  32  57  82 114 160 199 238 297 352
#     4   9  16  32  56  83 117 153 189 239 294 343
#     4   9  18  31  56  89 117 152 200 244 291 352
#     4  10  21  36  59  90 122 156 197 244 295 352
#     4  10  20  36  59  90 122 155 199 247 293 353
#
# _framework density 26.032836
#
# number of rings (size 3 to 8) (size 9 to 14) (size 15 to 20)
#    0.000    2.500    0.000    6.000    0.000    0.000 
#    0.000    6.250    0.000    7.500    0.000    0.000 
#    0.000    0.000    0.000    0.000    0.000    0.000 
#
# Total GULP energy -89378.961032 kJ/mol
# GULP energy per Si atom -5586.185064 kJ/mol
# Density = 2.597358 g / cm^3
# Si number density = 26.032836 Si / 1000 Ang^3
#
#
#
# Elastic Constant Matrix: (Units=GPa)
#
#
# Indices 1 2 3 4 5 6 
#
# 1 157.0887 46.6663 89.1230 0.0000 37.4683 0.0000
# 2 46.6663 119.6435 65.0513 0.0000 3.3495 0.0000
# 3 89.1230 65.0513 201.0395 0.0000 62.5521 0.0000
# 4 0.0000 0.0000 0.0000 29.8126 0.0000 9.1725
# 5 37.4683 3.3495 62.5521 0.0000 71.4660 0.0000
# 6 0.0000 0.0000 0.0000 9.1725 0.0000 19.7456
#
#
#
# Elastic Compliance Matrix: (Units=1/GPa)
#
#
# Indices 1 2 3 4 5 6 
#
# 1 0.009007 -0.002031 -0.002606 0.000000 -0.002346 0.000000
# 2 -0.002031 0.011198 -0.003973 0.000000 0.004017 0.000000
# 3 -0.002606 -0.003973 0.009526 0.000000 -0.006786 0.000000
# 4 0.000000 0.000000 0.000000 0.039136 0.000000 -0.018180
# 5 -0.002346 0.004017 -0.006786 0.000000 0.020974 0.000000
# 6 0.000000 0.000000 0.000000 -0.018180 0.000000 0.059090
#
#
# Mechanical properties :
#
#
# Convention : Reuss Voigt Hill
#
# Bulk Modulus (GPa) = 79.92313 97.71698 88.82006
# Shear Modulus (GPa) = 29.35632 42.66692 36.01162
#
# Velocity S-wave (km/s) = 3.36172 4.05281 3.72333
# Velocity P-wave (km/s) = 6.77021 7.71478 7.25788
#
# Compressibility (1/GPa) = 0.01251202
#
# Stress axis : x y z
#
# Youngs Moduli (GPa) = 111.02340 89.30180 104.97285
#
# Poissons Ratio (x) = 0.18134 0.27354
# Poissons Ratio (y) = 0.22545 0.41707
# Poissons Ratio (z) = 0.28931 0.35481
#
# Static dielectric constant tensor:
#      x y z
#    x 2.044360 0.000000 0.045780 
#    y 0.000000 2.096030 0.000000 
#    z 0.045780 0.000000 2.064010 
# 
# From -- ./inp_files/140746.got.cif
#   From: 2010.05.17/outbox.cif.g08.bks.cpg/sg15_71_cif.got.tgz:140746.got - 2010.06.03 18:47:42.
