data_PCOD9255947
_publ_section_title
;
Structure prediction by ZEFSAII (Michael W. Deem and Ramdas Pophale) SiO2 
 PCOD9255947
Probable space group: C 2/C
;
_chemical_formula_sum "Si O2"
_cell_formula_units_Z 40
_cell_length_a 17.529353
_cell_length_b 14.561823
_cell_length_c 8.796021
_cell_angle_alpha 90.000000
_cell_angle_beta 52.127227
_cell_angle_gamma 90.000000
_cell_volume 1772.359256
_symmetry_space_group_name_H-M "C 2/C"
_symmetry_group_IT_number 15
_symmetry_cell_setting 'monoclinic'
loop_
_space_group_symop_operation_xyz
x,y,z
-x,y,1/2-z
-x,-y,-z
x,-y,1/2+z
1/2+x,1/2+y,z
1/2-x,1/2+y,1/2-z
1/2-x,1/2-y,-z
1/2+x,1/2-y,1/2+z
loop_
_atom_site_type_symbol
_atom_site_label
_atom_site_fract_x
_atom_site_fract_y
_atom_site_fract_z
Si Si1 0.845593 0.548712 0.755558
Si Si2 0.000000 0.663835 0.750000
Si Si3 0.632605 0.160961 0.333359
Si Si4 0.293715 0.533570 0.819852
Si Si5 0.147464 0.128372 0.461713
Si Si6 0.500000 0.244526 0.250000
O O1 0.878224 0.450246 0.648257
O O2 0.777587 0.588695 0.705935
O O3 0.933082 0.606362 0.714380
O O4 0.774614 0.523817 0.981565
O O5 0.079142 0.708088 0.541136
O O6 0.747649 0.174743 0.190355
O O7 0.580105 0.188256 0.242712
O O8 0.352434 0.461010 0.646108
O O9 0.354103 0.596132 0.859765
O O10 0.058515 0.195588 0.555330
#
# Coordination Sequence:
#
# PCOD9255947 Si02
#       6
#     8   4   8   8   8   4
#     4  10  17  33  58  90 118 143 182 253 289 335
#     4  12  19  32  56  91 118 148 194 238 302 329
#     4  10  23  36  55  90 118 152 193 229 292 358
#     4   8  18  35  60  88 108 143 193 246 294 311
#     4  10  21  42  61  88 114 149 198 248 283 343
#     4  12  25  40  60  77 124 170 190 220 292 361
#
# _framework density 22.568787
#
# number of rings (size 3 to 8) (size 9 to 14) (size 15 to 20)
#    0.000    2.400    4.000    1.800    5.600    0.800 
#    0.000    5.000    0.000    0.000    0.000    0.000 
#    0.000    0.000    0.000    0.000    0.000    0.000 
#
# Total GULP energy -111605.152018 kJ/mol
# GULP energy per Si atom -5580.257601 kJ/mol
# Density = 2.251742 g / cm^3
# Si number density = 22.568787 Si / 1000 Ang^3
#
#
#
# Elastic Constant Matrix: (Units=GPa)
#
#
# Indices 1 2 3 4 5 6 
#
# 1 41.8959 14.3663 15.7476 0.0000 10.6577 0.0000
# 2 14.3663 25.8383 2.2576 0.0000 -2.3152 0.0000
# 3 15.7476 2.2576 83.3942 0.0000 6.8590 0.0000
# 4 0.0000 0.0000 0.0000 1.5723 0.0000 -10.6646
# 5 10.6577 -2.3152 6.8590 0.0000 41.5200 0.0000
# 6 0.0000 0.0000 0.0000 -10.6646 0.0000 17.0042
#
#
#
# Elastic Compliance Matrix: (Units=1/GPa)
#
#
# Indices 1 2 3 4 5 6 
#
# 1 0.035009 -0.019827 -0.005316 0.000000 -0.009214 0.000000
# 2 -0.019827 0.050253 0.001758 0.000000 0.007601 0.000000
# 3 -0.005316 0.001758 0.013004 0.000000 -0.000686 0.000000
# 4 0.000000 0.000000 0.000000 -0.195453 0.000000 -0.122583
# 5 -0.009214 0.007601 -0.000686 0.000000 0.026987 0.000000
# 6 0.000000 0.000000 0.000000 -0.122583 0.000000 -0.018072
#
#
# Mechanical properties :
#
#
# Convention : Reuss Voigt Hill
#
# Bulk Modulus (GPa) = 19.41843 23.98571 21.70207
# Shear Modulus (GPa) = -205.45205 19.93640 -92.75783
#
# Velocity S-wave (km/s) = -9.55151 2.97536 -6.41789
# Velocity P-wave (km/s) = 10.63104 4.73863 6.72920
#
# Compressibility (1/GPa) = 0.05149747
#
# Stress axis : x y z
#
# Youngs Moduli (GPa) = 28.56370 19.89917 76.89973
#
# Poissons Ratio (x) = 0.39453 0.40883
# Poissons Ratio (y) = 0.56632 -0.13521
# Poissons Ratio (z) = 0.15186 -0.03499
#
# Static dielectric constant tensor:
#      x y z
#    x 1.836490 0.000000 0.027190 
#    y 0.000000 1.873850 0.000000 
#    z 0.027190 0.000000 1.871180 
# 
# From -- ./inp_files/48312.got.cif
#   From: 2010.05.17/outbox.cif.g08.bks.cpg/sg15_25_cif.got.tgz:48312.got - 2010.06.03 18:47:42.
