data_PCOD9255992
_publ_section_title
;
Structure prediction by ZEFSAII (Michael W. Deem and Ramdas Pophale) SiO2 
 PCOD9255992
Probable space group: C 2/C
;
_chemical_formula_sum "Si O2"
_cell_formula_units_Z 40
_cell_length_a 7.452829
_cell_length_b 18.668235
_cell_length_c 12.786651
_cell_angle_alpha 90.000000
_cell_angle_beta 97.973577
_cell_angle_gamma 90.000000
_cell_volume 1761.822305
_symmetry_space_group_name_H-M "C 2/C"
_symmetry_group_IT_number 15
_symmetry_cell_setting 'monoclinic'
loop_
_space_group_symop_operation_xyz
x,y,z
-x,y,1/2-z
-x,-y,-z
x,-y,1/2+z
1/2+x,1/2+y,z
1/2-x,1/2+y,1/2-z
1/2-x,1/2-y,-z
1/2+x,1/2-y,1/2+z
loop_
_atom_site_type_symbol
_atom_site_label
_atom_site_fract_x
_atom_site_fract_y
_atom_site_fract_z
Si Si1 0.832650 0.095066 0.017018
Si Si2 0.783039 0.880212 0.736522
Si Si3 0.203108 0.954658 0.217316
Si Si4 0.333530 0.955491 0.442526
Si Si5 0.283917 0.676920 0.443674
O O1 0.775399 0.085677 0.891187
O O2 0.722674 0.124324 0.110816
O O3 0.010951 0.144785 0.031119
O O4 0.836704 0.010626 0.053728
O O5 0.723427 0.823151 0.817496
O O6 0.000000 0.874003 0.750000
O O7 0.755926 0.959512 0.784895
O O8 0.335769 0.933650 0.322166
O O9 0.000000 0.943718 0.250000
O O10 0.323023 0.884586 0.506497
O O11 0.500000 0.000000 0.500000
O O12 0.250000 0.750000 0.500000
#
# Coordination Sequence:
#
# PCOD9255992 Si02
#       5
#     8   8   8   8   8
#     4  10  19  39  68  91 130 178 230 273 335 414
#     4   8  17  30  60  96 118 163 219 277 324 389
#     4  10  17  33  69  97 123 171 233 279 333 410
#     4  11  23  38  66 104 134 168 228 291 337 405
#     4  11  21  39  68  96 131 178 230 276 342 424
#
# _framework density 22.703765000000001
#
# number of rings (size 3 to 8) (size 9 to 14) (size 15 to 20)
#    0.000    2.000    4.000    1.800    0.000    0.800 
#    0.000    1.000   30.800    0.000    0.000    0.000 
#    0.000    0.000    0.000    0.000    0.000    0.000 
#
# Total GULP energy -111406.146239 kJ/mol
# GULP energy per Si atom -5570.307312 kJ/mol
# Density = 2.265209 g / cm^3
# Si number density = 22.703765 Si / 1000 Ang^3
#
#
#
# Elastic Constant Matrix: (Units=GPa)
#
#
# Indices 1 2 3 4 5 6 
#
# 1 60.8506 47.6198 59.0659 0.0000 8.3926 0.0000
# 2 47.6198 106.5359 55.9788 0.0000 -23.0124 0.0000
# 3 59.0659 55.9788 277.1262 0.0000 -6.6776 0.0000
# 4 0.0000 0.0000 0.0000 33.9767 0.0000 -7.0703
# 5 8.3926 -23.0124 -6.6776 0.0000 21.1023 0.0000
# 6 0.0000 0.0000 0.0000 -7.0703 0.0000 5.3576
#
#
#
# Elastic Compliance Matrix: (Units=1/GPa)
#
#
# Indices 1 2 3 4 5 6 
#
# 1 0.067569 -0.042538 -0.007632 0.000000 -0.075677 0.000000
# 2 -0.042538 0.040513 0.002373 0.000000 0.061849 0.000000
# 3 -0.007632 0.002373 0.004929 0.000000 0.007183 0.000000
# 4 0.000000 0.000000 0.000000 0.040574 0.000000 0.053545
# 5 -0.075677 0.061849 0.007183 0.000000 0.147206 0.000000
# 6 0.000000 0.000000 0.000000 0.053545 0.000000 0.257311
#
#
# Mechanical properties :
#
#
# Convention : Reuss Voigt Hill
#
# Bulk Modulus (GPa) = 57.41817 85.53795 71.47806
# Shear Modulus (GPa) = 7.58147 30.87720 19.22933
#
# Velocity S-wave (km/s) = 1.82936 3.69182 2.91343
# Velocity P-wave (km/s) = 5.45959 7.47865 6.54742
#
# Compressibility (1/GPa) = 0.01741609
#
# Stress axis : x y z
#
# Youngs Moduli (GPa) = 14.79972 24.68324 202.88600
#
# Poissons Ratio (x) = 1.04999 1.54848
# Poissons Ratio (y) = 0.62956 -0.48150
# Poissons Ratio (z) = 0.11296 -0.05858
#
# Static dielectric constant tensor:
#      x y z
#    x 2.026110 0.000000 -0.002450 
#    y 0.000000 1.788390 0.000000 
#    z -0.002450 0.000000 2.001770 
# 
# From -- ./inp_files/77815.got.cif
#   From: 2010.05.17/outbox.cif.g08.bks.cpg/sg15_39_cif.got.tgz:77815.got - 2010.06.03 18:47:42.
