data_PCOD9255022
_publ_section_title
;
Structure prediction by ZEFSAII (Michael W. Deem and Ramdas Pophale) SiO2 
 PCOD9255022
Probable space group: C 2/C
;
_chemical_formula_sum "Si O2"
_cell_formula_units_Z 56
_cell_length_a 19.296062
_cell_length_b 7.030449
_cell_length_c 17.078270
_cell_angle_alpha 90.000000
_cell_angle_beta 99.619229
_cell_angle_gamma 90.000000
_cell_volume 2284.263053
_symmetry_space_group_name_H-M "C 2/C"
_symmetry_group_IT_number 15
_symmetry_cell_setting 'monoclinic'
loop_
_space_group_symop_operation_xyz
x,y,z
-x,y,1/2-z
-x,-y,-z
x,-y,1/2+z
1/2+x,1/2+y,z
1/2-x,1/2+y,1/2-z
1/2-x,1/2-y,-z
1/2+x,1/2-y,1/2+z
loop_
_atom_site_type_symbol
_atom_site_label
_atom_site_fract_x
_atom_site_fract_y
_atom_site_fract_z
Si Si1 0.915173 0.184315 0.514977
Si Si2 0.064846 0.726856 0.008380
Si Si3 0.797761 0.116236 0.377108
Si Si4 0.805138 0.871040 0.703719
Si Si5 0.805597 0.385490 0.059757
Si Si6 0.419439 0.698279 0.702185
Si Si7 0.153624 0.684439 0.167315
O O1 0.851163 0.220232 0.444401
O O2 0.981973 0.282946 0.487248
O O3 0.920813 0.951041 0.509358
O O4 0.916920 0.226357 0.608221
O O5 0.086558 0.668313 0.099747
O O6 0.120751 0.607810 0.969863
O O7 0.792455 0.199796 0.289477
O O8 0.731426 0.078708 0.420457
O O9 0.822012 0.900453 0.354683
O O10 0.822884 0.713964 0.644384
O O11 0.869918 0.014661 0.709188
O O12 0.725210 0.930533 0.664403
O O13 0.750000 0.250000 0.000000
O O14 0.500000 0.679380 0.750000
O O15 0.376475 0.841456 0.751036
#
# Coordination Sequence:
#
# PCOD9255022 Si02
#       7
#     8   8   8   8   8   8   8
#     4  10  18  29  45  75 109 134 164 217 274 311
#     4  10  17  27  46  72 106 136 167 213 260 323
#     4   9  19  30  47  73 103 140 173 214 263 319
#     4  10  19  30  46  72 109 140 167 220 260 315
#     4  11  16  30  49  71 103 145 180 207 264 326
#     4  11  19  30  50  80 104 135 171 221 271 310
#     4   9  18  31  45  71 108 135 177 206 264 315
#
# _framework density 24.515566
#
# number of rings (size 3 to 8) (size 9 to 14) (size 15 to 20)
#    0.000    2.000    7.143    0.000    2.000    0.000 
#    0.000    0.714    0.000    0.000    0.000   16.000 
#    0.000    0.000    0.000    0.000    0.000    0.000 
#
# Total GULP energy -156147.614833 kJ/mol
# GULP energy per Si atom -5576.700530 kJ/mol
# Density = 2.445977 g / cm^3
# Si number density = 24.515566 Si / 1000 Ang^3
#
#
#
# Elastic Constant Matrix: (Units=GPa)
#
#
# Indices 1 2 3 4 5 6 
#
# 1 174.9069 14.7031 51.4129 0.0000 -8.3917 0.0000
# 2 14.7031 55.1047 17.0531 0.0000 0.7308 0.0000
# 3 51.4129 17.0531 163.8586 0.0000 -13.7474 0.0000
# 4 0.0000 0.0000 0.0000 23.2015 0.0000 1.0896
# 5 -8.3917 0.7308 -13.7474 0.0000 40.2677 0.0000
# 6 0.0000 0.0000 0.0000 1.0896 0.0000 32.6977
#
#
#
# Elastic Compliance Matrix: (Units=1/GPa)
#
#
# Indices 1 2 3 4 5 6 
#
# 1 0.006385 -0.001149 -0.001822 0.000000 0.000729 0.000000
# 2 -0.001149 0.019000 -0.001715 0.000000 -0.001170 0.000000
# 3 -0.001822 -0.001715 0.007025 0.000000 0.002050 0.000000
# 4 0.000000 0.000000 0.000000 0.043168 0.000000 -0.001438
# 5 0.000729 -0.001170 0.002050 0.000000 0.025707 0.000000
# 6 0.000000 0.000000 0.000000 -0.001438 0.000000 0.030631
#
#
# Mechanical properties :
#
#
# Convention : Reuss Voigt Hill
#
# Bulk Modulus (GPa) = 43.40925 62.24537 52.82731
# Shear Modulus (GPa) = 33.56424 39.94679 36.75551
#
# Velocity S-wave (km/s) = 3.70415 4.04102 3.87624
# Velocity P-wave (km/s) = 6.00329 6.87156 6.45205
#
# Compressibility (1/GPa) = 0.02303656
#
# Stress axis : x y z
#
# Youngs Moduli (GPa) = 156.62618 52.63120 142.34685
#
# Poissons Ratio (x) = 0.06048 0.25943
# Poissons Ratio (y) = 0.18000 0.24412
# Poissons Ratio (z) = 0.28545 0.09026
#
# Static dielectric constant tensor:
#      x y z
#    x 1.941750 0.000000 -0.015170 
#    y 0.000000 2.106550 0.000000 
#    z -0.015170 0.000000 1.961520 
# 
# From -- ./inp_files/210007.got.cif
#   From: 2010.05.17/outbox.cif.g08.bks.cpg/sg15_106_cif.got.tgz:210007.got - 2010.06.03 18:47:42.
