data_PCOD9255004
_publ_section_title
;
Structure prediction by ZEFSAII (Michael W. Deem and Ramdas Pophale) SiO2 
 PCOD9255004
Probable space group: C 2/C
;
_chemical_formula_sum "Si O2"
_cell_formula_units_Z 56
_cell_length_a 5.554505
_cell_length_b 23.809395
_cell_length_c 20.204668
_cell_angle_alpha 90.000000
_cell_angle_beta 74.043245
_cell_angle_gamma 90.000000
_cell_volume 2569.099571
_symmetry_space_group_name_H-M "C 2/C"
_symmetry_group_IT_number 15
_symmetry_cell_setting 'monoclinic'
loop_
_space_group_symop_operation_xyz
x,y,z
-x,y,1/2-z
-x,-y,-z
x,-y,1/2+z
1/2+x,1/2+y,z
1/2-x,1/2+y,1/2-z
1/2-x,1/2-y,-z
1/2+x,1/2-y,1/2+z
loop_
_atom_site_type_symbol
_atom_site_label
_atom_site_fract_x
_atom_site_fract_y
_atom_site_fract_z
Si Si1 0.417705 0.142907 0.082295
Si Si2 0.341954 0.645702 0.158046
Si Si3 0.077657 0.974584 0.422343
Si Si4 0.096172 0.740619 0.903828
Si Si5 0.042607 0.440731 0.457393
Si Si6 0.557730 0.723523 0.942270
Si Si7 0.282234 0.537480 0.217766
O O1 0.628528 0.130025 0.120697
O O2 0.428709 0.209519 0.071291
O O3 0.130078 0.130025 0.120697
O O4 0.487664 0.108647 0.012336
O O5 0.342042 0.713975 0.157958
O O6 0.276196 0.605519 0.223804
O O7 0.332755 0.940860 0.416675
O O8 0.833895 0.940860 0.416675
O O9 0.137633 0.020446 0.362367
O O10 0.000000 0.000000 0.500000
O O11 0.335876 0.705517 0.910166
O O12 0.843791 0.705517 0.910166
O O13 0.025389 0.779467 0.974611
O O14 0.000000 0.500000 0.500000
O O15 0.500000 0.516520 0.250000
O O16 0.000000 0.516520 0.250000
#
# Coordination Sequence:
#
# PCOD9255004 Si02
#       7
#     8   8   8   8   8   8   8
#     4  10  17  27  46  70  96 125 160 201 246 293
#     4  10  18  30  45  64  93 131 161 190 241 299
#     4  10  20  34  51  68  92 125 163 201 244 296
#     4   8  14  24  39  58  87 124 153 177 218 279
#     4  10  17  27  44  66  90 120 160 199 238 288
#     4   8  14  23  37  62  91 119 150 185 227 270
#     4  12  24  37  51  72 101 130 165 207 251 299
#
# _framework density 21.797521
#
# number of rings (size 3 to 8) (size 9 to 14) (size 15 to 20)
#    0.000    2.286    0.000    6.000    0.000    0.000 
#    0.000    0.000    0.000    0.000    0.000    0.000 
#    0.000    6.857    0.000    0.000    0.000    0.000 
#
# Total GULP energy -156095.720754 kJ/mol
# GULP energy per Si atom -5574.847170 kJ/mol
# Density = 2.174791 g / cm^3
# Si number density = 21.797521 Si / 1000 Ang^3
#
#
#
# Elastic Constant Matrix: (Units=GPa)
#
#
# Indices 1 2 3 4 5 6 
#
# 1 260.7773 18.9360 28.4173 0.0000 -0.7023 0.0000
# 2 18.9360 39.6944 13.7949 0.0000 -0.0212 0.0000
# 3 28.4173 13.7949 56.5216 0.0000 -0.1405 0.0000
# 4 0.0000 0.0000 0.0000 25.1807 0.0000 0.0408
# 5 -0.7023 -0.0212 -0.1405 0.0000 31.0769 0.0000
# 6 0.0000 0.0000 0.0000 0.0408 0.0000 15.2909
#
#
#
# Elastic Compliance Matrix: (Units=1/GPa)
#
#
# Indices 1 2 3 4 5 6 
#
# 1 0.004123 -0.001362 -0.001740 0.000000 0.000084 0.000000
# 2 -0.001362 0.027977 -0.006143 0.000000 -0.000039 0.000000
# 3 -0.001740 -0.006143 0.020067 0.000000 0.000047 0.000000
# 4 0.000000 0.000000 0.000000 0.039713 0.000000 -0.000106
# 5 0.000084 -0.000039 0.000047 0.000000 0.032180 0.000000
# 6 0.000000 0.000000 0.000000 -0.000106 0.000000 0.065398
#
#
# Mechanical properties :
#
#
# Convention : Reuss Voigt Hill
#
# Bulk Modulus (GPa) = 29.69525 53.25441 41.47483
# Shear Modulus (GPa) = 22.81260 34.03271 28.42266
#
# Velocity S-wave (km/s) = 3.23858 3.95563 3.61493
# Velocity P-wave (km/s) = 5.25712 6.73403 6.04088
#
# Compressibility (1/GPa) = 0.03367542
#
# Stress axis : x y z
#
# Youngs Moduli (GPa) = 242.51278 35.74330 49.83320
#
# Poissons Ratio (x) = 0.04869 0.08673
# Poissons Ratio (y) = 0.33035 0.30615
# Poissons Ratio (z) = 0.42209 0.21959
#
# Static dielectric constant tensor:
#      x y z
#    x 1.930480 0.000000 -0.000530 
#    y 0.000000 1.783870 0.000000 
#    z -0.000530 0.000000 1.801200 
# 
# From -- ./inp_files/186497.got.cif
#   From: 2010.05.17/outbox.cif.g08.bks.cpg/sg15_94_cif.got.tgz:186497.got - 2010.06.03 18:47:42.
