data_PCOD9255055
_publ_section_title
;
Structure prediction by ZEFSAII (Michael W. Deem and Ramdas Pophale) SiO2 
 PCOD9255055
Probable space group: C 2/C
;
_chemical_formula_sum "Si O2"
_cell_formula_units_Z 44
_cell_length_a 24.761201
_cell_length_b 20.758420
_cell_length_c 5.035327
_cell_angle_alpha 90.000000
_cell_angle_beta 70.635030
_cell_angle_gamma 90.000000
_cell_volume 2441.750687
_symmetry_space_group_name_H-M "C 2/C"
_symmetry_group_IT_number 15
_symmetry_cell_setting 'monoclinic'
loop_
_space_group_symop_operation_xyz
x,y,z
-x,y,1/2-z
-x,-y,-z
x,-y,1/2+z
1/2+x,1/2+y,z
1/2-x,1/2+y,1/2-z
1/2-x,1/2-y,-z
1/2+x,1/2-y,1/2+z
loop_
_atom_site_type_symbol
_atom_site_label
_atom_site_fract_x
_atom_site_fract_y
_atom_site_fract_z
Si Si1 0.678376 0.665900 0.557297
Si Si2 0.562740 0.207446 0.572842
Si Si3 0.445239 0.647900 0.646459
Si Si4 0.861996 0.306978 0.026859
Si Si5 0.500000 0.453420 0.750000
Si Si6 0.248224 0.827764 0.456838
O O1 0.615486 0.637479 0.613213
O O2 0.668324 0.742706 0.538239
O O3 0.700255 0.656628 0.818111
O O4 0.726751 0.644822 0.271123
O O5 0.500000 0.181509 0.750000
O O6 0.554096 0.279603 0.469633
O O7 0.598719 0.210860 0.785317
O O8 0.598160 0.170726 0.283233
O O9 0.500000 0.640428 0.750000
O O10 0.449828 0.597059 0.399882
O O11 0.809528 0.347308 0.235964
O O12 0.500000 0.500000 0.500000
O O13 0.250000 0.750000 0.500000
#
# Coordination Sequence:
#
# PCOD9255055 Si02
#       6
#     8   8   8   8   4   8
#     4  10  19  27  44  60  76 103 130 163 207 259
#     4  11  19  28  43  63  80 110 140 175 207 248
#     4  11  22  34  50  62  82  99 138 179 226 277
#     4  10  18  27  40  58  86 107 131 166 206 243
#     4  12  26  38  50  62  80 104 132 178 242 288
#     4  10  17  28  39  59  82 105 129 156 203 255
#
# _framework density 18.019860000000001
#
# number of rings (size 3 to 8) (size 9 to 14) (size 15 to 20)
#    0.000    1.455    1.818   10.364    2.545    0.000 
#    0.000    0.000    0.000    0.000    0.000    0.000 
#    0.000    0.000    0.000    0.000    0.000    0.000 
#
# Total GULP energy -122557.772040 kJ/mol
# GULP energy per Si atom -5570.807820 kJ/mol
# Density = 1.797885 g / cm^3
# Si number density = 18.019860 Si / 1000 Ang^3
#
#
#
# Elastic Constant Matrix: (Units=GPa)
#
#
# Indices 1 2 3 4 5 6 
#
# 1 76.3425 3.3493 21.6764 0.0000 -3.2582 0.0000
# 2 3.3493 8.7748 4.4905 0.0000 -3.1082 0.0000
# 3 21.6764 4.4905 126.8985 0.0000 -21.1653 0.0000
# 4 0.0000 0.0000 0.0000 17.0459 0.0000 0.1717
# 5 -3.2582 -3.1082 -21.1653 0.0000 53.5835 0.0000
# 6 0.0000 0.0000 0.0000 0.1717 0.0000 0.0492
#
#
#
# Elastic Compliance Matrix: (Units=1/GPa)
#
#
# Indices 1 2 3 4 5 6 
#
# 1 0.013919 -0.004254 -0.002277 0.000000 -0.000300 0.000000
# 2 -0.004254 0.118882 -0.002541 0.000000 0.005634 0.000000
# 3 -0.002277 -0.002541 0.008898 0.000000 0.003229 0.000000
# 4 0.000000 0.000000 0.000000 0.060801 0.000000 -0.212045
# 5 -0.000300 0.005634 0.003229 0.000000 0.020246 0.000000
# 6 0.000000 0.000000 0.000000 -0.212045 0.000000 21.049542
#
#
# Mechanical properties :
#
#
# Convention : Reuss Voigt Hill
#
# Bulk Modulus (GPa) = 8.09349 30.11647 19.10498
# Shear Modulus (GPa) = 0.23439 26.30235 13.26837
#
# Velocity S-wave (km/s) = 0.36105 3.82466 2.71646
# Velocity P-wave (km/s) = 2.16217 6.02106 4.52373
#
# Compressibility (1/GPa) = 0.12355604
#
# Stress axis : x y z
#
# Youngs Moduli (GPa) = 71.84291 8.41170 112.38858
#
# Poissons Ratio (x) = 0.03578 0.25592
# Poissons Ratio (y) = 0.30561 0.28553
# Poissons Ratio (z) = 0.16360 0.02137
#
# Static dielectric constant tensor:
#      x y z
#    x 1.663010 0.000000 -0.046360 
#    y 0.000000 1.603030 0.000000 
#    z -0.046360 0.000000 1.719070 
# 
# From -- ./inp_files/13163.got.cif
#   From: 2010.05.17/outbox.cif.g08.bks.cpg/sg15_7_cif.got.tgz:13163.got - 2010.06.03 18:47:42.
