data_PCOD9255521
_publ_section_title
;
Structure prediction by ZEFSAII (Michael W. Deem and Ramdas Pophale) SiO2 
 PCOD9255521
Probable space group: C 2/C
;
_chemical_formula_sum "Si O2"
_cell_formula_units_Z 60
_cell_length_a 19.322783
_cell_length_b 8.319206
_cell_length_c 18.911123
_cell_angle_alpha 90.000000
_cell_angle_beta 105.298653
_cell_angle_gamma 90.000000
_cell_volume 2932.241615
_symmetry_space_group_name_H-M "C 2/C"
_symmetry_group_IT_number 15
_symmetry_cell_setting 'monoclinic'
loop_
_space_group_symop_operation_xyz
x,y,z
-x,y,1/2-z
-x,-y,-z
x,-y,1/2+z
1/2+x,1/2+y,z
1/2-x,1/2+y,1/2-z
1/2-x,1/2-y,-z
1/2+x,1/2-y,1/2+z
loop_
_atom_site_type_symbol
_atom_site_label
_atom_site_fract_x
_atom_site_fract_y
_atom_site_fract_z
Si Si1 0.614756 0.122219 0.119189
Si Si2 0.500000 0.826912 0.250000
Si Si3 0.426029 0.420975 0.829403
Si Si4 0.635137 0.219311 0.554063
Si Si5 0.487868 0.633783 0.557378
Si Si6 0.786940 0.125012 0.796681
Si Si7 0.272132 0.807919 0.654668
Si Si8 0.575861 0.125343 0.273693
O O1 0.550325 0.231890 0.072069
O O2 0.686003 0.232346 0.144911
O O3 0.597659 0.088482 0.197819
O O4 0.623435 0.964131 0.074716
O O5 0.549561 0.713284 0.217618
O O6 0.552068 0.955999 0.302835
O O7 0.396077 0.328210 0.890137
O O8 0.494165 0.530563 0.868337
O O9 0.360410 0.463177 0.290980
O O10 0.587475 0.278108 0.475473
O O11 0.719550 0.259291 0.577692
O O12 0.500000 0.500000 0.500000
O O13 0.750849 0.199580 0.717516
O O14 0.741771 0.991818 0.825170
O O15 0.357345 0.794591 0.670409
O O16 0.500000 0.217227 0.250000
#
# Coordination Sequence:
#
# PCOD9255521 Si02
#       8
#     8   4   8   8   8   8   8   8
#     4  10  17  33  51  81 104 138 176 215 261 308
#     4  10  18  34  54  76 104 140 174 212 262 314
#     4   9  18  33  50  79 103 135 175 213 257 310
#     4  10  17  31  53  76 108 135 171 216 266 306
#     4   9  19  32  50  78 109 137 174 219 259 305
#     4   9  19  28  48  75 107 131 167 220 269 307
#     4  10  18  31  49  75 108 137 169 220 265 314
#     4   9  19  32  51  77 104 140 172 211 260 313
#
# _framework density 20.462160000000001
#
# number of rings (size 3 to 8) (size 9 to 14) (size 15 to 20)
#    0.400    2.133    1.333    2.800    1.867    0.000 
#   10.800    0.000    0.000    1.600    0.000    0.000 
#    0.000    0.000    0.000    0.000    0.000    0.000 
#
# Total GULP energy -167131.233128 kJ/mol
# GULP energy per Si atom -5571.041104 kJ/mol
# Density = 2.041559 g / cm^3
# Si number density = 20.462160 Si / 1000 Ang^3
#
#
#
# Elastic Constant Matrix: (Units=GPa)
#
#
# Indices 1 2 3 4 5 6 
#
# 1 71.0294 11.2898 27.8954 0.0000 28.9340 0.0000
# 2 11.2898 103.4189 25.0523 0.0000 12.7818 0.0000
# 3 27.8954 25.0523 48.0632 0.0000 26.8370 0.0000
# 4 0.0000 0.0000 0.0000 24.3072 0.0000 7.8005
# 5 28.9340 12.7818 26.8370 0.0000 37.1608 0.0000
# 6 0.0000 0.0000 0.0000 7.8005 0.0000 20.9947
#
#
#
# Elastic Compliance Matrix: (Units=1/GPa)
#
#
# Indices 1 2 3 4 5 6 
#
# 1 0.021403 0.000598 -0.005553 0.000000 -0.012860 0.000000
# 2 0.000598 0.011092 -0.006264 0.000000 0.000243 0.000000
# 3 -0.005553 -0.006264 0.039676 0.000000 -0.022175 0.000000
# 4 0.000000 0.000000 0.000000 0.046709 0.000000 -0.017355
# 5 -0.012860 0.000243 -0.022175 0.000000 0.052854 0.000000
# 6 0.000000 0.000000 0.000000 -0.017355 0.000000 0.054079
#
#
# Mechanical properties :
#
#
# Convention : Reuss Voigt Hill
#
# Bulk Modulus (GPa) = 20.10782 38.99849 29.55316
# Shear Modulus (GPa) = 18.88010 27.04414 22.96212
#
# Velocity S-wave (km/s) = 3.04087 3.63942 3.35352
# Velocity P-wave (km/s) = 4.70928 6.06306 5.42854
#
# Compressibility (1/GPa) = 0.04973189
#
# Stress axis : x y z
#
# Youngs Moduli (GPa) = 46.72208 90.15898 25.20421
#
# Poissons Ratio (x) = -0.05393 0.13997
# Poissons Ratio (y) = -0.02795 0.15789
# Poissons Ratio (z) = 0.25946 0.56478
#
# Static dielectric constant tensor:
#      x y z
#    x 1.778910 0.000000 0.034670 
#    y 0.000000 1.744180 0.000000 
#    z 0.034670 0.000000 1.754470 
# 
# From -- ./inp_files/251614.got.cif
#   From: 2010.05.17/outbox.cif.g08.bks.cpg/sg15_126_cif.got.tgz:251614.got - 2010.06.03 18:47:42.
