data_PCOD9255879
_publ_section_title
;
Structure prediction by ZEFSAII (Michael W. Deem and Ramdas Pophale) SiO2 
 PCOD9255879
Probable space group: C 2/C
;
_chemical_formula_sum "Si O2"
_cell_formula_units_Z 52
_cell_length_a 11.227208
_cell_length_b 27.018129
_cell_length_c 9.713672
_cell_angle_alpha 90.000000
_cell_angle_beta 61.620409
_cell_angle_gamma 90.000000
_cell_volume 2592.407598
_symmetry_space_group_name_H-M "C 2/C"
_symmetry_group_IT_number 15
_symmetry_cell_setting 'monoclinic'
loop_
_space_group_symop_operation_xyz
x,y,z
-x,y,1/2-z
-x,-y,-z
x,-y,1/2+z
1/2+x,1/2+y,z
1/2-x,1/2+y,1/2-z
1/2-x,1/2-y,-z
1/2+x,1/2-y,1/2+z
loop_
_atom_site_type_symbol
_atom_site_label
_atom_site_fract_x
_atom_site_fract_y
_atom_site_fract_z
Si Si1 0.777858 0.326019 0.927390
Si Si2 0.000000 0.081914 0.250000
Si Si3 0.000000 0.594734 0.250000
Si Si4 0.032307 0.149097 0.970370
Si Si5 0.877921 0.496929 0.226479
Si Si6 0.000000 0.918499 0.250000
Si Si7 0.794375 0.999715 0.426280
Si Si8 0.145467 0.227913 0.744192
O O1 0.628044 0.342695 0.966139
O O2 0.824587 0.285971 0.786624
O O3 0.886812 0.369591 0.877143
O O4 0.757337 0.298189 0.085056
O O5 0.040209 0.117624 0.103275
O O6 0.873437 0.044008 0.306186
O O7 0.083072 0.555346 0.297093
O O8 0.076573 0.115253 0.817315
O O9 0.118486 0.199523 0.902495
O O10 0.833887 0.483742 0.096898
O O11 0.751283 0.487014 0.395898
O O12 0.000000 0.473489 0.250000
O O13 0.895083 0.953886 0.382925
O O14 0.000000 0.221266 0.750000
#
# Coordination Sequence:
#
# PCOD9255879 Si02
#       8
#     8   4   4   8   8   4   8   8
#     4  10  17  33  54  85 111 135 177 230 277 326
#     4  11  24  36  60  75 118 149 186 236 286 323
#     4  10  20  29  54  83 110 145 174 225 280 328
#     4  11  21  37  54  89 108 144 188 233 277 332
#     4  10  23  35  55  79 113 148 188 227 279 338
#     4  11  20  33  64  80 108 142 200 243 266 315
#     4  11  21  40  53  82 109 153 189 236 281 320
#     4   9  18  32  57  82 112 135 180 234 277 321
#
# _framework density 20.058574
#
# number of rings (size 3 to 8) (size 9 to 14) (size 15 to 20)
#    0.462    1.231    3.077    4.154    0.000    2.462 
#    0.000    0.769    0.000    0.000    0.000    0.000 
#    0.000    0.000    0.000    0.000    0.000    0.000 
#
# Total GULP energy -144819.040790 kJ/mol
# GULP energy per Si atom -5569.963107 kJ/mol
# Density = 2.001292 g / cm^3
# Si number density = 20.058574 Si / 1000 Ang^3
#
#
#
# Elastic Constant Matrix: (Units=GPa)
#
#
# Indices 1 2 3 4 5 6 
#
# 1 32.4525 8.1069 -2.0807 0.0000 -8.2733 0.0000
# 2 8.1069 66.6408 18.9044 0.0000 -11.3690 0.0000
# 3 -2.0807 18.9044 73.5540 0.0000 -4.6121 0.0000
# 4 0.0000 0.0000 0.0000 30.2118 0.0000 -0.4603
# 5 -8.2733 -11.3690 -4.6121 0.0000 32.8228 0.0000
# 6 0.0000 0.0000 0.0000 -0.4603 0.0000 11.4128
#
#
#
# Elastic Compliance Matrix: (Units=1/GPa)
#
#
# Indices 1 2 3 4 5 6 
#
# 1 0.033777 -0.003465 0.002325 0.000000 0.007640 0.000000
# 2 -0.003465 0.017422 -0.004290 0.000000 0.004558 0.000000
# 3 0.002325 -0.004290 0.014838 0.000000 0.001185 0.000000
# 4 0.000000 0.000000 0.000000 0.033120 0.000000 0.001336
# 5 0.007640 0.004558 0.001185 0.000000 0.034138 0.000000
# 6 0.000000 0.000000 0.000000 0.001336 0.000000 0.087675
#
#
# Mechanical properties :
#
#
# Convention : Reuss Voigt Hill
#
# Bulk Modulus (GPa) = 18.12348 24.72317 21.42332
# Shear Modulus (GPa) = 19.98227 24.73725 22.35976
#
# Velocity S-wave (km/s) = 3.15968 3.51558 3.34237
# Velocity P-wave (km/s) = 4.72931 5.36948 5.05953
#
# Compressibility (1/GPa) = 0.05517705
#
# Stress axis : x y z
#
# Youngs Moduli (GPa) = 29.60617 57.39882 67.39404
#
# Poissons Ratio (x) = 0.19889 -0.15670
# Poissons Ratio (y) = 0.10259 0.28911
# Poissons Ratio (z) = -0.06884 0.24623
#
# Static dielectric constant tensor:
#      x y z
#    x 1.728160 0.000000 -0.031440 
#    y 0.000000 1.738370 0.000000 
#    z -0.031440 0.000000 1.742040 
# 
# From -- ./inp_files/35127.got.cif
#   From: 2010.05.17/outbox.cif.g08.bks.cpg/sg15_18_cif.got.tgz:35127.got - 2010.06.03 18:47:42.
