data_PCOD9255984
_publ_section_title
;
Structure prediction by ZEFSAII (Michael W. Deem and Ramdas Pophale) SiO2 
 PCOD9255984
Probable space group: C 2/C
;
_chemical_formula_sum "Si O2"
_cell_formula_units_Z 60
_cell_length_a 15.221031
_cell_length_b 11.312040
_cell_length_c 32.851043
_cell_angle_alpha 90.000000
_cell_angle_beta 153.530674
_cell_angle_gamma 90.000000
_cell_volume 2521.128357
_symmetry_space_group_name_H-M "C 2/C"
_symmetry_group_IT_number 15
_symmetry_cell_setting 'monoclinic'
loop_
_space_group_symop_operation_xyz
x,y,z
-x,y,1/2-z
-x,-y,-z
x,-y,1/2+z
1/2+x,1/2+y,z
1/2-x,1/2+y,1/2-z
1/2-x,1/2-y,-z
1/2+x,1/2-y,1/2+z
loop_
_atom_site_type_symbol
_atom_site_label
_atom_site_fract_x
_atom_site_fract_y
_atom_site_fract_z
Si Si1 0.162474 0.824601 0.236329
Si Si2 0.082729 0.144504 0.038317
Si Si3 0.538047 0.328801 0.873217
Si Si4 0.771083 0.921097 0.469104
Si Si5 0.557055 0.025648 0.126536
Si Si6 0.036063 0.780381 0.427316
Si Si7 0.897556 0.398672 0.983472
Si Si8 0.000000 0.301158 0.750000
O O1 0.317733 0.720620 0.287535
O O2 0.252003 0.953217 0.282766
O O3 0.058948 0.776413 0.234366
O O4 0.050391 0.844744 0.147668
O O5 0.299634 0.131980 0.150078
O O6 0.055847 0.156434 0.978437
O O7 0.903407 0.070521 0.984060
O O8 0.012488 0.278181 0.022526
O O9 0.655352 0.203509 0.921110
O O10 0.657980 0.389802 0.885251
O O11 0.582772 0.405308 0.932050
O O12 0.601590 0.020346 0.402668
O O13 0.575891 0.154206 0.115141
O O14 0.450339 0.938540 0.050747
O O15 0.250000 0.750000 0.500000
O O16 0.000000 0.500000 0.000000
#
# Coordination Sequence:
#
# PCOD9255984 Si02
#       8
#     8   8   8   8   8   8   8   4
#     4  11  22  42  63  94 134 179 227 278 346 434
#     4  11  20  37  63  97 132 174 216 288 345 407
#     4   8  15  31  57  89 122 170 213 261 321 415
#     4   8  15  33  63  84 117 170 222 258 323 414
#     4  10  21  42  66  92 130 182 225 277 353 432
#     4  12  26  42  63  99 145 172 221 301 356 387
#     4  10  17  33  64 100 129 161 221 284 351 428
#     4  12  20  36  68  88 132 172 228 268 344 434
#
# _framework density 23.798867000000001
#
# number of rings (size 3 to 8) (size 9 to 14) (size 15 to 20)
#    0.000    1.867    5.333    1.600    0.000    0.000 
#    7.200    6.667    2.933    0.000    0.000    0.000 
#    0.000    0.000    0.000    0.000    0.000    0.000 
#
# Total GULP energy -167250.379380 kJ/mol
# GULP energy per Si atom -5575.012646 kJ/mol
# Density = 2.374470 g / cm^3
# Si number density = 23.798867 Si / 1000 Ang^3
#
#
#
# Elastic Constant Matrix: (Units=GPa)
#
#
# Indices 1 2 3 4 5 6 
#
# 1 158.3137 10.9771 42.7031 0.0001 -3.6803 0.0000
# 2 10.9771 39.9815 9.1383 0.0001 -7.6600 0.0000
# 3 42.7031 9.1383 109.4798 -0.0005 -10.5065 0.0001
# 4 0.0001 0.0001 -0.0005 20.7187 0.0001 2.2099
# 5 -3.6803 -7.6600 -10.5065 0.0001 35.3405 0.0000
# 6 0.0000 0.0000 0.0001 2.2099 0.0000 35.6501
#
#
#
# Elastic Compliance Matrix: (Units=1/GPa)
#
#
# Indices 1 2 3 4 5 6 
#
# 1 0.007134 -0.001412 -0.002700 0.000000 -0.000366 0.000000
# 2 -0.001412 0.026679 -0.001169 0.000000 0.005288 0.000000
# 3 -0.002700 -0.001169 0.010534 0.000000 0.002597 0.000000
# 4 0.000000 0.000000 0.000000 0.048587 0.000000 -0.003012
# 5 -0.000366 0.005288 0.002597 0.000000 0.030176 0.000000
# 6 0.000000 0.000000 0.000000 -0.003012 0.000000 0.028237
#
#
# Mechanical properties :
#
#
# Convention : Reuss Voigt Hill
#
# Bulk Modulus (GPa) = 29.59741 48.15691 38.87716
# Shear Modulus (GPa) = 28.87315 34.67230 31.77272
#
# Velocity S-wave (km/s) = 3.48690 3.82106 3.65780
# Velocity P-wave (km/s) = 5.35489 6.30446 5.84898
#
# Compressibility (1/GPa) = 0.03378674
#
# Stress axis : x y z
#
# Youngs Moduli (GPa) = 140.16901 37.48204 94.93014
#
# Poissons Ratio (x) = 0.05291 0.25631
# Poissons Ratio (y) = 0.19787 0.11096
# Poissons Ratio (z) = 0.37846 0.04381
#
# Static dielectric constant tensor:
#      x y z
#    x 2.029910 0.000000 0.047790 
#    y 0.000000 2.091710 0.000000 
#    z 0.047790 0.000000 1.921580 
# 
# From -- ./inp_files/313991.got.cif
#   From: 2010.05.17/outbox.cif.g08.bks.cpg/sg15_157_cif.got.tgz:313991.got - 2010.06.03 18:47:42.
