data_PCOD9255318
_publ_section_title
;
Structure prediction by ZEFSAII (Michael W. Deem and Ramdas Pophale) SiO2 
 PCOD9255318
Probable space group: C 2/C
;
_chemical_formula_sum "Si O2"
_cell_formula_units_Z 56
_cell_length_a 21.524410
_cell_length_b 8.678143
_cell_length_c 18.057567
_cell_angle_alpha 90.000000
_cell_angle_beta 137.345559
_cell_angle_gamma 90.000000
_cell_volume 2285.465771
_symmetry_space_group_name_H-M "C 2/C"
_symmetry_group_IT_number 15
_symmetry_cell_setting 'monoclinic'
loop_
_space_group_symop_operation_xyz
x,y,z
-x,y,1/2-z
-x,-y,-z
x,-y,1/2+z
1/2+x,1/2+y,z
1/2-x,1/2+y,1/2-z
1/2-x,1/2-y,-z
1/2+x,1/2-y,1/2+z
loop_
_atom_site_type_symbol
_atom_site_label
_atom_site_fract_x
_atom_site_fract_y
_atom_site_fract_z
Si Si1 0.708494 0.804569 0.642916
Si Si2 0.845055 0.182240 0.053478
Si Si3 0.551214 0.062190 0.216547
Si Si4 0.920598 0.770081 0.779681
Si Si5 0.957775 0.097079 0.795768
Si Si6 0.735893 0.633918 0.809138
Si Si7 0.739228 0.634721 0.058948
O O1 0.648103 0.765976 0.519059
O O2 0.817290 0.774980 0.721927
O O3 0.687412 0.698742 0.694021
O O4 0.705208 0.985066 0.656810
O O5 0.826970 0.003550 0.020203
O O6 0.750000 0.250000 0.000000
O O7 0.907801 0.216586 0.178899
O O8 0.500000 0.052650 0.250000
O O9 0.521398 0.228753 0.156905
O O10 0.660220 0.072110 0.330487
O O11 0.539265 0.897943 0.166621
O O12 0.976279 0.927818 0.847651
O O13 0.845938 0.094169 0.704584
O O14 0.000000 0.098026 0.750000
O O15 0.793222 0.767919 0.898742
O O16 0.750000 0.750000 0.000000
#
# Coordination Sequence:
#
# PCOD9255318 Si02
#       7
#     8   8   8   8   8   8   8
#     4  10  19  32  47  77 109 136 174 220 288 331
#     4  10  17  30  49  74 110 133 171 226 272 326
#     4  10  19  31  52  77 108 145 180 223 270 327
#     4  10  19  33  54  79 109 141 178 228 275 324
#     4   9  19  34  50  77 105 139 183 223 266 327
#     4  10  21  31  52  77 107 142 169 226 284 323
#     4  11  19  32  52  78 109 138 184 230 281 323
#
# _framework density 24.502663999999999
#
# number of rings (size 3 to 8) (size 9 to 14) (size 15 to 20)
#    0.000    2.000    2.857    4.714    2.000    0.000 
#    0.000    0.000    0.000    0.857    0.000   24.000 
#    0.000    0.000    0.000    0.000    0.000    0.000 
#
# Total GULP energy -156302.002079 kJ/mol
# GULP energy per Si atom -5582.214360 kJ/mol
# Density = 2.444689 g / cm^3
# Si number density = 24.502664 Si / 1000 Ang^3
#
#
#
# Elastic Constant Matrix: (Units=GPa)
#
#
# Indices 1 2 3 4 5 6 
#
# 1 71.7354 15.3605 25.4556 0.0000 10.3108 0.0000
# 2 15.3605 201.8690 7.9696 0.0000 6.1244 0.0000
# 3 25.4556 7.9696 55.6918 0.0000 -1.7704 0.0000
# 4 0.0000 0.0000 0.0000 24.0348 0.0000 -6.6389
# 5 10.3108 6.1244 -1.7704 0.0000 34.3180 0.0000
# 6 0.0000 0.0000 0.0000 -6.6389 0.0000 25.3118
#
#
#
# Elastic Compliance Matrix: (Units=1/GPa)
#
#
# Indices 1 2 3 4 5 6 
#
# 1 0.017849 -0.000863 -0.008214 0.000000 -0.005633 0.000000
# 2 -0.000863 0.005053 -0.000350 0.000000 -0.000661 0.000000
# 3 -0.008214 -0.000350 0.021877 0.000000 0.003659 0.000000
# 4 0.000000 0.000000 0.000000 0.044856 0.000000 0.011765
# 5 -0.005633 -0.000661 0.003659 0.000000 0.031138 0.000000
# 6 0.000000 0.000000 0.000000 0.011765 0.000000 0.042593
#
#
# Mechanical properties :
#
#
# Convention : Reuss Voigt Hill
#
# Bulk Modulus (GPa) = 38.57164 47.42972 43.00068
# Shear Modulus (GPa) = 26.19693 35.43364 30.81529
#
# Velocity S-wave (km/s) = 3.27333 3.80691 3.55016
# Velocity P-wave (km/s) = 5.48290 6.22273 5.86449
#
# Compressibility (1/GPa) = 0.02592578
#
# Stress axis : x y z
#
# Youngs Moduli (GPa) = 56.02454 197.89365 45.71050
#
# Poissons Ratio (x) = 0.17078 0.37547
# Poissons Ratio (y) = 0.04835 0.01598
# Poissons Ratio (z) = 0.46019 0.06919
#
# Static dielectric constant tensor:
#      x y z
#    x 2.014560 0.000000 0.063380 
#    y 0.000000 2.053510 0.000000 
#    z 0.063380 0.000000 1.932960 
# 
# From -- ./inp_files/214002.got.cif
#   From: 2010.05.17/outbox.cif.g08.bks.cpg/sg15_108_cif.got.tgz:214002.got - 2010.06.03 18:47:42.
