data_PCOD9255438
_publ_section_title
;
Structure prediction by ZEFSAII (Michael W. Deem and Ramdas Pophale) SiO2 
 PCOD9255438
Probable space group: C 2/C
;
_chemical_formula_sum "Si O2"
_cell_formula_units_Z 56
_cell_length_a 21.011891
_cell_length_b 15.933530
_cell_length_c 13.631032
_cell_angle_alpha 90.000000
_cell_angle_beta 33.234775
_cell_angle_gamma 90.000000
_cell_volume 2501.167008
_symmetry_space_group_name_H-M "C 2/C"
_symmetry_group_IT_number 15
_symmetry_cell_setting 'monoclinic'
loop_
_space_group_symop_operation_xyz
x,y,z
-x,y,1/2-z
-x,-y,-z
x,-y,1/2+z
1/2+x,1/2+y,z
1/2-x,1/2+y,1/2-z
1/2-x,1/2-y,-z
1/2+x,1/2-y,1/2+z
loop_
_atom_site_type_symbol
_atom_site_label
_atom_site_fract_x
_atom_site_fract_y
_atom_site_fract_z
Si Si1 0.500000 0.567466 0.250000
Si Si2 0.438821 0.411264 0.043380
Si Si3 0.095569 0.242006 0.420751
Si Si4 0.500000 0.289554 0.250000
Si Si5 0.487113 0.905934 0.974783
Si Si6 0.310747 0.040172 0.549622
Si Si7 0.683248 0.567685 0.531287
Si Si8 0.713701 0.882776 0.792267
O O1 0.445159 0.606127 0.418122
O O2 0.399536 0.508670 0.335180
O O3 0.306490 0.417757 0.253262
O O4 0.500000 0.500000 0.000000
O O5 0.512716 0.332766 0.989509
O O6 0.047029 0.256491 0.593881
O O7 0.095616 0.333577 0.371916
O O8 0.222042 0.201396 0.261323
O O9 0.392351 0.348765 0.355602
O O10 0.608776 0.865803 0.852503
O O11 0.426391 0.924866 0.949669
O O12 0.500000 0.000000 0.000000
O O13 0.295645 0.057880 0.454008
O O14 0.309454 0.942670 0.585672
O O15 0.703361 0.565088 0.388933
#
# Coordination Sequence:
#
# PCOD9255438 Si02
#       8
#     4   8   8   4   8   8   8   8
#     4  11  18  30  56  97 126 148 200 257 298 351
#     4  12  19  34  63  96 121 154 201 254 309 347
#     4  11  21  37  63  88 122 158 204 253 299 361
#     4   9  18  30  54  97 124 144 194 257 306 351
#     4  10  26  43  59  85 126 168 204 244 304 369
#     4  11  20  37  58  85 123 163 194 244 303 356
#     4  10  17  30  58  88 126 158 189 248 302 356
#     4  10  21  38  56  89 122 159 205 243 299 365
#
# _framework density 22.389548999999999
#
# number of rings (size 3 to 8) (size 9 to 14) (size 15 to 20)
#    0.000    1.429    5.714    0.857    2.000    1.714 
#    0.000    2.857    0.000    8.571    0.000    0.000 
#    0.000    0.000    0.000    0.000    0.000    0.000 
#
# Total GULP energy -155942.506377 kJ/mol
# GULP energy per Si atom -5569.375228 kJ/mol
# Density = 2.233859 g / cm^3
# Si number density = 22.389549 Si / 1000 Ang^3
#
#
#
# Elastic Constant Matrix: (Units=GPa)
#
#
# Indices 1 2 3 4 5 6 
#
# 1 131.1179 44.6292 15.4221 0.0000 -13.6290 0.0000
# 2 44.6292 125.8537 7.2816 0.0000 -5.7531 0.0000
# 3 15.4221 7.2816 26.8622 0.0000 -2.7557 0.0000
# 4 0.0000 0.0000 0.0000 13.6981 0.0000 -2.7186
# 5 -13.6290 -5.7531 -2.7557 0.0000 49.0450 0.0000
# 6 0.0000 0.0000 0.0000 -2.7186 0.0000 4.1949
#
#
#
# Elastic Compliance Matrix: (Units=1/GPa)
#
#
# Indices 1 2 3 4 5 6 
#
# 1 0.009361 -0.002975 -0.004362 0.000000 0.002007 0.000000
# 2 -0.002975 0.009052 -0.000725 0.000000 0.000194 0.000000
# 3 -0.004362 -0.000725 0.040026 0.000000 0.000952 0.000000
# 4 0.000000 0.000000 0.000000 0.083778 0.000000 0.054294
# 5 0.002007 0.000194 0.000952 0.000000 0.021023 0.000000
# 6 0.000000 0.000000 0.000000 0.054294 0.000000 0.273570
#
#
# Mechanical properties :
#
#
# Convention : Reuss Voigt Hill
#
# Bulk Modulus (GPa) = 23.63355 46.49994 35.06674
# Shear Modulus (GPa) = 10.70572 27.82100 19.26336
#
# Velocity S-wave (km/s) = 2.18905 3.52886 2.93639
# Velocity P-wave (km/s) = 4.11920 6.11698 5.21466
#
# Compressibility (1/GPa) = 0.04231273
#
# Stress axis : x y z
#
# Youngs Moduli (GPa) = 106.82409 110.47623 24.98402
#
# Poissons Ratio (x) = 0.32872 0.10898
# Poissons Ratio (y) = 0.31785 0.01813
# Poissons Ratio (z) = 0.46596 0.08015
#
# Static dielectric constant tensor:
#      x y z
#    x 3.086740 0.000000 -0.233500 
#    y 0.000000 1.882350 0.000000 
#    z -0.233500 0.000000 1.918650 
# 
# From -- ./inp_files/168480.got.cif
#   From: 2010.05.17/outbox.cif.g08.bks.cpg/sg15_85_cif.got.tgz:168480.got - 2010.06.03 18:47:42.
