data_PCOD9255841
_publ_section_title
;
Structure prediction by ZEFSAII (Michael W. Deem and Ramdas Pophale) SiO2 
 PCOD9255841
Probable space group: C 2/C
;
_chemical_formula_sum "Si O2"
_cell_formula_units_Z 48
_cell_length_a 16.578012
_cell_length_b 18.680799
_cell_length_c 11.356980
_cell_angle_alpha 90.000000
_cell_angle_beta 33.367991
_cell_angle_gamma 90.000000
_cell_volume 1934.482051
_symmetry_space_group_name_H-M "C 2/C"
_symmetry_group_IT_number 15
_symmetry_cell_setting 'monoclinic'
loop_
_space_group_symop_operation_xyz
x,y,z
-x,y,1/2-z
-x,-y,-z
x,-y,1/2+z
1/2+x,1/2+y,z
1/2-x,1/2+y,1/2-z
1/2-x,1/2-y,-z
1/2+x,1/2-y,1/2+z
loop_
_atom_site_type_symbol
_atom_site_label
_atom_site_fract_x
_atom_site_fract_y
_atom_site_fract_z
Si Si1 0.111549 0.795982 0.513736
Si Si2 0.608077 0.943550 0.957753
Si Si3 0.957281 0.818191 0.156664
Si Si4 0.361806 0.526433 0.746553
Si Si5 0.784047 0.688680 0.296055
Si Si6 0.210866 0.577484 0.584143
O O1 0.204815 0.733938 0.339185
O O2 0.218278 0.857542 0.432088
O O3 0.000000 0.772453 0.750000
O O4 0.834858 0.979835 0.897153
O O5 0.434895 0.956579 0.179388
O O6 0.653296 0.901495 0.023931
O O7 0.645248 0.888607 0.808981
O O8 0.718607 0.009837 0.840868
O O9 0.869078 0.891704 0.276511
O O10 0.876211 0.741873 0.266504
O O11 0.113088 0.819244 0.029719
O O12 0.983708 0.823400 0.981289
O O13 0.500000 0.500000 0.500000
#
# Coordination Sequence:
#
# PCOD9255841 Si02
#       6
#     8   8   8   8   8   8
#     4  10  20  28  48  74 110 135 175 199 252 319
#     4   9  18  31  53  72 105 132 180 202 268 306
#     4  10  21  33  50  78 109 141 176 214 259 317
#     4  10  17  33  51  72 104 146 177 209 260 316
#     4  10  20  31  49  77 113 140 171 205 264 314
#     4   9  19  32  49  75 102 139 175 209 253 315
#
# _framework density 24.812844999999999
#
# number of rings (size 3 to 8) (size 9 to 14) (size 15 to 20)
#    2.000    0.333    1.667    3.000    2.333    1.333 
#    0.000    0.833    0.000    0.000    0.000    4.667 
#    0.000    0.000    0.000    0.000    0.000    0.000 
#
# Total GULP energy -133980.511933 kJ/mol
# GULP energy per Si atom -5582.521331 kJ/mol
# Density = 2.475637 g / cm^3
# Si number density = 24.812845 Si / 1000 Ang^3
#
#
#
# Elastic Constant Matrix: (Units=GPa)
#
#
# Indices 1 2 3 4 5 6 
#
# 1 83.5393 31.2432 17.8705 -0.0001 -20.4908 0.0000
# 2 31.2432 146.2602 59.9854 0.0000 -17.0528 0.0000
# 3 17.8705 59.9854 171.2998 -0.0007 -8.6779 0.0007
# 4 -0.0001 0.0000 -0.0007 38.9397 0.0004 -4.6305
# 5 -20.4908 -17.0528 -8.6779 0.0004 37.1891 -0.0002
# 6 0.0000 0.0000 0.0007 -4.6305 -0.0002 35.4355
#
#
#
# Elastic Compliance Matrix: (Units=1/GPa)
#
#
# Indices 1 2 3 4 5 6 
#
# 1 0.014561 -0.002127 -0.000422 0.000000 0.006949 0.000000
# 2 -0.002127 0.008650 -0.002698 0.000000 0.002165 0.000000
# 3 -0.000422 -0.002698 0.006833 0.000000 0.000125 0.000000
# 4 0.000000 0.000000 0.000000 0.026086 0.000000 0.003409
# 5 0.006949 0.002165 0.000125 0.000000 0.031740 0.000000
# 6 0.000000 0.000000 0.000000 0.003409 0.000000 0.028666
#
#
# Mechanical properties :
#
#
# Convention : Reuss Voigt Hill
#
# Bulk Modulus (GPa) = 51.15037 68.81083 59.98060
# Shear Modulus (GPa) = 37.44030 41.77956 39.60993
#
# Velocity S-wave (km/s) = 3.88868 4.10785 3.99977
# Velocity P-wave (km/s) = 6.38918 7.09164 6.74956
#
# Compressibility (1/GPa) = 0.01955020
#
# Stress axis : x y z
#
# Youngs Moduli (GPa) = 68.67810 115.60331 146.35493
#
# Poissons Ratio (x) = 0.24589 0.06178
# Poissons Ratio (y) = 0.14608 0.39480
# Poissons Ratio (z) = 0.02899 0.31185
#
# Static dielectric constant tensor:
#      x y z
#    x 2.086500 0.000000 0.092360 
#    y 0.000000 1.966570 0.000000 
#    z 0.092360 0.000000 1.962940 
# 
# From -- ./inp_files/257965.got.cif
#   From: 2010.05.17/outbox.cif.g08.bks.cpg/sg15_129_cif.got.tgz:257965.got - 2010.06.03 18:47:42.
