data_PCOD9255500
_publ_section_title
;
Structure prediction by ZEFSAII (Michael W. Deem and Ramdas Pophale) SiO2 
 PCOD9255500
Probable space group: C 2/C
;
_chemical_formula_sum "Si O2"
_cell_formula_units_Z 56
_cell_length_a 11.681646
_cell_length_b 18.952359
_cell_length_c 15.216748
_cell_angle_alpha 90.000000
_cell_angle_beta 58.188367
_cell_angle_gamma 90.000000
_cell_volume 2862.849879
_symmetry_space_group_name_H-M "C 2/C"
_symmetry_group_IT_number 15
_symmetry_cell_setting 'monoclinic'
loop_
_space_group_symop_operation_xyz
x,y,z
-x,y,1/2-z
-x,-y,-z
x,-y,1/2+z
1/2+x,1/2+y,z
1/2-x,1/2+y,1/2-z
1/2-x,1/2-y,-z
1/2+x,1/2-y,1/2+z
loop_
_atom_site_type_symbol
_atom_site_label
_atom_site_fract_x
_atom_site_fract_y
_atom_site_fract_z
Si Si1 0.500000 0.019042 0.750000
Si Si2 0.072939 0.278656 0.830781
Si Si3 0.643222 0.685696 0.530161
Si Si4 0.352579 0.253781 0.646116
Si Si5 0.965944 0.399300 0.088549
Si Si6 0.772282 0.682586 0.054387
Si Si7 0.619398 0.912834 0.568363
Si Si8 0.500000 0.684797 0.250000
O O1 0.562992 0.063519 0.806084
O O2 0.601734 0.969505 0.652897
O O3 0.196644 0.274146 0.715108
O O4 0.146953 0.287452 0.894338
O O5 0.984250 0.208100 0.861378
O O6 0.977342 0.347037 0.864808
O O7 0.750000 0.750000 0.500000
O O8 0.590962 0.696037 0.452190
O O9 0.728854 0.615456 0.503839
O O10 0.378465 0.172456 0.615670
O O11 0.428396 0.268595 0.705358
O O12 0.932298 0.435544 0.007943
O O13 0.122953 0.374290 0.027373
O O14 0.629504 0.651000 0.147286
O O15 0.750000 0.750000 0.000000
#
# Coordination Sequence:
#
# PCOD9255500 Si02
#       8
#     4   8   8   8   8   8   8   4
#     4  12  25  38  60  82 118 171 208 234 278 354
#     4   9  19  30  57  88 114 144 179 247 308 349
#     4  10  17  34  55  84 116 142 182 247 307 349
#     4  11  18  32  52  89 121 144 188 235 312 350
#     4  11  22  37  56  88 120 154 202 249 280 353
#     4  10  17  31  51  85 124 146 185 242 306 349
#     4  10  21  41  57  86 120 156 202 241 290 352
#     4  10  19  28  52  82 122 161 176 232 306 372
#
# _framework density 19.560928000000001
#
# number of rings (size 3 to 8) (size 9 to 14) (size 15 to 20)
#    0.000    1.714    5.714    1.714    2.000    1.714 
#    0.000    0.000    0.000    0.857   14.857    0.000 
#    0.000    0.000    0.000    0.000    0.000    0.000 
#
# Total GULP energy -155889.447956 kJ/mol
# GULP energy per Si atom -5567.480284 kJ/mol
# Density = 1.951641 g / cm^3
# Si number density = 19.560928 Si / 1000 Ang^3
#
#
#
# Elastic Constant Matrix: (Units=GPa)
#
#
# Indices 1 2 3 4 5 6 
#
# 1 80.3076 25.6221 44.1206 0.0000 9.4321 0.0000
# 2 25.6221 53.8644 27.1426 0.0000 9.1372 0.0000
# 3 44.1206 27.1426 103.7338 0.0000 18.1264 0.0000
# 4 0.0000 0.0000 0.0000 35.0344 0.0000 1.4329
# 5 9.4321 9.1372 18.1264 0.0000 45.9977 0.0000
# 6 0.0000 0.0000 0.0000 1.4329 0.0000 17.7497
#
#
#
# Elastic Compliance Matrix: (Units=1/GPa)
#
#
# Indices 1 2 3 4 5 6 
#
# 1 0.017452 -0.005238 -0.006023 0.000000 -0.000164 0.000000
# 2 -0.005238 0.023165 -0.003455 0.000000 -0.002166 0.000000
# 3 -0.006023 -0.003455 0.013715 0.000000 -0.003483 0.000000
# 4 0.000000 0.000000 0.000000 0.028638 0.000000 -0.002312
# 5 -0.000164 -0.002166 -0.003483 0.000000 0.023577 0.000000
# 6 0.000000 0.000000 0.000000 -0.002312 0.000000 0.056526
#
#
# Mechanical properties :
#
#
# Convention : Reuss Voigt Hill
#
# Bulk Modulus (GPa) = 40.16292 47.96407 44.06349
# Shear Modulus (GPa) = 24.89979 29.15772 27.02875
#
# Velocity S-wave (km/s) = 3.57169 3.86503 3.72125
# Velocity P-wave (km/s) = 6.13075 6.67020 6.40615
#
# Compressibility (1/GPa) = 0.02489859
#
# Stress axis : x y z
#
# Youngs Moduli (GPa) = 57.30010 43.16805 72.91515
#
# Poissons Ratio (x) = 0.22613 0.43920
# Poissons Ratio (y) = 0.30016 0.25191
# Poissons Ratio (z) = 0.34514 0.14914
#
# Static dielectric constant tensor:
#      x y z
#    x 1.711610 0.000000 0.020170 
#    y 0.000000 1.694790 0.000000 
#    z 0.020170 0.000000 1.817230 
# 
# From -- ./inp_files/146019.got.cif
#   From: 2010.05.17/outbox.cif.g08.bks.cpg/sg15_74_cif.got.tgz:146019.got - 2010.06.03 18:47:42.
