data_PCOD9255610
_publ_section_title
;
Structure prediction by ZEFSAII (Michael W. Deem and Ramdas Pophale) SiO2 
 PCOD9255610
Probable space group: C 2/C
;
_chemical_formula_sum "Si O2"
_cell_formula_units_Z 64
_cell_length_a 17.882716
_cell_length_b 24.292151
_cell_length_c 14.536121
_cell_angle_alpha 90.000000
_cell_angle_beta 150.073784
_cell_angle_gamma 90.000000
_cell_volume 3150.270551
_symmetry_space_group_name_H-M "C 2/C"
_symmetry_group_IT_number 15
_symmetry_cell_setting 'monoclinic'
loop_
_space_group_symop_operation_xyz
x,y,z
-x,y,1/2-z
-x,-y,-z
x,-y,1/2+z
1/2+x,1/2+y,z
1/2-x,1/2+y,1/2-z
1/2-x,1/2-y,-z
1/2+x,1/2-y,1/2+z
loop_
_atom_site_type_symbol
_atom_site_label
_atom_site_fract_x
_atom_site_fract_y
_atom_site_fract_z
Si Si1 0.711129 0.851872 0.665821
Si Si2 0.793533 0.267980 0.327776
Si Si3 0.648371 0.862903 0.243336
Si Si4 0.892015 0.545283 0.930615
Si Si5 0.819975 0.508939 0.042831
Si Si6 0.342080 0.890343 0.697200
Si Si7 0.331035 0.606309 0.104050
Si Si8 0.415677 0.233410 0.250419
O O1 0.751794 0.789179 0.734442
O O2 0.533050 0.857111 0.452181
O O3 0.739929 0.884947 0.791904
O O4 0.804383 0.874634 0.680017
O O5 0.772921 0.317602 0.236416
O O6 0.710246 0.270891 0.337608
O O7 0.965680 0.269496 0.540616
O O8 0.682744 0.921328 0.231128
O O9 0.716600 0.860423 0.416788
O O10 0.795650 0.518619 0.908219
O O11 0.000000 0.500000 0.000000
O O12 0.992686 0.589113 0.095556
O O13 0.786695 0.563309 0.067825
O O14 0.000000 0.496824 0.250000
O O15 0.722078 0.456693 0.964178
O O16 0.355219 0.828773 0.671194
O O17 0.500000 0.613977 0.250000
O O18 0.500000 0.254186 0.250000
#
# Coordination Sequence:
#
# PCOD9255610 Si02
#       8
#     8   8   8   8   8   8   8   8
#     4  10  22  43  64  89 125 169 214 265 315 383
#     4  11  22  39  65  93 132 167 211 264 315 372
#     4  11  22  42  64  93 121 169 219 265 314 386
#     4  10  17  31  62  93 118 155 210 263 303 361
#     4  10  19  37  66  94 123 161 213 261 313 383
#     4   9  18  35  63  92 121 160 212 257 300 373
#     4  12  27  41  63  89 124 163 215 272 335 387
#     4  11  21  38  62  97 133 172 212 257 309 379
#
# _framework density 20.315715999999998
#
# number of rings (size 3 to 8) (size 9 to 14) (size 15 to 20)
#    0.000    1.500    3.750    5.625    1.750    0.500 
#    0.000    2.500    0.000    0.000    0.000    0.000 
#    0.000    0.000    0.000    0.000    0.000    0.000 
#
# Total GULP energy -178590.922836 kJ/mol
# GULP energy per Si atom -5580.966339 kJ/mol
# Density = 2.026948 g / cm^3
# Si number density = 20.315716 Si / 1000 Ang^3
#
#
#
# Elastic Constant Matrix: (Units=GPa)
#
#
# Indices 1 2 3 4 5 6 
#
# 1 155.2066 57.3335 34.3897 0.0000 -2.1987 0.0000
# 2 57.3335 78.6573 24.9948 0.0000 3.6844 0.0000
# 3 34.3897 24.9948 42.8981 0.0000 -7.4589 0.0000
# 4 0.0000 0.0000 0.0000 16.6495 0.0000 1.1857
# 5 -2.1987 3.6844 -7.4589 0.0000 24.1492 0.0000
# 6 0.0000 0.0000 0.0000 1.1857 0.0000 38.2638
#
#
#
# Elastic Compliance Matrix: (Units=1/GPa)
#
#
# Indices 1 2 3 4 5 6 
#
# 1 0.009443 -0.005543 -0.004273 0.000000 0.000386 0.000000
# 2 -0.005543 0.019575 -0.007998 0.000000 -0.005961 0.000000
# 3 -0.004273 -0.007998 0.033331 0.000000 0.011126 0.000000
# 4 0.000000 0.000000 0.000000 0.060195 0.000000 -0.001865
# 5 0.000386 -0.005961 0.011126 0.000000 0.045790 0.000000
# 6 0.000000 0.000000 0.000000 -0.001865 0.000000 0.026192
#
#
# Mechanical properties :
#
#
# Convention : Reuss Voigt Hill
#
# Bulk Modulus (GPa) = 37.42512 56.68866 47.05689
# Shear Modulus (GPa) = 20.91512 26.48211 23.69862
#
# Velocity S-wave (km/s) = 3.21207 3.61436 3.41914
# Velocity P-wave (km/s) = 5.67611 6.73666 6.22900
#
# Compressibility (1/GPa) = 0.02672002
#
# Stress axis : x y z
#
# Youngs Moduli (GPa) = 105.89873 51.08669 30.00176
#
# Poissons Ratio (x) = 0.28318 0.12821
# Poissons Ratio (y) = 0.58701 0.23995
# Poissons Ratio (z) = 0.45253 0.40859
#
# Static dielectric constant tensor:
#      x y z
#    x 1.744680 0.000000 -0.016150 
#    y 0.000000 1.742690 0.000000 
#    z -0.016150 0.000000 1.778820 
# 
# From -- ./inp_files/164272.got.cif
#   From: 2010.05.17/outbox.cif.g08.bks.cpg/sg15_83_cif.got.tgz:164272.got - 2010.06.03 18:47:42.
