data_PCOD9255745
_publ_section_title
;
Structure prediction by ZEFSAII (Michael W. Deem and Ramdas Pophale) SiO2 
 PCOD9255745
Probable space group: C 2/C
;
_chemical_formula_sum "Si O2"
_cell_formula_units_Z 52
_cell_length_a 8.681473
_cell_length_b 14.841409
_cell_length_c 20.652680
_cell_angle_alpha 90.000000
_cell_angle_beta 91.350912
_cell_angle_gamma 90.000000
_cell_volume 2660.260964
_symmetry_space_group_name_H-M "C 2/C"
_symmetry_group_IT_number 15
_symmetry_cell_setting 'monoclinic'
loop_
_space_group_symop_operation_xyz
x,y,z
-x,y,1/2-z
-x,-y,-z
x,-y,1/2+z
1/2+x,1/2+y,z
1/2-x,1/2+y,1/2-z
1/2-x,1/2-y,-z
1/2+x,1/2-y,1/2+z
loop_
_atom_site_type_symbol
_atom_site_label
_atom_site_fract_x
_atom_site_fract_y
_atom_site_fract_z
Si Si1 0.803342 0.600291 0.637993
Si Si2 0.890671 0.138008 0.516054
Si Si3 0.214632 0.563507 0.146924
Si Si4 0.000000 0.489959 0.250000
Si Si5 0.847090 0.256470 0.933093
Si Si6 0.029717 0.028324 0.102072
Si Si7 0.928212 0.425620 0.451623
O O1 0.899117 0.575007 0.702498
O O2 0.702283 0.689108 0.626091
O O3 0.690165 0.514975 0.626128
O O4 0.924565 0.616130 0.581053
O O5 0.938548 0.113866 0.443365
O O6 0.706286 0.135352 0.520013
O O7 0.983283 0.222448 0.544822
O O8 0.955538 0.051505 0.557278
O O9 0.117210 0.554014 0.211273
O O10 0.170154 0.646130 0.099393
O O11 0.399834 0.555454 0.152855
O O12 0.157367 0.477015 0.106897
O O13 0.750000 0.250000 0.000000
O O14 0.000000 0.500000 0.500000
#
# Coordination Sequence:
#
# PCOD9255745 Si02
#       7
#     8   8   8   4   8   8   8
#     4  10  21  37  60  82 115 159 202 245 297 362
#     4   9  17  29  53  88 121 143 182 232 310 378
#     4  10  21  37  58  82 115 155 199 249 299 356
#     4  10  24  44  56  76 114 168 214 234 280 374
#     4  11  20  36  61  94 122 149 187 266 330 357
#     4   9  16  32  56  84 109 151 192 233 290 367
#     4  10  17  32  56  83 116 155 191 240 294 369
#
# _framework density 19.546952999999998
#
# number of rings (size 3 to 8) (size 9 to 14) (size 15 to 20)
#    0.000    2.154    3.077    0.923    0.000    0.615 
#    0.000   13.846    0.000    0.000    0.000    0.000 
#    0.000    0.000    0.000    0.000    0.000    0.000 
#
# Total GULP energy -144738.508773 kJ/mol
# GULP energy per Si atom -5566.865722 kJ/mol
# Density = 1.950246 g / cm^3
# Si number density = 19.546953 Si / 1000 Ang^3
#
#
#
# Elastic Constant Matrix: (Units=GPa)
#
#
# Indices 1 2 3 4 5 6 
#
# 1 150.7003 31.7999 49.6364 0.0000 -8.6168 0.0000
# 2 31.7999 58.2147 17.9846 0.0000 -0.5155 0.0000
# 3 49.6364 17.9846 85.1790 0.0000 -10.4063 0.0000
# 4 0.0000 0.0000 0.0000 25.8985 0.0000 6.5120
# 5 -8.6168 -0.5155 -10.4063 0.0000 38.9986 0.0000
# 6 0.0000 0.0000 0.0000 6.5120 0.0000 25.4669
#
#
#
# Elastic Compliance Matrix: (Units=1/GPa)
#
#
# Indices 1 2 3 4 5 6 
#
# 1 0.008838 -0.003486 -0.004322 0.000000 0.000753 0.000000
# 2 -0.003486 0.019777 -0.002281 0.000000 -0.001117 0.000000
# 3 -0.004322 -0.002281 0.015112 0.000000 0.003047 0.000000
# 4 0.000000 0.000000 0.000000 0.041266 0.000000 -0.010552
# 5 0.000753 -0.001117 0.003047 0.000000 0.026607 0.000000
# 6 0.000000 0.000000 0.000000 -0.010552 0.000000 0.041965
#
#
# Mechanical properties :
#
#
# Convention : Reuss Voigt Hill
#
# Bulk Modulus (GPa) = 42.46364 54.77064 48.61714
# Shear Modulus (GPa) = 27.53432 31.05098 29.29265
#
# Velocity S-wave (km/s) = 3.75724 3.98996 3.87535
# Velocity P-wave (km/s) = 6.37130 7.02192 6.70451
#
# Compressibility (1/GPa) = 0.02354956
#
# Stress axis : x y z
#
# Youngs Moduli (GPa) = 113.14928 50.56464 66.17047
#
# Poissons Ratio (x) = 0.17626 0.28599
# Poissons Ratio (y) = 0.39442 0.15093
# Poissons Ratio (z) = 0.48904 0.11533
#
# Static dielectric constant tensor:
#      x y z
#    x 1.697510 0.000000 -0.053570 
#    y 0.000000 1.695220 0.000000 
#    z -0.053570 0.000000 1.658760 
# 
# From -- ./inp_files/231196.got.cif
#   From: 2010.05.17/outbox.cif.g08.bks.cpg/sg15_116_cif.got.tgz:231196.got - 2010.06.03 18:47:42.
