data_PCOD9255009
_publ_section_title
;
Structure prediction by ZEFSAII (Michael W. Deem and Ramdas Pophale) SiO2 
 PCOD9255009
Probable space group: C 2/C
;
_chemical_formula_sum "Si O2"
_cell_formula_units_Z 56
_cell_length_a 5.438170
_cell_length_b 17.165703
_cell_length_c 28.820567
_cell_angle_alpha 90.000000
_cell_angle_beta 103.985439
_cell_angle_gamma 90.000000
_cell_volume 2610.649189
_symmetry_space_group_name_H-M "C 2/C"
_symmetry_group_IT_number 15
_symmetry_cell_setting 'monoclinic'
loop_
_space_group_symop_operation_xyz
x,y,z
-x,y,1/2-z
-x,-y,-z
x,-y,1/2+z
1/2+x,1/2+y,z
1/2-x,1/2+y,1/2-z
1/2-x,1/2-y,-z
1/2+x,1/2-y,1/2+z
loop_
_atom_site_type_symbol
_atom_site_label
_atom_site_fract_x
_atom_site_fract_y
_atom_site_fract_z
Si Si1 0.254154 0.877042 0.562074
Si Si2 0.411179 0.827989 0.668604
Si Si3 0.100351 0.991285 0.354068
Si Si4 0.311112 0.838552 0.993278
Si Si5 0.552189 0.342663 0.804078
Si Si6 0.041065 0.512538 0.805582
Si Si7 0.504544 0.970528 0.053647
O O1 0.312647 0.831766 0.611821
O O2 0.455023 0.846616 0.532475
O O3 0.959179 0.872887 0.535856
O O4 0.332335 0.967280 0.572726
O O5 0.690772 0.794141 0.683802
O O6 0.192112 0.795344 0.690870
O O7 0.451533 0.917610 0.688424
O O8 0.307879 0.960386 0.326699
O O9 0.224705 0.975603 0.409554
O O10 0.818685 0.960156 0.334167
O O11 0.085163 0.084688 0.341506
O O12 0.250000 0.750000 0.000000
O O13 0.396137 0.884563 0.043321
O O14 0.500000 0.374431 0.750000
O O15 0.000000 0.530264 0.750000
O O16 0.500000 0.000000 0.000000
#
# Coordination Sequence:
#
# PCOD9255009 Si02
#       7
#     8   8   8   8   8   8   8
#     4  11  21  38  60  82 109 152 193 245 287 341
#     4  10  17  27  47  72 106 140 183 215 276 339
#     4  10  18  29  45  72 110 144 184 219 273 339
#     4  11  25  41  57  79 116 153 200 244 297 346
#     4  10  17  27  44  71 117 150 165 218 294 343
#     4  10  18  28  46  73 118 151 167 219 296 343
#     4  10  22  36  59  86 112 154 197 243 287 341
#
# _framework density 21.450603000000001
#
# number of rings (size 3 to 8) (size 9 to 14) (size 15 to 20)
#    0.000    1.714    2.857    6.000    6.000    2.286 
#    0.000    0.000    0.000    0.000    0.000    0.000 
#    0.000   27.429    0.000    0.000    0.000    0.000 
#
# Total GULP energy -156254.638056 kJ/mol
# GULP energy per Si atom -5580.522788 kJ/mol
# Density = 2.140178 g / cm^3
# Si number density = 21.450603 Si / 1000 Ang^3
#
#
#
# Elastic Constant Matrix: (Units=GPa)
#
#
# Indices 1 2 3 4 5 6 
#
# 1 181.9496 3.5330 39.8581 0.0000 12.0986 0.0000
# 2 3.5330 39.7173 0.1618 0.0000 -0.3779 0.0000
# 3 39.8581 0.1618 103.1036 0.0000 16.8240 0.0000
# 4 0.0000 0.0000 0.0000 0.8584 0.0000 1.8509
# 5 12.0986 -0.3779 16.8240 0.0000 40.7524 0.0000
# 6 0.0000 0.0000 0.0000 1.8509 0.0000 7.9844
#
#
#
# Elastic Compliance Matrix: (Units=1/GPa)
#
#
# Indices 1 2 3 4 5 6 
#
# 1 0.006046 -0.000537 -0.002190 0.000000 -0.000896 0.000000
# 2 -0.000537 0.025229 0.000111 0.000000 0.000347 0.000000
# 3 -0.002190 0.000111 0.011193 0.000000 -0.003970 0.000000
# 4 0.000000 0.000000 0.000000 2.328945 0.000000 -0.539881
# 5 -0.000896 0.000347 -0.003970 0.000000 0.026446 0.000000
# 6 0.000000 0.000000 0.000000 -0.539881 0.000000 0.250396
#
#
# Mechanical properties :
#
#
# Convention : Reuss Voigt Hill
#
# Bulk Modulus (GPa) = 26.85617 45.76403 36.31010
# Shear Modulus (GPa) = 1.87554 28.66690 15.27122
#
# Velocity S-wave (km/s) = 0.93608 3.65967 2.67109
# Velocity P-wave (km/s) = 3.70345 6.26406 5.14558
#
# Compressibility (1/GPa) = 0.03723539
#
# Stress axis : x y z
#
# Youngs Moduli (GPa) = 165.40385 39.63753 89.33952
#
# Poissons Ratio (x) = 0.02130 0.19567
# Poissons Ratio (y) = 0.08889 -0.00996
# Poissons Ratio (z) = 0.36227 -0.00442
#
# Static dielectric constant tensor:
#      x y z
#    x 1.889630 0.000000 -0.006190 
#    y 0.000000 1.780110 0.000000 
#    z -0.006190 0.000000 1.827940 
# 
# From -- ./inp_files/286027.got.cif
#   From: 2010.05.17/outbox.cif.g08.bks.cpg/sg15_144_cif.got.tgz:286027.got - 2010.06.03 18:47:42.
