data_PCOD9255000
_publ_section_title
;
Structure prediction by ZEFSAII (Michael W. Deem and Ramdas Pophale) SiO2 
 PCOD9255000
Probable space group: C 2/C
;
_chemical_formula_sum "Si O2"
_cell_formula_units_Z 60
_cell_length_a 21.801079
_cell_length_b 7.494046
_cell_length_c 28.159234
_cell_angle_alpha 90.000000
_cell_angle_beta 149.038411
_cell_angle_gamma 90.000000
_cell_volume 2366.843771
_symmetry_space_group_name_H-M "C 2/C"
_symmetry_group_IT_number 15
_symmetry_cell_setting 'monoclinic'
loop_
_space_group_symop_operation_xyz
x,y,z
-x,y,1/2-z
-x,-y,-z
x,-y,1/2+z
1/2+x,1/2+y,z
1/2-x,1/2+y,1/2-z
1/2-x,1/2-y,-z
1/2+x,1/2-y,1/2+z
loop_
_atom_site_type_symbol
_atom_site_label
_atom_site_fract_x
_atom_site_fract_y
_atom_site_fract_z
Si Si1 0.852400 0.494490 0.727516
Si Si2 0.508475 0.824691 0.904466
Si Si3 0.756684 0.336386 0.070877
Si Si4 0.500000 0.435527 0.250000
Si Si5 0.241682 0.420603 0.090582
Si Si6 0.169667 0.872927 0.166418
Si Si7 0.158190 0.478567 0.137767
Si Si8 0.452508 0.708674 0.133274
O O1 0.937091 0.346065 0.807883
O O2 0.811911 0.536322 0.647485
O O3 0.724641 0.480523 0.669337
O O4 0.930869 0.669895 0.795844
O O5 0.462957 0.649535 0.902221
O O6 0.461543 0.987059 0.909493
O O7 0.647782 0.839884 0.991559
O O8 0.754396 0.132264 0.089028
O O9 0.854121 0.334479 0.093592
O O10 0.624241 0.366201 0.961808
O O11 0.373378 0.341076 0.172860
O O12 0.485796 0.557303 0.193376
O O13 0.178772 0.395840 0.100004
O O14 0.191781 0.686698 0.154499
O O15 0.251014 0.886713 0.266529
#
# Coordination Sequence:
#
# PCOD9255000 Si02
#       8
#     8   8   8   4   8   8   8   8
#     4  11  16  31  49  74 113 140 172 222 273 314
#     4   9  20  30  52  78 106 142 181 219 269 327
#     4  10  18  26  46  77 110 138 175 218 274 323
#     4  10  20  30  50  80 110 142 176 228 278 312
#     4  11  17  31  52  80 103 137 190 222 262 327
#     4   9  19  32  51  79 105 145 183 218 270 315
#     4   9  18  32  54  78 107 142 181 222 267 321
#     4  10  17  27  43  74 111 139 171 220 276 318
#
# _framework density 25.350218000000002
#
# number of rings (size 3 to 8) (size 9 to 14) (size 15 to 20)
#    0.800    1.333    5.333    0.400    0.000    0.000 
#    0.000    0.000    0.000    5.600    3.467    0.000 
#    0.000    0.000    0.000    0.000    0.000    0.000 
#
# Total GULP energy -167189.748682 kJ/mol
# GULP energy per Si atom -5572.991623 kJ/mol
# Density = 2.529252 g / cm^3
# Si number density = 25.350218 Si / 1000 Ang^3
#
#
#
# Elastic Constant Matrix: (Units=GPa)
#
#
# Indices 1 2 3 4 5 6 
#
# 1 80.4500 19.3561 60.3920 0.0000 -3.1238 0.0000
# 2 19.3561 62.6989 26.7951 0.0002 6.6779 -0.0010
# 3 60.3920 26.7951 153.0966 0.0000 13.1590 0.0000
# 4 0.0000 0.0002 0.0000 22.5590 0.0000 -5.5560
# 5 -3.1238 6.6779 13.1590 0.0000 36.2859 0.0000
# 6 0.0000 -0.0010 0.0000 -5.5560 0.0000 4.8268
#
#
#
# Elastic Compliance Matrix: (Units=1/GPa)
#
#
# Indices 1 2 3 4 5 6 
#
# 1 0.018874 -0.003226 -0.007299 0.000000 0.004865 -0.000001
# 2 -0.003226 0.017953 -0.001612 0.000001 -0.002997 0.000005
# 3 -0.007299 -0.001612 0.010034 0.000000 -0.003971 0.000000
# 4 0.000000 0.000001 0.000000 0.061867 0.000000 0.071214
# 5 0.004865 -0.002997 -0.003971 0.000000 0.029969 -0.000001
# 6 -0.000001 0.000005 0.000000 0.071214 -0.000001 0.289148
#
#
# Mechanical properties :
#
#
# Convention : Reuss Voigt Hill
#
# Bulk Modulus (GPa) = 44.27051 56.59243 50.43147
# Shear Modulus (GPa) = 10.87785 25.38117 18.12951
#
# Velocity S-wave (km/s) = 2.07373 3.16764 2.67715
# Velocity P-wave (km/s) = 4.82030 5.97924 5.43077
#
# Compressibility (1/GPa) = 0.02258840
#
# Stress axis : x y z
#
# Youngs Moduli (GPa) = 52.98221 55.70024 99.65633
#
# Poissons Ratio (x) = 0.17967 0.72739
# Poissons Ratio (y) = 0.17090 0.16066
# Poissons Ratio (z) = 0.38671 0.08980
#
# Static dielectric constant tensor:
#      x y z
#    x 2.052510 0.000000 -0.017500 
#    y 0.000000 1.998330 0.000000 
#    z -0.017500 0.000000 1.995170 
# 
# From -- ./inp_files/318717.got.cif
#   From: 2010.05.17/outbox.cif.g08.bks.cpg/sg15_160_cif.got.tgz:318717.got - 2010.06.03 18:47:42.
