data_PCOD9255655
_publ_section_title
;
Structure prediction by ZEFSAII (Michael W. Deem and Ramdas Pophale) SiO2 
 PCOD9255655
Probable space group: C 2/C
;
_chemical_formula_sum "Si O2"
_cell_formula_units_Z 56
_cell_length_a 20.724921
_cell_length_b 20.382011
_cell_length_c 15.135659
_cell_angle_alpha 90.000000
_cell_angle_beta 27.157728
_cell_angle_gamma 90.000000
_cell_volume 2918.276736
_symmetry_space_group_name_H-M "C 2/C"
_symmetry_group_IT_number 15
_symmetry_cell_setting 'monoclinic'
loop_
_space_group_symop_operation_xyz
x,y,z
-x,y,1/2-z
-x,-y,-z
x,-y,1/2+z
1/2+x,1/2+y,z
1/2-x,1/2+y,1/2-z
1/2-x,1/2-y,-z
1/2+x,1/2-y,1/2+z
loop_
_atom_site_type_symbol
_atom_site_label
_atom_site_fract_x
_atom_site_fract_y
_atom_site_fract_z
Si Si1 0.302659 0.389167 0.641214
Si Si2 0.527372 0.373591 0.895341
Si Si3 0.733852 0.544094 0.830560
Si Si4 0.000000 0.908609 0.250000
Si Si5 0.191732 0.016849 0.086703
Si Si6 0.090526 0.739713 0.724915
Si Si7 0.000000 0.463431 0.250000
Si Si8 0.006921 0.615997 0.925953
O O1 0.401363 0.361454 0.597582
O O2 0.287414 0.468674 0.670727
O O3 0.380075 0.374514 0.454471
O O4 0.142104 0.366668 0.848663
O O5 0.629379 0.426104 0.722779
O O6 0.526989 0.307114 0.839925
O O7 0.375376 0.408403 0.084968
O O8 0.893655 0.570701 0.633886
O O9 0.695942 0.544269 0.981382
O O10 0.086136 0.955758 0.212396
O O11 0.351461 0.999338 0.919084
O O12 0.250000 0.750000 0.500000
O O13 0.000000 0.719029 0.750000
O O14 0.085362 0.682710 0.803739
O O15 0.015715 0.421381 0.140473
#
# Coordination Sequence:
#
# PCOD9255655 Si02
#       8
#     8   8   8   4   8   8   4   8
#     4  11  22  37  58  79 111 149 202 247 297 342
#     4  12  20  34  56  83 115 155 195 235 290 359
#     4  10  21  34  53  81 115 152 193 242 287 345
#     4  10  22  38  55  80 108 149 198 258 288 328
#     4  10  17  32  51  78 113 149 186 228 290 343
#     4  12  23  36  56  89 128 162 187 224 284 367
#     4  10  18  30  49  80 114 151 178 216 272 356
#     4  11  21  36  54  83 120 156 190 225 289 353
#
# _framework density 19.189406999999999
#
# number of rings (size 3 to 8) (size 9 to 14) (size 15 to 20)
#    0.000    1.143    5.000    5.143    0.000    0.000 
#    0.000    0.000    0.000    0.857    0.000    0.000 
#    0.000    0.000    0.000    0.000    0.000    0.000 
#
# Total GULP energy -156390.366686 kJ/mol
# GULP energy per Si atom -5585.370239 kJ/mol
# Density = 1.914573 g / cm^3
# Si number density = 19.189407 Si / 1000 Ang^3
#
#
#
# Elastic Constant Matrix: (Units=GPa)
#
#
# Indices 1 2 3 4 5 6 
#
# 1 38.3449 1.0514 14.7711 0.0024 -23.7618 -0.0011
# 2 1.0514 31.1782 8.4223 0.0012 0.2248 -0.0004
# 3 14.7711 8.4223 105.8393 0.0017 -19.3843 -0.0001
# 4 0.0024 0.0012 0.0017 6.7662 -0.0019 -10.4086
# 5 -23.7618 0.2248 -19.3843 -0.0019 35.9361 0.0005
# 6 -0.0011 -0.0004 -0.0001 -10.4086 0.0005 11.8340
#
#
#
# Elastic Compliance Matrix: (Units=1/GPa)
#
#
# Indices 1 2 3 4 5 6 
#
# 1 0.044329 -0.001494 -0.000774 0.000007 0.028903 0.000009
# 2 -0.001494 0.032933 -0.002919 0.000011 -0.002769 0.000011
# 3 -0.000774 -0.002919 0.010761 0.000002 0.005311 0.000002
# 4 0.000007 0.000011 0.000002 -0.418639 -0.000011 -0.368214
# 5 0.028903 -0.002769 0.005311 -0.000011 0.049821 -0.000009
# 6 0.000009 0.000011 0.000002 -0.368214 -0.000009 -0.239361
#
#
# Mechanical properties :
#
#
# Convention : Reuss Voigt Hill
#
# Bulk Modulus (GPa) = 12.87860 24.87246 18.87553
# Shear Modulus (GPa) = -10.33276 20.98175 5.32450
#
# Velocity S-wave (km/s) = -2.32299 3.31025 1.66755
# Velocity P-wave (km/s) = 0.68498 5.25358 3.68313
#
# Compressibility (1/GPa) = 0.07764817
#
# Stress axis : x y z
#
# Youngs Moduli (GPa) = 22.55848 30.36505 92.92504
#
# Poissons Ratio (x) = 0.04537 0.07194
# Poissons Ratio (y) = 0.03371 0.27127
# Poissons Ratio (z) = 0.01746 0.08864
#
# Static dielectric constant tensor:
#      x y z
#    x 1.673730 0.000000 -0.011310 
#    y 0.000000 1.653800 0.000000 
#    z -0.011310 0.000000 1.698130 
# 
# From -- ./inp_files/57827.got.cif
#   From: 2010.05.17/outbox.cif.g08.bks.cpg/sg15_29_cif.got.tgz:57827.got - 2010.06.03 18:47:42.
