data_PCOD9255100
_publ_section_title
;
Structure prediction by ZEFSAII (Michael W. Deem and Ramdas Pophale) SiO2 
 PCOD9255100
Probable space group: C 2/C
;
_chemical_formula_sum "Si O2"
_cell_formula_units_Z 64
_cell_length_a 25.378566
_cell_length_b 16.016126
_cell_length_c 27.362891
_cell_angle_alpha 90.000000
_cell_angle_beta 160.362728
_cell_angle_gamma 90.000000
_cell_volume 3737.738798
_symmetry_space_group_name_H-M "C 2/C"
_symmetry_group_IT_number 15
_symmetry_cell_setting 'monoclinic'
loop_
_space_group_symop_operation_xyz
x,y,z
-x,y,1/2-z
-x,-y,-z
x,-y,1/2+z
1/2+x,1/2+y,z
1/2-x,1/2+y,1/2-z
1/2-x,1/2-y,-z
1/2+x,1/2-y,1/2+z
loop_
_atom_site_type_symbol
_atom_site_label
_atom_site_fract_x
_atom_site_fract_y
_atom_site_fract_z
Si Si1 0.228967 0.951050 0.315892
Si Si2 0.363263 0.920504 0.999706
Si Si3 0.904812 0.703877 0.617734
Si Si4 0.217957 0.904099 0.732552
Si Si5 0.992066 0.886314 0.450547
Si Si6 0.836335 0.636595 0.785415
Si Si7 0.965248 0.692871 0.999514
Si Si8 0.635970 0.294861 0.747749
O O1 0.056511 0.926939 0.144051
O O2 0.335804 0.868562 0.409658
O O3 0.260021 0.999789 0.393611
O O4 0.283754 0.018626 0.322168
O O5 0.380661 0.884777 0.069239
O O6 0.536509 0.926419 0.126552
O O7 0.269521 0.844034 0.893064
O O8 0.750000 0.750000 0.500000
O O9 0.000000 0.689609 0.750000
O O10 0.994226 0.767851 0.658909
O O11 0.362352 0.845490 0.843867
O O12 0.109507 0.853243 0.676850
O O13 0.122509 0.924821 0.600207
O O14 0.827960 0.891456 0.336518
O O15 0.035016 0.788287 0.483582
O O16 0.799528 0.706505 0.713625
O O17 0.924968 0.684143 0.907023
#
# Coordination Sequence:
#
# PCOD9255100 Si02
#       8
#     8   8   8   8   8   8   8   8
#     4  10  22  33  46  68  97 138 174 219 263 290
#     4  10  20  34  51  70 101 136 172 216 261 310
#     4  11  22  35  54  79 103 137 175 213 260 313
#     4  11  19  30  45  70 102 134 174 219 250 282
#     4  11  20  29  46  71  96 135 182 218 242 296
#     4  10  17  28  47  68  95 138 178 205 244 288
#     4  11  18  31  48  64  97 140 181 206 248 298
#     4  10  18  29  50  71 103 134 178 210 240 299
#
# _framework density 17.122651999999999
#
# number of rings (size 3 to 8) (size 9 to 14) (size 15 to 20)
#    0.000    1.500    6.250    1.500    3.500    0.000 
#    0.000    0.000    0.000    0.000    0.000    0.000 
#    0.000    1.000    0.250    1.875    0.000    0.125 
#
# Total GULP energy -178202.992466 kJ/mol
# GULP energy per Si atom -5568.843515 kJ/mol
# Density = 1.708368 g / cm^3
# Si number density = 17.122652 Si / 1000 Ang^3
#
#
#
# Elastic Constant Matrix: (Units=GPa)
#
#
# Indices 1 2 3 4 5 6 
#
# 1 42.1568 11.2401 23.8667 0.0038 -8.0837 -0.0041
# 2 11.2401 72.9203 28.4501 -0.0146 -13.0969 -0.0001
# 3 23.8667 28.4501 97.5463 -0.0128 -17.2307 -0.0015
# 4 0.0038 -0.0146 -0.0128 32.5027 -0.0015 -8.0026
# 5 -8.0837 -13.0969 -17.2307 -0.0015 24.2702 0.0011
# 6 -0.0041 -0.0001 -0.0015 -8.0026 0.0011 12.3964
#
#
#
# Elastic Compliance Matrix: (Units=1/GPa)
#
#
# Indices 1 2 3 4 5 6 
#
# 1 0.028181 -0.001286 -0.005699 -0.000005 0.004646 0.000005
# 2 -0.001286 0.016305 -0.003387 0.000007 0.005966 0.000003
# 3 -0.005699 -0.003387 0.013693 0.000005 0.005995 0.000003
# 4 -0.000005 0.000007 0.000005 0.036581 0.000007 0.023615
# 5 0.004646 0.005966 0.005995 0.000007 0.050226 0.000002
# 6 0.000005 0.000003 0.000003 0.023615 0.000002 0.095914
#
#
# Mechanical properties :
#
#
# Convention : Reuss Voigt Hill
#
# Bulk Modulus (GPa) = 26.71338 37.74860 32.23099
# Shear Modulus (GPa) = 18.24005 23.77163 21.00584
#
# Velocity S-wave (km/s) = 3.26737 3.73005 3.50635
# Velocity P-wave (km/s) = 5.46529 6.37534 5.93777
#
# Compressibility (1/GPa) = 0.03743442
#
# Stress axis : x y z
#
# Youngs Moduli (GPa) = 35.48443 61.33192 73.03071
#
# Poissons Ratio (x) = 0.07886 0.41623
# Poissons Ratio (y) = 0.04563 0.24736
# Poissons Ratio (z) = 0.20224 0.20773
#
# Static dielectric constant tensor:
#      x y z
#    x 1.598470 0.000000 -0.022170 
#    y 0.000000 1.642220 0.000000 
#    z -0.022170 0.000000 1.637140 
# 
# From -- ./inp_files/303424.got.cif
#   From: 2010.05.17/outbox.cif.g08.bks.cpg/sg15_152_cif.got.tgz:303424.got - 2010.06.03 18:47:42.
