data_PCOD9255345
_publ_section_title
;
Structure prediction by ZEFSAII (Michael W. Deem and Ramdas Pophale) SiO2 
 PCOD9255345
Probable space group: C 2/C
;
_chemical_formula_sum "Si O2"
_cell_formula_units_Z 40
_cell_length_a 23.606683
_cell_length_b 6.863869
_cell_length_c 9.547965
_cell_angle_alpha 90.000000
_cell_angle_beta 112.504046
_cell_angle_gamma 90.000000
_cell_volume 1429.280321
_symmetry_space_group_name_H-M "C 2/C"
_symmetry_group_IT_number 15
_symmetry_cell_setting 'monoclinic'
loop_
_space_group_symop_operation_xyz
x,y,z
-x,y,1/2-z
-x,-y,-z
x,-y,1/2+z
1/2+x,1/2+y,z
1/2-x,1/2+y,1/2-z
1/2-x,1/2-y,-z
1/2+x,1/2-y,1/2+z
loop_
_atom_site_type_symbol
_atom_site_label
_atom_site_fract_x
_atom_site_fract_y
_atom_site_fract_z
Si Si1 0.884756 0.858656 0.508418
Si Si2 0.231368 0.979938 0.962820
Si Si3 0.693153 0.975134 0.717346
Si Si4 0.025837 0.780450 0.130495
Si Si5 0.575115 0.146062 0.686439
O O1 0.837009 0.000731 0.541096
O O2 0.844307 0.685674 0.402570
O O3 0.928803 0.912195 0.420634
O O4 0.924975 0.761021 0.668745
O O5 0.281346 0.085054 0.107912
O O6 0.250000 0.750000 0.000000
O O7 0.247412 0.026653 0.818478
O O8 0.644845 0.148915 0.695026
O O9 0.061141 0.581387 0.206588
O O10 0.000000 0.865792 0.250000
O O11 0.972321 0.708376 0.976666
#
# Coordination Sequence:
#
# PCOD9255345 Si02
#       5
#     8   8   8   8   8
#     4  10  20  34  51  76 115 148 175 215 274 328
#     4  10  20  36  52  76 113 148 183 215 271 324
#     4  10  18  32  54  76 110 143 177 224 258 325
#     4  10  19  28  50  82 107 139 175 220 282 332
#     4  10  17  30  51  78 112 140 166 220 286 331
#
# _framework density 27.986111000000001
#
# number of rings (size 3 to 8) (size 9 to 14) (size 15 to 20)
#    0.000    2.000    4.000    4.200    2.800    0.000 
#    0.000    6.000    0.000    0.000    0.000    9.800 
#    0.000    0.000    0.000    0.000    0.000    0.000 
#
# Total GULP energy -112159.110562 kJ/mol
# GULP energy per Si atom -5607.955528 kJ/mol
# Density = 2.792241 g / cm^3
# Si number density = 27.986111 Si / 1000 Ang^3
#
#
#
# Elastic Constant Matrix: (Units=GPa)
#
#
# Indices 1 2 3 4 5 6 
#
# 1 226.7936 24.1345 57.7124 0.0000 -44.6160 0.0000
# 2 24.1345 85.6595 6.4993 0.0000 -3.5319 0.0000
# 3 57.7124 6.4993 173.5040 0.0000 -11.2075 0.0000
# 4 0.0000 0.0000 0.0000 18.5836 0.0000 2.7415
# 5 -44.6160 -3.5319 -11.2075 0.0000 59.3960 0.0000
# 6 0.0000 0.0000 0.0000 2.7415 0.0000 45.5029
#
#
#
# Elastic Compliance Matrix: (Units=1/GPa)
#
#
# Indices 1 2 3 4 5 6 
#
# 1 0.005731 -0.001331 -0.001603 0.000000 0.003923 0.000000
# 2 -0.001331 0.012039 -0.000027 0.000000 -0.000289 0.000000
# 3 -0.001603 -0.000027 0.006297 0.000000 -0.000018 0.000000
# 4 0.000000 0.000000 0.000000 0.054293 0.000000 -0.003271
# 5 0.003923 -0.000289 -0.000018 0.000000 0.019762 0.000000
# 6 0.000000 0.000000 0.000000 -0.003271 0.000000 0.022174
#
#
# Mechanical properties :
#
#
# Convention : Reuss Voigt Hill
#
# Bulk Modulus (GPa) = 55.11289 73.62772 64.37031
# Shear Modulus (GPa) = 37.80254 51.20390 44.50322
#
# Velocity S-wave (km/s) = 3.67926 4.28204 3.99204
# Velocity P-wave (km/s) = 6.14695 7.12837 6.65577
#
# Compressibility (1/GPa) = 0.01814457
#
# Stress axis : x y z
#
# Youngs Moduli (GPa) = 174.50187 83.06119 158.81593
#
# Poissons Ratio (x) = 0.11057 0.25456
# Poissons Ratio (y) = 0.23230 0.00427
# Poissons Ratio (z) = 0.27971 0.00223
#
# Static dielectric constant tensor:
#      x y z
#    x 2.239050 0.000000 -0.014570 
#    y 0.000000 2.212890 0.000000 
#    z -0.014570 0.000000 2.039020 
# 
# From -- ./inp_files/60279.got.cif
#   From: 2010.05.17/outbox.cif.g08.bks.cpg/sg15_31_cif.got.tgz:60279.got - 2010.06.03 18:47:42.
