data_PCOD9255938
_publ_section_title
;
Structure prediction by ZEFSAII (Michael W. Deem and Ramdas Pophale) SiO2 
 PCOD9255938
Probable space group: C 2/C
;
_chemical_formula_sum "Si O2"
_cell_formula_units_Z 44
_cell_length_a 13.979260
_cell_length_b 33.367109
_cell_length_c 14.663725
_cell_angle_alpha 90.000000
_cell_angle_beta 159.367008
_cell_angle_gamma 90.000000
_cell_volume 2410.233117
_symmetry_space_group_name_H-M "C 2/C"
_symmetry_group_IT_number 15
_symmetry_cell_setting 'monoclinic'
loop_
_space_group_symop_operation_xyz
x,y,z
-x,y,1/2-z
-x,-y,-z
x,-y,1/2+z
1/2+x,1/2+y,z
1/2-x,1/2+y,1/2-z
1/2-x,1/2-y,-z
1/2+x,1/2-y,1/2+z
loop_
_atom_site_type_symbol
_atom_site_label
_atom_site_fract_x
_atom_site_fract_y
_atom_site_fract_z
Si Si1 0.295816 0.340716 0.216739
Si Si2 0.811950 0.606613 0.215436
Si Si3 0.169605 0.092815 0.291279
Si Si4 0.500000 0.482252 0.750000
Si Si5 0.354587 0.145201 0.707996
Si Si6 0.000000 0.222145 0.750000
Si Si7 0.000000 0.537981 0.250000
O O1 0.539547 0.372987 0.434853
O O2 0.209764 0.334744 0.248541
O O3 0.407818 0.304196 0.255779
O O4 0.041381 0.359539 0.935509
O O5 0.748696 0.590498 0.258090
O O6 0.911341 0.568990 0.248147
O O7 0.430406 0.110016 0.576733
O O8 0.077959 0.049478 0.241632
O O9 0.924833 0.125201 0.075788
O O10 0.248208 0.509966 0.500139
O O11 0.500000 0.166976 0.750000
O O12 0.750000 0.250000 0.500000
#
# Coordination Sequence:
#
# PCOD9255938 Si02
#       7
#     8   8   8   4   8   4   4
#     4  10  21  37  62  83 107 144 179 224 261 312
#     4  10  21  38  55  78 104 138 192 230 264 312
#     4  10  20  33  53  74 103 139 180 237 278 323
#     4  12  22  33  48  72 106 145 182 227 294 334
#     4  10  17  33  58  83 103 133 186 232 269 304
#     4  12  24  40  62  90 124 148 170 204 258 328
#     4  12  24  33  50  70 104 149 182 233 280 332
#
# _framework density 18.255495
#
# number of rings (size 3 to 8) (size 9 to 14) (size 15 to 20)
#    0.000    1.455    1.818    4.364    0.000    1.455 
#    0.000    0.000    0.000    1.091    0.000    0.000 
#    0.000    0.000    0.000    0.000    0.000    0.000 
#
# Total GULP energy -122626.976160 kJ/mol
# GULP energy per Si atom -5573.953462 kJ/mol
# Density = 1.821394 g / cm^3
# Si number density = 18.255495 Si / 1000 Ang^3
#
#
#
# Elastic Constant Matrix: (Units=GPa)
#
#
# Indices 1 2 3 4 5 6 
#
# 1 139.4624 81.0922 41.3789 0.0060 12.3287 0.0073
# 2 81.0922 95.2104 41.7738 0.0092 1.3405 0.0076
# 3 41.3789 41.7738 125.8166 0.0053 9.0693 0.0051
# 4 0.0060 0.0092 0.0053 27.7008 -0.0021 38.5165
# 5 12.3287 1.3405 9.0693 -0.0021 22.5729 0.0020
# 6 0.0073 0.0076 0.0051 38.5165 0.0020 202.1030
#
#
#
# Elastic Compliance Matrix: (Units=1/GPa)
#
#
# Indices 1 2 3 4 5 6 
#
# 1 0.015427 -0.012930 -0.000236 0.000001 -0.007563 0.000000
# 2 -0.012930 0.023150 -0.003958 -0.000004 0.007277 0.000000
# 3 -0.000236 -0.003958 0.009591 -0.000001 -0.003490 0.000000
# 4 0.000001 -0.000004 -0.000001 0.049115 0.000006 -0.009360
# 5 -0.007563 0.007277 -0.003490 0.000006 0.049402 -0.000002
# 6 0.000000 0.000000 0.000000 -0.009360 -0.000002 0.006732
#
#
# Mechanical properties :
#
#
# Convention : Reuss Voigt Hill
#
# Bulk Modulus (GPa) = 71.83464 76.55325 74.19395
# Shear Modulus (GPa) = 26.00048 63.55829 44.77938
#
# Velocity S-wave (km/s) = 3.77802 5.90691 4.95808
# Velocity P-wave (km/s) = 7.64633 9.40997 8.57362
#
# Compressibility (1/GPa) = 0.01392086
#
# Stress axis : x y z
#
# Youngs Moduli (GPa) = 64.82169 43.19719 104.25988
#
# Poissons Ratio (x) = 0.55852 0.02456
# Poissons Ratio (y) = 0.83811 0.41271
# Poissons Ratio (z) = 0.01527 0.17100
#
# Static dielectric constant tensor:
#      x y z
#    x 1.953610 0.000000 -0.052910 
#    y 0.000000 1.573830 0.000000 
#    z -0.052910 0.000000 1.638290 
# 
# From -- ./inp_files/157580.got.cif
#   From: 2010.05.17/outbox.cif.g08.bks.cpg/sg15_79_cif.got.tgz:157580.got - 2010.06.03 18:47:42.
