data_PCOD9255854
_publ_section_title
;
Structure prediction by ZEFSAII (Michael W. Deem and Ramdas Pophale) SiO2 
 PCOD9255854
Probable space group: C 2/C
;
_chemical_formula_sum "Si O2"
_cell_formula_units_Z 40
_cell_length_a 10.641915
_cell_length_b 20.416845
_cell_length_c 8.078834
_cell_angle_alpha 90.000000
_cell_angle_beta 79.706277
_cell_angle_gamma 90.000000
_cell_volume 1727.070643
_symmetry_space_group_name_H-M "C 2/C"
_symmetry_group_IT_number 15
_symmetry_cell_setting 'monoclinic'
loop_
_space_group_symop_operation_xyz
x,y,z
-x,y,1/2-z
-x,-y,-z
x,-y,1/2+z
1/2+x,1/2+y,z
1/2-x,1/2+y,1/2-z
1/2-x,1/2-y,-z
1/2+x,1/2-y,1/2+z
loop_
_atom_site_type_symbol
_atom_site_label
_atom_site_fract_x
_atom_site_fract_y
_atom_site_fract_z
Si Si1 0.258953 0.097114 0.744489
Si Si2 0.641731 0.975367 0.950725
Si Si3 0.796168 0.120215 0.227378
Si Si4 0.160581 0.258586 0.194054
Si Si5 0.973836 0.922741 0.001767
O O1 0.282598 0.042296 0.601332
O O2 0.312537 0.170611 0.732042
O O3 0.111211 0.098575 0.825908
O O4 0.324728 0.062663 0.889734
O O5 0.674524 0.925000 0.793007
O O6 0.500000 0.000000 0.000000
O O7 0.777263 0.197161 0.228362
O O8 0.885826 0.098741 0.364543
O O9 0.889488 0.108523 0.053707
O O10 0.000000 0.250207 0.250000
O O11 0.250000 0.250000 0.000000
O O12 0.000000 0.000000 0.000000
#
# Coordination Sequence:
#
# PCOD9255854 Si02
#       5
#     8   8   8   8   8
#     4  11  23  35  60  84 114 147 189 238 286 340
#     4  11  21  36  52  84 113 149 186 232 284 336
#     4  10  20  33  54  82 113 143 187 234 283 332
#     4  12  20  35  55  85 116 146 192 242 287 335
#     4  10  17  33  52  81 109 141 180 233 284 330
#
# _framework density 23.160603999999999
#
# number of rings (size 3 to 8) (size 9 to 14) (size 15 to 20)
#    0.000    1.200    8.000    1.800    0.000    0.000 
#    0.000    0.000    0.000    1.200    0.000    0.000 
#    0.000    0.000    0.000    0.000    0.000    0.000 
#
# Total GULP energy -111418.464087 kJ/mol
# GULP energy per Si atom -5570.923204 kJ/mol
# Density = 2.310789 g / cm^3
# Si number density = 23.160604 Si / 1000 Ang^3
#
#
#
# Elastic Constant Matrix: (Units=GPa)
#
#
# Indices 1 2 3 4 5 6 
#
# 1 88.6524 31.5010 37.9754 0.0000 -34.1034 0.0000
# 2 31.5010 211.4324 29.7389 0.0000 -16.6747 0.0000
# 3 37.9754 29.7389 90.5183 0.0000 -36.1514 0.0000
# 4 0.0000 0.0000 0.0000 39.7223 0.0000 -5.2559
# 5 -34.1034 -16.6747 -36.1514 0.0000 45.6605 0.0000
# 6 0.0000 0.0000 0.0000 -5.2559 0.0000 37.2343
#
#
#
# Elastic Compliance Matrix: (Units=1/GPa)
#
#
# Indices 1 2 3 4 5 6 
#
# 1 0.016683 -0.001338 -0.002600 0.000000 0.009913 0.000000
# 2 -0.001338 0.005084 -0.001121 0.000000 -0.000030 0.000000
# 3 -0.002600 -0.001121 0.016917 0.000000 0.011042 0.000000
# 4 0.000000 0.000000 0.000000 0.025654 0.000000 0.003621
# 5 0.009913 -0.000030 0.011042 0.000000 0.038036 0.000000
# 6 0.000000 0.000000 0.000000 0.003621 0.000000 0.027368
#
#
# Mechanical properties :
#
#
# Convention : Reuss Voigt Hill
#
# Bulk Modulus (GPa) = 35.00833 65.44818 50.22825
# Shear Modulus (GPa) = 33.47119 43.94929 38.71024
#
# Velocity S-wave (km/s) = 3.80567 4.36086 4.09269
# Velocity P-wave (km/s) = 5.87019 7.32638 6.63834
#
# Compressibility (1/GPa) = 0.02856463
#
# Stress axis : x y z
#
# Youngs Moduli (GPa) = 59.94258 196.68395 59.11287
#
# Poissons Ratio (x) = 0.26316 0.15372
# Poissons Ratio (y) = 0.08020 0.06627
# Poissons Ratio (z) = 0.15587 0.22051
#
# Static dielectric constant tensor:
#      x y z
#    x 1.957900 0.000000 0.063330 
#    y 0.000000 0.841000 0.000000 
#    z 0.063330 0.000000 2.092420 
# 
# From -- ./inp_files/97384.got.cif
#   From: 2010.05.17/outbox.cif.g08.bks.cpg/sg15_49_cif.got.tgz:97384.got - 2010.06.03 18:47:42.
