data_PCOD9255212
_publ_section_title
;
Structure prediction by ZEFSAII (Michael W. Deem and Ramdas Pophale) SiO2 
 PCOD9255212
Probable space group: C 2/C
;
_chemical_formula_sum "Si O2"
_cell_formula_units_Z 48
_cell_length_a 25.110399
_cell_length_b 12.795639
_cell_length_c 18.981301
_cell_angle_alpha 90.000000
_cell_angle_beta 18.586212
_cell_angle_gamma 90.000000
_cell_volume 1943.865350
_symmetry_space_group_name_H-M "C 2/C"
_symmetry_group_IT_number 15
_symmetry_cell_setting 'monoclinic'
loop_
_space_group_symop_operation_xyz
x,y,z
-x,y,1/2-z
-x,-y,-z
x,-y,1/2+z
1/2+x,1/2+y,z
1/2-x,1/2+y,1/2-z
1/2-x,1/2-y,-z
1/2+x,1/2-y,1/2+z
loop_
_atom_site_type_symbol
_atom_site_label
_atom_site_fract_x
_atom_site_fract_y
_atom_site_fract_z
Si Si1 0.559961 0.164331 0.017726
Si Si2 0.126290 0.066925 0.156064
Si Si3 0.910555 0.939569 0.047402
Si Si4 0.483442 0.946732 0.187063
Si Si5 0.636201 0.087744 0.355126
Si Si6 0.597719 0.331151 0.199482
O O1 0.753367 0.134943 0.762637
O O2 0.496116 0.068933 0.147865
O O3 0.432717 0.173852 0.111001
O O4 0.535267 0.274517 0.084391
O O5 0.158535 0.946886 0.142038
O O6 0.000000 0.072272 0.250000
O O7 0.301167 0.101987 0.904713
O O8 0.044080 0.115409 0.328874
O O9 0.811553 0.029218 0.126417
O O10 0.000000 0.000000 0.000000
O O11 0.500000 0.936691 0.250000
O O12 0.608462 0.894853 0.973303
O O13 0.500000 0.000000 0.500000
O O14 0.500000 0.343673 0.250000
O O15 0.750000 0.250000 0.000000
#
# Coordination Sequence:
#
# PCOD9255212 Si02
#       6
#     8   8   8   8   8   8
#     4  10  19  36  48  69 109 154 180 208 272 332
#     4  11  20  32  50  79 107 137 181 217 264 322
#     4  10  20  31  49  72 105 140 181 225 259 311
#     4  10  17  29  50  73 103 137 178 222 267 313
#     4   8  17  31  47  64  98 144 179 209 263 317
#     4  11  24  34  54  80 115 150 177 217 272 335
#
# _framework density 24.693066999999999
#
# number of rings (size 3 to 8) (size 9 to 14) (size 15 to 20)
#    0.000    2.333    1.667    5.500    4.667    0.000 
#    0.000    0.000    0.000    0.000    0.000    0.000 
#    0.000   64.000    0.000    0.000    0.000    0.000 
#
# Total GULP energy -133920.071374 kJ/mol
# GULP energy per Si atom -5580.002974 kJ/mol
# Density = 2.463686 g / cm^3
# Si number density = 24.693067 Si / 1000 Ang^3
#
#
#
# Elastic Constant Matrix: (Units=GPa)
#
#
# Indices 1 2 3 4 5 6 
#
# 1 103.6847 3.6226 -20.2107 0.0001 2.9661 -0.0001
# 2 3.6226 27.9588 -1.6389 0.0008 0.1173 -0.0008
# 3 -20.2107 -1.6389 90.0797 0.0001 0.3161 -0.0002
# 4 0.0001 0.0008 0.0001 21.5674 -0.0003 0.5856
# 5 2.9661 0.1173 0.3161 -0.0003 50.1253 0.0003
# 6 -0.0001 -0.0008 -0.0002 0.5856 0.0003 5.0187
#
#
#
# Elastic Compliance Matrix: (Units=1/GPa)
#
#
# Indices 1 2 3 4 5 6 
#
# 1 0.010143 -0.001179 0.002256 0.000000 -0.000612 0.000000
# 2 -0.001179 0.035943 0.000389 -0.000001 -0.000017 0.000006
# 3 0.002256 0.000389 0.011615 0.000000 -0.000208 0.000001
# 4 0.000000 -0.000001 0.000000 0.046514 0.000000 -0.005427
# 5 -0.000612 -0.000017 -0.000208 0.000000 0.019988 -0.000001
# 6 0.000000 0.000006 0.000001 -0.005427 -0.000001 0.199889
#
#
# Mechanical properties :
#
#
# Convention : Reuss Voigt Hill
#
# Bulk Modulus (GPa) = 16.49237 20.58546 18.53891
# Shear Modulus (GPa) = 14.64687 31.33895 22.99291
#
# Velocity S-wave (km/s) = 2.43812 3.56636 3.05478
# Velocity P-wave (km/s) = 3.82353 5.03123 4.46837
#
# Compressibility (1/GPa) = 0.06063409
#
# Stress axis : x y z
#
# Youngs Moduli (GPa) = 98.58853 27.82208 86.09290
#
# Poissons Ratio (x) = 0.03281 -0.19426
# Poissons Ratio (y) = 0.11628 -0.03352
# Poissons Ratio (z) = -0.22246 -0.01083
#
# Static dielectric constant tensor:
#      x y z
#    x 2.040610 0.000000 -0.032050 
#    y 0.000000 2.056850 0.000000 
#    z -0.032050 0.000000 2.080720 
# 
# From -- ./inp_files/219938.got.cif
#   From: 2010.05.17/outbox.cif.g08.bks.cpg/sg15_110_cif.got.tgz:219938.got - 2010.06.03 18:47:42.
