data_PCOD9255918
_publ_section_title
;
Structure prediction by ZEFSAII (Michael W. Deem and Ramdas Pophale) SiO2 
 PCOD9255918
Probable space group: C 2/C
;
_chemical_formula_sum "Si O2"
_cell_formula_units_Z 60
_cell_length_a 8.933141
_cell_length_b 19.254934
_cell_length_c 18.533248
_cell_angle_alpha 90.000000
_cell_angle_beta 98.247284
_cell_angle_gamma 90.000000
_cell_volume 3154.880999
_symmetry_space_group_name_H-M "C 2/C"
_symmetry_group_IT_number 15
_symmetry_cell_setting 'monoclinic'
loop_
_space_group_symop_operation_xyz
x,y,z
-x,y,1/2-z
-x,-y,-z
x,-y,1/2+z
1/2+x,1/2+y,z
1/2-x,1/2+y,1/2-z
1/2-x,1/2-y,-z
1/2+x,1/2-y,1/2+z
loop_
_atom_site_type_symbol
_atom_site_label
_atom_site_fract_x
_atom_site_fract_y
_atom_site_fract_z
Si Si1 0.318378 0.254887 0.105730
Si Si2 0.000000 0.709459 0.250000
Si Si3 0.580223 0.498604 0.825162
Si Si4 0.072195 0.940725 0.554069
Si Si5 0.534888 0.832427 0.515246
Si Si6 0.272398 0.093867 0.946534
Si Si7 0.025878 0.791725 0.913238
Si Si8 0.244014 0.358559 0.663500
O O1 0.415056 0.254283 0.184617
O O2 0.406962 0.206434 0.055190
O O3 0.303935 0.331627 0.073633
O O4 0.150244 0.227070 0.110625
O O5 0.873782 0.665039 0.283970
O O6 0.500000 0.531620 0.750000
O O7 0.444968 0.470476 0.867258
O O8 0.695098 0.544193 0.881948
O O9 0.675327 0.430151 0.810741
O O10 0.229742 0.928735 0.524941
O O11 0.982550 0.867407 0.548830
O O12 0.000000 0.000000 0.500000
O O13 0.450987 0.890531 0.461198
O O14 0.590003 0.770853 0.466371
O O15 0.652864 0.862525 0.580776
O O16 0.124272 0.803461 0.848136
#
# Coordination Sequence:
#
# PCOD9255918 Si02
#       8
#     8   4   8   8   8   8   8   8
#     4  10  19  33  59  86 115 149 183 241 292 343
#     4  10  24  36  52  82 114 154 192 236 300 336
#     4  10  23  35  54  82 116 156 192 236 280 344
#     4   9  17  31  54  82 109 144 188 233 275 333
#     4  10  18  34  57  87 115 143 181 245 293 331
#     4  10  18  35  59  84 113 145 193 235 293 338
#     4  10  17  33  57  83 110 140 189 238 282 335
#     4  10  23  35  54  81 112 152 195 234 283 345
#
# _framework density 19.018149999999999
#
# number of rings (size 3 to 8) (size 9 to 14) (size 15 to 20)
#    0.000    2.133    2.667    1.200    4.667    0.533 
#    0.000    0.000    0.000    3.200    0.000    0.000 
#    0.000    0.000    0.000    0.000    0.000    0.000 
#
# Total GULP energy -167081.880948 kJ/mol
# GULP energy per Si atom -5569.396032 kJ/mol
# Density = 1.897486 g / cm^3
# Si number density = 19.018150 Si / 1000 Ang^3
#
#
#
# Elastic Constant Matrix: (Units=GPa)
#
#
# Indices 1 2 3 4 5 6 
#
# 1 71.0233 7.2502 12.9223 0.0000 -14.4089 0.0000
# 2 7.2502 39.5842 11.5293 0.0000 -2.0184 0.0000
# 3 12.9223 11.5293 82.7599 0.0000 1.9435 0.0000
# 4 0.0000 0.0000 0.0000 18.4455 0.0000 5.0196
# 5 -14.4089 -2.0184 1.9435 0.0000 31.3421 0.0000
# 6 0.0000 0.0000 0.0000 5.0196 0.0000 20.1744
#
#
#
# Elastic Compliance Matrix: (Units=1/GPa)
#
#
# Indices 1 2 3 4 5 6 
#
# 1 0.016238 -0.001878 -0.002450 0.000000 0.007496 0.000000
# 2 -0.001878 0.026665 -0.003446 0.000000 0.001067 0.000000
# 3 -0.002450 -0.003446 0.012996 0.000000 -0.002154 0.000000
# 4 0.000000 0.000000 0.000000 0.058151 0.000000 -0.014469
# 5 0.007496 0.001067 -0.002154 0.000000 0.035554 0.000000
# 6 0.000000 0.000000 0.000000 -0.014469 0.000000 0.053168
#
#
# Mechanical properties :
#
#
# Convention : Reuss Voigt Hill
#
# Bulk Modulus (GPa) = 24.78311 28.53012 26.65661
# Shear Modulus (GPa) = 21.57290 24.77009 23.17149
#
# Velocity S-wave (km/s) = 3.37164 3.61285 3.49433
# Velocity P-wave (km/s) = 5.31195 5.69541 5.50702
#
# Compressibility (1/GPa) = 0.04035006
#
# Stress axis : x y z
#
# Youngs Moduli (GPa) = 61.58331 37.50249 76.94448
#
# Poissons Ratio (x) = 0.07044 0.18850
# Poissons Ratio (y) = 0.11568 0.26519
# Poissons Ratio (z) = 0.15087 0.12925
#
# Static dielectric constant tensor:
#      x y z
#    x 1.695200 0.000000 -0.008740 
#    y 0.000000 1.667380 0.000000 
#    z -0.008740 0.000000 1.692560 
# 
# From -- ./inp_files/192186.got.cif
#   From: 2010.05.17/outbox.cif.g08.bks.cpg/sg15_97_cif.got.tgz:192186.got - 2010.06.03 18:47:42.
