data_PCOD9255157
_publ_section_title
;
Structure prediction by ZEFSAII (Michael W. Deem and Ramdas Pophale) SiO2 
 PCOD9255157
Probable space group: C 2/C
;
_chemical_formula_sum "Si O2"
_cell_formula_units_Z 52
_cell_length_a 28.808754
_cell_length_b 7.498721
_cell_length_c 9.079700
_cell_angle_alpha 90.000000
_cell_angle_beta 96.557306
_cell_angle_gamma 90.000000
_cell_volume 1948.645058
_symmetry_space_group_name_H-M "C 2/C"
_symmetry_group_IT_number 15
_symmetry_cell_setting 'monoclinic'
loop_
_space_group_symop_operation_xyz
x,y,z
-x,y,1/2-z
-x,-y,-z
x,-y,1/2+z
1/2+x,1/2+y,z
1/2-x,1/2+y,1/2-z
1/2-x,1/2-y,-z
1/2+x,1/2-y,1/2+z
loop_
_atom_site_type_symbol
_atom_site_label
_atom_site_fract_x
_atom_site_fract_y
_atom_site_fract_z
Si Si1 0.891068 0.753545 0.689921
Si Si2 0.708028 0.335770 0.887538
Si Si3 0.450503 0.906046 0.972493
Si Si4 0.083516 0.202829 0.980201
Si Si5 0.284748 0.060007 0.868595
Si Si6 0.656460 0.868991 0.823580
Si Si7 0.500000 0.695946 0.750000
O O1 0.846063 0.833606 0.588160
O O2 0.934334 0.729252 0.593803
O O3 0.874996 0.547790 0.710250
O O4 0.903254 0.855604 0.847301
O O5 0.706918 0.224771 0.735556
O O6 0.729752 0.527433 0.863067
O O7 0.750000 0.250000 0.000000
O O8 0.420552 0.084447 0.984416
O O9 0.459507 0.804224 0.823517
O O10 0.500000 0.000000 0.000000
O O11 0.124316 0.208861 0.871543
O O12 0.034825 0.126372 0.894398
O O13 0.311101 0.887189 0.808169
O O14 0.307932 0.092458 0.031885
#
# Coordination Sequence:
#
# PCOD9255157 Si02
#       7
#     8   8   8   8   8   8   4
#     4  10  19  31  51  67 111 155 193 232 298 357
#     4  11  22  39  56  86 115 162 217 257 302 359
#     4   9  17  28  44  70 101 148 184 228 286 366
#     4  10  17  29  41  70 101 149 196 223 287 363
#     4  11  21  37  59  79 115 157 214 258 304 349
#     4  10  18  32  52  76 104 156 203 240 295 351
#     4  10  20  24  42  70 106 138 194 228 284 370
#
# _framework density 26.685209
#
# number of rings (size 3 to 8) (size 9 to 14) (size 15 to 20)
#    0.000    1.846    6.154    2.769    2.154    2.462 
#    0.000    0.000    0.000    0.000    0.000    0.000 
#    0.000    0.000    0.000  135.692    4.000    0.000 
#
# Total GULP energy -144854.011594 kJ/mol
# GULP energy per Si atom -5571.308138 kJ/mol
# Density = 2.662447 g / cm^3
# Si number density = 26.685209 Si / 1000 Ang^3
#
#
#
# Elastic Constant Matrix: (Units=GPa)
#
#
# Indices 1 2 3 4 5 6 
#
# 1 162.4843 25.3465 70.9957 0.0000 0.1759 0.0000
# 2 25.3465 65.8167 28.7374 0.0000 7.5294 0.0000
# 3 70.9957 28.7374 147.8797 0.0000 20.9738 0.0000
# 4 0.0000 0.0000 0.0000 8.0035 0.0000 -2.4252
# 5 0.1759 7.5294 20.9738 0.0000 52.9310 0.0000
# 6 0.0000 0.0000 0.0000 -2.4252 0.0000 18.3251
#
#
#
# Elastic Compliance Matrix: (Units=1/GPa)
#
#
# Indices 1 2 3 4 5 6 
#
# 1 0.008068 -0.001645 -0.003796 0.000000 0.001712 0.000000
# 2 -0.001645 0.017004 -0.002302 0.000000 -0.001501 0.000000
# 3 -0.003796 -0.002302 0.009519 0.000000 -0.003432 0.000000
# 4 0.000000 0.000000 0.000000 0.130165 0.000000 0.017226
# 5 0.001712 -0.001501 -0.003432 0.000000 0.020460 0.000000
# 6 0.000000 0.000000 0.000000 0.017226 0.000000 0.056850
#
#
# Mechanical properties :
#
#
# Convention : Reuss Voigt Hill
#
# Bulk Modulus (GPa) = 52.34386 69.59331 60.96858
# Shear Modulus (GPa) = 18.94510 32.59201 25.76855
#
# Velocity S-wave (km/s) = 2.66737 3.49857 3.11086
# Velocity P-wave (km/s) = 5.39856 6.51583 5.98333
#
# Compressibility (1/GPa) = 0.01910444
#
# Stress axis : x y z
#
# Youngs Moduli (GPa) = 123.94592 58.80969 105.05437
#
# Poissons Ratio (x) = 0.09676 0.39883
# Poissons Ratio (y) = 0.20392 0.24179
# Poissons Ratio (z) = 0.47055 0.13536
#
# Static dielectric constant tensor:
#      x y z
#    x 2.138720 0.000000 -0.067900 
#    y 0.000000 2.198790 0.000000 
#    z -0.067900 0.000000 2.142000 
# 
# From -- ./inp_files/68880.got.cif
#   From: 2010.05.17/outbox.cif.g08.bks.cpg/sg15_35_cif.got.tgz:68880.got - 2010.06.03 18:47:42.
