data_PCOD9255194
_publ_section_title
;
Structure prediction by ZEFSAII (Michael W. Deem and Ramdas Pophale) SiO2 
 PCOD9255194
Probable space group: C 2/C
;
_chemical_formula_sum "Si O2"
_cell_formula_units_Z 48
_cell_length_a 22.279046
_cell_length_b 6.817228
_cell_length_c 19.361807
_cell_angle_alpha 90.000000
_cell_angle_beta 137.613110
_cell_angle_gamma 90.000000
_cell_volume 1982.422153
_symmetry_space_group_name_H-M "C 2/C"
_symmetry_group_IT_number 15
_symmetry_cell_setting 'monoclinic'
loop_
_space_group_symop_operation_xyz
x,y,z
-x,y,1/2-z
-x,-y,-z
x,-y,1/2+z
1/2+x,1/2+y,z
1/2-x,1/2+y,1/2-z
1/2-x,1/2-y,-z
1/2+x,1/2-y,1/2+z
loop_
_atom_site_type_symbol
_atom_site_label
_atom_site_fract_x
_atom_site_fract_y
_atom_site_fract_z
Si Si1 0.245903 0.147921 0.686827
Si Si2 0.062639 0.053615 0.741499
Si Si3 0.556335 0.437075 0.981367
Si Si4 0.896587 0.587432 0.713660
Si Si5 0.256057 0.899603 0.356801
Si Si6 0.084268 0.519191 0.924866
O O1 0.157523 0.033164 0.590472
O O2 0.326030 0.051246 0.713745
O O3 0.243836 0.364894 0.653748
O O4 0.255501 0.170532 0.776976
O O5 0.080693 0.819804 0.767881
O O6 0.161610 0.142263 0.814678
O O7 0.000000 0.119203 0.750000
O O8 0.996896 0.057525 0.620841
O O9 0.563820 0.213212 0.955840
O O10 0.500000 0.500000 0.000000
O O11 0.868907 0.552207 0.610517
O O12 0.984520 0.473851 0.814096
O O13 0.348761 0.875773 0.477244
#
# Coordination Sequence:
#
# PCOD9255194 Si02
#       6
#     8   8   8   8   8   8
#     4  10  21  32  52  77 109 140 172 221 264 320
#     4  10  17  29  50  78 106 127 174 227 261 301
#     4  10  17  29  48  76 110 134 166 217 275 305
#     4   9  17  32  50  76 103 132 175 226 265 295
#     4  10  21  33  51  81 108 137 178 214 271 314
#     4   9  18  32  52  78 105 136 178 226 261 311
#
# _framework density 24.212804999999999
#
# number of rings (size 3 to 8) (size 9 to 14) (size 15 to 20)
#    0.000    2.333    5.000    0.000    2.333    2.667 
#    0.000    0.000    0.000    1.000    4.333    0.000 
#    0.000    0.000    0.000    0.000    0.000    0.000 
#
# Total GULP energy -133852.243291 kJ/mol
# GULP energy per Si atom -5577.176804 kJ/mol
# Density = 2.415770 g / cm^3
# Si number density = 24.212805 Si / 1000 Ang^3
#
#
#
# Elastic Constant Matrix: (Units=GPa)
#
#
# Indices 1 2 3 4 5 6 
#
# 1 216.4586 22.4262 69.8564 0.0000 -6.3276 0.0000
# 2 22.4262 86.3676 24.9017 0.0001 0.7825 0.0001
# 3 69.8564 24.9017 145.8917 0.0000 -16.6814 0.0001
# 4 0.0000 0.0001 0.0000 0.4870 0.0000 1.5823
# 5 -6.3276 0.7825 -16.6814 0.0000 49.1705 0.0000
# 6 0.0000 0.0001 0.0001 1.5823 0.0000 16.5454
#
#
#
# Elastic Compliance Matrix: (Units=1/GPa)
#
#
# Indices 1 2 3 4 5 6 
#
# 1 0.005506 -0.000698 -0.002533 0.000000 -0.000140 0.000000
# 2 -0.000698 0.012308 -0.001872 -0.000003 -0.000921 0.000000
# 3 -0.002533 -0.001872 0.008690 0.000000 0.002652 0.000000
# 4 0.000000 -0.000003 0.000000 2.979360 0.000000 -0.284926
# 5 -0.000140 -0.000921 0.002652 0.000000 0.021234 0.000000
# 6 0.000000 0.000000 0.000000 -0.284926 0.000000 0.087688
#
#
# Mechanical properties :
#
#
# Convention : Reuss Voigt Hill
#
# Bulk Modulus (GPa) = 61.35884 75.89848 68.62866
# Shear Modulus (GPa) = 1.59723 35.34282 18.47003
#
# Velocity S-wave (km/s) = 0.81308 3.82471 2.76492
# Velocity P-wave (km/s) = 5.12620 7.13576 6.21277
#
# Compressibility (1/GPa) = 0.01629757
#
# Stress axis : x y z
#
# Youngs Moduli (GPa) = 181.63610 81.25010 115.07499
#
# Poissons Ratio (x) = 0.05671 0.29149
# Poissons Ratio (y) = 0.12678 0.21540
# Poissons Ratio (z) = 0.46009 0.15209
#
# Static dielectric constant tensor:
#      x y z
#    x 2.003240 0.000000 0.014500 
#    y 0.000000 2.061950 0.000000 
#    z 0.014500 0.000000 1.892790 
# 
# From -- ./inp_files/214074.got.cif
#   From: 2010.05.17/outbox.cif.g08.bks.cpg/sg15_108_cif.got.tgz:214074.got - 2010.06.03 18:47:42.
