data_PCOD9255919
_publ_section_title
;
Structure prediction by ZEFSAII (Michael W. Deem and Ramdas Pophale) SiO2 
 PCOD9255919
Probable space group: C 2/C
;
_chemical_formula_sum "Si O2"
_cell_formula_units_Z 40
_cell_length_a 7.318726
_cell_length_b 22.843613
_cell_length_c 11.304356
_cell_angle_alpha 90.000000
_cell_angle_beta 81.607396
_cell_angle_gamma 90.000000
_cell_volume 1869.692760
_symmetry_space_group_name_H-M "C 2/C"
_symmetry_group_IT_number 15
_symmetry_cell_setting 'monoclinic'
loop_
_space_group_symop_operation_xyz
x,y,z
-x,y,1/2-z
-x,-y,-z
x,-y,1/2+z
1/2+x,1/2+y,z
1/2-x,1/2+y,1/2-z
1/2-x,1/2-y,-z
1/2+x,1/2-y,1/2+z
loop_
_atom_site_type_symbol
_atom_site_label
_atom_site_fract_x
_atom_site_fract_y
_atom_site_fract_z
Si Si1 0.218995 0.042344 0.230451
Si Si2 0.490778 0.224032 0.384384
Si Si3 0.207540 0.024570 0.502314
Si Si4 0.147362 0.155753 0.526490
Si Si5 0.357441 0.668778 0.351948
O O1 0.286683 0.027993 0.358470
O O2 0.222251 0.112025 0.207645
O O3 0.000000 0.026358 0.250000
O O4 0.294918 0.013476 0.101351
O O5 0.500000 0.203889 0.250000
O O6 0.332199 0.187246 0.462744
O O7 0.441349 0.292579 0.387822
O O8 0.691682 0.207902 0.413382
O O9 0.197078 0.090192 0.557314
O O10 0.000000 0.000000 0.500000
O O11 0.990329 0.146622 0.442241
O O12 0.500000 0.701414 0.250000
#
# Coordination Sequence:
#
# PCOD9255919 Si02
#       5
#     8   8   8   8   8
#     4   9  17  30  58  84 108 149 196 228 290 347
#     4  11  23  36  58  87 114 150 194 240 289 347
#     4  10  17  33  57  84 111 153 191 235 288 348
#     4  11  22  38  57  86 117 149 194 238 291 348
#     4  11  18  38  61  80 114 158 189 233 293 352
#
# _framework density 21.393889999999999
#
# number of rings (size 3 to 8) (size 9 to 14) (size 15 to 20)
#    0.000    1.600    8.000    0.600    0.000    2.400 
#    0.000    1.000    0.000    0.000    0.000    0.000 
#    0.000    0.000    0.000    0.000    0.000    0.000 
#
# Total GULP energy -111358.772577 kJ/mol
# GULP energy per Si atom -5567.938629 kJ/mol
# Density = 2.134520 g / cm^3
# Si number density = 21.393890 Si / 1000 Ang^3
#
#
#
# Elastic Constant Matrix: (Units=GPa)
#
#
# Indices 1 2 3 4 5 6 
#
# 1 71.8347 43.6918 47.2442 0.0000 1.0773 0.0000
# 2 43.6918 110.3695 41.3137 0.0000 -8.8673 0.0000
# 3 47.2442 41.3137 105.2410 0.0000 -0.9731 0.0000
# 4 0.0000 0.0000 0.0000 50.1942 0.0000 32.2254
# 5 1.0773 -8.8673 -0.9731 0.0000 16.7301 0.0000
# 6 0.0000 0.0000 0.0000 32.2254 0.0000 100.6372
#
#
#
# Elastic Compliance Matrix: (Units=1/GPa)
#
#
# Indices 1 2 3 4 5 6 
#
# 1 0.023248 -0.006705 -0.007855 0.000000 -0.005508 0.000000
# 2 -0.006705 0.013064 -0.002052 0.000000 0.007237 0.000000
# 3 -0.007855 -0.002052 0.013836 0.000000 0.000223 0.000000
# 4 0.000000 0.000000 0.000000 0.025078 0.000000 -0.008030
# 5 -0.005508 0.007237 0.000223 0.000000 0.063976 0.000000
# 6 0.000000 0.000000 0.000000 -0.008030 0.000000 0.012508
#
#
# Mechanical properties :
#
#
# Convention : Reuss Voigt Hill
#
# Bulk Modulus (GPa) = 59.08723 61.32717 60.20720
# Shear Modulus (GPa) = 26.23641 43.85866 35.04754
#
# Velocity S-wave (km/s) = 3.50573 4.53267 4.05186
# Velocity P-wave (km/s) = 6.63819 7.49142 7.07767
#
# Compressibility (1/GPa) = 0.01692413
#
# Stress axis : x y z
#
# Youngs Moduli (GPa) = 43.01472 76.54483 72.27721
#
# Poissons Ratio (x) = 0.51326 0.56773
# Poissons Ratio (y) = 0.28843 0.14828
# Poissons Ratio (z) = 0.33788 0.15703
#
# Static dielectric constant tensor:
#      x y z
#    x 1.776090 0.000000 -0.016480 
#    y 0.000000 1.762510 0.000000 
#    z -0.016480 0.000000 1.845970 
# 
# From -- ./inp_files/77621.got.cif
#   From: 2010.05.17/outbox.cif.g08.bks.cpg/sg15_39_cif.got.tgz:77621.got - 2010.06.03 18:47:42.
