data_PCOD9255108
_publ_section_title
;
Structure prediction by ZEFSAII (Michael W. Deem and Ramdas Pophale) SiO2 
 PCOD9255108
Probable space group: C 2/C
;
_chemical_formula_sum "Si O2"
_cell_formula_units_Z 64
_cell_length_a 14.448057
_cell_length_b 15.231650
_cell_length_c 29.140629
_cell_angle_alpha 90.000000
_cell_angle_beta 151.061659
_cell_angle_gamma 90.000000
_cell_volume 3103.003926
_symmetry_space_group_name_H-M "C 2/C"
_symmetry_group_IT_number 15
_symmetry_cell_setting 'monoclinic'
loop_
_space_group_symop_operation_xyz
x,y,z
-x,y,1/2-z
-x,-y,-z
x,-y,1/2+z
1/2+x,1/2+y,z
1/2-x,1/2+y,1/2-z
1/2-x,1/2-y,-z
1/2+x,1/2-y,1/2+z
loop_
_atom_site_type_symbol
_atom_site_label
_atom_site_fract_x
_atom_site_fract_y
_atom_site_fract_z
Si Si1 0.553010 0.767308 0.958868
Si Si2 0.167638 0.299735 0.785030
Si Si3 0.086726 0.554196 0.604920
Si Si4 0.475058 0.333539 0.137669
Si Si5 0.325813 0.101556 0.298092
Si Si6 0.212083 0.987891 0.395062
Si Si7 0.437872 0.764435 0.013834
Si Si8 0.946925 0.817418 0.676276
O O1 0.498444 0.681192 0.905347
O O2 0.482461 0.844686 0.895014
O O3 0.779266 0.779062 0.062952
O O4 0.462080 0.777296 0.969272
O O5 0.139374 0.383313 0.740048
O O6 0.386543 0.299908 0.897871
O O7 0.000000 0.295605 0.750000
O O8 0.133529 0.214973 0.736948
O O9 0.163523 0.498568 0.680721
O O10 0.250765 0.559153 0.637251
O O11 0.915066 0.496162 0.508533
O O12 0.992237 0.649056 0.566563
O O13 0.428367 0.430764 0.134701
O O14 0.132313 0.153873 0.227974
O O15 0.149549 0.086835 0.357649
O O16 0.207404 0.756612 0.917112
O O17 0.000000 0.782566 0.750000
#
# Coordination Sequence:
#
# PCOD9255108 Si02
#       8
#     8   8   8   8   8   8   8   8
#     4  10  17  31  51  75 113 147 182 220 272 337
#     4  11  23  35  53  79 111 147 187 236 288 327
#     4  10  17  29  49  76 110 139 174 225 268 328
#     4  10  19  29  49  79 115 143 175 224 280 335
#     4  11  21  35  51  80 114 149 190 225 284 344
#     4  10  17  28  47  78 109 140 173 218 276 328
#     4  11  21  35  52  82 115 146 188 228 278 333
#     4  11  21  32  53  78 111 153 187 225 281 334
#
# _framework density 20.625174999999999
#
# number of rings (size 3 to 8) (size 9 to 14) (size 15 to 20)
#    0.000    1.500    6.250    0.750    1.750    1.000 
#    0.000    0.000    0.000    0.000    0.000   10.500 
#    0.000    0.000    0.000    0.000    0.000    0.000 
#
# Total GULP energy -178403.301479 kJ/mol
# GULP energy per Si atom -5575.103171 kJ/mol
# Density = 2.057823 g / cm^3
# Si number density = 20.625175 Si / 1000 Ang^3
#
#
#
# Elastic Constant Matrix: (Units=GPa)
#
#
# Indices 1 2 3 4 5 6 
#
# 1 52.1977 22.1614 29.4376 0.0002 -9.5550 0.0000
# 2 22.1614 35.9076 20.0749 0.0000 -12.5471 0.0000
# 3 29.4376 20.0749 124.4062 -0.0001 -1.2032 0.0000
# 4 0.0002 0.0000 -0.0001 4.5111 0.0002 -0.3135
# 5 -9.5550 -12.5471 -1.2032 0.0002 29.0024 0.0000
# 6 0.0000 0.0000 0.0000 -0.3135 0.0000 29.8727
#
#
#
# Elastic Compliance Matrix: (Units=1/GPa)
#
#
# Indices 1 2 3 4 5 6 
#
# 1 0.028046 -0.013776 -0.004383 -0.000001 0.003098 0.000000
# 2 -0.013776 0.043257 -0.003585 -0.000001 0.014027 0.000000
# 3 -0.004383 -0.003585 0.009629 0.000001 -0.002596 0.000000
# 4 -0.000001 -0.000001 0.000001 0.221837 -0.000002 0.002328
# 5 0.003098 0.014027 -0.002596 -0.000002 0.041461 0.000000
# 6 0.000000 0.000000 0.000000 0.002328 0.000000 0.033500
#
#
# Mechanical properties :
#
#
# Convention : Reuss Voigt Hill
#
# Bulk Modulus (GPa) = 26.70717 39.53992 33.12354
# Shear Modulus (GPa) = 11.52872 22.06642 16.79757
#
# Velocity S-wave (km/s) = 2.36681 3.27445 2.85690
# Velocity P-wave (km/s) = 4.52172 5.78864 5.19395
#
# Compressibility (1/GPa) = 0.03744313
#
# Stress axis : x y z
#
# Youngs Moduli (GPa) = 35.65562 23.11763 103.85541
#
# Poissons Ratio (x) = 0.31847 0.45524
# Poissons Ratio (y) = 0.49120 0.37229
# Poissons Ratio (z) = 0.15629 0.08287
#
# Static dielectric constant tensor:
#      x y z
#    x 1.780930 0.000000 0.012960 
#    y 0.000000 1.752550 0.000000 
#    z 0.012960 0.000000 1.840050 
# 
# From -- ./inp_files/314284.got.cif
#   From: 2010.05.17/outbox.cif.g08.bks.cpg/sg15_158_cif.got.tgz:314284.got - 2010.06.03 18:47:42.
