data_PCOD9255766
_publ_section_title
;
Structure prediction by ZEFSAII (Michael W. Deem and Ramdas Pophale) SiO2 
 PCOD9255766
Probable space group: C 2/C
;
_chemical_formula_sum "Si O2"
_cell_formula_units_Z 40
_cell_length_a 9.136657
_cell_length_b 22.433713
_cell_length_c 13.837196
_cell_angle_alpha 90.000000
_cell_angle_beta 145.077508
_cell_angle_gamma 90.000000
_cell_volume 1623.632096
_symmetry_space_group_name_H-M "C 2/C"
_symmetry_group_IT_number 15
_symmetry_cell_setting 'monoclinic'
loop_
_space_group_symop_operation_xyz
x,y,z
-x,y,1/2-z
-x,-y,-z
x,-y,1/2+z
1/2+x,1/2+y,z
1/2-x,1/2+y,1/2-z
1/2-x,1/2-y,-z
1/2+x,1/2-y,1/2+z
loop_
_atom_site_type_symbol
_atom_site_label
_atom_site_fract_x
_atom_site_fract_y
_atom_site_fract_z
Si Si1 0.352243 0.151551 0.481340
Si Si2 0.188070 0.786329 0.075375
Si Si3 0.246474 0.516718 0.504668
Si Si4 0.077457 0.867426 0.183662
Si Si5 0.717005 0.455144 0.769564
O O1 0.169015 0.170405 0.471643
O O2 0.416340 0.219188 0.484322
O O3 0.616949 0.120396 0.656730
O O4 0.256870 0.108115 0.344711
O O5 0.500000 0.780550 0.250000
O O6 0.051186 0.817059 0.089998
O O7 0.398540 0.576754 0.564777
O O8 0.436132 0.464375 0.571682
O O9 0.256381 0.501808 0.625910
O O10 0.948259 0.527465 0.324765
O O11 0.000000 0.849074 0.250000
#
# Coordination Sequence:
#
# PCOD9255766 Si02
#       5
#     8   8   8   8   8
#     4  10  19  36  53  81 110 147 196 229 281 339
#     4   9  22  35  53  79 113 151 189 234 281 339
#     4  10  19  32  55  88 109 143 195 227 291 336
#     4  11  18  36  56  78 112 146 187 235 287 341
#     4  10  17  32  57  83 110 148 187 239 277 344
#
# _framework density 24.636123000000001
#
# number of rings (size 3 to 8) (size 9 to 14) (size 15 to 20)
#    0.000    2.000    4.000    1.200    2.800    0.800 
#    0.000    1.000    0.000    2.400    0.000    0.000 
#    0.000    0.000    0.000    0.000    0.000    0.000 
#
# Total GULP energy -111523.225266 kJ/mol
# GULP energy per Si atom -5576.161263 kJ/mol
# Density = 2.458005 g / cm^3
# Si number density = 24.636123 Si / 1000 Ang^3
#
#
#
# Elastic Constant Matrix: (Units=GPa)
#
#
# Indices 1 2 3 4 5 6 
#
# 1 120.3393 48.2553 17.0366 0.0000 4.0188 0.0000
# 2 48.2553 147.6153 16.7009 0.0000 4.4701 0.0000
# 3 17.0366 16.7009 61.9128 0.0000 44.9700 0.0000
# 4 0.0000 0.0000 0.0000 14.9974 0.0000 17.9564
# 5 4.0188 4.4701 44.9700 0.0000 49.9823 0.0000
# 6 0.0000 0.0000 0.0000 17.9564 0.0000 29.6164
#
#
#
# Elastic Compliance Matrix: (Units=1/GPa)
#
#
# Indices 1 2 3 4 5 6 
#
# 1 0.009981 -0.002855 -0.004557 0.000000 0.003553 0.000000
# 2 -0.002855 0.007974 -0.002927 0.000000 0.002150 0.000000
# 3 -0.004557 -0.002927 0.051195 0.000000 -0.045433 0.000000
# 4 0.000000 0.000000 0.000000 0.243286 0.000000 -0.147505
# 5 0.003553 0.002150 -0.045433 0.000000 0.060406 0.000000
# 6 0.000000 0.000000 0.000000 -0.147505 0.000000 0.123197
#
#
# Mechanical properties :
#
#
# Convention : Reuss Voigt Hill
#
# Bulk Modulus (GPa) = 20.62996 54.87257 37.75127
# Shear Modulus (GPa) = 9.38306 35.44418 22.41362
#
# Velocity S-wave (km/s) = 1.95370 3.79714 3.01954
# Velocity P-wave (km/s) = 3.67169 6.44562 5.24534
#
# Compressibility (1/GPa) = 0.04847320
#
# Stress axis : x y z
#
# Youngs Moduli (GPa) = 100.18942 125.41341 19.53299
#
# Poissons Ratio (x) = 0.35803 0.08901
# Poissons Ratio (y) = 0.28602 0.05717
# Poissons Ratio (z) = 0.45656 0.36704
#
# Static dielectric constant tensor:
#      x y z
#    x 2.012500 0.000000 -0.024540 
#    y 0.000000 1.947090 0.000000 
#    z -0.024540 0.000000 2.108030 
# 
# From -- ./inp_files/137631.got.cif
#   From: 2010.05.17/outbox.cif.g08.bks.cpg/sg15_69_cif.got.tgz:137631.got - 2010.06.03 18:47:42.
