data_PCOD9255837
_publ_section_title
;
Structure prediction by ZEFSAII (Michael W. Deem and Ramdas Pophale) SiO2 
 PCOD9255837
Probable space group: C 2/C
;
_chemical_formula_sum "Si O2"
_cell_formula_units_Z 56
_cell_length_a 24.770835
_cell_length_b 7.383026
_cell_length_c 24.841033
_cell_angle_alpha 90.000000
_cell_angle_beta 153.407422
_cell_angle_gamma 90.000000
_cell_volume 2033.652490
_symmetry_space_group_name_H-M "C 2/C"
_symmetry_group_IT_number 15
_symmetry_cell_setting 'monoclinic'
loop_
_space_group_symop_operation_xyz
x,y,z
-x,y,1/2-z
-x,-y,-z
x,-y,1/2+z
1/2+x,1/2+y,z
1/2-x,1/2+y,1/2-z
1/2-x,1/2-y,-z
1/2+x,1/2-y,1/2+z
loop_
_atom_site_type_symbol
_atom_site_label
_atom_site_fract_x
_atom_site_fract_y
_atom_site_fract_z
Si Si1 0.583769 0.502321 0.782030
Si Si2 0.294101 0.512052 0.782809
Si Si3 0.968966 0.792503 0.500078
Si Si4 0.131300 0.880875 0.983068
Si Si5 0.062075 0.471123 0.649019
Si Si6 0.817846 0.534654 0.937305
Si Si7 0.113965 0.588760 0.817341
O O1 0.500000 0.601865 0.750000
O O2 0.493260 0.440524 0.654305
O O3 0.700680 0.606152 0.865540
O O4 0.618378 0.303358 0.836175
O O5 0.394432 0.357560 0.880488
O O6 0.190810 0.486501 0.734741
O O7 0.240740 0.514903 0.675085
O O8 0.384220 0.684410 0.873071
O O9 0.896496 0.912616 0.478793
O O10 0.984236 0.595892 0.537956
O O11 0.159005 0.662434 0.012367
O O12 0.245565 0.968702 0.055239
O O13 0.087299 0.555233 0.730296
O O14 0.941255 0.347322 0.552121
O O15 0.000000 0.518243 0.750000
#
# Coordination Sequence:
#
# PCOD9255837 Si02
#       7
#     8   8   8   8   8   8   8
#     4  10  19  29  48  71 100 138 171 193 239 306
#     4  11  21  34  50  70  95 138 178 206 256 290
#     4  10  20  34  52  69  98 137 170 212 245 298
#     4  10  17  33  49  66 103 137 167 200 245 288
#     4  11  21  34  50  74 104 139 168 210 252 293
#     4  10  20  31  46  71 100 132 169 207 238 293
#     4  10  19  27  45  71 100 135 170 191 234 302
#
# _framework density 27.536659
#
# number of rings (size 3 to 8) (size 9 to 14) (size 15 to 20)
#    0.000    1.714    5.714    1.286    4.000    1.714 
#    0.000    0.000    0.000    0.000    0.000    0.000 
#    0.000    2.286    0.000    2.000    0.286    0.286 
#
# Total GULP energy -155997.673874 kJ/mol
# GULP energy per Si atom -5571.345495 kJ/mol
# Density = 2.747398 g / cm^3
# Si number density = 27.536659 Si / 1000 Ang^3
#
#
#
# Elastic Constant Matrix: (Units=GPa)
#
#
# Indices 1 2 3 4 5 6 
#
# 1 164.8983 -12.2689 42.2929 0.0000 70.8056 0.0000
# 2 -12.2689 40.2668 4.0005 -0.0002 -8.5082 -0.0001
# 3 42.2929 4.0005 164.4157 0.0000 43.1004 0.0000
# 4 0.0000 -0.0002 0.0000 8.4968 0.0000 4.8484
# 5 70.8056 -8.5082 43.1004 0.0000 75.6533 0.0000
# 6 0.0000 -0.0001 0.0000 4.8484 0.0000 10.2760
#
#
#
# Elastic Compliance Matrix: (Units=1/GPa)
#
#
# Indices 1 2 3 4 5 6 
#
# 1 0.010194 0.001165 -0.000216 0.000000 -0.009287 0.000000
# 2 0.001165 0.025940 -0.001657 0.000001 0.002771 0.000000
# 3 -0.000216 -0.001657 0.007258 0.000000 -0.004119 0.000000
# 4 0.000000 0.000001 0.000000 0.161049 0.000000 -0.075986
# 5 -0.009287 0.002771 -0.004119 0.000000 0.024568 0.000000
# 6 0.000000 0.000000 0.000000 -0.075986 0.000000 0.133166
#
#
# Mechanical properties :
#
#
# Convention : Reuss Voigt Hill
#
# Bulk Modulus (GPa) = 23.82358 48.62551 36.22455
# Shear Modulus (GPa) = 13.24215 41.25565 27.24890
#
# Velocity S-wave (km/s) = 2.19530 3.87487 3.14912
# Velocity P-wave (km/s) = 3.88538 6.14136 5.13870
#
# Compressibility (1/GPa) = 0.04197521
#
# Stress axis : x y z
#
# Youngs Moduli (GPa) = 98.09602 38.55123 137.78254
#
# Poissons Ratio (x) = -0.04492 0.02978
# Poissons Ratio (y) = -0.11431 0.22834
# Poissons Ratio (z) = 0.02120 0.06389
#
# Static dielectric constant tensor:
#      x y z
#    x 2.549230 0.000000 0.253260 
#    y 0.000000 2.837770 0.000000 
#    z 0.253260 0.000000 2.294000 
# 
# From -- ./inp_files/281889.got.cif
#   From: 2010.05.17/outbox.cif.g08.bks.cpg/sg15_141_cif.got.tgz:281889.got - 2010.06.03 18:47:42.
