data_PCOD9255275
_publ_section_title
;
Structure prediction by ZEFSAII (Michael W. Deem and Ramdas Pophale) SiO2 
 PCOD9255275
Probable space group: C 2/C
;
_chemical_formula_sum "Si O2"
_cell_formula_units_Z 48
_cell_length_a 15.950938
_cell_length_b 9.646654
_cell_length_c 23.543970
_cell_angle_alpha 90.000000
_cell_angle_beta 142.181848
_cell_angle_gamma 90.000000
_cell_volume 2221.337589
_symmetry_space_group_name_H-M "C 2/C"
_symmetry_group_IT_number 15
_symmetry_cell_setting 'monoclinic'
loop_
_space_group_symop_operation_xyz
x,y,z
-x,y,1/2-z
-x,-y,-z
x,-y,1/2+z
1/2+x,1/2+y,z
1/2-x,1/2+y,1/2-z
1/2-x,1/2-y,-z
1/2+x,1/2-y,1/2+z
loop_
_atom_site_type_symbol
_atom_site_label
_atom_site_fract_x
_atom_site_fract_y
_atom_site_fract_z
Si Si1 0.283163 0.336901 0.662571
Si Si2 0.316239 0.466084 0.515286
Si Si3 0.656741 0.033315 0.825353
Si Si4 0.718997 0.142859 0.740339
Si Si5 0.077039 0.333275 0.461330
Si Si6 0.961083 0.096120 0.785266
O O1 0.341236 0.201393 0.660602
O O2 0.279846 0.287886 0.725300
O O3 0.136043 0.357339 0.555759
O O4 0.380758 0.466562 0.713236
O O5 0.260724 0.530592 0.426638
O O6 0.180845 0.418012 0.476607
O O7 0.402409 0.328011 0.545202
O O8 0.409815 0.556573 0.606685
O O9 0.500000 0.991784 0.750000
O O10 0.712329 0.034666 0.790331
O O11 0.578214 0.126034 0.631478
O O12 0.847221 0.146373 0.768164
O O13 0.000000 0.183142 0.750000
#
# Coordination Sequence:
#
# PCOD9255275 Si02
#       6
#     8   8   8   8   8   8
#     4   9  19  33  53  80 107 137 180 225 273 318
#     4  10  17  29  58  82 107 139 177 227 281 316
#     4   9  16  31  53  80 110 135 170 224 276 318
#     4  10  22  33  52  86 115 141 180 229 279 326
#     4  10  17  31  56  84 108 141 174 232 277 323
#     4  12  22  35  54  83 112 147 186 227 269 326
#
# _framework density 21.608602000000001
#
# number of rings (size 3 to 8) (size 9 to 14) (size 15 to 20)
#    1.000    1.000    5.000    0.500    2.333    1.333 
#    0.000    0.000    0.000    2.000    0.000    0.000 
#    0.000    0.000    0.000    0.000    0.000    0.000 
#
# Total GULP energy -133747.327759 kJ/mol
# GULP energy per Si atom -5572.805323 kJ/mol
# Density = 2.155942 g / cm^3
# Si number density = 21.608602 Si / 1000 Ang^3
#
#
#
# Elastic Constant Matrix: (Units=GPa)
#
#
# Indices 1 2 3 4 5 6 
#
# 1 108.4943 2.4272 54.3278 0.0000 13.1562 0.0000
# 2 2.4272 18.8401 9.3887 0.0000 -3.5637 0.0000
# 3 54.3278 9.3887 189.1918 0.0000 -9.6831 0.0000
# 4 0.0000 0.0000 0.0000 0.7017 0.0000 -2.4198
# 5 13.1562 -3.5637 -9.6831 0.0000 19.7223 0.0000
# 6 0.0000 0.0000 0.0000 -2.4198 0.0000 6.0917
#
#
#
# Elastic Compliance Matrix: (Units=1/GPa)
#
#
# Indices 1 2 3 4 5 6 
#
# 1 0.012596 -0.001611 -0.004085 0.000000 -0.010699 0.000000
# 2 -0.001611 0.056135 -0.001794 0.000000 0.010337 0.000000
# 3 -0.004085 -0.001794 0.006842 0.000000 0.005760 0.000000
# 4 0.000000 0.000000 0.000000 -3.853002 0.000000 -1.530505
# 5 -0.010699 0.010337 0.005760 0.000000 0.062537 0.000000
# 6 0.000000 0.000000 0.000000 -1.530505 0.000000 -0.443795
#
#
# Mechanical properties :
#
#
# Convention : Reuss Voigt Hill
#
# Bulk Modulus (GPa) = 16.50330 49.86818 33.18574
# Shear Modulus (GPa) = -1.21256 21.99530 10.39137
#
# Velocity S-wave (km/s) = -0.74991 3.19391 2.19530
# Velocity P-wave (km/s) = 2.62757 6.06048 4.67084
#
# Compressibility (1/GPa) = 0.06059395
#
# Stress axis : x y z
#
# Youngs Moduli (GPa) = 79.39158 17.81420 146.14760
#
# Poissons Ratio (x) = 0.02870 0.59696
# Poissons Ratio (y) = 0.12790 0.26220
# Poissons Ratio (z) = 0.32428 0.03196
#
# Static dielectric constant tensor:
#      x y z
#    x 1.941810 0.000000 -0.052980 
#    y 0.000000 1.838150 0.000000 
#    z -0.052980 0.000000 1.777120 
# 
# From -- ./inp_files/153589.got.cif
#   From: 2010.05.17/outbox.cif.g08.bks.cpg/sg15_77_cif.got.tgz:153589.got - 2010.06.03 18:47:42.
