data_PCOD9255013
_publ_section_title
;
Structure prediction by ZEFSAII (Michael W. Deem and Ramdas Pophale) SiO2 
 PCOD9255013
Probable space group: C 2/C
;
_chemical_formula_sum "Si O2"
_cell_formula_units_Z 64
_cell_length_a 12.713465
_cell_length_b 17.160910
_cell_length_c 14.175699
_cell_angle_alpha 90.000000
_cell_angle_beta 123.864142
_cell_angle_gamma 90.000000
_cell_volume 2568.122683
_symmetry_space_group_name_H-M "C 2/C"
_symmetry_group_IT_number 15
_symmetry_cell_setting 'monoclinic'
loop_
_space_group_symop_operation_xyz
x,y,z
-x,y,1/2-z
-x,-y,-z
x,-y,1/2+z
1/2+x,1/2+y,z
1/2-x,1/2+y,1/2-z
1/2-x,1/2-y,-z
1/2+x,1/2-y,1/2+z
loop_
_atom_site_type_symbol
_atom_site_label
_atom_site_fract_x
_atom_site_fract_y
_atom_site_fract_z
Si Si1 0.327521 0.200612 0.631032
Si Si2 0.118581 0.946025 0.713529
Si Si3 0.420588 0.619734 0.834399
Si Si4 0.158824 0.345315 0.607059
Si Si5 0.447601 0.199009 0.874589
Si Si6 0.306272 0.225977 0.187054
Si Si7 0.696521 0.597602 0.036776
Si Si8 0.339182 0.423478 0.512235
O O1 0.226491 0.262776 0.614706
O O2 0.378339 0.158477 0.751130
O O3 0.441153 0.241635 0.629933
O O4 0.271881 0.138758 0.530589
O O5 0.226783 0.907118 0.830963
O O6 0.160564 0.924794 0.627308
O O7 0.116881 0.037949 0.730482
O O8 0.970124 0.922052 0.635666
O O9 0.367697 0.690679 0.745280
O O10 0.571035 0.627146 0.921351
O O11 0.377622 0.603641 0.922939
O O12 0.024439 0.352014 0.487197
O O13 0.129495 0.329387 0.702782
O O14 0.343842 0.255032 0.867736
O O15 0.296049 0.169203 0.090892
O O16 0.719434 0.510110 0.010609
#
# Coordination Sequence:
#
# PCOD9255013 Si02
#       8
#     8   8   8   8   8   8   8   8
#     4  10  20  29  45  59  87 128 155 182 212 261
#     4   8  17  27  45  62  79 114 154 186 225 255
#     4   9  14  28  44  62  83 114 150 188 220 261
#     4  10  18  29  41  59  89 115 150 185 214 263
#     4  10  20  30  39  63  90 125 150 178 217 269
#     4  10  17  27  45  63  92 121 146 178 228 270
#     4   8  16  26  46  63  82 116 157 188 219 266
#     4   9  15  30  45  61  81 117 162 190 215 253
#
# _framework density 24.920928
#
# number of rings (size 3 to 8) (size 9 to 14) (size 15 to 20)
#    0.000    2.750    2.500    2.625    5.250    0.000 
#    0.000    0.625    2.750    0.000    0.000    0.000 
#    0.000    1.000    1.250    3.000    2.500    0.000 
#
# Total GULP energy -178294.859969 kJ/mol
# GULP energy per Si atom -5571.714374 kJ/mol
# Density = 2.486421 g / cm^3
# Si number density = 24.920928 Si / 1000 Ang^3
#
#
#
# Elastic Constant Matrix: (Units=GPa)
#
#
# Indices 1 2 3 4 5 6 
#
# 1 29.7623 -5.2093 7.3936 0.0000 -1.6890 0.0000
# 2 -5.2093 180.3618 99.9952 0.0000 9.4451 0.0000
# 3 7.3936 99.9952 218.1528 0.0000 6.6933 0.0000
# 4 0.0000 0.0000 0.0000 52.8807 0.0000 0.8687
# 5 -1.6890 9.4451 6.6933 0.0000 16.1464 0.0000
# 6 0.0000 0.0000 0.0000 0.8687 0.0000 16.6778
#
#
#
# Elastic Compliance Matrix: (Units=1/GPa)
#
#
# Indices 1 2 3 4 5 6 
#
# 1 0.034702 0.002059 -0.002223 0.000000 0.003347 0.000000
# 2 0.002059 0.007699 -0.003512 0.000000 -0.002833 0.000000
# 3 -0.002223 -0.003512 0.006293 0.000000 -0.000787 0.000000
# 4 0.000000 0.000000 0.000000 0.018927 0.000000 -0.000986
# 5 0.003347 -0.002833 -0.000787 0.000000 0.064266 0.000000
# 6 0.000000 0.000000 0.000000 -0.000986 0.000000 0.060011
#
#
# Mechanical properties :
#
#
# Convention : Reuss Voigt Hill
#
# Bulk Modulus (GPa) = 24.18743 70.29288 47.24016
# Shear Modulus (GPa) = 23.47073 38.88081 31.17577
#
# Velocity S-wave (km/s) = 3.07222 3.95418 3.54077
# Velocity P-wave (km/s) = 4.72350 7.00821 5.97605
#
# Compressibility (1/GPa) = 0.04134379
#
# Stress axis : x y z
#
# Youngs Moduli (GPa) = 28.81669 129.88092 158.90047
#
# Poissons Ratio (x) = -0.26747 0.35319
# Poissons Ratio (y) = -0.05934 0.55807
# Poissons Ratio (z) = 0.06405 0.45615
#
# Static dielectric constant tensor:
#      x y z
#    x 2.173730 0.000000 -0.055210 
#    y 0.000000 1.974400 0.000000 
#    z -0.055210 0.000000 2.051710 
# 
# From -- ./inp_files/253226.got.cif
#   From: 2010.05.17/outbox.cif.g08.bks.cpg/sg15_127_cif.got.tgz:253226.got - 2010.06.03 18:47:42.
