data_PCOD9255847
_publ_section_title
;
Structure prediction by ZEFSAII (Michael W. Deem and Ramdas Pophale) SiO2 
 PCOD9255847
Probable space group: C 2/C
;
_chemical_formula_sum "Si O2"
_cell_formula_units_Z 64
_cell_length_a 25.790314
_cell_length_b 14.163691
_cell_length_c 16.529981
_cell_angle_alpha 90.000000
_cell_angle_beta 36.184658
_cell_angle_gamma 90.000000
_cell_volume 3564.873329
_symmetry_space_group_name_H-M "C 2/C"
_symmetry_group_IT_number 15
_symmetry_cell_setting 'monoclinic'
loop_
_space_group_symop_operation_xyz
x,y,z
-x,y,1/2-z
-x,-y,-z
x,-y,1/2+z
1/2+x,1/2+y,z
1/2-x,1/2+y,1/2-z
1/2-x,1/2-y,-z
1/2+x,1/2-y,1/2+z
loop_
_atom_site_type_symbol
_atom_site_label
_atom_site_fract_x
_atom_site_fract_y
_atom_site_fract_z
Si Si1 0.644966 0.673480 0.072775
Si Si2 0.129751 0.857546 0.412014
Si Si3 0.315516 0.251885 0.687991
Si Si4 0.106573 0.438017 0.428831
Si Si5 0.541213 0.061165 0.825279
Si Si6 0.718942 0.540052 0.248460
Si Si7 0.454985 0.729534 0.152951
Si Si8 0.803826 0.390581 0.476277
O O1 0.575760 0.667588 0.232621
O O2 0.735076 0.628690 0.991085
O O3 0.618731 0.627173 0.022036
O O4 0.662053 0.786328 0.040952
O O5 0.216109 0.788913 0.303579
O O6 0.037380 0.812573 0.501082
O O7 0.150339 0.954571 0.340351
O O8 0.372443 0.169972 0.573499
O O9 0.312644 0.362419 0.671161
O O10 0.366322 0.254899 0.711571
O O11 0.075379 0.441796 0.375020
O O12 0.195305 0.497937 0.317074
O O13 0.037332 0.487281 0.575212
O O14 0.511741 0.170058 0.854884
O O15 0.616324 0.050827 0.663414
O O16 0.752897 0.564109 0.115461
#
# Coordination Sequence:
#
# PCOD9255847 Si02
#       8
#     8   8   8   8   8   8   8   8
#     4  10  17  33  51  78 111 135 168 223 285 320
#     4  11  21  32  53  82 108 145 185 217 271 336
#     4  10  19  36  50  75 114 142 172 224 272 309
#     4   9  19  33  50  80 110 141 178 220 273 324
#     4   9  18  32  54  82 108 136 175 225 280 323
#     4  11  20  32  51  79 108 143 184 216 268 331
#     4  10  19  32  55  81 109 139 175 224 277 327
#     4  10  18  31  55  78 108 142 167 223 285 316
#
# _framework density 17.952953000000001
#
# number of rings (size 3 to 8) (size 9 to 14) (size 15 to 20)
#    0.000    2.000    2.500    4.125    0.000    1.000 
#    0.000    0.000    0.000    0.000   13.000   23.625 
#    0.000    0.000    0.000    0.000    0.000    0.000 
#
# Total GULP energy -178168.246870 kJ/mol
# GULP energy per Si atom -5567.757715 kJ/mol
# Density = 1.791209 g / cm^3
# Si number density = 17.952953 Si / 1000 Ang^3
#
#
#
# Elastic Constant Matrix: (Units=GPa)
#
#
# Indices 1 2 3 4 5 6 
#
# 1 20.4666 3.2387 0.4923 0.0000 -9.0616 0.0000
# 2 3.2387 86.5402 47.8993 0.0000 -5.7506 0.0000
# 3 0.4923 47.8993 96.4662 0.0000 -12.2401 0.0000
# 4 0.0000 0.0000 0.0000 34.0094 0.0000 -2.3454
# 5 -9.0616 -5.7506 -12.2401 0.0000 17.7527 0.0000
# 6 0.0000 0.0000 0.0000 -2.3454 0.0000 15.9519
#
#
#
# Elastic Compliance Matrix: (Units=1/GPa)
#
#
# Indices 1 2 3 4 5 6 
#
# 1 0.065342 -0.003307 0.005923 0.000000 0.036365 0.000000
# 2 -0.003307 0.016104 -0.008254 0.000000 -0.002162 0.000000
# 3 0.005923 -0.008254 0.015867 0.000000 0.011289 0.000000
# 4 0.000000 0.000000 0.000000 0.029705 0.000000 0.004368
# 5 0.036365 -0.002162 0.011289 0.000000 0.081975 0.000000
# 6 0.000000 0.000000 0.000000 0.004368 0.000000 0.063331
#
#
# Mechanical properties :
#
#
# Convention : Reuss Voigt Hill
#
# Bulk Modulus (GPa) = 11.62302 34.08151 22.85227
# Shear Modulus (GPa) = 16.01143 23.66564 19.83853
#
# Velocity S-wave (km/s) = 2.98963 3.63465 3.32780
# Velocity P-wave (km/s) = 4.29015 6.05303 5.24617
#
# Compressibility (1/GPa) = 0.08603613
#
# Stress axis : x y z
#
# Youngs Moduli (GPa) = 15.30421 62.09742 63.02456
#
# Poissons Ratio (x) = 0.20537 -0.37329
# Poissons Ratio (y) = 0.05061 0.52018
# Poissons Ratio (z) = -0.09064 0.51253
#
# Static dielectric constant tensor:
#      x y z
#    x 1.661200 0.000000 -0.039220 
#    y 0.000000 1.641230 0.000000 
#    z -0.039220 0.000000 1.652470 
# 
# From -- ./inp_files/225400.got.cif
#   From: 2010.05.17/outbox.cif.g08.bks.cpg/sg15_113_cif.got.tgz:225400.got - 2010.06.03 18:47:42.
