data_PCOD9255107
_publ_section_title
;
Structure prediction by ZEFSAII (Michael W. Deem and Ramdas Pophale) SiO2 
 PCOD9255107
Probable space group: C 2/C
;
_chemical_formula_sum "Si O2"
_cell_formula_units_Z 44
_cell_length_a 12.947599
_cell_length_b 12.029225
_cell_length_c 14.385560
_cell_angle_alpha 90.000000
_cell_angle_beta 48.065879
_cell_angle_gamma 90.000000
_cell_volume 1666.772094
_symmetry_space_group_name_H-M "C 2/C"
_symmetry_group_IT_number 15
_symmetry_cell_setting 'monoclinic'
loop_
_space_group_symop_operation_xyz
x,y,z
-x,y,1/2-z
-x,-y,-z
x,-y,1/2+z
1/2+x,1/2+y,z
1/2-x,1/2+y,1/2-z
1/2-x,1/2-y,-z
1/2+x,1/2-y,1/2+z
loop_
_atom_site_type_symbol
_atom_site_label
_atom_site_fract_x
_atom_site_fract_y
_atom_site_fract_z
Si Si1 0.000000 0.395732 0.750000
Si Si2 0.504934 0.474606 0.638779
Si Si3 0.207741 0.435448 0.055415
Si Si4 0.700005 0.026896 0.348306
Si Si5 0.489938 0.172665 0.943886
Si Si6 0.900798 0.225312 0.952968
O O1 0.132575 0.476791 0.666280
O O2 0.008398 0.314470 0.658375
O O3 0.500000 0.439390 0.750000
O O4 0.633391 0.407918 0.514904
O O5 0.344081 0.468318 0.708598
O O6 0.546689 0.602692 0.601555
O O7 0.220912 0.499884 0.946959
O O8 0.100347 0.334794 0.097047
O O9 0.589844 0.936830 0.378555
O O10 0.633160 0.146263 0.408551
O O11 0.585916 0.256626 0.943636
O O12 0.750000 0.250000 0.000000
#
# Coordination Sequence:
#
# PCOD9255107 Si02
#       6
#     4   8   8   8   8   8
#     4  12  18  26  46  72 108 138 184 214 264 326
#     4  10  17  28  47  78 107 139 177 214 269 315
#     4   9  18  30  47  71 102 150 178 214 259 332
#     4   8  15  29  47  65  98 147 176 209 254 331
#     4   9  17  32  46  67 111 152 181 203 278 328
#     4  12  20  28  45  80 114 146 171 228 279 321
#
# _framework density 26.398330000000001
#
# number of rings (size 3 to 8) (size 9 to 14) (size 15 to 20)
#    1.091    1.091    4.545    1.091    0.000    0.000 
#    0.000    0.000    0.000    4.364    0.000    0.000 
#    0.000   30.545    0.000    0.000    0.000    0.000 
#
# Total GULP energy -122544.836965 kJ/mol
# GULP energy per Si atom -5570.219862 kJ/mol
# Density = 2.633825 g / cm^3
# Si number density = 26.398330 Si / 1000 Ang^3
#
#
#
# Elastic Constant Matrix: (Units=GPa)
#
#
# Indices 1 2 3 4 5 6 
#
# 1 110.8424 14.9414 51.2273 0.0000 -24.8787 0.0000
# 2 14.9414 80.0109 33.4832 0.0000 2.4693 0.0000
# 3 51.2273 33.4832 119.1697 0.0000 -32.0193 0.0000
# 4 0.0000 0.0000 0.0000 27.6339 0.0000 3.4810
# 5 -24.8787 2.4693 -32.0193 0.0000 45.8922 0.0000
# 6 0.0000 0.0000 0.0000 3.4810 0.0000 10.8641
#
#
#
# Elastic Compliance Matrix: (Units=1/GPa)
#
#
# Indices 1 2 3 4 5 6 
#
# 1 0.011727 -0.000693 -0.003850 0.000000 0.003709 0.000000
# 2 -0.000693 0.014949 -0.005193 0.000000 -0.004803 0.000000
# 3 -0.003850 -0.005193 0.013562 0.000000 0.007655 0.000000
# 4 0.000000 0.000000 0.000000 0.037709 0.000000 -0.012082
# 5 0.003709 -0.004803 0.007655 0.000000 0.029400 0.000000
# 6 0.000000 0.000000 0.000000 -0.012082 0.000000 0.095918
#
#
# Mechanical properties :
#
#
# Convention : Reuss Voigt Hill
#
# Bulk Modulus (GPa) = 48.15498 56.59188 52.37343
# Shear Modulus (GPa) = 21.77139 30.90276 26.33707
#
# Velocity S-wave (km/s) = 2.87492 3.42516 3.16203
# Velocity P-wave (km/s) = 5.41309 6.09316 5.76316
#
# Compressibility (1/GPa) = 0.02076628
#
# Stress axis : x y z
#
# Youngs Moduli (GPa) = 85.27402 66.89363 73.73524
#
# Poissons Ratio (x) = 0.04638 0.28386
# Poissons Ratio (y) = 0.05912 0.38289
# Poissons Ratio (z) = 0.32829 0.34737
#
# Static dielectric constant tensor:
#      x y z
#    x 2.278480 0.000000 -0.018280 
#    y 0.000000 2.212450 0.000000 
#    z -0.018280 0.000000 2.093230 
# 
# From -- ./inp_files/205929.got.cif
#   From: 2010.05.17/outbox.cif.g08.bks.cpg/sg15_103_cif.got.tgz:205929.got - 2010.06.03 18:47:42.
