data_PCOD9255809
_publ_section_title
;
Structure prediction by ZEFSAII (Michael W. Deem and Ramdas Pophale) SiO2 
 PCOD9255809
Probable space group: C 2/C
;
_chemical_formula_sum "Si O2"
_cell_formula_units_Z 60
_cell_length_a 9.963365
_cell_length_b 22.364650
_cell_length_c 14.553835
_cell_angle_alpha 90.000000
_cell_angle_beta 99.780068
_cell_angle_gamma 90.000000
_cell_volume 3195.859675
_symmetry_space_group_name_H-M "C 2/C"
_symmetry_group_IT_number 15
_symmetry_cell_setting 'monoclinic'
loop_
_space_group_symop_operation_xyz
x,y,z
-x,y,1/2-z
-x,-y,-z
x,-y,1/2+z
1/2+x,1/2+y,z
1/2-x,1/2+y,1/2-z
1/2-x,1/2-y,-z
1/2+x,1/2-y,1/2+z
loop_
_atom_site_type_symbol
_atom_site_label
_atom_site_fract_x
_atom_site_fract_y
_atom_site_fract_z
Si Si1 0.973675 0.902102 0.138257
Si Si2 0.553516 0.699557 0.002406
Si Si3 0.695153 0.043556 0.169638
Si Si4 0.669537 0.492089 0.628208
Si Si5 0.122750 0.675063 0.447107
Si Si6 0.181770 0.551422 0.530236
Si Si7 0.500000 0.865090 0.750000
Si Si8 0.957851 0.112967 0.140344
O O1 0.000000 0.900799 0.250000
O O2 0.987739 0.837624 0.092934
O O3 0.823918 0.927166 0.095129
O O4 0.081605 0.948342 0.107411
O O5 0.546578 0.770327 0.987437
O O6 0.714662 0.685993 0.034426
O O7 0.470793 0.670177 0.076572
O O8 0.762775 0.008850 0.263433
O O9 0.600657 0.092398 0.205364
O O10 0.814286 0.078710 0.129215
O O11 0.622365 0.996903 0.093703
O O12 0.775343 0.480250 0.559692
O O13 0.567073 0.435536 0.616850
O O14 0.101085 0.611439 0.494806
O O15 0.078041 0.671854 0.336250
O O16 0.000000 0.127760 0.250000
#
# Coordination Sequence:
#
# PCOD9255809 Si02
#       8
#     8   8   8   8   8   8   4   8
#     4  11  18  28  54  92 123 139 183 250 309 337
#     4  10  21  37  59  90 114 153 198 249 290 346
#     4  11  22  34  60  87 115 155 199 245 303 355
#     4  11  17  33  55  94 120 140 189 253 312 350
#     4  10  22  39  59  79 121 158 200 229 287 355
#     4  11  19  35  58  85 120 152 185 243 295 353
#     4  12  24  44  56  84 116 164 206 230 280 390
#     4  10  17  32  60  89 116 149 191 250 304 345
#
# _framework density 18.774291999999999
#
# number of rings (size 3 to 8) (size 9 to 14) (size 15 to 20)
#    0.000    1.333    6.667    2.400    0.933    0.533 
#    0.000    0.667    1.467    0.000    0.000    0.000 
#    0.000    0.000    0.000    0.000    0.000    0.000 
#
# Total GULP energy -167564.254565 kJ/mol
# GULP energy per Si atom -5585.475152 kJ/mol
# Density = 1.873156 g / cm^3
# Si number density = 18.774292 Si / 1000 Ang^3
#
#
#
# Elastic Constant Matrix: (Units=GPa)
#
#
# Indices 1 2 3 4 5 6 
#
# 1 21.2371 15.2173 19.0188 0.0000 -2.6718 0.0000
# 2 15.2173 113.0992 62.5386 0.0000 0.9274 0.0000
# 3 19.0188 62.5386 119.2645 0.0000 -2.5926 0.0000
# 4 0.0000 0.0000 0.0000 30.0874 0.0000 -10.2650
# 5 -2.6718 0.9274 -2.5926 0.0000 19.0379 0.0000
# 6 0.0000 0.0000 0.0000 -10.2650 0.0000 17.0658
#
#
#
# Elastic Compliance Matrix: (Units=1/GPa)
#
#
# Indices 1 2 3 4 5 6 
#
# 1 0.056963 -0.003926 -0.006867 0.000000 0.007250 0.000000
# 2 -0.003926 0.012766 -0.006111 0.000000 -0.002005 0.000000
# 3 -0.006867 -0.006111 0.012708 0.000000 0.001064 0.000000
# 4 0.000000 0.000000 0.000000 0.041818 0.000000 0.025154
# 5 0.007250 -0.002005 0.001064 0.000000 0.053787 0.000000
# 6 0.000000 0.000000 0.000000 0.025154 0.000000 0.073726
#
#
# Mechanical properties :
#
#
# Convention : Reuss Voigt Hill
#
# Bulk Modulus (GPa) = 20.56504 49.68334 35.12419
# Shear Modulus (GPa) = 16.56797 23.69331 20.13064
#
# Velocity S-wave (km/s) = 2.97388 3.55633 3.27807
# Velocity P-wave (km/s) = 4.77175 6.58667 5.75125
#
# Compressibility (1/GPa) = 0.04862621
#
# Stress axis : x y z
#
# Youngs Moduli (GPa) = 17.55526 78.33361 78.69286
#
# Poissons Ratio (x) = 0.30757 0.54040
# Poissons Ratio (y) = 0.06893 0.48093
# Poissons Ratio (z) = 0.12056 0.47874
#
# Static dielectric constant tensor:
#      x y z
#    x 1.656110 0.000000 0.028710 
#    y 0.000000 1.656600 0.000000 
#    z 0.028710 0.000000 1.679300 
# 
# From -- ./inp_files/137408.got.cif
#   From: 2010.05.17/outbox.cif.g08.bks.cpg/sg15_69_cif.got.tgz:137408.got - 2010.06.03 18:47:42.
