data_PCOD9255723
_publ_section_title
;
Structure prediction by ZEFSAII (Michael W. Deem and Ramdas Pophale) SiO2 
 PCOD9255723
Probable space group: C 2/C
;
_chemical_formula_sum "Si O2"
_cell_formula_units_Z 60
_cell_length_a 21.729822
_cell_length_b 17.253024
_cell_length_c 9.435504
_cell_angle_alpha 90.000000
_cell_angle_beta 112.528093
_cell_angle_gamma 90.000000
_cell_volume 3267.484830
_symmetry_space_group_name_H-M "C 2/C"
_symmetry_group_IT_number 15
_symmetry_cell_setting 'monoclinic'
loop_
_space_group_symop_operation_xyz
x,y,z
-x,y,1/2-z
-x,-y,-z
x,-y,1/2+z
1/2+x,1/2+y,z
1/2-x,1/2+y,1/2-z
1/2-x,1/2-y,-z
1/2+x,1/2-y,1/2+z
loop_
_atom_site_type_symbol
_atom_site_label
_atom_site_fract_x
_atom_site_fract_y
_atom_site_fract_z
Si Si1 0.094075 0.074212 0.616304
Si Si2 0.500000 0.646215 0.750000
Si Si3 0.211182 0.479011 0.837416
Si Si4 0.827435 0.397087 0.417368
Si Si5 0.872437 0.242178 0.539010
Si Si6 0.198351 0.206028 0.743118
Si Si7 0.654087 0.458330 0.897444
Si Si8 0.221271 0.841210 0.767905
O O1 0.138197 0.152303 0.640933
O O2 0.093949 0.042961 0.456928
O O3 0.028202 0.096210 0.643787
O O4 0.134246 0.014651 0.751886
O O5 0.439929 0.699377 0.640268
O O6 0.172902 0.545192 0.716003
O O7 0.232930 0.411018 0.749270
O O8 0.171723 0.445171 0.936450
O O9 0.280723 0.511088 0.962657
O O10 0.879095 0.325962 0.471652
O O11 0.756506 0.352153 0.344433
O O12 0.829347 0.251982 0.644762
O O13 0.828842 0.186752 0.399713
O O14 0.231419 0.267137 0.665476
O O15 0.676806 0.376162 0.853544
#
# Coordination Sequence:
#
# PCOD9255723 Si02
#       8
#     8   4   8   8   8   8   8   8
#     4  11  23  38  56  82 110 157 189 234 264 336
#     4  10  24  42  62  72 104 150 220 224 272 306
#     4  12  17  30  51  87 115 146 163 219 284 353
#     4  11  19  31  55  83 115 139 183 220 284 338
#     4  10  20  37  56  79 104 156 194 235 261 330
#     4  10  17  32  55  79 115 146 184 217 281 335
#     4  12  21  35  55  85 127 143 178 224 292 335
#     4  11  19  30  56  84 118 140 177 231 278 340
#
# _framework density 18.362746999999999
#
# number of rings (size 3 to 8) (size 9 to 14) (size 15 to 20)
#    0.000    1.067    8.000    1.600    0.000    1.067 
#    0.000    0.000    0.000    0.800    0.000    0.000 
#    0.000    0.000    0.000    0.000    0.000    0.000 
#
# Total GULP energy -167416.733747 kJ/mol
# GULP energy per Si atom -5580.557792 kJ/mol
# Density = 1.832095 g / cm^3
# Si number density = 18.362747 Si / 1000 Ang^3
#
#
#
# Elastic Constant Matrix: (Units=GPa)
#
#
# Indices 1 2 3 4 5 6 
#
# 1 64.0832 25.2279 17.2396 0.0000 -17.2811 0.0000
# 2 25.2279 94.8096 32.3028 0.0000 -14.7334 0.0000
# 3 17.2396 32.3028 41.2854 0.0000 -23.6306 0.0000
# 4 0.0000 0.0000 0.0000 23.6655 0.0000 -8.0868
# 5 -17.2811 -14.7334 -23.6306 0.0000 25.0916 0.0000
# 6 0.0000 0.0000 0.0000 -8.0868 0.0000 26.5419
#
#
#
# Elastic Compliance Matrix: (Units=1/GPa)
#
#
# Indices 1 2 3 4 5 6 
#
# 1 0.020324 -0.004209 0.003045 0.000000 0.014394 0.000000
# 2 -0.004209 0.015510 -0.014804 0.000000 -0.007734 0.000000
# 3 0.003045 -0.014804 0.066727 0.000000 0.056246 0.000000
# 4 0.000000 0.000000 0.000000 0.047166 0.000000 0.014371
# 5 0.014394 -0.007734 0.056246 0.000000 0.098197 0.000000
# 6 0.000000 0.000000 0.000000 0.014371 0.000000 0.042055
#
#
# Mechanical properties :
#
#
# Convention : Reuss Voigt Hill
#
# Bulk Modulus (GPa) = 14.15939 38.85764 26.50851
# Shear Modulus (GPa) = 14.47360 23.42034 18.94697
#
# Velocity S-wave (km/s) = 2.81054 3.57519 3.21567
# Velocity P-wave (km/s) = 4.27316 6.18463 5.31552
#
# Compressibility (1/GPa) = 0.07062451
#
# Stress axis : x y z
#
# Youngs Moduli (GPa) = 49.20302 64.47654 14.98637
#
# Poissons Ratio (x) = 0.27136 -0.04563
# Poissons Ratio (y) = 0.20708 0.22186
# Poissons Ratio (z) = -0.14982 0.95454
#
# Static dielectric constant tensor:
#      x y z
#    x 1.633030 0.000000 -0.030620 
#    y 0.000000 1.672990 0.000000 
#    z -0.030620 0.000000 1.657590 
# 
# From -- ./inp_files/56688.got.cif
#   From: 2010.05.17/outbox.cif.g08.bks.cpg/sg15_29_cif.got.tgz:56688.got - 2010.06.03 18:47:42.
