data_PCOD9255514
_publ_section_title
;
Structure prediction by ZEFSAII (Michael W. Deem and Ramdas Pophale) SiO2 
 PCOD9255514
Probable space group: C 2/C
;
_chemical_formula_sum "Si O2"
_cell_formula_units_Z 56
_cell_length_a 16.194643
_cell_length_b 7.865160
_cell_length_c 27.918287
_cell_angle_alpha 90.000000
_cell_angle_beta 128.114528
_cell_angle_gamma 90.000000
_cell_volume 2797.822857
_symmetry_space_group_name_H-M "C 2/C"
_symmetry_group_IT_number 15
_symmetry_cell_setting 'monoclinic'
loop_
_space_group_symop_operation_xyz
x,y,z
-x,y,1/2-z
-x,-y,-z
x,-y,1/2+z
1/2+x,1/2+y,z
1/2-x,1/2+y,1/2-z
1/2-x,1/2-y,-z
1/2+x,1/2-y,1/2+z
loop_
_atom_site_type_symbol
_atom_site_label
_atom_site_fract_x
_atom_site_fract_y
_atom_site_fract_z
Si Si1 0.483608 0.224442 0.892906
Si Si2 0.067648 0.339557 0.321544
Si Si3 0.149805 0.664890 0.569852
Si Si4 0.495293 0.822722 0.572864
Si Si5 0.818125 0.101491 0.999683
Si Si6 0.335838 0.158084 0.088606
Si Si7 0.300581 0.775180 0.895881
O O1 0.495351 0.228937 0.839671
O O2 0.380895 0.241072 0.889235
O O3 0.512053 0.028067 0.919372
O O4 0.566945 0.365169 0.939568
O O5 0.110760 0.516165 0.358758
O O6 0.174445 0.234383 0.346889
O O7 0.000000 0.359753 0.250000
O O8 0.061241 0.710596 0.498429
O O9 0.262158 0.728651 0.594126
O O10 0.161753 0.461498 0.574033
O O11 0.424511 0.749358 0.589891
O O12 0.614352 0.753632 0.616037
O O13 0.825472 0.139367 0.945877
O O14 0.744798 0.937183 0.976888
O O15 0.750000 0.250000 0.000000
#
# Coordination Sequence:
#
# PCOD9255514 Si02
#       7
#     8   8   8   8   8   8   8
#     4  10  18  32  56  75 108 146 175 212 270 312
#     4  10  22  41  57  71  97 146 197 224 251 313
#     4  11  19  32  51  89 115 135 164 215 282 331
#     4  10  17  31  52  83 113 144 160 207 272 342
#     4  11  15  31  51  78 108 143 172 206 253 330
#     4  10  22  32  53  84 115 144 164 218 281 309
#     4  10  18  32  57  76 104 139 180 211 256 327
#
# _framework density 20.015564000000001
#
# number of rings (size 3 to 8) (size 9 to 14) (size 15 to 20)
#    0.000    1.714    7.143    1.286    0.000    0.571 
#    0.000    5.000    0.000    0.000    0.000    0.000 
#    0.000    0.000    0.000    0.000    0.000    0.000 
#
# Total GULP energy -155964.413487 kJ/mol
# GULP energy per Si atom -5570.157625 kJ/mol
# Density = 1.997001 g / cm^3
# Si number density = 20.015564 Si / 1000 Ang^3
#
#
#
# Elastic Constant Matrix: (Units=GPa)
#
#
# Indices 1 2 3 4 5 6 
#
# 1 200.3388 23.8479 36.7452 0.0000 -21.6028 0.0000
# 2 23.8479 21.9609 4.4985 0.0000 -3.1290 0.0000
# 3 36.7452 4.4985 91.2492 0.0000 -11.3512 0.0000
# 4 0.0000 0.0000 0.0000 9.0038 0.0000 2.1163
# 5 -21.6028 -3.1290 -11.3512 0.0000 16.5140 0.0000
# 6 0.0000 0.0000 0.0000 2.1163 0.0000 33.0095
#
#
#
# Elastic Compliance Matrix: (Units=1/GPa)
#
#
# Indices 1 2 3 4 5 6 
#
# 1 0.006705 -0.006024 -0.001590 0.000000 0.006537 0.000000
# 2 -0.006024 0.052356 0.000108 0.000000 0.002114 0.000000
# 3 -0.001590 0.000108 0.012398 0.000000 0.006462 0.000000
# 4 0.000000 0.000000 0.000000 0.112763 0.000000 -0.007229
# 5 0.006537 0.002114 0.006462 0.000000 0.073948 0.000000
# 6 0.000000 0.000000 0.000000 -0.007229 0.000000 0.030758
#
#
# Mechanical properties :
#
#
# Convention : Reuss Voigt Hill
#
# Bulk Modulus (GPa) = 17.71589 49.30357 33.50973
# Shear Modulus (GPa) = 15.49151 28.26930 21.88040
#
# Velocity S-wave (km/s) = 2.78506 3.76222 3.30990
# Velocity P-wave (km/s) = 4.38319 6.59989 5.60227
#
# Compressibility (1/GPa) = 0.05644650
#
# Stress axis : x y z
#
# Youngs Moduli (GPa) = 149.13856 19.09986 80.65916
#
# Poissons Ratio (x) = 0.11506 0.12824
# Poissons Ratio (y) = 0.89845 -0.00869
# Poissons Ratio (z) = 0.23712 -0.00206
#
# Static dielectric constant tensor:
#      x y z
#    x 1.842460 0.000000 -0.016740 
#    y 0.000000 1.910670 0.000000 
#    z -0.016740 0.000000 1.686170 
# 
# From -- ./inp_files/242802.got.cif
#   From: 2010.05.17/outbox.cif.g08.bks.cpg/sg15_122_cif.got.tgz:242802.got - 2010.06.03 18:47:42.
