data_PCOD9255220
_publ_section_title
;
Structure prediction by ZEFSAII (Michael W. Deem and Ramdas Pophale) SiO2 
 PCOD9255220
Probable space group: C 2/C
;
_chemical_formula_sum "Si O2"
_cell_formula_units_Z 48
_cell_length_a 14.761768
_cell_length_b 28.753141
_cell_length_c 9.124009
_cell_angle_alpha 90.000000
_cell_angle_beta 143.699699
_cell_angle_gamma 90.000000
_cell_volume 2292.682179
_symmetry_space_group_name_H-M "C 2/C"
_symmetry_group_IT_number 15
_symmetry_cell_setting 'monoclinic'
loop_
_space_group_symop_operation_xyz
x,y,z
-x,y,1/2-z
-x,-y,-z
x,-y,1/2+z
1/2+x,1/2+y,z
1/2-x,1/2+y,1/2-z
1/2-x,1/2-y,-z
1/2+x,1/2-y,1/2+z
loop_
_atom_site_type_symbol
_atom_site_label
_atom_site_fract_x
_atom_site_fract_y
_atom_site_fract_z
Si Si1 0.249138 0.446333 0.782419
Si Si2 0.076275 0.395190 0.113953
Si Si3 0.156755 0.216389 0.263960
Si Si4 0.676913 0.036064 0.510355
Si Si5 0.629504 0.388968 0.806934
Si Si6 0.546919 0.798246 0.484410
O O1 0.249311 0.495763 0.701815
O O2 0.267190 0.455081 0.978594
O O3 0.364189 0.413120 0.843546
O O4 0.077828 0.423755 0.551480
O O5 0.203409 0.398383 0.405757
O O6 0.025386 0.341952 0.029227
O O7 0.154696 0.417047 0.073767
O O8 0.250000 0.250000 0.500000
O O9 0.113233 0.166775 0.273049
O O10 0.271193 0.204152 0.282293
O O11 0.015988 0.249152 0.043727
O O12 0.500000 0.020805 0.250000
O O13 0.500000 0.406431 0.750000
O O14 0.500000 0.805406 0.250000
#
# Coordination Sequence:
#
# PCOD9255220 Si02
#       6
#     8   8   8   8   8   8
#     4  11  21  39  59  88 113 145 191 238 290 340
#     4  11  19  35  57  86 114 150 189 236 287 335
#     4  10  18  30  49  83 117 145 190 234 282 321
#     4  10  21  36  64  88 112 143 191 243 286 343
#     4  12  22  34  55  86 118 154 191 235 285 338
#     4  10  17  29  50  82 116 149 183 239 279 329
#
# _framework density 20.936176
#
# number of rings (size 3 to 8) (size 9 to 14) (size 15 to 20)
#    0.000    1.333    5.000    6.000    0.000    0.000 
#    0.000    4.167    0.000    1.000    0.000    0.000 
#    0.000    0.000    0.000    0.000    0.000    0.000 
#
# Total GULP energy -133990.034641 kJ/mol
# GULP energy per Si atom -5582.918110 kJ/mol
# Density = 2.088852 g / cm^3
# Si number density = 20.936176 Si / 1000 Ang^3
#
#
#
# Elastic Constant Matrix: (Units=GPa)
#
#
# Indices 1 2 3 4 5 6 
#
# 1 164.0487 75.9560 19.2802 0.0000 -17.6536 0.0000
# 2 75.9560 118.3415 12.9005 0.0000 -27.1484 0.0000
# 3 19.2802 12.9005 9.2492 0.0000 -7.1369 0.0000
# 4 0.0000 0.0000 0.0000 13.5330 0.0000 0.6833
# 5 -17.6536 -27.1484 -7.1369 0.0000 26.1905 0.0000
# 6 0.0000 0.0000 0.0000 0.6833 0.0000 -15.6735
#
#
#
# Elastic Compliance Matrix: (Units=1/GPa)
#
#
# Indices 1 2 3 4 5 6 
#
# 1 0.010196 -0.005540 -0.016024 0.000000 -0.003236 0.000000
# 2 -0.005540 0.014630 -0.000048 0.000000 0.011418 0.000000
# 3 -0.016024 -0.000048 0.168681 0.000000 0.035115 0.000000
# 4 0.000000 0.000000 0.000000 0.073731 0.000000 0.003215
# 5 -0.003236 0.011418 0.035115 0.000000 0.057405 0.000000
# 6 0.000000 0.000000 0.000000 0.003215 0.000000 -0.063662
#
#
# Mechanical properties :
#
#
# Convention : Reuss Voigt Hill
#
# Bulk Modulus (GPa) = 6.65403 56.43477 31.54440
# Shear Modulus (GPa) = 14.11240 17.04353 15.57796
#
# Velocity S-wave (km/s) = 2.59910 2.85629 2.73072
# Velocity P-wave (km/s) = 3.49174 6.15565 5.00421
#
# Compressibility (1/GPa) = 0.15028487
#
# Stress axis : x y z
#
# Youngs Moduli (GPa) = 98.08171 68.35121 5.92835
#
# Poissons Ratio (x) = 0.37864 0.09499
# Poissons Ratio (y) = 0.54333 0.00028
# Poissons Ratio (z) = 1.57163 0.00326
#
# Static dielectric constant tensor:
#      x y z
#    x 1.786830 0.000000 0.039800 
#    y 0.000000 1.757710 0.000000 
#    z 0.039800 0.000000 1.892710 
# 
# From -- ./inp_files/44647.got.cif
#   From: 2010.05.17/outbox.cif.g08.bks.cpg/sg15_23_cif.got.tgz:44647.got - 2010.06.03 18:47:42.
