data_PCOD9255388
_publ_section_title
;
Structure prediction by ZEFSAII (Michael W. Deem and Ramdas Pophale) SiO2 
 PCOD9255388
Probable space group: C 2/C
;
_chemical_formula_sum "Si O2"
_cell_formula_units_Z 52
_cell_length_a 11.974522
_cell_length_b 22.033032
_cell_length_c 11.934803
_cell_angle_alpha 90.000000
_cell_angle_beta 124.976604
_cell_angle_gamma 90.000000
_cell_volume 2580.098852
_symmetry_space_group_name_H-M "C 2/C"
_symmetry_group_IT_number 15
_symmetry_cell_setting 'monoclinic'
loop_
_space_group_symop_operation_xyz
x,y,z
-x,y,1/2-z
-x,-y,-z
x,-y,1/2+z
1/2+x,1/2+y,z
1/2-x,1/2+y,1/2-z
1/2-x,1/2-y,-z
1/2+x,1/2-y,1/2+z
loop_
_atom_site_type_symbol
_atom_site_label
_atom_site_fract_x
_atom_site_fract_y
_atom_site_fract_z
Si Si1 0.289890 0.004465 0.906288
Si Si2 0.849616 0.412418 0.129415
Si Si3 0.045961 0.574372 0.149482
Si Si4 0.500000 0.711752 0.750000
Si Si5 0.293790 0.622919 0.720938
Si Si6 0.901740 0.276969 0.088806
Si Si7 0.944199 0.300130 0.534800
O O1 0.181690 0.057419 0.822856
O O2 0.321777 0.961925 0.817204
O O3 0.424881 0.045548 0.005324
O O4 0.278005 0.960315 0.006072
O O5 0.766084 0.393754 0.191657
O O6 0.882386 0.349851 0.084368
O O7 0.000000 0.436185 0.250000
O O8 0.000000 0.566092 0.250000
O O9 0.048613 0.646347 0.131576
O O10 0.421786 0.666920 0.788931
O O11 0.413688 0.757090 0.621864
O O12 0.182786 0.663667 0.590105
O O13 0.000000 0.260141 0.250000
O O14 0.750000 0.250000 0.000000
O O15 0.983472 0.263323 0.022903
#
# Coordination Sequence:
#
# PCOD9255388 Si02
#       7
#     8   8   8   4   8   8   8
#     4  10  19  31  57  87 119 152 214 264 332 383
#     4  11  18  37  64  91 126 158 211 283 329 383
#     4  10  17  30  53  89 119 145 195 273 327 370
#     4  12  26  42  60  86 138 174 222 260 330 414
#     4  11  23  40  60  91 124 173 208 269 334 397
#     4  11  22  39  65  95 131 170 216 269 336 397
#     4  11  21  38  62  90 123 165 216 272 325 382
#
# _framework density 20.154267000000001
#
# number of rings (size 3 to 8) (size 9 to 14) (size 15 to 20)
#    0.000    1.231    5.385    4.615    0.000    0.000 
#    0.000    0.769    1.692    0.000    0.000    0.000 
#    0.000    0.000    0.000    0.000    0.000    0.000 
#
# Total GULP energy -144957.421434 kJ/mol
# GULP energy per Si atom -5575.285440 kJ/mol
# Density = 2.010839 g / cm^3
# Si number density = 20.154267 Si / 1000 Ang^3
#
#
#
# Elastic Constant Matrix: (Units=GPa)
#
#
# Indices 1 2 3 4 5 6 
#
# 1 45.6259 32.5215 33.4315 0.0000 -18.6716 0.0000
# 2 32.5215 92.9260 45.9762 0.0000 -13.3167 0.0000
# 3 33.4315 45.9762 74.8848 0.0000 -26.4797 0.0000
# 4 0.0000 0.0000 0.0000 -4.5334 0.0000 25.7034
# 5 -18.6716 -13.3167 -26.4797 0.0000 34.0142 0.0000
# 6 0.0000 0.0000 0.0000 25.7034 0.0000 -13.0766
#
#
#
# Elastic Compliance Matrix: (Units=1/GPa)
#
#
# Indices 1 2 3 4 5 6 
#
# 1 0.038101 -0.007587 -0.008288 0.000000 0.011493 0.000000
# 2 -0.007587 0.017051 -0.008547 0.000000 -0.004142 0.000000
# 3 -0.008288 -0.008547 0.026920 0.000000 0.013061 0.000000
# 4 0.000000 0.000000 0.000000 0.021744 0.000000 0.042741
# 5 0.011493 -0.004142 0.013061 0.000000 0.044254 0.000000
# 6 0.000000 0.000000 0.000000 0.042741 0.000000 0.007538
#
#
# Mechanical properties :
#
#
# Convention : Reuss Voigt Hill
#
# Bulk Modulus (GPa) = 30.09372 48.58833 39.34102
# Shear Modulus (GPa) = 23.19882 10.04801 16.62341
#
# Velocity S-wave (km/s) = 3.39641 2.23526 2.87506
# Velocity P-wave (km/s) = 5.50862 5.55179 5.53025
#
# Compressibility (1/GPa) = 0.03322953
#
# Stress axis : x y z
#
# Youngs Moduli (GPa) = 26.24585 58.64650 37.14769
#
# Poissons Ratio (x) = 0.44495 0.30788
# Poissons Ratio (y) = 0.19912 0.31748
# Poissons Ratio (z) = 0.21752 0.50122
#
# Static dielectric constant tensor:
#      x y z
#    x 1.746320 0.000000 -0.004500 
#    y 0.000000 1.746400 0.000000 
#    z -0.004500 0.000000 1.773640 
# 
# From -- ./inp_files/89088.got.cif
#   From: 2010.05.17/outbox.cif.g08.bks.cpg/sg15_45_cif.got.tgz:89088.got - 2010.06.03 18:47:42.
