data_PCOD9255491
_publ_section_title
;
Structure prediction by ZEFSAII (Michael W. Deem and Ramdas Pophale) SiO2 
 PCOD9255491
Probable space group: C 2/C
;
_chemical_formula_sum "Si O2"
_cell_formula_units_Z 52
_cell_length_a 17.063817
_cell_length_b 7.293249
_cell_length_c 26.748798
_cell_angle_alpha 90.000000
_cell_angle_beta 36.990891
_cell_angle_gamma 90.000000
_cell_volume 2002.962789
_symmetry_space_group_name_H-M "C 2/C"
_symmetry_group_IT_number 15
_symmetry_cell_setting 'monoclinic'
loop_
_space_group_symop_operation_xyz
x,y,z
-x,y,1/2-z
-x,-y,-z
x,-y,1/2+z
1/2+x,1/2+y,z
1/2-x,1/2+y,1/2-z
1/2-x,1/2-y,-z
1/2+x,1/2-y,1/2+z
loop_
_atom_site_type_symbol
_atom_site_label
_atom_site_fract_x
_atom_site_fract_y
_atom_site_fract_z
Si Si1 0.134064 0.530617 0.278113
Si Si2 0.476950 0.687460 0.966939
Si Si3 0.394618 0.544907 0.700519
Si Si4 0.727669 0.385528 0.072055
Si Si5 0.500000 0.522772 0.250000
Si Si6 0.655552 0.027946 0.575225
Si Si7 0.283635 0.613427 0.608072
O O1 0.249697 0.518495 0.259577
O O2 0.114242 0.744743 0.276836
O O3 0.187818 0.435171 0.201252
O O4 0.994403 0.445460 0.362780
O O5 0.525988 0.573843 0.892687
O O6 0.606613 0.753668 0.929278
O O7 0.379999 0.850308 0.003516
O O8 0.379520 0.558584 0.048197
O O9 0.458208 0.428467 0.713093
O O10 0.639435 0.437555 0.163230
O O11 0.670135 0.189048 0.083492
O O12 0.736729 0.533852 0.022987
O O13 0.699463 0.138767 0.601714
#
# Coordination Sequence:
#
# PCOD9255491 Si02
#       7
#     8   8   8   8   4   8   8
#     4  11  21  35  56  85 116 150 186 237 280 335
#     4   9  17  31  48  85 113 138 173 246 285 309
#     4  11  22  36  58  81 119 146 192 233 283 331
#     4  10  18  29  55  79 112 139 193 240 273 324
#     4  12  20  34  58  88 104 152 202 232 272 344
#     4  10  17  31  51  80 110 141 186 237 271 323
#     4   9  18  28  53  83 107 141 189 229 276 327
#
# _framework density 25.961541
#
# number of rings (size 3 to 8) (size 9 to 14) (size 15 to 20)
#    0.000    1.846    3.077    4.154    0.000    0.000 
#    0.000    0.769    6.769    0.000    0.000   14.000 
#    0.000    0.000    0.000    0.000    0.000    0.000 
#
# Total GULP energy -145090.847655 kJ/mol
# GULP energy per Si atom -5580.417218 kJ/mol
# Density = 2.590245 g / cm^3
# Si number density = 25.961541 Si / 1000 Ang^3
#
#
#
# Elastic Constant Matrix: (Units=GPa)
#
#
# Indices 1 2 3 4 5 6 
#
# 1 167.5218 24.3890 77.6889 0.0031 -21.8488 -0.0086
# 2 24.3890 53.2114 19.1220 0.0014 -0.5954 0.0040
# 3 77.6889 19.1220 204.2185 -0.0006 -5.2402 0.0001
# 4 0.0031 0.0014 -0.0006 14.1071 -0.0008 -4.0618
# 5 -21.8488 -0.5954 -5.2402 -0.0008 50.5496 0.0009
# 6 -0.0086 0.0040 0.0001 -4.0618 0.0009 13.8760
#
#
#
# Elastic Compliance Matrix: (Units=1/GPa)
#
#
# Indices 1 2 3 4 5 6 
#
# 1 0.008034 -0.002667 -0.002725 0.000000 0.003158 0.000006
# 2 -0.002667 0.020333 -0.000915 -0.000004 -0.001008 -0.000009
# 3 -0.002725 -0.000915 0.006005 0.000001 -0.000566 -0.000001
# 4 0.000000 -0.000004 0.000001 0.077411 0.000001 0.022660
# 5 0.003158 -0.001008 -0.000566 0.000001 0.021077 0.000001
# 6 0.000006 -0.000009 -0.000001 0.022660 0.000001 0.078700
#
#
# Mechanical properties :
#
#
# Convention : Reuss Voigt Hill
#
# Bulk Modulus (GPa) = 45.96484 74.15018 60.05751
# Shear Modulus (GPa) = 21.60518 35.95666 28.78092
#
# Velocity S-wave (km/s) = 2.88792 3.72559 3.33317
# Velocity P-wave (km/s) = 5.37248 6.86515 6.16416
#
# Compressibility (1/GPa) = 0.02175576
#
# Stress axis : x y z
#
# Youngs Moduli (GPa) = 124.47871 49.18096 166.53825
#
# Poissons Ratio (x) = 0.13118 0.45387
# Poissons Ratio (y) = 0.33203 0.15239
# Poissons Ratio (z) = 0.33924 0.04500
#
# Static dielectric constant tensor:
#      x y z
#    x 2.223280 -0.000010 -0.006130 
#    y -0.000010 2.125010 0.000000 
#    z -0.006130 0.000000 1.955670 
# 
# From -- ./inp_files/315956.got.cif
#   From: 2010.05.17/outbox.cif.g08.bks.cpg/sg15_158_cif.got.tgz:315956.got - 2010.06.03 18:47:42.
