data_PCOD9255936
_publ_section_title
;
Structure prediction by ZEFSAII (Michael W. Deem and Ramdas Pophale) SiO2 
 PCOD9255936
Probable space group: C 2/C
;
_chemical_formula_sum "Si O2"
_cell_formula_units_Z 48
_cell_length_a 8.724823
_cell_length_b 11.904923
_cell_length_c 24.947901
_cell_angle_alpha 90.000000
_cell_angle_beta 134.780564
_cell_angle_gamma 90.000000
_cell_volume 1839.327958
_symmetry_space_group_name_H-M "C 2/C"
_symmetry_group_IT_number 15
_symmetry_cell_setting 'monoclinic'
loop_
_space_group_symop_operation_xyz
x,y,z
-x,y,1/2-z
-x,-y,-z
x,-y,1/2+z
1/2+x,1/2+y,z
1/2-x,1/2+y,1/2-z
1/2-x,1/2-y,-z
1/2+x,1/2-y,1/2+z
loop_
_atom_site_type_symbol
_atom_site_label
_atom_site_fract_x
_atom_site_fract_y
_atom_site_fract_z
Si Si1 0.834277 0.515364 0.792730
Si Si2 0.756080 0.874923 0.023367
Si Si3 0.699972 0.151987 0.126718
Si Si4 0.890271 0.105565 0.059460
Si Si5 0.783070 0.399526 0.170472
Si Si6 0.908939 0.325534 0.404566
O O1 0.755588 0.406816 0.805647
O O2 0.713313 0.534549 0.706847
O O3 0.090313 0.518697 0.839484
O O4 0.815764 0.622174 0.827585
O O5 0.520452 0.912536 0.944330
O O6 0.750000 0.750000 0.000000
O O7 0.732818 0.867816 0.081292
O O8 0.925308 0.974608 0.053095
O O9 0.849828 0.130197 0.112421
O O10 0.665780 0.286743 0.122282
O O11 0.075459 0.190908 0.088065
O O12 0.661274 0.139476 0.975172
O O13 0.000000 0.338899 0.250000
#
# Coordination Sequence:
#
# PCOD9255936 Si02
#       6
#     8   8   8   8   8   8
#     4   9  17  34  57  79 104 140 189 234 273 334
#     4  11  23  33  49  88 122 147 176 228 296 340
#     4  11  17  36  62  75 112 145 181 239 277 331
#     4  10  18  31  59  84  97 146 192 220 280 331
#     4   8  20  34  54  85 102 140 200 229 277 337
#     4  10  17  33  58  79 102 143 193 227 267 340
#
# _framework density 26.096487
#
# number of rings (size 3 to 8) (size 9 to 14) (size 15 to 20)
#    1.000    1.000    5.000    1.000    0.000    0.667 
#    0.000    6.667    0.000    0.000    0.000    0.000 
#    0.000    0.000    0.000    0.000    0.000    0.000 
#
# Total GULP energy -133931.072136 kJ/mol
# GULP energy per Si atom -5580.461339 kJ/mol
# Density = 2.603709 g / cm^3
# Si number density = 26.096487 Si / 1000 Ang^3
#
#
#
# Elastic Constant Matrix: (Units=GPa)
#
#
# Indices 1 2 3 4 5 6 
#
# 1 33.6166 17.0328 23.1852 0.0000 -6.3123 0.0000
# 2 17.0328 192.4403 -4.6534 0.0000 -7.7143 0.0000
# 3 23.1852 -4.6534 70.3871 0.0000 -23.1534 0.0000
# 4 0.0000 0.0000 0.0000 23.3058 0.0000 -14.5003
# 5 -6.3123 -7.7143 -23.1534 0.0000 18.6027 0.0000
# 6 0.0000 0.0000 0.0000 -14.5003 0.0000 31.3430
#
#
#
# Elastic Compliance Matrix: (Units=1/GPa)
#
#
# Indices 1 2 3 4 5 6 
#
# 1 0.042153 -0.004498 -0.017086 0.000000 -0.008828 0.000000
# 2 -0.004498 0.005904 0.003683 0.000000 0.005506 0.000000
# 3 -0.017086 0.003683 0.031619 0.000000 0.035084 0.000000
# 4 0.000000 0.000000 0.000000 0.060250 0.000000 0.027874
# 5 -0.008828 0.005506 0.035084 0.000000 0.096710 0.000000
# 6 0.000000 0.000000 0.000000 0.027874 0.000000 0.044800
#
#
# Mechanical properties :
#
#
# Convention : Reuss Voigt Hill
#
# Bulk Modulus (GPa) = 22.79202 40.84148 31.81675
# Shear Modulus (GPa) = 15.06643 32.04227 23.55435
#
# Velocity S-wave (km/s) = 2.40539 3.50785 3.00757
# Velocity P-wave (km/s) = 4.05798 5.66488 4.92738
#
# Compressibility (1/GPa) = 0.04387500
#
# Stress axis : x y z
#
# Youngs Moduli (GPa) = 23.72323 169.36733 31.62609
#
# Poissons Ratio (x) = 0.76180 0.54037
# Poissons Ratio (y) = 0.10671 -0.11649
# Poissons Ratio (z) = 0.40534 -0.62383
#
# Static dielectric constant tensor:
#      x y z
#    x 2.251850 0.000000 0.254240 
#    y 0.000000 2.067270 0.000000 
#    z 0.254240 0.000000 2.304570 
# 
# From -- ./inp_files/236579.got.cif
#   From: 2010.05.17/outbox.cif.g08.bks.cpg/sg15_119_cif.got.tgz:236579.got - 2010.06.03 18:47:42.
