data_PCOD9255075
_publ_section_title
;
Structure prediction by ZEFSAII (Michael W. Deem and Ramdas Pophale) SiO2 
 PCOD9255075
Probable space group: C 2/C
;
_chemical_formula_sum "Si O2"
_cell_formula_units_Z 60
_cell_length_a 17.221077
_cell_length_b 5.621134
_cell_length_c 29.809827
_cell_angle_alpha 90.000000
_cell_angle_beta 104.010384
_cell_angle_gamma 90.000000
_cell_volume 2799.807607
_symmetry_space_group_name_H-M "C 2/C"
_symmetry_group_IT_number 15
_symmetry_cell_setting 'monoclinic'
loop_
_space_group_symop_operation_xyz
x,y,z
-x,y,1/2-z
-x,-y,-z
x,-y,1/2+z
1/2+x,1/2+y,z
1/2-x,1/2+y,1/2-z
1/2-x,1/2-y,-z
1/2+x,1/2-y,1/2+z
loop_
_atom_site_type_symbol
_atom_site_label
_atom_site_fract_x
_atom_site_fract_y
_atom_site_fract_z
Si Si1 0.230075 0.484434 0.593366
Si Si2 0.890244 0.009351 0.559044
Si Si3 0.871355 0.508776 0.682295
Si Si4 0.500000 0.312715 0.250000
Si Si5 0.209594 0.986129 0.546312
Si Si6 0.763352 0.341943 0.309964
Si Si7 0.367299 0.614967 0.258552
Si Si8 0.102194 0.488159 0.419618
O O1 0.322423 0.496402 0.588924
O O2 0.195097 0.236986 0.569672
O O3 0.226896 0.485995 0.646574
O O4 0.195232 0.736856 0.570469
O O5 0.935427 0.258324 0.572524
O O6 0.841400 0.016877 0.505939
O O7 0.935031 0.756930 0.567789
O O8 0.937427 0.338441 0.713313
O O9 0.785467 0.383064 0.677229
O O10 0.875820 0.741368 0.713393
O O11 0.889117 0.533256 0.632668
O O12 0.447827 0.471438 0.276092
O O13 0.305486 0.995778 0.549241
O O14 0.707913 0.445171 0.262432
O O15 0.845373 0.275320 0.297489
#
# Coordination Sequence:
#
# PCOD9255075 Si02
#       8
#     8   8   8   4   8   8   8   8
#     4  10  18  28  44  75 108 152 178 237 278 363
#     4  10  17  28  44  75 111 153 181 232 297 361
#     4  11  21  39  54  83 113 159 195 245 303 348
#     4  10  26  40  58  80 116 160 202 252 300 354
#     4  10  17  28  45  71 117 151 182 226 305 356
#     4  11  21  33  58  84 113 150 203 239 306 351
#     4  11  22  39  59  83 114 156 199 257 298 361
#     4  10  18  28  49  72 109 147 190 233 285 357
#
# _framework density 21.430042
#
# number of rings (size 3 to 8) (size 9 to 14) (size 15 to 20)
#    0.000    1.600    4.000    6.000    1.867    0.000 
#    0.000    0.000    0.000    0.000    0.000    0.000 
#    0.000   11.733    0.000    0.000    0.000    0.000 
#
# Total GULP energy -167509.581993 kJ/mol
# GULP energy per Si atom -5583.652733 kJ/mol
# Density = 2.138127 g / cm^3
# Si number density = 21.430042 Si / 1000 Ang^3
#
#
#
# Elastic Constant Matrix: (Units=GPa)
#
#
# Indices 1 2 3 4 5 6 
#
# 1 33.6415 15.1764 11.5003 0.0000 -0.5845 0.0000
# 2 15.1764 156.8532 21.2311 0.0000 1.8802 0.0000
# 3 11.5003 21.2311 65.6623 0.0000 -8.0055 0.0000
# 4 0.0000 0.0000 0.0000 22.2559 0.0000 5.0502
# 5 -0.5845 1.8802 -8.0055 0.0000 3.0490 0.0000
# 6 0.0000 0.0000 0.0000 5.0502 0.0000 24.4544
#
#
#
# Elastic Compliance Matrix: (Units=1/GPa)
#
#
# Indices 1 2 3 4 5 6 
#
# 1 0.032642 -0.002255 -0.005965 0.000000 -0.008014 0.000000
# 2 -0.002255 0.007281 -0.003764 0.000000 -0.014805 0.000000
# 3 -0.005965 -0.003764 0.025938 0.000000 0.069281 0.000000
# 4 0.000000 0.000000 0.000000 0.047141 0.000000 -0.009735
# 5 -0.008014 -0.014805 0.069281 0.000000 0.517477 0.000000
# 6 0.000000 0.000000 0.000000 -0.009735 0.000000 0.042903
#
#
# Mechanical properties :
#
#
# Convention : Reuss Voigt Hill
#
# Bulk Modulus (GPa) = 23.87052 39.10806 31.48929
# Shear Modulus (GPa) = 7.02924 23.83513 15.43218
#
# Velocity S-wave (km/s) = 1.81307 3.33863 2.68641
# Velocity P-wave (km/s) = 3.94283 5.75767 4.93440
#
# Compressibility (1/GPa) = 0.04189268
#
# Stress axis : x y z
#
# Youngs Moduli (GPa) = 30.63508 137.35238 38.55340
#
# Poissons Ratio (x) = 0.30971 0.22997
# Poissons Ratio (y) = 0.06908 0.14512
# Poissons Ratio (z) = 0.18274 0.51702
#
# Static dielectric constant tensor:
#      x y z
#    x 1.745220 0.000000 -0.031870 
#    y 0.000000 1.899890 0.000000 
#    z -0.031870 0.000000 1.798550 
# 
# From -- ./inp_files/299955.got.cif
#   From: 2010.05.17/outbox.cif.g08.bks.cpg/sg15_150_cif.got.tgz:299955.got - 2010.06.03 18:47:42.
