data_PCOD9255662
_publ_section_title
;
Structure prediction by ZEFSAII (Michael W. Deem and Ramdas Pophale) SiO2 
 PCOD9255662
Probable space group: C 2/C
;
_chemical_formula_sum "Si O2"
_cell_formula_units_Z 60
_cell_length_a 17.744373
_cell_length_b 10.168254
_cell_length_c 17.026423
_cell_angle_alpha 90.000000
_cell_angle_beta 76.537753
_cell_angle_gamma 90.000000
_cell_volume 2987.655928
_symmetry_space_group_name_H-M "C 2/C"
_symmetry_group_IT_number 15
_symmetry_cell_setting 'monoclinic'
loop_
_space_group_symop_operation_xyz
x,y,z
-x,y,1/2-z
-x,-y,-z
x,-y,1/2+z
1/2+x,1/2+y,z
1/2-x,1/2+y,1/2-z
1/2-x,1/2-y,-z
1/2+x,1/2-y,1/2+z
loop_
_atom_site_type_symbol
_atom_site_label
_atom_site_fract_x
_atom_site_fract_y
_atom_site_fract_z
Si Si1 0.199065 0.776813 0.775419
Si Si2 0.574181 0.053027 0.381952
Si Si3 0.000000 0.545710 0.250000
Si Si4 0.524372 0.201085 0.534924
Si Si5 0.128837 0.357463 0.140050
Si Si6 0.634045 0.285551 0.958480
Si Si7 0.251412 0.974517 0.178933
Si Si8 0.732693 0.960010 0.501782
O O1 0.171291 0.715410 0.700351
O O2 0.141103 0.779220 0.862458
O O3 0.218067 0.925130 0.749269
O O4 0.264374 0.677133 0.794333
O O5 0.533693 0.118951 0.316980
O O6 0.580492 0.151398 0.452552
O O7 0.656530 0.998383 0.337137
O O8 0.522495 0.929386 0.423577
O O9 0.931132 0.455958 0.302001
O O10 0.576906 0.237305 0.596646
O O11 0.458593 0.290567 0.510415
O O12 0.187502 0.438217 0.068901
O O13 0.693145 0.397390 0.972780
O O14 0.670174 0.154802 0.992070
O O15 0.236161 0.005995 0.091210
#
# Coordination Sequence:
#
# PCOD9255662 Si02
#       8
#     8   8   4   8   8   8   8   8
#     4  11  22  36  58  85 124 148 199 242 305 349
#     4  10  17  32  51  85 116 143 191 258 292 338
#     4  10  18  26  54  80 116 138 196 240 302 328
#     4  10  17  32  56  80 119 144 197 250 297 344
#     4  11  19  32  53  86 110 153 188 255 292 350
#     4  10  19  34  54  85 116 161 186 245 303 373
#     4  11  21  40  55  89 116 157 193 252 293 367
#     4  10  20  34  54  82 122 153 201 230 310 361
#
# _framework density 20.082633999999999
#
# number of rings (size 3 to 8) (size 9 to 14) (size 15 to 20)
#    0.000    1.600    5.333    3.200    0.000    0.533 
#    2.400    0.000    0.000    0.800    6.933    0.000 
#    0.000    0.000    0.000    0.000    0.000    0.000 
#
# Total GULP energy -167017.382512 kJ/mol
# GULP energy per Si atom -5567.246084 kJ/mol
# Density = 2.003692 g / cm^3
# Si number density = 20.082634 Si / 1000 Ang^3
#
#
#
# Elastic Constant Matrix: (Units=GPa)
#
#
# Indices 1 2 3 4 5 6 
#
# 1 49.4643 -4.8360 12.0941 0.0000 21.9395 0.0000
# 2 -4.8360 17.1088 -3.2810 0.0000 -4.5532 0.0000
# 3 12.0941 -3.2810 77.8940 0.0000 28.6372 0.0000
# 4 0.0000 0.0000 0.0000 21.7703 0.0000 -2.0761
# 5 21.9395 -4.5532 28.6372 0.0000 27.7830 0.0000
# 6 0.0000 0.0000 0.0000 -2.0761 0.0000 12.3030
#
#
#
# Elastic Compliance Matrix: (Units=1/GPa)
#
#
# Indices 1 2 3 4 5 6 
#
# 1 0.033559 0.001919 0.007242 0.000000 -0.033651 0.000000
# 2 0.001919 0.061379 -0.001375 0.000000 0.009961 0.000000
# 3 0.007242 -0.001375 0.022286 0.000000 -0.028916 0.000000
# 4 0.000000 0.000000 0.000000 0.046685 0.000000 0.007878
# 5 -0.033651 0.009961 -0.028916 0.000000 0.094004 0.000000
# 6 0.000000 0.000000 0.000000 0.007878 0.000000 0.082611
#
#
# Mechanical properties :
#
#
# Convention : Reuss Voigt Hill
#
# Bulk Modulus (GPa) = 7.53027 16.93570 12.23298
# Shear Modulus (GPa) = 13.54216 21.73724 17.63970
#
# Velocity S-wave (km/s) = 2.59959 3.29354 2.96692
# Velocity P-wave (km/s) = 3.57327 4.78691 4.22391
#
# Compressibility (1/GPa) = 0.13279733
#
# Stress axis : x y z
#
# Youngs Moduli (GPa) = 29.79806 16.29218 44.87066
#
# Poissons Ratio (x) = -0.03126 -0.32495
# Poissons Ratio (y) = -0.05718 0.06168
# Poissons Ratio (z) = -0.21579 0.02239
#
# Static dielectric constant tensor:
#      x y z
#    x 1.734530 0.000000 0.032330 
#    y 0.000000 1.773310 0.000000 
#    z 0.032330 0.000000 1.724170 
# 
# From -- ./inp_files/160895.got.cif
#   From: 2010.05.17/outbox.cif.g08.bks.cpg/sg15_81_cif.got.tgz:160895.got - 2010.06.03 18:47:42.
