data_PCOD9255149
_publ_section_title
;
Structure prediction by ZEFSAII (Michael W. Deem and Ramdas Pophale) SiO2 
 PCOD9255149
Probable space group: C 2/C
;
_chemical_formula_sum "Si O2"
_cell_formula_units_Z 40
_cell_length_a 6.627019
_cell_length_b 13.748510
_cell_length_c 22.470223
_cell_angle_alpha 90.000000
_cell_angle_beta 126.146503
_cell_angle_gamma 90.000000
_cell_volume 1653.217138
_symmetry_space_group_name_H-M "C 2/C"
_symmetry_group_IT_number 15
_symmetry_cell_setting 'monoclinic'
loop_
_space_group_symop_operation_xyz
x,y,z
-x,y,1/2-z
-x,-y,-z
x,-y,1/2+z
1/2+x,1/2+y,z
1/2-x,1/2+y,1/2-z
1/2-x,1/2-y,-z
1/2+x,1/2-y,1/2+z
loop_
_atom_site_type_symbol
_atom_site_label
_atom_site_fract_x
_atom_site_fract_y
_atom_site_fract_z
Si Si1 0.922193 0.889502 0.917158
Si Si2 0.710965 0.889146 0.234495
Si Si3 0.466772 0.249987 0.358393
Si Si4 0.772998 0.110840 0.265512
Si Si5 0.246427 0.610500 0.917154
O O1 0.719181 0.811872 0.905616
O O2 0.953688 0.869853 0.852622
O O3 0.813492 0.000003 0.906740
O O4 0.168576 0.883010 0.000002
O O5 0.500000 0.877324 0.250000
O O6 0.939518 0.826133 0.298878
O O7 0.543224 0.869868 0.147383
O O8 0.789256 0.999991 0.250016
O O9 0.255987 0.173833 0.298880
O O10 0.403240 0.311857 0.405608
O O11 0.500000 0.122654 0.250000
#
# Coordination Sequence:
#
# PCOD9255149 Si02
#       5
#     8   8   8   8   8
#     4  10  18  30  50  80 113 138 176 230 269 315
#     4   9  15  30  47  72 104 135 181 215 254 322
#     4  10  17  28  53  78 104 146 182 214 267 332
#     4   9  15  30  47  72 104 135 181 215 254 322
#     4  10  18  30  50  80 113 138 176 230 269 315
#
# _framework density 24.195249
#
# number of rings (size 3 to 8) (size 9 to 14) (size 15 to 20)
#    0.000    2.400    8.000    0.600    0.000    0.000 
#    0.000    1.000    0.000   10.800    0.000    2.800 
#    0.000    0.000    0.000    0.000    0.000    0.000 
#
# Total GULP energy -111729.643158 kJ/mol
# GULP energy per Si atom -5586.482158 kJ/mol
# Density = 2.414018 g / cm^3
# Si number density = 24.195249 Si / 1000 Ang^3
#
#
#
# Elastic Constant Matrix: (Units=GPa)
#
#
# Indices 1 2 3 4 5 6 
#
# 1 91.2805 14.7920 37.5908 0.0000 0.0810 0.0000
# 2 14.7920 178.3152 33.3475 0.0000 0.3510 0.0000
# 3 37.5908 33.3475 217.5653 0.0000 2.3590 0.0000
# 4 0.0000 0.0000 0.0000 11.4839 0.0000 0.0263
# 5 0.0810 0.3510 2.3590 0.0000 29.4251 0.0000
# 6 0.0000 0.0000 0.0000 0.0263 0.0000 9.8745
#
#
#
# Elastic Compliance Matrix: (Units=1/GPa)
#
#
# Indices 1 2 3 4 5 6 
#
# 1 0.011861 -0.000618 -0.001956 0.000000 0.000132 0.000000
# 2 -0.000618 0.005806 -0.000783 0.000000 -0.000005 0.000000
# 3 -0.001956 -0.000783 0.005059 0.000000 -0.000391 0.000000
# 4 0.000000 0.000000 0.000000 0.087079 0.000000 -0.000232
# 5 0.000132 -0.000005 -0.000391 0.000000 0.034016 0.000000
# 6 0.000000 0.000000 0.000000 -0.000232 0.000000 0.101271
#
#
# Mechanical properties :
#
#
# Convention : Reuss Voigt Hill
#
# Bulk Modulus (GPa) = 62.45901 73.18017 67.81959
# Shear Modulus (GPa) = 19.44449 36.91877 28.18163
#
# Velocity S-wave (km/s) = 2.83795 3.91047 3.41656
# Velocity P-wave (km/s) = 6.05055 7.12042 6.60718
#
# Compressibility (1/GPa) = 0.01601050
#
# Stress axis : x y z
#
# Youngs Moduli (GPa) = 84.31114 172.24206 197.68633
#
# Poissons Ratio (x) = 0.10651 0.38666
# Poissons Ratio (y) = 0.05214 0.15479
# Poissons Ratio (z) = 0.16491 0.13486
#
# Static dielectric constant tensor:
#      x y z
#    x 2.085210 0.000000 -0.003140 
#    y 0.000000 1.983010 0.000000 
#    z -0.003140 0.000000 1.924800 
# 
# From -- ./inp_files/310547.got.cif
#   From: 2010.05.17/outbox.cif.g08.bks.cpg/sg15_156_cif.got.tgz:310547.got - 2010.06.03 18:47:42.
