data_PCOD9255372
_publ_section_title
;
Structure prediction by ZEFSAII (Michael W. Deem and Ramdas Pophale) SiO2 
 PCOD9255372
Probable space group: C 2/C
;
_chemical_formula_sum "Si O2"
_cell_formula_units_Z 56
_cell_length_a 20.150754
_cell_length_b 11.261436
_cell_length_c 20.119936
_cell_angle_alpha 90.000000
_cell_angle_beta 36.999393
_cell_angle_gamma 90.000000
_cell_volume 2747.695410
_symmetry_space_group_name_H-M "C 2/C"
_symmetry_group_IT_number 15
_symmetry_cell_setting 'monoclinic'
loop_
_space_group_symop_operation_xyz
x,y,z
-x,y,1/2-z
-x,-y,-z
x,-y,1/2+z
1/2+x,1/2+y,z
1/2-x,1/2+y,1/2-z
1/2-x,1/2-y,-z
1/2+x,1/2-y,1/2+z
loop_
_atom_site_type_symbol
_atom_site_label
_atom_site_fract_x
_atom_site_fract_y
_atom_site_fract_z
Si Si1 0.408647 0.435434 0.766167
Si Si2 0.976085 0.868223 0.048761
Si Si3 0.467297 0.221385 0.623092
Si Si4 0.702193 0.803448 0.971347
Si Si5 0.245278 0.099424 0.829420
Si Si6 0.120539 0.817857 0.167324
Si Si7 0.811367 0.868903 0.535758
O O1 0.500000 0.409093 0.750000
O O2 0.437187 0.345789 0.684163
O O3 0.284252 0.407019 0.886403
O O4 0.407997 0.576134 0.759018
O O5 0.843270 0.880232 0.158912
O O6 0.067757 0.843198 0.030815
O O7 0.001081 0.764374 0.975361
O O8 0.000000 0.000000 0.000000
O O9 0.573688 0.168183 0.575237
O O10 0.367191 0.129579 0.706917
O O11 0.716882 0.701468 0.905085
O O12 0.750000 0.750000 0.000000
O O13 0.229910 0.979839 0.885582
O O14 0.165358 0.878696 0.062439
O O15 0.000000 0.759322 0.250000
O O16 0.215686 0.730361 0.116136
#
# Coordination Sequence:
#
# PCOD9255372 Si02
#       7
#     8   8   8   8   8   8   8
#     4  10  19  32  55  83 114 153 191 237 292 356
#     4   9  20  36  62  82 115 160 196 244 287 361
#     4  10  20  35  55  90 119 149 195 240 309 352
#     4  10  17  30  52  83 114 148 180 240 294 346
#     4   9  20  35  58  85 115 148 196 244 294 357
#     4  10  23  38  61  85 117 158 202 244 292 366
#     4  10  21  43  56  86 115 156 201 246 295 346
#
# _framework density 20.380716
#
# number of rings (size 3 to 8) (size 9 to 14) (size 15 to 20)
#    0.000    2.286    1.429    0.857   10.000    1.143 
#   10.286    0.000    0.000    2.571    0.000    0.000 
#    0.000    0.000    0.000    0.000    0.000    0.000 
#
# Total GULP energy -155913.581871 kJ/mol
# GULP energy per Si atom -5568.342210 kJ/mol
# Density = 2.033433 g / cm^3
# Si number density = 20.380716 Si / 1000 Ang^3
#
#
#
# Elastic Constant Matrix: (Units=GPa)
#
#
# Indices 1 2 3 4 5 6 
#
# 1 115.2835 44.1549 48.2091 0.0000 -37.8857 0.0000
# 2 44.1549 66.7136 40.9976 0.0000 -20.6187 0.0000
# 3 48.2091 40.9976 133.5769 0.0000 -48.6616 0.0000
# 4 0.0000 0.0000 0.0000 24.9537 0.0000 -4.0782
# 5 -37.8857 -20.6187 -48.6616 0.0000 41.9936 0.0000
# 6 0.0000 0.0000 0.0000 -4.0782 0.0000 21.0938
#
#
#
# Elastic Compliance Matrix: (Units=1/GPa)
#
#
# Indices 1 2 3 4 5 6 
#
# 1 0.014409 -0.006713 0.000683 0.000000 0.010495 0.000000
# 2 -0.006713 0.022067 -0.004515 0.000000 -0.000454 0.000000
# 3 0.000683 -0.004515 0.013918 0.000000 0.014527 0.000000
# 4 0.000000 0.000000 0.000000 0.041382 0.000000 0.008001
# 5 0.010495 -0.000454 0.014527 0.000000 0.049893 0.000000
# 6 0.000000 0.000000 0.000000 0.008001 0.000000 0.048954
#
#
# Mechanical properties :
#
#
# Convention : Reuss Voigt Hill
#
# Bulk Modulus (GPa) = 34.12528 64.69969 49.41248
# Shear Modulus (GPa) = 22.57547 29.75571 26.16559
#
# Velocity S-wave (km/s) = 3.33181 3.82513 3.58696
# Velocity P-wave (km/s) = 5.61974 7.16403 6.43835
#
# Compressibility (1/GPa) = 0.02930379
#
# Stress axis : x y z
#
# Youngs Moduli (GPa) = 69.40332 45.31657 71.85068
#
# Poissons Ratio (x) = 0.30420 -0.04911
# Poissons Ratio (y) = 0.46589 0.32444
# Poissons Ratio (z) = -0.04743 0.20462
#
# Static dielectric constant tensor:
#      x y z
#    x 1.782740 0.000000 0.000280 
#    y 0.000000 1.713000 0.000000 
#    z 0.000280 0.000000 1.728220 
# 
# From -- ./inp_files/279968.got.cif
#   From: 2010.05.17/outbox.cif.g08.bks.cpg/sg15_140_cif.got.tgz:279968.got - 2010.06.03 18:47:42.
