data_PCOD9255923
_publ_section_title
;
Structure prediction by ZEFSAII (Michael W. Deem and Ramdas Pophale) SiO2 
 PCOD9255923
Probable space group: C 2/C
;
_chemical_formula_sum "Si O2"
_cell_formula_units_Z 44
_cell_length_a 9.344573
_cell_length_b 10.907963
_cell_length_c 24.643209
_cell_angle_alpha 90.000000
_cell_angle_beta 58.647510
_cell_angle_gamma 90.000000
_cell_volume 2145.108990
_symmetry_space_group_name_H-M "C 2/C"
_symmetry_group_IT_number 15
_symmetry_cell_setting 'monoclinic'
loop_
_space_group_symop_operation_xyz
x,y,z
-x,y,1/2-z
-x,-y,-z
x,-y,1/2+z
1/2+x,1/2+y,z
1/2-x,1/2+y,1/2-z
1/2-x,1/2-y,-z
1/2+x,1/2-y,1/2+z
loop_
_atom_site_type_symbol
_atom_site_label
_atom_site_fract_x
_atom_site_fract_y
_atom_site_fract_z
Si Si1 0.666707 0.459984 0.025264
Si Si2 0.829529 0.340654 0.635712
Si Si3 0.378718 0.905154 0.082737
Si Si4 0.001353 0.875681 0.160099
Si Si5 0.058852 0.205325 0.993314
Si Si6 0.000000 0.946832 0.750000
O O1 0.830487 0.443722 0.029787
O O2 0.521371 0.452483 0.100119
O O3 0.617979 0.347553 0.995889
O O4 0.652780 0.585713 0.996257
O O5 0.914747 0.473987 0.610424
O O6 0.915333 0.251063 0.661967
O O7 0.640717 0.368906 0.691533
O O8 0.846253 0.273808 0.574140
O O9 0.196372 0.856089 0.138357
O O10 0.512130 0.798623 0.050289
O O11 0.920107 0.961802 0.221053
#
# Coordination Sequence:
#
# PCOD9255923 Si02
#       6
#     8   8   8   8   8   4
#     4   8  18  32  54  84 113 143 162 220 282 321
#     4  10  20  35  59  79 105 147 184 219 269 325
#     4   9  18  34  56  79 109 139 166 222 277 316
#     4   8  19  38  57  75 107 144 180 224 273 320
#     4  10  17  33  57  86 114 136 176 220 276 334
#     4  10  20  42  52  70 110 152 180 226 266 298
#
# _framework density 20.511779000000001
#
# number of rings (size 3 to 8) (size 9 to 14) (size 15 to 20)
#    1.091    1.818    0.000    1.091    0.000    0.727 
#    6.545    1.818    4.000    0.000    0.000    0.000 
#    0.000    0.000    0.000    0.000    0.000    0.000 
#
# Total GULP energy -122574.235712 kJ/mol
# GULP energy per Si atom -5571.556169 kJ/mol
# Density = 2.046509 g / cm^3
# Si number density = 20.511779 Si / 1000 Ang^3
#
#
#
# Elastic Constant Matrix: (Units=GPa)
#
#
# Indices 1 2 3 4 5 6 
#
# 1 49.8006 38.6403 6.4449 0.0000 -1.9697 0.0000
# 2 38.6403 144.6346 52.8484 0.0000 -8.4196 0.0000
# 3 6.4449 52.8484 70.2984 0.0000 -19.7143 0.0000
# 4 0.0000 0.0000 0.0000 16.0091 0.0000 8.1460
# 5 -1.9697 -8.4196 -19.7143 0.0000 21.6673 0.0000
# 6 0.0000 0.0000 0.0000 8.1460 0.0000 32.7951
#
#
#
# Elastic Compliance Matrix: (Units=1/GPa)
#
#
# Indices 1 2 3 4 5 6 
#
# 1 0.026310 -0.008703 0.005172 0.000000 0.003716 0.000000
# 2 -0.008703 0.012647 -0.010141 0.000000 -0.005104 0.000000
# 3 0.005172 -0.010141 0.027391 0.000000 0.021451 0.000000
# 4 0.000000 0.000000 0.000000 0.071502 0.000000 -0.017760
# 5 0.003716 -0.005104 0.021451 0.000000 0.064024 0.000000
# 6 0.000000 0.000000 0.000000 -0.017760 0.000000 0.034904
#
#
# Mechanical properties :
#
#
# Convention : Reuss Voigt Hill
#
# Bulk Modulus (GPa) = 25.63782 51.17788 38.40785
# Shear Modulus (GPa) = 18.04254 25.21429 21.62841
#
# Velocity S-wave (km/s) = 2.96905 3.50988 3.25074
# Velocity P-wave (km/s) = 4.92747 6.43664 5.73194
#
# Compressibility (1/GPa) = 0.03900487
#
# Stress axis : x y z
#
# Youngs Moduli (GPa) = 38.00838 79.06734 36.50887
#
# Poissons Ratio (x) = 0.68809 -0.18884
# Poissons Ratio (y) = 0.33077 0.37025
# Poissons Ratio (z) = -0.19660 0.80186
#
# Static dielectric constant tensor:
#      x y z
#    x 1.812140 0.000000 0.004490 
#    y 0.000000 1.739730 0.000000 
#    z 0.004490 0.000000 1.755820 
# 
# From -- ./inp_files/294737.got.cif
#   From: 2010.05.17/outbox.cif.g08.bks.cpg/sg15_148_cif.got.tgz:294737.got - 2010.06.03 18:47:42.
