data_PCOD9255413
_publ_section_title
;
Structure prediction by ZEFSAII (Michael W. Deem and Ramdas Pophale) SiO2 
 PCOD9255413
Probable space group: C 2/C
;
_chemical_formula_sum "Si O2"
_cell_formula_units_Z 64
_cell_length_a 12.917269
_cell_length_b 15.035731
_cell_length_c 18.029641
_cell_angle_alpha 90.000000
_cell_angle_beta 54.891564
_cell_angle_gamma 90.000000
_cell_volume 2864.640764
_symmetry_space_group_name_H-M "C 2/C"
_symmetry_group_IT_number 15
_symmetry_cell_setting 'monoclinic'
loop_
_space_group_symop_operation_xyz
x,y,z
-x,y,1/2-z
-x,-y,-z
x,-y,1/2+z
1/2+x,1/2+y,z
1/2-x,1/2+y,1/2-z
1/2-x,1/2-y,-z
1/2+x,1/2-y,1/2+z
loop_
_atom_site_type_symbol
_atom_site_label
_atom_site_fract_x
_atom_site_fract_y
_atom_site_fract_z
Si Si1 0.305457 0.671142 0.389126
Si Si2 0.393946 0.931684 0.073545
Si Si3 0.940500 0.319975 0.915758
Si Si4 0.981322 0.857456 0.479034
Si Si5 0.537043 0.778353 0.074375
Si Si6 0.827659 0.037720 0.512967
Si Si7 0.715629 0.083694 0.293490
Si Si8 0.359486 0.060349 0.332494
O O1 0.401926 0.746274 0.374980
O O2 0.161604 0.699812 0.471293
O O3 0.335997 0.588254 0.431668
O O4 0.308448 0.645727 0.302119
O O5 0.453402 0.865548 0.109177
O O6 0.292083 0.993417 0.155186
O O7 0.367051 0.868080 0.014202
O O8 0.500000 0.000000 0.000000
O O9 0.867311 0.344942 0.871120
O O10 0.965033 0.217573 0.923444
O O11 0.077477 0.368169 0.853314
O O12 0.959902 0.799721 0.563561
O O13 0.116968 0.899097 0.445338
O O14 0.899567 0.943450 0.490847
O O15 0.685251 0.012115 0.590267
O O16 0.732308 0.063805 0.200392
O O17 0.500000 0.037647 0.250000
#
# Coordination Sequence:
#
# PCOD9255413 Si02
#       8
#     8   8   8   8   8   8   8   8
#     4  10  17  30  55  83 102 136 187 228 268 314
#     4   9  14  26  50  79 100 131 174 226 260 306
#     4   9  17  33  55  79 108 144 183 233 271 320
#     4   9  18  37  59  81 107 139 184 234 272 316
#     4   9  17  28  54  81 103 129 172 233 270 306
#     4  10  21  34  60  85 108 141 188 234 273 325
#     4  10  18  31  52  77 110 145 175 223 277 329
#     4  10  22  34  53  79 114 152 177 220 283 336
#
# _framework density 22.341370000000001
#
# number of rings (size 3 to 8) (size 9 to 14) (size 15 to 20)
#    0.000    2.500    3.750    0.750    3.500    0.500 
#    0.000    0.000   19.250    7.500    0.000    0.000 
#    0.000    0.000    0.000    0.000    0.000    0.000 
#
# Total GULP energy -178449.439563 kJ/mol
# GULP energy per Si atom -5576.544986 kJ/mol
# Density = 2.229052 g / cm^3
# Si number density = 22.341370 Si / 1000 Ang^3
#
#
#
# Elastic Constant Matrix: (Units=GPa)
#
#
# Indices 1 2 3 4 5 6 
#
# 1 58.1020 17.0031 12.9330 0.0000 20.9056 0.0000
# 2 17.0031 107.8181 8.0677 0.0000 1.3402 0.0000
# 3 12.9330 8.0677 25.8541 0.0000 17.0303 0.0000
# 4 0.0000 0.0000 0.0000 6.6941 0.0000 4.4697
# 5 20.9056 1.3402 17.0303 0.0000 27.3864 0.0000
# 6 0.0000 0.0000 0.0000 4.4697 0.0000 41.6143
#
#
#
# Elastic Compliance Matrix: (Units=1/GPa)
#
#
# Indices 1 2 3 4 5 6 
#
# 1 0.025198 -0.003867 0.001944 0.000000 -0.020255 0.000000
# 2 -0.003867 0.010179 -0.004841 0.000000 0.005465 0.000000
# 3 0.001944 -0.004841 0.067818 0.000000 -0.043420 0.000000
# 4 0.000000 0.000000 0.000000 0.160927 0.000000 -0.017285
# 5 -0.020255 0.005465 -0.043420 0.000000 0.078709 0.000000
# 6 0.000000 0.000000 0.000000 -0.017285 0.000000 0.025887
#
#
# Mechanical properties :
#
#
# Convention : Reuss Voigt Hill
#
# Bulk Modulus (GPa) = 11.15259 29.75354 20.45306
# Shear Modulus (GPa) = 12.13190 25.39032 18.76111
#
# Velocity S-wave (km/s) = 2.33282 3.37482 2.90098
# Velocity P-wave (km/s) = 3.50125 5.34158 4.51615
#
# Compressibility (1/GPa) = 0.08966526
#
# Stress axis : x y z
#
# Youngs Moduli (GPa) = 39.68577 98.24023 14.74531
#
# Poissons Ratio (x) = 0.37994 -0.02866
# Poissons Ratio (y) = 0.15348 0.07139
# Poissons Ratio (z) = -0.07715 0.47563
#
# Static dielectric constant tensor:
#      x y z
#    x 1.892040 0.000000 0.006560 
#    y 0.000000 1.836960 0.000000 
#    z 0.006560 0.000000 1.861860 
# 
# From -- ./inp_files/205408.got.cif
#   From: 2010.05.17/outbox.cif.g08.bks.cpg/sg15_103_cif.got.tgz:205408.got - 2010.06.03 18:47:42.
