data_PCOD9255093
_publ_section_title
;
Structure prediction by ZEFSAII (Michael W. Deem and Ramdas Pophale) SiO2 
 PCOD9255093
Probable space group: C 2/C
;
_chemical_formula_sum "Si O2"
_cell_formula_units_Z 60
_cell_length_a 6.353089
_cell_length_b 23.430937
_cell_length_c 29.389013
_cell_angle_alpha 90.000000
_cell_angle_beta 57.286939
_cell_angle_gamma 90.000000
_cell_volume 3680.914317
_symmetry_space_group_name_H-M "C 2/C"
_symmetry_group_IT_number 15
_symmetry_cell_setting 'monoclinic'
loop_
_space_group_symop_operation_xyz
x,y,z
-x,y,1/2-z
-x,-y,-z
x,-y,1/2+z
1/2+x,1/2+y,z
1/2-x,1/2+y,1/2-z
1/2-x,1/2-y,-z
1/2+x,1/2-y,1/2+z
loop_
_atom_site_type_symbol
_atom_site_label
_atom_site_fract_x
_atom_site_fract_y
_atom_site_fract_z
Si Si1 0.527351 0.875000 0.539060
Si Si2 0.752447 0.815490 0.696443
Si Si3 0.000000 0.125000 0.250000
Si Si4 0.531398 0.684149 0.989036
Si Si5 0.773424 0.434148 0.489035
Si Si6 0.885970 0.218795 0.418344
Si Si7 0.015337 0.565489 0.196443
Si Si8 0.272308 0.031205 0.418344
O O1 0.478256 0.917710 0.502686
O O2 0.277679 0.837688 0.573777
O O3 0.603436 0.912313 0.573777
O O4 0.758311 0.832290 0.502687
O O5 0.500000 0.792728 0.750000
O O6 0.939120 0.835122 0.714345
O O7 0.669265 0.875000 0.682294
O O8 0.891418 0.777040 0.643618
O O9 0.239154 0.085122 0.214346
O O10 0.681676 0.625000 0.977330
O O11 0.695018 0.728447 0.941342
O O12 0.511430 0.710220 0.042390
O O13 0.848272 0.478447 0.441341
O O14 0.526621 0.460220 0.542390
O O15 0.140495 0.527039 0.143617
O O16 0.000000 0.542727 0.250000
#
# Coordination Sequence:
#
# PCOD9255093 Si02
#       8
#     8   8   4   8   8   8   8   8
#     4  10  17  28  46  69  96 124 154 188 232 294
#     4   9  17  28  43  66  93 119 151 185 232 278
#     4   8  16  28  40  62  92 116 142 184 228 274
#     4   9  19  31  45  68  95 124 155 188 235 283
#     4   9  19  31  45  68  95 124 155 188 235 283
#     4  10  18  30  47  68  95 124 152 192 236 282
#     4   9  17  28  43  66  93 119 151 185 232 278
#     4  10  18  30  47  68  95 124 152 192 236 282
#
# _framework density 16.300298000000002
#
# number of rings (size 3 to 8) (size 9 to 14) (size 15 to 20)
#    0.000    2.933    0.000    4.000    0.000    2.133 
#    0.000    0.000    0.000    0.000    3.467    0.000 
#    0.000    0.000    0.000    0.000    0.000    0.000 
#
# Total GULP energy -167200.627510 kJ/mol
# GULP energy per Si atom -5573.354250 kJ/mol
# Density = 1.626320 g / cm^3
# Si number density = 16.300298 Si / 1000 Ang^3
#
#
#
# Elastic Constant Matrix: (Units=GPa)
#
#
# Indices 1 2 3 4 5 6 
#
# 1 82.8121 8.3760 33.5471 0.0000 0.0004 0.0000
# 2 8.3760 43.0907 37.1699 0.0000 0.0002 0.0000
# 3 33.5471 37.1699 137.2429 0.0000 0.0005 0.0000
# 4 0.0000 0.0000 0.0000 21.1599 0.0000 0.0002
# 5 0.0004 0.0002 0.0005 0.0000 6.7968 0.0000
# 6 0.0000 0.0000 0.0000 0.0002 0.0000 20.8343
#
#
#
# Elastic Compliance Matrix: (Units=1/GPa)
#
#
# Indices 1 2 3 4 5 6 
#
# 1 0.013405 0.000288 -0.003355 0.000000 -0.000001 0.000000
# 2 0.000288 0.030287 -0.008273 0.000000 0.000000 0.000000
# 3 -0.003355 -0.008273 0.010347 0.000000 0.000000 0.000000
# 4 0.000000 0.000000 0.000000 0.047259 0.000000 0.000000
# 5 -0.000001 0.000000 0.000000 0.000000 0.147129 0.000000
# 6 0.000000 0.000000 0.000000 0.000000 0.000000 0.047998
#
#
# Mechanical properties :
#
#
# Convention : Reuss Voigt Hill
#
# Bulk Modulus (GPa) = 31.88785 46.81462 39.35123
# Shear Modulus (GPa) = 15.17182 22.02838 18.60010
#
# Velocity S-wave (km/s) = 3.05416 3.68014 3.38167
# Velocity P-wave (km/s) = 5.66060 6.84400 6.28024
#
# Compressibility (1/GPa) = 0.03135991
#
# Stress axis : x y z
#
# Youngs Moduli (GPa) = 74.59678 33.01711 96.64604
#
# Poissons Ratio (x) = -0.00951 0.32423
# Poissons Ratio (y) = -0.02149 0.79957
# Poissons Ratio (z) = 0.25026 0.27316
#
# Static dielectric constant tensor:
#      x y z
#    x 1.582330 0.000000 0.000000 
#    y 0.000000 1.551010 0.000000 
#    z 0.000000 0.000000 1.554000 
# 
# From -- ./inp_files/306084.got.cif
#   From: 2010.05.17/outbox.cif.g08.bks.cpg/sg15_154_cif.got.tgz:306084.got - 2010.06.03 18:47:42.
