data_PCOD9255799
_publ_section_title
;
Structure prediction by ZEFSAII (Michael W. Deem and Ramdas Pophale) SiO2 
 PCOD9255799
Probable space group: C 2/C
;
_chemical_formula_sum "Si O2"
_cell_formula_units_Z 64
_cell_length_a 15.336487
_cell_length_b 11.919806
_cell_length_c 27.722470
_cell_angle_alpha 90.000000
_cell_angle_beta 143.867810
_cell_angle_gamma 90.000000
_cell_volume 2988.281168
_symmetry_space_group_name_H-M "C 2/C"
_symmetry_group_IT_number 15
_symmetry_cell_setting 'monoclinic'
loop_
_space_group_symop_operation_xyz
x,y,z
-x,y,1/2-z
-x,-y,-z
x,-y,1/2+z
1/2+x,1/2+y,z
1/2-x,1/2+y,1/2-z
1/2-x,1/2-y,-z
1/2+x,1/2-y,1/2+z
loop_
_atom_site_type_symbol
_atom_site_label
_atom_site_fract_x
_atom_site_fract_y
_atom_site_fract_z
Si Si1 0.806203 0.433835 0.510056
Si Si2 0.742184 0.258177 0.913526
Si Si3 0.467717 0.201080 0.440874
Si Si4 0.832344 0.463771 0.179268
Si Si5 0.248247 0.325232 0.912276
Si Si6 0.956769 0.872652 0.179969
Si Si7 0.117040 0.920687 0.160162
Si Si8 0.117987 0.122812 0.443439
O O1 0.964521 0.397567 0.561309
O O2 0.762992 0.355669 0.535954
O O3 0.682820 0.420893 0.412775
O O4 0.777085 0.558399 0.515187
O O5 0.683977 0.152792 0.856796
O O6 0.618831 0.318317 0.891318
O O7 0.833050 0.331347 0.915274
O O8 0.864231 0.210611 0.005776
O O9 0.609624 0.248159 0.533321
O O10 0.427648 0.310319 0.390689
O O11 0.738706 0.559919 0.110879
O O12 0.773968 0.452579 0.207641
O O13 0.000000 0.499453 0.250000
O O14 0.102453 0.252783 0.836737
O O15 0.000000 0.926114 0.250000
O O16 0.094073 0.884570 0.204972
O O17 0.007527 0.028597 0.104372
#
# Coordination Sequence:
#
# PCOD9255799 Si02
#       8
#     8   8   8   8   8   8   8   8
#     4  10  18  33  59  86 115 142 188 239 279 330
#     4  10  21  34  54  82 115 147 187 232 277 343
#     4  10  17  32  59  86 108 143 184 235 287 325
#     4  11  23  38  57  83 113 149 190 244 290 331
#     4  11  17  34  60  90 109 138 195 247 275 328
#     4  10  19  33  56  88 116 146 183 233 284 340
#     4  10  19  37  60  80 110 151 193 225 287 343
#     4  10  19  35  57  83 110 148 188 232 275 333
#
# _framework density 21.416993999999999
#
# number of rings (size 3 to 8) (size 9 to 14) (size 15 to 20)
#    0.000    1.750    5.000    1.875    0.000    2.500 
#    0.000   10.000    5.500    0.000    0.000    0.000 
#    0.000    0.000    0.000    0.000    0.000    0.000 
#
# Total GULP energy -178321.695146 kJ/mol
# GULP energy per Si atom -5572.552973 kJ/mol
# Density = 2.136825 g / cm^3
# Si number density = 21.416994 Si / 1000 Ang^3
#
#
#
# Elastic Constant Matrix: (Units=GPa)
#
#
# Indices 1 2 3 4 5 6 
#
# 1 127.4929 4.7452 18.0559 0.0000 -2.4712 0.0000
# 2 4.7452 32.3079 -15.8253 0.0000 7.0069 0.0000
# 3 18.0559 -15.8253 31.1131 0.0000 -10.5853 0.0000
# 4 0.0000 0.0000 0.0000 5.0237 0.0000 2.6595
# 5 -2.4712 7.0069 -10.5853 0.0000 22.7654 0.0000
# 6 0.0000 0.0000 0.0000 2.6595 0.0000 24.6835
#
#
#
# Elastic Compliance Matrix: (Units=1/GPa)
#
#
# Indices 1 2 3 4 5 6 
#
# 1 0.009206 -0.005198 -0.008437 0.000000 -0.001324 0.000000
# 2 -0.005198 0.044392 0.024656 0.000000 -0.002763 0.000000
# 3 -0.008437 0.024656 0.055457 0.000000 0.017282 0.000000
# 4 0.000000 0.000000 0.000000 0.211098 0.000000 -0.022744
# 5 -0.001324 -0.002763 0.017282 0.000000 0.052669 0.000000
# 6 0.000000 0.000000 0.000000 -0.022744 0.000000 0.042963
#
#
# Mechanical properties :
#
#
# Convention : Reuss Voigt Hill
#
# Bulk Modulus (GPa) = 7.62791 22.76285 15.19538
# Shear Modulus (GPa) = 11.43009 22.75705 17.09357
#
# Velocity S-wave (km/s) = 2.31268 3.26324 2.82819
# Velocity P-wave (km/s) = 3.27119 4.98496 4.21607
#
# Compressibility (1/GPa) = 0.13109752
#
# Stress axis : x y z
#
# Youngs Moduli (GPa) = 108.62249 22.52669 18.03196
#
# Poissons Ratio (x) = 0.11708 0.15213
# Poissons Ratio (y) = 0.56457 -0.44459
# Poissons Ratio (z) = 0.91641 -0.55541
#
# Static dielectric constant tensor:
#      x y z
#    x 1.813840 0.000000 -0.015260 
#    y 0.000000 1.849120 0.000000 
#    z -0.015260 0.000000 1.812190 
# 
# From -- ./inp_files/313622.got.cif
#   From: 2010.05.17/outbox.cif.g08.bks.cpg/sg15_157_cif.got.tgz:313622.got - 2010.06.03 18:47:42.
