data_PCOD9255377
_publ_section_title
;
Structure prediction by ZEFSAII (Michael W. Deem and Ramdas Pophale) SiO2 
 PCOD9255377
Probable space group: C 2/C
;
_chemical_formula_sum "Si O2"
_cell_formula_units_Z 64
_cell_length_a 14.136994
_cell_length_b 8.069739
_cell_length_c 23.925968
_cell_angle_alpha 90.000000
_cell_angle_beta 77.865490
_cell_angle_gamma 90.000000
_cell_volume 2668.532562
_symmetry_space_group_name_H-M "C 2/C"
_symmetry_group_IT_number 15
_symmetry_cell_setting 'monoclinic'
loop_
_space_group_symop_operation_xyz
x,y,z
-x,y,1/2-z
-x,-y,-z
x,-y,1/2+z
1/2+x,1/2+y,z
1/2-x,1/2+y,1/2-z
1/2-x,1/2-y,-z
1/2+x,1/2-y,1/2+z
loop_
_atom_site_type_symbol
_atom_site_label
_atom_site_fract_x
_atom_site_fract_y
_atom_site_fract_z
Si Si1 0.755312 0.220024 0.733261
Si Si2 0.414476 0.570601 0.087272
Si Si3 0.013303 0.413984 0.681176
Si Si4 0.790373 0.449003 0.372012
Si Si5 0.690740 0.036777 0.836003
Si Si6 0.248106 0.398602 0.940370
Si Si7 0.416462 0.696240 0.494938
Si Si8 0.964031 0.060042 0.698673
O O1 0.748027 0.399152 0.706389
O O2 0.866075 0.162578 0.723286
O O3 0.713342 0.092986 0.693417
O O4 0.706290 0.202267 0.798948
O O5 0.297944 0.569752 0.100866
O O6 0.481813 0.707374 0.049733
O O7 0.450266 0.548704 0.146054
O O8 0.436920 0.400138 0.050240
O O9 0.101803 0.490473 0.636065
O O10 0.000000 0.456435 0.750000
O O11 0.917637 0.472000 0.660092
O O12 0.032634 0.216297 0.677459
O O13 0.769954 0.275834 0.405793
O O14 0.726410 0.029349 0.894695
O O15 0.341151 0.419405 0.968345
O O16 0.148786 0.358251 0.985924
O O17 0.000000 0.970355 0.750000
#
# Coordination Sequence:
#
# PCOD9255377 Si02
#       8
#     8   8   8   8   8   8   8   8
#     4   9  18  32  50  77 112 143 183 225 277 339
#     4   9  18  33  57  77 105 141 186 234 272 330
#     4  10  17  30  53  74 108 156 178 207 279 354
#     4   9  17  33  51  76 108 146 185 221 274 335
#     4  10  19  33  55  81 112 148 186 234 278 342
#     4   9  19  33  57  78 104 141 189 238 268 330
#     4   9  17  34  57  79 101 145 189 223 283 323
#     4   9  19  31  51  81 108 139 177 232 280 328
#
# _framework density 23.983217
#
# number of rings (size 3 to 8) (size 9 to 14) (size 15 to 20)
#    0.000    2.750    1.250    2.250    1.750    0.000 
#    0.000    2.500    0.000   24.000    0.000    0.000 
#    0.000    0.000    0.000    0.000    0.000    0.000 
#
# Total GULP energy -178661.717399 kJ/mol
# GULP energy per Si atom -5583.178669 kJ/mol
# Density = 2.392863 g / cm^3
# Si number density = 23.983217 Si / 1000 Ang^3
#
#
#
# Elastic Constant Matrix: (Units=GPa)
#
#
# Indices 1 2 3 4 5 6 
#
# 1 61.3009 6.4665 33.8437 0.0000 -8.0201 0.0000
# 2 6.4665 35.6305 24.8358 0.0000 -17.1750 0.0000
# 3 33.8437 24.8358 103.7626 0.0000 10.4924 0.0000
# 4 0.0000 0.0000 0.0000 20.5177 0.0000 0.3212
# 5 -8.0201 -17.1750 10.4924 0.0000 50.4846 0.0000
# 6 0.0000 0.0000 0.0000 0.3212 0.0000 11.3782
#
#
#
# Elastic Compliance Matrix: (Units=1/GPa)
#
#
# Indices 1 2 3 4 5 6 
#
# 1 0.021806 0.006181 -0.009351 0.000000 0.007511 0.000000
# 2 0.006181 0.047530 -0.015452 0.000000 0.020363 0.000000
# 3 -0.009351 -0.015452 0.017434 0.000000 -0.010366 0.000000
# 4 0.000000 0.000000 0.000000 0.048760 0.000000 -0.001376
# 5 0.007511 0.020363 -0.010366 0.000000 0.030083 0.000000
# 6 0.000000 0.000000 0.000000 -0.001376 0.000000 0.087927
#
#
# Mechanical properties :
#
#
# Convention : Reuss Voigt Hill
#
# Bulk Modulus (GPa) = 20.19121 36.77624 28.48372
# Shear Modulus (GPa) = 16.27114 25.51262 20.89188
#
# Velocity S-wave (km/s) = 2.60751 3.26509 2.95465
# Velocity P-wave (km/s) = 4.18362 5.43892 4.85203
#
# Compressibility (1/GPa) = 0.04952650
#
# Stress axis : x y z
#
# Youngs Moduli (GPa) = 45.85811 21.03936 57.35916
#
# Poissons Ratio (x) = -0.13004 0.53639
# Poissons Ratio (y) = -0.28345 0.88629
# Poissons Ratio (z) = 0.42884 0.32509
#
# Static dielectric constant tensor:
#      x y z
#    x 1.955800 0.000000 -0.001590 
#    y 0.000000 1.968760 0.000000 
#    z -0.001590 0.000000 1.950210 
# 
# From -- ./inp_files/273635.got.cif
#   From: 2010.05.17/outbox.cif.g08.bks.cpg/sg15_137_cif.got.tgz:273635.got - 2010.06.03 18:47:42.
