data_PCOD9255473
_publ_section_title
;
Structure prediction by ZEFSAII (Michael W. Deem and Ramdas Pophale) SiO2 
 PCOD9255473
Probable space group: C 2/C
;
_chemical_formula_sum "Si O2"
_cell_formula_units_Z 56
_cell_length_a 10.454601
_cell_length_b 19.581716
_cell_length_c 20.261553
_cell_angle_alpha 90.000000
_cell_angle_beta 137.615224
_cell_angle_gamma 90.000000
_cell_volume 2796.142040
_symmetry_space_group_name_H-M "C 2/C"
_symmetry_group_IT_number 15
_symmetry_cell_setting 'monoclinic'
loop_
_space_group_symop_operation_xyz
x,y,z
-x,y,1/2-z
-x,-y,-z
x,-y,1/2+z
1/2+x,1/2+y,z
1/2-x,1/2+y,1/2-z
1/2-x,1/2-y,-z
1/2+x,1/2-y,1/2+z
loop_
_atom_site_type_symbol
_atom_site_label
_atom_site_fract_x
_atom_site_fract_y
_atom_site_fract_z
Si Si1 0.723661 0.944082 0.704510
Si Si2 0.799934 0.079762 0.653066
Si Si3 0.733867 0.995383 0.344962
Si Si4 0.878789 0.627377 0.529247
Si Si5 0.723223 0.698274 0.339367
Si Si6 0.218739 0.527539 0.482773
Si Si7 0.213864 0.343199 0.357536
O O1 0.755354 0.865038 0.701858
O O2 0.498810 0.951830 0.611499
O O3 0.796798 0.002864 0.682752
O O4 0.799144 0.965241 0.805090
O O5 0.607140 0.115965 0.606695
O O6 0.793530 0.071966 0.571621
O O7 0.000000 0.112143 0.750000
O O8 0.500000 0.995741 0.250000
O O9 0.797553 0.916442 0.369248
O O10 0.796855 0.027905 0.438181
O O11 0.796974 0.668748 0.436781
O O12 0.791509 0.551177 0.497645
O O13 0.814801 0.660002 0.574182
O O14 0.500000 0.710956 0.250000
O O15 0.808589 0.774580 0.365196
O O16 0.000000 0.348298 0.250000
#
# Coordination Sequence:
#
# PCOD9255473 Si02
#       7
#     8   8   8   8   8   8   8
#     4  10  17  31  50  77 111 144 179 233 276 315
#     4  11  19  29  50  76 111 148 190 225 264 323
#     4   8  16  30  52  73 106 151 182 213 276 334
#     4  10  18  33  52  76 112 148 178 221 281 321
#     4  11  20  30  52  85 113 133 176 235 279 325
#     4   9  16  30  49  72 107 151 180 222 272 323
#     4   9  18  32  52  80 109 144 177 216 278 338
#
# _framework density 20.027595999999999
#
# number of rings (size 3 to 8) (size 9 to 14) (size 15 to 20)
#    0.000    2.286    2.857    4.286    0.000    0.000 
#    0.000    0.714    3.143    0.000    0.000   39.000 
#    0.000    0.143    0.000    0.000    0.000    0.000 
#
# Total GULP energy -156018.387845 kJ/mol
# GULP energy per Si atom -5572.085280 kJ/mol
# Density = 1.998201 g / cm^3
# Si number density = 20.027596 Si / 1000 Ang^3
#
#
#
# Elastic Constant Matrix: (Units=GPa)
#
#
# Indices 1 2 3 4 5 6 
#
# 1 54.3469 26.5182 36.2625 0.0001 -13.9634 0.0001
# 2 26.5182 89.6701 13.5691 0.0000 -14.1699 0.0000
# 3 36.2625 13.5691 83.8579 0.0001 -9.0434 0.0001
# 4 0.0001 0.0000 0.0001 31.8425 0.0001 -5.7903
# 5 -13.9634 -14.1699 -9.0434 0.0001 38.6979 0.0001
# 6 0.0001 0.0000 0.0001 -5.7903 0.0001 14.6350
#
#
#
# Elastic Compliance Matrix: (Units=1/GPa)
#
#
# Indices 1 2 3 4 5 6 
#
# 1 0.030860 -0.006404 -0.011654 0.000000 0.006067 0.000000
# 2 -0.006404 0.013349 0.000910 0.000000 0.002790 0.000000
# 3 -0.011654 0.000910 0.016824 0.000000 0.000060 0.000000
# 4 0.000000 0.000000 0.000000 0.033839 0.000000 0.013388
# 5 0.006067 0.002790 0.000060 0.000000 0.029066 0.000000
# 6 0.000000 0.000000 0.000000 0.013388 0.000000 0.073626
#
#
# Mechanical properties :
#
#
# Convention : Reuss Voigt Hill
#
# Bulk Modulus (GPa) = 37.40205 42.28605 39.84405
# Shear Modulus (GPa) = 20.76651 27.13676 23.95163
#
# Velocity S-wave (km/s) = 3.22358 3.68498 3.46198
# Velocity P-wave (km/s) = 5.70711 6.26619 5.99317
#
# Compressibility (1/GPa) = 0.02673650
#
# Stress axis : x y z
#
# Youngs Moduli (GPa) = 32.40440 74.91202 59.43999
#
# Poissons Ratio (x) = 0.47974 0.69273
# Poissons Ratio (y) = 0.20752 -0.05410
# Poissons Ratio (z) = 0.37765 -0.06818
#
# Static dielectric constant tensor:
#      x y z
#    x 1.778190 0.000000 0.002010 
#    y 0.000000 1.785260 0.000000 
#    z 0.002010 0.000000 1.730530 
# 
# From -- ./inp_files/240301.got.cif
#   From: 2010.05.17/outbox.cif.g08.bks.cpg/sg15_121_cif.got.tgz:240301.got - 2010.06.03 18:47:42.
