data_PCOD9255416
_publ_section_title
;
Structure prediction by ZEFSAII (Michael W. Deem and Ramdas Pophale) SiO2 
 PCOD9255416
Probable space group: C 2/C
;
_chemical_formula_sum "Si O2"
_cell_formula_units_Z 32
_cell_length_a 18.347996
_cell_length_b 6.746262
_cell_length_c 23.076801
_cell_angle_alpha 90.000000
_cell_angle_beta 22.570019
_cell_angle_gamma 90.000000
_cell_volume 1096.342382
_symmetry_space_group_name_H-M "C 2/C"
_symmetry_group_IT_number 15
_symmetry_cell_setting 'monoclinic'
loop_
_space_group_symop_operation_xyz
x,y,z
-x,y,1/2-z
-x,-y,-z
x,-y,1/2+z
1/2+x,1/2+y,z
1/2-x,1/2+y,1/2-z
1/2-x,1/2-y,-z
1/2+x,1/2-y,1/2+z
loop_
_atom_site_type_symbol
_atom_site_label
_atom_site_fract_x
_atom_site_fract_y
_atom_site_fract_z
Si Si1 0.554850 0.372136 0.650101
Si Si2 0.491102 0.450648 0.429045
Si Si3 0.085499 0.548157 0.252837
Si Si4 0.934826 0.413341 0.109885
O O1 0.500000 0.467902 0.750000
O O2 0.750000 0.250000 0.500000
O O3 0.543802 0.549221 0.613767
O O4 0.404514 0.194144 0.756700
O O5 0.300056 0.370258 0.598254
O O6 0.705940 0.392059 0.283803
O O7 0.491248 0.689868 0.439266
O O8 0.001268 0.549948 0.381375
O O9 0.000000 0.590524 0.250000
O O10 0.000000 0.500000 0.000000
#
# Coordination Sequence:
#
# PCOD9255416 Si02
#       4
#     8   8   8   8
#     4  10  17  30  55  87 117 142 195 248 295 341
#     4  11  22  39  60  91 124 158 193 252 304 365
#     4  10  20  36  59  88 121 157 200 253 303 346
#     4  11  24  37  61  91 124 157 203 246 305 364
#
# _framework density 29.187964999999998
#
# number of rings (size 3 to 8) (size 9 to 14) (size 15 to 20)
#    0.000    1.500    5.000    3.750    3.500    0.000 
#    0.000    0.000    0.000    7.500    0.000    1.750 
#    0.000    0.000    0.000    0.000    0.000    0.000 
#
# Total GULP energy -89413.350623 kJ/mol
# GULP energy per Si atom -5588.334414 kJ/mol
# Density = 2.912153 g / cm^3
# Si number density = 29.187965 Si / 1000 Ang^3
#
#
#
# Elastic Constant Matrix: (Units=GPa)
#
#
# Indices 1 2 3 4 5 6 
#
# 1 217.4984 5.3703 68.2460 -0.0007 50.7992 -0.0002
# 2 5.3703 74.9711 16.8995 -0.0037 -5.7539 0.0008
# 3 68.2460 16.8995 209.9428 -0.0104 -9.8385 0.0005
# 4 -0.0007 -0.0037 -0.0104 33.5290 0.0009 -8.8175
# 5 50.7992 -5.7539 -9.8385 0.0009 70.5330 0.0002
# 6 -0.0002 0.0008 0.0005 -8.8175 0.0002 35.6313
#
#
#
# Elastic Compliance Matrix: (Units=1/GPa)
#
#
# Indices 1 2 3 4 5 6 
#
# 1 0.006514 -0.000329 -0.002327 0.000000 -0.005043 0.000000
# 2 -0.000329 0.013667 -0.000936 0.000001 0.001221 0.000000
# 3 -0.002327 -0.000936 0.005707 0.000002 0.002396 0.000000
# 4 0.000000 0.000001 0.000002 0.031901 0.000000 0.007894
# 5 -0.005043 0.001221 0.002396 0.000000 0.018244 0.000000
# 6 0.000000 0.000000 0.000000 0.007894 0.000000 0.030019
#
#
# Mechanical properties :
#
#
# Convention : Reuss Voigt Hill
#
# Bulk Modulus (GPa) = 53.46590 75.93821 64.70205
# Shear Modulus (GPa) = 41.85131 55.39843 48.62487
#
# Velocity S-wave (km/s) = 3.79074 4.36132 4.08600
# Velocity P-wave (km/s) = 6.12512 7.17181 6.66903
#
# Compressibility (1/GPa) = 0.01870351
#
# Stress axis : x y z
#
# Youngs Moduli (GPa) = 153.51642 73.17027 175.21221
#
# Poissons Ratio (x) = 0.02408 0.40778
# Poissons Ratio (y) = 0.05051 0.16398
# Poissons Ratio (z) = 0.35728 0.06848
#
# Static dielectric constant tensor:
#      x y z
#    x 2.820780 0.000000 0.120680 
#    y 0.000000 2.333970 0.000000 
#    z 0.120680 0.000000 2.236790 
# 
# From -- ./inp_files/300432.got.cif
#   From: 2010.05.17/outbox.cif.g08.bks.cpg/sg15_151_cif.got.tgz:300432.got - 2010.06.03 18:47:42.
