data_PCOD9255250
_publ_section_title
;
Structure prediction by ZEFSAII (Michael W. Deem and Ramdas Pophale) SiO2 
 PCOD9255250
Probable space group: C 2/C
;
_chemical_formula_sum "Si O2"
_cell_formula_units_Z 56
_cell_length_a 6.306415
_cell_length_b 25.658202
_cell_length_c 23.820870
_cell_angle_alpha 90.000000
_cell_angle_beta 45.687422
_cell_angle_gamma 90.000000
_cell_volume 2758.036027
_symmetry_space_group_name_H-M "C 2/C"
_symmetry_group_IT_number 15
_symmetry_cell_setting 'monoclinic'
loop_
_space_group_symop_operation_xyz
x,y,z
-x,y,1/2-z
-x,-y,-z
x,-y,1/2+z
1/2+x,1/2+y,z
1/2-x,1/2+y,1/2-z
1/2-x,1/2-y,-z
1/2+x,1/2-y,1/2+z
loop_
_atom_site_type_symbol
_atom_site_label
_atom_site_fract_x
_atom_site_fract_y
_atom_site_fract_z
Si Si1 0.336903 0.289130 0.548068
Si Si2 0.836271 0.129028 0.433768
Si Si3 0.151987 0.805619 0.663575
Si Si4 0.777160 0.895165 0.340321
Si Si5 0.870780 0.140197 0.943461
Si Si6 0.346822 0.444326 0.024350
Si Si7 0.813199 0.720593 0.658586
O O1 0.544897 0.326880 0.545965
O O2 0.420799 0.304373 0.467606
O O3 0.327403 0.237579 0.589891
O O4 0.998479 0.307380 0.611110
O O5 0.954120 0.143709 0.351070
O O6 0.483946 0.133644 0.494330
O O7 0.914435 0.075800 0.448934
O O8 0.000000 0.800259 0.750000
O O9 0.050771 0.757018 0.644751
O O10 0.953824 0.874640 0.363618
O O11 0.510164 0.935767 0.401827
O O12 0.628849 0.840713 0.347176
O O13 0.000000 0.912557 0.250000
O O14 0.005104 0.095455 0.958586
O O15 0.500000 0.500000 0.000000
O O16 0.500000 0.730174 0.750000
#
# Coordination Sequence:
#
# PCOD9255250 Si02
#       7
#     8   8   8   8   8   8   8
#     4   9  17  32  53  80 116 161 208 238 289 363
#     4   8  18  33  54  85 114 145 203 250 287 354
#     4  10  17  29  53  81 119 167 201 238 297 356
#     4  10  23  39  57  89 125 152 196 262 306 368
#     4   9  19  38  60  83 111 158 194 244 312 356
#     4  10  21  41  67  85 107 156 202 257 325 380
#     4  10  19  32  49  83 126 162 206 246 295 363
#
# _framework density 20.304303999999998
#
# number of rings (size 3 to 8) (size 9 to 14) (size 15 to 20)
#    0.000    2.571    1.429    0.000    0.000    4.571 
#    0.000   24.286    0.000   20.571    0.000    0.000 
#    0.000    0.000    0.000    0.000    0.000    0.000 
#
# Total GULP energy -155871.215878 kJ/mol
# GULP energy per Si atom -5566.829139 kJ/mol
# Density = 2.025809 g / cm^3
# Si number density = 20.304304 Si / 1000 Ang^3
#
#
#
# Elastic Constant Matrix: (Units=GPa)
#
#
# Indices 1 2 3 4 5 6 
#
# 1 105.6134 27.4288 56.2299 0.0000 12.1726 0.0000
# 2 27.4288 93.9474 46.7361 0.0000 -0.9139 0.0000
# 3 56.2299 46.7361 72.6121 0.0000 15.5813 0.0000
# 4 0.0000 0.0000 0.0000 21.3341 0.0000 0.3764
# 5 12.1726 -0.9139 15.5813 0.0000 40.7194 0.0000
# 6 0.0000 0.0000 0.0000 0.3764 0.0000 26.7405
#
#
#
# Elastic Compliance Matrix: (Units=1/GPa)
#
#
# Indices 1 2 3 4 5 6 
#
# 1 0.016444 0.002367 -0.014396 0.000000 0.000646 0.000000
# 2 0.002367 0.016825 -0.013718 0.000000 0.004919 0.000000
# 3 -0.014396 -0.013718 0.035834 0.000000 -0.009716 0.000000
# 4 0.000000 0.000000 0.000000 0.046885 0.000000 -0.000660
# 5 0.000646 0.004919 -0.009716 0.000000 0.028194 0.000000
# 6 0.000000 0.000000 0.000000 -0.000660 0.000000 0.037406
#
#
# Mechanical properties :
#
#
# Convention : Reuss Voigt Hill
#
# Bulk Modulus (GPa) = 56.78780 59.21805 58.00293
# Shear Modulus (GPa) = 20.92469 27.21067 24.06768
#
# Velocity S-wave (km/s) = 3.21371 3.66477 3.44662
# Velocity P-wave (km/s) = 6.46526 6.86556 6.66842
#
# Compressibility (1/GPa) = 0.01760942
#
# Stress axis : x y z
#
# Youngs Moduli (GPa) = 60.81257 59.43409 27.90616
#
# Poissons Ratio (x) = -0.14068 0.40174
# Poissons Ratio (y) = -0.14394 0.38282
# Poissons Ratio (z) = 0.87546 0.81532
#
# Static dielectric constant tensor:
#      x y z
#    x 1.774050 0.000000 0.042460 
#    y 0.000000 1.729720 0.000000 
#    z 0.042460 0.000000 1.774560 
# 
# From -- ./inp_files/261995.got.cif
#   From: 2010.05.17/outbox.cif.g08.bks.cpg/sg15_131_cif.got.tgz:261995.got - 2010.06.03 18:47:42.
