data_PCOD9255816
_publ_section_title
;
Structure prediction by ZEFSAII (Michael W. Deem and Ramdas Pophale) SiO2 
 PCOD9255816
Probable space group: C 2/C
;
_chemical_formula_sum "Si O2"
_cell_formula_units_Z 64
_cell_length_a 23.300361
_cell_length_b 11.779404
_cell_length_c 13.408618
_cell_angle_alpha 90.000000
_cell_angle_beta 99.933792
_cell_angle_gamma 90.000000
_cell_volume 3625.013552
_symmetry_space_group_name_H-M "C 2/C"
_symmetry_group_IT_number 15
_symmetry_cell_setting 'monoclinic'
loop_
_space_group_symop_operation_xyz
x,y,z
-x,y,1/2-z
-x,-y,-z
x,-y,1/2+z
1/2+x,1/2+y,z
1/2-x,1/2+y,1/2-z
1/2-x,1/2-y,-z
1/2+x,1/2-y,1/2+z
loop_
_atom_site_type_symbol
_atom_site_label
_atom_site_fract_x
_atom_site_fract_y
_atom_site_fract_z
Si Si1 0.881168 0.687462 0.434388
Si Si2 0.611829 0.013183 0.412662
Si Si3 0.788594 0.896886 0.921865
Si Si4 0.705848 0.130728 0.573771
Si Si5 0.514938 0.426620 0.370251
Si Si6 0.099043 0.050912 0.529476
Si Si7 0.493340 0.170037 0.129044
Si Si8 0.183988 0.457710 0.742189
O O1 0.877491 0.606591 0.529917
O O2 0.878380 0.819622 0.461701
O O3 0.944441 0.664835 0.405008
O O4 0.835247 0.646117 0.336241
O O5 0.653646 0.100148 0.483333
O O6 0.547945 0.064808 0.408529
O O7 0.631531 0.014521 0.303403
O O8 0.795619 0.763396 0.906076
O O9 0.739693 0.936794 0.828699
O O10 0.847565 0.967922 0.930774
O O11 0.762823 0.904789 0.026976
O O12 0.697599 0.059475 0.671006
O O13 0.500000 0.431666 0.250000
O O14 0.566809 0.509501 0.419039
O O15 0.454610 0.455458 0.408588
O O16 0.531530 0.296108 0.403008
O O17 0.500000 0.168886 0.250000
#
# Coordination Sequence:
#
# PCOD9255816 Si02
#       8
#     8   8   8   8   8   8   8   8
#     4  10  21  36  55  85 118 148 185 244 283 344
#     4  10  19  36  56  80 117 147 185 237 286 333
#     4  10  21  38  61  81 108 155 193 235 287 343
#     4   9  21  39  55  81 110 147 195 238 274 336
#     4   9  20  37  58  87 119 146 189 239 278 351
#     4  10  21  38  58  87 116 150 190 233 300 341
#     4  10  17  32  61  84 106 155 192 225 282 344
#     4  10  21  37  55  82 115 145 195 238 278 339
#
# _framework density 17.655106
#
# number of rings (size 3 to 8) (size 9 to 14) (size 15 to 20)
#    0.000    2.250    1.250    1.125    1.750    1.000 
#    4.500    2.500    0.000    0.000    0.000    0.000 
#    0.000    0.000    0.000    0.000    0.000    0.000 
#
# Total GULP energy -178362.092042 kJ/mol
# GULP energy per Si atom -5573.815376 kJ/mol
# Density = 1.761492 g / cm^3
# Si number density = 17.655106 Si / 1000 Ang^3
#
#
#
# Elastic Constant Matrix: (Units=GPa)
#
#
# Indices 1 2 3 4 5 6 
#
# 1 57.4412 43.9926 25.1913 0.0000 13.1664 0.0000
# 2 43.9926 46.4597 46.6177 0.0000 0.5823 0.0000
# 3 25.1913 46.6177 85.1937 0.0000 -1.4773 0.0000
# 4 0.0000 0.0000 0.0000 13.5601 0.0000 1.4020
# 5 13.1664 0.5823 -1.4773 0.0000 18.4072 0.0000
# 6 0.0000 0.0000 0.0000 1.4020 0.0000 30.5389
#
#
#
# Elastic Compliance Matrix: (Units=1/GPa)
#
#
# Indices 1 2 3 4 5 6 
#
# 1 -1.088779 1.524045 -0.500035 0.000000 0.690444 0.000000
# 2 1.524045 -2.085346 0.673623 0.000000 -0.970094 0.000000
# 3 -0.500035 0.673623 -0.203460 0.000000 0.320029 0.000000
# 4 0.000000 0.000000 0.000000 0.074098 0.000000 -0.003402
# 5 0.690444 -0.970094 0.320029 0.000000 -0.383164 0.000000
# 6 0.000000 0.000000 0.000000 -0.003402 0.000000 0.032901
#
#
# Mechanical properties :
#
#
# Convention : Reuss Voigt Hill
#
# Bulk Modulus (GPa) = 56.56047 46.74419 51.65233
# Shear Modulus (GPa) = -0.70991 17.38743 8.33876
#
# Velocity S-wave (km/s) = -0.63480 3.14162 2.17564
# Velocity P-wave (km/s) = 5.61859 6.30028 5.96917
#
# Compressibility (1/GPa) = 0.01768019
#
# Stress axis : x y z
#
# Youngs Moduli (GPa) = -0.91846 -0.47954 -4.91498
#
# Poissons Ratio (x) = 0.73084 -2.45766
# Poissons Ratio (y) = 1.39977 3.31084
# Poissons Ratio (z) = -0.45926 0.32303
#
# Static dielectric constant tensor:
#      x y z
#    x 1.611500 0.000000 -0.006000 
#    y 0.000000 1.596840 0.000000 
#    z -0.006000 0.000000 1.588920 
# 
# From -- ./inp_files/167664.got.cif
#   From: 2010.05.17/outbox.cif.g08.bks.cpg/sg15_84_cif.got.tgz:167664.got - 2010.06.03 18:47:42.
