data_PCOD9255041
_publ_section_title
;
Structure prediction by ZEFSAII (Michael W. Deem and Ramdas Pophale) SiO2 
 PCOD9255041
Probable space group: C 2/C
;
_chemical_formula_sum "Si O2"
_cell_formula_units_Z 40
_cell_length_a 7.637673
_cell_length_b 23.190645
_cell_length_c 8.259648
_cell_angle_alpha 90.000000
_cell_angle_beta 99.095285
_cell_angle_gamma 90.000000
_cell_volume 1444.575837
_symmetry_space_group_name_H-M "C 2/C"
_symmetry_group_IT_number 15
_symmetry_cell_setting 'monoclinic'
loop_
_space_group_symop_operation_xyz
x,y,z
-x,y,1/2-z
-x,-y,-z
x,-y,1/2+z
1/2+x,1/2+y,z
1/2-x,1/2+y,1/2-z
1/2-x,1/2-y,-z
1/2+x,1/2-y,1/2+z
loop_
_atom_site_type_symbol
_atom_site_label
_atom_site_fract_x
_atom_site_fract_y
_atom_site_fract_z
Si Si1 0.210085 0.985961 0.040588
Si Si2 0.768101 0.871105 0.332140
Si Si3 0.289239 0.410866 0.764750
Si Si4 0.852497 0.180960 0.512159
Si Si5 0.438237 0.221655 0.565135
O O1 0.236516 0.939306 0.188472
O O2 0.279325 0.048207 0.099336
O O3 0.276545 0.947967 0.899864
O O4 0.000000 0.000000 0.000000
O O5 0.753512 0.837084 0.161447
O O6 0.617249 0.844706 0.425987
O O7 0.959631 0.854480 0.435847
O O8 0.500000 0.411773 0.750000
O O9 0.265903 0.346769 0.837403
O O10 0.921145 0.247187 0.529281
O O11 0.500000 0.242981 0.750000
O O12 0.250000 0.250000 0.500000
#
# Coordination Sequence:
#
# PCOD9255041 Si02
#       5
#     8   8   8   8   8
#     4  10  18  27  50  83 120 149 190 258 324 356
#     4  10  20  34  54  84 122 161 202 257 312 369
#     4  10  17  27  48  80 121 146 191 258 319 352
#     4  10  19  33  56  83 124 159 204 252 312 371
#     4  10  23  40  61  86 126 170 211 257 311 374
#
# _framework density 27.689789999999999
#
# number of rings (size 3 to 8) (size 9 to 14) (size 15 to 20)
#    0.000    2.000    4.000    1.800    8.400    0.800 
#    0.000    0.000    0.000    0.000    0.000    5.600 
#    0.000    0.000    0.000    0.400    0.000    0.000 
#
# Total GULP energy -111552.697793 kJ/mol
# GULP energy per Si atom -5577.634890 kJ/mol
# Density = 2.762677 g / cm^3
# Si number density = 27.689790 Si / 1000 Ang^3
#
#
#
# Elastic Constant Matrix: (Units=GPa)
#
#
# Indices 1 2 3 4 5 6 
#
# 1 126.0563 17.1247 0.7570 0.0000 -11.5177 0.0000
# 2 17.1247 206.1495 33.5204 0.0000 -30.0018 0.0000
# 3 0.7570 33.5204 119.7589 0.0000 -15.8962 0.0000
# 4 0.0000 0.0000 0.0000 51.1336 0.0000 -8.7063
# 5 -11.5177 -30.0018 -15.8962 0.0000 21.1366 0.0000
# 6 0.0000 0.0000 0.0000 -8.7063 0.0000 20.1402
#
#
#
# Elastic Compliance Matrix: (Units=1/GPa)
#
#
# Indices 1 2 3 4 5 6 
#
# 1 0.008390 -0.000082 0.000624 0.000000 0.004925 0.000000
# 2 -0.000082 0.006157 -0.000632 0.000000 0.008219 0.000000
# 3 0.000624 -0.000632 0.009386 0.000000 0.006502 0.000000
# 4 0.000000 0.000000 0.000000 0.021110 0.000000 0.009126
# 5 0.004925 0.008219 0.006502 0.000000 0.066552 0.000000
# 6 0.000000 0.000000 0.000000 0.009126 0.000000 0.053597
#
#
# Mechanical properties :
#
#
# Convention : Reuss Voigt Hill
#
# Bulk Modulus (GPa) = 42.09933 61.64096 51.87014
# Shear Modulus (GPa) = 28.85353 45.18626 37.01989
#
# Velocity S-wave (km/s) = 3.23155 4.04403 3.66040
# Velocity P-wave (km/s) = 5.40007 6.64192 6.05293
#
# Compressibility (1/GPa) = 0.02375335
#
# Stress axis : x y z
#
# Youngs Moduli (GPa) = 119.18503 162.42965 106.54131
#
# Poissons Ratio (x) = 0.01325 -0.06643
# Poissons Ratio (y) = 0.00972 0.06730
# Poissons Ratio (z) = -0.07432 0.10261
#
# Static dielectric constant tensor:
#      x y z
#    x 2.592160 0.000000 -0.079780 
#    y 0.000000 2.126950 0.000000 
#    z -0.079780 0.000000 2.445410 
# 
# From -- ./inp_files/23749.got.cif
#   From: 2010.05.17/outbox.cif.g08.bks.cpg/sg15_12_cif.got.tgz:23749.got - 2010.06.03 18:47:42.
