data_PCOD9255219
_publ_section_title
;
Structure prediction by ZEFSAII (Michael W. Deem and Ramdas Pophale) SiO2 
 PCOD9255219
Probable space group: C 2/C
;
_chemical_formula_sum "Si O2"
_cell_formula_units_Z 64
_cell_length_a 11.499639
_cell_length_b 15.534999
_cell_length_c 25.797324
_cell_angle_alpha 90.000000
_cell_angle_beta 47.731260
_cell_angle_gamma 90.000000
_cell_volume 3410.364060
_symmetry_space_group_name_H-M "C 2/C"
_symmetry_group_IT_number 15
_symmetry_cell_setting 'monoclinic'
loop_
_space_group_symop_operation_xyz
x,y,z
-x,y,1/2-z
-x,-y,-z
x,-y,1/2+z
1/2+x,1/2+y,z
1/2-x,1/2+y,1/2-z
1/2-x,1/2-y,-z
1/2+x,1/2-y,1/2+z
loop_
_atom_site_type_symbol
_atom_site_label
_atom_site_fract_x
_atom_site_fract_y
_atom_site_fract_z
Si Si1 0.815068 0.900547 0.817297
Si Si2 0.123976 0.157457 0.785189
Si Si3 0.331973 0.897849 0.833000
Si Si4 0.246552 0.014793 0.262101
Si Si5 0.072038 0.444685 0.134545
Si Si6 0.588769 0.953892 0.427166
Si Si7 0.222218 0.792245 0.142103
Si Si8 0.323710 0.208257 0.826071
O O1 0.737381 0.907624 0.783234
O O2 0.786707 0.807763 0.851919
O O3 0.000000 0.908872 0.750000
O O4 0.733009 0.981903 0.869078
O O5 0.217069 0.188440 0.705799
O O6 0.204960 0.183704 0.814960
O O7 0.949790 0.191758 0.829822
O O8 0.117541 0.053857 0.784515
O O9 0.500000 0.884672 0.750000
O O10 0.223020 0.946609 0.824794
O O11 0.254997 0.808614 0.871132
O O12 0.352417 0.963594 0.873854
O O13 0.404039 0.956597 0.214314
O O14 0.163881 0.364198 0.132480
O O15 0.024401 0.441248 0.088883
O O16 0.658392 0.859972 0.418065
O O17 0.500000 0.000000 0.500000
O O18 0.500000 0.211585 0.750000
#
# Coordination Sequence:
#
# PCOD9255219 Si02
#       8
#     8   8   8   8   8   8   8   8
#     4  10  21  33  58  89 117 143 193 235 286 336
#     4  11  18  30  54  85 126 141 181 231 293 322
#     4  10  18  30  51  86 114 148 182 233 284 337
#     4  10  17  29  50  81 123 147 176 228 284 333
#     4  10  19  34  55  79 115 154 195 223 282 348
#     4  11  24  43  61  79 112 156 194 239 290 345
#     4  11  21  32  54  84 114 149 184 236 284 333
#     4  11  18  32  54  90 119 153 179 237 285 342
#
# _framework density 18.766324999999998
#
# number of rings (size 3 to 8) (size 9 to 14) (size 15 to 20)
#    0.000    1.500    6.250    1.875    3.500    1.000 
#    0.000    1.250    0.000    0.750    0.000    0.000 
#    0.000    0.000    0.000    0.000    0.000    0.000 
#
# Total GULP energy -178263.287193 kJ/mol
# GULP energy per Si atom -5570.727725 kJ/mol
# Density = 1.872361 g / cm^3
# Si number density = 18.766325 Si / 1000 Ang^3
#
#
#
# Elastic Constant Matrix: (Units=GPa)
#
#
# Indices 1 2 3 4 5 6 
#
# 1 80.5014 43.5965 10.9651 0.0000 8.4755 0.0000
# 2 43.5965 121.0260 -1.1320 0.0001 8.4607 0.0000
# 3 10.9651 -1.1320 18.0392 0.0001 0.1072 0.0000
# 4 0.0000 0.0001 0.0001 1.9294 0.0000 -5.2892
# 5 8.4755 8.4607 0.1072 0.0000 5.8824 0.0000
# 6 0.0000 0.0000 0.0000 -5.2892 0.0000 23.7467
#
#
#
# Elastic Compliance Matrix: (Units=1/GPa)
#
#
# Indices 1 2 3 4 5 6 
#
# 1 0.019124 -0.005658 -0.011865 0.000000 -0.019200 0.000000
# 2 -0.005658 0.010868 0.004166 -0.000002 -0.007556 0.000000
# 3 -0.011865 0.004166 0.062849 -0.000007 0.009958 -0.000002
# 4 0.000000 -0.000002 -0.000007 1.331027 0.000011 0.296467
# 5 -0.019200 -0.007556 0.009958 0.000011 0.208348 0.000002
# 6 0.000000 0.000000 -0.000002 0.296467 0.000002 0.108145
#
#
# Mechanical properties :
#
#
# Convention : Reuss Voigt Hill
#
# Bulk Modulus (GPa) = 15.12240 36.26953 25.69597
# Shear Modulus (GPa) = 2.79467 17.38748 10.09108
#
# Velocity S-wave (km/s) = 1.22165 3.04719 2.32140
# Velocity P-wave (km/s) = 3.17264 5.63466 4.57247
#
# Compressibility (1/GPa) = 0.06612705
#
# Stress axis : x y z
#
# Youngs Moduli (GPa) = 52.29120 92.01455 15.91105
#
# Poissons Ratio (x) = 0.52058 0.18879
# Poissons Ratio (y) = 0.29584 -0.06628
# Poissons Ratio (z) = 0.62045 -0.38331
#
# Static dielectric constant tensor:
#      x y z
#    x 1.716570 0.000000 -0.009070 
#    y 0.000000 1.711430 0.000000 
#    z -0.009070 0.000000 1.631080 
# 
# From -- ./inp_files/293238.got.cif
#   From: 2010.05.17/outbox.cif.g08.bks.cpg/sg15_147_cif.got.tgz:293238.got - 2010.06.03 18:47:42.
