data_PCOD9255354
_publ_section_title
;
Structure prediction by ZEFSAII (Michael W. Deem and Ramdas Pophale) SiO2 
 PCOD9255354
Probable space group: C 2/C
;
_chemical_formula_sum "Si O2"
_cell_formula_units_Z 56
_cell_length_a 15.063855
_cell_length_b 11.919464
_cell_length_c 14.571730
_cell_angle_alpha 90.000000
_cell_angle_beta 81.589940
_cell_angle_gamma 90.000000
_cell_volume 2588.263959
_symmetry_space_group_name_H-M "C 2/C"
_symmetry_group_IT_number 15
_symmetry_cell_setting 'monoclinic'
loop_
_space_group_symop_operation_xyz
x,y,z
-x,y,1/2-z
-x,-y,-z
x,-y,1/2+z
1/2+x,1/2+y,z
1/2-x,1/2+y,1/2-z
1/2-x,1/2-y,-z
1/2+x,1/2-y,1/2+z
loop_
_atom_site_type_symbol
_atom_site_label
_atom_site_fract_x
_atom_site_fract_y
_atom_site_fract_z
Si Si1 0.511800 0.476692 0.136507
Si Si2 0.705841 0.814437 0.421383
Si Si3 0.330234 0.853335 0.822052
Si Si4 0.036893 0.731202 0.045197
Si Si5 0.817826 0.019548 0.662128
Si Si6 0.798780 0.954327 0.879178
Si Si7 0.343454 0.217333 0.119622
O O1 0.500000 0.459961 0.250000
O O2 0.533087 0.357694 0.086136
O O3 0.416407 0.523638 0.116894
O O4 0.599305 0.549460 0.101671
O O5 0.750000 0.750000 0.500000
O O6 0.757170 0.749347 0.333021
O O7 0.600603 0.792677 0.448535
O O8 0.739100 0.941152 0.421453
O O9 0.410845 0.833392 0.880305
O O10 0.363834 0.848016 0.712782
O O11 0.270872 0.959824 0.861876
O O12 0.933469 0.700887 0.047624
O O13 0.809929 0.984246 0.769843
O O14 0.825385 0.151701 0.642304
O O15 0.744551 0.842220 0.905175
#
# Coordination Sequence:
#
# PCOD9255354 Si02
#       7
#     8   8   8   8   8   8   8
#     4   9  15  29  49  72  92 123 173 205 233 279
#     4  10  18  30  51  77  96 128 165 205 243 281
#     4  10  17  31  53  73 101 124 167 208 242 282
#     4  10  18  30  52  73  96 128 168 201 236 288
#     4   9  18  30  51  76  96 125 164 210 245 281
#     4  10  17  30  52  72 100 128 164 204 243 286
#     4  10  19  31  51  75  98 130 166 202 243 289
#
# _framework density 21.636123999999999
#
# number of rings (size 3 to 8) (size 9 to 14) (size 15 to 20)
#    0.000    2.286    4.286    2.143    0.000    0.571 
#    0.000    2.857    3.143    6.857    0.000    0.000 
#    0.000    0.000    0.000    0.000    0.000    0.000 
#
# Total GULP energy -156120.041429 kJ/mol
# GULP energy per Si atom -5575.715765 kJ/mol
# Density = 2.158688 g / cm^3
# Si number density = 21.636124 Si / 1000 Ang^3
#
#
#
# Elastic Constant Matrix: (Units=GPa)
#
#
# Indices 1 2 3 4 5 6 
#
# 1 108.6042 59.0908 18.8000 0.0000 -41.5900 0.0000
# 2 59.0908 74.9772 0.5794 0.0000 -20.4232 0.0000
# 3 18.8000 0.5794 56.4572 0.0000 -18.4526 0.0000
# 4 0.0000 0.0000 0.0000 16.6246 0.0000 -5.5147
# 5 -41.5900 -20.4232 -18.4526 0.0000 34.9919 0.0000
# 6 0.0000 0.0000 0.0000 -5.5147 0.0000 34.7766
#
#
#
# Elastic Compliance Matrix: (Units=1/GPa)
#
#
# Indices 1 2 3 4 5 6 
#
# 1 0.025119 -0.014094 -0.001390 0.000000 0.020897 0.000000
# 2 -0.014094 0.024346 0.004365 0.000000 -0.000240 0.000000
# 3 -0.001390 0.004365 0.022260 0.000000 0.012634 0.000000
# 4 0.000000 0.000000 0.000000 0.063492 0.000000 0.010068
# 5 0.020897 -0.000240 0.012634 0.000000 0.059937 0.000000
# 6 0.000000 0.000000 0.000000 0.010068 0.000000 0.030352
#
#
# Mechanical properties :
#
#
# Convention : Reuss Voigt Hill
#
# Bulk Modulus (GPa) = 20.20749 44.10879 32.15814
# Shear Modulus (GPa) = 18.92221 28.04983 23.48602
#
# Velocity S-wave (km/s) = 2.96051 3.60451 3.29827
# Velocity P-wave (km/s) = 4.58761 6.14445 5.42219
#
# Compressibility (1/GPa) = 0.04948660
#
# Stress axis : x y z
#
# Youngs Moduli (GPa) = 39.81000 41.07443 44.92384
#
# Poissons Ratio (x) = 0.57891 0.06245
# Poissons Ratio (y) = 0.56109 -0.19609
# Poissons Ratio (z) = 0.05534 -0.17928
#
# Static dielectric constant tensor:
#      x y z
#    x 1.820400 0.000000 -0.010620 
#    y 0.000000 1.802470 0.000000 
#    z -0.010620 0.000000 1.912020 
# 
# From -- ./inp_files/203944.got.cif
#   From: 2010.05.17/outbox.cif.g08.bks.cpg/sg15_102_cif.got.tgz:203944.got - 2010.06.03 18:47:42.
