data_PCOD9255472
_publ_section_title
;
Structure prediction by ZEFSAII (Michael W. Deem and Ramdas Pophale) SiO2 
 PCOD9255472
Probable space group: C 2/C
;
_chemical_formula_sum "Si O2"
_cell_formula_units_Z 40
_cell_length_a 7.273344
_cell_length_b 23.482922
_cell_length_c 14.820954
_cell_angle_alpha 90.000000
_cell_angle_beta 67.892338
_cell_angle_gamma 90.000000
_cell_volume 2345.296094
_symmetry_space_group_name_H-M "C 2/C"
_symmetry_group_IT_number 15
_symmetry_cell_setting 'monoclinic'
loop_
_space_group_symop_operation_xyz
x,y,z
-x,y,1/2-z
-x,-y,-z
x,-y,1/2+z
1/2+x,1/2+y,z
1/2-x,1/2+y,1/2-z
1/2-x,1/2-y,-z
1/2+x,1/2-y,1/2+z
loop_
_atom_site_type_symbol
_atom_site_label
_atom_site_fract_x
_atom_site_fract_y
_atom_site_fract_z
Si Si1 0.214824 0.057627 0.797468
Si Si2 0.138557 0.294797 0.083134
Si Si3 0.872486 0.425407 0.460266
Si Si4 0.782674 0.979751 0.392672
Si Si5 0.276804 0.688195 0.759140
O O1 0.347505 0.052945 0.861443
O O2 0.232849 0.012853 0.712870
O O3 0.246497 0.119425 0.745880
O O4 0.987461 0.052805 0.871958
O O5 0.166322 0.358471 0.038357
O O6 0.234264 0.291497 0.165284
O O7 0.900666 0.289198 0.144307
O O8 0.250000 0.250000 0.000000
O O9 0.728147 0.461899 0.550335
O O10 0.092175 0.441747 0.453636
O O11 0.500000 0.700585 0.750000
#
# Coordination Sequence:
#
# PCOD9255472 Si02
#       5
#     8   8   8   8   8
#     4  10  17  31  50  75 102 135 174 212 260 326
#     4  10  21  35  54  81 107 143 188 230 271 322
#     4  10  19  31  50  76 107 136 169 220 267 318
#     4  10  18  29  51  78 101 131 173 214 266 314
#     4  10  18  35  58  75 102 143 187 227 271 328
#
# _framework density 17.055413999999999
#
# number of rings (size 3 to 8) (size 9 to 14) (size 15 to 20)
#    0.000    2.000    4.000    1.200    0.000    0.800 
#    0.000    4.000    0.000    4.800    0.000    0.000 
#    0.000    0.000    0.000    0.000    0.000    0.000 
#
# Total GULP energy -111409.670518 kJ/mol
# GULP energy per Si atom -5570.483526 kJ/mol
# Density = 1.701660 g / cm^3
# Si number density = 17.055414 Si / 1000 Ang^3
#
#
#
# Elastic Constant Matrix: (Units=GPa)
#
#
# Indices 1 2 3 4 5 6 
#
# 1 114.4544 25.0400 28.9629 0.0000 -13.3937 0.0000
# 2 25.0400 73.2650 60.6032 0.0000 -2.9282 0.0000
# 3 28.9629 60.6032 96.3873 0.0000 -8.1002 0.0000
# 4 0.0000 0.0000 0.0000 41.2939 0.0000 -4.1275
# 5 -13.3937 -2.9282 -8.1002 0.0000 24.6133 0.0000
# 6 0.0000 0.0000 0.0000 -4.1275 0.0000 16.8979
#
#
#
# Elastic Compliance Matrix: (Units=1/GPa)
#
#
# Indices 1 2 3 4 5 6 
#
# 1 0.010103 -0.002260 -0.001209 0.000000 0.004831 0.000000
# 2 -0.002260 0.029105 -0.017929 0.000000 -0.003668 0.000000
# 3 -0.001209 -0.017929 0.022396 0.000000 0.004580 0.000000
# 4 0.000000 0.000000 0.000000 0.024823 0.000000 0.006063
# 5 0.004831 -0.003668 0.004580 0.000000 0.044328 0.000000
# 6 0.000000 0.000000 0.000000 0.006063 0.000000 0.060660
#
#
# Mechanical properties :
#
#
# Convention : Reuss Voigt Hill
#
# Bulk Modulus (GPa) = 53.16797 57.03546 55.10171
# Shear Modulus (GPa) = 20.79179 27.86106 24.32642
#
# Velocity S-wave (km/s) = 3.49531 4.04612 3.78076
# Velocity P-wave (km/s) = 6.89427 7.43922 7.17192
#
# Compressibility (1/GPa) = 0.01880832
#
# Stress axis : x y z
#
# Youngs Moduli (GPa) = 98.98314 34.35793 44.65127
#
# Poissons Ratio (x) = 0.07764 0.05398
# Poissons Ratio (y) = 0.22368 0.80056
# Poissons Ratio (z) = 0.11966 0.61601
#
# Static dielectric constant tensor:
#      x y z
#    x 1.623740 0.000000 -0.025070 
#    y 0.000000 1.565360 0.000000 
#    z -0.025070 0.000000 1.606020 
# 
# From -- ./inp_files/80072.got.cif
#   From: 2010.05.17/outbox.cif.g08.bks.cpg/sg15_41_cif.got.tgz:80072.got - 2010.06.03 18:47:42.
