data_PCOD9255717
_publ_section_title
;
Structure prediction by ZEFSAII (Michael W. Deem and Ramdas Pophale) SiO2 
 PCOD9255717
Probable space group: C 2/C
;
_chemical_formula_sum "Si O2"
_cell_formula_units_Z 64
_cell_length_a 16.502805
_cell_length_b 20.317212
_cell_length_c 18.117425
_cell_angle_alpha 90.000000
_cell_angle_beta 30.660035
_cell_angle_gamma 90.000000
_cell_volume 3097.704678
_symmetry_space_group_name_H-M "C 2/C"
_symmetry_group_IT_number 15
_symmetry_cell_setting 'monoclinic'
loop_
_space_group_symop_operation_xyz
x,y,z
-x,y,1/2-z
-x,-y,-z
x,-y,1/2+z
1/2+x,1/2+y,z
1/2-x,1/2+y,1/2-z
1/2-x,1/2-y,-z
1/2+x,1/2-y,1/2+z
loop_
_atom_site_type_symbol
_atom_site_label
_atom_site_fract_x
_atom_site_fract_y
_atom_site_fract_z
Si Si1 0.621489 0.888896 0.013770
Si Si2 0.936174 0.948547 0.725617
Si Si3 0.996499 0.664297 0.453972
Si Si4 0.918425 0.720394 0.745801
Si Si5 0.170600 0.015205 0.831482
Si Si6 0.160673 0.216476 0.349689
Si Si7 0.626775 0.368247 0.457897
Si Si8 0.500243 0.974046 0.914720
O O1 0.808745 0.894328 0.852371
O O2 0.551640 0.864453 0.990196
O O3 0.547243 0.837353 0.128326
O O4 0.573390 0.964254 0.070450
O O5 0.000000 0.980156 0.750000
O O6 0.067585 0.913079 0.571973
O O7 0.849667 0.000202 0.739026
O O8 0.158313 0.692759 0.291389
O O9 0.932540 0.599278 0.462697
O O10 0.877000 0.723430 0.565816
O O11 0.884602 0.760008 0.697841
O O12 0.746936 0.686715 0.893036
O O13 0.000000 0.757501 0.750000
O O14 0.214158 0.087428 0.827232
O O15 0.311777 0.969248 0.749753
O O16 0.000000 0.000000 0.000000
O O17 0.027925 0.160134 0.462469
O O18 0.500000 0.000000 0.000000
#
# Coordination Sequence:
#
# PCOD9255717 Si02
#       8
#     8   8   8   8   8   8   8   8
#     4  10  19  35  53  72 100 140 181 226 265 315
#     4  11  21  33  53  79 107 136 178 228 279 322
#     4  10  19  33  49  72  98 135 177 217 257 307
#     4  11  23  35  50  74 109 152 188 215 254 308
#     4  10  19  33  53  75  99 136 180 224 277 315
#     4  11  21  34  47  69 107 143 181 216 247 307
#     4  11  21  36  52  72 104 149 184 221 259 316
#     4  10  17  32  55  73  95 133 181 225 272 307
#
# _framework density 20.660457999999998
#
# number of rings (size 3 to 8) (size 9 to 14) (size 15 to 20)
#    0.000    1.500    6.250    1.500    0.000    1.000 
#    0.000    0.000    0.000    0.000    0.000    0.000 
#    0.000    5.000    0.000    0.000    0.000    0.000 
#
# Total GULP energy -178497.551800 kJ/mol
# GULP energy per Si atom -5578.048494 kJ/mol
# Density = 2.061343 g / cm^3
# Si number density = 20.660458 Si / 1000 Ang^3
#
#
#
# Elastic Constant Matrix: (Units=GPa)
#
#
# Indices 1 2 3 4 5 6 
#
# 1 23.6444 4.2891 2.8510 -0.0030 1.7975 0.0044
# 2 4.2891 94.4110 26.2007 0.0002 3.2547 0.0045
# 3 2.8510 26.2007 85.9063 0.0011 -10.9033 0.0046
# 4 -0.0030 0.0002 0.0011 32.9390 0.0029 -6.6238
# 5 1.7975 3.2547 -10.9033 0.0029 12.7476 -0.0054
# 6 0.0044 0.0045 0.0046 -6.6238 -0.0054 16.8941
#
#
#
# Elastic Compliance Matrix: (Units=1/GPa)
#
#
# Indices 1 2 3 4 5 6 
#
# 1 0.043323 -0.001138 -0.002052 0.000002 -0.007574 -0.000012
# 2 -0.001138 0.012135 -0.004528 0.000000 -0.006811 -0.000004
# 3 -0.002052 -0.004528 0.014889 -0.000002 0.014181 0.000002
# 4 0.000002 0.000000 -0.000002 0.032958 -0.000004 0.012922
# 5 -0.007574 -0.006811 0.014181 -0.000004 0.093382 0.000028
# 6 -0.000012 -0.000004 0.000002 0.012922 0.000028 0.064259
#
#
# Mechanical properties :
#
#
# Convention : Reuss Voigt Hill
#
# Bulk Modulus (GPa) = 18.21079 30.07147 24.14113
# Shear Modulus (GPa) = 16.96729 23.89087 20.42908
#
# Velocity S-wave (km/s) = 2.86885 3.40421 3.14793
# Velocity P-wave (km/s) = 4.45052 5.48072 4.99226
#
# Compressibility (1/GPa) = 0.05491251
#
# Stress axis : x y z
#
# Youngs Moduli (GPa) = 23.08253 82.40645 67.16173
#
# Poissons Ratio (x) = 0.09374 0.13782
# Poissons Ratio (y) = 0.02626 0.30409
# Poissons Ratio (z) = 0.04737 0.37311
#
# Static dielectric constant tensor:
#      x y z
#    x 1.720080 0.000000 -0.003730 
#    y 0.000000 1.848430 0.000000 
#    z -0.003730 0.000000 1.821570 
# 
# From -- ./inp_files/211940.got.cif
#   From: 2010.05.17/outbox.cif.g08.bks.cpg/sg15_106_cif.got.tgz:211940.got - 2010.06.03 18:47:42.
