data_PCOD9255995
_publ_section_title
;
Structure prediction by ZEFSAII (Michael W. Deem and Ramdas Pophale) SiO2 
 PCOD9255995
Probable space group: C 2/C
;
_chemical_formula_sum "Si O2"
_cell_formula_units_Z 60
_cell_length_a 31.129298
_cell_length_b 7.776117
_cell_length_c 22.482348
_cell_angle_alpha 90.000000
_cell_angle_beta 27.902475
_cell_angle_gamma 90.000000
_cell_volume 2546.771179
_symmetry_space_group_name_H-M "C 2/C"
_symmetry_group_IT_number 15
_symmetry_cell_setting 'monoclinic'
loop_
_space_group_symop_operation_xyz
x,y,z
-x,y,1/2-z
-x,-y,-z
x,-y,1/2+z
1/2+x,1/2+y,z
1/2-x,1/2+y,1/2-z
1/2-x,1/2-y,-z
1/2+x,1/2-y,1/2+z
loop_
_atom_site_type_symbol
_atom_site_label
_atom_site_fract_x
_atom_site_fract_y
_atom_site_fract_z
Si Si1 0.770721 0.429980 0.178327
Si Si2 0.599822 0.684104 0.693726
Si Si3 0.230707 0.515606 0.190737
Si Si4 0.101912 0.807178 0.510819
Si Si5 0.500000 0.378691 0.750000
Si Si6 0.216416 0.336302 0.456168
Si Si7 0.948399 0.193107 0.973490
Si Si8 0.083297 0.711337 0.406983
O O1 0.759113 0.546512 0.250074
O O2 0.793521 0.478501 0.082642
O O3 0.669970 0.342731 0.294551
O O4 0.858142 0.309237 0.085816
O O5 0.569485 0.510678 0.697501
O O6 0.689725 0.643802 0.622774
O O7 0.632774 0.817945 0.603485
O O8 0.519659 0.749969 0.834732
O O9 0.273449 0.652727 0.091986
O O10 0.120793 0.544820 0.323969
O O11 0.288923 0.342370 0.112634
O O12 0.071684 0.997134 0.522259
O O13 0.050374 0.778014 0.635568
O O14 0.074077 0.687564 0.489225
O O15 0.998730 0.209586 0.975136
#
# Coordination Sequence:
#
# PCOD9255995 Si02
#       8
#     8   8   8   8   4   8   8   8
#     4  10  20  32  51  75 107 132 165 202 251 309
#     4  10  18  28  53  71 110 123 164 216 257 302
#     4  10  18  35  50  74 106 135 166 199 255 304
#     4  10  19  32  53  74 101 130 170 212 252 298
#     4  10  18  30  46  80  92 132 170 212 256 288
#     4  10  17  34  47  77 103 137 160 207 258 297
#     4  11  18  32  53  80  99 131 166 212 260 293
#     4  10  20  34  48  76 104 133 167 208 248 301
#
# _framework density 23.559242999999999
#
# number of rings (size 3 to 8) (size 9 to 14) (size 15 to 20)
#    0.000    1.867    6.667    1.200    0.000    0.533 
#    0.000    0.000    0.000    1.600    0.000    2.800 
#    0.000    0.000    0.000    0.000    0.000    0.000 
#
# Total GULP energy -167138.672314 kJ/mol
# GULP energy per Si atom -5571.289077 kJ/mol
# Density = 2.350562 g / cm^3
# Si number density = 23.559243 Si / 1000 Ang^3
#
#
#
# Elastic Constant Matrix: (Units=GPa)
#
#
# Indices 1 2 3 4 5 6 
#
# 1 96.6645 19.7941 43.0804 0.0596 4.6917 -0.0339
# 2 19.7941 56.4488 31.5515 0.0665 1.3350 -0.0425
# 3 43.0804 31.5515 149.0643 0.0534 32.1314 -0.0254
# 4 0.0596 0.0665 0.0534 26.8116 -0.0151 13.4063
# 5 4.6917 1.3350 32.1314 -0.0151 48.0535 0.0050
# 6 -0.0339 -0.0425 -0.0254 13.4063 0.0050 13.1909
#
#
#
# Elastic Compliance Matrix: (Units=1/GPa)
#
#
# Indices 1 2 3 4 5 6 
#
# 1 0.012250 -0.002514 -0.003231 -0.000045 0.001034 0.000063
# 2 -0.002514 0.020906 -0.004237 -0.000127 0.002498 0.000181
# 3 -0.003231 -0.004237 0.009868 -0.000010 -0.006165 0.000010
# 4 -0.000045 -0.000127 -0.000010 0.075838 0.000047 -0.077077
# 5 0.001034 0.002498 -0.006165 0.000047 0.024762 -0.000058
# 6 0.000063 0.000181 0.000010 -0.077077 -0.000058 0.154147
#
#
# Mechanical properties :
#
#
# Convention : Reuss Voigt Hill
#
# Bulk Modulus (GPa) = 43.36453 54.55882 48.96167
# Shear Modulus (GPa) = 15.36473 31.46129 23.41301
#
# Velocity S-wave (km/s) = 2.55654 3.65829 3.15587
# Velocity P-wave (km/s) = 5.21163 6.40723 5.84010
#
# Compressibility (1/GPa) = 0.02306032
#
# Stress axis : x y z
#
# Youngs Moduli (GPa) = 81.63503 47.83316 101.33739
#
# Poissons Ratio (x) = 0.12024 0.32743
# Poissons Ratio (y) = 0.20521 0.42935
# Poissons Ratio (z) = 0.26377 0.20266
#
# Static dielectric constant tensor:
#      x y z
#    x 1.930900 0.000000 -0.017110 
#    y 0.000000 2.031990 0.000010 
#    z -0.017110 0.000010 1.952720 
# 
# From -- ./inp_files/259165.got.cif
#   From: 2010.05.17/outbox.cif.g08.bks.cpg/sg15_130_cif.got.tgz:259165.got - 2010.06.03 18:47:42.
