data_PCOD9255336
_publ_section_title
;
Structure prediction by ZEFSAII (Michael W. Deem and Ramdas Pophale) SiO2 
 PCOD9255336
Probable space group: C 2/C
;
_chemical_formula_sum "Si O2"
_cell_formula_units_Z 52
_cell_length_a 10.341472
_cell_length_b 24.180967
_cell_length_c 9.447152
_cell_angle_alpha 90.000000
_cell_angle_beta 90.938633
_cell_angle_gamma 90.000000
_cell_volume 2362.102002
_symmetry_space_group_name_H-M "C 2/C"
_symmetry_group_IT_number 15
_symmetry_cell_setting 'monoclinic'
loop_
_space_group_symop_operation_xyz
x,y,z
-x,y,1/2-z
-x,-y,-z
x,-y,1/2+z
1/2+x,1/2+y,z
1/2-x,1/2+y,1/2-z
1/2-x,1/2-y,-z
1/2+x,1/2-y,1/2+z
loop_
_atom_site_type_symbol
_atom_site_label
_atom_site_fract_x
_atom_site_fract_y
_atom_site_fract_z
Si Si1 0.153411 0.055411 0.981624
Si Si2 0.731420 0.969654 0.727161
Si Si3 0.890567 0.759645 0.855000
Si Si4 0.602329 0.135650 0.542565
Si Si5 0.500000 0.948360 0.250000
Si Si6 0.626960 0.721648 0.815902
Si Si7 0.000000 0.384079 0.750000
Si Si8 0.500000 0.615465 0.750000
O O1 0.200571 0.999149 0.904525
O O2 0.262084 0.103344 0.964657
O O3 0.031206 0.078471 0.888923
O O4 0.162909 0.044470 0.149954
O O5 0.628244 0.015987 0.776800
O O6 0.627553 0.920199 0.705220
O O7 0.900001 0.693351 0.877220
O O8 0.747633 0.760866 0.788001
O O9 0.000000 0.779965 0.750000
O O10 0.887639 0.784597 0.013418
O O11 0.514296 0.090770 0.616645
O O12 0.549139 0.146626 0.387599
O O13 0.500000 0.747937 0.750000
O O14 0.618340 0.660343 0.742930
#
# Coordination Sequence:
#
# PCOD9255336 Si02
#       8
#     8   8   8   8   4   8   4   4
#     4  10  19  33  55  69 111 146 196 224 280 335
#     4   9  18  31  48  80 104 150 181 237 274 331
#     4  11  21  37  65  91 112 147 199 238 287 359
#     4  10  17  30  50  83 108 146 178 235 282 347
#     4   9  16  28  50  75 118 133 176 236 290 319
#     4   9  22  42  60  83 122 151 183 240 305 341
#     4   9  18  27  48  78 122 140 182 229 304 317
#     4  10  20  39  58  73 108 165 186 229 290 346
#
# _framework density 22.014289999999999
#
# number of rings (size 3 to 8) (size 9 to 14) (size 15 to 20)
#    0.462    1.846    2.308    0.923    1.077    4.923 
#    0.000    0.000    3.385    0.000    0.000    0.000 
#    0.000    0.000    0.000    0.000    0.000    0.000 
#
# Total GULP energy -144763.691995 kJ/mol
# GULP energy per Si atom -5567.834308 kJ/mol
# Density = 2.196418 g / cm^3
# Si number density = 22.014290 Si / 1000 Ang^3
#
#
#
# Elastic Constant Matrix: (Units=GPa)
#
#
# Indices 1 2 3 4 5 6 
#
# 1 81.2610 2.2711 44.7618 0.0000 18.0573 0.0000
# 2 2.2711 36.3094 4.4703 0.0000 6.1466 0.0000
# 3 44.7618 4.4703 80.0139 0.0000 29.2537 0.0000
# 4 0.0000 0.0000 0.0000 -61.4606 0.0000 -104.0725
# 5 18.0573 6.1466 29.2537 0.0000 39.5199 0.0000
# 6 0.0000 0.0000 0.0000 -104.0725 0.0000 -84.0778
#
#
#
# Elastic Compliance Matrix: (Units=1/GPa)
#
#
# Indices 1 2 3 4 5 6 
#
# 1 0.017821 0.000249 -0.009587 0.000000 -0.001085 0.000000
# 2 0.000249 0.028289 -0.000096 0.000000 -0.004443 0.000000
# 3 -0.009587 -0.000096 0.022292 0.000000 -0.012106 0.000000
# 4 0.000000 0.000000 0.000000 0.014845 0.000000 -0.018376
# 5 -0.001085 -0.004443 -0.012106 0.000000 0.035452 0.000000
# 6 0.000000 0.000000 0.000000 -0.018376 0.000000 0.010852
#
#
# Mechanical properties :
#
#
# Convention : Reuss Voigt Hill
#
# Bulk Modulus (GPa) = 20.18703 33.39899 26.79301
# Shear Modulus (GPa) = 30.31600 -11.46495 9.42552
#
# Velocity S-wave (km/s) = 3.71496 -2.28457 2.07144
# Velocity P-wave (km/s) = 5.25273 2.87148 4.23300
#
# Compressibility (1/GPa) = 0.04953675
#
# Stress axis : x y z
#
# Youngs Moduli (GPa) = 56.11395 35.34897 44.85861
#
# Poissons Ratio (x) = -0.00881 0.43004
# Poissons Ratio (y) = -0.01399 0.00429
# Poissons Ratio (z) = 0.53794 0.00338
#
# Static dielectric constant tensor:
#      x y z
#    x 2.041930 0.000000 0.220940 
#    y 0.000000 1.832730 0.000000 
#    z 0.220940 0.000000 2.217940 
# 
# From -- ./inp_files/33635.got.cif
#   From: 2010.05.17/outbox.cif.g08.bks.cpg/sg15_17_cif.got.tgz:33635.got - 2010.06.03 18:47:42.
