data_PCOD9255366
_publ_section_title
;
Structure prediction by ZEFSAII (Michael W. Deem and Ramdas Pophale) SiO2 
 PCOD9255366
Probable space group: C 2/C
;
_chemical_formula_sum "Si O2"
_cell_formula_units_Z 52
_cell_length_a 7.044432
_cell_length_b 26.958857
_cell_length_c 12.227501
_cell_angle_alpha 90.000000
_cell_angle_beta 117.481867
_cell_angle_gamma 90.000000
_cell_volume 2060.087227
_symmetry_space_group_name_H-M "C 2/C"
_symmetry_group_IT_number 15
_symmetry_cell_setting 'monoclinic'
loop_
_space_group_symop_operation_xyz
x,y,z
-x,y,1/2-z
-x,-y,-z
x,-y,1/2+z
1/2+x,1/2+y,z
1/2-x,1/2+y,1/2-z
1/2-x,1/2-y,-z
1/2+x,1/2-y,1/2+z
loop_
_atom_site_type_symbol
_atom_site_label
_atom_site_fract_x
_atom_site_fract_y
_atom_site_fract_z
Si Si1 0.894311 0.052530 0.994815
Si Si2 0.700718 0.182344 0.159253
Si Si3 0.561532 0.653201 0.078776
Si Si4 0.925021 0.540081 0.886903
Si Si5 0.500000 0.482318 0.750000
Si Si6 0.912227 0.344547 0.401099
Si Si7 0.707382 0.298815 0.153005
O O1 0.025249 0.101768 0.003251
O O2 0.913601 0.052286 0.131370
O O3 0.652791 0.049779 0.887831
O O4 0.000000 0.000000 0.000000
O O5 0.736176 0.159074 0.288324
O O6 0.749003 0.240742 0.177218
O O7 0.872539 0.159447 0.119787
O O8 0.476577 0.174615 0.037826
O O9 0.508613 0.694269 0.973900
O O10 0.706952 0.516668 0.781603
O O11 0.879664 0.596693 0.907187
O O12 0.000000 0.500000 0.000000
O O13 0.724324 0.322885 0.276764
O O14 0.114019 0.326421 0.376747
#
# Coordination Sequence:
#
# PCOD9255366 Si02
#       7
#     8   8   8   8   4   8   8
#     4  11  23  38  60  90 125 169 209 258 318 377
#     4  10  17  30  52  79 127 160 195 249 320 378
#     4  10  18  30  49  78 123 157 192 249 311 367
#     4  10  22  40  58  87 119 168 213 256 309 373
#     4  10  24  40  64  78 124 164 224 256 316 370
#     4  10  18  30  52  77 120 153 194 256 308 363
#     4  10  18  28  50  87 120 153 198 260 317 362
#
# _framework density 25.241651000000001
#
# number of rings (size 3 to 8) (size 9 to 14) (size 15 to 20)
#    0.000    1.846    3.077    5.538    4.308    0.615 
#    0.000    0.000    0.000    0.000    0.000    1.077 
#    0.000    0.000    0.000    0.000    0.000    0.000 
#
# Total GULP energy -145004.122180 kJ/mol
# GULP energy per Si atom -5577.081622 kJ/mol
# Density = 2.518420 g / cm^3
# Si number density = 25.241651 Si / 1000 Ang^3
#
#
#
# Elastic Constant Matrix: (Units=GPa)
#
#
# Indices 1 2 3 4 5 6 
#
# 1 82.7292 18.0191 50.3180 0.0000 22.2849 0.0000
# 2 18.0191 190.7854 27.7102 0.0000 4.2230 0.0000
# 3 50.3180 27.7102 201.9533 0.0000 21.6865 0.0000
# 4 0.0000 0.0000 0.0000 33.7049 0.0000 -10.2141
# 5 22.2849 4.2230 21.6865 0.0000 36.9246 0.0000
# 6 0.0000 0.0000 0.0000 -10.2141 0.0000 1.7757
#
#
#
# Elastic Compliance Matrix: (Units=1/GPa)
#
#
# Indices 1 2 3 4 5 6 
#
# 1 0.016296 -0.000916 -0.003084 0.000000 -0.007919 0.000000
# 2 -0.000916 0.005401 -0.000540 0.000000 0.000252 0.000000
# 3 -0.003084 -0.000540 0.005964 0.000000 -0.001579 0.000000
# 4 0.000000 0.000000 0.000000 -0.039921 0.000000 -0.229635
# 5 -0.007919 0.000252 -0.001579 0.000000 0.032760 0.000000
# 6 0.000000 0.000000 0.000000 -0.229635 0.000000 -0.757754
#
#
# Mechanical properties :
#
#
# Convention : Reuss Voigt Hill
#
# Bulk Modulus (GPa) = 53.81937 74.17362 63.99649
# Shear Modulus (GPa) = -6.92540 39.77573 16.42517
#
# Velocity S-wave (km/s) = -1.65819 3.97394 2.55368
# Velocity P-wave (km/s) = 4.20735 7.10672 5.83983
#
# Compressibility (1/GPa) = 0.01858067
#
# Stress axis : x y z
#
# Youngs Moduli (GPa) = 61.36400 185.15660 167.67837
#
# Poissons Ratio (x) = 0.16958 0.51717
# Poissons Ratio (y) = 0.05620 0.09054
# Poissons Ratio (z) = 0.18926 0.09997
#
# Static dielectric constant tensor:
#      x y z
#    x 2.147360 0.000000 -0.021290 
#    y 0.000000 1.971700 0.000000 
#    z -0.021290 0.000000 1.661030 
# 
# From -- ./inp_files/138749.got.cif
#   From: 2010.05.17/outbox.cif.g08.bks.cpg/sg15_70_cif.got.tgz:138749.got - 2010.06.03 18:47:42.
