data_PCOD9255466
_publ_section_title
;
Structure prediction by ZEFSAII (Michael W. Deem and Ramdas Pophale) SiO2 
 PCOD9255466
Probable space group: C 2/C
;
_chemical_formula_sum "Si O2"
_cell_formula_units_Z 48
_cell_length_a 11.216736
_cell_length_b 25.536781
_cell_length_c 9.104776
_cell_angle_alpha 90.000000
_cell_angle_beta 53.467363
_cell_angle_gamma 90.000000
_cell_volume 2095.547333
_symmetry_space_group_name_H-M "C 2/C"
_symmetry_group_IT_number 15
_symmetry_cell_setting 'monoclinic'
loop_
_space_group_symop_operation_xyz
x,y,z
-x,y,1/2-z
-x,-y,-z
x,-y,1/2+z
1/2+x,1/2+y,z
1/2-x,1/2+y,1/2-z
1/2-x,1/2-y,-z
1/2+x,1/2-y,1/2+z
loop_
_atom_site_type_symbol
_atom_site_label
_atom_site_fract_x
_atom_site_fract_y
_atom_site_fract_z
Si Si1 0.863841 0.464416 0.647039
Si Si2 0.300583 0.323053 0.159841
Si Si3 0.727578 0.640064 0.159860
Si Si4 0.534820 0.582862 0.970011
Si Si5 0.424762 0.260571 0.642913
Si Si6 0.685549 0.508675 0.531257
O O1 0.852864 0.403706 0.603450
O O2 0.725681 0.493934 0.666650
O O3 0.831018 0.470178 0.842249
O O4 0.000000 0.500000 0.500000
O O5 0.156196 0.294270 0.327305
O O6 0.270946 0.343090 0.012852
O O7 0.360920 0.375645 0.189415
O O8 0.440970 0.283247 0.051934
O O9 0.579556 0.612873 0.337151
O O10 0.708299 0.696513 0.252196
O O11 0.436614 0.549481 0.931543
O O12 0.633311 0.545952 0.999882
O O13 0.500000 0.257106 0.750000
#
# Coordination Sequence:
#
# PCOD9255466 Si02
#       6
#     8   8   8   8   8   8
#     4  11  22  37  51  80 116 147 183 229 284 333
#     4  10  17  31  49  79 112 148 181 234 290 344
#     4   9  17  30  51  68 109 145 178 218 286 331
#     4   9  18  31  53  75 101 142 187 220 272 327
#     4   9  17  28  46  77 105 148 179 227 287 354
#     4  10  21  35  57  78 106 150 190 227 273 337
#
# _framework density 22.905709999999999
#
# number of rings (size 3 to 8) (size 9 to 14) (size 15 to 20)
#    0.000    2.333    1.667    4.000    2.333    2.000 
#    6.000    0.000    0.000    0.000    0.000    1.167 
#   10.000    0.167    0.000    0.000    0.000    0.000 
#
# Total GULP energy -133806.932763 kJ/mol
# GULP energy per Si atom -5575.288865 kJ/mol
# Density = 2.285358 g / cm^3
# Si number density = 22.905710 Si / 1000 Ang^3
#
#
#
# Elastic Constant Matrix: (Units=GPa)
#
#
# Indices 1 2 3 4 5 6 
#
# 1 44.4184 30.4367 7.3941 0.0000 -8.8623 0.0000
# 2 30.4367 131.6577 16.7422 0.0000 -20.7740 0.0000
# 3 7.3941 16.7422 41.2386 0.0000 -3.7876 0.0000
# 4 0.0000 0.0000 0.0000 32.0870 0.0000 -21.0597
# 5 -8.8623 -20.7740 -3.7876 0.0000 28.9301 0.0000
# 6 0.0000 0.0000 0.0000 -21.0597 0.0000 47.0194
#
#
#
# Elastic Compliance Matrix: (Units=1/GPa)
#
#
# Indices 1 2 3 4 5 6 
#
# 1 0.027432 -0.005375 -0.002347 0.000000 0.004237 0.000000
# 2 -0.005375 0.009989 -0.002615 0.000000 0.005184 0.000000
# 3 -0.002347 -0.002615 0.025804 0.000000 0.000781 0.000000
# 4 0.000000 0.000000 0.000000 0.044141 0.000000 0.019771
# 5 0.004237 0.005184 0.000781 0.000000 0.039688 0.000000
# 6 0.000000 0.000000 0.000000 0.019771 0.000000 0.030123
#
#
# Mechanical properties :
#
#
# Convention : Reuss Voigt Hill
#
# Bulk Modulus (GPa) = 23.50227 36.27343 29.88785
# Shear Modulus (GPa) = 23.58099 32.45674 28.01886
#
# Velocity S-wave (km/s) = 3.21203 3.76835 3.50126
# Velocity P-wave (km/s) = 4.90295 5.89952 5.42417
#
# Compressibility (1/GPa) = 0.04254908
#
# Stress axis : x y z
#
# Youngs Moduli (GPa) = 36.45354 100.11512 38.75429
#
# Poissons Ratio (x) = 0.53810 0.09097
# Poissons Ratio (y) = 0.19593 0.10136
# Poissons Ratio (z) = 0.08557 0.26184
#
# Static dielectric constant tensor:
#      x y z
#    x 1.869090 0.000000 -0.023110 
#    y 0.000000 1.921960 0.000000 
#    z -0.023110 0.000000 1.941550 
# 
# From -- ./inp_files/90652.got.cif
#   From: 2010.05.17/outbox.cif.g08.bks.cpg/sg15_46_cif.got.tgz:90652.got - 2010.06.03 18:47:42.
