data_PCOD9255969
_publ_section_title
;
Structure prediction by ZEFSAII (Michael W. Deem and Ramdas Pophale) SiO2 
 PCOD9255969
Probable space group: C 2/C
;
_chemical_formula_sum "Si O2"
_cell_formula_units_Z 64
_cell_length_a 10.284947
_cell_length_b 22.834309
_cell_length_c 18.340097
_cell_angle_alpha 90.000000
_cell_angle_beta 132.919533
_cell_angle_gamma 90.000000
_cell_volume 3154.183766
_symmetry_space_group_name_H-M "C 2/C"
_symmetry_group_IT_number 15
_symmetry_cell_setting 'monoclinic'
loop_
_space_group_symop_operation_xyz
x,y,z
-x,y,1/2-z
-x,-y,-z
x,-y,1/2+z
1/2+x,1/2+y,z
1/2-x,1/2+y,1/2-z
1/2-x,1/2-y,-z
1/2+x,1/2-y,1/2+z
loop_
_atom_site_type_symbol
_atom_site_label
_atom_site_fract_x
_atom_site_fract_y
_atom_site_fract_z
Si Si1 0.575496 0.753845 0.856598
Si Si2 0.930502 0.135729 0.865168
Si Si3 0.184001 0.816500 0.026006
Si Si4 0.464332 0.217080 0.001376
Si Si5 0.606896 0.527692 0.867154
Si Si6 0.476362 0.084696 0.974233
Si Si7 0.028848 0.614865 0.681311
Si Si8 0.371627 0.396627 0.634439
O O1 0.500000 0.771205 0.750000
O O2 0.529375 0.686536 0.858433
O O3 0.787693 0.756682 0.932023
O O4 0.497400 0.787369 0.897249
O O5 0.913505 0.151530 0.943351
O O6 0.732125 0.133745 0.757437
O O7 0.024584 0.074281 0.890345
O O8 0.390567 0.831305 0.120950
O O9 0.134498 0.848078 0.931349
O O10 0.117849 0.750026 0.014364
O O11 0.418750 0.152995 0.955036
O O12 0.500000 0.537032 0.750000
O O13 0.816158 0.544082 0.939338
O O14 0.573469 0.460418 0.874829
O O15 0.509104 0.072754 0.900999
O O16 0.670075 0.089262 0.084864
O O17 0.000000 0.587770 0.750000
O O18 0.500000 0.380320 0.750000
#
# Coordination Sequence:
#
# PCOD9255969 Si02
#       8
#     8   8   8   8   8   8   8   8
#     4  10  19  33  53  85 114 147 191 241 290 334
#     4  10  17  33  61  86 115 135 190 252 294 338
#     4   9  21  38  54  83 121 151 186 233 293 356
#     4  10  21  34  56  84 114 155 192 236 285 350
#     4  11  20  35  63  91 108 145 196 254 298 334
#     4  11  20  37  59  84 118 151 194 243 289 344
#     4   9  18  32  54  85 114 141 179 242 297 339
#     4  10  24  40  55  79 118 162 198 229 282 358
#
# _framework density 20.290510000000001
#
# number of rings (size 3 to 8) (size 9 to 14) (size 15 to 20)
#    0.000    2.000    2.500    1.500    0.000    3.500 
#    0.000    3.750    0.000    0.000    0.000    0.000 
#    0.000    0.000    0.000    0.000    0.000    0.000 
#
# Total GULP energy -178442.442501 kJ/mol
# GULP energy per Si atom -5576.326328 kJ/mol
# Density = 2.024433 g / cm^3
# Si number density = 20.290510 Si / 1000 Ang^3
#
#
#
# Elastic Constant Matrix: (Units=GPa)
#
#
# Indices 1 2 3 4 5 6 
#
# 1 78.1401 23.4907 46.4550 0.0000 7.6781 0.0000
# 2 23.4907 52.3933 11.7205 0.0000 -17.1212 0.0000
# 3 46.4550 11.7205 130.7050 0.0000 -3.7168 0.0000
# 4 0.0000 0.0000 0.0000 18.9477 0.0000 -0.1053
# 5 7.6781 -17.1212 -3.7168 0.0000 38.9523 0.0000
# 6 0.0000 0.0000 0.0000 -0.1053 0.0000 22.1364
#
#
#
# Elastic Compliance Matrix: (Units=1/GPa)
#
#
# Indices 1 2 3 4 5 6 
#
# 1 0.021132 -0.011127 -0.006789 0.000000 -0.009704 0.000000
# 2 -0.011127 0.028541 0.001820 0.000000 0.014912 0.000000
# 3 -0.006789 0.001820 0.009988 0.000000 0.003091 0.000000
# 4 0.000000 0.000000 0.000000 0.052778 0.000000 0.000251
# 5 -0.009704 0.014912 0.003091 0.000000 0.034435 0.000000
# 6 0.000000 0.000000 0.000000 0.000251 0.000000 0.045176
#
#
# Mechanical properties :
#
#
# Convention : Reuss Voigt Hill
#
# Bulk Modulus (GPa) = 36.40494 47.17452 41.78973
# Shear Modulus (GPa) = 21.42243 27.97874 24.70058
#
# Velocity S-wave (km/s) = 3.25281 3.71739 3.49283
# Velocity P-wave (km/s) = 5.66467 6.45952 6.07511
#
# Compressibility (1/GPa) = 0.02746880
#
# Stress axis : x y z
#
# Youngs Moduli (GPa) = 47.32102 35.03699 100.11524
#
# Poissons Ratio (x) = 0.38986 0.67968
# Poissons Ratio (y) = 0.52655 -0.18216
# Poissons Ratio (z) = 0.32126 -0.06375
#
# Static dielectric constant tensor:
#      x y z
#    x 1.768630 0.000000 0.001110 
#    y 0.000000 1.738960 0.000000 
#    z 0.001110 0.000000 1.768060 
# 
# From -- ./inp_files/240712.got.cif
#   From: 2010.05.17/outbox.cif.g08.bks.cpg/sg15_121_cif.got.tgz:240712.got - 2010.06.03 18:47:42.
