data_PCOD9255890
_publ_section_title
;
Structure prediction by ZEFSAII (Michael W. Deem and Ramdas Pophale) SiO2 
 PCOD9255890
Probable space group: C 2/C
;
_chemical_formula_sum "Si O2"
_cell_formula_units_Z 56
_cell_length_a 10.014062
_cell_length_b 17.882482
_cell_length_c 14.384457
_cell_angle_alpha 90.000000
_cell_angle_beta 121.677223
_cell_angle_gamma 90.000000
_cell_volume 2192.155100
_symmetry_space_group_name_H-M "C 2/C"
_symmetry_group_IT_number 15
_symmetry_cell_setting 'monoclinic'
loop_
_space_group_symop_operation_xyz
x,y,z
-x,y,1/2-z
-x,-y,-z
x,-y,1/2+z
1/2+x,1/2+y,z
1/2-x,1/2+y,1/2-z
1/2-x,1/2-y,-z
1/2+x,1/2-y,1/2+z
loop_
_atom_site_type_symbol
_atom_site_label
_atom_site_fract_x
_atom_site_fract_y
_atom_site_fract_z
Si Si1 0.280967 0.817955 0.132829
Si Si2 0.737963 0.848690 0.041966
Si Si3 0.718096 0.470846 0.156711
Si Si4 0.251994 0.635925 0.322611
Si Si5 0.126678 0.000846 0.905793
Si Si6 0.992110 0.259877 0.874976
Si Si7 0.110152 0.161005 0.385022
O O1 0.323287 0.895945 0.198641
O O2 0.115025 0.802203 0.119017
O O3 0.363416 0.737274 0.162208
O O4 0.242401 0.833044 0.012135
O O5 0.750511 0.855532 0.933866
O O6 0.570515 0.808879 0.986731
O O7 0.630418 0.710415 0.878671
O O8 0.766542 0.931018 0.090494
O O9 0.791788 0.549623 0.212134
O O10 0.551877 0.468812 0.151091
O O11 0.671138 0.481706 0.029882
O O12 0.122459 0.686790 0.225224
O O13 0.431630 0.654364 0.358415
O O14 0.140260 0.922462 0.856577
#
# Coordination Sequence:
#
# PCOD9255890 Si02
#       7
#     8   8   8   8   8   8   8
#     4  10  17  33  55  86 110 146 191 235 285 349
#     4  10  19  35  55  82 111 145 197 239 277 342
#     4   8  14  28  55  76 103 138 185 228 274 338
#     4  10  19  35  56  81 113 150 191 241 288 336
#     4   8  13  29  54  78  99 143 181 223 282 339
#     4  11  21  31  57  83 110 149 194 239 284 335
#     4   9  18  31  59  82 115 146 181 238 297 347
#
# _framework density 25.545638
#
# number of rings (size 3 to 8) (size 9 to 14) (size 15 to 20)
#    0.000    2.571    2.857    2.143    0.000    0.571 
#    0.000    0.714   22.000    5.143    0.000    0.000 
#    0.000    0.000    0.000    0.000    0.000    0.000 
#
# Total GULP energy -156249.969699 kJ/mol
# GULP energy per Si atom -5580.356061 kJ/mol
# Density = 2.548750 g / cm^3
# Si number density = 25.545638 Si / 1000 Ang^3
#
#
#
# Elastic Constant Matrix: (Units=GPa)
#
#
# Indices 1 2 3 4 5 6 
#
# 1 59.2067 40.6659 6.2961 0.0000 16.4009 0.0000
# 2 40.6659 252.4841 26.1765 0.0000 12.3993 0.0000
# 3 6.2961 26.1765 72.5654 0.0000 13.7589 0.0000
# 4 0.0000 0.0000 0.0000 7.2245 0.0000 -8.8026
# 5 16.4009 12.3993 13.7589 0.0000 28.5480 0.0000
# 6 0.0000 0.0000 0.0000 -8.8026 0.0000 33.1883
#
#
#
# Elastic Compliance Matrix: (Units=1/GPa)
#
#
# Indices 1 2 3 4 5 6 
#
# 1 0.022254 -0.003144 0.001506 0.000000 -0.012145 0.000000
# 2 -0.003144 0.004595 -0.001485 0.000000 0.000526 0.000000
# 3 0.001506 -0.001485 0.015658 0.000000 -0.007767 0.000000
# 4 0.000000 0.000000 0.000000 0.204509 0.000000 0.054243
# 5 -0.012145 0.000526 -0.007767 0.000000 0.045521 0.000000
# 6 0.000000 0.000000 0.000000 0.054243 0.000000 0.044518
#
#
# Mechanical properties :
#
#
# Convention : Reuss Voigt Hill
#
# Bulk Modulus (GPa) = 27.57702 58.94812 43.26257
# Shear Modulus (GPa) = 14.06916 34.53334 24.30125
#
# Velocity S-wave (km/s) = 2.34934 3.68071 3.08764
# Velocity P-wave (km/s) = 4.26355 6.41788 5.44826
#
# Compressibility (1/GPa) = 0.03626208
#
# Stress axis : x y z
#
# Youngs Moduli (GPa) = 44.93666 217.62305 63.86441
#
# Poissons Ratio (x) = 0.68419 -0.09619
# Poissons Ratio (y) = 0.14128 0.09481
# Poissons Ratio (z) = -0.06768 0.32307
#
# Static dielectric constant tensor:
#      x y z
#    x 2.154330 0.000000 0.039430 
#    y 0.000000 2.049270 0.000000 
#    z 0.039430 0.000000 2.177310 
# 
# From -- ./inp_files/238412.got.cif
#   From: 2010.05.17/outbox.cif.g08.bks.cpg/sg15_120_cif.got.tgz:238412.got - 2010.06.03 18:47:42.
