data_PCOD9255096
_publ_section_title
;
Structure prediction by ZEFSAII (Michael W. Deem and Ramdas Pophale) SiO2 
 PCOD9255096
Probable space group: C 2/C
;
_chemical_formula_sum "Si O2"
_cell_formula_units_Z 48
_cell_length_a 15.800411
_cell_length_b 12.446592
_cell_length_c 12.081501
_cell_angle_alpha 90.000000
_cell_angle_beta 117.293813
_cell_angle_gamma 90.000000
_cell_volume 2111.439611
_symmetry_space_group_name_H-M "C 2/C"
_symmetry_group_IT_number 15
_symmetry_cell_setting 'monoclinic'
loop_
_space_group_symop_operation_xyz
x,y,z
-x,y,1/2-z
-x,-y,-z
x,-y,1/2+z
1/2+x,1/2+y,z
1/2-x,1/2+y,1/2-z
1/2-x,1/2-y,-z
1/2+x,1/2-y,1/2+z
loop_
_atom_site_type_symbol
_atom_site_label
_atom_site_fract_x
_atom_site_fract_y
_atom_site_fract_z
Si Si1 0.601398 0.559158 0.583313
Si Si2 0.728617 0.589418 0.470714
Si Si3 0.390605 0.035777 0.161045
Si Si4 0.848464 0.274553 0.495375
Si Si5 0.760435 0.140680 0.269286
Si Si6 0.099267 0.900512 0.316435
O O1 0.500000 0.500000 0.500000
O O2 0.644175 0.621486 0.503758
O O3 0.671359 0.459911 0.655994
O O4 0.612013 0.633826 0.697786
O O5 0.824447 0.566516 0.595975
O O6 0.746287 0.649397 0.366649
O O7 0.686096 0.473311 0.406435
O O8 0.500000 0.012808 0.250000
O O9 0.385235 0.108804 0.046518
O O10 0.337175 0.107308 0.224605
O O11 0.750000 0.250000 0.500000
O O12 0.818671 0.241236 0.355167
O O13 0.915296 0.190822 0.601117
O O14 0.000000 0.966007 0.250000
#
# Coordination Sequence:
#
# PCOD9255096 Si02
#       6
#     8   8   8   8   8   8
#     4  10  17  28  46  75 106 136 164 202 270 322
#     4  10  19  33  48  80 109 136 173 218 270 316
#     4  10  20  34  54  76 104 143 183 222 263 304
#     4  10  17  33  49  75 102 132 174 221 265 306
#     4   9  19  31  50  75 111 131 170 229 265 316
#     4  11  17  27  49  74 103 131 164 217 263 315
#
# _framework density 22.733305000000001
#
# number of rings (size 3 to 8) (size 9 to 14) (size 15 to 20)
#    0.000    2.000    6.667    0.500    0.000    0.667 
#    0.000    0.000    0.000    4.000    0.000    4.667 
#    0.000    0.000    0.000    0.000    0.000    0.000 
#
# Total GULP energy -133708.013228 kJ/mol
# GULP energy per Si atom -5571.167218 kJ/mol
# Density = 2.268156 g / cm^3
# Si number density = 22.733305 Si / 1000 Ang^3
#
#
#
# Elastic Constant Matrix: (Units=GPa)
#
#
# Indices 1 2 3 4 5 6 
#
# 1 109.4719 3.4043 66.4902 0.0000 21.9801 0.0000
# 2 3.4043 20.8846 4.0878 0.0000 5.5759 0.0000
# 3 66.4902 4.0878 131.2158 0.0000 -15.0478 0.0000
# 4 0.0000 0.0000 0.0000 25.7895 0.0000 -1.8611
# 5 21.9801 5.5759 -15.0478 0.0000 56.5560 0.0000
# 6 0.0000 0.0000 0.0000 -1.8611 0.0000 11.0381
#
#
#
# Elastic Compliance Matrix: (Units=1/GPa)
#
#
# Indices 1 2 3 4 5 6 
#
# 1 0.016776 0.001612 -0.009610 0.000000 -0.009236 0.000000
# 2 0.001612 0.049929 -0.003103 0.000000 -0.006375 0.000000
# 3 -0.009610 -0.003103 0.013462 0.000000 0.007623 0.000000
# 4 0.000000 0.000000 0.000000 0.039253 0.000000 0.006618
# 5 -0.009236 -0.006375 0.007623 0.000000 0.023928 0.000000
# 6 0.000000 0.000000 0.000000 0.006618 0.000000 0.091711
#
#
# Mechanical properties :
#
#
# Convention : Reuss Voigt Hill
#
# Bulk Modulus (GPa) = 17.25221 45.50409 31.37815
# Shear Modulus (GPa) = 18.07781 31.18274 24.63028
#
# Velocity S-wave (km/s) = 2.82301 3.70763 3.29514
# Velocity P-wave (km/s) = 4.26981 6.19586 5.32071
#
# Compressibility (1/GPa) = 0.05796359
#
# Stress axis : x y z
#
# Youngs Moduli (GPa) = 59.60917 20.02852 74.28561
#
# Poissons Ratio (x) = -0.03229 0.71390
# Poissons Ratio (y) = -0.09610 0.23054
# Poissons Ratio (z) = 0.57285 0.06216
#
# Static dielectric constant tensor:
#      x y z
#    x 2.004280 0.000000 -0.013750 
#    y 0.000000 1.942350 0.000000 
#    z -0.013750 0.000000 1.934730 
# 
# From -- ./inp_files/97865.got.cif
#   From: 2010.05.17/outbox.cif.g08.bks.cpg/sg15_49_cif.got.tgz:97865.got - 2010.06.03 18:47:42.
