data_PCOD9255974
_publ_section_title
;
Structure prediction by ZEFSAII (Michael W. Deem and Ramdas Pophale) SiO2 
 PCOD9255974
Probable space group: C 2/C
;
_chemical_formula_sum "Si O2"
_cell_formula_units_Z 60
_cell_length_a 24.920048
_cell_length_b 18.639149
_cell_length_c 12.775780
_cell_angle_alpha 90.000000
_cell_angle_beta 28.396738
_cell_angle_gamma 90.000000
_cell_volume 2822.153287
_symmetry_space_group_name_H-M "C 2/C"
_symmetry_group_IT_number 15
_symmetry_cell_setting 'monoclinic'
loop_
_space_group_symop_operation_xyz
x,y,z
-x,y,1/2-z
-x,-y,-z
x,-y,1/2+z
1/2+x,1/2+y,z
1/2-x,1/2+y,1/2-z
1/2-x,1/2-y,-z
1/2+x,1/2-y,1/2+z
loop_
_atom_site_type_symbol
_atom_site_label
_atom_site_fract_x
_atom_site_fract_y
_atom_site_fract_z
Si Si1 0.248214 0.291531 0.892525
Si Si2 0.631486 0.256216 0.402107
Si Si3 0.249178 0.402922 0.354056
Si Si4 0.000000 0.371980 0.750000
Si Si5 0.650309 0.445325 0.776876
Si Si6 0.693277 0.347352 0.016109
Si Si7 0.994832 0.254741 0.934310
Si Si8 0.433054 0.479706 0.273187
O O1 0.141632 0.270005 0.004026
O O2 0.268443 0.377096 0.859829
O O3 0.365800 0.266448 0.637531
O O4 0.250000 0.250000 0.000000
O O5 0.678961 0.337919 0.320153
O O6 0.524641 0.247508 0.507485
O O7 0.720667 0.203430 0.190649
O O8 0.303398 0.481088 0.253409
O O9 0.253542 0.378482 0.468484
O O10 0.121126 0.409402 0.535029
O O11 0.989807 0.325626 0.660962
O O12 0.631516 0.464873 0.687553
O O13 0.524177 0.438436 0.042143
O O14 0.586144 0.299124 0.228969
O O15 0.646317 0.418407 0.040743
O O16 0.500000 0.517198 0.250000
#
# Coordination Sequence:
#
# PCOD9255974 Si02
#       8
#     8   8   8   4   8   8   8   8
#     4  12  26  43  60  82 127 178 215 243 287 379
#     4  11  21  37  65  96 123 155 203 266 316 362
#     4  10  20  34  62  92 125 150 191 257 326 362
#     4  12  18  36  66 100 122 148 198 270 316 368
#     4  10  23  41  55  89 127 158 201 251 306 372
#     4  10  17  33  61  99 121 141 190 267 328 362
#     4  11  20  36  63  95 122 152 204 256 316 359
#     4  10  20  34  62  90 121 153 196 260 326 362
#
# _framework density 21.260361
#
# number of rings (size 3 to 8) (size 9 to 14) (size 15 to 20)
#    0.000    1.333    5.333    1.600    2.800    1.600 
#    0.000    1.333    0.000    1.600    0.000    0.000 
#    0.000    0.000    0.000    0.000    0.000    0.000 
#
# Total GULP energy -167374.485886 kJ/mol
# GULP energy per Si atom -5579.149530 kJ/mol
# Density = 2.121197 g / cm^3
# Si number density = 21.260361 Si / 1000 Ang^3
#
#
#
# Elastic Constant Matrix: (Units=GPa)
#
#
# Indices 1 2 3 4 5 6 
#
# 1 94.6239 29.2207 -4.0196 0.0000 -16.3553 0.0000
# 2 29.2207 114.4862 10.2520 0.0000 -1.3499 0.0000
# 3 -4.0196 10.2520 33.7803 0.0001 -10.0109 -0.0001
# 4 0.0000 0.0000 0.0001 19.1935 -0.0001 -0.1171
# 5 -16.3553 -1.3499 -10.0109 -0.0001 35.7548 0.0001
# 6 0.0000 0.0000 -0.0001 -0.1171 0.0001 16.8805
#
#
#
# Elastic Compliance Matrix: (Units=1/GPa)
#
#
# Indices 1 2 3 4 5 6 
#
# 1 0.013170 -0.003709 0.004838 0.000000 0.007239 0.000000
# 2 -0.003709 0.010030 -0.004227 0.000000 -0.002502 0.000000
# 3 0.004838 -0.004227 0.034972 0.000000 0.011845 0.000000
# 4 0.000000 0.000000 0.000000 0.052103 0.000000 0.000361
# 5 0.007239 -0.002502 0.011845 0.000000 0.034502 0.000000
# 6 0.000000 0.000000 0.000000 0.000361 0.000000 0.059243
#
#
# Mechanical properties :
#
#
# Convention : Reuss Voigt Hill
#
# Bulk Modulus (GPa) = 19.23936 34.86628 27.05282
# Shear Modulus (GPa) = 21.97397 28.19492 25.08444
#
# Velocity S-wave (km/s) = 3.21840 3.64562 3.43865
# Velocity P-wave (km/s) = 4.78329 5.84431 5.34022
#
# Compressibility (1/GPa) = 0.05197677
#
# Stress axis : x y z
#
# Youngs Moduli (GPa) = 75.92760 99.69630 28.59436
#
# Poissons Ratio (x) = 0.36982 -0.13835
# Poissons Ratio (y) = 0.28165 0.12086
# Poissons Ratio (z) = -0.36736 0.42140
#
# Static dielectric constant tensor:
#      x y z
#    x 1.854250 0.000000 0.024390 
#    y 0.000000 1.755480 0.000000 
#    z 0.024390 0.000000 1.821670 
# 
# From -- ./inp_files/178525.got.cif
#   From: 2010.05.17/outbox.cif.g08.bks.cpg/sg15_90_cif.got.tgz:178525.got - 2010.06.03 18:47:42.
