data_PCOD9255475
_publ_section_title
;
Structure prediction by ZEFSAII (Michael W. Deem and Ramdas Pophale) SiO2 
 PCOD9255475
Probable space group: C 2/C
;
_chemical_formula_sum "Si O2"
_cell_formula_units_Z 48
_cell_length_a 21.088023
_cell_length_b 16.701063
_cell_length_c 9.224854
_cell_angle_alpha 90.000000
_cell_angle_beta 55.134658
_cell_angle_gamma 90.000000
_cell_volume 2665.734612
_symmetry_space_group_name_H-M "C 2/C"
_symmetry_group_IT_number 15
_symmetry_cell_setting 'monoclinic'
loop_
_space_group_symop_operation_xyz
x,y,z
-x,y,1/2-z
-x,-y,-z
x,-y,1/2+z
1/2+x,1/2+y,z
1/2-x,1/2+y,1/2-z
1/2-x,1/2-y,-z
1/2+x,1/2-y,1/2+z
loop_
_atom_site_type_symbol
_atom_site_label
_atom_site_fract_x
_atom_site_fract_y
_atom_site_fract_z
Si Si1 0.393621 0.369419 0.744840
Si Si2 0.255843 0.488303 0.188066
Si Si3 0.866216 0.051250 0.800630
Si Si4 0.523665 0.298226 0.369988
Si Si5 0.713485 0.889465 0.970779
Si Si6 0.420084 0.767670 0.423155
O O1 0.407926 0.464434 0.737172
O O2 0.448245 0.329199 0.554753
O O3 0.302277 0.360984 0.833931
O O4 0.410111 0.321755 0.871143
O O5 0.312483 0.443609 0.227537
O O6 0.203160 0.543164 0.359759
O O7 0.310479 0.542691 0.012902
O O8 0.213579 0.430020 0.129970
O O9 0.924197 0.124290 0.732879
O O10 0.500000 0.259425 0.250000
O O11 0.569371 0.240963 0.419517
O O12 0.651615 0.820554 0.031996
O O13 0.500000 0.799407 0.250000
#
# Coordination Sequence:
#
# PCOD9255475 Si02
#       6
#     8   8   8   8   8   8
#     4   9  19  32  52  78 104 139 168 192 247 309
#     4   8  18  32  54  79  99 131 171 206 256 302
#     4  10  17  31  50  79 111 136 163 203 239 297
#     4  11  20  31  47  76 109 138 169 204 242 291
#     4  10  18  37  56  76 101 127 167 218 255 304
#     4  10  22  37  52  72 102 139 173 205 252 307
#
# _framework density 18.006294
#
# number of rings (size 3 to 8) (size 9 to 14) (size 15 to 20)
#    0.000    2.667    0.000    5.000    0.000    2.000 
#    0.000   10.833    0.000    0.000    0.000    0.000 
#    0.000    0.000    0.000    0.000    0.000    0.000 
#
# Total GULP energy -133844.252542 kJ/mol
# GULP energy per Si atom -5576.843856 kJ/mol
# Density = 1.796531 g / cm^3
# Si number density = 18.006294 Si / 1000 Ang^3
#
#
#
# Elastic Constant Matrix: (Units=GPa)
#
#
# Indices 1 2 3 4 5 6 
#
# 1 88.8001 32.8093 27.8336 0.0000 20.8397 0.0000
# 2 32.8093 33.6642 3.0290 0.0000 7.2963 0.0000
# 3 27.8336 3.0290 45.7219 0.0000 33.9215 0.0000
# 4 0.0000 0.0000 0.0000 6.6475 0.0000 0.3573
# 5 20.8397 7.2963 33.9215 0.0000 40.6983 0.0000
# 6 0.0000 0.0000 0.0000 0.3573 0.0000 -1.6004
#
#
#
# Elastic Compliance Matrix: (Units=1/GPa)
#
#
# Indices 1 2 3 4 5 6 
#
# 1 0.023899 -0.023210 -0.018392 0.000000 0.007253 0.000000
# 2 -0.023210 0.053964 0.023359 0.000000 -0.017259 0.000000
# 3 -0.018392 0.023359 0.072427 0.000000 -0.055137 0.000000
# 4 0.000000 0.000000 0.000000 0.148648 0.000000 0.033190
# 5 0.007253 -0.017259 -0.055137 0.000000 0.069907 0.000000
# 6 0.000000 0.000000 0.000000 0.033190 0.000000 -0.617426
#
#
# Mechanical properties :
#
#
# Convention : Reuss Voigt Hill
#
# Bulk Modulus (GPa) = 8.78704 32.83669 20.81187
# Shear Modulus (GPa) = -28.70921 16.11670 -6.29626
#
# Velocity S-wave (km/s) = -3.99732 2.99500 -1.87197
# Velocity P-wave (km/s) = 4.05145 5.49871 2.62884
#
# Compressibility (1/GPa) = 0.11380394
#
# Stress axis : x y z
#
# Youngs Moduli (GPa) = 41.84211 18.53078 13.80703
#
# Poissons Ratio (x) = 0.43009 0.25395
# Poissons Ratio (y) = 0.97114 -0.32252
# Poissons Ratio (z) = 0.76958 -0.43286
#
# Static dielectric constant tensor:
#      x y z
#    x 1.639100 0.000000 0.026320 
#    y 0.000000 1.615100 0.000000 
#    z 0.026320 0.000000 1.638050 
# 
# From -- ./inp_files/48711.got.cif
#   From: 2010.05.17/outbox.cif.g08.bks.cpg/sg15_25_cif.got.tgz:48711.got - 2010.06.03 18:47:42.
