data_PCOD9255782
_publ_section_title
;
Structure prediction by ZEFSAII (Michael W. Deem and Ramdas Pophale) SiO2 
 PCOD9255782
Probable space group: C 2/C
;
_chemical_formula_sum "Si O2"
_cell_formula_units_Z 56
_cell_length_a 9.155717
_cell_length_b 24.072772
_cell_length_c 15.156662
_cell_angle_alpha 90.000000
_cell_angle_beta 108.131271
_cell_angle_gamma 90.000000
_cell_volume 3174.708047
_symmetry_space_group_name_H-M "C 2/C"
_symmetry_group_IT_number 15
_symmetry_cell_setting 'monoclinic'
loop_
_space_group_symop_operation_xyz
x,y,z
-x,y,1/2-z
-x,-y,-z
x,-y,1/2+z
1/2+x,1/2+y,z
1/2-x,1/2+y,1/2-z
1/2-x,1/2-y,-z
1/2+x,1/2-y,1/2+z
loop_
_atom_site_type_symbol
_atom_site_label
_atom_site_fract_x
_atom_site_fract_y
_atom_site_fract_z
Si Si1 0.633766 0.439536 0.108523
Si Si2 0.700423 0.854678 0.494678
Si Si3 0.049651 0.717460 0.658268
Si Si4 0.849210 0.396188 0.287956
Si Si5 0.016505 0.161925 0.147832
Si Si6 0.662676 0.567009 0.055413
Si Si7 0.544807 0.935885 0.002899
O O1 0.702183 0.423937 0.215810
O O2 0.661509 0.504184 0.092362
O O3 0.729703 0.397727 0.063594
O O4 0.457365 0.429898 0.049016
O O5 0.589606 0.809769 0.425596
O O6 0.596357 0.893944 0.536191
O O7 0.844978 0.831727 0.575124
O O8 0.173602 0.668453 0.690991
O O9 0.095951 0.779096 0.638554
O O10 0.000000 0.726018 0.750000
O O11 0.892003 0.423975 0.387516
O O12 0.000000 0.399614 0.250000
O O13 0.102077 0.110854 0.116154
O O14 0.000000 0.152917 0.250000
O O15 0.829846 0.576569 0.047489
O O16 0.500000 0.000000 0.000000
#
# Coordination Sequence:
#
# PCOD9255782 Si02
#       7
#     8   8   8   8   8   8   8
#     4  10  18  36  55  80 116 149 183 243 280 336
#     4  10  18  34  58  82 111 144 195 236 286 330
#     4   9  16  32  59  86 106 139 204 242 267 331
#     4  10  17  32  58  85 106 141 195 238 273 330
#     4  10  22  37  55  81 115 156 188 235 288 343
#     4  10  22  36  52  83 122 147 186 232 295 348
#     4  11  20  34  56  82 112 150 187 233 284 348
#
# _framework density 17.639416000000001
#
# number of rings (size 3 to 8) (size 9 to 14) (size 15 to 20)
#    0.000    2.000    5.714    0.429    0.000    1.714 
#    0.000    5.000    0.000    0.000    7.429    0.000 
#    0.000    0.000    0.000    0.000    0.000    0.000 
#
# Total GULP energy -155875.731073 kJ/mol
# GULP energy per Si atom -5566.990395 kJ/mol
# Density = 1.759927 g / cm^3
# Si number density = 17.639416 Si / 1000 Ang^3
#
#
#
# Elastic Constant Matrix: (Units=GPa)
#
#
# Indices 1 2 3 4 5 6 
#
# 1 37.5702 -2.4049 -3.0764 0.0000 -3.6829 0.0000
# 2 -2.4049 80.1589 26.4475 0.0000 -2.4387 0.0000
# 3 -3.0764 26.4475 66.0256 0.0000 6.8256 0.0000
# 4 0.0000 0.0000 0.0000 9.2629 0.0000 8.8632
# 5 -3.6829 -2.4387 6.8256 0.0000 20.1137 0.0000
# 6 0.0000 0.0000 0.0000 8.8632 0.0000 19.4071
#
#
#
# Elastic Compliance Matrix: (Units=1/GPa)
#
#
# Indices 1 2 3 4 5 6 
#
# 1 0.027188 0.000825 0.000426 0.000000 0.004934 0.000000
# 2 0.000825 0.014691 -0.006266 0.000000 0.004059 0.000000
# 3 0.000426 -0.006266 0.018391 0.000000 -0.006923 0.000000
# 4 0.000000 0.000000 0.000000 0.191751 0.000000 -0.087572
# 5 0.004934 0.004059 -0.006923 0.000000 0.053462 0.000000
# 6 0.000000 0.000000 0.000000 -0.087572 0.000000 0.091522
#
#
# Mechanical properties :
#
#
# Convention : Reuss Voigt Hill
#
# Bulk Modulus (GPa) = 19.90393 25.07633 22.49013
# Shear Modulus (GPa) = 11.79857 20.60930 16.20394
#
# Velocity S-wave (km/s) = 2.58907 3.42185 3.03416
# Velocity P-wave (km/s) = 4.49955 5.46434 5.00524
#
# Compressibility (1/GPa) = 0.05024133
#
# Stress axis : x y z
#
# Youngs Moduli (GPa) = 36.78064 68.06998 54.37450
#
# Poissons Ratio (x) = -0.05617 -0.02318
# Poissons Ratio (y) = -0.03035 0.34070
# Poissons Ratio (z) = -0.01568 0.42651
#
# Static dielectric constant tensor:
#      x y z
#    x 2.231090 0.000000 -0.342090 
#    y 0.000000 1.633670 0.000000 
#    z -0.342090 0.000000 1.832970 
# 
# From -- ./inp_files/137266.got.cif
#   From: 2010.05.17/outbox.cif.g08.bks.cpg/sg15_69_cif.got.tgz:137266.got - 2010.06.03 18:47:42.
