data_PCOD9255328
_publ_section_title
;
Structure prediction by ZEFSAII (Michael W. Deem and Ramdas Pophale) SiO2 
 PCOD9255328
Probable space group: C 2/C
;
_chemical_formula_sum "Si O2"
_cell_formula_units_Z 48
_cell_length_a 7.575854
_cell_length_b 16.552900
_cell_length_c 15.448947
_cell_angle_alpha 90.000000
_cell_angle_beta 102.908114
_cell_angle_gamma 90.000000
_cell_volume 1888.377042
_symmetry_space_group_name_H-M "C 2/C"
_symmetry_group_IT_number 15
_symmetry_cell_setting 'monoclinic'
loop_
_space_group_symop_operation_xyz
x,y,z
-x,y,1/2-z
-x,-y,-z
x,-y,1/2+z
1/2+x,1/2+y,z
1/2-x,1/2+y,1/2-z
1/2-x,1/2-y,-z
1/2+x,1/2-y,1/2+z
loop_
_atom_site_type_symbol
_atom_site_label
_atom_site_fract_x
_atom_site_fract_y
_atom_site_fract_z
Si Si1 0.580529 0.186094 0.882926
Si Si2 0.462478 0.998851 0.599930
Si Si3 0.821463 0.960065 0.190355
Si Si4 0.125579 0.923451 0.505571
Si Si5 0.028242 0.237847 0.550759
Si Si6 0.810528 0.776529 0.194145
O O1 0.586667 0.089134 0.871233
O O2 0.774063 0.226229 0.884305
O O3 0.406852 0.232741 0.824390
O O4 0.547789 0.192373 0.983360
O O5 0.646857 0.982899 0.672391
O O6 0.500000 0.000000 0.500000
O O7 0.296225 0.937251 0.586674
O O8 0.827874 0.930933 0.091181
O O9 0.812694 0.870226 0.229932
O O10 0.000000 0.998723 0.250000
O O11 0.008901 0.844133 0.506870
O O12 0.000000 0.000000 0.500000
O O13 0.862093 0.239269 0.598621
O O14 0.000000 0.739136 0.250000
#
# Coordination Sequence:
#
# PCOD9255328 Si02
#       6
#     8   8   8   8   8   8
#     4  10  19  33  52  78 105 133 173 216 264 307
#     4   9  17  30  51  75  99 133 171 211 261 308
#     4   8  16  30  47  70  99 130 168 210 262 305
#     4  10  17  30  50  74 100 130 173 217 253 304
#     4  10  20  32  53  80 104 134 176 218 262 310
#     4   9  18  32  50  74 105 137 167 215 263 309
#
# _framework density 25.418652999999999
#
# number of rings (size 3 to 8) (size 9 to 14) (size 15 to 20)
#    0.000    2.667    1.667    1.500    0.000    0.667 
#    0.000    0.833    0.000    6.000    0.000    0.000 
#    0.000    0.000    0.000    0.000    0.000    0.000 
#
# Total GULP energy -133694.146057 kJ/mol
# GULP energy per Si atom -5570.589419 kJ/mol
# Density = 2.536080 g / cm^3
# Si number density = 25.418653 Si / 1000 Ang^3
#
#
#
# Elastic Constant Matrix: (Units=GPa)
#
#
# Indices 1 2 3 4 5 6 
#
# 1 153.0300 18.0041 54.5887 0.0000 45.8300 0.0000
# 2 18.0041 51.9638 13.8712 0.0000 12.4706 0.0000
# 3 54.5887 13.8712 110.2802 0.0000 53.0748 0.0000
# 4 0.0000 0.0000 0.0000 21.2725 0.0000 4.1281
# 5 45.8300 12.4706 53.0748 0.0000 78.2953 0.0000
# 6 0.0000 0.0000 0.0000 4.1281 0.0000 24.7460
#
#
#
# Elastic Compliance Matrix: (Units=1/GPa)
#
#
# Indices 1 2 3 4 5 6 
#
# 1 0.008538 -0.001548 -0.002590 0.000000 -0.002995 0.000000
# 2 -0.001548 0.020449 -0.001001 0.000000 -0.001672 0.000000
# 3 -0.002590 -0.001001 0.014351 0.000000 -0.008053 0.000000
# 4 0.000000 0.000000 0.000000 0.048582 0.000000 -0.008104
# 5 -0.002995 -0.001672 -0.008053 0.000000 0.020251 0.000000
# 6 0.000000 0.000000 0.000000 -0.008104 0.000000 0.041763
#
#
# Mechanical properties :
#
#
# Convention : Reuss Voigt Hill
#
# Bulk Modulus (GPa) = 30.24746 54.24466 42.24606
# Shear Modulus (GPa) = 28.53371 40.11676 34.32524
#
# Velocity S-wave (km/s) = 3.35408 3.97702 3.67876
# Velocity P-wave (km/s) = 5.18897 6.51734 5.89072
#
# Compressibility (1/GPa) = 0.03306063
#
# Stress axis : x y z
#
# Youngs Moduli (GPa) = 117.12756 48.90200 69.67925
#
# Poissons Ratio (x) = 0.07570 0.18046
# Poissons Ratio (y) = 0.18130 0.06975
# Poissons Ratio (z) = 0.30335 0.04895
#
# Static dielectric constant tensor:
#      x y z
#    x 2.128210 0.000000 0.021310 
#    y 0.000000 1.930130 0.000000 
#    z 0.021310 0.000000 1.920400 
# 
# From -- ./inp_files/233306.got.cif
#   From: 2010.05.17/outbox.cif.g08.bks.cpg/sg15_117_cif.got.tgz:233306.got - 2010.06.03 18:47:42.
