data_PCOD9255179
_publ_section_title
;
Structure prediction by ZEFSAII (Michael W. Deem and Ramdas Pophale) SiO2 
 PCOD9255179
Probable space group: C 2/C
;
_chemical_formula_sum "Si O2"
_cell_formula_units_Z 44
_cell_length_a 12.833406
_cell_length_b 24.170262
_cell_length_c 7.901617
_cell_angle_alpha 90.000000
_cell_angle_beta 116.330763
_cell_angle_gamma 90.000000
_cell_volume 2196.684396
_symmetry_space_group_name_H-M "C 2/C"
_symmetry_group_IT_number 15
_symmetry_cell_setting 'monoclinic'
loop_
_space_group_symop_operation_xyz
x,y,z
-x,y,1/2-z
-x,-y,-z
x,-y,1/2+z
1/2+x,1/2+y,z
1/2-x,1/2+y,1/2-z
1/2-x,1/2-y,-z
1/2+x,1/2-y,1/2+z
loop_
_atom_site_type_symbol
_atom_site_label
_atom_site_fract_x
_atom_site_fract_y
_atom_site_fract_z
Si Si1 0.056787 0.828657 0.480449
Si Si2 0.890591 0.079453 0.958081
Si Si3 0.910275 0.267409 0.968753
Si Si4 0.000000 0.983880 0.250000
Si Si5 0.791035 0.328101 0.181323
Si Si6 0.694431 0.189326 0.430350
O O1 0.191827 0.841866 0.559106
O O2 0.000000 0.825072 0.250000
O O3 0.993865 0.875475 0.543127
O O4 0.027031 0.769705 0.546491
O O5 0.774119 0.114067 0.904894
O O6 0.911373 0.055670 0.785271
O O7 0.919314 0.025793 0.087235
O O8 0.810704 0.219077 0.891806
O O9 0.895676 0.302071 0.785549
O O10 0.879352 0.306929 0.102546
O O11 0.838129 0.332497 0.407618
O O12 0.750000 0.250000 0.500000
#
# Coordination Sequence:
#
# PCOD9255179 Si02
#       6
#     8   8   8   4   8   8
#     4  11  17  32  47  67  98 138 164 196 240 293
#     4  10  19  32  45  63  96 126 167 207 240 288
#     4   9  19  30  45  69  93 124 176 192 232 298
#     4  10  20  30  44  68  90 128 174 208 240 286
#     4   9  17  32  44  65  91 124 162 203 226 287
#     4  10  17  29  47  63  93 132 164 193 236 279
#
# _framework density 20.030187999999999
#
# number of rings (size 3 to 8) (size 9 to 14) (size 15 to 20)
#    0.000    2.182    6.364    0.000    2.545    0.000 
#    0.000    1.818    0.000    0.000    0.000    0.000 
#    0.000    0.000    0.000  126.000    0.000    0.000 
#
# Total GULP energy -122711.119135 kJ/mol
# GULP energy per Si atom -5577.778143 kJ/mol
# Density = 1.998460 g / cm^3
# Si number density = 20.030188 Si / 1000 Ang^3
#
#
#
# Elastic Constant Matrix: (Units=GPa)
#
#
# Indices 1 2 3 4 5 6 
#
# 1 81.8670 38.6529 42.2283 0.0000 -18.2169 0.0000
# 2 38.6529 88.2158 30.9586 0.0000 -8.6737 0.0000
# 3 42.2283 30.9586 68.0870 0.0000 -21.5858 0.0000
# 4 0.0000 0.0000 0.0000 16.5321 0.0000 -11.0200
# 5 -18.2169 -8.6737 -21.5858 0.0000 27.9283 0.0000
# 6 0.0000 0.0000 0.0000 -11.0200 0.0000 26.5849
#
#
#
# Elastic Compliance Matrix: (Units=1/GPa)
#
#
# Indices 1 2 3 4 5 6 
#
# 1 0.020274 -0.005395 -0.008556 0.000000 0.004935 0.000000
# 2 -0.005395 0.014935 -0.004093 0.000000 -0.002044 0.000000
# 3 -0.008556 -0.004093 0.026071 0.000000 0.013298 0.000000
# 4 0.000000 0.000000 0.000000 0.083584 0.000000 0.034647
# 5 0.004935 -0.002044 0.013298 0.000000 0.048668 0.000000
# 6 0.000000 0.000000 0.000000 0.034647 0.000000 0.051977
#
#
# Mechanical properties :
#
#
# Convention : Reuss Voigt Hill
#
# Bulk Modulus (GPa) = 39.69639 51.31661 45.50650
# Shear Modulus (GPa) = 17.24167 22.63104 19.93636
#
# Velocity S-wave (km/s) = 2.93710 3.36497 3.15828
# Velocity P-wave (km/s) = 5.60030 6.38534 6.00566
#
# Compressibility (1/GPa) = 0.02519121
#
# Stress axis : x y z
#
# Youngs Moduli (GPa) = 49.32435 66.95599 38.35740
#
# Poissons Ratio (x) = 0.36125 0.32819
# Poissons Ratio (y) = 0.26612 0.15699
# Poissons Ratio (z) = 0.42203 0.27403
#
# Static dielectric constant tensor:
#      x y z
#    x 1.865210 0.000000 -0.001610 
#    y 0.000000 1.697190 0.000000 
#    z -0.001610 0.000000 1.836590 
# 
# From -- ./inp_files/41541.got.cif
#   From: 2010.05.17/outbox.cif.g08.bks.cpg/sg15_21_cif.got.tgz:41541.got - 2010.06.03 18:47:42.
