data_PCOD9255295
_publ_section_title
;
Structure prediction by ZEFSAII (Michael W. Deem and Ramdas Pophale) SiO2 
 PCOD9255295
Probable space group: C 2/C
;
_chemical_formula_sum "Si O2"
_cell_formula_units_Z 64
_cell_length_a 28.929298
_cell_length_b 15.477804
_cell_length_c 8.543126
_cell_angle_alpha 90.000000
_cell_angle_beta 100.162050
_cell_angle_gamma 90.000000
_cell_volume 3765.278734
_symmetry_space_group_name_H-M "C 2/C"
_symmetry_group_IT_number 15
_symmetry_cell_setting 'monoclinic'
loop_
_space_group_symop_operation_xyz
x,y,z
-x,y,1/2-z
-x,-y,-z
x,-y,1/2+z
1/2+x,1/2+y,z
1/2-x,1/2+y,1/2-z
1/2-x,1/2-y,-z
1/2+x,1/2-y,1/2+z
loop_
_atom_site_type_symbol
_atom_site_label
_atom_site_fract_x
_atom_site_fract_y
_atom_site_fract_z
Si Si1 0.949478 0.879838 0.773223
Si Si2 0.810501 0.475425 0.629997
Si Si3 0.853362 0.074385 0.811357
Si Si4 0.641618 0.708493 0.402144
Si Si5 0.738553 0.284402 0.820358
Si Si6 0.751925 0.399892 0.327563
Si Si7 0.586314 0.453926 0.441976
Si Si8 0.332504 0.882137 0.909369
O O1 0.907517 0.814567 0.706264
O O2 0.000000 0.847064 0.750000
O O3 0.939283 0.965821 0.660604
O O4 0.946891 0.903721 0.956212
O O5 0.773819 0.419229 0.508469
O O6 0.782689 0.544956 0.721823
O O7 0.846560 0.415278 0.746893
O O8 0.836379 0.535910 0.522124
O O9 0.801048 0.065781 0.715465
O O10 0.887829 0.094180 0.685976
O O11 0.851524 0.145892 0.945277
O O12 0.874107 0.992104 0.916070
O O13 0.683785 0.692383 0.302922
O O14 0.646114 0.802434 0.484176
O O15 0.746397 0.202281 0.712294
O O16 0.777456 0.359203 0.835405
O O17 0.750000 0.250000 0.000000
#
# Coordination Sequence:
#
# PCOD9255295 Si02
#       8
#     8   8   8   8   8   8   8   8
#     4  10  20  36  57  77 100 137 171 210 260 301
#     4  10  21  29  48  69  93 135 181 209 242 296
#     4  10  17  30  47  73 104 143 171 204 250 286
#     4  10  19  34  51  68 103 136 168 214 258 299
#     4  10  17  32  49  66 104 142 166 210 258 286
#     4  11  18  31  47  71 103 142 177 208 245 295
#     4   9  20  32  49  79 107 133 172 213 241 298
#     4  10  19  36  47  69  99 133 169 210 251 299
#
# _framework density 16.997413999999999
#
# number of rings (size 3 to 8) (size 9 to 14) (size 15 to 20)
#    0.000    2.000    5.000    1.125    0.000    6.500 
#    2.250    0.000    0.000    0.000    0.000    0.875 
#    0.000    0.000    0.000    0.000    0.000    0.000 
#
# Total GULP energy -178162.018282 kJ/mol
# GULP energy per Si atom -5567.563071 kJ/mol
# Density = 1.695873 g / cm^3
# Si number density = 16.997414 Si / 1000 Ang^3
#
#
#
# Elastic Constant Matrix: (Units=GPa)
#
#
# Indices 1 2 3 4 5 6 
#
# 1 57.5303 0.5037 -6.7554 0.0000 -1.3245 0.0000
# 2 0.5037 40.7207 1.7425 0.0000 -0.2088 0.0000
# 3 -6.7554 1.7425 57.5729 0.0000 -5.9707 0.0000
# 4 0.0000 0.0000 0.0000 18.3607 0.0000 2.1750
# 5 -1.3245 -0.2088 -5.9707 0.0000 16.3098 0.0000
# 6 0.0000 0.0000 0.0000 2.1750 0.0000 12.5245
#
#
#
# Elastic Compliance Matrix: (Units=1/GPa)
#
#
# Indices 1 2 3 4 5 6 
#
# 1 0.017710 -0.000307 0.002324 0.000000 0.002285 0.000000
# 2 -0.000307 0.024595 -0.000780 0.000000 0.000004 0.000000
# 3 0.002324 -0.000780 0.018382 0.000000 0.006908 0.000000
# 4 0.000000 0.000000 0.000000 0.055608 0.000000 -0.009657
# 5 0.002285 0.000004 0.006908 0.000000 0.064027 0.000000
# 6 0.000000 0.000000 0.000000 -0.009657 0.000000 0.081521
#
#
# Mechanical properties :
#
#
# Convention : Reuss Voigt Hill
#
# Bulk Modulus (GPa) = 15.83220 16.31171 16.07195
# Shear Modulus (GPa) = 17.83026 20.12787 18.97907
#
# Velocity S-wave (km/s) = 3.24234 3.44491 3.34516
# Velocity P-wave (km/s) = 4.83236 5.04387 4.93925
#
# Compressibility (1/GPa) = 0.06316240
#
# Stress axis : x y z
#
# Youngs Moduli (GPa) = 56.46411 40.65912 54.40094
#
# Poissons Ratio (x) = 0.01247 -0.12645
# Poissons Ratio (y) = 0.01732 0.04243
# Poissons Ratio (z) = -0.13124 0.03171
#
# Static dielectric constant tensor:
#      x y z
#    x 1.586210 0.000000 -0.025720 
#    y 0.000000 1.627950 0.000000 
#    z -0.025720 0.000000 1.601080 
# 
# From -- ./inp_files/62489.got.cif
#   From: 2010.05.17/outbox.cif.g08.bks.cpg/sg15_32_cif.got.tgz:62489.got - 2010.06.03 18:47:42.
