data_PCOD9255744
_publ_section_title
;
Structure prediction by ZEFSAII (Michael W. Deem and Ramdas Pophale) SiO2 
 PCOD9255744
Probable space group: C 2/C
;
_chemical_formula_sum "Si O2"
_cell_formula_units_Z 48
_cell_length_a 11.425771
_cell_length_b 17.153358
_cell_length_c 21.763888
_cell_angle_alpha 90.000000
_cell_angle_beta 143.578053
_cell_angle_gamma 90.000000
_cell_volume 2532.550198
_symmetry_space_group_name_H-M "C 2/C"
_symmetry_group_IT_number 15
_symmetry_cell_setting 'monoclinic'
loop_
_space_group_symop_operation_xyz
x,y,z
-x,y,1/2-z
-x,-y,-z
x,-y,1/2+z
1/2+x,1/2+y,z
1/2-x,1/2+y,1/2-z
1/2-x,1/2-y,-z
1/2+x,1/2-y,1/2+z
loop_
_atom_site_type_symbol
_atom_site_label
_atom_site_fract_x
_atom_site_fract_y
_atom_site_fract_z
Si Si1 0.681386 0.779090 0.791578
Si Si2 0.311238 0.152153 0.402047
Si Si3 0.972554 0.061393 0.841718
Si Si4 0.439133 0.616598 0.323504
Si Si5 0.473009 0.279685 0.080865
Si Si6 0.206966 0.390426 0.122748
O O1 0.500000 0.819262 0.750000
O O2 0.856225 0.834452 0.845209
O O3 0.592754 0.746425 0.691326
O O4 0.744632 0.702100 0.854708
O O5 0.219238 0.116741 0.300200
O O6 0.413888 0.233686 0.425416
O O7 0.484077 0.101504 0.506128
O O8 0.132172 0.155308 0.374479
O O9 0.008901 0.126468 0.909412
O O10 0.148001 0.073708 0.866508
O O11 0.773926 0.078258 0.717692
O O12 0.974862 0.971429 0.859708
O O13 0.250000 0.250000 0.000000
#
# Coordination Sequence:
#
# PCOD9255744 Si02
#       6
#     8   8   8   8   8   8
#     4  10  18  35  56  75 101 144 185 214 259 322
#     4  10  19  34  53  82 107 139 176 220 270 310
#     4  10  19  33  52  84 107 133 180 225 261 310
#     4  10  23  33  50  82 115 134 165 231 280 307
#     4  10  17  32  56  81  98 141 184 218 249 320
#     4  10  17  32  60  76 100 140 189 217 247 319
#
# _framework density 18.953226999999998
#
# number of rings (size 3 to 8) (size 9 to 14) (size 15 to 20)
#    0.000    2.000    5.000    2.000    0.000    3.333 
#    0.000    0.000   11.000    4.000    0.000    0.000 
#    0.000    0.000    0.000    0.000    0.000    0.000 
#
# Total GULP energy -133728.538203 kJ/mol
# GULP energy per Si atom -5572.022425 kJ/mol
# Density = 1.891009 g / cm^3
# Si number density = 18.953227 Si / 1000 Ang^3
#
#
#
# Elastic Constant Matrix: (Units=GPa)
#
#
# Indices 1 2 3 4 5 6 
#
# 1 52.6080 38.0866 -2.6344 0.0000 24.4157 0.0000
# 2 38.0866 118.5384 -6.9180 0.0000 25.5468 0.0000
# 3 -2.6344 -6.9180 75.1341 0.0001 16.9521 0.0001
# 4 0.0000 0.0000 0.0001 8.6717 0.0000 3.2282
# 5 24.4157 25.5468 16.9521 0.0000 22.6081 0.0000
# 6 0.0000 0.0000 0.0001 3.2282 0.0000 30.3863
#
#
#
# Elastic Compliance Matrix: (Units=1/GPa)
#
#
# Indices 1 2 3 4 5 6 
#
# 1 0.052149 -0.001158 0.017011 0.000000 -0.067765 0.000000
# 2 -0.001158 0.012719 0.004924 0.000000 -0.016814 0.000000
# 3 0.017011 0.004924 0.023783 0.000000 -0.041769 0.000000
# 4 0.000000 0.000000 0.000000 0.120066 0.000000 -0.012756
# 5 -0.067765 -0.016814 -0.041769 0.000000 0.167734 0.000000
# 6 0.000000 0.000000 0.000000 -0.012756 0.000000 0.034265
#
#
# Mechanical properties :
#
#
# Convention : Reuss Voigt Hill
#
# Bulk Modulus (GPa) = 7.68014 33.70545 20.69279
# Shear Modulus (GPa) = 12.11933 26.84966 19.48449
#
# Velocity S-wave (km/s) = 2.53145 3.76789 3.20977
# Velocity P-wave (km/s) = 3.55039 6.06230 4.96773
#
# Compressibility (1/GPa) = 0.13020594
#
# Stress axis : x y z
#
# Youngs Moduli (GPa) = 19.17573 78.62078 42.04598
#
# Poissons Ratio (x) = 0.09108 -0.71526
# Poissons Ratio (y) = 0.02221 -0.20704
# Poissons Ratio (z) = -0.32620 -0.38714
#
# Static dielectric constant tensor:
#      x y z
#    x 1.657160 0.000000 -0.015000 
#    y 0.000000 1.688360 0.000000 
#    z -0.015000 0.000000 1.707570 
# 
# From -- ./inp_files/225631.got.cif
#   From: 2010.05.17/outbox.cif.g08.bks.cpg/sg15_113_cif.got.tgz:225631.got - 2010.06.03 18:47:42.
