data_PCOD9255459
_publ_section_title
;
Structure prediction by ZEFSAII (Michael W. Deem and Ramdas Pophale) SiO2 
 PCOD9255459
Probable space group: C 2/C
;
_chemical_formula_sum "Si O2"
_cell_formula_units_Z 64
_cell_length_a 9.460609
_cell_length_b 20.406003
_cell_length_c 16.370345
_cell_angle_alpha 90.000000
_cell_angle_beta 106.920620
_cell_angle_gamma 90.000000
_cell_volume 3023.532820
_symmetry_space_group_name_H-M "C 2/C"
_symmetry_group_IT_number 15
_symmetry_cell_setting 'monoclinic'
loop_
_space_group_symop_operation_xyz
x,y,z
-x,y,1/2-z
-x,-y,-z
x,-y,1/2+z
1/2+x,1/2+y,z
1/2-x,1/2+y,1/2-z
1/2-x,1/2-y,-z
1/2+x,1/2-y,1/2+z
loop_
_atom_site_type_symbol
_atom_site_label
_atom_site_fract_x
_atom_site_fract_y
_atom_site_fract_z
Si Si1 0.130508 0.493100 0.219603
Si Si2 0.921939 0.629058 0.892433
Si Si3 0.459856 0.400087 0.504340
Si Si4 0.411399 0.217360 0.112434
Si Si5 0.076229 0.232247 0.072370
Si Si6 0.567270 0.360805 0.344122
Si Si7 0.514784 0.082965 0.083718
Si Si8 0.275971 0.505288 0.408636
O O1 0.068575 0.423987 0.177232
O O2 0.252713 0.486813 0.309531
O O3 0.000000 0.526456 0.250000
O O4 0.146664 0.538359 0.142162
O O5 0.967876 0.704234 0.882237
O O6 0.744603 0.633322 0.877865
O O7 0.003683 0.601450 0.986560
O O8 0.466912 0.329441 0.549008
O O9 0.507763 0.389057 0.418326
O O10 0.311957 0.441834 0.469698
O O11 0.584589 0.446359 0.563747
O O12 0.243613 0.207078 0.116188
O O13 0.471770 0.283574 0.161326
O O14 0.503773 0.151203 0.131428
O O15 0.408613 0.236255 0.015700
O O16 0.500000 0.389933 0.250000
O O17 0.364338 0.042527 0.076937
#
# Coordination Sequence:
#
# PCOD9255459 Si02
#       8
#     8   8   8   8   8   8   8   8
#     4  10  22  33  48  72  97 132 166 208 247 288
#     4  10  18  33  50  73  96 129 169 203 249 291
#     4  10  17  31  49  72 101 135 163 192 246 302
#     4   8  14  26  43  71  99 118 154 195 248 290
#     4   8  14  27  49  68  93 124 155 199 235 291
#     4  10  18  27  47  75 106 130 158 204 243 292
#     4  10  17  33  51  71  99 130 165 204 247 293
#     4  10  19  30  48  72 104 131 163 195 241 302
#
# _framework density 21.167290999999999
#
# number of rings (size 3 to 8) (size 9 to 14) (size 15 to 20)
#    0.000    2.500    2.500    2.625    0.000    1.500 
#    0.000    0.000    0.000    3.000    3.250    0.000 
#    0.000    0.000    0.000    0.000    0.000    0.000 
#
# Total GULP energy -178282.894830 kJ/mol
# GULP energy per Si atom -5571.340463 kJ/mol
# Density = 2.111911 g / cm^3
# Si number density = 21.167291 Si / 1000 Ang^3
#
#
#
# Elastic Constant Matrix: (Units=GPa)
#
#
# Indices 1 2 3 4 5 6 
#
# 1 19.3057 12.8007 5.7913 0.0000 3.1602 0.0000
# 2 12.8007 125.1285 50.3232 0.0000 7.1656 0.0000
# 3 5.7913 50.3232 113.0980 0.0000 11.3755 0.0000
# 4 0.0000 0.0000 0.0000 18.7009 0.0000 -2.0268
# 5 3.1602 7.1656 11.3755 0.0000 17.3386 0.0000
# 6 0.0000 0.0000 0.0000 -2.0268 0.0000 10.4071
#
#
#
# Elastic Compliance Matrix: (Units=1/GPa)
#
#
# Indices 1 2 3 4 5 6 
#
# 1 0.056675 -0.005470 0.000368 0.000000 -0.008311 0.000000
# 2 -0.005470 0.010287 -0.004250 0.000000 -0.000466 0.000000
# 3 0.000368 -0.004250 0.011289 0.000000 -0.005717 0.000000
# 4 0.000000 0.000000 0.000000 0.054627 0.000000 0.010639
# 5 -0.008311 -0.000466 -0.005717 0.000000 0.063133 0.000000
# 6 0.000000 0.000000 0.000000 0.010639 0.000000 0.098160
#
#
# Mechanical properties :
#
#
# Convention : Reuss Voigt Hill
#
# Bulk Modulus (GPa) = 16.79357 43.92917 30.36137
# Shear Modulus (GPa) = 15.02740 21.86378 18.44559
#
# Velocity S-wave (km/s) = 2.66735 3.21737 2.95518
# Velocity P-wave (km/s) = 4.17580 5.88220 5.10086
#
# Compressibility (1/GPa) = 0.05954659
#
# Stress axis : x y z
#
# Youngs Moduli (GPa) = 17.64440 97.20578 88.57904
#
# Poissons Ratio (x) = 0.53170 -0.03256
# Poissons Ratio (y) = 0.09651 0.37650
# Poissons Ratio (z) = -0.00649 0.41317
#
# Static dielectric constant tensor:
#      x y z
#    x 1.785800 0.000000 0.002900 
#    y 0.000000 1.836820 0.000000 
#    z 0.002900 0.000000 1.838230 
# 
# From -- ./inp_files/199995.got.cif
#   From: 2010.05.17/outbox.cif.g08.bks.cpg/sg15_100_cif.got.tgz:199995.got - 2010.06.03 18:47:42.
