data_PCOD9255987
_publ_section_title
;
Structure prediction by ZEFSAII (Michael W. Deem and Ramdas Pophale) SiO2 
 PCOD9255987
Probable space group: C 2/C
;
_chemical_formula_sum "Si O2"
_cell_formula_units_Z 56
_cell_length_a 20.136916
_cell_length_b 9.094203
_cell_length_c 25.148146
_cell_angle_alpha 90.000000
_cell_angle_beta 42.594669
_cell_angle_gamma 90.000000
_cell_volume 3116.942022
_symmetry_space_group_name_H-M "C 2/C"
_symmetry_group_IT_number 15
_symmetry_cell_setting 'monoclinic'
loop_
_space_group_symop_operation_xyz
x,y,z
-x,y,1/2-z
-x,-y,-z
x,-y,1/2+z
1/2+x,1/2+y,z
1/2-x,1/2+y,1/2-z
1/2-x,1/2-y,-z
1/2+x,1/2-y,1/2+z
loop_
_atom_site_type_symbol
_atom_site_label
_atom_site_fract_x
_atom_site_fract_y
_atom_site_fract_z
Si Si1 0.495107 0.974276 0.188803
Si Si2 0.290081 0.570678 0.394260
Si Si3 0.295154 0.397327 0.060178
Si Si4 0.676974 0.571708 0.244939
Si Si5 0.185123 0.396337 0.542794
Si Si6 0.546038 0.643350 0.120992
Si Si7 0.275213 0.082599 0.786071
O O1 0.500000 0.971837 0.250000
O O2 0.532818 0.814990 0.145003
O O3 0.382090 0.984903 0.237326
O O4 0.568854 0.098975 0.122821
O O5 0.260460 0.741550 0.409746
O O6 0.301447 0.517312 0.327574
O O7 0.207949 0.484849 0.475451
O O8 0.389003 0.567413 0.371064
O O9 0.231490 0.511987 0.064082
O O10 0.295699 0.442248 0.121340
O O11 0.395104 0.375036 0.968680
O O12 0.560214 0.572603 0.320651
O O13 0.709572 0.742428 0.228660
O O14 0.731615 0.483034 0.258264
O O15 0.250000 0.250000 0.500000
#
# Coordination Sequence:
#
# PCOD9255987 Si02
#       7
#     8   8   8   8   8   8   8
#     4  11  18  37  63  85 112 154 199 228 291 357
#     4  10  18  37  61  82 114 145 197 237 278 345
#     4  10  18  36  62  86 113 147 191 244 283 344
#     4  10  22  37  56  82 116 157 195 237 283 345
#     4  11  21  34  56  94 118 141 182 248 301 335
#     4  10  17  33  65  89 104 146 201 242 277 341
#     4  10  22  38  60  81 116 158 195 237 287 342
#
# _framework density 17.966328000000001
#
# number of rings (size 3 to 8) (size 9 to 14) (size 15 to 20)
#    0.000    1.714    4.286    3.000    0.000    1.714 
#    5.143    0.714    0.000    0.000    0.000    0.000 
#    0.000    0.000    0.000    0.000    0.000    0.000 
#
# Total GULP energy -156198.635589 kJ/mol
# GULP energy per Si atom -5578.522700 kJ/mol
# Density = 1.792544 g / cm^3
# Si number density = 17.966328 Si / 1000 Ang^3
#
#
#
# Elastic Constant Matrix: (Units=GPa)
#
#
# Indices 1 2 3 4 5 6 
#
# 1 103.6424 17.5819 82.0460 0.0000 18.6268 -0.0001
# 2 17.5819 34.0737 25.6736 0.0000 6.9974 -0.0002
# 3 82.0460 25.6736 146.6919 0.0000 18.8732 0.0000
# 4 0.0000 0.0000 0.0000 19.9761 0.0000 1.8822
# 5 18.6268 6.9974 18.8732 0.0000 21.8915 0.0000
# 6 -0.0001 -0.0002 0.0000 1.8822 0.0000 27.1172
#
#
#
# Elastic Compliance Matrix: (Units=1/GPa)
#
#
# Indices 1 2 3 4 5 6 
#
# 1 0.018414 -0.001078 -0.009154 0.000000 -0.007431 0.000000
# 2 -0.001078 0.034690 -0.004679 0.000000 -0.006138 0.000000
# 3 -0.009154 -0.004679 0.013004 0.000000 -0.001926 0.000000
# 4 0.000000 0.000000 0.000000 0.050389 0.000000 -0.003497
# 5 -0.007431 -0.006138 -0.001926 0.000000 0.055625 0.000000
# 6 0.000000 0.000000 0.000000 -0.003497 0.000000 0.037120
#
#
# Mechanical properties :
#
#
# Convention : Reuss Voigt Hill
#
# Bulk Modulus (GPa) = 27.55908 59.44566 43.50237
# Shear Modulus (GPa) = 19.90773 24.40407 22.15590
#
# Velocity S-wave (km/s) = 3.33236 3.68954 3.51549
# Velocity P-wave (km/s) = 5.49352 7.16306 6.38311
#
# Compressibility (1/GPa) = 0.03628568
#
# Stress axis : x y z
#
# Youngs Moduli (GPa) = 54.30767 28.82660 76.90116
#
# Poissons Ratio (x) = 0.03107 0.70397
# Poissons Ratio (y) = 0.05854 0.35981
# Poissons Ratio (z) = 0.49714 0.13488
#
# Static dielectric constant tensor:
#      x y z
#    x 1.585320 0.000000 -0.006040 
#    y 0.000000 1.627250 0.000000 
#    z -0.006040 0.000000 1.645970 
# 
# From -- ./inp_files/213344.got.cif
#   From: 2010.05.17/outbox.cif.g08.bks.cpg/sg15_107_cif.got.tgz:213344.got - 2010.06.03 18:47:42.
