data_PCOD9255455
_publ_section_title
;
Structure prediction by ZEFSAII (Michael W. Deem and Ramdas Pophale) SiO2 
 PCOD9255455
Probable space group: C 2/C
;
_chemical_formula_sum "Si O2"
_cell_formula_units_Z 52
_cell_length_a 20.912891
_cell_length_b 14.434676
_cell_length_c 8.685288
_cell_angle_alpha 90.000000
_cell_angle_beta 119.000471
_cell_angle_gamma 90.000000
_cell_volume 2293.098012
_symmetry_space_group_name_H-M "C 2/C"
_symmetry_group_IT_number 15
_symmetry_cell_setting 'monoclinic'
loop_
_space_group_symop_operation_xyz
x,y,z
-x,y,1/2-z
-x,-y,-z
x,-y,1/2+z
1/2+x,1/2+y,z
1/2-x,1/2+y,1/2-z
1/2-x,1/2-y,-z
1/2+x,1/2-y,1/2+z
loop_
_atom_site_type_symbol
_atom_site_label
_atom_site_fract_x
_atom_site_fract_y
_atom_site_fract_z
Si Si1 0.896962 0.341485 0.876244
Si Si2 0.500000 0.230598 0.250000
Si Si3 0.720211 0.045549 0.578634
Si Si4 0.500000 0.835195 0.250000
Si Si5 0.000000 0.968998 0.750000
Si Si6 0.267980 0.376234 0.836793
Si Si7 0.572492 0.622728 0.046066
Si Si8 0.882264 0.450449 0.296038
O O1 0.933960 0.323374 0.754171
O O2 0.809691 0.325143 0.779498
O O3 0.906242 0.452990 0.903166
O O4 0.939862 0.291659 0.065037
O O5 0.526636 0.295528 0.418128
O O6 0.769788 0.105451 0.522756
O O7 0.666511 0.099702 0.631533
O O8 0.761368 0.973899 0.736847
O O9 0.671039 0.984952 0.402786
O O10 0.448667 0.893794 0.305831
O O11 0.954467 0.908302 0.818145
O O12 0.945103 0.034835 0.587059
O O13 0.344680 0.341541 0.866021
#
# Coordination Sequence:
#
# PCOD9255455 Si02
#       8
#     8   4   8   4   4   8   8   8
#     4  10  23  33  54  78 123 156 204 223 288 329
#     4  11  25  42  54  83 113 166 194 240 269 361
#     4   8  17  28  49  81 123 129 189 232 299 317
#     4  12  19  31  53  75 116 162 202 240 272 329
#     4   9  20  41  69 102 103 142 176 252 297 362
#     4  10  18  35  55  90 114 156 178 251 279 353
#     4  10  21  39  70  87 120 136 191 233 309 340
#     4  10  17  31  48  83 110 160 190 244 266 330
#
# _framework density 22.676746000000001
#
# number of rings (size 3 to 8) (size 9 to 14) (size 15 to 20)
#    0.000    2.462    3.077    1.846    4.308    1.231 
#    0.000    0.000    0.000    1.846    0.000    0.000 
#    0.000    0.000    0.000    0.000    0.000    0.000 
#
# Total GULP energy -144996.844403 kJ/mol
# GULP energy per Si atom -5576.801708 kJ/mol
# Density = 2.262513 g / cm^3
# Si number density = 22.676746 Si / 1000 Ang^3
#
#
#
# Elastic Constant Matrix: (Units=GPa)
#
#
# Indices 1 2 3 4 5 6 
#
# 1 156.4829 24.7924 48.4161 0.0000 -13.8904 0.0000
# 2 24.7924 28.2470 13.7099 0.0000 -4.9227 0.0000
# 3 48.4161 13.7099 86.0635 0.0000 -26.7166 0.0000
# 4 0.0000 0.0000 0.0000 0.6822 0.0000 -11.7005
# 5 -13.8904 -4.9227 -26.7166 0.0000 38.9926 0.0000
# 6 0.0000 0.0000 0.0000 -11.7005 0.0000 -9.7633
#
#
#
# Elastic Compliance Matrix: (Units=1/GPa)
#
#
# Indices 1 2 3 4 5 6 
#
# 1 0.008477 -0.005566 -0.004017 0.000000 -0.000435 0.000000
# 2 -0.005566 0.042045 -0.003219 0.000000 0.001120 0.000000
# 3 -0.004017 -0.003219 0.017556 0.000000 0.010191 0.000000
# 4 0.000000 0.000000 0.000000 0.068008 0.000000 -0.081502
# 5 -0.000435 0.001120 0.010191 0.000000 0.032615 0.000000
# 6 0.000000 0.000000 0.000000 -0.081502 0.000000 -0.004752
#
#
# Mechanical properties :
#
#
# Convention : Reuss Voigt Hill
#
# Bulk Modulus (GPa) = 23.54445 49.40336 36.47391
# Shear Modulus (GPa) = 24.54474 18.24063 21.39269
#
# Velocity S-wave (km/s) = 3.29352 2.83923 3.07477
# Velocity P-wave (km/s) = 4.98680 5.70802 5.35956
#
# Compressibility (1/GPa) = 0.04247285
#
# Stress axis : x y z
#
# Youngs Moduli (GPa) = 117.97201 23.78418 56.96185
#
# Poissons Ratio (x) = 0.13238 0.22882
# Poissons Ratio (y) = 0.65664 0.18335
# Poissons Ratio (z) = 0.47391 0.07656
#
# Static dielectric constant tensor:
#      x y z
#    x 1.925280 0.000000 0.015990 
#    y 0.000000 1.882960 0.000000 
#    z 0.015990 0.000000 1.885300 
# 
# From -- ./inp_files/56227.got.cif
#   From: 2010.05.17/outbox.cif.g08.bks.cpg/sg15_29_cif.got.tgz:56227.got - 2010.06.03 18:47:42.
