data_PCOD9255272
_publ_section_title
;
Structure prediction by ZEFSAII (Michael W. Deem and Ramdas Pophale) SiO2 
 PCOD9255272
Probable space group: C 2/C
;
_chemical_formula_sum "Si O2"
_cell_formula_units_Z 48
_cell_length_a 9.978322
_cell_length_b 11.915864
_cell_length_c 20.236990
_cell_angle_alpha 90.000000
_cell_angle_beta 68.266813
_cell_angle_gamma 90.000000
_cell_volume 2235.148924
_symmetry_space_group_name_H-M "C 2/C"
_symmetry_group_IT_number 15
_symmetry_cell_setting 'monoclinic'
loop_
_space_group_symop_operation_xyz
x,y,z
-x,y,1/2-z
-x,-y,-z
x,-y,1/2+z
1/2+x,1/2+y,z
1/2-x,1/2+y,1/2-z
1/2-x,1/2-y,-z
1/2+x,1/2-y,1/2+z
loop_
_atom_site_type_symbol
_atom_site_label
_atom_site_fract_x
_atom_site_fract_y
_atom_site_fract_z
Si Si1 0.456752 0.960064 0.081079
Si Si2 0.514062 0.568028 0.676158
Si Si3 0.351064 0.372035 0.658018
Si Si4 0.245236 0.126779 0.178422
Si Si5 0.278917 0.725226 0.919192
Si Si6 0.853356 0.267364 0.418163
O O1 0.332944 0.866768 0.090054
O O2 0.587137 0.893218 0.090522
O O3 0.392163 0.059600 0.137191
O O4 0.500000 0.000000 0.000000
O O5 0.500000 0.625918 0.750000
O O6 0.383360 0.502381 0.666016
O O7 0.624596 0.466087 0.676915
O O8 0.572265 0.660684 0.616413
O O9 0.292812 0.334788 0.740772
O O10 0.241091 0.335158 0.621662
O O11 0.502874 0.312539 0.608994
O O12 0.230844 0.230013 0.131450
O O13 0.250000 0.750000 0.000000
O O14 0.750000 0.250000 0.500000
#
# Coordination Sequence:
#
# PCOD9255272 Si02
#       6
#     8   8   8   8   8   8
#     4  10  19  34  58  83 115 152 192 237 303 351
#     4   8  16  34  57  77 107 150 187 234 299 349
#     4   9  19  35  58  81 111 157 200 237 300 358
#     4   9  17  34  58  79 117 155 191 249 292 353
#     4  10  21  36  56  80 114 149 191 241 289 359
#     4  10  17  29  56  91 114 150 200 241 294 364
#
# _framework density 21.475079999999998
#
# number of rings (size 3 to 8) (size 9 to 14) (size 15 to 20)
#    0.000    2.667    1.667    1.500    0.000    0.667 
#    3.000    0.000   22.000    0.000    0.000    0.000 
#    0.000    0.000    0.000    0.000    0.000    0.000 
#
# Total GULP energy -133778.931850 kJ/mol
# GULP energy per Si atom -5574.122160 kJ/mol
# Density = 2.142620 g / cm^3
# Si number density = 21.475080 Si / 1000 Ang^3
#
#
#
# Elastic Constant Matrix: (Units=GPa)
#
#
# Indices 1 2 3 4 5 6 
#
# 1 47.0007 37.3919 35.4102 0.0000 2.0394 0.0000
# 2 37.3919 67.4004 53.2162 0.0000 8.2236 0.0000
# 3 35.4102 53.2162 185.0814 0.0000 2.0519 0.0000
# 4 0.0000 0.0000 0.0000 41.1511 0.0000 -7.0340
# 5 2.0394 8.2236 2.0519 0.0000 30.0825 0.0000
# 6 0.0000 0.0000 0.0000 -7.0340 0.0000 38.6800
#
#
#
# Elastic Compliance Matrix: (Units=1/GPa)
#
#
# Indices 1 2 3 4 5 6 
#
# 1 0.038722 -0.020683 -0.001496 0.000000 0.003131 0.000000
# 2 -0.020683 0.030983 -0.004877 0.000000 -0.006735 0.000000
# 3 -0.001496 -0.004877 0.007081 0.000000 0.000952 0.000000
# 4 0.000000 0.000000 0.000000 0.025080 0.000000 0.004561
# 5 0.003131 -0.006735 0.000952 0.000000 0.034806 0.000000
# 6 0.000000 0.000000 0.000000 0.004561 0.000000 0.026683
#
#
# Mechanical properties :
#
#
# Convention : Reuss Voigt Hill
#
# Bulk Modulus (GPa) = 44.10190 61.27989 52.69090
# Shear Modulus (GPa) = 22.21985 33.54701 27.88343
#
# Velocity S-wave (km/s) = 3.22013 3.95668 3.60725
# Velocity P-wave (km/s) = 5.86571 7.03356 6.47602
#
# Compressibility (1/GPa) = 0.02267476
#
# Stress axis : x y z
#
# Youngs Moduli (GPa) = 25.82517 32.27570 141.22356
#
# Poissons Ratio (x) = 0.66754 0.21131
# Poissons Ratio (y) = 0.53413 0.68872
# Poissons Ratio (z) = 0.03864 0.15740
#
# Static dielectric constant tensor:
#      x y z
#    x 1.889870 0.000000 -0.044210 
#    y 0.000000 1.805850 0.000000 
#    z -0.044210 0.000000 1.747520 
# 
# From -- ./inp_files/196531.got.cif
#   From: 2010.05.17/outbox.cif.g08.bks.cpg/sg15_99_cif.got.tgz:196531.got - 2010.06.03 18:47:42.
