data_PCOD9255720
_publ_section_title
;
Structure prediction by ZEFSAII (Michael W. Deem and Ramdas Pophale) SiO2 
 PCOD9255720
Probable space group: C 2/C
;
_chemical_formula_sum "Si O2"
_cell_formula_units_Z 64
_cell_length_a 21.613402
_cell_length_b 19.764157
_cell_length_c 18.748115
_cell_angle_alpha 90.000000
_cell_angle_beta 152.962291
_cell_angle_gamma 90.000000
_cell_volume 3640.544262
_symmetry_space_group_name_H-M "C 2/C"
_symmetry_group_IT_number 15
_symmetry_cell_setting 'monoclinic'
loop_
_space_group_symop_operation_xyz
x,y,z
-x,y,1/2-z
-x,-y,-z
x,-y,1/2+z
1/2+x,1/2+y,z
1/2-x,1/2+y,1/2-z
1/2-x,1/2-y,-z
1/2+x,1/2-y,1/2+z
loop_
_atom_site_type_symbol
_atom_site_label
_atom_site_fract_x
_atom_site_fract_y
_atom_site_fract_z
Si Si1 0.965339 0.341079 0.493281
Si Si2 0.468364 0.037629 0.796604
Si Si3 0.963899 0.201956 0.879384
Si Si4 0.765904 0.420387 0.203576
Si Si5 0.773459 0.229403 0.442403
Si Si6 0.982125 0.921261 0.962239
Si Si7 0.056942 0.619534 0.233023
Si Si8 0.824058 0.445528 0.862211
O O1 0.829386 0.358041 0.311832
O O2 0.006029 0.262844 0.534185
O O3 0.953991 0.363808 0.563802
O O4 0.081682 0.390381 0.580625
O O5 0.500000 0.064156 0.750000
O O6 0.346324 0.073953 0.712605
O O7 0.423061 0.959936 0.741284
O O8 0.596636 0.037943 0.982963
O O9 0.814801 0.217504 0.694950
O O10 0.075123 0.216226 0.930901
O O11 0.987759 0.130029 0.941272
O O12 0.805554 0.487850 0.292148
O O13 0.605000 0.410986 0.033021
O O14 0.750000 0.250000 0.500000
O O15 0.693098 0.158582 0.352059
O O16 0.825683 0.915193 0.778773
O O17 0.000000 0.000000 0.000000
O O18 0.000000 0.644545 0.250000
#
# Coordination Sequence:
#
# PCOD9255720 Si02
#       8
#     8   8   8   8   8   8   8   8
#     4  10  17  32  55  77 103 137 187 231 262 323
#     4  10  19  33  56  81 100 137 192 227 267 337
#     4  11  22  35  55  80 109 150 199 227 279 335
#     4  10  18  33  54  80 109 137 177 228 290 326
#     4  11  22  36  51  76 120 156 193 227 276 336
#     4  10  22  34  52  75 113 144 179 234 291 327
#     4  10  18  29  50  74 104 144 186 224 262 313
#     4  10  18  35  54  78 108 141 177 232 288 328
#
# _framework density 17.579788000000001
#
# number of rings (size 3 to 8) (size 9 to 14) (size 15 to 20)
#    0.000    1.750    2.500    4.875    1.750    0.000 
#    2.250    0.625    0.000    0.000    0.000   14.000 
#    0.000    0.000    0.000    0.000    0.000    0.000 
#
# Total GULP energy -178395.310725 kJ/mol
# GULP energy per Si atom -5574.853460 kJ/mol
# Density = 1.753978 g / cm^3
# Si number density = 17.579788 Si / 1000 Ang^3
#
#
#
# Elastic Constant Matrix: (Units=GPa)
#
#
# Indices 1 2 3 4 5 6 
#
# 1 113.4647 16.0464 43.3666 0.0000 0.6182 0.0000
# 2 16.0464 72.0359 11.7985 -0.0001 -9.8387 -0.0001
# 3 43.3666 11.7985 68.7965 -0.0002 16.4963 -0.0001
# 4 0.0000 -0.0001 -0.0002 19.5838 0.0000 -3.6797
# 5 0.6182 -9.8387 16.4963 0.0000 31.2286 0.0000
# 6 0.0000 -0.0001 -0.0001 -3.6797 0.0000 16.6732
#
#
#
# Elastic Compliance Matrix: (Units=1/GPa)
#
#
# Indices 1 2 3 4 5 6 
#
# 1 0.012141 -0.000770 -0.008480 0.000000 0.003996 0.000000
# 2 -0.000770 0.015643 -0.003873 0.000000 0.006990 0.000000
# 3 -0.008480 -0.003873 0.023814 0.000000 -0.013632 0.000000
# 4 0.000000 0.000000 0.000000 0.053272 0.000000 0.011757
# 5 0.003996 0.006990 -0.013632 0.000000 0.041346 0.000000
# 6 0.000000 0.000000 0.000000 0.011757 0.000000 0.062571
#
#
# Mechanical properties :
#
#
# Convention : Reuss Voigt Hill
#
# Bulk Modulus (GPa) = 39.44474 44.08002 41.76238
# Shear Modulus (GPa) = 20.53531 25.70283 23.11907
#
# Velocity S-wave (km/s) = 3.42149 3.82785 3.63036
# Velocity P-wave (km/s) = 6.17212 6.68321 6.43274
#
# Compressibility (1/GPa) = 0.02535192
#
# Stress axis : x y z
#
# Youngs Moduli (GPa) = 82.36292 63.92840 41.99230
#
# Poissons Ratio (x) = 0.04922 0.35608
# Poissons Ratio (y) = 0.06341 0.16265
# Poissons Ratio (z) = 0.69841 0.24762
#
# Static dielectric constant tensor:
#      x y z
#    x 1.629940 0.000000 0.013360 
#    y 0.000000 1.624110 0.000000 
#    z 0.013360 0.000000 1.638320 
# 
# From -- ./inp_files/216507.got.cif
#   From: 2010.05.17/outbox.cif.g08.bks.cpg/sg15_109_cif.got.tgz:216507.got - 2010.06.03 18:47:42.
