data_PCOD9255586
_publ_section_title
;
Structure prediction by ZEFSAII (Michael W. Deem and Ramdas Pophale) SiO2 
 PCOD9255586
Probable space group: C 2/C
;
_chemical_formula_sum "Si O2"
_cell_formula_units_Z 44
_cell_length_a 5.192116
_cell_length_b 24.576691
_cell_length_c 18.226895
_cell_angle_alpha 90.000000
_cell_angle_beta 46.911013
_cell_angle_gamma 90.000000
_cell_volume 1698.548612
_symmetry_space_group_name_H-M "C 2/C"
_symmetry_group_IT_number 15
_symmetry_cell_setting 'monoclinic'
loop_
_space_group_symop_operation_xyz
x,y,z
-x,y,1/2-z
-x,-y,-z
x,-y,1/2+z
1/2+x,1/2+y,z
1/2-x,1/2+y,1/2-z
1/2-x,1/2-y,-z
1/2+x,1/2-y,1/2+z
loop_
_atom_site_type_symbol
_atom_site_label
_atom_site_fract_x
_atom_site_fract_y
_atom_site_fract_z
Si Si1 0.000000 0.711171 0.250000
Si Si2 0.756211 0.736700 0.083945
Si Si3 0.597561 0.134160 0.357472
Si Si4 0.420484 0.983788 0.677262
Si Si5 0.676909 0.655112 0.870667
Si Si6 0.329984 0.094942 0.628707
O O1 0.646415 0.744304 0.307501
O O2 0.092466 0.671510 0.165264
O O3 0.862360 0.675217 0.082752
O O4 0.957687 0.783461 0.091190
O O5 0.750000 0.750000 0.000000
O O6 0.444889 0.073474 0.381569
O O7 0.000000 0.129378 0.250000
O O8 0.500000 0.989702 0.750000
O O9 0.000000 0.981452 0.750000
O O10 0.506067 0.036165 0.610419
O O11 0.375425 0.612830 0.904301
O O12 0.000000 0.651840 0.750000
O O13 0.865085 0.636682 0.908846
O O14 0.000000 0.098043 0.750000
#
# Coordination Sequence:
#
# PCOD9255586 Si02
#       6
#     4   8   8   8   8   8
#     4  10  20  40  64  92 124 170 212 272 340 372
#     4  11  25  40  61  93 128 175 222 267 327 396
#     4   9  19  35  58  91 124 164 214 268 324 382
#     4  10  17  31  57  91 127 160 217 271 319 391
#     4  10  20  36  57  86 125 166 209 267 317 384
#     4   9  18  31  55  87 120 162 209 258 323 378
#
# _framework density 25.904471000000001
#
# number of rings (size 3 to 8) (size 9 to 14) (size 15 to 20)
#    0.000    2.182    0.909    4.364    6.364    0.727 
#    0.000    0.000    0.000    2.182    0.000    0.000 
#    0.000    0.000    0.000    0.000    0.000    0.000 
#
# Total GULP energy -122898.052111 kJ/mol
# GULP energy per Si atom -5586.275096 kJ/mol
# Density = 2.584551 g / cm^3
# Si number density = 25.904471 Si / 1000 Ang^3
#
#
#
# Elastic Constant Matrix: (Units=GPa)
#
#
# Indices 1 2 3 4 5 6 
#
# 1 146.7877 62.6152 28.2688 0.0000 32.3259 0.0000
# 2 62.6152 206.1936 46.6090 0.0000 22.8787 0.0000
# 3 28.2688 46.6090 80.7460 0.0000 7.1567 0.0000
# 4 0.0000 0.0000 0.0000 26.7446 0.0000 4.6185
# 5 32.3259 22.8787 7.1567 0.0000 37.3615 0.0000
# 6 0.0000 0.0000 0.0000 4.6185 0.0000 35.8916
#
#
#
# Elastic Compliance Matrix: (Units=1/GPa)
#
#
# Indices 1 2 3 4 5 6 
#
# 1 0.009347 -0.001711 -0.001689 0.000000 -0.006715 0.000000
# 2 -0.001711 0.006205 -0.002825 0.000000 -0.001778 0.000000
# 3 -0.001689 -0.002825 0.014571 0.000000 0.000400 0.000000
# 4 0.000000 0.000000 0.000000 0.038240 0.000000 -0.004921
# 5 -0.006715 -0.001778 0.000400 0.000000 0.033588 0.000000
# 6 0.000000 0.000000 0.000000 -0.004921 0.000000 0.028495
#
#
# Mechanical properties :
#
#
# Convention : Reuss Voigt Hill
#
# Bulk Modulus (GPa) = 56.58728 78.74591 67.66659
# Shear Modulus (GPa) = 33.60464 39.74850 36.67657
#
# Velocity S-wave (km/s) = 3.60565 3.92142 3.76685
# Velocity P-wave (km/s) = 6.26309 7.13919 6.71544
#
# Compressibility (1/GPa) = 0.01767182
#
# Stress axis : x y z
#
# Youngs Moduli (GPa) = 106.98855 161.14933 68.62851
#
# Poissons Ratio (x) = 0.27579 0.11593
# Poissons Ratio (y) = 0.18310 0.19389
# Poissons Ratio (z) = 0.18073 0.45528
#
# Static dielectric constant tensor:
#      x y z
#    x 1.976660 0.000000 0.086360 
#    y 0.000000 2.123190 0.000000 
#    z 0.086360 0.000000 2.009250 
# 
# From -- ./inp_files/227676.got.cif
#   From: 2010.05.17/outbox.cif.g08.bks.cpg/sg15_114_cif.got.tgz:227676.got - 2010.06.03 18:47:42.
