data_PCOD9255085
_publ_section_title
;
Structure prediction by ZEFSAII (Michael W. Deem and Ramdas Pophale) SiO2 
 PCOD9255085
Probable space group: C 2/C
;
_chemical_formula_sum "Si O2"
_cell_formula_units_Z 56
_cell_length_a 19.410557
_cell_length_b 30.755841
_cell_length_c 5.330876
_cell_angle_alpha 90.000000
_cell_angle_beta 105.739689
_cell_angle_gamma 90.000000
_cell_volume 3063.139390
_symmetry_space_group_name_H-M "C 2/C"
_symmetry_group_IT_number 15
_symmetry_cell_setting 'monoclinic'
loop_
_space_group_symop_operation_xyz
x,y,z
-x,y,1/2-z
-x,-y,-z
x,-y,1/2+z
1/2+x,1/2+y,z
1/2-x,1/2+y,1/2-z
1/2-x,1/2-y,-z
1/2+x,1/2-y,1/2+z
loop_
_atom_site_type_symbol
_atom_site_label
_atom_site_fract_x
_atom_site_fract_y
_atom_site_fract_z
Si Si1 0.680740 0.217464 0.732331
Si Si2 0.655592 0.487013 0.661456
Si Si3 0.765015 0.804148 0.815830
Si Si4 0.203852 0.448493 0.198626
Si Si5 0.545301 0.843306 0.043630
Si Si6 0.255697 0.594805 0.249551
Si Si7 0.046582 0.446099 0.045278
O O1 0.737456 0.203111 0.572566
O O2 0.672521 0.269176 0.676562
O O3 0.612670 0.187948 0.617856
O O4 0.707656 0.209320 0.042760
O O5 0.616620 0.499671 0.372397
O O6 0.731007 0.516009 0.734971
O O7 0.676303 0.436954 0.684066
O O8 0.776254 0.855103 0.785478
O O9 0.214308 0.418384 0.454365
O O10 0.124432 0.468577 0.126103
O O11 0.212397 0.420475 0.953415
O O12 0.500000 0.836272 0.250000
O O13 0.564404 0.894464 0.057031
O O14 0.500000 0.834558 0.750000
O O15 0.000000 0.453291 0.250000
O O16 0.000000 0.454872 0.750000
#
# Coordination Sequence:
#
# PCOD9255085 Si02
#       7
#     8   8   8   8   8   8   8
#     4  10  20  32  44  66  90 108 140 178 220 261
#     4   8  16  27  41  58  75  97 129 162 193 241
#     4  10  19  30  47  66  88 112 134 178 224 260
#     4  10  18  29  44  59  79 102 133 172 206 244
#     4  10  19  30  44  61  83 113 147 180 213 252
#     4  10  17  28  46  61  75 102 134 158 202 255
#     4  10  19  28  40  57  74  99 137 176 210 242
#
# _framework density 18.281898999999999
#
# number of rings (size 3 to 8) (size 9 to 14) (size 15 to 20)
#    0.000    2.286    0.000    4.286    0.000    2.286 
#    0.000    0.000    0.000   23.143    0.000    0.000 
#    0.000    0.000    0.000    0.000    0.000   38.571 
#
# Total GULP energy -156165.014871 kJ/mol
# GULP energy per Si atom -5577.321960 kJ/mol
# Density = 1.824029 g / cm^3
# Si number density = 18.281899 Si / 1000 Ang^3
#
#
#
# Elastic Constant Matrix: (Units=GPa)
#
#
# Indices 1 2 3 4 5 6 
#
# 1 12.1775 13.0444 8.1989 0.0000 -3.3492 0.0000
# 2 13.0444 129.2766 13.1698 0.0000 -0.7424 0.0000
# 3 8.1989 13.1698 122.8543 0.0000 -32.5142 0.0000
# 4 0.0000 0.0000 0.0000 45.5821 0.0000 -9.2952
# 5 -3.3492 -0.7424 -32.5142 0.0000 19.0294 0.0000
# 6 0.0000 0.0000 0.0000 -9.2952 0.0000 20.7218
#
#
#
# Elastic Compliance Matrix: (Units=1/GPa)
#
#
# Indices 1 2 3 4 5 6 
#
# 1 0.097345 -0.009552 -0.001893 0.000000 0.013526 0.000000
# 2 -0.009552 0.008802 -0.001205 0.000000 -0.003397 0.000000
# 3 -0.001893 -0.001205 0.015142 0.000000 0.025491 0.000000
# 4 0.000000 0.000000 0.000000 0.024147 0.000000 0.010832
# 5 0.013526 -0.003397 0.025491 0.000000 0.098353 0.000000
# 6 0.000000 0.000000 0.000000 0.010832 0.000000 0.053117
#
#
# Mechanical properties :
#
#
# Convention : Reuss Voigt Hill
#
# Bulk Modulus (GPa) = 10.41780 37.01496 23.71638
# Shear Modulus (GPa) = 14.11619 32.39302 23.25460
#
# Velocity S-wave (km/s) = 2.78176 4.21392 3.57038
# Velocity P-wave (km/s) = 4.00354 6.63075 5.47701
#
# Compressibility (1/GPa) = 0.09598954
#
# Stress axis : x y z
#
# Youngs Moduli (GPa) = 10.27271 113.60490 66.04295
#
# Poissons Ratio (x) = 1.08515 0.12501
# Poissons Ratio (y) = 0.09812 0.07959
# Poissons Ratio (z) = 0.01944 0.13691
#
# Static dielectric constant tensor:
#      x y z
#    x 1.622090 0.000000 -0.022560 
#    y 0.000000 1.650880 0.000000 
#    z -0.022560 0.000000 1.673460 
# 
# From -- ./inp_files/14570.got.cif
#   From: 2010.05.17/outbox.cif.g08.bks.cpg/sg15_8_cif.got.tgz:14570.got - 2010.06.03 18:47:42.
