data_PCOD9255506
_publ_section_title
;
Structure prediction by ZEFSAII (Michael W. Deem and Ramdas Pophale) SiO2 
 PCOD9255506
Probable space group: C 2/C
;
_chemical_formula_sum "Si O2"
_cell_formula_units_Z 48
_cell_length_a 26.176062
_cell_length_b 11.253107
_cell_length_c 26.134493
_cell_angle_alpha 90.000000
_cell_angle_beta 160.291154
_cell_angle_gamma 90.000000
_cell_volume 2596.155516
_symmetry_space_group_name_H-M "C 2/C"
_symmetry_group_IT_number 15
_symmetry_cell_setting 'monoclinic'
loop_
_space_group_symop_operation_xyz
x,y,z
-x,y,1/2-z
-x,-y,-z
x,-y,1/2+z
1/2+x,1/2+y,z
1/2-x,1/2+y,1/2-z
1/2-x,1/2-y,-z
1/2+x,1/2-y,1/2+z
loop_
_atom_site_type_symbol
_atom_site_label
_atom_site_fract_x
_atom_site_fract_y
_atom_site_fract_z
Si Si1 0.366821 0.697385 0.449203
Si Si2 0.408167 0.048454 0.041391
Si Si3 0.345129 0.287374 0.335256
Si Si4 0.960874 0.398238 0.422334
Si Si5 0.329615 0.144963 0.141844
Si Si6 0.161516 0.079469 0.882641
O O1 0.387717 0.836192 0.485309
O O2 0.527363 0.650894 0.580148
O O3 0.245351 0.699458 0.288809
O O4 0.298537 0.637938 0.435003
O O5 0.520702 0.091684 0.192122
O O6 0.484894 0.945718 0.080995
O O7 0.249562 0.017537 0.919046
O O8 0.216253 0.367456 0.239136
O O9 0.441239 0.214864 0.467278
O O10 0.000000 0.500000 0.500000
O O11 0.358143 0.283768 0.155440
O O12 0.268943 0.085230 0.033526
O O13 0.000000 0.034441 0.750000
#
# Coordination Sequence:
#
# PCOD9255506 Si02
#       6
#     8   8   8   8   8   8
#     4  10  17  31  52  76 112 146 178 219 281 340
#     4  11  20  33  53  73 110 154 177 218 278 338
#     4  10  20  34  54  81 111 150 192 233 277 324
#     4  11  21  38  57  78 113 153 193 236 280 328
#     4  10  18  30  50  81 113 149 174 216 289 354
#     4  10  20  30  49  81 115 139 180 227 281 351
#
# _framework density 18.488876999999999
#
# number of rings (size 3 to 8) (size 9 to 14) (size 15 to 20)
#    0.000    1.667    5.000    3.500    2.333    0.000 
#    0.000   10.833    0.000    0.000    0.000    8.167 
#    0.000    0.000    0.000    0.000    0.000    0.000 
#
# Total GULP energy -133923.929121 kJ/mol
# GULP energy per Si atom -5580.163713 kJ/mol
# Density = 1.844680 g / cm^3
# Si number density = 18.488877 Si / 1000 Ang^3
#
#
#
# Elastic Constant Matrix: (Units=GPa)
#
#
# Indices 1 2 3 4 5 6 
#
# 1 129.1684 11.6702 41.8416 -0.0003 32.1083 0.0000
# 2 11.6702 7.1764 2.6520 -0.0007 8.0362 -0.0001
# 3 41.8416 2.6520 88.1065 -0.0014 21.6470 -0.0003
# 4 -0.0003 -0.0007 -0.0014 17.8520 -0.0003 6.3313
# 5 32.1083 8.0362 21.6470 -0.0003 45.9684 0.0000
# 6 0.0000 -0.0001 -0.0003 6.3313 0.0000 17.5195
#
#
#
# Elastic Compliance Matrix: (Units=1/GPa)
#
#
# Indices 1 2 3 4 5 6 
#
# 1 0.011067 -0.012394 -0.003976 -0.000001 -0.003691 0.000000
# 2 -0.012394 0.187640 0.006978 0.000008 -0.027432 -0.000002
# 3 -0.003976 0.006978 0.014300 0.000001 -0.005177 0.000000
# 4 -0.000001 0.000008 0.000001 0.064251 -0.000001 -0.023219
# 5 -0.003691 -0.027432 -0.005177 -0.000001 0.031566 0.000000
# 6 0.000000 -0.000002 0.000000 -0.023219 0.000000 0.065470
#
#
# Mechanical properties :
#
#
# Convention : Reuss Voigt Hill
#
# Bulk Modulus (GPa) = 5.14873 37.41987 21.28430
# Shear Modulus (GPa) = 10.92133 27.48715 19.20424
#
# Velocity S-wave (km/s) = 2.43306 3.85994 3.22637
# Velocity P-wave (km/s) = 3.26862 6.33629 5.04145
#
# Compressibility (1/GPa) = 0.19422272
#
# Stress axis : x y z
#
# Youngs Moduli (GPa) = 90.35815 5.32934 69.93086
#
# Poissons Ratio (x) = 0.06605 0.27803
# Poissons Ratio (y) = 1.11994 -0.48797
# Poissons Ratio (z) = 0.35924 -0.03719
#
# Static dielectric constant tensor:
#      x y z
#    x 1.672570 0.000000 0.033200 
#    y 0.000000 1.624890 0.000000 
#    z 0.033200 0.000000 1.677430 
# 
# From -- ./inp_files/64846.got.cif
#   From: 2010.05.17/outbox.cif.g08.bks.cpg/sg15_33_cif.got.tgz:64846.got - 2010.06.03 18:47:42.
