data_PCOD9255519
_publ_section_title
;
Structure prediction by ZEFSAII (Michael W. Deem and Ramdas Pophale) SiO2 
 PCOD9255519
Probable space group: C 2/C
;
_chemical_formula_sum "Si O2"
_cell_formula_units_Z 56
_cell_length_a 9.446961
_cell_length_b 14.393520
_cell_length_c 31.527476
_cell_angle_alpha 90.000000
_cell_angle_beta 44.661601
_cell_angle_gamma 90.000000
_cell_volume 3013.374540
_symmetry_space_group_name_H-M "C 2/C"
_symmetry_group_IT_number 15
_symmetry_cell_setting 'monoclinic'
loop_
_space_group_symop_operation_xyz
x,y,z
-x,y,1/2-z
-x,-y,-z
x,-y,1/2+z
1/2+x,1/2+y,z
1/2-x,1/2+y,1/2-z
1/2-x,1/2-y,-z
1/2+x,1/2-y,1/2+z
loop_
_atom_site_type_symbol
_atom_site_label
_atom_site_fract_x
_atom_site_fract_y
_atom_site_fract_z
Si Si1 0.644524 0.444628 0.179829
Si Si2 0.543266 0.595114 0.607347
Si Si3 0.707632 0.283290 0.934590
Si Si4 0.131622 0.788762 0.424541
Si Si5 0.455100 0.897357 0.606710
Si Si6 0.518325 0.809135 0.083558
Si Si7 0.333343 0.030083 0.001059
O O1 0.500000 0.428617 0.250000
O O2 0.526384 0.432918 0.160208
O O3 0.756959 0.544202 0.159777
O O4 0.828991 0.371588 0.138568
O O5 0.710599 0.678864 0.572421
O O6 0.370775 0.642019 0.615418
O O7 0.627430 0.505694 0.564635
O O8 0.579323 0.278246 0.919232
O O9 0.906531 0.345948 0.888268
O O10 0.561285 0.311503 0.004420
O O11 0.101518 0.684709 0.413673
O O12 0.329115 0.794278 0.410933
O O13 0.607403 0.969236 0.552224
O O14 0.635400 0.865450 0.021121
O O15 0.500000 0.000000 0.000000
#
# Coordination Sequence:
#
# PCOD9255519 Si02
#       7
#     8   8   8   8   8   8   8
#     4  10  22  41  57  71  99 150 199 228 259 316
#     4  10  18  32  57  77 108 150 176 212 269 331
#     4  10  17  31  52  84 116 143 159 214 276 343
#     4  11  19  32  52  92 116 134 167 222 285 332
#     4  10  18  32  56  76 108 139 183 211 267 338
#     4  10  22  32  53  84 116 142 173 221 273 325
#     4  11  15  31  51  78 109 143 175 208 263 338
#
# _framework density 18.583818000000001
#
# number of rings (size 3 to 8) (size 9 to 14) (size 15 to 20)
#    0.000    1.714    7.143    1.286    0.000    0.571 
#    0.000    5.000    0.000    0.000    0.000    0.000 
#    0.000    0.000    0.000    0.000    0.000    0.000 
#
# Total GULP energy -156078.753079 kJ/mol
# GULP energy per Si atom -5574.241181 kJ/mol
# Density = 1.854152 g / cm^3
# Si number density = 18.583818 Si / 1000 Ang^3
#
#
#
# Elastic Constant Matrix: (Units=GPa)
#
#
# Indices 1 2 3 4 5 6 
#
# 1 152.7719 33.1572 26.0940 0.0005 13.4020 -0.0003
# 2 33.1572 41.9396 16.6145 0.0003 3.7215 -0.0002
# 3 26.0940 16.6145 88.9719 0.0005 12.7746 -0.0003
# 4 0.0005 0.0003 0.0005 12.4980 -0.0005 -4.2584
# 5 13.4020 3.7215 12.7746 -0.0005 14.2441 0.0003
# 6 -0.0003 -0.0002 -0.0003 -4.2584 0.0003 23.7917
#
#
#
# Elastic Compliance Matrix: (Units=1/GPa)
#
#
# Indices 1 2 3 4 5 6 
#
# 1 0.008444 -0.005946 -0.000515 0.000000 -0.005930 0.000000
# 2 -0.005946 0.030031 -0.004064 0.000000 0.001393 0.000000
# 3 -0.000515 -0.004064 0.013690 -0.000001 -0.010732 0.000000
# 4 0.000000 0.000000 -0.000001 0.085209 0.000004 0.015252
# 5 -0.005930 0.001393 -0.010732 0.000004 0.085045 -0.000001
# 6 0.000000 0.000000 0.000000 0.015252 -0.000001 0.044761
#
#
# Mechanical properties :
#
#
# Convention : Reuss Voigt Hill
#
# Bulk Modulus (GPa) = 32.13790 48.37943 40.25866
# Shear Modulus (GPa) = 16.74466 23.96127 20.35296
#
# Velocity S-wave (km/s) = 3.00498 3.59466 3.31297
# Velocity P-wave (km/s) = 5.41949 6.58167 6.02865
#
# Compressibility (1/GPa) = 0.03111591
#
# Stress axis : x y z
#
# Youngs Moduli (GPa) = 118.42276 33.29890 73.04449
#
# Poissons Ratio (x) = 0.19799 0.03761
# Poissons Ratio (y) = 0.70413 0.29686
# Poissons Ratio (z) = 0.06097 0.13533
#
# Static dielectric constant tensor:
#      x y z
#    x 1.706190 0.000000 0.005640 
#    y 0.000000 1.700400 0.000000 
#    z 0.005640 0.000000 1.619210 
# 
# From -- ./inp_files/307940.got.cif
#   From: 2010.05.17/outbox.cif.g08.bks.cpg/sg15_154_cif.got.tgz:307940.got - 2010.06.03 18:47:42.
