data_PCOD9255419
_publ_section_title
;
Structure prediction by ZEFSAII (Michael W. Deem and Ramdas Pophale) SiO2 
 PCOD9255419
Probable space group: C 2/C
;
_chemical_formula_sum "Si O2"
_cell_formula_units_Z 60
_cell_length_a 12.248044
_cell_length_b 20.168490
_cell_length_c 29.384536
_cell_angle_alpha 90.000000
_cell_angle_beta 151.405284
_cell_angle_gamma 90.000000
_cell_volume 3474.093729
_symmetry_space_group_name_H-M "C 2/C"
_symmetry_group_IT_number 15
_symmetry_cell_setting 'monoclinic'
loop_
_space_group_symop_operation_xyz
x,y,z
-x,y,1/2-z
-x,-y,-z
x,-y,1/2+z
1/2+x,1/2+y,z
1/2-x,1/2+y,1/2-z
1/2-x,1/2-y,-z
1/2+x,1/2-y,1/2+z
loop_
_atom_site_type_symbol
_atom_site_label
_atom_site_fract_x
_atom_site_fract_y
_atom_site_fract_z
Si Si1 0.171638 0.062192 0.146467
Si Si2 0.500000 0.545847 0.750000
Si Si3 0.807098 0.173176 0.515971
Si Si4 0.382204 0.087240 0.133454
Si Si5 0.829946 0.412746 0.449825
Si Si6 0.789930 0.562592 0.472934
Si Si7 0.764622 0.406220 0.190031
Si Si8 0.399219 0.962130 0.333748
O O1 0.181436 0.084564 0.097614
O O2 0.388858 0.092102 0.252516
O O3 0.959214 0.078426 0.100662
O O4 0.190920 0.981825 0.150317
O O5 0.345066 0.585469 0.656884
O O6 0.315922 0.509340 0.715586
O O7 0.750000 0.250000 0.500000
O O8 0.671663 0.141628 0.423831
O O9 0.727140 0.140008 0.533539
O O10 0.068859 0.146943 0.607541
O O11 0.436748 0.018322 0.127283
O O12 0.805197 0.484627 0.465071
O O13 0.085600 0.404104 0.524164
O O14 0.950074 0.575883 0.574691
O O15 0.809814 0.415754 0.260544
O O16 0.000000 0.392307 0.250000
#
# Coordination Sequence:
#
# PCOD9255419 Si02
#       8
#     8   4   8   8   8   8   8   8
#     4  10  18  35  59  94 117 142 184 265 314 341
#     4  10  18  30  54  82 122 148 178 238 300 356
#     4  12  25  42  58  80 123 168 201 231 278 370
#     4  10  20  35  56  86 117 150 195 236 314 337
#     4  10  19  35  52  87 119 155 194 232 297 353
#     4  10  19  30  57  91 121 140 184 248 307 347
#     4  11  20  35  59  92 118 144 195 246 305 347
#     4  10  17  30  55  90 116 144 178 255 307 342
#
# _framework density 17.270692
#
# number of rings (size 3 to 8) (size 9 to 14) (size 15 to 20)
#    0.000    1.600    6.667    0.800    1.867    1.067 
#    0.000    2.667    0.000    0.800    0.000    0.000 
#    0.000    0.000    0.000    0.000    0.000    0.000 
#
# Total GULP energy -167005.822644 kJ/mol
# GULP energy per Si atom -5566.860755 kJ/mol
# Density = 1.723138 g / cm^3
# Si number density = 17.270692 Si / 1000 Ang^3
#
#
#
# Elastic Constant Matrix: (Units=GPa)
#
#
# Indices 1 2 3 4 5 6 
#
# 1 147.5996 29.1699 46.4148 0.0010 14.9951 0.0004
# 2 29.1699 61.4244 38.0146 0.0014 -5.1254 0.0006
# 3 46.4148 38.0146 60.7120 0.0022 6.5210 0.0018
# 4 0.0010 0.0014 0.0022 9.6889 0.0003 -5.6639
# 5 14.9951 -5.1254 6.5210 0.0003 43.0461 0.0008
# 6 0.0004 0.0006 0.0018 -5.6639 0.0008 -9.5936
#
#
#
# Elastic Compliance Matrix: (Units=1/GPa)
#
#
# Indices 1 2 3 4 5 6 
#
# 1 0.009124 -0.000585 -0.006364 0.000000 -0.002284 -0.000001
# 2 -0.000585 0.028112 -0.017827 -0.000001 0.006252 -0.000001
# 3 -0.006364 -0.017827 0.033026 -0.000001 -0.004909 0.000005
# 4 0.000000 -0.000001 -0.000001 0.076730 0.000000 -0.045300
# 5 -0.002284 0.006252 -0.004909 0.000000 0.025515 0.000001
# 6 -0.000001 -0.000001 0.000005 -0.045300 0.000001 -0.077492
#
#
# Mechanical properties :
#
#
# Convention : Reuss Voigt Hill
#
# Bulk Modulus (GPa) = 48.28322 55.21496 51.74909
# Shear Modulus (GPa) = 33.01023 19.03740 26.02381
#
# Velocity S-wave (km/s) = 4.37663 3.32368 3.88599
# Velocity P-wave (km/s) = 7.31829 6.83878 7.08259
#
# Compressibility (1/GPa) = 0.02071113
#
# Stress axis : x y z
#
# Youngs Moduli (GPa) = 109.60260 35.57166 30.27961
#
# Poissons Ratio (x) = 0.02081 0.19269
# Poissons Ratio (y) = 0.06413 0.53978
# Poissons Ratio (z) = 0.69747 0.63412
#
# Static dielectric constant tensor:
#      x y z
#    x 1.645170 0.000000 0.025970 
#    y 0.000000 1.543180 0.000000 
#    z 0.025970 0.000000 1.621380 
# 
# From -- ./inp_files/311762.got.cif
#   From: 2010.05.17/outbox.cif.g08.bks.cpg/sg15_156_cif.got.tgz:311762.got - 2010.06.03 18:47:42.
