data_PCOD9255532
_publ_section_title
;
Structure prediction by ZEFSAII (Michael W. Deem and Ramdas Pophale) SiO2 
 PCOD9255532
Probable space group: C 2/C
;
_chemical_formula_sum "Si O2"
_cell_formula_units_Z 28
_cell_length_a 8.226498
_cell_length_b 27.273474
_cell_length_c 5.564226
_cell_angle_alpha 90.000000
_cell_angle_beta 93.676777
_cell_angle_gamma 90.000000
_cell_volume 1245.848935
_symmetry_space_group_name_H-M "C 2/C"
_symmetry_group_IT_number 15
_symmetry_cell_setting 'monoclinic'
loop_
_space_group_symop_operation_xyz
x,y,z
-x,y,1/2-z
-x,-y,-z
x,-y,1/2+z
1/2+x,1/2+y,z
1/2-x,1/2+y,1/2-z
1/2-x,1/2-y,-z
1/2+x,1/2-y,1/2+z
loop_
_atom_site_type_symbol
_atom_site_label
_atom_site_fract_x
_atom_site_fract_y
_atom_site_fract_z
Si Si1 0.328192 0.616367 0.617822
Si Si2 0.894693 0.289850 0.489637
Si Si3 0.301953 0.984146 0.329513
Si Si4 0.500000 0.548785 0.250000
O O1 0.500000 0.634407 0.750000
O O2 0.202500 0.658946 0.547766
O O3 0.230867 0.572658 0.744731
O O4 0.396689 0.585823 0.401323
O O5 0.750000 0.250000 0.500000
O O6 0.000000 0.289223 0.750000
O O7 0.000000 0.282350 0.250000
O O8 0.371800 0.988321 0.604498
O O9 0.132636 0.012223 0.370321
#
# Coordination Sequence:
#
# PCOD9255532 Si02
#       4
#     8   8   8   4
#     4  11  21  37  71 103 138 182 237 290 345 401
#     4  12  30  52  76 103 142 181 238 301 365 429
#     4  10  17  31  54 101 136 175 232 281 303 403
#     4  10  18  32  62 106 144 176 248 268 326 410
#
# _framework density 22.474636
#
# number of rings (size 3 to 8) (size 9 to 14) (size 15 to 20)
#    0.000    1.143    4.286    3.429    6.000    0.000 
#    0.000    0.000    0.000   20.571    0.000    0.000 
#    0.000    0.000    0.000    0.000    0.000    0.000 
#
# Total GULP energy -77958.913789 kJ/mol
# GULP energy per Si atom -5568.493842 kJ/mol
# Density = 2.242348 g / cm^3
# Si number density = 22.474636 Si / 1000 Ang^3
#
#
#
# Elastic Constant Matrix: (Units=GPa)
#
#
# Indices 1 2 3 4 5 6 
#
# 1 150.0194 71.5031 102.1199 0.0000 6.3957 0.0000
# 2 71.5031 160.2592 48.4796 0.0000 10.5100 0.0000
# 3 102.1199 48.4796 154.9186 0.0000 23.4166 0.0000
# 4 0.0000 0.0000 0.0000 26.1610 0.0000 15.3188
# 5 6.3957 10.5100 23.4166 0.0000 62.3537 0.0000
# 6 0.0000 0.0000 0.0000 15.3188 0.0000 88.0728
#
#
#
# Elastic Compliance Matrix: (Units=1/GPa)
#
#
# Indices 1 2 3 4 5 6 
#
# 1 0.014234 -0.003932 -0.008515 0.000000 0.002401 0.000000
# 2 -0.003932 0.007987 0.000249 0.000000 -0.001037 0.000000
# 3 -0.008515 0.000249 0.012578 0.000000 -0.003892 0.000000
# 4 0.000000 0.000000 0.000000 0.042559 0.000000 -0.007402
# 5 0.002401 -0.001037 -0.003892 0.000000 0.017428 0.000000
# 6 0.000000 0.000000 0.000000 -0.007402 0.000000 0.012642
#
#
# Mechanical properties :
#
#
# Convention : Reuss Voigt Hill
#
# Bulk Modulus (GPa) = 96.12459 101.04470 98.58465
# Shear Modulus (GPa) = 36.95698 51.52381 44.24039
#
# Velocity S-wave (km/s) = 4.05950 4.79323 4.44154
# Velocity P-wave (km/s) = 8.05207 8.70003 8.38231
#
# Compressibility (1/GPa) = 0.01040317
#
# Stress axis : x y z
#
# Youngs Moduli (GPa) = 70.25371 125.20458 79.50156
#
# Poissons Ratio (x) = 0.49235 0.67697
# Poissons Ratio (y) = 0.27626 -0.01983
# Poissons Ratio (z) = 0.59822 -0.03123
#
# Static dielectric constant tensor:
#      x y z
#    x 2.000520 0.000000 0.030260 
#    y 0.000000 1.801080 0.000000 
#    z 0.030260 0.000000 1.981830 
# 
# From -- ./inp_files/2012.got.cif
#   From: 2010.05.17/outbox.cif.g08.bks.cpg/sg15_2_cif.got.tgz:2012.got - 2010.06.03 18:47:42.
