data_PCOD9255855
_publ_section_title
;
Structure prediction by ZEFSAII (Michael W. Deem and Ramdas Pophale) SiO2 
 PCOD9255855
Probable space group: C 2/C
;
_chemical_formula_sum "Si O2"
_cell_formula_units_Z 44
_cell_length_a 9.803900
_cell_length_b 25.109138
_cell_length_c 9.518002
_cell_angle_alpha 90.000000
_cell_angle_beta 66.994530
_cell_angle_gamma 90.000000
_cell_volume 2156.676216
_symmetry_space_group_name_H-M "C 2/C"
_symmetry_group_IT_number 15
_symmetry_cell_setting 'monoclinic'
loop_
_space_group_symop_operation_xyz
x,y,z
-x,y,1/2-z
-x,-y,-z
x,-y,1/2+z
1/2+x,1/2+y,z
1/2-x,1/2+y,1/2-z
1/2-x,1/2-y,-z
1/2+x,1/2-y,1/2+z
loop_
_atom_site_type_symbol
_atom_site_label
_atom_site_fract_x
_atom_site_fract_y
_atom_site_fract_z
Si Si1 0.466600 0.341443 0.567865
Si Si2 0.000000 0.181743 0.750000
Si Si3 0.748734 0.748808 0.240656
Si Si4 0.000000 0.064736 0.250000
Si Si5 0.325266 0.054407 0.047103
Si Si6 0.693062 0.176838 0.520074
Si Si7 0.000000 0.483467 0.750000
O O1 0.488009 0.351494 0.395616
O O2 0.354244 0.293803 0.642411
O O3 0.431217 0.395781 0.660245
O O4 0.626936 0.323877 0.560732
O O5 0.856149 0.218784 0.797466
O O6 0.665316 0.793074 0.178089
O O7 0.851046 0.714844 0.090593
O O8 0.850133 0.039028 0.370752
O O9 0.402028 0.047191 0.170164
O O10 0.347924 0.115781 0.987516
O O11 0.397797 0.018946 0.894901
#
# Coordination Sequence:
#
# PCOD9255855 Si02
#       7
#     8   4   8   4   8   8   4
#     4  10  17  36  52  78 117 165 198 252 280 362
#     4  10  22  27  46  81 128 158 199 247 296 334
#     4  10  17  33  52  83 117 163 197 243 286 371
#     4  10  20  40  73  81 120 167 219 232 320 380
#     4  10  21  45  65  95 120 166 197 273 316 378
#     4   9  19  34  59  81 114 160 210 234 302 368
#     4  10  24  43  69  92 132 143 214 271 332 364
#
# _framework density 20.401764
#
# number of rings (size 3 to 8) (size 9 to 14) (size 15 to 20)
#    0.000    2.182    3.636    0.545    0.000    1.455 
#    9.818   10.909    0.000    1.091    0.000    0.000 
#    0.000    0.000    0.000    0.000    0.000    0.000 
#
# Total GULP energy -122584.251502 kJ/mol
# GULP energy per Si atom -5572.011432 kJ/mol
# Density = 2.035533 g / cm^3
# Si number density = 20.401764 Si / 1000 Ang^3
#
#
#
# Elastic Constant Matrix: (Units=GPa)
#
#
# Indices 1 2 3 4 5 6 
#
# 1 70.2719 27.7958 37.0273 0.0000 -8.3947 0.0000
# 2 27.7958 71.4617 25.6396 0.0000 0.8811 0.0000
# 3 37.0273 25.6396 116.2425 0.0000 11.5193 0.0000
# 4 0.0000 0.0000 0.0000 -0.9814 0.0000 -12.5468
# 5 -8.3947 0.8811 11.5193 0.0000 34.9381 0.0000
# 6 0.0000 0.0000 0.0000 -12.5468 0.0000 18.3048
#
#
#
# Elastic Compliance Matrix: (Units=1/GPa)
#
#
# Indices 1 2 3 4 5 6 
#
# 1 0.020552 -0.005953 -0.005932 0.000000 0.007044 0.000000
# 2 -0.005953 0.016939 -0.001712 0.000000 -0.001293 0.000000
# 3 -0.005932 -0.001712 0.011378 0.000000 -0.005134 0.000000
# 4 0.000000 0.000000 0.000000 -0.104368 0.000000 -0.071538
# 5 0.007044 -0.001293 -0.005134 0.000000 0.032040 0.000000
# 6 0.000000 0.000000 0.000000 -0.071538 0.000000 0.005596
#
#
# Mechanical properties :
#
#
# Convention : Reuss Voigt Hill
#
# Bulk Modulus (GPa) = 46.13167 48.76684 47.44926
# Shear Modulus (GPa) = 302.03714 21.61987 161.82851
#
# Velocity S-wave (km/s) = 12.18056 3.25884 8.91589
# Velocity P-wave (km/s) = 14.84864 6.17375 11.37096
#
# Compressibility (1/GPa) = 0.02167708
#
# Stress axis : x y z
#
# Youngs Moduli (GPa) = 48.65755 59.03540 87.88548
#
# Poissons Ratio (x) = 0.35141 0.52130
# Poissons Ratio (y) = 0.28963 0.15046
# Poissons Ratio (z) = 0.28861 0.10107
#
# Static dielectric constant tensor:
#      x y z
#    x 1.755570 0.000000 -0.033110 
#    y 0.000000 1.732100 0.000000 
#    z -0.033110 0.000000 1.778900 
# 
# From -- ./inp_files/30791.got.cif
#   From: 2010.05.17/outbox.cif.g08.bks.cpg/sg15_16_cif.got.tgz:30791.got - 2010.06.03 18:47:42.
