data_PCOD9255421
_publ_section_title
;
Structure prediction by ZEFSAII (Michael W. Deem and Ramdas Pophale) SiO2 
 PCOD9255421
Probable space group: C 2/C
;
_chemical_formula_sum "Si O2"
_cell_formula_units_Z 60
_cell_length_a 21.203501
_cell_length_b 9.899024
_cell_length_c 17.403257
_cell_angle_alpha 90.000000
_cell_angle_beta 39.604486
_cell_angle_gamma 90.000000
_cell_volume 2328.627328
_symmetry_space_group_name_H-M "C 2/C"
_symmetry_group_IT_number 15
_symmetry_cell_setting 'monoclinic'
loop_
_space_group_symop_operation_xyz
x,y,z
-x,y,1/2-z
-x,-y,-z
x,-y,1/2+z
1/2+x,1/2+y,z
1/2-x,1/2+y,1/2-z
1/2-x,1/2-y,-z
1/2+x,1/2-y,1/2+z
loop_
_atom_site_type_symbol
_atom_site_label
_atom_site_fract_x
_atom_site_fract_y
_atom_site_fract_z
Si Si1 0.872945 0.920754 0.912745
Si Si2 0.146835 0.217471 0.633764
Si Si3 0.134628 0.895955 0.310323
Si Si4 0.421759 0.325863 0.709307
Si Si5 0.245237 0.004964 0.338738
Si Si6 0.500000 0.037169 0.250000
Si Si7 0.076324 0.223190 0.457222
Si Si8 0.476454 0.029550 0.110428
O O1 0.868951 0.822235 0.842278
O O2 0.966117 0.869052 0.874979
O O3 0.892443 0.075547 0.865130
O O4 0.779328 0.937399 0.056225
O O5 0.250000 0.250000 0.500000
O O6 0.157010 0.188516 0.714167
O O7 0.087134 0.354890 0.678702
O O8 0.027322 0.858830 0.443848
O O9 0.129780 0.046266 0.282313
O O10 0.214548 0.896421 0.302238
O O11 0.416603 0.228368 0.639500
O O12 0.166095 0.127881 0.400748
O O13 0.357947 0.047146 0.222505
O O14 0.503352 0.956067 0.166428
O O15 0.049767 0.337870 0.544579
O O16 0.500000 0.000000 0.000000
#
# Coordination Sequence:
#
# PCOD9255421 Si02
#       8
#     8   8   8   8   8   4   8   8
#     4  10  17  30  56 100 136 156 220 281 349 402
#     4  11  22  34  62  98 128 176 222 285 348 416
#     4  10  18  35  63 100 129 167 222 293 343 407
#     4   9  17  31  58  94 127 167 207 293 338 393
#     4  11  22  41  68 102 139 179 226 287 363 424
#     4  12  24  46  64  92 136 178 236 280 358 408
#     4  11  20  43  66  97 135 179 233 286 345 420
#     4  12  30  47  68  97 144 191 230 297 360 432
#
# _framework density 25.766252999999999
#
# number of rings (size 3 to 8) (size 9 to 14) (size 15 to 20)
#    0.000    1.333    4.000    4.000    1.867    1.067 
#    2.400    1.333    0.000    0.800    0.000    0.000 
#    0.000    0.000    0.000    0.000    0.000    0.000 
#
# Total GULP energy -167562.249305 kJ/mol
# GULP energy per Si atom -5585.408310 kJ/mol
# Density = 2.570761 g / cm^3
# Si number density = 25.766253 Si / 1000 Ang^3
#
#
#
# Elastic Constant Matrix: (Units=GPa)
#
#
# Indices 1 2 3 4 5 6 
#
# 1 137.6129 33.1464 95.5978 0.0000 32.8944 0.0000
# 2 33.1464 39.1231 35.4862 0.0001 -0.0432 -0.0001
# 3 95.5978 35.4862 209.5259 0.0000 17.0770 0.0000
# 4 0.0000 0.0001 0.0000 29.0027 0.0000 13.4471
# 5 32.8944 -0.0432 17.0770 0.0000 60.8819 0.0000
# 6 0.0000 -0.0001 0.0000 13.4471 0.0000 50.4995
#
#
#
# Elastic Compliance Matrix: (Units=1/GPa)
#
#
# Indices 1 2 3 4 5 6 
#
# 1 0.013631 -0.007523 -0.004446 0.000000 -0.006123 0.000000
# 2 -0.007523 0.034484 -0.002805 0.000000 0.004876 0.000000
# 3 -0.004446 -0.002805 0.007246 0.000000 0.000368 0.000000
# 4 0.000000 0.000000 0.000000 0.039336 0.000000 -0.010475
# 5 -0.006123 0.004876 0.000368 0.000000 0.019634 0.000000
# 6 0.000000 0.000000 0.000000 -0.010475 0.000000 0.022591
#
#
# Mechanical properties :
#
#
# Convention : Reuss Voigt Hill
#
# Bulk Modulus (GPa) = 38.74041 79.41361 59.07701
# Shear Modulus (GPa) = 28.55916 42.87893 35.71905
#
# Velocity S-wave (km/s) = 3.33287 4.08383 3.72731
# Velocity P-wave (km/s) = 5.46614 7.28866 6.44217
#
# Compressibility (1/GPa) = 0.02581284
#
# Stress axis : x y z
#
# Youngs Moduli (GPa) = 73.36218 28.99916 137.99858
#
# Poissons Ratio (x) = 0.21815 0.61356
# Poissons Ratio (y) = 0.55187 0.38715
# Poissons Ratio (z) = 0.32618 0.08136
#
# Static dielectric constant tensor:
#      x y z
#    x 2.028690 0.000000 0.068960 
#    y 0.000000 2.275630 0.000000 
#    z 0.068960 0.000000 2.024810 
# 
# From -- ./inp_files/215195.got.cif
#   From: 2010.05.17/outbox.cif.g08.bks.cpg/sg15_108_cif.got.tgz:215195.got - 2010.06.03 18:47:42.
