data_PCOD9255011
_publ_section_title
;
Structure prediction by ZEFSAII (Michael W. Deem and Ramdas Pophale) SiO2 
 PCOD9255011
Probable space group: C 2/C
;
_chemical_formula_sum "Si O2"
_cell_formula_units_Z 52
_cell_length_a 15.913643
_cell_length_b 23.466607
_cell_length_c 8.168247
_cell_angle_alpha 90.000000
_cell_angle_beta 62.348866
_cell_angle_gamma 90.000000
_cell_volume 2701.963177
_symmetry_space_group_name_H-M "C 2/C"
_symmetry_group_IT_number 15
_symmetry_cell_setting 'monoclinic'
loop_
_space_group_symop_operation_xyz
x,y,z
-x,y,1/2-z
-x,-y,-z
x,-y,1/2+z
1/2+x,1/2+y,z
1/2-x,1/2+y,1/2-z
1/2-x,1/2-y,-z
1/2+x,1/2-y,1/2+z
loop_
_atom_site_type_symbol
_atom_site_label
_atom_site_fract_x
_atom_site_fract_y
_atom_site_fract_z
Si Si1 0.226497 0.316535 0.549884
Si Si2 0.630123 0.204269 0.482424
Si Si3 0.082229 0.083691 0.897158
Si Si4 0.399802 0.338409 0.570763
Si Si5 0.194311 0.166854 0.993044
Si Si6 0.054194 0.706920 0.024900
Si Si7 0.000000 0.998091 0.750000
O O1 0.250000 0.250000 0.500000
O O2 0.178756 0.317105 0.771321
O O3 0.324287 0.349513 0.493064
O O4 0.147430 0.329703 0.485242
O O5 0.695283 0.178411 0.566727
O O6 0.647607 0.272601 0.481064
O O7 0.520582 0.189685 0.547316
O O8 0.171554 0.119341 0.879663
O O9 0.997204 0.129290 0.954550
O O10 0.080563 0.040255 0.748219
O O11 0.046824 0.042255 0.074299
O O12 0.357210 0.350923 0.789509
O O13 0.415864 0.270592 0.551945
O O14 0.000000 0.711645 0.250000
#
# Coordination Sequence:
#
# PCOD9255011 Si02
#       7
#     8   8   8   8   8   8   4
#     4   8  16  26  38  61  90 118 154 184 212 268
#     4   9  17  26  42  65  89 121 157 179 217 284
#     4  11  20  35  48  66  92 119 157 199 238 272
#     4  10  17  27  45  60  87 129 152 180 232 270
#     4  10  18  29  43  63  90 123 155 185 227 281
#     4   9  16  26  40  64  95 120 154 185 211 266
#     4  10  24  34  48  68  88 118 166 204 232 280
#
# _framework density 19.245265
#
# number of rings (size 3 to 8) (size 9 to 14) (size 15 to 20)
#    0.000    2.462    3.077    0.000    1.077    1.231 
#    0.000    0.000    0.000    0.000    0.000    0.000 
#    0.000    7.385    0.000    0.000    0.000    0.615 
#
# Total GULP energy -144954.189418 kJ/mol
# GULP energy per Si atom -5575.161131 kJ/mol
# Density = 1.920146 g / cm^3
# Si number density = 19.245265 Si / 1000 Ang^3
#
#
#
# Elastic Constant Matrix: (Units=GPa)
#
#
# Indices 1 2 3 4 5 6 
#
# 1 186.3278 41.4573 14.1313 0.0000 22.5402 0.0000
# 2 41.4573 55.6495 0.9246 0.0000 10.5610 0.0000
# 3 14.1313 0.9246 47.1494 0.0000 16.1528 0.0000
# 4 0.0000 0.0000 0.0000 14.9296 0.0000 2.2946
# 5 22.5402 10.5610 16.1528 0.0000 24.4754 0.0000
# 6 0.0000 0.0000 0.0000 2.2946 0.0000 22.3838
#
#
#
# Elastic Compliance Matrix: (Units=1/GPa)
#
#
# Indices 1 2 3 4 5 6 
#
# 1 0.006868 -0.004334 -0.000578 0.000000 -0.004073 0.000000
# 2 -0.004334 0.022698 0.003672 0.000000 -0.008227 0.000000
# 3 -0.000578 0.003672 0.028002 0.000000 -0.019532 0.000000
# 4 0.000000 0.000000 0.000000 0.068053 0.000000 -0.006976
# 5 -0.004073 -0.008227 -0.019532 0.000000 0.061049 0.000000
# 6 0.000000 0.000000 0.000000 -0.006976 0.000000 0.045390
#
#
# Mechanical properties :
#
#
# Convention : Reuss Voigt Hill
#
# Bulk Modulus (GPa) = 18.15244 44.68369 31.41806
# Shear Modulus (GPa) = 19.77048 27.86533 23.81791
#
# Velocity S-wave (km/s) = 3.20861 3.80926 3.52177
# Velocity P-wave (km/s) = 4.81452 6.52807 5.73565
#
# Compressibility (1/GPa) = 0.05508902
#
# Stress axis : x y z
#
# Youngs Moduli (GPa) = 145.60965 44.05638 35.71179
#
# Poissons Ratio (x) = 0.19092 0.02064
# Poissons Ratio (y) = 0.63101 -0.13113
# Poissons Ratio (z) = 0.08414 -0.16178
#
# Static dielectric constant tensor:
#      x y z
#    x 1.777030 0.000000 0.015800 
#    y 0.000000 1.627870 0.000000 
#    z 0.015800 0.000000 1.762200 
# 
# From -- ./inp_files/50927.got.cif
#   From: 2010.05.17/outbox.cif.g08.bks.cpg/sg15_26_cif.got.tgz:50927.got - 2010.06.03 18:47:42.
