data_PCOD9255905
_publ_section_title
;
Structure prediction by ZEFSAII (Michael W. Deem and Ramdas Pophale) SiO2 
 PCOD9255905
Probable space group: C 2/C
;
_chemical_formula_sum "Si O2"
_cell_formula_units_Z 56
_cell_length_a 12.576879
_cell_length_b 7.731318
_cell_length_c 29.211233
_cell_angle_alpha 90.000000
_cell_angle_beta 118.949024
_cell_angle_gamma 90.000000
_cell_volume 2485.475707
_symmetry_space_group_name_H-M "C 2/C"
_symmetry_group_IT_number 15
_symmetry_cell_setting 'monoclinic'
loop_
_space_group_symop_operation_xyz
x,y,z
-x,y,1/2-z
-x,-y,-z
x,-y,1/2+z
1/2+x,1/2+y,z
1/2-x,1/2+y,1/2-z
1/2-x,1/2-y,-z
1/2+x,1/2-y,1/2+z
loop_
_atom_site_type_symbol
_atom_site_label
_atom_site_fract_x
_atom_site_fract_y
_atom_site_fract_z
Si Si1 0.525853 0.180677 0.620542
Si Si2 0.374642 0.991286 0.947038
Si Si3 0.577641 0.416585 0.304124
Si Si4 0.382319 0.513309 0.086286
Si Si5 0.362622 0.670002 0.882966
Si Si6 0.245387 0.125222 0.188477
Si Si7 0.903522 0.383080 0.805260
O O1 0.412377 0.289752 0.579066
O O2 0.606642 0.318414 0.666102
O O3 0.600380 0.111566 0.592229
O O4 0.512075 0.023604 0.652473
O O5 0.255837 0.043558 0.951627
O O6 0.353970 0.795636 0.924164
O O7 0.500000 0.000000 0.000000
O O8 0.500000 0.518199 0.250000
O O9 0.616161 0.510566 0.357874
O O10 0.689518 0.307473 0.307665
O O11 0.487307 0.262290 0.300483
O O12 0.496091 0.397631 0.091897
O O13 0.270653 0.509384 0.856759
O O14 0.335521 0.787789 0.832590
O O15 0.313154 0.049915 0.246997
#
# Coordination Sequence:
#
# PCOD9255905 Si02
#       7
#     8   8   8   8   8   8   8
#     4  10  21  37  59  86 114 157 194 237 297 348
#     4  11  24  43  63  84 113 151 199 256 300 340
#     4   9  18  33  54  84 121 160 191 227 282 347
#     4  10  21  41  60  84 123 150 194 246 285 351
#     4   9  21  37  58  88 116 153 195 235 296 349
#     4  10  17  33  56  83 122 154 192 232 282 350
#     4   9  18  32  53  85 121 156 187 232 281 347
#
# _framework density 22.530899999999999
#
# number of rings (size 3 to 8) (size 9 to 14) (size 15 to 20)
#    0.000    2.286    1.429    0.857    2.000    2.286 
#    2.571    2.857    0.000    0.000    0.000    0.000 
#    0.000    0.000    0.000    0.000    0.000    0.000 
#
# Total GULP energy -156029.449319 kJ/mol
# GULP energy per Si atom -5572.480333 kJ/mol
# Density = 2.247962 g / cm^3
# Si number density = 22.530900 Si / 1000 Ang^3
#
#
#
# Elastic Constant Matrix: (Units=GPa)
#
#
# Indices 1 2 3 4 5 6 
#
# 1 75.7658 8.5503 10.8032 0.0000 18.8473 0.0000
# 2 8.5503 52.9430 6.9400 0.0000 5.3297 0.0000
# 3 10.8032 6.9400 60.6335 0.0000 26.9878 0.0000
# 4 0.0000 0.0000 0.0000 12.2714 0.0000 0.0838
# 5 18.8473 5.3297 26.9878 0.0000 26.2180 0.0000
# 6 0.0000 0.0000 0.0000 0.0838 0.0000 13.4560
#
#
#
# Elastic Compliance Matrix: (Units=1/GPa)
#
#
# Indices 1 2 3 4 5 6 
#
# 1 0.016817 -0.001656 0.004474 0.000000 -0.016358 0.000000
# 2 -0.001656 0.019470 -0.001295 0.000000 -0.001435 0.000000
# 3 0.004474 -0.001295 0.031666 0.000000 -0.035549 0.000000
# 4 0.000000 0.000000 0.000000 0.081494 0.000000 -0.000507
# 5 -0.016358 -0.001435 -0.035549 0.000000 0.086785 0.000000
# 6 0.000000 0.000000 0.000000 -0.000507 0.000000 0.074320
#
#
# Mechanical properties :
#
#
# Convention : Reuss Voigt Hill
#
# Bulk Modulus (GPa) = 14.08453 26.88103 20.48278
# Shear Modulus (GPa) = 15.09793 21.25899 18.17846
#
# Velocity S-wave (km/s) = 2.59144 3.07506 2.84355
# Velocity P-wave (km/s) = 3.90113 4.95627 4.46001
#
# Compressibility (1/GPa) = 0.07099990
#
# Stress axis : x y z
#
# Youngs Moduli (GPa) = 59.46511 51.36160 31.57924
#
# Poissons Ratio (x) = 0.08504 -0.14129
# Poissons Ratio (y) = 0.09845 0.04089
# Poissons Ratio (z) = -0.26605 0.06650
#
# Static dielectric constant tensor:
#      x y z
#    x 1.946850 0.000000 0.047120 
#    y 0.000000 1.887830 0.000000 
#    z 0.047120 0.000000 1.901370 
# 
# From -- ./inp_files/310367.got.cif
#   From: 2010.05.17/outbox.cif.g08.bks.cpg/sg15_156_cif.got.tgz:310367.got - 2010.06.03 18:47:42.
