data_PCOD9255588
_publ_section_title
;
Structure prediction by ZEFSAII (Michael W. Deem and Ramdas Pophale) SiO2 
 PCOD9255588
Probable space group: C 2/C
;
_chemical_formula_sum "Si O2"
_cell_formula_units_Z 52
_cell_length_a 7.413847
_cell_length_b 23.108892
_cell_length_c 20.516963
_cell_angle_alpha 90.000000
_cell_angle_beta 137.957312
_cell_angle_gamma 90.000000
_cell_volume 2353.996451
_symmetry_space_group_name_H-M "C 2/C"
_symmetry_group_IT_number 15
_symmetry_cell_setting 'monoclinic'
loop_
_space_group_symop_operation_xyz
x,y,z
-x,y,1/2-z
-x,-y,-z
x,-y,1/2+z
1/2+x,1/2+y,z
1/2-x,1/2+y,1/2-z
1/2-x,1/2-y,-z
1/2+x,1/2-y,1/2+z
loop_
_atom_site_type_symbol
_atom_site_label
_atom_site_fract_x
_atom_site_fract_y
_atom_site_fract_z
Si Si1 0.500000 0.671682 0.750000
Si Si2 0.506612 0.263080 0.115564
Si Si3 0.664636 0.495534 0.474348
Si Si4 0.495357 0.853857 0.827412
Si Si5 0.749291 0.531090 0.231979
Si Si6 0.582639 0.070964 0.641746
Si Si7 0.032124 0.877712 0.050395
O O1 0.522512 0.711831 0.819471
O O2 0.749875 0.628005 0.826463
O O3 0.622401 0.199477 0.162466
O O4 0.625197 0.318799 0.110558
O O5 0.250000 0.250000 0.000000
O O6 0.500000 0.500000 0.500000
O O7 0.511174 0.535405 0.381890
O O8 0.959111 0.522778 0.559827
O O9 0.622416 0.427259 0.448412
O O10 0.500000 0.844242 0.750000
O O11 0.326143 0.912487 0.793380
O O12 0.804433 0.863136 0.934837
O O13 0.000000 0.525202 0.250000
O O14 0.739373 0.470423 0.265411
O O15 0.308394 0.094355 0.600614
#
# Coordination Sequence:
#
# PCOD9255588 Si02
#       7
#     4   8   8   8   8   8   8
#     4  12  26  42  64  90 130 174 206 260 322 372
#     4  10  23  42  64  89 123 172 209 256 311 367
#     4  10  17  31  57  97 122 148 205 262 309 372
#     4  10  18  34  62  92 125 162 208 257 309 374
#     4  11  17  30  62  93 120 158 201 258 317 372
#     4  11  22  38  61  96 125 159 210 262 319 376
#     4  10  19  37  65  94 124 162 209 261 312 378
#
# _framework density 22.090094000000001
#
# number of rings (size 3 to 8) (size 9 to 14) (size 15 to 20)
#    0.000    1.538    5.385    3.692    0.000    0.000 
#    0.000    6.154    6.769    0.000    0.000    0.000 
#    0.000    0.000    0.000    0.000    0.000    0.000 
#
# Total GULP energy -144788.620639 kJ/mol
# GULP energy per Si atom -5568.793102 kJ/mol
# Density = 2.203982 g / cm^3
# Si number density = 22.090094 Si / 1000 Ang^3
#
#
#
# Elastic Constant Matrix: (Units=GPa)
#
#
# Indices 1 2 3 4 5 6 
#
# 1 27.9773 20.7629 18.1521 0.0000 3.5596 0.0000
# 2 20.7629 138.3537 20.4445 0.0000 -11.8996 0.0000
# 3 18.1521 20.4445 124.7047 0.0001 -9.5607 0.0001
# 4 0.0000 0.0000 0.0001 33.8272 0.0000 -18.8216
# 5 3.5596 -11.8996 -9.5607 0.0000 22.4129 0.0000
# 6 0.0000 0.0000 0.0001 -18.8216 0.0000 11.1488
#
#
#
# Elastic Compliance Matrix: (Units=1/GPa)
#
#
# Indices 1 2 3 4 5 6 
#
# 1 0.047429 -0.007346 -0.006798 0.000000 -0.014333 0.000000
# 2 -0.007346 0.008825 0.000073 0.000000 0.005884 0.000000
# 3 -0.006798 0.000073 0.009389 -0.000001 0.005124 -0.000002
# 4 0.000000 0.000000 -0.000001 0.487276 -0.000003 0.822628
# 5 -0.014333 0.005884 0.005124 -0.000003 0.052203 -0.000005
# 6 0.000000 0.000000 -0.000002 0.822628 -0.000005 1.478472
#
#
# Mechanical properties :
#
#
# Convention : Reuss Voigt Hill
#
# Bulk Modulus (GPa) = 26.66491 45.52830 36.09661
# Shear Modulus (GPa) = 2.35379 28.92288 15.63833
#
# Velocity S-wave (km/s) = 1.03337 3.62237 2.66359
# Velocity P-wave (km/s) = 3.67709 6.17660 5.08288
#
# Compressibility (1/GPa) = 0.03750247
#
# Stress axis : x y z
#
# Youngs Moduli (GPa) = 21.08399 113.30869 106.50413
#
# Poissons Ratio (x) = 0.83236 0.72406
# Poissons Ratio (y) = 0.15488 -0.00783
# Poissons Ratio (z) = 0.14334 -0.00833
#
# Static dielectric constant tensor:
#      x y z
#    x 1.870640 0.000000 -0.091940 
#    y 0.000000 1.867050 0.000000 
#    z -0.091940 0.000000 1.926130 
# 
# From -- ./inp_files/234485.got.cif
#   From: 2010.05.17/outbox.cif.g08.bks.cpg/sg15_118_cif.got.tgz:234485.got - 2010.06.03 18:47:42.
