data_PCOD9255127
_publ_section_title
;
Structure prediction by ZEFSAII (Michael W. Deem and Ramdas Pophale) SiO2 
 PCOD9255127
Probable space group: C 2/C
;
_chemical_formula_sum "Si O2"
_cell_formula_units_Z 44
_cell_length_a 6.986984
_cell_length_b 17.031747
_cell_length_c 17.144355
_cell_angle_alpha 90.000000
_cell_angle_beta 57.801443
_cell_angle_gamma 90.000000
_cell_volume 1726.420157
_symmetry_space_group_name_H-M "C 2/C"
_symmetry_group_IT_number 15
_symmetry_cell_setting 'monoclinic'
loop_
_space_group_symop_operation_xyz
x,y,z
-x,y,1/2-z
-x,-y,-z
x,-y,1/2+z
1/2+x,1/2+y,z
1/2-x,1/2+y,1/2-z
1/2-x,1/2-y,-z
1/2+x,1/2-y,1/2+z
loop_
_atom_site_type_symbol
_atom_site_label
_atom_site_fract_x
_atom_site_fract_y
_atom_site_fract_z
Si Si1 0.328099 0.483617 0.896634
Si Si2 0.714539 0.822028 0.948476
Si Si3 0.859136 0.539485 0.402741
Si Si4 0.102555 0.280949 0.604944
Si Si5 0.500000 0.924752 0.250000
Si Si6 0.779647 0.363842 0.144920
O O1 0.394966 0.391719 0.893379
O O2 0.392508 0.567785 0.845329
O O3 0.112146 0.470479 0.884294
O O4 0.290555 0.509904 0.993723
O O5 0.644212 0.785740 0.880485
O O6 0.750000 0.750000 0.000000
O O7 0.496475 0.865544 0.037251
O O8 0.832505 0.630362 0.389641
O O9 0.835724 0.484387 0.332837
O O10 0.250000 0.250000 0.500000
O O11 0.165110 0.219542 0.656745
O O12 0.380632 0.875743 0.208432
#
# Coordination Sequence:
#
# PCOD9255127 Si02
#       6
#     8   8   8   8   4   8
#     4   9  13  29  50  68  90 125 171 201 225 287
#     4  10  17  28  49  79  97 121 166 219 239 275
#     4   9  14  27  49  74  89 126 169 203 228 290
#     4   9  16  30  53  75  96 125 169 211 242 283
#     4  10  18  28  50  74  96 132 172 196 248 300
#     4  10  17  32  52  71  97 131 164 206 249 298
#
# _framework density 25.486263000000001
#
# number of rings (size 3 to 8) (size 9 to 14) (size 15 to 20)
#    0.000    2.545    9.091    0.000    0.000    0.000 
#    0.000    6.364    0.000    0.000    0.000    0.000 
#    0.000    0.000    0.000    0.000    0.000    0.000 
#
# Total GULP energy -122634.011816 kJ/mol
# GULP energy per Si atom -5574.273264 kJ/mol
# Density = 2.542825 g / cm^3
# Si number density = 25.486263 Si / 1000 Ang^3
#
#
#
# Elastic Constant Matrix: (Units=GPa)
#
#
# Indices 1 2 3 4 5 6 
#
# 1 76.7473 65.2646 18.5276 0.0000 41.1156 0.0000
# 2 65.2646 248.4070 36.3900 0.0000 52.2128 0.0000
# 3 18.5276 36.3900 107.6440 0.0000 33.2677 0.0000
# 4 0.0000 0.0000 0.0000 20.2583 0.0000 31.2627
# 5 41.1156 52.2128 33.2677 0.0000 50.6992 0.0000
# 6 0.0000 0.0000 0.0000 31.2627 0.0000 34.7764
#
#
#
# Elastic Compliance Matrix: (Units=1/GPa)
#
#
# Indices 1 2 3 4 5 6 
#
# 1 0.025112 -0.002985 0.002547 0.000000 -0.018962 0.000000
# 2 -0.002985 0.005494 -0.000430 0.000000 -0.002955 0.000000
# 3 0.002547 -0.000430 0.011915 0.000000 -0.009441 0.000000
# 4 0.000000 0.000000 0.000000 -0.127458 0.000000 0.114580
# 5 -0.018962 -0.002955 -0.009441 0.000000 0.044340 0.000000
# 6 0.000000 0.000000 0.000000 0.114580 0.000000 -0.074248
#
#
# Mechanical properties :
#
#
# Convention : Reuss Voigt Hill
#
# Bulk Modulus (GPa) = 24.51928 74.79583 49.65756
# Shear Modulus (GPa) = -50.24385 41.98784 -4.12801
#
# Velocity S-wave (km/s) = -4.44487 4.06331 -1.27405
# Velocity P-wave (km/s) = 4.08669 7.17113 4.16678
#
# Compressibility (1/GPa) = 0.04078423
#
# Stress axis : x y z
#
# Youngs Moduli (GPa) = 39.82151 182.01424 83.93062
#
# Poissons Ratio (x) = 0.54335 -0.21379
# Poissons Ratio (y) = 0.11888 0.03612
# Poissons Ratio (z) = -0.10144 0.07832
#
# Static dielectric constant tensor:
#      x y z
#    x 2.211100 0.000000 -0.111160 
#    y 0.000000 2.074680 0.000000 
#    z -0.111160 0.000000 2.021960 
# 
# From -- ./inp_files/189691.got.cif
#   From: 2010.05.17/outbox.cif.g08.bks.cpg/sg15_95_cif.got.tgz:189691.got - 2010.06.03 18:47:42.
