data_PCOD9255930
_publ_section_title
;
Structure prediction by ZEFSAII (Michael W. Deem and Ramdas Pophale) SiO2 
 PCOD9255930
Probable space group: C 2/C
;
_chemical_formula_sum "Si O2"
_cell_formula_units_Z 60
_cell_length_a 13.215598
_cell_length_b 19.333748
_cell_length_c 16.584604
_cell_angle_alpha 90.000000
_cell_angle_beta 48.212724
_cell_angle_gamma 90.000000
_cell_volume 3159.569108
_symmetry_space_group_name_H-M "C 2/C"
_symmetry_group_IT_number 15
_symmetry_cell_setting 'monoclinic'
loop_
_space_group_symop_operation_xyz
x,y,z
-x,y,1/2-z
-x,-y,-z
x,-y,1/2+z
1/2+x,1/2+y,z
1/2-x,1/2+y,1/2-z
1/2-x,1/2-y,-z
1/2+x,1/2-y,1/2+z
loop_
_atom_site_type_symbol
_atom_site_label
_atom_site_fract_x
_atom_site_fract_y
_atom_site_fract_z
Si Si1 0.146470 0.330599 0.581708
Si Si2 0.068611 0.169554 0.963129
Si Si3 0.233111 0.134746 0.325069
Si Si4 0.256283 0.196361 0.140852
Si Si5 0.869656 0.473704 0.862746
Si Si6 0.552823 0.683603 0.632469
Si Si7 0.500000 0.206978 0.750000
Si Si8 0.703420 0.115595 0.543381
O O1 0.184511 0.316544 0.655726
O O2 0.078275 0.405186 0.618015
O O3 0.290622 0.339558 0.460777
O O4 0.065116 0.264150 0.599349
O O5 0.123426 0.248157 0.937037
O O6 0.183209 0.127570 0.948557
O O7 0.043592 0.149760 0.883089
O O8 0.923940 0.154721 0.080739
O O9 0.272204 0.150979 0.213090
O O10 0.268388 0.060602 0.349329
O O11 0.119888 0.243359 0.219178
O O12 0.249724 0.148782 0.065241
O O13 0.815068 0.533257 0.948601
O O14 0.000000 0.504586 0.750000
O O15 0.500000 0.674892 0.750000
O O16 0.571732 0.158278 0.644972
#
# Coordination Sequence:
#
# PCOD9255930 Si02
#       8
#     8   8   8   8   8   8   4   8
#     4   8  19  33  57  80 114 152 180 229 291 343
#     4  10  21  35  58  88 115 146 188 246 289 326
#     4   9  20  37  57  88 112 154 185 235 289 337
#     4  11  20  34  63  86 113 144 202 241 276 336
#     4  10  21  40  61  74 116 161 186 219 300 355
#     4  10  17  33  57  88 114 143 193 240 286 329
#     4  10  20  38  56  84 118 148 188 234 296 326
#     4  11  22  38  60  83 114 160 187 236 285 347
#
# _framework density 18.989930999999999
#
# number of rings (size 3 to 8) (size 9 to 14) (size 15 to 20)
#    0.800    1.333    0.667    4.400    1.867    0.533 
#    0.000    2.000    1.467    0.000    0.000    0.000 
#    0.000    0.000    0.000    0.000    0.000    0.000 
#
# Total GULP energy -167008.935403 kJ/mol
# GULP energy per Si atom -5566.964513 kJ/mol
# Density = 1.894671 g / cm^3
# Si number density = 18.989931 Si / 1000 Ang^3
#
#
#
# Elastic Constant Matrix: (Units=GPa)
#
#
# Indices 1 2 3 4 5 6 
#
# 1 61.6374 10.8250 36.9679 0.0000 -2.7348 0.0000
# 2 10.8250 58.8819 18.8809 0.0000 -0.7048 0.0000
# 3 36.9679 18.8809 80.8880 0.0000 7.8365 0.0000
# 4 0.0000 0.0000 0.0000 17.8962 0.0001 3.2548
# 5 -2.7348 -0.7048 7.8365 0.0001 27.3789 0.0000
# 6 0.0000 0.0000 0.0000 3.2548 0.0000 11.1087
#
#
#
# Elastic Compliance Matrix: (Units=1/GPa)
#
#
# Indices 1 2 3 4 5 6 
#
# 1 0.023150 -0.000681 -0.010947 0.000000 0.005428 0.000000
# 2 -0.000681 0.018459 -0.004152 0.000000 0.001596 0.000000
# 3 -0.010947 -0.004152 0.018978 0.000000 -0.006632 0.000000
# 4 0.000000 0.000000 0.000000 0.059023 0.000000 -0.017293
# 5 0.005428 0.001596 -0.006632 0.000000 0.039006 0.000000
# 6 0.000000 0.000000 0.000000 -0.017293 0.000000 0.095086
#
#
# Mechanical properties :
#
#
# Convention : Reuss Voigt Hill
#
# Bulk Modulus (GPa) = 34.45136 37.19500 35.82318
# Shear Modulus (GPa) = 16.95274 20.25898 18.60586
#
# Velocity S-wave (km/s) = 2.99109 3.26978 3.13353
# Velocity P-wave (km/s) = 5.48727 5.82104 5.65661
#
# Compressibility (1/GPa) = 0.02902643
#
# Stress axis : x y z
#
# Youngs Moduli (GPa) = 43.19657 54.17470 52.69362
#
# Poissons Ratio (x) = 0.03688 0.57684
# Poissons Ratio (y) = 0.02940 0.21879
# Poissons Ratio (z) = 0.47288 0.22494
#
# Static dielectric constant tensor:
#      x y z
#    x 1.673530 0.000000 -0.037660 
#    y 0.000000 1.693230 0.000000 
#    z -0.037660 0.000000 1.730060 
# 
# From -- ./inp_files/206712.got.cif
#   From: 2010.05.17/outbox.cif.g08.bks.cpg/sg15_104_cif.got.tgz:206712.got - 2010.06.03 18:47:42.
