data_PCOD9255556
_publ_section_title
;
Structure prediction by ZEFSAII (Michael W. Deem and Ramdas Pophale) SiO2 
 PCOD9255556
Probable space group: C 2/C
;
_chemical_formula_sum "Si O2"
_cell_formula_units_Z 64
_cell_length_a 8.240693
_cell_length_b 16.401341
_cell_length_c 24.429615
_cell_angle_alpha 90.000000
_cell_angle_beta 69.880417
_cell_angle_gamma 90.000000
_cell_volume 3100.377308
_symmetry_space_group_name_H-M "C 2/C"
_symmetry_group_IT_number 15
_symmetry_cell_setting 'monoclinic'
loop_
_space_group_symop_operation_xyz
x,y,z
-x,y,1/2-z
-x,-y,-z
x,-y,1/2+z
1/2+x,1/2+y,z
1/2-x,1/2+y,1/2-z
1/2-x,1/2-y,-z
1/2+x,1/2-y,1/2+z
loop_
_atom_site_type_symbol
_atom_site_label
_atom_site_fract_x
_atom_site_fract_y
_atom_site_fract_z
Si Si1 0.219453 0.635140 0.025295
Si Si2 0.424424 0.098370 0.205326
Si Si3 0.111698 0.415987 0.979946
Si Si4 0.823486 0.033671 0.549619
Si Si5 0.101763 0.805763 0.789006
Si Si6 0.960272 0.887720 0.389834
Si Si7 0.197671 0.726985 0.130446
Si Si8 0.660232 0.452202 0.649835
O O1 0.220836 0.551242 0.060716
O O2 0.275700 0.703514 0.061873
O O3 0.026006 0.648807 0.025572
O O4 0.333307 0.620880 0.957824
O O5 0.500000 0.053988 0.250000
O O6 0.282462 0.162759 0.243712
O O7 0.576893 0.150968 0.161143
O O8 0.315434 0.046098 0.175350
O O9 0.255337 0.426453 0.917271
O O10 0.215549 0.405530 0.023781
O O11 0.000000 0.500000 0.000000
O O12 0.867666 0.078528 0.600642
O O13 0.000000 0.000000 0.500000
O O14 0.157474 0.761994 0.839213
O O15 0.000000 0.763727 0.750000
O O16 0.983884 0.885396 0.817281
O O17 0.931055 0.802874 0.362848
O O18 0.911567 0.958632 0.353330
#
# Coordination Sequence:
#
# PCOD9255556 Si02
#       8
#     8   8   8   8   8   8   8   8
#     4  10  19  34  55  83 122 160 188 217 272 365
#     4   9  20  39  59  81 102 143 200 244 289 347
#     4  10  17  31  55  84 113 156 187 226 269 333
#     4   9  17  31  51  77 121 152 189 222 262 325
#     4   9  21  39  61  81 101 146 206 245 282 347
#     4  11  22  34  53  95 119 149 186 233 287 346
#     4  11  21  36  60  82 119 156 183 236 299 343
#     4  11  18  36  63  81 111 144 203 234 281 337
#
# _framework density 20.642648000000001
#
# number of rings (size 3 to 8) (size 9 to 14) (size 15 to 20)
#    0.000    2.000    5.000    1.125    1.750    0.000 
#    0.000    9.375    0.000    0.000    0.000    0.000 
#    0.000    0.000    0.000    0.000    0.000    0.000 
#
# Total GULP energy -178144.500016 kJ/mol
# GULP energy per Si atom -5567.015625 kJ/mol
# Density = 2.059566 g / cm^3
# Si number density = 20.642648 Si / 1000 Ang^3
#
#
#
# Elastic Constant Matrix: (Units=GPa)
#
#
# Indices 1 2 3 4 5 6 
#
# 1 93.0692 19.9342 37.1146 0.0000 47.9801 0.0000
# 2 19.9342 49.7973 36.6766 0.0000 30.8171 0.0000
# 3 37.1146 36.6766 62.5249 0.0000 31.6857 0.0000
# 4 0.0000 0.0000 0.0000 8.3056 0.0000 0.7020
# 5 47.9801 30.8171 31.6857 0.0000 68.8011 0.0000
# 6 0.0000 0.0000 0.0000 0.7020 0.0000 9.1798
#
#
#
# Elastic Compliance Matrix: (Units=1/GPa)
#
#
# Indices 1 2 3 4 5 6 
#
# 1 0.019232 0.006501 -0.009075 0.000000 -0.012144 0.000000
# 2 0.006501 0.041495 -0.021501 0.000000 -0.013217 0.000000
# 3 -0.009075 -0.021501 0.033792 0.000000 0.000397 0.000000
# 4 0.000000 0.000000 0.000000 0.121184 0.000000 -0.009267
# 5 -0.012144 -0.013217 0.000397 0.000000 0.028741 0.000000
# 6 0.000000 0.000000 0.000000 -0.009267 0.000000 0.109644
#
#
# Mechanical properties :
#
#
# Convention : Reuss Voigt Hill
#
# Bulk Modulus (GPa) = 21.56669 43.64914 32.60792
# Shear Modulus (GPa) = 11.97049 24.70170 18.33610
#
# Velocity S-wave (km/s) = 2.41071 3.46299 2.98361
# Velocity P-wave (km/s) = 4.26837 6.09761 5.26307
#
# Compressibility (1/GPa) = 0.04636780
#
# Stress axis : x y z
#
# Youngs Moduli (GPa) = 51.99650 24.09942 29.59302
#
# Poissons Ratio (x) = -0.15666 0.26856
# Poissons Ratio (y) = -0.33801 0.63628
# Poissons Ratio (z) = 0.47187 0.51816
#
# Static dielectric constant tensor:
#      x y z
#    x 1.799200 0.000000 0.029440 
#    y 0.000000 1.750960 0.000000 
#    z 0.029440 0.000000 1.792400 
# 
# From -- ./inp_files/265235.got.cif
#   From: 2010.05.17/outbox.cif.g08.bks.cpg/sg15_133_cif.got.tgz:265235.got - 2010.06.03 18:47:42.
