data_PCOD9255601
_publ_section_title
;
Structure prediction by ZEFSAII (Michael W. Deem and Ramdas Pophale) SiO2 
 PCOD9255601
Probable space group: C 2/C
;
_chemical_formula_sum "Si O2"
_cell_formula_units_Z 56
_cell_length_a 15.697948
_cell_length_b 9.586032
_cell_length_c 21.481958
_cell_angle_alpha 90.000000
_cell_angle_beta 67.735385
_cell_angle_gamma 90.000000
_cell_volume 2991.615091
_symmetry_space_group_name_H-M "C 2/C"
_symmetry_group_IT_number 15
_symmetry_cell_setting 'monoclinic'
loop_
_space_group_symop_operation_xyz
x,y,z
-x,y,1/2-z
-x,-y,-z
x,-y,1/2+z
1/2+x,1/2+y,z
1/2-x,1/2+y,1/2-z
1/2-x,1/2-y,-z
1/2+x,1/2-y,1/2+z
loop_
_atom_site_type_symbol
_atom_site_label
_atom_site_fract_x
_atom_site_fract_y
_atom_site_fract_z
Si Si1 0.866553 0.748376 0.033229
Si Si2 0.600049 0.088847 0.605046
Si Si3 0.771644 0.039688 0.019820
Si Si4 0.448060 0.648116 0.021912
Si Si5 0.398152 0.177123 0.650355
Si Si6 0.108237 0.802419 0.715744
Si Si7 0.747204 0.010188 0.380922
O O1 0.817601 0.896239 0.034330
O O2 0.809460 0.653465 0.094869
O O3 0.871455 0.676125 0.964267
O O4 0.972319 0.752496 0.026351
O O5 0.669857 0.958153 0.578795
O O6 0.488927 0.078512 0.633794
O O7 0.620226 0.183756 0.659516
O O8 0.848605 0.151222 0.018053
O O9 0.767366 0.035422 0.946330
O O10 0.432934 0.694964 0.097290
O O11 0.500000 0.500000 0.000000
O O12 0.365531 0.237260 0.725127
O O13 0.317313 0.097960 0.636882
O O14 0.163062 0.940268 0.680863
O O15 0.000000 0.833411 0.750000
#
# Coordination Sequence:
#
# PCOD9255601 Si02
#       7
#     8   8   8   8   8   8   8
#     4   9  16  32  57  83 107 137 184 229 271 317
#     4   9  16  33  56  79 100 139 191 220 261 315
#     4  10  17  31  60  80 110 142 180 226 271 334
#     4   9  20  34  53  85 116 140 176 226 280 336
#     4  10  23  35  52  85 111 142 183 230 281 322
#     4  10  20  36  56  74 107 146 191 226 263 338
#     4  11  20  36  57  81 110 140 190 234 271 327
#
# _framework density 18.718985
#
# number of rings (size 3 to 8) (size 9 to 14) (size 15 to 20)
#    0.000    2.286    2.857    0.857    2.000    6.857 
#    0.000    0.000    0.000    0.000    0.000    0.000 
#    0.000    0.000    0.000    0.000    0.000    0.000 
#
# Total GULP energy -155922.963869 kJ/mol
# GULP energy per Si atom -5568.677281 kJ/mol
# Density = 1.867638 g / cm^3
# Si number density = 18.718985 Si / 1000 Ang^3
#
#
#
# Elastic Constant Matrix: (Units=GPa)
#
#
# Indices 1 2 3 4 5 6 
#
# 1 117.7702 27.4704 46.4668 0.0000 -0.5288 0.0000
# 2 27.4704 31.9955 27.3563 0.0000 4.1264 0.0000
# 3 46.4668 27.3563 82.0339 0.0000 -9.8905 0.0000
# 4 0.0000 0.0000 0.0000 9.4615 0.0000 -4.2501
# 5 -0.5288 4.1264 -9.8905 0.0000 24.8886 0.0000
# 6 0.0000 0.0000 0.0000 -4.2501 0.0000 31.8077
#
#
#
# Elastic Compliance Matrix: (Units=1/GPa)
#
#
# Indices 1 2 3 4 5 6 
#
# 1 0.011749 -0.005938 -0.004754 0.000000 -0.000655 0.000000
# 2 -0.005938 0.051672 -0.015666 0.000000 -0.014919 0.000000
# 3 -0.004754 -0.015666 0.021435 0.000000 0.011014 0.000000
# 4 0.000000 0.000000 0.000000 0.112440 0.000000 0.015024
# 5 -0.000655 -0.014919 0.011014 0.000000 0.047016 0.000000
# 6 0.000000 0.000000 0.000000 0.015024 0.000000 0.033446
#
#
# Mechanical properties :
#
#
# Convention : Reuss Voigt Hill
#
# Bulk Modulus (GPa) = 31.11484 48.26520 39.69002
# Shear Modulus (GPa) = 14.65473 21.93197 18.29335
#
# Velocity S-wave (km/s) = 2.80104 3.42664 3.12951
# Velocity P-wave (km/s) = 5.20761 6.44173 5.85727
#
# Compressibility (1/GPa) = 0.03213901
#
# Stress axis : x y z
#
# Youngs Moduli (GPa) = 85.11436 19.35296 46.65278
#
# Poissons Ratio (x) = 0.11493 0.22177
# Poissons Ratio (y) = 0.50545 0.73087
# Poissons Ratio (z) = 0.40460 0.30319
#
# Static dielectric constant tensor:
#      x y z
#    x 1.732120 0.000000 -0.023060 
#    y 0.000000 1.684490 0.000000 
#    z -0.023060 0.000000 1.624020 
# 
# From -- ./inp_files/203934.got.cif
#   From: 2010.05.17/outbox.cif.g08.bks.cpg/sg15_102_cif.got.tgz:203934.got - 2010.06.03 18:47:42.
