data_PCOD9255306
_publ_section_title
;
Structure prediction by ZEFSAII (Michael W. Deem and Ramdas Pophale) SiO2 
 PCOD9255306
Probable space group: C 2/C
;
_chemical_formula_sum "Si O2"
_cell_formula_units_Z 56
_cell_length_a 26.096728
_cell_length_b 13.101589
_cell_length_c 9.588908
_cell_angle_alpha 90.000000
_cell_angle_beta 125.554510
_cell_angle_gamma 90.000000
_cell_volume 2667.289782
_symmetry_space_group_name_H-M "C 2/C"
_symmetry_group_IT_number 15
_symmetry_cell_setting 'monoclinic'
loop_
_space_group_symop_operation_xyz
x,y,z
-x,y,1/2-z
-x,-y,-z
x,-y,1/2+z
1/2+x,1/2+y,z
1/2-x,1/2+y,1/2-z
1/2-x,1/2-y,-z
1/2+x,1/2-y,1/2+z
loop_
_atom_site_type_symbol
_atom_site_label
_atom_site_fract_x
_atom_site_fract_y
_atom_site_fract_z
Si Si1 0.804633 0.944298 0.145464
Si Si2 0.226653 0.379642 0.613205
Si Si3 0.925086 0.730846 0.126763
Si Si4 0.115364 0.964348 0.487186
Si Si5 0.846499 0.728593 0.278476
Si Si6 0.069778 0.825307 0.844112
Si Si7 0.845008 0.269042 0.249126
O O1 0.801939 0.823660 0.164729
O O2 0.745438 0.005415 0.108308
O O3 0.861646 0.994211 0.327002
O O4 0.822992 0.966109 0.015410
O O5 0.191334 0.359769 0.702588
O O6 0.186551 0.341027 0.416580
O O7 0.289370 0.307132 0.712480
O O8 0.890675 0.704674 0.217513
O O9 0.000000 0.709668 0.250000
O O10 0.914481 0.852894 0.079771
O O11 0.883332 0.681472 0.936915
O O12 0.070699 0.053144 0.360583
O O13 0.889158 0.777754 0.467323
O O14 0.103106 0.794592 0.754462
O O15 0.000000 0.784858 0.750000
#
# Coordination Sequence:
#
# PCOD9255306 Si02
#       7
#     8   8   8   8   8   8   8
#     4  10  19  34  51  74 111 143 182 221 261 311
#     4  10  19  38  54  69 112 148 185 229 258 322
#     4  11  20  33  48  76 115 144 177 224 267 321
#     4  10  18  31  46  77 106 153 181 205 253 325
#     4   9  22  32  52  82 107 149 185 215 273 312
#     4  10  17  30  48  73 107 148 186 209 244 322
#     4  10  20  32  51  72  97 151 186 210 271 310
#
# _framework density 20.995094000000002
#
# number of rings (size 3 to 8) (size 9 to 14) (size 15 to 20)
#    0.000    2.000    2.857    1.286    2.000    0.571 
#    0.000    5.714    0.000    0.000    0.000    0.000 
#    0.000   19.429    0.000    0.000    0.000    0.000 
#
# Total GULP energy -156316.341866 kJ/mol
# GULP energy per Si atom -5582.726495 kJ/mol
# Density = 2.094731 g / cm^3
# Si number density = 20.995094 Si / 1000 Ang^3
#
#
#
# Elastic Constant Matrix: (Units=GPa)
#
#
# Indices 1 2 3 4 5 6 
#
# 1 137.4658 29.2164 65.5941 0.0000 -4.3864 0.0000
# 2 29.2164 21.1537 8.7971 0.0000 7.0275 0.0000
# 3 65.5941 8.7971 85.2111 0.0000 -20.8609 0.0000
# 4 0.0000 0.0000 0.0000 5.8477 0.0000 -1.8939
# 5 -4.3864 7.0275 -20.8609 0.0000 33.6746 0.0000
# 6 0.0000 0.0000 0.0000 -1.8939 0.0000 22.1882
#
#
#
# Elastic Compliance Matrix: (Units=1/GPa)
#
#
# Indices 1 2 3 4 5 6 
#
# 1 0.016129 -0.017434 -0.010858 0.000000 -0.000987 0.000000
# 2 -0.017434 0.076664 0.001217 0.000000 -0.017516 0.000000
# 3 -0.010858 0.001217 0.023056 0.000000 0.012615 0.000000
# 4 0.000000 0.000000 0.000000 0.175868 0.000000 0.015011
# 5 -0.000987 -0.017516 0.012615 0.000000 0.041037 0.000000
# 6 0.000000 0.000000 0.000000 0.015011 0.000000 0.046350
#
#
# Mechanical properties :
#
#
# Convention : Reuss Voigt Hill
#
# Bulk Modulus (GPa) = 16.20711 50.11618 33.16165
# Shear Modulus (GPa) = 11.01756 21.69030 16.35393
#
# Velocity S-wave (km/s) = 2.29327 3.21769 2.79398
# Velocity P-wave (km/s) = 3.84036 6.14223 5.12227
#
# Compressibility (1/GPa) = 0.06170130
#
# Stress axis : x y z
#
# Youngs Moduli (GPa) = 61.99883 13.04392 43.37180
#
# Poissons Ratio (x) = 0.22740 0.47093
# Poissons Ratio (y) = 1.08086 -0.05279
# Poissons Ratio (z) = 0.67318 -0.01588
#
# Static dielectric constant tensor:
#      x y z
#    x 1.751820 0.000000 0.006870 
#    y 0.000000 1.752050 0.000000 
#    z 0.006870 0.000000 1.797200 
# 
# From -- ./inp_files/61981.got.cif
#   From: 2010.05.17/outbox.cif.g08.bks.cpg/sg15_31_cif.got.tgz:61981.got - 2010.06.03 18:47:42.
