data_PCOD9255843
_publ_section_title
;
Structure prediction by ZEFSAII (Michael W. Deem and Ramdas Pophale) SiO2 
 PCOD9255843
Probable space group: C 2/C
;
_chemical_formula_sum "Si O2"
_cell_formula_units_Z 56
_cell_length_a 12.801581
_cell_length_b 21.210170
_cell_length_c 10.724687
_cell_angle_alpha 90.000000
_cell_angle_beta 52.063782
_cell_angle_gamma 90.000000
_cell_volume 2296.687014
_symmetry_space_group_name_H-M "C 2/C"
_symmetry_group_IT_number 15
_symmetry_cell_setting 'monoclinic'
loop_
_space_group_symop_operation_xyz
x,y,z
-x,y,1/2-z
-x,-y,-z
x,-y,1/2+z
1/2+x,1/2+y,z
1/2-x,1/2+y,1/2-z
1/2-x,1/2-y,-z
1/2+x,1/2-y,1/2+z
loop_
_atom_site_type_symbol
_atom_site_label
_atom_site_fract_x
_atom_site_fract_y
_atom_site_fract_z
Si Si1 0.097063 0.260695 0.388980
Si Si2 0.340503 0.095796 0.143179
Si Si3 0.883616 0.716892 0.239285
Si Si4 0.147790 0.062695 0.977560
Si Si5 0.173350 0.187456 0.098970
Si Si6 0.878725 0.590496 0.648927
Si Si7 0.837888 0.016633 0.786633
O O1 0.234358 0.242697 0.359483
O O2 0.090534 0.215911 0.274988
O O3 0.250000 0.250000 0.000000
O O4 0.114473 0.334265 0.343825
O O5 0.370726 0.140986 0.237123
O O6 0.284754 0.144871 0.084374
O O7 0.229077 0.043219 0.234134
O O8 0.475545 0.068200 0.990019
O O9 0.000000 0.731702 0.250000
O O10 0.958207 0.743916 0.062369
O O11 0.304446 0.064075 0.825584
O O12 0.083936 0.049350 0.887404
O O13 0.116425 0.133026 0.049300
O O14 0.122147 0.013106 0.108755
O O15 0.779043 0.568246 0.612066
#
# Coordination Sequence:
#
# PCOD9255843 Si02
#       7
#     8   8   8   8   8   8   8
#     4  10  20  37  57  88 122 156 206 254 302 358
#     4   9  19  31  48  80 116 158 194 244 303 367
#     4  10  21  37  58  85 125 164 200 246 306 371
#     4   9  19  31  52  74 117 155 200 240 303 360
#     4  10  17  33  51  75 112 154 201 247 295 345
#     4   9  18  33  50  79 119 156 194 247 303 363
#     4   9  18  31  46  79 114 158 194 241 298 372
#
# _framework density 24.382949
#
# number of rings (size 3 to 8) (size 9 to 14) (size 15 to 20)
#    0.857    1.714    1.429    0.857    0.000    4.571 
#    2.571    1.429    0.000    0.000    0.000    9.000 
#    0.000    0.000    0.000    0.000    0.000    0.000 
#
# Total GULP energy -155886.668705 kJ/mol
# GULP energy per Si atom -5567.381025 kJ/mol
# Density = 2.432745 g / cm^3
# Si number density = 24.382949 Si / 1000 Ang^3
#
#
#
# Elastic Constant Matrix: (Units=GPa)
#
#
# Indices 1 2 3 4 5 6 
#
# 1 72.6670 33.6811 6.9610 0.0000 15.7593 0.0000
# 2 33.6811 134.3178 39.9714 0.0000 22.6678 0.0000
# 3 6.9610 39.9714 52.5837 0.0000 18.8331 0.0000
# 4 0.0000 0.0000 0.0000 38.6568 0.0000 -1.7493
# 5 15.7593 22.6678 18.8331 0.0000 33.6691 0.0000
# 6 0.0000 0.0000 0.0000 -1.7493 0.0000 247.5752
#
#
#
# Elastic Compliance Matrix: (Units=1/GPa)
#
#
# Indices 1 2 3 4 5 6 
#
# 1 0.016837 -0.004033 0.003360 0.000000 -0.007045 0.000000
# 2 -0.004033 0.010833 -0.007209 0.000000 -0.001373 0.000000
# 3 0.003360 -0.007209 0.028609 0.000000 -0.012722 0.000000
# 4 0.000000 0.000000 0.000000 0.025877 0.000000 0.000183
# 5 -0.007045 -0.001373 -0.012722 0.000000 0.041039 0.000000
# 6 0.000000 0.000000 0.000000 0.000183 0.000000 0.004040
#
#
# Mechanical properties :
#
#
# Convention : Reuss Voigt Hill
#
# Bulk Modulus (GPa) = 24.68246 46.75506 35.71876
# Shear Modulus (GPa) = 31.94793 75.91055 53.92924
#
# Velocity S-wave (km/s) = 3.62367 5.58572 4.70804
# Velocity P-wave (km/s) = 5.25860 7.79854 6.65094
#
# Compressibility (1/GPa) = 0.04051460
#
# Stress axis : x y z
#
# Youngs Moduli (GPa) = 59.39444 92.30647 34.95411
#
# Poissons Ratio (x) = 0.37226 -0.11744
# Poissons Ratio (y) = 0.23953 0.25199
# Poissons Ratio (z) = -0.19956 0.66546
#
# Static dielectric constant tensor:
#      x y z
#    x 2.046080 0.000000 0.049570 
#    y 0.000000 1.937470 0.000000 
#    z 0.049570 0.000000 1.914500 
# 
# From -- ./inp_files/34224.got.cif
#   From: 2010.05.17/outbox.cif.g08.bks.cpg/sg15_18_cif.got.tgz:34224.got - 2010.06.03 18:47:42.
