data_PCOD9255721
_publ_section_title
;
Structure prediction by ZEFSAII (Michael W. Deem and Ramdas Pophale) SiO2 
 PCOD9255721
Probable space group: C 2/C
;
_chemical_formula_sum "Si O2"
_cell_formula_units_Z 48
_cell_length_a 14.733243
_cell_length_b 19.498795
_cell_length_c 13.676608
_cell_angle_alpha 90.000000
_cell_angle_beta 134.568395
_cell_angle_gamma 90.000000
_cell_volume 2799.087757
_symmetry_space_group_name_H-M "C 2/C"
_symmetry_group_IT_number 15
_symmetry_cell_setting 'monoclinic'
loop_
_space_group_symop_operation_xyz
x,y,z
-x,y,1/2-z
-x,-y,-z
x,-y,1/2+z
1/2+x,1/2+y,z
1/2-x,1/2+y,1/2-z
1/2-x,1/2-y,-z
1/2+x,1/2-y,1/2+z
loop_
_atom_site_type_symbol
_atom_site_label
_atom_site_fract_x
_atom_site_fract_y
_atom_site_fract_z
Si Si1 0.429461 0.109639 0.298430
Si Si2 0.242557 0.229560 0.110611
Si Si3 0.017282 0.022128 0.374048
Si Si4 0.905764 0.869546 0.103333
Si Si5 0.808818 0.620146 0.899352
Si Si6 0.718014 0.505343 0.680232
O O1 0.500000 0.096525 0.250000
O O2 0.358724 0.183105 0.234634
O O3 0.543019 0.112506 0.462557
O O4 0.327566 0.049359 0.238660
O O5 0.220064 0.300433 0.148551
O O6 0.250000 0.250000 0.000000
O O7 0.125933 0.176284 0.013584
O O8 0.146445 0.037431 0.531318
O O9 0.000000 0.047805 0.250000
O O10 0.024806 0.939084 0.372579
O O11 0.892810 0.035093 0.344410
O O12 0.779048 0.890517 0.069068
O O13 0.000000 0.831594 0.250000
O O14 0.769354 0.565463 0.788624
#
# Coordination Sequence:
#
# PCOD9255721 Si02
#       6
#     8   8   8   8   8   8
#     4  12  22  37  53  85 124 160 188 226 293 351
#     4  10  21  32  54  83 114 155 183 230 301 356
#     4  10  19  36  58  80 114 146 195 236 288 335
#     4  10  17  32  55  78 116 144 179 231 287 347
#     4  11  22  33  53  82 118 153 189 231 283 349
#     4  11  22  36  55  84 118 157 195 235 282 350
#
# _framework density 17.148444000000001
#
# number of rings (size 3 to 8) (size 9 to 14) (size 15 to 20)
#    0.000    1.333    8.333    0.500    4.667    0.000 
#    0.000    0.000    0.000    0.000    0.000    2.333 
#    0.000    0.167    0.000    0.000    0.000    0.000 
#
# Total GULP energy -133701.423989 kJ/mol
# GULP energy per Si atom -5570.892666 kJ/mol
# Density = 1.710941 g / cm^3
# Si number density = 17.148444 Si / 1000 Ang^3
#
#
#
# Elastic Constant Matrix: (Units=GPa)
#
#
# Indices 1 2 3 4 5 6 
#
# 1 62.8774 36.5383 42.6189 0.0000 10.6010 0.0000
# 2 36.5383 98.0920 54.0102 0.0000 4.6950 0.0000
# 3 42.6189 54.0102 158.1452 0.0000 9.6648 0.0000
# 4 0.0000 0.0000 0.0000 33.1317 0.0000 -4.4660
# 5 10.6010 4.6950 9.6648 0.0000 30.2526 0.0000
# 6 0.0000 0.0000 0.0000 -4.4660 0.0000 24.1938
#
#
#
# Elastic Compliance Matrix: (Units=1/GPa)
#
#
# Indices 1 2 3 4 5 6 
#
# 1 0.023058 -0.006260 -0.003714 0.000000 -0.005922 0.000000
# 2 -0.006260 0.014266 -0.003247 0.000000 0.001017 0.000000
# 3 -0.003714 -0.003247 0.008489 0.000000 -0.000907 0.000000
# 4 0.000000 0.000000 0.000000 0.030953 0.000000 0.005714
# 5 -0.005922 0.001017 -0.000907 0.000000 0.035262 0.000000
# 6 0.000000 0.000000 0.000000 0.005714 0.000000 0.042388
#
#
# Mechanical properties :
#
#
# Convention : Reuss Voigt Hill
#
# Bulk Modulus (GPa) = 51.62876 65.04993 58.33934
# Shear Modulus (GPa) = 26.69329 29.91210 28.30269
#
# Velocity S-wave (km/s) = 3.94966 4.18102 4.06698
# Velocity P-wave (km/s) = 7.13947 7.83094 7.49319
#
# Compressibility (1/GPa) = 0.01936905
#
# Stress axis : x y z
#
# Youngs Moduli (GPa) = 43.36960 70.09855 117.80618
#
# Poissons Ratio (x) = 0.43885 0.43752
# Poissons Ratio (y) = 0.27151 0.38253
# Poissons Ratio (z) = 0.16107 0.22762
#
# Static dielectric constant tensor:
#      x y z
#    x 1.597700 0.000000 0.013070 
#    y 0.000000 1.632040 0.000000 
#    z 0.013070 0.000000 1.682220 
# 
# From -- ./inp_files/156027.got.cif
#   From: 2010.05.17/outbox.cif.g08.bks.cpg/sg15_79_cif.got.tgz:156027.got - 2010.06.03 18:47:42.
