data_PCOD9255128
_publ_section_title
;
Structure prediction by ZEFSAII (Michael W. Deem and Ramdas Pophale) SiO2 
 PCOD9255128
Probable space group: C 2/C
;
_chemical_formula_sum "Si O2"
_cell_formula_units_Z 64
_cell_length_a 30.057940
_cell_length_b 18.131829
_cell_length_c 14.803790
_cell_angle_alpha 90.000000
_cell_angle_beta 27.747472
_cell_angle_gamma 90.000000
_cell_volume 3756.330843
_symmetry_space_group_name_H-M "C 2/C"
_symmetry_group_IT_number 15
_symmetry_cell_setting 'monoclinic'
loop_
_space_group_symop_operation_xyz
x,y,z
-x,y,1/2-z
-x,-y,-z
x,-y,1/2+z
1/2+x,1/2+y,z
1/2-x,1/2+y,1/2-z
1/2-x,1/2-y,-z
1/2+x,1/2-y,1/2+z
loop_
_atom_site_type_symbol
_atom_site_label
_atom_site_fract_x
_atom_site_fract_y
_atom_site_fract_z
Si Si1 0.394471 0.208782 0.975845
Si Si2 0.391664 0.391254 0.293326
Si Si3 0.103102 0.863128 0.909227
Si Si4 0.263564 0.584790 0.662893
Si Si5 0.568807 0.563347 0.278072
Si Si6 0.251899 0.582384 0.207386
Si Si7 0.873176 0.146991 0.625974
Si Si8 0.766038 0.730963 0.866859
O O1 0.500000 0.191961 0.750000
O O2 0.335050 0.137057 0.113783
O O3 0.399161 0.271225 0.045088
O O4 0.331240 0.247135 0.010775
O O5 0.421074 0.476563 0.222658
O O6 0.311140 0.389684 0.513965
O O7 0.356647 0.356502 0.262519
O O8 0.493842 0.357651 0.137703
O O9 0.101586 0.894551 0.809807
O O10 0.170024 0.913672 0.851916
O O11 0.152620 0.784052 0.817627
O O12 0.363274 0.578380 0.428813
O O13 0.222908 0.502500 0.743228
O O14 0.286857 0.617342 0.719648
O O15 0.209674 0.646645 0.701025
O O16 0.463351 0.592836 0.447394
O O17 0.750000 0.750000 0.000000
#
# Coordination Sequence:
#
# PCOD9255128 Si02
#       8
#     8   8   8   8   8   8   8   8
#     4  10  22  36  56  78 102 140 187 227 268 304
#     4  10  20  30  50  80 112 141 167 204 275 345
#     4  10  18  30  50  78 111 137 172 216 268 318
#     4  10  18  31  51  75 109 138 176 222 265 309
#     4  10  17  28  49  82 108 135 166 214 276 330
#     4  10  21  35  50  75 108 148 173 217 262 325
#     4  10  18  30  51  79 107 135 171 217 271 325
#     4  10  19  33  54  84 104 134 180 228 269 306
#
# _framework density 17.037904000000001
#
# number of rings (size 3 to 8) (size 9 to 14) (size 15 to 20)
#    0.000    2.000    1.250    5.250    1.750    2.500 
#    0.000    0.000    0.000    5.250    0.000    0.000 
#    0.000    0.000    0.000    0.000    0.000    0.000 
#
# Total GULP energy -178469.678888 kJ/mol
# GULP energy per Si atom -5577.177465 kJ/mol
# Density = 1.699912 g / cm^3
# Si number density = 17.037904 Si / 1000 Ang^3
#
#
#
# Elastic Constant Matrix: (Units=GPa)
#
#
# Indices 1 2 3 4 5 6 
#
# 1 84.5709 39.8817 24.1127 0.0000 8.9588 0.0000
# 2 39.8817 110.3700 45.7866 0.0000 3.2452 0.0000
# 3 24.1127 45.7866 70.7214 0.0000 -4.0310 0.0000
# 4 0.0000 0.0000 0.0000 17.6651 0.0000 5.0959
# 5 8.9588 3.2452 -4.0310 0.0000 13.2234 0.0000
# 6 0.0000 0.0000 0.0000 5.0959 0.0000 22.3954
#
#
#
# Elastic Compliance Matrix: (Units=1/GPa)
#
#
# Indices 1 2 3 4 5 6 
#
# 1 0.015821 -0.003974 -0.003437 0.000000 -0.010791 0.000000
# 2 -0.003974 0.013804 -0.007757 0.000000 -0.003060 0.000000
# 3 -0.003437 -0.007757 0.020938 0.000000 0.010615 0.000000
# 4 0.000000 0.000000 0.000000 0.060586 0.000000 -0.013786
# 5 -0.010791 -0.003060 0.010615 0.000000 0.086921 0.000000
# 6 0.000000 0.000000 0.000000 -0.013786 0.000000 0.047789
#
#
# Mechanical properties :
#
#
# Convention : Reuss Voigt Hill
#
# Bulk Modulus (GPa) = 49.43218 53.91380 51.67299
# Shear Modulus (GPa) = 17.67176 21.04887 19.36031
#
# Velocity S-wave (km/s) = 3.22406 3.51866 3.37457
# Velocity P-wave (km/s) = 6.55251 6.94407 6.75113
#
# Compressibility (1/GPa) = 0.02022974
#
# Stress axis : x y z
#
# Youngs Moduli (GPa) = 63.20541 72.44178 47.75893
#
# Poissons Ratio (x) = 0.28789 0.16413
# Poissons Ratio (y) = 0.25118 0.37045
# Poissons Ratio (z) = 0.21721 0.56190
#
# Static dielectric constant tensor:
#      x y z
#    x 1.595730 0.000000 0.008020 
#    y 0.000000 1.610470 0.000000 
#    z 0.008020 0.000000 1.571260 
# 
# From -- ./inp_files/182756.got.cif
#   From: 2010.05.17/outbox.cif.g08.bks.cpg/sg15_92_cif.got.tgz:182756.got - 2010.06.03 18:47:42.
