data_PCOD9255589
_publ_section_title
;
Structure prediction by ZEFSAII (Michael W. Deem and Ramdas Pophale) SiO2 
 PCOD9255589
Probable space group: C 2/C
;
_chemical_formula_sum "Si O2"
_cell_formula_units_Z 64
_cell_length_a 22.178209
_cell_length_b 6.967476
_cell_length_c 14.977488
_cell_angle_alpha 90.000000
_cell_angle_beta 96.232053
_cell_angle_gamma 90.000000
_cell_volume 2300.736112
_symmetry_space_group_name_H-M "C 2/C"
_symmetry_group_IT_number 15
_symmetry_cell_setting 'monoclinic'
loop_
_space_group_symop_operation_xyz
x,y,z
-x,y,1/2-z
-x,-y,-z
x,-y,1/2+z
1/2+x,1/2+y,z
1/2-x,1/2+y,1/2-z
1/2-x,1/2-y,-z
1/2+x,1/2-y,1/2+z
loop_
_atom_site_type_symbol
_atom_site_label
_atom_site_fract_x
_atom_site_fract_y
_atom_site_fract_z
Si Si1 0.352578 0.541066 0.552843
Si Si2 0.017836 0.039568 0.354996
Si Si3 0.392800 0.602108 0.375927
Si Si4 0.972915 0.516244 0.594897
Si Si5 0.346133 0.091121 0.502823
Si Si6 0.803419 0.959613 0.719001
Si Si7 0.403210 0.963612 0.822750
Si Si8 0.191664 0.512837 0.829740
O O1 0.420622 0.560600 0.604353
O O2 0.353463 0.642435 0.457333
O O3 0.345969 0.318641 0.521495
O O4 0.306483 0.578339 0.627294
O O5 0.030652 0.267538 0.367542
O O6 0.000000 0.002600 0.250000
O O7 0.957494 0.004216 0.405054
O O8 0.356830 0.484828 0.295741
O O9 0.407660 0.805781 0.334722
O O10 0.903034 0.485051 0.559075
O O11 0.000000 0.500000 0.500000
O O12 0.025885 0.404433 0.657761
O O13 0.295210 0.003644 0.561519
O O14 0.359086 0.083850 0.399573
O O15 0.813984 0.741877 0.689346
O O16 0.745004 0.954713 0.771588
O O17 0.368921 0.925092 0.725490
#
# Coordination Sequence:
#
# PCOD9255589 Si02
#       8
#     8   8   8   8   8   8   8   8
#     4  10  20  35  57  83 109 141 177 223 271 321
#     4  10  17  31  58  84 110 144 179 216 268 332
#     4  10  20  35  57  83 109 141 177 223 271 321
#     4   8  16  29  52  83 110 133 169 216 261 317
#     4   9  19  35  55  82 109 139 178 218 269 326
#     4  10  22  39  53  79 105 142 189 224 266 322
#     4   9  19  35  55  82 109 139 178 218 269 326
#     4  10  22  37  57  75 107 144 185 226 266 316
#
# _framework density 27.817184000000001
#
# number of rings (size 3 to 8) (size 9 to 14) (size 15 to 20)
#    0.000    2.500    1.250    0.375    5.250    3.000 
#    0.000    5.000    0.000    0.000    0.000    0.000 
#    0.000    0.000    0.000    0.000    0.000    0.000 
#
# Total GULP energy -178778.576161 kJ/mol
# GULP energy per Si atom -5586.830505 kJ/mol
# Density = 2.775387 g / cm^3
# Si number density = 27.817184 Si / 1000 Ang^3
#
#
#
# Elastic Constant Matrix: (Units=GPa)
#
#
# Indices 1 2 3 4 5 6 
#
# 1 39.1395 -16.4031 6.5678 0.0000 -11.4940 0.0000
# 2 -16.4031 86.6333 5.9664 0.0000 6.3278 0.0000
# 3 6.5678 5.9664 174.6192 0.0000 -32.3955 0.0000
# 4 0.0000 0.0000 0.0000 35.4417 0.0000 -6.2785
# 5 -11.4940 6.3278 -32.3955 0.0000 35.5087 0.0000
# 6 0.0000 0.0000 0.0000 -6.2785 0.0000 17.1075
#
#
#
# Elastic Compliance Matrix: (Units=1/GPa)
#
#
# Indices 1 2 3 4 5 6 
#
# 1 0.030319 0.005033 0.000412 0.000000 0.009293 0.000000
# 2 0.005033 0.012662 -0.000889 0.000000 -0.001438 0.000000
# 3 0.000412 -0.000889 0.006977 0.000000 0.006657 0.000000
# 4 0.000000 0.000000 0.000000 0.030177 0.000000 0.011075
# 5 0.009293 -0.001438 0.006657 0.000000 0.037499 0.000000
# 6 0.000000 0.000000 0.000000 0.011075 0.000000 0.062519
#
#
# Mechanical properties :
#
#
# Convention : Reuss Voigt Hill
#
# Bulk Modulus (GPa) = 16.92892 32.51713 24.72303
# Shear Modulus (GPa) = 26.21502 37.89564 32.05533
#
# Velocity S-wave (km/s) = 3.07319 3.69495 3.39832
# Velocity P-wave (km/s) = 4.32338 5.46978 4.93002
#
# Compressibility (1/GPa) = 0.05907050
#
# Stress axis : x y z
#
# Youngs Moduli (GPa) = 32.98262 78.97534 143.33728
#
# Poissons Ratio (x) = -0.39752 -0.05900
# Poissons Ratio (y) = -0.16602 0.12739
# Poissons Ratio (z) = -0.01358 0.07019
#
# Static dielectric constant tensor:
#      x y z
#    x 2.333680 0.000000 -0.037590 
#    y 0.000000 2.321390 0.000000 
#    z -0.037590 0.000000 2.132990 
# 
# From -- ./inp_files/172402.got.cif
#   From: 2010.05.17/outbox.cif.g08.bks.cpg/sg15_87_cif.got.tgz:172402.got - 2010.06.03 18:47:42.
