data_PCOD9255701
_publ_section_title
;
Structure prediction by ZEFSAII (Michael W. Deem and Ramdas Pophale) SiO2 
 PCOD9255701
Probable space group: C 2/C
;
_chemical_formula_sum "Si O2"
_cell_formula_units_Z 56
_cell_length_a 23.477390
_cell_length_b 9.855474
_cell_length_c 16.844134
_cell_angle_alpha 90.000000
_cell_angle_beta 54.006169
_cell_angle_gamma 90.000000
_cell_volume 3153.317004
_symmetry_space_group_name_H-M "C 2/C"
_symmetry_group_IT_number 15
_symmetry_cell_setting 'monoclinic'
loop_
_space_group_symop_operation_xyz
x,y,z
-x,y,1/2-z
-x,-y,-z
x,-y,1/2+z
1/2+x,1/2+y,z
1/2-x,1/2+y,1/2-z
1/2-x,1/2-y,-z
1/2+x,1/2-y,1/2+z
loop_
_atom_site_type_symbol
_atom_site_label
_atom_site_fract_x
_atom_site_fract_y
_atom_site_fract_z
Si Si1 0.402297 0.619905 0.612385
Si Si2 0.732891 0.169946 0.123916
Si Si3 0.340784 0.088653 0.160445
Si Si4 0.452880 0.583261 0.940178
Si Si5 0.336729 0.416348 0.408931
Si Si6 0.188798 0.917072 0.721484
Si Si7 0.864281 0.286755 0.113721
O O1 0.387429 0.777463 0.614518
O O2 0.463288 0.591652 0.627225
O O3 0.428449 0.548610 0.510361
O O4 0.333882 0.540415 0.700541
O O5 0.689779 0.089014 0.224931
O O6 0.682441 0.275514 0.119990
O O7 0.792901 0.256175 0.121674
O O8 0.776538 0.078281 0.026541
O O9 0.271880 0.104267 0.161719
O O10 0.375808 0.945568 0.112854
O O11 0.411322 0.587038 0.892074
O O12 0.424943 0.708769 0.016476
O O13 0.330993 0.535535 0.349861
O O14 0.148797 0.788305 0.791654
#
# Coordination Sequence:
#
# PCOD9255701 Si02
#       7
#     8   8   8   8   8   8   8
#     4  10  20  37  54  77 105 142 182 217 259 333
#     4   9  18  30  50  79 109 135 176 223 273 314
#     4  11  18  33  54  78 107 140 174 222 272 326
#     4   9  21  36  54  77 104 141 186 221 259 320
#     4  10  17  32  54  77 107 137 177 229 263 310
#     4  10  18  32  53  80 103 139 180 218 270 315
#     4   9  18  32  53  76 108 140 177 223 266 326
#
# _framework density 17.759077000000001
#
# number of rings (size 3 to 8) (size 9 to 14) (size 15 to 20)
#    0.000    2.286    2.857    1.714    0.000    1.143 
#    0.000    2.857    0.000    0.000   11.143    0.000 
#    0.000    0.000    0.000    0.000    0.000    0.000 
#
# Total GULP energy -156170.355827 kJ/mol
# GULP energy per Si atom -5577.512708 kJ/mol
# Density = 1.771866 g / cm^3
# Si number density = 17.759077 Si / 1000 Ang^3
#
#
#
# Elastic Constant Matrix: (Units=GPa)
#
#
# Indices 1 2 3 4 5 6 
#
# 1 100.1486 16.5594 21.3863 0.0000 13.3542 0.0000
# 2 16.5594 106.2576 25.7068 0.0000 4.7999 0.0000
# 3 21.3863 25.7068 37.8985 0.0000 7.4690 0.0000
# 4 0.0000 0.0000 0.0000 21.2458 0.0000 2.7408
# 5 13.3542 4.7999 7.4690 0.0000 17.4967 0.0000
# 6 0.0000 0.0000 0.0000 2.7408 0.0000 19.9406
#
#
#
# Elastic Compliance Matrix: (Units=1/GPa)
#
#
# Indices 1 2 3 4 5 6 
#
# 1 0.012075 -0.000300 -0.005253 0.000000 -0.006892 0.000000
# 2 -0.000300 0.011267 -0.007544 0.000000 0.000358 0.000000
# 3 -0.005253 -0.007544 0.036325 0.000000 -0.009428 0.000000
# 4 0.000000 0.000000 0.000000 0.047918 0.000000 -0.006586
# 5 -0.006892 0.000358 -0.009428 0.000000 0.066340 0.000000
# 6 0.000000 0.000000 0.000000 -0.006586 0.000000 0.051054
#
#
# Mechanical properties :
#
#
# Convention : Reuss Voigt Hill
#
# Bulk Modulus (GPa) = 29.87283 41.28997 35.58140
# Shear Modulus (GPa) = 19.05996 23.78011 21.42004
#
# Velocity S-wave (km/s) = 3.27961 3.66326 3.47673
# Velocity P-wave (km/s) = 5.58559 6.41819 6.01631
#
# Compressibility (1/GPa) = 0.03347523
#
# Stress axis : x y z
#
# Youngs Moduli (GPa) = 82.81287 88.75740 27.52902
#
# Poissons Ratio (x) = 0.02661 0.14460
# Poissons Ratio (y) = 0.02482 0.20767
# Poissons Ratio (z) = 0.43499 0.66956
#
# Static dielectric constant tensor:
#      x y z
#    x 1.620800 0.000000 0.000280 
#    y 0.000000 1.594030 0.000000 
#    z 0.000280 0.000000 1.632360 
# 
# From -- ./inp_files/213777.got.cif
#   From: 2010.05.17/outbox.cif.g08.bks.cpg/sg15_107_cif.got.tgz:213777.got - 2010.06.03 18:47:42.
