data_PCOD9255288
_publ_section_title
;
Structure prediction by ZEFSAII (Michael W. Deem and Ramdas Pophale) SiO2 
 PCOD9255288
Probable space group: C 2/C
;
_chemical_formula_sum "Si O2"
_cell_formula_units_Z 48
_cell_length_a 17.506087
_cell_length_b 9.669270
_cell_length_c 11.254255
_cell_angle_alpha 90.000000
_cell_angle_beta 71.484190
_cell_angle_gamma 90.000000
_cell_volume 1806.408588
_symmetry_space_group_name_H-M "C 2/C"
_symmetry_group_IT_number 15
_symmetry_cell_setting 'monoclinic'
loop_
_space_group_symop_operation_xyz
x,y,z
-x,y,1/2-z
-x,-y,-z
x,-y,1/2+z
1/2+x,1/2+y,z
1/2-x,1/2+y,1/2-z
1/2-x,1/2-y,-z
1/2+x,1/2-y,1/2+z
loop_
_atom_site_type_symbol
_atom_site_label
_atom_site_fract_x
_atom_site_fract_y
_atom_site_fract_z
Si Si1 0.550403 0.118684 0.033739
Si Si2 0.182447 0.142162 0.587370
Si Si3 0.000000 0.164539 0.250000
Si Si4 0.500000 0.289194 0.250000
Si Si5 0.734941 0.268944 0.316060
Si Si6 0.627074 0.618940 0.371179
Si Si7 0.364621 0.863342 0.431500
O O1 0.484515 0.195594 0.143761
O O2 0.613461 0.025458 0.074990
O O3 0.595466 0.228331 0.929156
O O4 0.500000 0.000000 0.000000
O O5 0.250000 0.250000 0.500000
O O6 0.087782 0.162337 0.666524
O O7 0.213286 0.143387 0.709526
O O8 0.159687 0.050912 0.478045
O O9 0.949191 0.076127 0.175747
O O10 0.936424 0.265574 0.346830
O O11 0.795430 0.146682 0.246134
O O12 0.665394 0.198038 0.428412
O O13 0.790890 0.352034 0.378468
#
# Coordination Sequence:
#
# PCOD9255288 Si02
#       7
#     8   8   4   4   8   8   8
#     4  11  19  28  47  80 112 141 173 218 284 346
#     4   9  18  34  49  70 107 152 188 225 270 336
#     4  10  17  30  46  74 108 139 170 216 261 332
#     4  10  21  30  50  82 112 147 176 232 289 338
#     4   9  19  34  47  65 107 153 187 215 262 338
#     4   9  19  31  48  71 107 143 181 224 267 329
#     4  10  19  31  49  72 109 152 178 219 270 339
#
# _framework density 26.572061999999999
#
# number of rings (size 3 to 8) (size 9 to 14) (size 15 to 20)
#    0.000    2.333    1.667    1.500    4.667    0.000 
#    0.000    0.000    0.000    0.000    0.000    0.000 
#    0.000  132.000    0.000    0.000    0.000    0.000 
#
# Total GULP energy -133618.637577 kJ/mol
# GULP energy per Si atom -5567.443232 kJ/mol
# Density = 2.651158 g / cm^3
# Si number density = 26.572062 Si / 1000 Ang^3
#
#
#
# Elastic Constant Matrix: (Units=GPa)
#
#
# Indices 1 2 3 4 5 6 
#
# 1 190.0350 23.8168 78.7340 0.0000 19.4038 0.0000
# 2 23.8168 47.2415 40.2667 0.0000 -21.2921 0.0000
# 3 78.7340 40.2667 188.8906 0.0000 -16.8697 0.0000
# 4 0.0000 0.0000 0.0000 -9.8435 0.0000 2.0143
# 5 19.4038 -21.2921 -16.8697 0.0000 78.7971 0.0000
# 6 0.0000 0.0000 0.0000 2.0143 0.0000 -137.5217
#
#
#
# Elastic Compliance Matrix: (Units=1/GPa)
#
#
# Indices 1 2 3 4 5 6 
#
# 1 0.006982 -0.002640 -0.002615 0.000000 -0.002992 0.000000
# 2 -0.002640 0.029895 -0.004580 0.000000 0.007747 0.000000
# 3 -0.002615 -0.004580 0.007450 0.000000 0.001001 0.000000
# 4 0.000000 0.000000 0.000000 -0.101895 0.000000 -0.001492
# 5 -0.002992 0.007747 0.001001 0.000000 0.015736 0.000000
# 6 0.000000 0.000000 0.000000 -0.001492 0.000000 -0.007293
#
#
# Mechanical properties :
#
#
# Convention : Reuss Voigt Hill
#
# Bulk Modulus (GPa) = 40.55776 79.08912 59.82344
# Shear Modulus (GPa) = -235.43479 5.17636 -115.12922
#
# Velocity S-wave (km/s) = -9.42310 1.39724 -6.58948
# Velocity P-wave (km/s) = 10.15365 5.69488 5.94411
#
# Compressibility (1/GPa) = 0.02465619
#
# Stress axis : x y z
#
# Youngs Moduli (GPa) = 143.22748 33.45059 134.23214
#
# Poissons Ratio (x) = 0.08831 0.35098
# Poissons Ratio (y) = 0.37812 0.61485
# Poissons Ratio (z) = 0.37450 0.15322
#
# Static dielectric constant tensor:
#      x y z
#    x 2.438100 0.000000 0.049120 
#    y 0.000000 2.079570 0.000000 
#    z 0.049120 0.000000 2.181870 
# 
# From -- ./inp_files/104851.got.cif
#   From: 2010.05.17/outbox.cif.g08.bks.cpg/sg15_53_cif.got.tgz:104851.got - 2010.06.03 18:47:42.
