data_PCOD9255665
_publ_section_title
;
Structure prediction by ZEFSAII (Michael W. Deem and Ramdas Pophale) SiO2 
 PCOD9255665
Probable space group: C 2/C
;
_chemical_formula_sum "Si O2"
_cell_formula_units_Z 32
_cell_length_a 14.841045
_cell_length_b 4.619673
_cell_length_c 21.674671
_cell_angle_alpha 90.000000
_cell_angle_beta 47.658033
_cell_angle_gamma 90.000000
_cell_volume 1098.382808
_symmetry_space_group_name_H-M "C 2/C"
_symmetry_group_IT_number 15
_symmetry_cell_setting 'monoclinic'
loop_
_space_group_symop_operation_xyz
x,y,z
-x,y,1/2-z
-x,-y,-z
x,-y,1/2+z
1/2+x,1/2+y,z
1/2-x,1/2+y,1/2-z
1/2-x,1/2-y,-z
1/2+x,1/2-y,1/2+z
loop_
_atom_site_type_symbol
_atom_site_label
_atom_site_fract_x
_atom_site_fract_y
_atom_site_fract_z
Si Si1 0.817848 0.046090 0.093043
Si Si2 0.897506 0.744567 0.940964
Si Si3 0.216279 0.474518 0.806614
Si Si4 0.930945 0.757353 0.345057
O O1 0.866535 0.290370 0.118634
O O2 0.710664 0.214601 0.107165
O O3 0.755574 0.767397 0.155001
O O4 0.905596 0.904834 0.002362
O O5 0.945625 0.428899 0.901163
O O6 0.953708 0.921442 0.857760
O O7 0.750000 0.750000 0.000000
O O8 0.305152 0.729505 0.737433
O O9 0.000000 0.687702 0.250000
#
# Coordination Sequence:
#
# PCOD9255665 Si02
#       4
#     8   8   8   8
#     4  10  17  32  52  73 102 132 161 210 251 289
#     4  10  19  32  50  74 104 138 169 199 243 304
#     4   9  18  30  49  77  95 120 172 223 254 279
#     4  11  21  32  49  80 111 136 162 194 248 318
#
# _framework density 29.13374
#
# number of rings (size 3 to 8) (size 9 to 14) (size 15 to 20)
#    0.000    2.000    0.000    8.250    0.000    0.000 
#    0.000    0.000    0.000    0.000    0.000  122.500 
#    0.000    0.000    0.000    0.000    0.000    0.000 
#
# Total GULP energy -89209.378334 kJ/mol
# GULP energy per Si atom -5575.586146 kJ/mol
# Density = 2.906743 g / cm^3
# Si number density = 29.133740 Si / 1000 Ang^3
#
#
#
# Elastic Constant Matrix: (Units=GPa)
#
#
# Indices 1 2 3 4 5 6 
#
# 1 75.1929 18.4128 41.0335 -0.0309 16.1145 0.0737
# 2 18.4128 176.0378 55.8104 -0.2273 11.3669 0.1441
# 3 41.0335 55.8104 133.1108 -0.0118 23.3226 -0.0654
# 4 -0.0309 -0.2273 -0.0118 75.7747 0.0089 32.3622
# 5 16.1145 11.3669 23.3226 0.0089 41.3034 0.0209
# 6 0.0737 0.1441 -0.0654 32.3622 0.0209 32.6773
#
#
#
# Elastic Compliance Matrix: (Units=1/GPa)
#
#
# Indices 1 2 3 4 5 6 
#
# 1 0.016557 -0.000090 -0.004371 0.000043 -0.003967 -0.000086
# 2 -0.000090 0.006555 -0.002676 0.000058 -0.000258 -0.000092
# 3 -0.004371 -0.002676 0.010603 -0.000047 -0.003545 0.000092
# 4 0.000043 0.000058 -0.000047 0.022871 0.000000 -0.022651
# 5 -0.003967 -0.000258 -0.003545 0.000000 0.027832 -0.000015
# 6 -0.000086 -0.000092 0.000092 -0.022651 -0.000015 0.053036
#
#
# Mechanical properties :
#
#
# Convention : Reuss Voigt Hill
#
# Bulk Modulus (GPa) = 51.43551 68.31721 59.87636
# Shear Modulus (GPa) = 31.60419 47.89007 39.74713
#
# Velocity S-wave (km/s) = 3.29720 4.05878 3.69765
# Velocity P-wave (km/s) = 5.67350 6.74280 6.23113
#
# Compressibility (1/GPa) = 0.01944182
#
# Stress axis : x y z
#
# Youngs Moduli (GPa) = 60.39842 152.55429 94.31189
#
# Poissons Ratio (x) = 0.01368 0.41227
# Poissons Ratio (y) = 0.00541 0.25234
# Poissons Ratio (z) = 0.26402 0.40817
#
# Static dielectric constant tensor:
#      x y z
#    x 2.473230 -0.000080 -0.031980 
#    y -0.000080 2.099690 -0.000090 
#    z -0.031980 -0.000090 2.261890 
# 
# From -- ./inp_files/278432.got.cif
#   From: 2010.05.17/outbox.cif.g08.bks.cpg/sg15_140_cif.got.tgz:278432.got - 2010.06.03 18:47:42.
