data_PCOD9255752
_publ_section_title
;
Structure prediction by ZEFSAII (Michael W. Deem and Ramdas Pophale) SiO2 
 PCOD9255752
Probable space group: C 2/C
;
_chemical_formula_sum "Si O2"
_cell_formula_units_Z 64
_cell_length_a 19.589364
_cell_length_b 10.119199
_cell_length_c 23.485159
_cell_angle_alpha 90.000000
_cell_angle_beta 135.586469
_cell_angle_gamma 90.000000
_cell_volume 3258.020452
_symmetry_space_group_name_H-M "C 2/C"
_symmetry_group_IT_number 15
_symmetry_cell_setting 'monoclinic'
loop_
_space_group_symop_operation_xyz
x,y,z
-x,y,1/2-z
-x,-y,-z
x,-y,1/2+z
1/2+x,1/2+y,z
1/2-x,1/2+y,1/2-z
1/2-x,1/2-y,-z
1/2+x,1/2-y,1/2+z
loop_
_atom_site_type_symbol
_atom_site_label
_atom_site_fract_x
_atom_site_fract_y
_atom_site_fract_z
Si Si1 0.743887 0.099963 0.179868
Si Si2 0.896803 0.873788 0.683955
Si Si3 0.895905 0.888212 0.873424
Si Si4 0.100441 0.624028 0.563191
Si Si5 0.795357 0.897685 0.379689
Si Si6 0.574309 0.077873 0.745858
Si Si7 0.112907 0.175965 0.453708
Si Si8 0.555966 0.948356 0.443661
O O1 0.810255 0.059165 0.165662
O O2 0.815016 0.109169 0.275851
O O3 0.704929 0.247352 0.143988
O O4 0.664505 0.985111 0.134822
O O5 0.913092 0.733204 0.727619
O O6 0.875536 0.854171 0.605361
O O7 0.000000 0.946185 0.750000
O O8 0.870062 0.770796 0.902018
O O9 0.001772 0.861640 0.907720
O O10 0.880395 0.023276 0.898415
O O11 0.096071 0.583978 0.494062
O O12 0.995120 0.611339 0.530301
O O13 0.687723 0.961818 0.307939
O O14 0.816602 0.892565 0.459472
O O15 0.500000 0.023249 0.750000
O O16 0.520022 0.051994 0.653806
O O17 0.129811 0.333753 0.469843
#
# Coordination Sequence:
#
# PCOD9255752 Si02
#       8
#     8   8   8   8   8   8   8   8
#     4  11  20  35  60  87 110 147 197 240 281 334
#     4  10  17  32  56  86 113 141 180 247 295 315
#     4  11  22  38  55  82 127 154 179 235 289 345
#     4  10  21  34  57  84 112 156 190 230 278 341
#     4  11  23  35  56  91 116 148 193 231 295 342
#     4  10  19  34  58  84 113 145 187 248 283 320
#     4  11  19  35  57  86 121 144 185 241 290 340
#     4  10  18  35  55  80 118 144 190 231 278 333
#
# _framework density 19.643830999999999
#
# number of rings (size 3 to 8) (size 9 to 14) (size 15 to 20)
#    0.000    1.500    5.000    4.125    0.000    3.000 
#    0.000    0.000    0.000    3.750    0.000    0.000 
#    0.000    0.000    0.000    0.000    0.000    0.000 
#
# Total GULP energy -178303.256513 kJ/mol
# GULP energy per Si atom -5571.976766 kJ/mol
# Density = 1.959912 g / cm^3
# Si number density = 19.643831 Si / 1000 Ang^3
#
#
#
# Elastic Constant Matrix: (Units=GPa)
#
#
# Indices 1 2 3 4 5 6 
#
# 1 62.5543 13.0485 15.0887 0.0000 -7.4034 0.0000
# 2 13.0485 41.3932 17.3511 0.0000 0.5394 0.0000
# 3 15.0887 17.3511 143.3598 0.0000 -24.7087 0.0000
# 4 0.0000 0.0000 0.0000 2.1807 0.0000 10.1361
# 5 -7.4034 0.5394 -24.7087 0.0000 35.9473 0.0000
# 6 0.0000 0.0000 0.0000 10.1361 0.0000 8.5994
#
#
#
# Elastic Compliance Matrix: (Units=1/GPa)
#
#
# Indices 1 2 3 4 5 6 
#
# 1 0.017641 -0.005332 -0.000648 0.000000 0.003268 0.000000
# 2 -0.005332 0.027319 -0.003409 0.000000 -0.003851 0.000000
# 3 -0.000648 -0.003409 0.008442 0.000000 0.005720 0.000000
# 4 0.000000 0.000000 0.000000 -0.102388 0.000000 0.120685
# 5 0.003268 -0.003851 0.005720 0.000000 0.032481 0.000000
# 6 0.000000 0.000000 0.000000 0.120685 0.000000 -0.025965
#
#
# Mechanical properties :
#
#
# Convention : Reuss Voigt Hill
#
# Bulk Modulus (GPa) = 28.88192 37.58710 33.23451
# Shear Modulus (GPa) = -411.52341 22.80010 -194.36166
#
# Velocity S-wave (km/s) = -14.48956 3.41056 -9.95779
# Velocity P-wave (km/s) = 16.28481 5.88941 10.73568
#
# Compressibility (1/GPa) = 0.03462374
#
# Stress axis : x y z
#
# Youngs Moduli (GPa) = 56.68470 36.60511 118.45220
#
# Poissons Ratio (x) = 0.19518 0.07678
# Poissons Ratio (y) = 0.30225 0.40380
# Poissons Ratio (z) = 0.03674 0.12479
#
# Static dielectric constant tensor:
#      x y z
#    x 1.749160 0.000000 0.052960 
#    y 0.000000 1.701630 0.000000 
#    z 0.052960 0.000000 1.802710 
# 
# From -- ./inp_files/248631.got.cif
#   From: 2010.05.17/outbox.cif.g08.bks.cpg/sg15_125_cif.got.tgz:248631.got - 2010.06.03 18:47:42.
