data_PCOD9255921
_publ_section_title
;
Structure prediction by ZEFSAII (Michael W. Deem and Ramdas Pophale) SiO2 
 PCOD9255921
Probable space group: C 2/C
;
_chemical_formula_sum "Si O2"
_cell_formula_units_Z 56
_cell_length_a 15.199441
_cell_length_b 8.463671
_cell_length_c 29.540232
_cell_angle_alpha 90.000000
_cell_angle_beta 46.680190
_cell_angle_gamma 90.000000
_cell_volume 2764.741526
_symmetry_space_group_name_H-M "C 2/C"
_symmetry_group_IT_number 15
_symmetry_cell_setting 'monoclinic'
loop_
_space_group_symop_operation_xyz
x,y,z
-x,y,1/2-z
-x,-y,-z
x,-y,1/2+z
1/2+x,1/2+y,z
1/2-x,1/2+y,1/2-z
1/2-x,1/2-y,-z
1/2+x,1/2-y,1/2+z
loop_
_atom_site_type_symbol
_atom_site_label
_atom_site_fract_x
_atom_site_fract_y
_atom_site_fract_z
Si Si1 0.866740 0.536920 0.065827
Si Si2 0.937448 0.753859 0.126162
Si Si3 0.537586 0.943367 0.331739
Si Si4 0.049375 0.969864 0.533563
Si Si5 0.719379 0.816661 0.085080
Si Si6 0.835583 0.261164 0.137004
Si Si7 0.792990 0.444265 0.307241
O O1 0.776042 0.640887 0.067601
O O2 0.809760 0.374564 0.103710
O O3 0.896712 0.645632 0.098419
O O4 0.000000 0.500000 0.000000
O O5 0.977888 0.628411 0.149755
O O6 0.818425 0.857180 0.179164
O O7 0.032697 0.878649 0.071749
O O8 0.415369 0.846826 0.383962
O O9 0.638640 0.871007 0.329216
O O10 0.586195 0.919379 0.263938
O O11 0.185633 0.914259 0.478411
O O12 0.000000 0.000000 0.500000
O O13 0.959057 0.834817 0.583190
O O14 0.713362 0.882500 0.139005
O O15 0.735930 0.129752 0.180928
#
# Coordination Sequence:
#
# PCOD9255921 Si02
#       7
#     8   8   8   8   8   8   8
#     4  10  17  33  57  86 109 147 193 232 287 359
#     4   9  20  34  58  84 107 155 195 233 287 350
#     4  11  23  37  53  91 119 145 193 247 298 336
#     4  11  17  37  61  84 110 152 201 232 287 362
#     4  11  22  35  61  85 118 153 187 248 297 338
#     4  10  20  35  62  84 110 153 197 239 286 350
#     4  10  20  40  62  76 112 165 199 226 281 367
#
# _framework density 20.255058999999999
#
# number of rings (size 3 to 8) (size 9 to 14) (size 15 to 20)
#    0.000    1.714    5.714    1.286    0.000    1.143 
#    0.000    2.857    0.000    5.143    0.000    0.000 
#    0.000    0.000    0.000    0.000    0.000    0.000 
#
# Total GULP energy -156163.926213 kJ/mol
# GULP energy per Si atom -5577.283079 kJ/mol
# Density = 2.020896 g / cm^3
# Si number density = 20.255059 Si / 1000 Ang^3
#
#
#
# Elastic Constant Matrix: (Units=GPa)
#
#
# Indices 1 2 3 4 5 6 
#
# 1 30.2863 10.3452 -0.5491 0.0000 -4.2045 -0.0002
# 2 10.3452 108.7243 22.2951 0.0000 -1.1899 -0.0003
# 3 -0.5491 22.2951 91.8655 0.0000 -9.2715 0.0000
# 4 0.0000 0.0000 0.0000 15.6039 0.0000 5.2438
# 5 -4.2045 -1.1899 -9.2715 0.0000 26.5235 0.0000
# 6 -0.0002 -0.0003 0.0000 5.2438 0.0000 16.9913
#
#
#
# Elastic Compliance Matrix: (Units=1/GPa)
#
#
# Indices 1 2 3 4 5 6 
#
# 1 0.035119 -0.003623 0.001695 0.000000 0.005997 0.000000
# 2 -0.003623 0.010057 -0.002565 0.000000 -0.001020 0.000000
# 3 0.001695 -0.002565 0.011955 0.000000 0.004333 0.000000
# 4 0.000000 0.000000 0.000000 0.071502 0.000000 -0.022067
# 5 0.005997 -0.001020 0.004333 0.000000 0.040122 0.000000
# 6 0.000000 0.000000 0.000000 -0.022067 0.000000 0.065664
#
#
# Mechanical properties :
#
#
# Convention : Reuss Voigt Hill
#
# Bulk Modulus (GPa) = 20.77140 32.78428 26.77784
# Shear Modulus (GPa) = 19.27108 25.07605 22.17356
#
# Velocity S-wave (km/s) = 3.08786 3.52236 3.31224
# Velocity P-wave (km/s) = 4.79482 5.72395 5.27986
#
# Compressibility (1/GPa) = 0.04814312
#
# Stress axis : x y z
#
# Youngs Moduli (GPa) = 28.47454 99.43071 83.64362
#
# Poissons Ratio (x) = 0.36028 -0.14173
# Poissons Ratio (y) = 0.10318 0.21458
# Poissons Ratio (z) = -0.04825 0.25508
#
# Static dielectric constant tensor:
#      x y z
#    x 1.765170 0.000000 0.024450 
#    y 0.000000 1.738380 0.000000 
#    z 0.024450 0.000000 1.729800 
# 
# From -- ./inp_files/312862.got.cif
#   From: 2010.05.17/outbox.cif.g08.bks.cpg/sg15_157_cif.got.tgz:312862.got - 2010.06.03 18:47:42.
