data_PCOD9255803
_publ_section_title
;
Structure prediction by ZEFSAII (Michael W. Deem and Ramdas Pophale) SiO2 
 PCOD9255803
Probable space group: C 2/C
;
_chemical_formula_sum "Si O2"
_cell_formula_units_Z 44
_cell_length_a 9.934767
_cell_length_b 17.816929
_cell_length_c 19.323846
_cell_angle_alpha 90.000000
_cell_angle_beta 43.079298
_cell_angle_gamma 90.000000
_cell_volume 2336.205850
_symmetry_space_group_name_H-M "C 2/C"
_symmetry_group_IT_number 15
_symmetry_cell_setting 'monoclinic'
loop_
_space_group_symop_operation_xyz
x,y,z
-x,y,1/2-z
-x,-y,-z
x,-y,1/2+z
1/2+x,1/2+y,z
1/2-x,1/2+y,1/2-z
1/2-x,1/2-y,-z
1/2+x,1/2-y,1/2+z
loop_
_atom_site_type_symbol
_atom_site_label
_atom_site_fract_x
_atom_site_fract_y
_atom_site_fract_z
Si Si1 0.837569 0.515579 0.217123
Si Si2 0.020768 0.896268 0.325270
Si Si3 0.674982 0.011330 0.490494
Si Si4 0.712327 0.633110 0.150138
Si Si5 0.500000 0.126615 0.250000
Si Si6 0.530785 0.231451 0.105772
O O1 0.713443 0.441905 0.273507
O O2 0.733134 0.563846 0.196058
O O3 0.835853 0.569456 0.283809
O O4 0.056861 0.495935 0.106895
O O5 0.046576 0.812456 0.342728
O O6 0.000000 0.894260 0.250000
O O7 0.833245 0.944301 0.423486
O O8 0.767919 0.091556 0.431809
O O9 0.500000 0.000000 0.500000
O O10 0.500000 0.667334 0.250000
O O11 0.891479 0.689095 0.102329
O O12 0.544702 0.177652 0.167354
O O13 0.750000 0.250000 0.000000
#
# Coordination Sequence:
#
# PCOD9255803 Si02
#       6
#     8   8   8   8   4   8
#     4  10  20  35  60  86 114 154 192 246 295 344
#     4  12  19  35  60  89 112 148 203 240 281 356
#     4  10  17  32  59  91 108 142 205 243 280 353
#     4  10  18  36  60  85 118 152 196 248 296 343
#     4  10  22  40  58  84 130 148 188 244 304 344
#     4  11  24  38  61  88 121 160 195 242 303 354
#
# _framework density 18.833957000000002
#
# number of rings (size 3 to 8) (size 9 to 14) (size 15 to 20)
#    0.000    1.455    6.364    3.273    0.000    0.000 
#    1.636    3.636    0.000    3.273    0.000    0.000 
#    0.000    0.000    0.000    0.000    0.000    0.000 
#
# Total GULP energy -122565.418830 kJ/mol
# GULP energy per Si atom -5571.155401 kJ/mol
# Density = 1.879109 g / cm^3
# Si number density = 18.833957 Si / 1000 Ang^3
#
#
#
# Elastic Constant Matrix: (Units=GPa)
#
#
# Indices 1 2 3 4 5 6 
#
# 1 30.8099 35.0840 16.5930 0.0003 3.8614 -0.0003
# 2 35.0840 145.2677 43.0873 -0.0010 0.7348 -0.0004
# 3 16.5930 43.0873 84.8883 -0.0036 -16.6062 -0.0014
# 4 0.0003 -0.0010 -0.0036 15.7057 -0.0002 -16.2142
# 5 3.8614 0.7348 -16.6062 -0.0002 13.5581 0.0008
# 6 -0.0003 -0.0004 -0.0014 -16.2142 0.0008 23.5518
#
#
#
# Elastic Compliance Matrix: (Units=1/GPa)
#
#
# Indices 1 2 3 4 5 6 
#
# 1 0.052423 -0.009254 -0.011011 -0.000013 -0.027915 -0.000008
# 2 -0.009254 0.010310 -0.003969 -0.000001 -0.002785 -0.000001
# 3 -0.011011 -0.003969 0.021834 0.000019 0.030094 0.000013
# 4 -0.000013 -0.000001 0.000019 0.220116 0.000022 0.151538
# 5 -0.027915 -0.002785 0.030094 0.000022 0.118718 0.000012
# 6 -0.000008 -0.000001 0.000013 0.151538 0.000012 0.146785
#
#
# Mechanical properties :
#
#
# Convention : Reuss Voigt Hill
#
# Bulk Modulus (GPa) = 27.70090 50.05493 38.87792
# Shear Modulus (GPa) = 7.92786 21.64322 14.78554
#
# Velocity S-wave (km/s) = 2.05389 3.39360 2.80491
# Velocity P-wave (km/s) = 4.51271 6.47997 5.58366
#
# Compressibility (1/GPa) = 0.03609991
#
# Stress axis : x y z
#
# Youngs Moduli (GPa) = 19.07549 96.99240 45.79958
#
# Poissons Ratio (x) = 0.89754 0.50430
# Poissons Ratio (y) = 0.17652 0.18178
# Poissons Ratio (z) = 0.21004 0.38497
#
# Static dielectric constant tensor:
#      x y z
#    x 1.629520 0.000000 -0.037990 
#    y 0.000000 1.655060 0.000000 
#    z -0.037990 0.000000 1.685080 
# 
# From -- ./inp_files/270311.got.cif
#   From: 2010.05.17/outbox.cif.g08.bks.cpg/sg15_136_cif.got.tgz:270311.got - 2010.06.03 18:47:42.
