data_PCOD9255793
_publ_section_title
;
Structure prediction by ZEFSAII (Michael W. Deem and Ramdas Pophale) SiO2 
 PCOD9255793
Probable space group: C 2/C
;
_chemical_formula_sum "Si O2"
_cell_formula_units_Z 48
_cell_length_a 14.453319
_cell_length_b 31.682816
_cell_length_c 5.624361
_cell_angle_alpha 90.000000
_cell_angle_beta 88.798913
_cell_angle_gamma 90.000000
_cell_volume 2574.951897
_symmetry_space_group_name_H-M "C 2/C"
_symmetry_group_IT_number 15
_symmetry_cell_setting 'monoclinic'
loop_
_space_group_symop_operation_xyz
x,y,z
-x,y,1/2-z
-x,-y,-z
x,-y,1/2+z
1/2+x,1/2+y,z
1/2-x,1/2+y,1/2-z
1/2-x,1/2-y,-z
1/2+x,1/2-y,1/2+z
loop_
_atom_site_type_symbol
_atom_site_label
_atom_site_fract_x
_atom_site_fract_y
_atom_site_fract_z
Si Si1 0.703268 0.715931 0.333840
Si Si2 0.328207 0.167789 0.013397
Si Si3 0.500000 0.855232 0.250000
Si Si4 0.500000 0.354123 0.250000
Si Si5 0.130873 0.403043 0.607970
Si Si6 0.199277 0.871777 0.132517
Si Si7 0.500000 0.025278 0.250000
Si Si8 0.500000 0.699431 0.250000
O O1 0.750000 0.750000 0.500000
O O2 0.774969 0.707692 0.117293
O O3 0.698883 0.670218 0.466859
O O4 0.596938 0.724101 0.271908
O O5 0.362393 0.135918 0.213131
O O6 0.420749 0.174457 0.860752
O O7 0.253433 0.142684 0.863287
O O8 0.556668 0.886641 0.419014
O O9 0.593422 0.380594 0.201224
O O10 0.511502 0.327026 0.497553
O O11 0.233682 0.406144 0.491657
O O12 0.089609 0.444226 0.731758
O O13 0.500000 0.000000 0.500000
#
# Coordination Sequence:
#
# PCOD9255793 Si02
#       8
#     8   8   4   4   8   8   4   4
#     4  10  21  37  55  81 114 156 207 253 322 381
#     4  10  18  34  57  81 109 159 195 257 299 352
#     4  10  17  32  59  76 118 158 203 247 288 358
#     4  10  18  38  60  91 106 143 201 249 324 342
#     4  10  20  36  55  85 119 161 201 242 288 364
#     4   9  20  34  62  78 114 152 196 261 301 362
#     4  12  25  38  60  94 132 170 198 244 302 360
#     4  10  20  38  57  77 118 153 188 276 312 364
#
# _framework density 18.641126
#
# number of rings (size 3 to 8) (size 9 to 14) (size 15 to 20)
#    0.000    2.000    3.333    0.500    2.333    0.667 
#    0.000    9.167   18.333    0.000    0.000    1.167 
#    0.000    0.000    0.000    0.000    0.000    0.000 
#
# Total GULP energy -133724.975770 kJ/mol
# GULP energy per Si atom -5571.873990 kJ/mol
# Density = 1.859870 g / cm^3
# Si number density = 18.641126 Si / 1000 Ang^3
#
#
#
# Elastic Constant Matrix: (Units=GPa)
#
#
# Indices 1 2 3 4 5 6 
#
# 1 208.7313 47.9210 53.1665 0.0000 -20.5829 0.0000
# 2 47.9210 63.0281 31.4714 0.0000 -15.0850 0.0000
# 3 53.1665 31.4714 89.3900 0.0000 -3.8497 0.0000
# 4 0.0000 0.0000 0.0000 18.1415 0.0000 -4.8256
# 5 -20.5829 -15.0850 -3.8497 0.0000 40.1577 0.0000
# 6 0.0000 0.0000 0.0000 -4.8256 0.0000 -1.4846
#
#
#
# Elastic Compliance Matrix: (Units=1/GPa)
#
#
# Indices 1 2 3 4 5 6 
#
# 1 0.006344 -0.003079 -0.002610 0.000000 0.001845 0.000000
# 2 -0.003079 0.022665 -0.005874 0.000000 0.006373 0.000000
# 3 -0.002610 -0.005874 0.014715 0.000000 -0.002134 0.000000
# 4 0.000000 0.000000 0.000000 0.029563 0.000000 -0.096089
# 5 0.001845 0.006373 -0.002134 0.000000 0.028037 0.000000
# 6 0.000000 0.000000 0.000000 -0.096089 0.000000 -0.361238
#
#
# Mechanical properties :
#
#
# Convention : Reuss Voigt Hill
#
# Bulk Modulus (GPa) = 48.54560 69.58524 59.06542
# Shear Modulus (GPa) = -21.74656 26.60227 2.42786
#
# Velocity S-wave (km/s) = -3.41924 3.78176 1.14247
# Velocity P-wave (km/s) = 3.24198 7.51524 5.78746
#
# Compressibility (1/GPa) = 0.02059919
#
# Stress axis : x y z
#
# Youngs Moduli (GPa) = 157.61765 44.12060 67.95568
#
# Poissons Ratio (x) = 0.13584 0.17737
# Poissons Ratio (y) = 0.48529 0.39917
# Poissons Ratio (z) = 0.41139 0.25916
#
# Static dielectric constant tensor:
#      x y z
#    x 1.660080 0.000000 -0.070530 
#    y 0.000000 1.638080 0.000000 
#    z -0.070530 0.000000 1.679930 
# 
# From -- ./inp_files/8792.got.cif
#   From: 2010.05.17/outbox.cif.g08.bks.cpg/sg15_5_cif.got.tgz:8792.got - 2010.06.03 18:47:42.
