data_PCOD9255775
_publ_section_title
;
Structure prediction by ZEFSAII (Michael W. Deem and Ramdas Pophale) SiO2 
 PCOD9255775
Probable space group: C 2/C
;
_chemical_formula_sum "Si O2"
_cell_formula_units_Z 60
_cell_length_a 11.863768
_cell_length_b 13.141793
_cell_length_c 18.190846
_cell_angle_alpha 90.000000
_cell_angle_beta 86.411073
_cell_angle_gamma 90.000000
_cell_volume 2830.594181
_symmetry_space_group_name_H-M "C 2/C"
_symmetry_group_IT_number 15
_symmetry_cell_setting 'monoclinic'
loop_
_space_group_symop_operation_xyz
x,y,z
-x,y,1/2-z
-x,-y,-z
x,-y,1/2+z
1/2+x,1/2+y,z
1/2-x,1/2+y,1/2-z
1/2-x,1/2-y,-z
1/2+x,1/2-y,1/2+z
loop_
_atom_site_type_symbol
_atom_site_label
_atom_site_fract_x
_atom_site_fract_y
_atom_site_fract_z
Si Si1 0.684486 0.240060 0.080507
Si Si2 0.092992 0.721944 0.863447
Si Si3 0.119486 0.440828 0.996022
Si Si4 0.429382 0.451088 0.621996
Si Si5 0.310307 0.011066 0.355693
Si Si6 0.360789 0.519821 0.466470
Si Si7 0.500000 0.065415 0.750000
Si Si8 0.039269 0.767207 0.482293
O O1 0.772927 0.290917 0.132167
O O2 0.677260 0.122981 0.107900
O O3 0.750000 0.250000 0.000000
O O4 0.559000 0.282684 0.073826
O O5 0.071506 0.839824 0.842243
O O6 0.044810 0.638918 0.811852
O O7 0.028108 0.722607 0.944059
O O8 0.156387 0.434843 0.079886
O O9 0.111847 0.331121 0.958371
O O10 0.229101 0.495183 0.956284
O O11 0.000000 0.500000 0.000000
O O12 0.320832 0.507303 0.659379
O O13 0.393953 0.449262 0.535299
O O14 0.555825 0.491503 0.606274
O O15 0.397495 0.999423 0.286689
O O16 0.388582 0.634542 0.496696
#
# Coordination Sequence:
#
# PCOD9255775 Si02
#       8
#     8   8   8   8   8   8   4   8
#     4   9  18  35  62  90 119 157 202 262 332 372
#     4   9  19  34  58  87 117 167 209 236 310 386
#     4  11  19  31  55  95 128 150 192 260 334 379
#     4   8  17  37  57  79 116 160 194 248 307 369
#     4  10  20  35  59  86 124 167 208 253 312 376
#     4   9  18  31  58  90 122 152 189 252 330 380
#     4  12  22  36  62  88 124 178 218 258 292 372
#     4  10  17  32  57  92 124 147 196 266 319 369
#
# _framework density 21.196964000000001
#
# number of rings (size 3 to 8) (size 9 to 14) (size 15 to 20)
#    0.000    2.400    2.667    1.200    0.000    0.000 
#    0.000    0.000   29.333    0.000    0.000    0.000 
#    0.000    0.000    0.000    0.000    0.000    0.000 
#
# Total GULP energy -167114.142191 kJ/mol
# GULP energy per Si atom -5570.471406 kJ/mol
# Density = 2.114872 g / cm^3
# Si number density = 21.196964 Si / 1000 Ang^3
#
#
#
# Elastic Constant Matrix: (Units=GPa)
#
#
# Indices 1 2 3 4 5 6 
#
# 1 161.6360 29.4030 27.9559 0.0000 -23.5339 0.0000
# 2 29.4030 102.8705 15.7720 0.0000 -2.8322 0.0000
# 3 27.9559 15.7720 37.9191 0.0000 -18.9126 0.0000
# 4 0.0000 0.0000 0.0000 23.4996 0.0000 -2.0594
# 5 -23.5339 -2.8322 -18.9126 0.0000 32.1296 0.0000
# 6 0.0000 0.0000 0.0000 -2.0594 0.0000 28.8594
#
#
#
# Elastic Compliance Matrix: (Units=1/GPa)
#
#
# Indices 1 2 3 4 5 6 
#
# 1 0.007529 -0.001574 -0.003135 0.000000 0.003531 0.000000
# 2 -0.001574 0.010834 -0.004876 0.000000 -0.003068 0.000000
# 3 -0.003135 -0.004876 0.041551 0.000000 0.021732 0.000000
# 4 0.000000 0.000000 0.000000 0.042822 0.000000 0.003056
# 5 0.003531 -0.003068 0.021732 0.000000 0.046232 0.000000
# 6 0.000000 0.000000 0.000000 0.003056 0.000000 0.034869
#
#
# Mechanical properties :
#
#
# Convention : Reuss Voigt Hill
#
# Bulk Modulus (GPa) = 24.54410 49.85415 37.19913
# Shear Modulus (GPa) = 23.08524 32.18401 27.63463
#
# Velocity S-wave (km/s) = 3.30371 3.90080 3.61461
# Velocity P-wave (km/s) = 5.11437 6.62261 5.91674
#
# Compressibility (1/GPa) = 0.04074298
#
# Stress axis : x y z
#
# Youngs Moduli (GPa) = 132.81194 92.30178 24.06704
#
# Poissons Ratio (x) = 0.14530 0.07546
# Poissons Ratio (y) = 0.20907 0.11735
# Poissons Ratio (z) = 0.41640 0.45007
#
# Static dielectric constant tensor:
#      x y z
#    x 1.878840 0.000000 -0.004970 
#    y 0.000000 1.880720 0.000000 
#    z -0.004970 0.000000 1.741800 
# 
# From -- ./inp_files/197866.got.cif
#   From: 2010.05.17/outbox.cif.g08.bks.cpg/sg15_99_cif.got.tgz:197866.got - 2010.06.03 18:47:42.
