data_PCOD9255683
_publ_section_title
;
Structure prediction by ZEFSAII (Michael W. Deem and Ramdas Pophale) SiO2 
 PCOD9255683
Probable space group: C 2/C
;
_chemical_formula_sum "Si O2"
_cell_formula_units_Z 52
_cell_length_a 20.856565
_cell_length_b 18.086988
_cell_length_c 12.313237
_cell_angle_alpha 90.000000
_cell_angle_beta 147.106108
_cell_angle_gamma 90.000000
_cell_volume 2522.603719
_symmetry_space_group_name_H-M "C 2/C"
_symmetry_group_IT_number 15
_symmetry_cell_setting 'monoclinic'
loop_
_space_group_symop_operation_xyz
x,y,z
-x,y,1/2-z
-x,-y,-z
x,-y,1/2+z
1/2+x,1/2+y,z
1/2-x,1/2+y,1/2-z
1/2-x,1/2-y,-z
1/2+x,1/2-y,1/2+z
loop_
_atom_site_type_symbol
_atom_site_label
_atom_site_fract_x
_atom_site_fract_y
_atom_site_fract_z
Si Si1 0.488981 0.275160 0.864356
Si Si2 0.771429 0.864700 0.529260
Si Si3 0.018989 0.545419 0.160432
Si Si4 0.014791 0.383905 0.109363
Si Si5 0.850093 0.093133 0.902999
Si Si6 0.712435 0.531820 0.910128
Si Si7 0.500000 0.474366 0.250000
O O1 0.500000 0.279340 0.750000
O O2 0.352046 0.298883 0.690226
O O3 0.541862 0.196715 0.975491
O O4 0.564851 0.342327 0.017949
O O5 0.631296 0.862962 0.344627
O O6 0.787660 0.873578 0.421652
O O7 0.812229 0.943830 0.634044
O O8 0.966304 0.461577 0.086341
O O9 0.161274 0.538196 0.349495
O O10 0.000000 0.580180 0.250000
O O11 0.965077 0.590704 0.985653
O O12 0.778751 0.064892 0.697814
O O13 0.927656 0.026406 0.063205
O O14 0.603484 0.563855 0.826262
#
# Coordination Sequence:
#
# PCOD9255683 Si02
#       7
#     8   8   8   8   8   8   4
#     4  10  18  32  52  77 105 131 174 218 265 304
#     4   9  18  32  52  81 102 135 175 215 263 303
#     4  10  21  37  54  78 103 141 178 208 259 312
#     4  10  20  34  55  74 106 136 175 219 252 309
#     4  10  17  32  53  78 105 134 167 219 267 301
#     4  10  19  32  56  77 106 140 170 214 258 311
#     4  10  18  32  52  82 108 130 176 218 266 306
#
# _framework density 20.613623
#
# number of rings (size 3 to 8) (size 9 to 14) (size 15 to 20)
#    0.000    2.154    3.846    2.308    0.000    1.231 
#    0.000    0.769    8.462    0.000    0.000    0.000 
#    0.000    0.000    0.000    0.000    0.000    0.000 
#
# Total GULP energy -144757.206070 kJ/mol
# GULP energy per Si atom -5567.584849 kJ/mol
# Density = 2.056671 g / cm^3
# Si number density = 20.613623 Si / 1000 Ang^3
#
#
#
# Elastic Constant Matrix: (Units=GPa)
#
#
# Indices 1 2 3 4 5 6 
#
# 1 37.5192 0.6131 1.4285 0.0000 -5.6724 0.0000
# 2 0.6131 72.0349 27.8274 0.0000 -12.8784 0.0000
# 3 1.4285 27.8274 63.9819 0.0000 -9.3659 0.0000
# 4 0.0000 0.0000 0.0000 22.4472 0.0000 -4.4876
# 5 -5.6724 -12.8784 -9.3659 0.0000 35.0670 0.0000
# 6 0.0000 0.0000 0.0000 -4.4876 0.0000 14.2894
#
#
#
# Elastic Compliance Matrix: (Units=1/GPa)
#
#
# Indices 1 2 3 4 5 6 
#
# 1 0.027348 0.000681 -0.000232 0.000000 0.004612 0.000000
# 2 0.000681 0.017369 -0.006889 0.000000 0.004649 0.000000
# 3 -0.000232 -0.006889 0.018998 0.000000 0.002507 0.000000
# 4 0.000000 0.000000 0.000000 0.047533 0.000000 0.014928
# 5 0.004612 0.004649 0.002507 0.000000 0.031640 0.000000
# 6 0.000000 0.000000 0.000000 0.014928 0.000000 0.074670
#
#
# Mechanical properties :
#
#
# Convention : Reuss Voigt Hill
#
# Bulk Modulus (GPa) = 19.67115 25.91932 22.79524
# Shear Modulus (GPa) = 20.21171 23.93853 22.07512
#
# Velocity S-wave (km/s) = 3.13470 3.41148 3.27601
# Velocity P-wave (km/s) = 4.76080 5.30271 5.03905
#
# Compressibility (1/GPa) = 0.05083586
#
# Stress axis : x y z
#
# Youngs Moduli (GPa) = 36.56576 57.57498 52.63824
#
# Poissons Ratio (x) = -0.03923 0.01220
# Poissons Ratio (y) = -0.02491 0.36261
# Poissons Ratio (z) = 0.00847 0.39662
#
# Static dielectric constant tensor:
#      x y z
#    x 1.832630 0.000000 0.069530 
#    y 0.000000 1.777140 0.000000 
#    z 0.069530 0.000000 1.757470 
# 
# From -- ./inp_files/98445.got.cif
#   From: 2010.05.17/outbox.cif.g08.bks.cpg/sg15_50_cif.got.tgz:98445.got - 2010.06.03 18:47:42.
