data_PCOD9255535
_publ_section_title
;
Structure prediction by ZEFSAII (Michael W. Deem and Ramdas Pophale) SiO2 
 PCOD9255535
Probable space group: C 2/C
;
_chemical_formula_sum "Si O2"
_cell_formula_units_Z 64
_cell_length_a 16.329079
_cell_length_b 11.244220
_cell_length_c 22.002320
_cell_angle_alpha 90.000000
_cell_angle_beta 39.356572
_cell_angle_gamma 90.000000
_cell_volume 2561.815325
_symmetry_space_group_name_H-M "C 2/C"
_symmetry_group_IT_number 15
_symmetry_cell_setting 'monoclinic'
loop_
_space_group_symop_operation_xyz
x,y,z
-x,y,1/2-z
-x,-y,-z
x,-y,1/2+z
1/2+x,1/2+y,z
1/2-x,1/2+y,1/2-z
1/2-x,1/2-y,-z
1/2+x,1/2-y,1/2+z
loop_
_atom_site_type_symbol
_atom_site_label
_atom_site_fract_x
_atom_site_fract_y
_atom_site_fract_z
Si Si1 0.594173 0.462385 0.247742
Si Si2 0.451998 0.125613 0.102495
Si Si3 0.612581 0.627190 0.861108
Si Si4 0.247935 0.098305 0.061567
Si Si5 0.953651 0.637645 0.581722
Si Si6 0.836259 0.024459 0.061699
Si Si7 0.175605 0.368971 0.561097
Si Si8 0.953155 0.837537 0.906996
O O1 0.500000 0.408463 0.250000
O O2 0.642584 0.375584 0.271889
O O3 0.692321 0.543026 0.154605
O O4 0.516684 0.552498 0.334858
O O5 0.360335 0.235403 0.139648
O O6 0.531605 0.145514 0.118721
O O7 0.404640 0.990335 0.131169
O O8 0.553740 0.132971 0.986851
O O9 0.677160 0.520429 0.861750
O O10 0.461275 0.604717 0.969959
O O11 0.149913 0.193684 0.087716
O O12 0.391973 0.142014 0.990205
O O13 0.265454 0.982841 0.008350
O O14 0.930251 0.756577 0.633418
O O15 0.711455 0.093448 0.108831
O O16 0.872360 0.899245 0.007772
O O17 0.250000 0.250000 0.500000
#
# Coordination Sequence:
#
# PCOD9255535 Si02
#       8
#     8   8   8   8   8   8   8   8
#     4   9  19  32  54  82 108 142 183 231 286 332
#     4  10  20  31  53  80 109 145 171 233 287 329
#     4  10  17  31  54  77 109 138 185 229 276 330
#     4   9  19  33  52  83 109 144 184 232 282 335
#     4  10  19  33  53  78 114 144 187 227 281 340
#     4   9  17  28  51  82 105 132 186 237 267 316
#     4  10  18  30  52  82 111 135 176 234 284 325
#     4   9  16  31  55  82 104 141 186 238 275 329
#
# _framework density 24.982285999999998
#
# number of rings (size 3 to 8) (size 9 to 14) (size 15 to 20)
#    0.000    2.500    2.500    1.125    0.000    0.000 
#    0.000    0.000   11.000    2.250    3.250    0.000 
#    0.000    0.000    0.000    0.000    0.000    0.000 
#
# Total GULP energy -178305.377592 kJ/mol
# GULP energy per Si atom -5572.043050 kJ/mol
# Density = 2.492543 g / cm^3
# Si number density = 24.982286 Si / 1000 Ang^3
#
#
#
# Elastic Constant Matrix: (Units=GPa)
#
#
# Indices 1 2 3 4 5 6 
#
# 1 117.8163 32.4837 6.7269 0.0000 25.9456 0.0000
# 2 32.4837 105.4032 -12.2365 0.0000 14.4128 0.0000
# 3 6.7269 -12.2365 49.3132 0.0000 18.2900 0.0000
# 4 0.0000 0.0000 0.0000 7.5164 0.0000 13.9886
# 5 25.9456 14.4128 18.2900 0.0000 34.8209 0.0000
# 6 0.0000 0.0000 0.0000 13.9886 0.0000 44.3640
#
#
#
# Elastic Compliance Matrix: (Units=1/GPa)
#
#
# Indices 1 2 3 4 5 6 
#
# 1 0.010690 -0.002185 0.000768 0.000000 -0.007465 0.000000
# 2 -0.002185 0.011613 0.005413 0.000000 -0.006022 0.000000
# 3 0.000768 0.005413 0.028019 0.000000 -0.017530 0.000000
# 4 0.000000 0.000000 0.000000 0.322001 0.000000 -0.101531
# 5 -0.007465 -0.006022 -0.017530 0.000000 0.045981 0.000000
# 6 0.000000 0.000000 0.000000 -0.101531 0.000000 0.054555
#
#
# Mechanical properties :
#
#
# Convention : Reuss Voigt Hill
#
# Bulk Modulus (GPa) = 17.14835 36.27566 26.71200
# Shear Modulus (GPa) = 10.32412 33.71083 22.01747
#
# Velocity S-wave (km/s) = 2.03508 3.67739 2.97193
# Velocity P-wave (km/s) = 3.52153 5.70815 4.74258
#
# Compressibility (1/GPa) = 0.05831466
#
# Stress axis : x y z
#
# Youngs Moduli (GPa) = 93.54425 86.11407 35.69040
#
# Poissons Ratio (x) = 0.18813 -0.02742
# Poissons Ratio (y) = 0.20436 -0.19319
# Poissons Ratio (z) = -0.07187 -0.46614
#
# Static dielectric constant tensor:
#      x y z
#    x 2.349850 0.000000 0.051960 
#    y 0.000000 2.157670 0.000000 
#    z 0.051960 0.000000 2.056750 
# 
# From -- ./inp_files/248624.got.cif
#   From: 2010.05.17/outbox.cif.g08.bks.cpg/sg15_125_cif.got.tgz:248624.got - 2010.06.03 18:47:42.
