data_PCOD9255538
_publ_section_title
;
Structure prediction by ZEFSAII (Michael W. Deem and Ramdas Pophale) SiO2 
 PCOD9255538
Probable space group: C 2/C
;
_chemical_formula_sum "Si O2"
_cell_formula_units_Z 52
_cell_length_a 14.528171
_cell_length_b 17.313099
_cell_length_c 16.315468
_cell_angle_alpha 90.000000
_cell_angle_beta 32.054729
_cell_angle_gamma 90.000000
_cell_volume 2178.001501
_symmetry_space_group_name_H-M "C 2/C"
_symmetry_group_IT_number 15
_symmetry_cell_setting 'monoclinic'
loop_
_space_group_symop_operation_xyz
x,y,z
-x,y,1/2-z
-x,-y,-z
x,-y,1/2+z
1/2+x,1/2+y,z
1/2-x,1/2+y,1/2-z
1/2-x,1/2-y,-z
1/2+x,1/2-y,1/2+z
loop_
_atom_site_type_symbol
_atom_site_label
_atom_site_fract_x
_atom_site_fract_y
_atom_site_fract_z
Si Si1 0.993514 0.227029 0.591751
Si Si2 0.691322 0.130977 0.220576
Si Si3 0.254125 0.520595 0.025323
Si Si4 0.500000 0.372691 0.250000
Si Si5 0.591342 0.584797 0.296200
Si Si6 0.141678 0.781714 0.473063
Si Si7 0.171432 0.628815 0.530172
O O1 0.972563 0.317321 0.629198
O O2 0.850220 0.208131 0.630034
O O3 0.169706 0.196228 0.416159
O O4 0.974457 0.178874 0.689029
O O5 0.764734 0.079847 0.240990
O O6 0.681029 0.074572 0.151460
O O7 0.333475 0.573786 0.893798
O O8 0.431279 0.475534 0.924405
O O9 0.118944 0.455671 0.098009
O O10 0.513332 0.668257 0.374639
O O11 0.671464 0.596779 0.146385
O O12 0.097997 0.693223 0.525560
O O13 0.293700 0.819334 0.413945
#
# Coordination Sequence:
#
# PCOD9255538 Si02
#       7
#     8   8   8   4   8   8   8
#     4  10  21  36  53  84 110 149 188 231 276 326
#     4  10  21  35  57  86 112 145 187 231 278 332
#     4  10  18  31  51  85 109 141 183 238 275 316
#     4  10  20  34  56  82 110 142 190 230 278 328
#     4  10  17  32  55  84 114 141 182 233 282 323
#     4   9  18  30  49  82 110 141 178 223 278 334
#     4  10  17  31  54  81 112 142 180 233 285 317
#
# _framework density 23.875098999999999
#
# number of rings (size 3 to 8) (size 9 to 14) (size 15 to 20)
#    0.000    2.154    3.077    1.846    0.000    3.692 
#    0.000    0.000    0.000    0.000   36.000   28.000 
#    0.000    0.000    0.000    0.000    0.000    0.000 
#
# Total GULP energy -144842.624941 kJ/mol
# GULP energy per Si atom -5570.870190 kJ/mol
# Density = 2.382076 g / cm^3
# Si number density = 23.875099 Si / 1000 Ang^3
#
#
#
# Elastic Constant Matrix: (Units=GPa)
#
#
# Indices 1 2 3 4 5 6 
#
# 1 64.9767 29.8629 39.2561 -0.0019 26.7437 0.0018
# 2 29.8629 91.4052 25.5294 0.0010 6.4657 0.0020
# 3 39.2561 25.5294 88.1399 0.0023 26.7463 0.0017
# 4 -0.0019 0.0010 0.0023 38.1940 -0.0011 1.8836
# 5 26.7437 6.4657 26.7463 -0.0011 36.4479 -0.0013
# 6 0.0018 0.0020 0.0017 1.8836 -0.0013 16.3787
#
#
#
# Elastic Compliance Matrix: (Units=1/GPa)
#
#
# Indices 1 2 3 4 5 6 
#
# 1 0.028285 -0.006456 -0.006146 0.000002 -0.015099 -0.000003
# 2 -0.006456 0.013385 -0.002211 0.000000 0.003985 0.000000
# 3 -0.006146 -0.002211 0.017027 -0.000001 -0.007593 -0.000001
# 4 0.000002 0.000000 -0.000001 0.026331 0.000001 -0.003028
# 5 -0.015099 0.003985 -0.007593 0.000001 0.043380 0.000005
# 6 -0.000003 0.000000 -0.000001 -0.003028 0.000005 0.061403
#
#
# Mechanical properties :
#
#
# Convention : Reuss Voigt Hill
#
# Bulk Modulus (GPa) = 34.39764 48.20207 41.29986
# Shear Modulus (GPa) = 21.82173 28.19568 25.00870
#
# Velocity S-wave (km/s) = 3.02652 3.44025 3.23999
# Velocity P-wave (km/s) = 5.16253 6.00112 5.59755
#
# Compressibility (1/GPa) = 0.02907176
#
# Stress axis : x y z
#
# Youngs Moduli (GPa) = 35.35439 74.70929 58.72881
#
# Poissons Ratio (x) = 0.48235 0.36094
# Poissons Ratio (y) = 0.22826 0.12983
# Poissons Ratio (z) = 0.21728 0.16516
#
# Static dielectric constant tensor:
#      x y z
#    x 2.056000 0.000000 -0.075650 
#    y 0.000000 1.930190 0.000000 
#    z -0.075650 0.000000 1.966790 
# 
# From -- ./inp_files/155418.got.cif
#   From: 2010.05.17/outbox.cif.g08.bks.cpg/sg15_78_cif.got.tgz:155418.got - 2010.06.03 18:47:42.
