data_PCOD9255068
_publ_section_title
;
Structure prediction by ZEFSAII (Michael W. Deem and Ramdas Pophale) SiO2 
 PCOD9255068
Probable space group: C 2/C
;
_chemical_formula_sum "Si O2"
_cell_formula_units_Z 56
_cell_length_a 10.248372
_cell_length_b 19.307650
_cell_length_c 14.162738
_cell_angle_alpha 90.000000
_cell_angle_beta 126.419839
_cell_angle_gamma 90.000000
_cell_volume 2255.065666
_symmetry_space_group_name_H-M "C 2/C"
_symmetry_group_IT_number 15
_symmetry_cell_setting 'monoclinic'
loop_
_space_group_symop_operation_xyz
x,y,z
-x,y,1/2-z
-x,-y,-z
x,-y,1/2+z
1/2+x,1/2+y,z
1/2-x,1/2+y,1/2-z
1/2-x,1/2-y,-z
1/2+x,1/2-y,1/2+z
loop_
_atom_site_type_symbol
_atom_site_label
_atom_site_fract_x
_atom_site_fract_y
_atom_site_fract_z
Si Si1 0.865049 0.004242 0.825021
Si Si2 0.335179 0.799505 0.252809
Si Si3 0.041708 0.789343 0.410148
Si Si4 0.858525 0.343896 0.467028
Si Si5 0.084428 0.155593 0.133573
Si Si6 0.238001 0.606397 0.937089
Si Si7 0.243758 0.985773 0.434601
O O1 0.792360 0.052159 0.876424
O O2 0.786445 0.018782 0.690008
O O3 0.060060 0.018085 0.899569
O O4 0.843760 0.921433 0.828142
O O5 0.407532 0.833548 0.379289
O O6 0.365656 0.717051 0.274712
O O7 0.357303 0.833664 0.158845
O O8 0.140689 0.812386 0.178704
O O9 0.043018 0.706961 0.422887
O O10 0.171446 0.816792 0.392422
O O11 0.111991 0.816242 0.540203
O O12 0.852983 0.420411 0.504373
O O13 0.891354 0.142565 0.052810
O O14 0.174236 0.554940 0.990243
#
# Coordination Sequence:
#
# PCOD9255068 Si02
#       7
#     8   8   8   8   8   8   8
#     4  10  18  29  47  72 103 126 159 207 253 289
#     4  10  18  30  47  69 103 134 161 197 246 297
#     4   9  18  27  45  68 101 132 159 196 253 296
#     4  10  17  28  43  73 101 126 159 206 247 301
#     4   9  18  30  45  69 101 129 166 200 240 300
#     4  10  18  32  48  74 102 130 163 207 249 289
#     4  10  18  27  48  70  99 126 162 204 253 288
#
# _framework density 24.832979999999999
#
# number of rings (size 3 to 8) (size 9 to 14) (size 15 to 20)
#    0.000    2.286    1.429    4.714    2.000    0.000 
#    0.000    0.714    0.000    0.857    0.000    0.000 
#   25.714    0.000    0.000    0.000    0.000    0.000 
#
# Total GULP energy -156492.293407 kJ/mol
# GULP energy per Si atom -5589.010479 kJ/mol
# Density = 2.477646 g / cm^3
# Si number density = 24.832980 Si / 1000 Ang^3
#
#
#
# Elastic Constant Matrix: (Units=GPa)
#
#
# Indices 1 2 3 4 5 6 
#
# 1 51.5068 6.0071 14.7755 0.0000 -18.5501 0.0000
# 2 6.0071 162.5657 29.8425 0.0000 -6.2987 0.0000
# 3 14.7755 29.8425 63.7682 0.0000 -18.6571 0.0000
# 4 0.0000 0.0000 0.0000 44.5743 0.0000 0.6000
# 5 -18.5501 -6.2987 -18.6571 0.0000 30.5319 0.0000
# 6 0.0000 0.0000 0.0000 0.6000 0.0000 24.6608
#
#
#
# Elastic Compliance Matrix: (Units=1/GPa)
#
#
# Indices 1 2 3 4 5 6 
#
# 1 0.024994 -0.000080 -0.001602 0.000000 0.014190 0.000000
# 2 -0.000080 0.006740 -0.003341 0.000000 -0.000699 0.000000
# 3 -0.001602 -0.003341 0.020859 0.000000 0.011084 0.000000
# 4 0.000000 0.000000 0.000000 0.022442 0.000000 -0.000546
# 5 0.014190 -0.000699 0.011084 0.000000 0.048003 0.000000
# 6 0.000000 0.000000 0.000000 -0.000546 0.000000 0.040564
#
#
# Mechanical properties :
#
#
# Convention : Reuss Voigt Hill
#
# Bulk Modulus (GPa) = 23.50230 42.12122 32.81176
# Shear Modulus (GPa) = 26.61978 35.10110 30.86044
#
# Velocity S-wave (km/s) = 3.27762 3.76372 3.52905
# Velocity P-wave (km/s) = 4.87939 5.99050 5.46326
#
# Compressibility (1/GPa) = 0.04254903
#
# Stress axis : x y z
#
# Youngs Moduli (GPa) = 40.00898 148.35834 47.94039
#
# Poissons Ratio (x) = 0.01182 0.07682
# Poissons Ratio (y) = 0.00319 0.16015
# Poissons Ratio (z) = 0.06411 0.49559
#
# Static dielectric constant tensor:
#      x y z
#    x 2.051560 0.000000 -0.005300 
#    y 0.000000 2.037370 0.000000 
#    z -0.005300 0.000000 1.925910 
# 
# From -- ./inp_files/119792.got.cif
#   From: 2010.05.17/outbox.cif.g08.bks.cpg/sg15_60_cif.got.tgz:119792.got - 2010.06.03 18:47:42.
