data_PCOD9255059
_publ_section_title
;
Structure prediction by ZEFSAII (Michael W. Deem and Ramdas Pophale) SiO2 
 PCOD9255059
Probable space group: C 2/C
;
_chemical_formula_sum "Si O2"
_cell_formula_units_Z 64
_cell_length_a 24.422223
_cell_length_b 18.809984
_cell_length_c 8.023080
_cell_angle_alpha 90.000000
_cell_angle_beta 121.164032
_cell_angle_gamma 90.000000
_cell_volume 3153.775948
_symmetry_space_group_name_H-M "C 2/C"
_symmetry_group_IT_number 15
_symmetry_cell_setting 'monoclinic'
loop_
_space_group_symop_operation_xyz
x,y,z
-x,y,1/2-z
-x,-y,-z
x,-y,1/2+z
1/2+x,1/2+y,z
1/2-x,1/2+y,1/2-z
1/2-x,1/2-y,-z
1/2+x,1/2-y,1/2+z
loop_
_atom_site_type_symbol
_atom_site_label
_atom_site_fract_x
_atom_site_fract_y
_atom_site_fract_z
Si Si1 0.655653 0.723280 0.909871
Si Si2 0.825343 0.268656 0.103527
Si Si3 0.574248 0.606041 0.906968
Si Si4 0.156174 0.856436 0.066535
Si Si5 0.806379 0.610800 0.784910
Si Si6 0.294178 0.842032 0.716172
Si Si7 0.631196 0.479379 0.798872
Si Si8 0.221198 0.474221 0.589523
O O1 0.604626 0.684950 0.948306
O O2 0.639166 0.685389 0.706348
O O3 0.666643 0.806603 0.876650
O O4 0.724152 0.693328 0.082331
O O5 0.858554 0.194998 0.113555
O O6 0.827928 0.311898 0.935055
O O7 0.750000 0.250000 0.000000
O O8 0.843201 0.317199 0.289105
O O9 0.500000 0.609411 0.750000
O O10 0.607652 0.556268 0.818471
O O11 0.588808 0.563692 0.100032
O O12 0.232983 0.865741 0.199898
O O13 0.130871 0.932243 0.968513
O O14 0.814887 0.548334 0.932401
O O15 0.807165 0.567689 0.611373
O O16 0.282926 0.923955 0.751347
O O17 0.703810 0.482673 0.841142
#
# Coordination Sequence:
#
# PCOD9255059 Si02
#       8
#     8   8   8   8   8   8   8   8
#     4  10  19  33  48  66  89 119 161 198 252 282
#     4   8  15  28  40  63  91 120 159 182 238 284
#     4  12  24  36  50  67  94 130 172 210 237 281
#     4   9  18  29  47  63  86 124 160 200 235 281
#     4   9  17  24  39  60  92 120 152 182 224 284
#     4   9  18  29  47  67  91 119 153 201 241 301
#     4  11  21  35  48  66  92 125 169 206 243 277
#     4  10  17  28  42  66  88 121 153 190 237 283
#
# _framework density 20.293134999999999
#
# number of rings (size 3 to 8) (size 9 to 14) (size 15 to 20)
#    0.000    2.250    1.250    4.125    1.750    0.000 
#    0.000    0.000    0.000    0.000    0.000    0.000 
#    0.000    0.000    0.000   19.125    1.000    1.375 
#
# Total GULP energy -178250.620165 kJ/mol
# GULP energy per Si atom -5570.331880 kJ/mol
# Density = 2.024695 g / cm^3
# Si number density = 20.293135 Si / 1000 Ang^3
#
#
#
# Elastic Constant Matrix: (Units=GPa)
#
#
# Indices 1 2 3 4 5 6 
#
# 1 20.7691 20.1841 9.7008 0.0000 2.5689 0.0000
# 2 20.1841 97.4619 -8.6304 0.0000 5.6956 0.0000
# 3 9.7008 -8.6304 61.6009 0.0000 -15.8480 0.0000
# 4 0.0000 0.0000 0.0000 23.8576 0.0000 -6.5882
# 5 2.5689 5.6956 -15.8480 0.0000 20.0763 0.0000
# 6 0.0000 0.0000 0.0000 -6.5882 0.0000 14.0105
#
#
#
# Elastic Compliance Matrix: (Units=1/GPa)
#
#
# Indices 1 2 3 4 5 6 
#
# 1 0.075403 -0.016141 -0.019375 0.000000 -0.020363 0.000000
# 2 -0.016141 0.013927 0.005029 0.000000 0.002084 0.000000
# 3 -0.019375 0.005029 0.025423 0.000000 0.021121 0.000000
# 4 0.000000 0.000000 0.000000 0.048170 0.000000 0.022651
# 5 -0.020363 0.002084 0.021121 0.000000 0.068497 0.000000
# 6 0.000000 0.000000 0.000000 0.022651 0.000000 0.082026
#
#
# Mechanical properties :
#
#
# Convention : Reuss Voigt Hill
#
# Bulk Modulus (GPa) = 18.59435 24.70453 21.64944
# Shear Modulus (GPa) = 12.74384 22.16072 17.45228
#
# Velocity S-wave (km/s) = 2.50869 3.30817 2.93577
# Velocity P-wave (km/s) = 4.19215 5.17613 4.70990
#
# Compressibility (1/GPa) = 0.05377979
#
# Stress axis : x y z
#
# Youngs Moduli (GPa) = 13.26202 71.80398 39.33456
#
# Poissons Ratio (x) = 1.15902 0.76209
# Poissons Ratio (y) = 0.21407 -0.19783
# Poissons Ratio (z) = 0.25695 -0.36113
#
# Static dielectric constant tensor:
#      x y z
#    x 1.697990 0.000000 -0.089840 
#    y 0.000000 1.842060 0.000000 
#    z -0.089840 0.000000 1.816440 
# 
# From -- ./inp_files/57544.got.cif
#   From: 2010.05.17/outbox.cif.g08.bks.cpg/sg15_29_cif.got.tgz:57544.got - 2010.06.03 18:47:42.
