data_PCOD9255769
_publ_section_title
;
Structure prediction by ZEFSAII (Michael W. Deem and Ramdas Pophale) SiO2 
 PCOD9255769
Probable space group: C 2/C
;
_chemical_formula_sum "Si O2"
_cell_formula_units_Z 64
_cell_length_a 16.255851
_cell_length_b 14.815432
_cell_length_c 15.133125
_cell_angle_alpha 90.000000
_cell_angle_beta 47.358703
_cell_angle_gamma 90.000000
_cell_volume 2681.017801
_symmetry_space_group_name_H-M "C 2/C"
_symmetry_group_IT_number 15
_symmetry_cell_setting 'monoclinic'
loop_
_space_group_symop_operation_xyz
x,y,z
-x,y,1/2-z
-x,-y,-z
x,-y,1/2+z
1/2+x,1/2+y,z
1/2-x,1/2+y,1/2-z
1/2-x,1/2-y,-z
1/2+x,1/2-y,1/2+z
loop_
_atom_site_type_symbol
_atom_site_label
_atom_site_fract_x
_atom_site_fract_y
_atom_site_fract_z
Si Si1 0.604136 0.174700 0.769540
Si Si2 0.662275 0.866085 0.424456
Si Si3 0.181873 0.579628 0.144797
Si Si4 0.681247 0.588592 0.932113
Si Si5 0.552158 0.630089 0.340542
Si Si6 0.111782 0.822274 0.002314
Si Si7 0.484175 0.007882 0.385935
Si Si8 0.102831 0.924512 0.284596
O O1 0.656136 0.170045 0.829454
O O2 0.703706 0.140301 0.636362
O O3 0.581405 0.278527 0.769059
O O4 0.507804 0.097435 0.846669
O O5 0.597253 0.786007 0.522329
O O6 0.792410 0.887021 0.348359
O O7 0.588084 0.957600 0.478704
O O8 0.287461 0.512876 0.068079
O O9 0.252599 0.669881 0.085177
O O10 0.100703 0.550043 0.125526
O O11 0.103758 0.558533 0.286096
O O12 0.640852 0.587485 0.859681
O O13 0.580988 0.624870 0.061267
O O14 0.589104 0.645265 0.416751
O O15 0.592983 0.532416 0.278030
O O16 0.017147 0.873263 0.130100
#
# Coordination Sequence:
#
# PCOD9255769 Si02
#       8
#     8   8   8   8   8   8   8   8
#     4   9  20  34  52  82 112 143 180 227 280 325
#     4  10  22  34  54  85 114 138 174 237 291 312
#     4  10  19  36  59  71 104 153 189 219 253 333
#     4   9  16  33  54  78 105 141 183 221 265 326
#     4  10  17  32  57  86 106 138 184 229 277 323
#     4  10  19  34  57  83 107 143 184 224 273 334
#     4  10  22  37  52  77 110 148 188 218 270 326
#     4  10  18  33  57  85 108 137 176 228 286 323
#
# _framework density 23.871531000000001
#
# number of rings (size 3 to 8) (size 9 to 14) (size 15 to 20)
#    0.000    2.250    2.500    1.125    1.750    1.500 
#    2.250    1.250    0.000    3.000    0.000    0.000 
#    0.000    0.000    0.000    0.000    0.000    0.000 
#
# Total GULP energy -178324.628313 kJ/mol
# GULP energy per Si atom -5572.644635 kJ/mol
# Density = 2.381720 g / cm^3
# Si number density = 23.871531 Si / 1000 Ang^3
#
#
#
# Elastic Constant Matrix: (Units=GPa)
#
#
# Indices 1 2 3 4 5 6 
#
# 1 61.2555 19.4853 9.7448 0.0000 -21.9769 0.0000
# 2 19.4853 155.3272 57.7474 0.0000 -28.8356 0.0000
# 3 9.7448 57.7474 65.7679 0.0000 -30.8917 0.0000
# 4 0.0000 0.0000 0.0000 16.9366 0.0000 -3.6282
# 5 -21.9769 -28.8356 -30.8917 0.0000 35.1935 0.0000
# 6 0.0000 0.0000 0.0000 -3.6282 0.0000 -1.0251
#
#
#
# Elastic Compliance Matrix: (Units=1/GPa)
#
#
# Indices 1 2 3 4 5 6 
#
# 1 0.022567 -0.002050 0.007293 0.000000 0.018815 0.000000
# 2 -0.002050 0.009757 -0.008694 0.000000 -0.000917 0.000000
# 3 0.007293 -0.008694 0.034969 0.000000 0.028126 0.000000
# 4 0.000000 0.000000 0.000000 0.033582 0.000000 -0.118855
# 5 0.018815 -0.000917 0.028126 0.000000 0.064100 0.000000
# 6 0.000000 0.000000 0.000000 -0.118855 0.000000 -0.554818
#
#
# Mechanical properties :
#
#
# Convention : Reuss Voigt Hill
#
# Bulk Modulus (GPa) = 16.55844 50.70064 33.62954
# Shear Modulus (GPa) = -13.78130 23.24588 4.73229
#
# Velocity S-wave (km/s) = -2.40534 3.12395 1.40950
# Velocity P-wave (km/s) = 0.87330 5.85637 4.09478
#
# Compressibility (1/GPa) = 0.06039216
#
# Stress axis : x y z
#
# Youngs Moduli (GPa) = 44.31246 102.48726 28.59654
#
# Poissons Ratio (x) = 0.21006 -0.20856
# Poissons Ratio (y) = 0.09082 0.24863
# Poissons Ratio (z) = -0.32319 0.89107
#
# Static dielectric constant tensor:
#      x y z
#    x 2.076900 0.000000 0.149310 
#    y 0.000000 2.017220 0.000000 
#    z 0.149310 0.000000 2.029270 
# 
# From -- ./inp_files/211367.got.cif
#   From: 2010.05.17/outbox.cif.g08.bks.cpg/sg15_106_cif.got.tgz:211367.got - 2010.06.03 18:47:42.
