data_PCOD9255158
_publ_section_title
;
Structure prediction by ZEFSAII (Michael W. Deem and Ramdas Pophale) SiO2 
 PCOD9255158
Probable space group: C 2/C
;
_chemical_formula_sum "Si O2"
_cell_formula_units_Z 32
_cell_length_a 12.344672
_cell_length_b 24.512542
_cell_length_c 5.589797
_cell_angle_alpha 90.000000
_cell_angle_beta 125.920499
_cell_angle_gamma 90.000000
_cell_volume 1369.805066
_symmetry_space_group_name_H-M "C 2/C"
_symmetry_group_IT_number 15
_symmetry_cell_setting 'monoclinic'
loop_
_space_group_symop_operation_xyz
x,y,z
-x,y,1/2-z
-x,-y,-z
x,-y,1/2+z
1/2+x,1/2+y,z
1/2-x,1/2+y,1/2-z
1/2-x,1/2-y,-z
1/2+x,1/2-y,1/2+z
loop_
_atom_site_type_symbol
_atom_site_label
_atom_site_fract_x
_atom_site_fract_y
_atom_site_fract_z
Si Si1 0.500000 0.286601 0.750000
Si Si2 0.213099 0.686563 0.393805
Si Si3 0.000000 0.799560 0.250000
Si Si4 0.657513 0.467697 0.947222
Si Si5 0.718521 0.851512 0.394337
O O1 0.507390 0.262586 0.495747
O O2 0.362752 0.320752 0.563219
O O3 0.250000 0.750000 0.500000
O O4 0.367594 0.663584 0.576489
O O5 0.157038 0.673295 0.058550
O O6 0.151853 0.660766 0.551843
O O7 0.500000 0.451389 0.750000
O O8 0.679395 0.502869 0.732754
O O9 0.750699 0.414919 0.045857
#
# Coordination Sequence:
#
# PCOD9255158 Si02
#       5
#     4   8   4   8   8
#     4   8  14  24  38  55  72 108 142 159 210 236
#     4  10  19  29  44  63  82 114 152 181 216 259
#     4   8  16  26  40  55  80 106 136 179 202 250
#     4  10  19  28  41  62  86 115 152 184 210 249
#     4  10  17  29  42  57  85 113 143 184 212 251
#
# _framework density 23.360987999999999
#
# number of rings (size 3 to 8) (size 9 to 14) (size 15 to 20)
#    0.000    2.500    1.250    2.250    0.000    0.000 
#    0.000    0.000    0.000    0.000    0.000    0.000 
#    0.000    0.000    0.000   22.500    0.000    0.000 
#
# Total GULP energy -89138.401993 kJ/mol
# GULP energy per Si atom -5571.150125 kJ/mol
# Density = 2.330782 g / cm^3
# Si number density = 23.360988 Si / 1000 Ang^3
#
#
#
# Elastic Constant Matrix: (Units=GPa)
#
#
# Indices 1 2 3 4 5 6 
#
# 1 51.0142 18.5097 56.1872 0.0000 -28.9204 0.0000
# 2 18.5097 98.6646 51.2212 0.0000 -35.0319 0.0000
# 3 56.1872 51.2212 232.0883 0.0000 -88.2366 0.0000
# 4 0.0000 0.0000 0.0000 24.1226 0.0000 -9.7508
# 5 -28.9204 -35.0319 -88.2366 0.0000 65.2545 0.0000
# 6 0.0000 0.0000 0.0000 -9.7508 0.0000 14.5555
#
#
#
# Elastic Compliance Matrix: (Units=1/GPa)
#
#
# Indices 1 2 3 4 5 6 
#
# 1 0.028139 -0.000847 -0.004233 0.000000 0.006292 0.000000
# 2 -0.000847 0.012568 -0.000301 0.000000 0.005965 0.000000
# 3 -0.004233 -0.000301 0.009519 0.000000 0.010833 0.000000
# 4 0.000000 0.000000 0.000000 0.056849 0.000000 0.038083
# 5 0.006292 0.005965 0.010833 0.000000 0.035964 0.000000
# 6 0.000000 0.000000 0.000000 0.038083 0.000000 0.094214
#
#
# Mechanical properties :
#
#
# Convention : Reuss Voigt Hill
#
# Bulk Modulus (GPa) = 25.33962 70.40036 47.86999
# Shear Modulus (GPa) = 19.14454 37.84312 28.49383
#
# Velocity S-wave (km/s) = 2.86581 4.02920 3.49624
# Velocity P-wave (km/s) = 4.67130 7.20050 6.06911
#
# Compressibility (1/GPa) = 0.03946388
#
# Stress axis : x y z
#
# Youngs Moduli (GPa) = 35.53737 79.56437 105.05727
#
# Poissons Ratio (x) = 0.06741 0.44472
# Poissons Ratio (y) = 0.03011 0.03161
# Poissons Ratio (z) = 0.15043 0.02394
#
# Static dielectric constant tensor:
#      x y z
#    x 2.078430 0.000000 0.020260 
#    y 0.000000 1.832820 0.000000 
#    z 0.020260 0.000000 2.029330 
# 
# From -- ./inp_files/4005.got.cif
#   From: 2010.05.17/outbox.cif.g08.bks.cpg/sg15_3_cif.got.tgz:4005.got - 2010.06.03 18:47:42.
