data_PCOD9255831
_publ_section_title
;
Structure prediction by ZEFSAII (Michael W. Deem and Ramdas Pophale) SiO2 
 PCOD9255831
Probable space group: C 2/C
;
_chemical_formula_sum "Si O2"
_cell_formula_units_Z 48
_cell_length_a 25.433945
_cell_length_b 6.832480
_cell_length_c 10.391755
_cell_angle_alpha 90.000000
_cell_angle_beta 77.023134
_cell_angle_gamma 90.000000
_cell_volume 1759.727313
_symmetry_space_group_name_H-M "C 2/C"
_symmetry_group_IT_number 15
_symmetry_cell_setting 'monoclinic'
loop_
_space_group_symop_operation_xyz
x,y,z
-x,y,1/2-z
-x,-y,-z
x,-y,1/2+z
1/2+x,1/2+y,z
1/2-x,1/2+y,1/2-z
1/2-x,1/2-y,-z
1/2+x,1/2-y,1/2+z
loop_
_atom_site_type_symbol
_atom_site_label
_atom_site_fract_x
_atom_site_fract_y
_atom_site_fract_z
Si Si1 0.808284 0.617970 0.894304
Si Si2 0.887037 0.291898 0.048581
Si Si3 0.855541 0.229064 0.802364
Si Si4 0.732415 0.868928 0.349681
Si Si5 0.994738 0.329210 0.108568
Si Si6 0.891643 0.231441 0.504889
O O1 0.851685 0.467425 0.806612
O O2 0.763894 0.611480 0.806548
O O3 0.781049 0.540927 0.041328
O O4 0.845704 0.797050 0.920772
O O5 0.824344 0.249889 0.116979
O O6 0.890131 0.528499 0.024683
O O7 0.935854 0.240040 0.114938
O O8 0.892272 0.189813 0.905910
O O9 0.791738 0.193071 0.858697
O O10 0.874886 0.155589 0.654440
O O11 0.000000 0.409739 0.250000
O O12 0.046535 0.190500 0.062153
O O13 0.000000 0.500000 0.000000
#
# Coordination Sequence:
#
# PCOD9255831 Si02
#       6
#     8   8   8   8   8   8
#     4  10  17  33  44  67  98 130 159 202 228 286
#     4   9  18  29  45  64 100 128 161 193 228 287
#     4  10  18  32  47  70  92 138 162 196 238 287
#     4  10  19  30  52  65  98 132 164 191 247 280
#     4  10  20  27  45  67  94 133 161 188 233 289
#     4   9  18  28  46  65 100 124 162 192 232 280
#
# _framework density 27.276951
#
# number of rings (size 3 to 8) (size 9 to 14) (size 15 to 20)
#    0.000    2.667    3.333    3.000   11.667    0.667 
#    0.000    0.000    0.000    0.000    0.000    0.000 
#    0.000   12.000    0.000    0.000    0.000    0.000 
#
# Total GULP energy -133884.076108 kJ/mol
# GULP energy per Si atom -5578.503171 kJ/mol
# Density = 2.721487 g / cm^3
# Si number density = 27.276951 Si / 1000 Ang^3
#
#
#
# Elastic Constant Matrix: (Units=GPa)
#
#
# Indices 1 2 3 4 5 6 
#
# 1 195.4592 18.4766 80.7113 0.0000 26.7647 0.0000
# 2 18.4766 69.2460 9.7227 0.0000 3.8170 0.0000
# 3 80.7113 9.7227 188.4793 0.0000 38.2786 0.0000
# 4 0.0000 0.0000 0.0000 3.0935 0.0000 3.3861
# 5 26.7647 3.8170 38.2786 0.0000 58.4471 0.0000
# 6 0.0000 0.0000 0.0000 3.3861 0.0000 24.0126
#
#
#
# Elastic Compliance Matrix: (Units=1/GPa)
#
#
# Indices 1 2 3 4 5 6 
#
# 1 0.006412 -0.001301 -0.002422 0.000000 -0.001265 0.000000
# 2 -0.001301 0.014825 -0.000152 0.000000 -0.000273 0.000000
# 3 -0.002422 -0.000152 0.007063 0.000000 -0.003507 0.000000
# 4 0.000000 0.000000 0.000000 0.382261 0.000000 -0.053904
# 5 -0.001265 -0.000273 -0.003507 0.000000 0.020003 0.000000
# 6 0.000000 0.000000 0.000000 -0.053904 0.000000 0.049246
#
#
# Mechanical properties :
#
#
# Convention : Reuss Voigt Hill
#
# Bulk Modulus (GPa) = 48.66278 74.55618 61.60948
# Shear Modulus (GPa) = 10.11306 40.06224 25.08765
#
# Velocity S-wave (km/s) = 1.92759 3.83655 3.03601
# Velocity P-wave (km/s) = 4.77840 6.85696 5.90978
#
# Compressibility (1/GPa) = 0.02054959
#
# Stress axis : x y z
#
# Youngs Moduli (GPa) = 155.94554 67.45431 141.58816
#
# Poissons Ratio (x) = 0.08777 0.34291
# Poissons Ratio (y) = 0.20292 0.02154
# Poissons Ratio (z) = 0.37768 0.01026
#
# Static dielectric constant tensor:
#      x y z
#    x 2.146550 0.000000 0.063100 
#    y 0.000000 2.385350 0.000000 
#    z 0.063100 0.000000 2.271800 
# 
# From -- ./inp_files/64879.got.cif
#   From: 2010.05.17/outbox.cif.g08.bks.cpg/sg15_33_cif.got.tgz:64879.got - 2010.06.03 18:47:42.
