data_PCOD9255887
_publ_section_title
;
Structure prediction by ZEFSAII (Michael W. Deem and Ramdas Pophale) SiO2 
 PCOD9255887
Probable space group: C 2/C
;
_chemical_formula_sum "Si O2"
_cell_formula_units_Z 48
_cell_length_a 20.067452
_cell_length_b 7.943221
_cell_length_c 16.433893
_cell_angle_alpha 90.000000
_cell_angle_beta 133.970385
_cell_angle_gamma 90.000000
_cell_volume 1885.298350
_symmetry_space_group_name_H-M "C 2/C"
_symmetry_group_IT_number 15
_symmetry_cell_setting 'monoclinic'
loop_
_space_group_symop_operation_xyz
x,y,z
-x,y,1/2-z
-x,-y,-z
x,-y,1/2+z
1/2+x,1/2+y,z
1/2-x,1/2+y,1/2-z
1/2-x,1/2-y,-z
1/2+x,1/2-y,1/2+z
loop_
_atom_site_type_symbol
_atom_site_label
_atom_site_fract_x
_atom_site_fract_y
_atom_site_fract_z
Si Si1 0.150422 0.070325 0.226080
Si Si2 0.996315 0.148824 0.839946
Si Si3 0.039837 0.292230 0.034748
Si Si4 0.377234 0.323212 0.501907
Si Si5 0.609424 0.857041 0.326873
Si Si6 0.800910 0.509419 0.735306
O O1 0.247664 0.087672 0.262952
O O2 0.109961 0.896288 0.225034
O O3 0.080767 0.111037 0.093436
O O4 0.130982 0.202251 0.282267
O O5 0.000000 0.194239 0.750000
O O6 0.061266 0.979552 0.907757
O O7 0.030682 0.291695 0.930948
O O8 0.115525 0.409493 0.140853
O O9 0.943617 0.287061 0.000266
O O10 0.348562 0.199919 0.551688
O O11 0.289583 0.395291 0.379571
O O12 0.500000 0.868449 0.250000
O O13 0.647795 0.017205 0.308732
#
# Coordination Sequence:
#
# PCOD9255887 Si02
#       6
#     8   8   8   8   8   8
#     4  10  17  33  55  81 116 146 184 240 296 330
#     4  11  17  32  60  80 111 151 189 242 293 333
#     4  10  20  33  54  85 119 143 191 242 295 333
#     4  11  17  34  57  85 111 142 192 254 284 324
#     4  11  19  34  56  90 117 140 197 248 284 332
#     4  11  21  30  56  88 118 146 189 246 292 335
#
# _framework density 25.460160999999999
#
# number of rings (size 3 to 8) (size 9 to 14) (size 15 to 20)
#    0.000    1.333   10.000    1.500    0.000    0.000 
#    0.000    0.833    0.000    4.000    0.000    9.333 
#    0.000    0.000    0.000    0.000    0.000    0.000 
#
# Total GULP energy -133733.093997 kJ/mol
# GULP energy per Si atom -5572.212250 kJ/mol
# Density = 2.540221 g / cm^3
# Si number density = 25.460161 Si / 1000 Ang^3
#
#
#
# Elastic Constant Matrix: (Units=GPa)
#
#
# Indices 1 2 3 4 5 6 
#
# 1 220.6903 35.8079 70.1145 0.0000 -6.8593 0.0000
# 2 35.8079 52.0762 33.6119 0.0000 -5.9109 0.0000
# 3 70.1145 33.6119 126.8818 0.0000 -16.5172 0.0000
# 4 0.0000 0.0000 0.0000 20.4397 0.0000 3.5860
# 5 -6.8593 -5.9109 -16.5172 0.0000 65.3033 0.0000
# 6 0.0000 0.0000 0.0000 3.5860 0.0000 35.0347
#
#
#
# Elastic Compliance Matrix: (Units=1/GPa)
#
#
# Indices 1 2 3 4 5 6 
#
# 1 0.005716 -0.002291 -0.002586 0.000000 -0.000261 0.000000
# 2 -0.002291 0.024102 -0.005032 0.000000 0.000668 0.000000
# 3 -0.002586 -0.005032 0.010908 0.000000 0.002032 0.000000
# 4 0.000000 0.000000 0.000000 0.049819 0.000000 -0.005099
# 5 -0.000261 0.000668 0.002032 0.000000 0.015860 0.000000
# 6 0.000000 0.000000 0.000000 -0.005099 0.000000 0.029065
#
#
# Mechanical properties :
#
#
# Convention : Reuss Voigt Hill
#
# Bulk Modulus (GPa) = 47.82793 75.41299 61.62046
# Shear Modulus (GPa) = 30.81538 41.49647 36.15593
#
# Velocity S-wave (km/s) = 3.48276 4.04153 3.77251
# Velocity P-wave (km/s) = 5.91600 7.17377 6.57503
#
# Compressibility (1/GPa) = 0.02090828
#
# Stress axis : x y z
#
# Youngs Moduli (GPa) = 174.93393 41.49119 91.67829
#
# Poissons Ratio (x) = 0.09507 0.23707
# Poissons Ratio (y) = 0.40082 0.46128
# Poissons Ratio (z) = 0.45236 0.20876
#
# Static dielectric constant tensor:
#      x y z
#    x 2.092000 0.000000 0.044560 
#    y 0.000000 2.241910 0.000000 
#    z 0.044560 0.000000 1.977510 
# 
# From -- ./inp_files/210444.got.cif
#   From: 2010.05.17/outbox.cif.g08.bks.cpg/sg15_106_cif.got.tgz:210444.got - 2010.06.03 18:47:42.
