data_PCOD9255761
_publ_section_title
;
Structure prediction by ZEFSAII (Michael W. Deem and Ramdas Pophale) SiO2 
 PCOD9255761
Probable space group: C 2/C
;
_chemical_formula_sum "Si O2"
_cell_formula_units_Z 60
_cell_length_a 8.737618
_cell_length_b 20.038928
_cell_length_c 25.151815
_cell_angle_alpha 90.000000
_cell_angle_beta 142.641707
_cell_angle_gamma 90.000000
_cell_volume 2672.271522
_symmetry_space_group_name_H-M "C 2/C"
_symmetry_group_IT_number 15
_symmetry_cell_setting 'monoclinic'
loop_
_space_group_symop_operation_xyz
x,y,z
-x,y,1/2-z
-x,-y,-z
x,-y,1/2+z
1/2+x,1/2+y,z
1/2-x,1/2+y,1/2-z
1/2-x,1/2-y,-z
1/2+x,1/2-y,1/2+z
loop_
_atom_site_type_symbol
_atom_site_label
_atom_site_fract_x
_atom_site_fract_y
_atom_site_fract_z
Si Si1 0.261017 0.851281 0.539785
Si Si2 0.229978 0.156468 0.377384
Si Si3 0.994292 0.878366 0.353289
Si Si4 0.000000 0.435033 0.250000
Si Si5 0.177760 0.946077 0.614332
Si Si6 0.710532 0.693929 0.184033
Si Si7 0.602509 0.778254 0.060866
Si Si8 0.288871 0.484085 0.585299
O O1 0.554979 0.835970 0.607972
O O2 0.112036 0.868667 0.445006
O O3 0.223360 0.911823 0.570517
O O4 0.149821 0.784056 0.534495
O O5 0.390312 0.176008 0.475109
O O6 0.175431 0.078262 0.366606
O O7 0.957056 0.192093 0.308082
O O8 0.140162 0.820830 0.363091
O O9 0.696078 0.886271 0.274976
O O10 0.077566 0.950547 0.355924
O O11 0.849018 0.488482 0.171446
O O12 0.216080 0.883129 0.665089
O O13 0.902941 0.968959 0.558263
O O14 0.552119 0.743875 0.102844
O O15 0.000000 0.712744 0.250000
O O16 0.000000 0.500000 0.500000
#
# Coordination Sequence:
#
# PCOD9255761 Si02
#       8
#     8   8   8   4   8   8   8   8
#     4  10  20  37  60  91 107 147 203 253 271 354
#     4  10  19  35  60  85 110 146 194 245 292 328
#     4  10  20  36  59  81 120 151 192 233 304 343
#     4  10  20  36  58  80 122 166 178 238 312 364
#     4   9  20  35  60  85 110 150 197 238 290 344
#     4  10  20  37  59  82 113 155 194 232 294 358
#     4  10  20  37  58  84 118 145 198 242 282 352
#     4  10  17  32  57  80 108 151 186 236 280 342
#
# _framework density 22.452809999999999
#
# number of rings (size 3 to 8) (size 9 to 14) (size 15 to 20)
#    0.000    2.133    3.333    2.000    0.000    2.133 
#    4.800    2.000    5.867    0.000    0.000    0.000 
#    0.000    0.000    0.000    0.000    0.000    0.000 
#
# Total GULP energy -167128.607343 kJ/mol
# GULP energy per Si atom -5570.953578 kJ/mol
# Density = 2.240171 g / cm^3
# Si number density = 22.452810 Si / 1000 Ang^3
#
#
#
# Elastic Constant Matrix: (Units=GPa)
#
#
# Indices 1 2 3 4 5 6 
#
# 1 92.5276 12.8564 25.6667 -0.0020 28.7389 -0.0012
# 2 12.8564 97.4724 9.4780 -0.0002 3.8814 -0.0005
# 3 25.6667 9.4780 50.5428 0.0010 31.4812 -0.0012
# 4 -0.0020 -0.0002 0.0010 1.5115 -0.0013 -4.7287
# 5 28.7389 3.8814 31.4812 -0.0013 31.8097 -0.0010
# 6 -0.0012 -0.0005 -0.0012 -4.7287 -0.0010 26.3733
#
#
#
# Elastic Compliance Matrix: (Units=1/GPa)
#
#
# Indices 1 2 3 4 5 6 
#
# 1 0.015365 -0.001636 0.002675 0.000010 -0.016330 0.000002
# 2 -0.001636 0.010661 -0.003334 0.000012 0.003477 0.000002
# 3 0.002675 -0.003334 0.052934 -0.000176 -0.054398 -0.000031
# 4 0.000010 0.000012 -0.000176 1.506880 0.000234 0.270181
# 5 -0.016330 0.003477 -0.054398 0.000234 0.099602 0.000042
# 6 0.000002 0.000002 -0.000031 0.270181 0.000042 0.086360
#
#
# Mechanical properties :
#
#
# Convention : Reuss Voigt Hill
#
# Bulk Modulus (GPa) = 13.44632 37.39388 25.42010
# Shear Modulus (GPa) = 2.77596 24.77499 13.77547
#
# Velocity S-wave (km/s) = 1.11312 3.32539 2.47964
# Velocity P-wave (km/s) = 2.76654 5.60668 4.42089
#
# Compressibility (1/GPa) = 0.07436982
#
# Stress axis : x y z
#
# Youngs Moduli (GPa) = 65.08389 93.80085 18.89141
#
# Poissons Ratio (x) = 0.15350 -0.05054
# Poissons Ratio (y) = 0.10651 0.06298
# Poissons Ratio (z) = -0.17413 0.31272
#
# Static dielectric constant tensor:
#      x y z
#    x 1.859200 0.000000 0.010010 
#    y 0.000000 1.777160 0.000000 
#    z 0.010010 0.000000 1.894420 
# 
# From -- ./inp_files/308938.got.cif
#   From: 2010.05.17/outbox.cif.g08.bks.cpg/sg15_155_cif.got.tgz:308938.got - 2010.06.03 18:47:42.
