data_PCOD9255630
_publ_section_title
;
Structure prediction by ZEFSAII (Michael W. Deem and Ramdas Pophale) SiO2 
 PCOD9255630
Probable space group: C 2/C
;
_chemical_formula_sum "Si O2"
_cell_formula_units_Z 60
_cell_length_a 20.084422
_cell_length_b 13.687636
_cell_length_c 9.127360
_cell_angle_alpha 90.000000
_cell_angle_beta 87.131784
_cell_angle_gamma 90.000000
_cell_volume 2506.043299
_symmetry_space_group_name_H-M "C 2/C"
_symmetry_group_IT_number 15
_symmetry_cell_setting 'monoclinic'
loop_
_space_group_symop_operation_xyz
x,y,z
-x,y,1/2-z
-x,-y,-z
x,-y,1/2+z
1/2+x,1/2+y,z
1/2-x,1/2+y,1/2-z
1/2-x,1/2-y,-z
1/2+x,1/2-y,1/2+z
loop_
_atom_site_type_symbol
_atom_site_label
_atom_site_fract_x
_atom_site_fract_y
_atom_site_fract_z
Si Si1 0.075546 0.789721 0.292142
Si Si2 0.155865 0.084709 0.600332
Si Si3 0.746599 0.482383 0.830453
Si Si4 0.581699 0.086445 0.255403
Si Si5 0.745223 0.139284 0.436677
Si Si6 0.057374 0.421395 0.445712
Si Si7 0.902539 0.894032 0.916969
Si Si8 0.500000 0.753447 0.250000
O O1 0.124179 0.814293 0.152899
O O2 0.095098 0.682547 0.349753
O O3 0.082299 0.868112 0.417927
O O4 0.000000 0.787768 0.250000
O O5 0.194070 0.074298 0.442593
O O6 0.207281 0.053162 0.721939
O O7 0.092944 0.009476 0.609955
O O8 0.780315 0.561029 0.938389
O O9 0.780836 0.401222 0.719968
O O10 0.500000 0.088126 0.250000
O O11 0.598090 0.982011 0.320457
O O12 0.600762 0.098367 0.084083
O O13 0.750000 0.250000 0.500000
O O14 0.824086 0.120946 0.406636
O O15 0.000000 0.500000 0.500000
O O16 0.025914 0.325859 0.375278
O O17 0.943195 0.819493 0.813637
#
# Coordination Sequence:
#
# PCOD9255630 Si02
#       8
#     8   8   8   8   8   8   8   4
#     4  11  21  32  53  80 123 158 203 248 284 354
#     4  10  18  37  55  84 127 159 193 245 298 369
#     4   8  18  37  64  91 116 159 199 240 325 369
#     4   9  18  29  47  67  92 141 202 227 282 333
#     4  10  20  41  71  88 125 161 206 259 309 374
#     4  10  17  32  49  69  95 153 196 235 285 341
#     4  10  23  36  55  92 114 164 203 241 308 357
#     4  12  20  32  60  76 126 152 210 238 292 372
#
# _framework density 23.942125000000001
#
# number of rings (size 3 to 8) (size 9 to 14) (size 15 to 20)
#    0.000    2.400    4.667    2.400    0.933    4.800 
#    0.000    2.667    5.867    0.000    0.000    0.000 
#    0.000    0.000    0.000    0.000    0.000    0.000 
#
# Total GULP energy -167246.947203 kJ/mol
# GULP energy per Si atom -5574.898240 kJ/mol
# Density = 2.388763 g / cm^3
# Si number density = 23.942125 Si / 1000 Ang^3
#
#
#
# Elastic Constant Matrix: (Units=GPa)
#
#
# Indices 1 2 3 4 5 6 
#
# 1 30.5915 1.9201 3.1920 0.0000 -9.5127 0.0000
# 2 1.9201 119.7567 41.9216 0.0000 -8.0716 0.0000
# 3 3.1920 41.9216 134.9065 0.0000 5.5158 0.0000
# 4 0.0000 0.0000 0.0000 36.3390 0.0000 5.1252
# 5 -9.5127 -8.0716 5.5158 0.0000 30.9610 0.0000
# 6 0.0000 0.0000 0.0000 5.1252 0.0000 11.5594
#
#
#
# Elastic Compliance Matrix: (Units=1/GPa)
#
#
# Indices 1 2 3 4 5 6 
#
# 1 0.036435 0.000753 -0.001573 0.000000 0.011671 0.000000
# 2 0.000753 0.009667 -0.003157 0.000000 0.003314 0.000000
# 3 -0.001573 -0.003157 0.008547 0.000000 -0.002829 0.000000
# 4 0.000000 0.000000 0.000000 0.029354 0.000000 -0.013015
# 5 0.011671 0.003314 -0.002829 0.000000 0.037253 0.000000
# 6 0.000000 0.000000 0.000000 -0.013015 0.000000 0.092281
#
#
# Mechanical properties :
#
#
# Convention : Reuss Voigt Hill
#
# Bulk Modulus (GPa) = 21.41621 42.14688 31.78155
# Shear Modulus (GPa) = 21.09217 31.65328 26.37272
#
# Velocity S-wave (km/s) = 2.97132 3.63998 3.32252
# Velocity P-wave (km/s) = 4.55369 5.94204 5.29358
#
# Compressibility (1/GPa) = 0.04669359
#
# Stress axis : x y z
#
# Youngs Moduli (GPa) = 27.44616 103.44728 117.00655
#
# Poissons Ratio (x) = -0.07792 0.18409
# Poissons Ratio (y) = -0.02067 0.36942
# Poissons Ratio (z) = 0.04318 0.32661
#
# Static dielectric constant tensor:
#      x y z
#    x 2.141980 0.000000 0.133070 
#    y 0.000000 1.991280 0.000000 
#    z 0.133070 0.000000 2.877360 
# 
# From -- ./inp_files/61530.got.cif
#   From: 2010.05.17/outbox.cif.g08.bks.cpg/sg15_31_cif.got.tgz:61530.got - 2010.06.03 18:47:42.
