data_PCOD9255508
_publ_section_title
;
Structure prediction by ZEFSAII (Michael W. Deem and Ramdas Pophale) SiO2 
 PCOD9255508
Probable space group: C 2/C
;
_chemical_formula_sum "Si O2"
_cell_formula_units_Z 64
_cell_length_a 16.267786
_cell_length_b 22.357423
_cell_length_c 8.830134
_cell_angle_alpha 90.000000
_cell_angle_beta 91.829905
_cell_angle_gamma 90.000000
_cell_volume 3209.932905
_symmetry_space_group_name_H-M "C 2/C"
_symmetry_group_IT_number 15
_symmetry_cell_setting 'monoclinic'
loop_
_space_group_symop_operation_xyz
x,y,z
-x,y,1/2-z
-x,-y,-z
x,-y,1/2+z
1/2+x,1/2+y,z
1/2-x,1/2+y,1/2-z
1/2-x,1/2-y,-z
1/2+x,1/2-y,1/2+z
loop_
_atom_site_type_symbol
_atom_site_label
_atom_site_fract_x
_atom_site_fract_y
_atom_site_fract_z
Si Si1 0.738275 0.147950 0.724318
Si Si2 0.411416 0.794154 0.389031
Si Si3 0.339922 0.424960 0.004772
Si Si4 0.693826 0.782640 0.807425
Si Si5 0.947232 0.262025 0.900448
Si Si6 0.114409 0.871825 0.041208
Si Si7 0.130592 0.165215 0.206667
Si Si8 0.086667 0.009154 0.710943
O O1 0.639548 0.157670 0.713711
O O2 0.763407 0.103118 0.590021
O O3 0.773659 0.214402 0.690680
O O4 0.793837 0.129747 0.873955
O O5 0.357860 0.790618 0.542165
O O6 0.503714 0.794863 0.461781
O O7 0.405381 0.731282 0.300967
O O8 0.382901 0.464355 0.131432
O O9 0.394229 0.369654 0.946333
O O10 0.342787 0.468042 0.859442
O O11 0.639536 0.790291 0.653324
O O12 0.771546 0.825583 0.804192
O O13 0.929471 0.191352 0.921947
O O14 0.000000 0.266596 0.750000
O O15 0.073846 0.931856 0.104918
O O16 0.115558 0.869206 0.860343
O O17 0.000000 0.979211 0.750000
#
# Coordination Sequence:
#
# PCOD9255508 Si02
#       8
#     8   8   8   8   8   8   8   8
#     4   9  17  33  54  71 102 134 179 217 269 310
#     4  10  17  31  52  79 100 139 175 220 262 329
#     4  11  21  37  54  72  96 138 180 230 260 315
#     4   9  16  32  51  76 102 140 172 216 267 326
#     4   9  19  31  50  73 109 138 174 212 262 324
#     4  10  22  34  49  77 105 150 178 217 264 311
#     4  11  20  32  53  73 106 137 186 217 264 317
#     4  11  24  39  54  72 106 141 186 229 271 304
#
# _framework density 19.938110999999999
#
# number of rings (size 3 to 8) (size 9 to 14) (size 15 to 20)
#    0.000    2.000    2.500    2.250    3.500    5.000 
#    0.000    0.000    0.000    0.000    0.000    0.000 
#    0.000   18.000    0.000    0.000    0.000    0.125 
#
# Total GULP energy -178257.118067 kJ/mol
# GULP energy per Si atom -5570.534940 kJ/mol
# Density = 1.989273 g / cm^3
# Si number density = 19.938111 Si / 1000 Ang^3
#
#
#
# Elastic Constant Matrix: (Units=GPa)
#
#
# Indices 1 2 3 4 5 6 
#
# 1 81.8937 13.7355 33.6453 0.0000 27.5370 0.0000
# 2 13.7355 38.7853 19.6579 0.0000 3.5851 0.0000
# 3 33.6453 19.6579 89.3620 0.0000 10.0304 0.0000
# 4 0.0000 0.0000 0.0000 28.2246 0.0000 -0.8490
# 5 27.5370 3.5851 10.0304 0.0000 31.2534 0.0000
# 6 0.0000 0.0000 0.0000 -0.8490 0.0000 20.2238
#
#
#
# Elastic Compliance Matrix: (Units=1/GPa)
#
#
# Indices 1 2 3 4 5 6 
#
# 1 0.020126 -0.003070 -0.005136 0.000000 -0.015732 0.000000
# 2 -0.003070 0.029540 -0.005462 0.000000 0.001069 0.000000
# 3 -0.005136 -0.005462 0.014261 0.000000 0.000575 0.000000
# 4 0.000000 0.000000 0.000000 0.035475 0.000000 0.001489
# 5 -0.015732 0.001069 0.000575 0.000000 0.045551 0.000000
# 6 0.000000 0.000000 0.000000 0.001489 0.000000 0.049509
#
#
# Mechanical properties :
#
#
# Convention : Reuss Voigt Hill
#
# Bulk Modulus (GPa) = 27.32995 38.23538 32.78266
# Shear Modulus (GPa) = 21.36786 25.47386 23.42086
#
# Velocity S-wave (km/s) = 3.27725 3.57830 3.43108
# Velocity P-wave (km/s) = 5.29695 6.02420 5.67224
#
# Compressibility (1/GPa) = 0.03658990
#
# Stress axis : x y z
#
# Youngs Moduli (GPa) = 49.68660 33.85258 70.11939
#
# Poissons Ratio (x) = 0.10393 0.36016
# Poissons Ratio (y) = 0.15253 0.38302
# Poissons Ratio (z) = 0.25521 0.18492
#
# Static dielectric constant tensor:
#      x y z
#    x 1.784850 0.000000 0.023770 
#    y 0.000000 1.718950 0.000000 
#    z 0.023770 0.000000 1.781630 
# 
# From -- ./inp_files/51264.got.cif
#   From: 2010.05.17/outbox.cif.g08.bks.cpg/sg15_26_cif.got.tgz:51264.got - 2010.06.03 18:47:42.
