data_PCOD9255625
_publ_section_title
;
Structure prediction by ZEFSAII (Michael W. Deem and Ramdas Pophale) SiO2 
 PCOD9255625
Probable space group: C 2/C
;
_chemical_formula_sum "Si O2"
_cell_formula_units_Z 56
_cell_length_a 28.414901
_cell_length_b 14.145282
_cell_length_c 7.941428
_cell_angle_alpha 90.000000
_cell_angle_beta 96.871601
_cell_angle_gamma 90.000000
_cell_volume 3169.023523
_symmetry_space_group_name_H-M "C 2/C"
_symmetry_group_IT_number 15
_symmetry_cell_setting 'monoclinic'
loop_
_space_group_symop_operation_xyz
x,y,z
-x,y,1/2-z
-x,-y,-z
x,-y,1/2+z
1/2+x,1/2+y,z
1/2-x,1/2+y,1/2-z
1/2-x,1/2-y,-z
1/2+x,1/2-y,1/2+z
loop_
_atom_site_type_symbol
_atom_site_label
_atom_site_fract_x
_atom_site_fract_y
_atom_site_fract_z
Si Si1 0.273961 0.771772 0.334167
Si Si2 0.342737 0.561757 0.864147
Si Si3 0.353932 0.722858 0.134745
Si Si4 0.910426 0.063068 0.603246
Si Si5 0.051703 0.129979 0.210092
Si Si6 0.205794 0.641436 0.101443
Si Si7 0.263980 0.970937 0.208068
O O1 0.250000 0.750000 0.500000
O O2 0.323258 0.727740 0.292985
O O3 0.237049 0.729501 0.180419
O O4 0.280807 0.883740 0.328767
O O5 0.377382 0.606132 0.736361
O O6 0.292370 0.523033 0.781446
O O7 0.337320 0.635790 0.012109
O O8 0.371902 0.476272 0.955263
O O9 0.407909 0.701026 0.205068
O O10 0.339411 0.813886 0.014131
O O11 0.944410 0.120605 0.492023
O O12 0.937203 0.973206 0.699033
O O13 0.000000 0.158229 0.250000
O O14 0.206113 0.566200 0.254277
O O15 0.230469 0.574141 0.974108
#
# Coordination Sequence:
#
# PCOD9255625 Si02
#       7
#     8   8   8   8   8   8   8
#     4  11  22  35  52  78 109 142 181 222 259 327
#     4  10  17  32  48  76 105 147 178 216 258 321
#     4  10  21  36  50  74 110 141 178 230 266 314
#     4   9  20  29  51  76 107 141 186 220 268 323
#     4  10  20  35  53  76 106 145 188 234 280 322
#     4  11  21  36  50  78 106 140 183 217 260 323
#     4  11  20  32  52  70 109 145 180 207 267 310
#
# _framework density 17.671059
#
# number of rings (size 3 to 8) (size 9 to 14) (size 15 to 20)
#    0.000    1.714    2.857    3.000    6.000    0.000 
#    0.000    0.000    0.000    0.000    0.000    4.000 
#    0.000    0.000    0.000    0.714    0.000    0.000 
#
# Total GULP energy -155915.810046 kJ/mol
# GULP energy per Si atom -5568.421787 kJ/mol
# Density = 1.763084 g / cm^3
# Si number density = 17.671059 Si / 1000 Ang^3
#
#
#
# Elastic Constant Matrix: (Units=GPa)
#
#
# Indices 1 2 3 4 5 6 
#
# 1 107.4214 21.2212 36.0719 0.0000 -6.4692 0.0000
# 2 21.2212 61.2583 14.7103 0.0000 0.3661 0.0000
# 3 36.0719 14.7103 86.9438 0.0000 -16.1102 0.0000
# 4 0.0000 0.0000 0.0000 28.0087 0.0000 2.6749
# 5 -6.4692 0.3661 -16.1102 0.0000 19.2912 0.0000
# 6 0.0000 0.0000 0.0000 2.6749 0.0000 12.4377
#
#
#
# Elastic Compliance Matrix: (Units=1/GPa)
#
#
# Indices 1 2 3 4 5 6 
#
# 1 0.011294 -0.002927 -0.004115 0.000000 0.000406 0.000000
# 2 -0.002927 0.017945 -0.002445 0.000000 -0.003364 0.000000
# 3 -0.004115 -0.002445 0.015824 0.000000 0.011881 0.000000
# 4 0.000000 0.000000 0.000000 0.036452 0.000000 -0.007840
# 5 0.000406 -0.003364 0.011881 0.000000 0.061960 0.000000
# 6 0.000000 0.000000 0.000000 -0.007840 0.000000 0.082087
#
#
# Mechanical properties :
#
#
# Convention : Reuss Voigt Hill
#
# Bulk Modulus (GPa) = 38.33013 44.40334 41.36674
# Shear Modulus (GPa) = 19.74471 24.18885 21.96678
#
# Velocity S-wave (km/s) = 3.34630 3.70380 3.52958
# Velocity P-wave (km/s) = 6.05544 6.59341 6.33014
#
# Compressibility (1/GPa) = 0.02608914
#
# Stress axis : x y z
#
# Youngs Moduli (GPa) = 88.54570 55.72429 63.19385
#
# Poissons Ratio (x) = 0.16308 0.26005
# Poissons Ratio (y) = 0.25914 0.15454
# Poissons Ratio (z) = 0.36438 0.13627
#
# Static dielectric constant tensor:
#      x y z
#    x 1.614690 0.000000 -0.034520 
#    y 0.000000 1.648640 0.000000 
#    z -0.034520 0.000000 1.755100 
# 
# From -- ./inp_files/69607.got.cif
#   From: 2010.05.17/outbox.cif.g08.bks.cpg/sg15_35_cif.got.tgz:69607.got - 2010.06.03 18:47:42.
