data_PCOD9255909
_publ_section_title
;
Structure prediction by ZEFSAII (Michael W. Deem and Ramdas Pophale) SiO2 
 PCOD9255909
Probable space group: C 2/C
;
_chemical_formula_sum "Si O2"
_cell_formula_units_Z 60
_cell_length_a 10.724291
_cell_length_b 20.622759
_cell_length_c 14.352858
_cell_angle_alpha 90.000000
_cell_angle_beta 87.458681
_cell_angle_gamma 90.000000
_cell_volume 3171.220267
_symmetry_space_group_name_H-M "C 2/C"
_symmetry_group_IT_number 15
_symmetry_cell_setting 'monoclinic'
loop_
_space_group_symop_operation_xyz
x,y,z
-x,y,1/2-z
-x,-y,-z
x,-y,1/2+z
1/2+x,1/2+y,z
1/2-x,1/2+y,1/2-z
1/2-x,1/2-y,-z
1/2+x,1/2-y,1/2+z
loop_
_atom_site_type_symbol
_atom_site_label
_atom_site_fract_x
_atom_site_fract_y
_atom_site_fract_z
Si Si1 0.609846 0.048112 0.874684
Si Si2 0.500000 0.659239 0.250000
Si Si3 0.869821 0.601645 0.119304
Si Si4 0.181757 0.544038 0.659229
Si Si5 0.455167 0.257438 0.937335
Si Si6 0.124391 0.345391 0.522307
Si Si7 0.749707 0.896696 0.683338
Si Si8 0.228216 0.840402 0.458332
O O1 0.663020 0.057969 0.769372
O O2 0.458535 0.051103 0.877136
O O3 0.641496 0.974703 0.900610
O O4 0.658277 0.101856 0.943207
O O5 0.522342 0.703905 0.158410
O O6 0.617734 0.615075 0.273218
O O7 0.848394 0.612122 0.229090
O O8 0.002680 0.626609 0.080143
O O9 0.768110 0.638011 0.060838
O O10 0.229042 0.470232 0.648137
O O11 0.268386 0.596748 0.606693
O O12 0.341252 0.206633 0.922599
O O13 0.574776 0.218435 0.971938
O O14 0.400130 0.302526 0.022034
O O15 0.227329 0.346634 0.599709
#
# Coordination Sequence:
#
# PCOD9255909 Si02
#       8
#     8   4   8   8   8   8   8   8
#     4  10  18  29  56  99 122 141 188 263 309 329
#     4  12  26  44  58  80 124 166 206 228 292 368
#     4  10  17  33  56  87 122 146 190 247 302 346
#     4  10  19  33  61  90 124 149 194 249 305 340
#     4  10  23  37  61  82 119 163 199 234 291 360
#     4  11  20  34  60  92 118 147 199 247 304 339
#     4  11  23  38  60  87 116 159 195 254 295 354
#     4  10  19  37  60  88 116 159 199 233 294 361
#
# _framework density 18.920162999999999
#
# number of rings (size 3 to 8) (size 9 to 14) (size 15 to 20)
#    0.000    1.600    5.333    1.600    1.867    0.533 
#    0.000    0.667    0.000    0.000    0.000    0.000 
#    0.000    0.000    0.000    0.000    0.000    0.000 
#
# Total GULP energy -167442.556514 kJ/mol
# GULP energy per Si atom -5581.418550 kJ/mol
# Density = 1.887710 g / cm^3
# Si number density = 18.920163 Si / 1000 Ang^3
#
#
#
# Elastic Constant Matrix: (Units=GPa)
#
#
# Indices 1 2 3 4 5 6 
#
# 1 44.3214 18.1524 22.5186 0.0000 8.8930 0.0000
# 2 18.1524 68.8986 34.4773 0.0000 -5.0190 0.0000
# 3 22.5186 34.4773 74.2138 0.0000 -1.0452 0.0000
# 4 0.0000 0.0000 0.0000 32.5517 0.0000 -3.2595
# 5 8.8930 -5.0190 -1.0452 0.0000 22.9182 0.0000
# 6 0.0000 0.0000 0.0000 -3.2595 0.0000 15.0977
#
#
#
# Elastic Compliance Matrix: (Units=1/GPa)
#
#
# Indices 1 2 3 4 5 6 
#
# 1 0.031207 -0.005712 -0.007008 0.000000 -0.013680 0.000000
# 2 -0.005712 0.020282 -0.007600 0.000000 0.006311 0.000000
# 3 -0.007008 -0.007600 0.019159 0.000000 0.001929 0.000000
# 4 0.000000 0.000000 0.000000 0.031399 0.000000 0.006779
# 5 -0.013680 0.006311 0.001929 0.000000 0.050412 0.000000
# 6 0.000000 0.000000 0.000000 0.006779 0.000000 0.067699
#
#
# Mechanical properties :
#
#
# Convention : Reuss Voigt Hill
#
# Bulk Modulus (GPa) = 33.32474 37.52561 35.42517
# Shear Modulus (GPa) = 18.46369 21.59922 20.03145
#
# Velocity S-wave (km/s) = 3.12729 3.38242 3.25735
# Velocity P-wave (km/s) = 5.53999 5.92715 5.73683
#
# Compressibility (1/GPa) = 0.03000774
#
# Stress axis : x y z
#
# Youngs Moduli (GPa) = 32.04364 49.30509 52.19426
#
# Poissons Ratio (x) = 0.28161 0.36580
# Poissons Ratio (y) = 0.18302 0.39670
# Poissons Ratio (z) = 0.22458 0.37474
#
# Static dielectric constant tensor:
#      x y z
#    x 1.663020 0.000000 0.003770 
#    y 0.000000 1.674100 0.000000 
#    z 0.003770 0.000000 1.660300 
# 
# From -- ./inp_files/145654.got.cif
#   From: 2010.05.17/outbox.cif.g08.bks.cpg/sg15_73_cif.got.tgz:145654.got - 2010.06.03 18:47:42.
