data_PCOD9255027
_publ_section_title
;
Structure prediction by ZEFSAII (Michael W. Deem and Ramdas Pophale) SiO2 
 PCOD9255027
Probable space group: C 2/C
;
_chemical_formula_sum "Si O2"
_cell_formula_units_Z 48
_cell_length_a 18.909577
_cell_length_b 7.744208
_cell_length_c 13.977563
_cell_angle_alpha 90.000000
_cell_angle_beta 106.893985
_cell_angle_gamma 90.000000
_cell_volume 1958.535570
_symmetry_space_group_name_H-M "C 2/C"
_symmetry_group_IT_number 15
_symmetry_cell_setting 'monoclinic'
loop_
_space_group_symop_operation_xyz
x,y,z
-x,y,1/2-z
-x,-y,-z
x,-y,1/2+z
1/2+x,1/2+y,z
1/2-x,1/2+y,1/2-z
1/2-x,1/2-y,-z
1/2+x,1/2-y,1/2+z
loop_
_atom_site_type_symbol
_atom_site_label
_atom_site_fract_x
_atom_site_fract_y
_atom_site_fract_z
Si Si1 0.655519 0.907491 0.696339
Si Si2 0.176541 0.789856 0.718663
Si Si3 0.078840 0.895661 0.932850
Si Si4 0.932720 0.083982 0.837637
Si Si5 0.666715 0.297312 0.487745
Si Si6 0.077232 0.521952 0.971831
O O1 0.736824 0.825534 0.734738
O O2 0.593775 0.772027 0.706945
O O3 0.637738 0.937886 0.577585
O O4 0.657165 0.096601 0.744301
O O5 0.159896 0.796361 0.599210
O O6 0.124320 0.946070 0.729731
O O7 0.071213 0.899974 0.046707
O O8 0.073486 0.694239 0.906814
O O9 0.013508 0.004864 0.859468
O O10 0.151080 0.010234 0.944861
O O11 0.750000 0.250000 0.500000
O O12 0.606673 0.152211 0.433793
O O13 0.000000 0.500000 0.000000
#
# Coordination Sequence:
#
# PCOD9255027 Si02
#       6
#     8   8   8   8   8   8
#     4  10  17  27  47  75 102 127 165 219 267 300
#     4  10  18  29  47  75 105 131 168 218 265 308
#     4   9  17  30  50  71  99 135 172 214 256 302
#     4   9  16  28  47  74  99 125 167 218 263 297
#     4  10  21  34  50  76 110 143 176 211 264 324
#     4  10  19  33  55  80 102 132 177 224 263 308
#
# _framework density 24.508109000000001
#
# number of rings (size 3 to 8) (size 9 to 14) (size 15 to 20)
#    0.000    2.333    1.667    5.000    0.000    0.667 
#    0.000    0.000    0.000    4.000    0.000    2.333 
#    0.000    0.000    0.000    0.000    0.000    0.000 
#
# Total GULP energy -134038.789990 kJ/mol
# GULP energy per Si atom -5584.949583 kJ/mol
# Density = 2.445233 g / cm^3
# Si number density = 24.508109 Si / 1000 Ang^3
#
#
#
# Elastic Constant Matrix: (Units=GPa)
#
#
# Indices 1 2 3 4 5 6 
#
# 1 60.8973 34.3490 7.8057 0.0000 -1.8288 0.0000
# 2 34.3490 158.5950 33.2402 0.0000 1.5819 0.0000
# 3 7.8057 33.2402 86.6593 0.0000 2.0429 0.0000
# 4 0.0000 0.0000 0.0000 27.2102 0.0000 23.4654
# 5 -1.8288 1.5819 2.0429 0.0000 23.0276 0.0000
# 6 0.0000 0.0000 0.0000 23.4654 0.0000 17.0480
#
#
#
# Elastic Compliance Matrix: (Units=1/GPa)
#
#
# Indices 1 2 3 4 5 6 
#
# 1 0.018781 -0.004047 -0.000181 0.000000 0.001786 0.000000
# 2 -0.004047 0.007730 -0.002586 0.000000 -0.000623 0.000000
# 3 -0.000181 -0.002586 0.012570 0.000000 -0.000952 0.000000
# 4 0.000000 0.000000 0.000000 -0.196521 0.000000 0.270498
# 5 0.001786 -0.000623 -0.000952 0.000000 0.043695 0.000000
# 6 0.000000 0.000000 0.000000 0.270498 0.000000 -0.313666
#
#
# Mechanical properties :
#
#
# Convention : Reuss Voigt Hill
#
# Bulk Modulus (GPa) = 39.28959 50.77129 45.03044
# Shear Modulus (GPa) = -12.33662 28.84091 8.25215
#
# Velocity S-wave (km/s) = -2.24602 3.43416 1.83696
# Velocity P-wave (km/s) = 3.05613 6.04034 4.78673
#
# Compressibility (1/GPa) = 0.02545203
#
# Stress axis : x y z
#
# Youngs Moduli (GPa) = 53.24563 129.36343 79.55405
#
# Poissons Ratio (x) = 0.52359 0.01442
# Poissons Ratio (y) = 0.21551 0.20571
# Poissons Ratio (z) = 0.00965 0.33451
#
# Static dielectric constant tensor:
#      x y z
#    x 1.822150 0.000000 -0.057410 
#    y 0.000000 2.075890 0.000000 
#    z -0.057410 0.000000 1.937010 
# 
# From -- ./inp_files/246855.got.cif
#   From: 2010.05.17/outbox.cif.g08.bks.cpg/sg15_124_cif.got.tgz:246855.got - 2010.06.03 18:47:42.
