data_PCOD9255244
_publ_section_title
;
Structure prediction by ZEFSAII (Michael W. Deem and Ramdas Pophale) SiO2 
 PCOD9255244
Probable space group: C 2/C
;
_chemical_formula_sum "Si O2"
_cell_formula_units_Z 56
_cell_length_a 8.130449
_cell_length_b 18.667392
_cell_length_c 14.446829
_cell_angle_alpha 90.000000
_cell_angle_beta 67.396591
_cell_angle_gamma 90.000000
_cell_volume 2024.233253
_symmetry_space_group_name_H-M "C 2/C"
_symmetry_group_IT_number 15
_symmetry_cell_setting 'monoclinic'
loop_
_space_group_symop_operation_xyz
x,y,z
-x,y,1/2-z
-x,-y,-z
x,-y,1/2+z
1/2+x,1/2+y,z
1/2-x,1/2+y,1/2-z
1/2-x,1/2-y,-z
1/2+x,1/2-y,1/2+z
loop_
_atom_site_type_symbol
_atom_site_label
_atom_site_fract_x
_atom_site_fract_y
_atom_site_fract_z
Si Si1 0.891445 0.726832 0.675297
Si Si2 0.633883 0.468866 0.306427
Si Si3 0.616020 0.376992 0.819070
Si Si4 0.549308 0.153661 0.369848
Si Si5 0.420651 0.690847 0.632606
Si Si6 0.331773 0.137305 0.958805
Si Si7 0.011482 0.500273 0.109984
O O1 0.927757 0.803055 0.619938
O O2 0.695831 0.705181 0.749481
O O3 0.000000 0.725506 0.750000
O O4 0.966034 0.664256 0.596810
O O5 0.500000 0.475862 0.250000
O O6 0.601129 0.544975 0.365692
O O7 0.552235 0.394595 0.366708
O O8 0.834450 0.479491 0.210855
O O9 0.500000 0.377062 0.750000
O O10 0.814051 0.355079 0.743655
O O11 0.472466 0.233837 0.396018
O O12 0.682334 0.137646 0.428939
O O13 0.433249 0.082463 0.386945
O O14 0.288575 0.691174 0.572363
O O15 0.338674 0.060312 0.905788
O O16 0.000000 0.500000 0.000000
#
# Coordination Sequence:
#
# PCOD9255244 Si02
#       7
#     8   8   8   8   8   8   8
#     4   8  14  25  45  69  94 116 157 212 262 294
#     4  10  19  32  52  72 103 142 178 212 267 334
#     4   8  15  28  45  65  91 128 162 203 248 314
#     4   9  18  30  49  76 104 133 167 211 276 323
#     4  10  18  29  49  78 104 130 173 221 264 313
#     4  10  17  29  53  79 101 128 170 227 267 312
#     4   9  18  33  55  77 102 140 179 218 272 327
#
# _framework density 27.664794000000001
#
# number of rings (size 3 to 8) (size 9 to 14) (size 15 to 20)
#    0.000    2.857    1.429    1.286    0.000    0.000 
#    0.000    0.000    9.429   24.857    0.000    0.000 
#    0.000    0.000    0.000    0.000    0.000    0.000 
#
# Total GULP energy -155868.564524 kJ/mol
# GULP energy per Si atom -5566.734447 kJ/mol
# Density = 2.760183 g / cm^3
# Si number density = 27.664794 Si / 1000 Ang^3
#
#
#
# Elastic Constant Matrix: (Units=GPa)
#
#
# Indices 1 2 3 4 5 6 
#
# 1 56.0699 5.5855 -4.0083 0.0000 4.6712 0.0000
# 2 5.5855 231.5871 8.7322 0.0000 -2.7373 0.0000
# 3 -4.0083 8.7322 100.4624 0.0000 -3.9186 0.0000
# 4 0.0000 0.0000 0.0000 27.4166 0.0000 12.3671
# 5 4.6712 -2.7373 -3.9186 0.0000 22.2711 0.0000
# 6 0.0000 0.0000 0.0000 12.3671 0.0000 34.6160
#
#
#
# Elastic Compliance Matrix: (Units=1/GPa)
#
#
# Indices 1 2 3 4 5 6 
#
# 1 0.018245 -0.000508 0.000625 0.000000 -0.003779 0.000000
# 2 -0.000508 0.004351 -0.000376 0.000000 0.000575 0.000000
# 3 0.000625 -0.000376 0.010074 0.000000 0.001595 0.000000
# 4 0.000000 0.000000 0.000000 0.043482 0.000000 -0.015535
# 5 -0.003779 0.000575 0.001595 0.000000 0.046045 0.000000
# 6 0.000000 0.000000 0.000000 -0.015535 0.000000 0.034438
#
#
# Mechanical properties :
#
#
# Convention : Reuss Voigt Hill
#
# Bulk Modulus (GPa) = 31.10331 45.41534 38.25932
# Shear Modulus (GPa) = 29.78469 42.04808 35.91639
#
# Velocity S-wave (km/s) = 3.28476 3.90284 3.60706
# Velocity P-wave (km/s) = 5.06493 6.06312 5.58637
#
# Compressibility (1/GPa) = 0.03215092
#
# Stress axis : x y z
#
# Youngs Moduli (GPa) = 54.80943 229.81817 99.26735
#
# Poissons Ratio (x) = 0.11681 -0.06201
# Poissons Ratio (y) = 0.02786 0.03733
# Poissons Ratio (z) = -0.03424 0.08642
#
# Static dielectric constant tensor:
#      x y z
#    x 2.287220 0.000000 0.005670 
#    y 0.000000 2.256120 0.000000 
#    z 0.005670 0.000000 2.251500 
# 
# From -- ./inp_files/199052.got.cif
#   From: 2010.05.17/outbox.cif.g08.bks.cpg/sg15_100_cif.got.tgz:199052.got - 2010.06.03 18:47:42.
