data_PCOD9255626
_publ_section_title
;
Structure prediction by ZEFSAII (Michael W. Deem and Ramdas Pophale) SiO2 
 PCOD9255626
Probable space group: C 2/C
;
_chemical_formula_sum "Si O2"
_cell_formula_units_Z 56
_cell_length_a 28.242837
_cell_length_b 20.614723
_cell_length_c 12.593792
_cell_angle_alpha 90.000000
_cell_angle_beta 28.015233
_cell_angle_gamma 90.000000
_cell_volume 3444.044205
_symmetry_space_group_name_H-M "C 2/C"
_symmetry_group_IT_number 15
_symmetry_cell_setting 'monoclinic'
loop_
_space_group_symop_operation_xyz
x,y,z
-x,y,1/2-z
-x,-y,-z
x,-y,1/2+z
1/2+x,1/2+y,z
1/2-x,1/2+y,1/2-z
1/2-x,1/2-y,-z
1/2+x,1/2-y,1/2+z
loop_
_atom_site_type_symbol
_atom_site_label
_atom_site_fract_x
_atom_site_fract_y
_atom_site_fract_z
Si Si1 0.183837 0.655179 0.442579
Si Si2 0.926417 0.593527 0.165931
Si Si3 0.776463 0.301580 0.038626
Si Si4 0.386323 0.280830 0.502063
Si Si5 0.554890 0.967268 0.239385
Si Si6 0.072267 0.296313 0.367892
Si Si7 0.424143 0.263058 0.987404
O O1 0.141534 0.582486 0.533297
O O2 0.155371 0.685160 0.614848
O O3 0.123423 0.699192 0.476090
O O4 0.300478 0.664363 0.182557
O O5 0.829312 0.637278 0.379671
O O6 0.911751 0.524365 0.249805
O O7 0.967680 0.576124 0.967650
O O8 0.019749 0.638848 0.019041
O O9 0.667519 0.311277 0.307649
O O10 0.750000 0.250000 0.000000
O O11 0.848413 0.268560 0.984745
O O12 0.500000 0.302121 0.250000
O O13 0.389386 0.245015 0.609699
O O14 0.500000 0.000176 0.250000
O O15 0.985453 0.259386 0.470543
O O16 0.500000 0.290786 0.750000
#
# Coordination Sequence:
#
# PCOD9255626 Si02
#       7
#     8   8   8   8   8   8   8
#     4   9  19  32  50  71 103 144 175 194 250 318
#     4  10  20  33  52  77 106 134 166 210 262 301
#     4  11  20  32  50  77 106 133 172 213 260 313
#     4  11  20  29  49  77 104 133 163 219 265 292
#     4  10  21  34  53  73 104 142 171 208 249 310
#     4  10  17  32  48  76 106 126 163 212 263 304
#     4   9  17  31  53  74 103 140 168 205 252 315
#
# _framework density 16.259954
#
# number of rings (size 3 to 8) (size 9 to 14) (size 15 to 20)
#    0.000    2.000    2.857    2.571    4.000    0.000 
#    0.000    0.000    0.000    0.857    0.000    4.000 
#    0.000    0.000    0.000    0.000    0.000    0.000 
#
# Total GULP energy -155908.546320 kJ/mol
# GULP energy per Si atom -5568.162369 kJ/mol
# Density = 1.622295 g / cm^3
# Si number density = 16.259954 Si / 1000 Ang^3
#
#
#
# Elastic Constant Matrix: (Units=GPa)
#
#
# Indices 1 2 3 4 5 6 
#
# 1 79.0764 14.4764 15.5069 0.0000 1.1055 0.0000
# 2 14.4764 56.5421 32.1388 0.0000 0.0787 0.0000
# 3 15.5069 32.1388 114.7700 0.0000 -16.5766 0.0000
# 4 0.0000 0.0000 0.0000 28.8132 0.0000 3.9134
# 5 1.1055 0.0787 -16.5766 0.0000 15.5540 0.0000
# 6 0.0000 0.0000 0.0000 3.9134 0.0000 11.5844
#
#
#
# Elastic Compliance Matrix: (Units=1/GPa)
#
#
# Indices 1 2 3 4 5 6 
#
# 1 0.013443 -0.002619 -0.001441 0.000000 -0.002478 0.000000
# 2 -0.002619 0.022321 -0.006957 0.000000 -0.007341 0.000000
# 3 -0.001441 -0.006957 0.012854 0.000000 0.013837 0.000000
# 4 0.000000 0.000000 0.000000 0.036375 0.000000 -0.012288
# 5 -0.002478 -0.007341 0.013837 0.000000 0.079252 0.000000
# 6 0.000000 0.000000 0.000000 -0.012288 0.000000 0.090474
#
#
# Mechanical properties :
#
#
# Convention : Reuss Voigt Hill
#
# Bulk Modulus (GPa) = 37.61615 41.62586 39.62100
# Shear Modulus (GPa) = 17.50606 23.74141 20.62373
#
# Velocity S-wave (km/s) = 3.28477 3.82529 3.56529
# Velocity P-wave (km/s) = 6.12950 6.72059 6.43184
#
# Compressibility (1/GPa) = 0.02658433
#
# Stress axis : x y z
#
# Youngs Moduli (GPa) = 74.38994 44.80047 77.79435
#
# Poissons Ratio (x) = 0.11735 0.11207
# Poissons Ratio (y) = 0.19486 0.54121
# Poissons Ratio (z) = 0.10717 0.31167
#
# Static dielectric constant tensor:
#      x y z
#    x 1.568930 0.000000 0.024870 
#    y 0.000000 1.525190 0.000000 
#    z 0.024870 0.000000 1.609770 
# 
# From -- ./inp_files/124125.got.cif
#   From: 2010.05.17/outbox.cif.g08.bks.cpg/sg15_63_cif.got.tgz:124125.got - 2010.06.03 18:47:42.
