data_PCOD9255822
_publ_section_title
;
Structure prediction by ZEFSAII (Michael W. Deem and Ramdas Pophale) SiO2 
 PCOD9255822
Probable space group: C 2/C
;
_chemical_formula_sum "Si O2"
_cell_formula_units_Z 56
_cell_length_a 32.621338
_cell_length_b 9.250308
_cell_length_c 15.281698
_cell_angle_alpha 90.000000
_cell_angle_beta 28.752091
_cell_angle_gamma 90.000000
_cell_volume 2218.162713
_symmetry_space_group_name_H-M "C 2/C"
_symmetry_group_IT_number 15
_symmetry_cell_setting 'monoclinic'
loop_
_space_group_symop_operation_xyz
x,y,z
-x,y,1/2-z
-x,-y,-z
x,-y,1/2+z
1/2+x,1/2+y,z
1/2-x,1/2+y,1/2-z
1/2-x,1/2-y,-z
1/2+x,1/2-y,1/2+z
loop_
_atom_site_type_symbol
_atom_site_label
_atom_site_fract_x
_atom_site_fract_y
_atom_site_fract_z
Si Si1 0.818388 0.632585 0.740089
Si Si2 0.697487 0.700889 0.751162
Si Si3 0.902248 0.602630 0.952488
Si Si4 0.542965 0.333305 0.092823
Si Si5 0.440664 0.235916 0.127784
Si Si6 0.813348 0.028992 0.097930
Si Si7 0.095335 0.586342 0.744180
O O1 0.867853 0.512521 0.587629
O O2 0.868302 0.772523 0.613792
O O3 0.721411 0.592381 0.903637
O O4 0.838181 0.613899 0.803593
O O5 0.648866 0.714078 0.748648
O O6 0.771251 0.820359 0.636955
O O7 0.719826 0.544377 0.748126
O O8 0.621305 0.749692 0.957335
O O9 0.866855 0.605689 0.921270
O O10 0.000000 0.582901 0.750000
O O11 0.500000 0.236735 0.250000
O O12 0.481312 0.343100 0.124397
O O13 0.586570 0.450877 0.075399
O O14 0.428885 0.082983 0.199805
O O15 0.514048 0.188602 0.920380
#
# Coordination Sequence:
#
# PCOD9255822 Si02
#       7
#     8   8   8   8   8   8   8
#     4  10  20  38  63  90 130 174 212 265 327 390
#     4  11  23  41  66  91 129 180 212 271 333 393
#     4  11  18  32  60  97 122 161 220 266 317 381
#     4  11  23  40  66  97 127 171 222 274 327 396
#     4  10  19  36  63  93 131 167 216 270 328 385
#     4  11  23  43  66  90 134 177 216 267 347 390
#     4  10  17  32  61  96 126 164 221 271 309 395
#
# _framework density 25.246120000000001
#
# number of rings (size 3 to 8) (size 9 to 14) (size 15 to 20)
#    0.000    1.429    5.714    3.000    0.000    1.143 
#    0.000    4.286    0.000    0.000    0.000    0.000 
#    0.000    0.000    0.000    0.000    0.000    0.000 
#
# Total GULP energy -155915.707121 kJ/mol
# GULP energy per Si atom -5568.418111 kJ/mol
# Density = 2.518866 g / cm^3
# Si number density = 25.246120 Si / 1000 Ang^3
#
#
#
# Elastic Constant Matrix: (Units=GPa)
#
#
# Indices 1 2 3 4 5 6 
#
# 1 244.8312 29.5277 44.1067 0.0000 -21.8841 0.0000
# 2 29.5277 51.0092 17.8424 0.0000 -6.1717 0.0000
# 3 44.1067 17.8424 37.1763 0.0000 -9.8542 0.0000
# 4 0.0000 0.0000 0.0000 6.9268 0.0000 -2.2461
# 5 -21.8841 -6.1717 -9.8542 0.0000 47.4641 0.0000
# 6 0.0000 0.0000 0.0000 -2.2461 0.0000 19.1611
#
#
#
# Elastic Compliance Matrix: (Units=1/GPa)
#
#
# Indices 1 2 3 4 5 6 
#
# 1 0.005300 -0.001004 -0.005496 0.000000 0.001172 0.000000
# 2 -0.001004 0.023775 -0.010077 0.000000 0.000536 0.000000
# 3 -0.005496 -0.010077 0.039405 0.000000 0.004337 0.000000
# 4 0.000000 0.000000 0.000000 0.150070 0.000000 0.017591
# 5 0.001172 0.000536 0.004337 0.000000 0.022579 0.000000
# 6 0.000000 0.000000 0.000000 0.017591 0.000000 0.054251
#
#
# Mechanical properties :
#
#
# Convention : Reuss Voigt Hill
#
# Bulk Modulus (GPa) = 28.30734 57.33002 42.81868
# Shear Modulus (GPa) = 14.69241 30.81307 22.75274
#
# Velocity S-wave (km/s) = 2.41502 3.49737 3.00532
# Velocity P-wave (km/s) = 4.36042 6.25032 5.38887
#
# Compressibility (1/GPa) = 0.03532653
#
# Stress axis : x y z
#
# Youngs Moduli (GPa) = 188.66432 42.06038 25.37723
#
# Poissons Ratio (x) = 0.04223 0.13947
# Poissons Ratio (y) = 0.18942 0.25574
# Poissons Ratio (z) = 1.03689 0.42386
#
# Static dielectric constant tensor:
#      x y z
#    x 2.163520 0.000000 -0.113740 
#    y 0.000000 2.127790 0.000000 
#    z -0.113740 0.000000 2.082470 
# 
# From -- ./inp_files/181550.got.cif
#   From: 2010.05.17/outbox.cif.g08.bks.cpg/sg15_91_cif.got.tgz:181550.got - 2010.06.03 18:47:42.
