data_PCOD9255726
_publ_section_title
;
Structure prediction by ZEFSAII (Michael W. Deem and Ramdas Pophale) SiO2 
 PCOD9255726
Probable space group: C 2/C
;
_chemical_formula_sum "Si O2"
_cell_formula_units_Z 64
_cell_length_a 17.054120
_cell_length_b 11.433249
_cell_length_c 21.444356
_cell_angle_alpha 90.000000
_cell_angle_beta 129.597944
_cell_angle_gamma 90.000000
_cell_volume 3221.847530
_symmetry_space_group_name_H-M "C 2/C"
_symmetry_group_IT_number 15
_symmetry_cell_setting 'monoclinic'
loop_
_space_group_symop_operation_xyz
x,y,z
-x,y,1/2-z
-x,-y,-z
x,-y,1/2+z
1/2+x,1/2+y,z
1/2-x,1/2+y,1/2-z
1/2-x,1/2-y,-z
1/2+x,1/2-y,1/2+z
loop_
_atom_site_type_symbol
_atom_site_label
_atom_site_fract_x
_atom_site_fract_y
_atom_site_fract_z
Si Si1 0.752156 0.248536 0.707626
Si Si2 0.390587 0.311985 0.398514
Si Si3 0.900974 0.415335 0.322106
Si Si4 0.259941 0.626080 0.587353
Si Si5 0.435265 0.053374 0.153196
Si Si6 0.904070 0.786098 0.061582
Si Si7 0.740703 0.002336 0.354055
Si Si8 0.612076 0.055325 0.065133
O O1 0.821948 0.222790 0.802998
O O2 0.638009 0.202506 0.665524
O O3 0.795680 0.168979 0.673327
O O4 0.747089 0.379071 0.679085
O O5 0.503828 0.336353 0.431401
O O6 0.340006 0.422797 0.406429
O O7 0.391668 0.194251 0.440368
O O8 0.839910 0.426682 0.226952
O O9 0.863572 0.514742 0.351623
O O10 0.015661 0.448711 0.362273
O O11 0.181377 0.727271 0.525380
O O12 0.349708 0.627798 0.582731
O O13 0.193859 0.509168 0.562978
O O14 0.500000 0.065330 0.250000
O O15 0.318412 0.032773 0.112482
O O16 0.445792 0.174043 0.121400
O O17 0.500000 0.000000 0.000000
#
# Coordination Sequence:
#
# PCOD9255726 Si02
#       8
#     8   8   8   8   8   8   8   8
#     4  10  19  35  54  82 112 142 179 231 278 325
#     4  11  21  34  58  84 109 142 188 224 275 334
#     4   9  18  30  54  79 103 140 185 217 269 324
#     4  10  22  33  56  82 110 139 183 231 279 311
#     4  10  17  32  55  81 106 144 189 229 271 324
#     4  11  20  35  54  83 107 141 188 230 269 322
#     4  10  19  33  52  81 111 138 175 232 273 322
#     4  11  18  34  56  80 105 139 181 227 265 328
#
# _framework density 19.864380000000001
#
# number of rings (size 3 to 8) (size 9 to 14) (size 15 to 20)
#    0.000    1.750    5.000    0.750    0.000    0.000 
#    0.000    1.875    0.000    3.000    0.000    0.000 
#    0.000    0.000    0.000    0.000    0.000    0.000 
#
# Total GULP energy -178499.683535 kJ/mol
# GULP energy per Si atom -5578.115110 kJ/mol
# Density = 1.981917 g / cm^3
# Si number density = 19.864380 Si / 1000 Ang^3
#
#
#
# Elastic Constant Matrix: (Units=GPa)
#
#
# Indices 1 2 3 4 5 6 
#
# 1 134.0172 52.8044 0.3604 0.0000 20.1382 0.0000
# 2 52.8044 58.0451 -4.4387 0.0000 14.2293 0.0000
# 3 0.3604 -4.4387 27.5133 0.0000 -1.2724 0.0000
# 4 0.0000 0.0000 0.0000 16.7993 0.0000 5.9963
# 5 20.1382 14.2293 -1.2724 0.0000 22.7610 0.0000
# 6 0.0000 0.0000 0.0000 5.9963 0.0000 30.1223
#
#
#
# Elastic Compliance Matrix: (Units=1/GPa)
#
#
# Indices 1 2 3 4 5 6 
#
# 1 0.012112 -0.010058 -0.001991 0.000000 -0.004540 0.000000
# 2 -0.010058 0.028901 0.004382 0.000000 -0.008923 0.000000
# 3 -0.001991 0.004382 0.037130 0.000000 0.001098 0.000000
# 4 0.000000 0.000000 0.000000 0.064079 0.000000 -0.012756
# 5 -0.004540 -0.008923 0.001098 0.000000 0.053592 0.000000
# 6 0.000000 0.000000 0.000000 -0.012756 0.000000 0.035737
#
#
# Mechanical properties :
#
#
# Convention : Reuss Voigt Hill
#
# Bulk Modulus (GPa) = 15.92178 35.22530 25.57354
# Shear Modulus (GPa) = 18.66910 25.32648 21.99779
#
# Velocity S-wave (km/s) = 3.06899 3.57455 3.33137
# Velocity P-wave (km/s) = 4.53772 5.89982 5.26302
#
# Compressibility (1/GPa) = 0.06280704
#
# Stress axis : x y z
#
# Youngs Moduli (GPa) = 82.56077 34.60148 26.93255
#
# Poissons Ratio (x) = 0.34802 0.05363
# Poissons Ratio (y) = 0.83040 -0.11801
# Poissons Ratio (z) = 0.16440 -0.15161
#
# Static dielectric constant tensor:
#      x y z
#    x 1.726400 0.000000 0.002740 
#    y 0.000000 1.696080 0.000000 
#    z 0.002740 0.000000 1.790480 
# 
# From -- ./inp_files/277104.got.cif
#   From: 2010.05.17/outbox.cif.g08.bks.cpg/sg15_139_cif.got.tgz:277104.got - 2010.06.03 18:47:42.
