data_PCOD9255028
_publ_section_title
;
Structure prediction by ZEFSAII (Michael W. Deem and Ramdas Pophale) SiO2 
 PCOD9255028
Probable space group: C 2/C
;
_chemical_formula_sum "Si O2"
_cell_formula_units_Z 40
_cell_length_a 11.980584
_cell_length_b 23.160838
_cell_length_c 8.204853
_cell_angle_alpha 90.000000
_cell_angle_beta 46.923598
_cell_angle_gamma 90.000000
_cell_volume 1662.990498
_symmetry_space_group_name_H-M "C 2/C"
_symmetry_group_IT_number 15
_symmetry_cell_setting 'monoclinic'
loop_
_space_group_symop_operation_xyz
x,y,z
-x,y,1/2-z
-x,-y,-z
x,-y,1/2+z
1/2+x,1/2+y,z
1/2-x,1/2+y,1/2-z
1/2-x,1/2-y,-z
1/2+x,1/2-y,1/2+z
loop_
_atom_site_type_symbol
_atom_site_label
_atom_site_fract_x
_atom_site_fract_y
_atom_site_fract_z
Si Si1 0.669377 0.446979 0.157739
Si Si2 0.260012 0.323098 0.394531
Si Si3 0.345025 0.038339 0.159505
Si Si4 0.983504 0.756932 0.541632
Si Si5 0.281896 0.832660 0.669286
O O1 0.500000 0.443198 0.250000
O O2 0.711583 0.387154 0.201945
O O3 0.701471 0.501869 0.235368
O O4 0.799906 0.452068 0.890608
O O5 0.410588 0.288992 0.195072
O O6 0.231645 0.327454 0.617389
O O7 0.126030 0.288913 0.439525
O O8 0.337741 0.101899 0.083726
O O9 0.500000 0.000000 0.000000
O O10 0.101751 0.714920 0.514410
O O11 0.882161 0.807750 0.722573
#
# Coordination Sequence:
#
# PCOD9255028 Si02
#       5
#     8   8   8   8   8
#     4  11  23  39  58  85 118 154 194 237 282 337
#     4  10  17  28  47  76 111 144 179 224 279 335
#     4  11  23  39  59  86 117 153 194 236 282 339
#     4  10  17  27  47  76 111 143 175 226 286 334
#     4  10  18  29  48  77 108 140 180 227 281 335
#
# _framework density 24.053052999999998
#
# number of rings (size 3 to 8) (size 9 to 14) (size 15 to 20)
#    0.000    1.600    0.000    9.600    0.000    3.200 
#    0.000    0.000    0.000    0.000    0.000   35.000 
#    0.000    0.000    0.000    0.000    0.000    0.000 
#
# Total GULP energy -111689.766081 kJ/mol
# GULP energy per Si atom -5584.488304 kJ/mol
# Density = 2.399831 g / cm^3
# Si number density = 24.053053 Si / 1000 Ang^3
#
#
#
# Elastic Constant Matrix: (Units=GPa)
#
#
# Indices 1 2 3 4 5 6 
#
# 1 32.0830 18.7708 16.5823 0.0000 -19.8553 0.0000
# 2 18.7708 200.0363 44.1243 0.0000 -19.6670 0.0000
# 3 16.5823 44.1243 127.6511 0.0000 -35.5397 0.0000
# 4 0.0000 0.0000 0.0000 29.7905 0.0000 0.8802
# 5 -19.8553 -19.6670 -35.5397 0.0000 30.2200 0.0000
# 6 0.0000 0.0000 0.0000 0.8802 0.0000 15.3936
#
#
#
# Elastic Compliance Matrix: (Units=1/GPa)
#
#
# Indices 1 2 3 4 5 6 
#
# 1 0.054961 -0.002265 0.004887 0.000000 0.040383 0.000000
# 2 -0.002265 0.005585 -0.001544 0.000000 0.000330 0.000000
# 3 0.004887 -0.001544 0.012410 0.000000 0.016801 0.000000
# 4 0.000000 0.000000 0.000000 0.033625 0.000000 -0.001923
# 5 0.040383 0.000330 0.016801 0.000000 0.079596 0.000000
# 6 0.000000 0.000000 0.000000 -0.001923 0.000000 0.065072
#
#
# Mechanical properties :
#
#
# Convention : Reuss Voigt Hill
#
# Bulk Modulus (GPa) = 13.31368 57.63614 35.47491
# Shear Modulus (GPa) = 18.23947 33.76703 26.00325
#
# Velocity S-wave (km/s) = 2.75672 3.75087 3.29154
# Velocity P-wave (km/s) = 3.95977 6.54009 5.40614
#
# Compressibility (1/GPa) = 0.07511069
#
# Stress axis : x y z
#
# Youngs Moduli (GPa) = 18.19478 179.05954 80.57796
#
# Poissons Ratio (x) = 0.40555 -0.39375
# Poissons Ratio (y) = 0.04121 0.12443
# Poissons Ratio (z) = -0.08891 0.27651
#
# Static dielectric constant tensor:
#      x y z
#    x 2.049060 0.000000 0.036450 
#    y 0.000000 1.986430 0.000000 
#    z 0.036450 0.000000 1.932120 
# 
# From -- ./inp_files/40561.got.cif
#   From: 2010.05.17/outbox.cif.g08.bks.cpg/sg15_21_cif.got.tgz:40561.got - 2010.06.03 18:47:42.
