data_PCOD9255554
_publ_section_title
;
Structure prediction by ZEFSAII (Michael W. Deem and Ramdas Pophale) SiO2 
 PCOD9255554
Probable space group: C 2/C
;
_chemical_formula_sum "Si O2"
_cell_formula_units_Z 60
_cell_length_a 23.757227
_cell_length_b 18.957303
_cell_length_c 5.436814
_cell_angle_alpha 90.000000
_cell_angle_beta 94.224994
_cell_angle_gamma 90.000000
_cell_volume 2441.939747
_symmetry_space_group_name_H-M "C 2/C"
_symmetry_group_IT_number 15
_symmetry_cell_setting 'monoclinic'
loop_
_space_group_symop_operation_xyz
x,y,z
-x,y,1/2-z
-x,-y,-z
x,-y,1/2+z
1/2+x,1/2+y,z
1/2-x,1/2+y,1/2-z
1/2-x,1/2-y,-z
1/2+x,1/2-y,1/2+z
loop_
_atom_site_type_symbol
_atom_site_label
_atom_site_fract_x
_atom_site_fract_y
_atom_site_fract_z
Si Si1 0.381921 0.969787 0.716079
Si Si2 0.454252 0.157057 0.390585
Si Si3 0.375975 0.762032 0.196971
Si Si4 0.097918 0.981405 0.323060
Si Si5 0.776444 0.036732 0.128106
Si Si6 0.000000 0.448702 0.250000
Si Si7 0.759939 0.323645 0.140488
Si Si8 0.145800 0.823839 0.320136
O O1 0.400589 0.887231 0.758200
O O2 0.354185 0.996810 0.453030
O O3 0.441369 0.011613 0.730969
O O4 0.500000 0.202117 0.250000
O O5 0.430396 0.196397 0.621701
O O6 0.496846 0.098862 0.509791
O O7 0.365471 0.713467 0.948246
O O8 0.325634 0.818693 0.223030
O O9 0.376793 0.718769 0.450993
O O10 0.119187 0.901146 0.317581
O O11 0.067224 0.002620 0.065561
O O12 0.154964 0.030412 0.347101
O O13 0.755017 0.113258 0.047544
O O14 0.759606 0.987374 0.893105
O O15 0.714405 0.329022 0.345935
O O16 0.750000 0.250000 0.000000
#
# Coordination Sequence:
#
# PCOD9255554 Si02
#       8
#     8   8   8   8   8   4   8   8
#     4  10  17  31  55  83  99 146 205 247 294 346
#     4  11  21  38  60  80 122 152 205 255 304 349
#     4  11  27  37  57  90 120 167 207 234 306 374
#     4  10  18  32  62  85 110 151 202 244 291 330
#     4  10  20  33  58  85 112 154 214 242 295 342
#     4  10  18  34  62  84 106 158 210 248 314 342
#     4  10  22  40  61  84 126 172 195 248 306 361
#     4  11  22  41  59  84 127 158 202 247 291 363
#
# _framework density 24.570630000000001
#
# number of rings (size 3 to 8) (size 9 to 14) (size 15 to 20)
#    0.000    1.600    4.667    2.000    7.467    2.133 
#    0.000    2.667    0.000    0.000    0.000    0.000 
#    0.000   10.667    0.000    0.000    0.000    0.000 
#
# Total GULP energy -167546.558114 kJ/mol
# GULP energy per Si atom -5584.885270 kJ/mol
# Density = 2.451471 g / cm^3
# Si number density = 24.570630 Si / 1000 Ang^3
#
#
#
# Elastic Constant Matrix: (Units=GPa)
#
#
# Indices 1 2 3 4 5 6 
#
# 1 58.7168 18.4450 32.1502 0.0000 -15.9012 0.0000
# 2 18.4450 100.2512 38.0605 0.0000 -1.0026 0.0000
# 3 32.1502 38.0605 197.2258 0.0000 -9.9328 0.0000
# 4 0.0000 0.0000 0.0000 37.7880 0.0000 5.2439
# 5 -15.9012 -1.0026 -9.9328 0.0000 29.0087 0.0000
# 6 0.0000 0.0000 0.0000 5.2439 0.0000 1.6669
#
#
#
# Elastic Compliance Matrix: (Units=1/GPa)
#
#
# Indices 1 2 3 4 5 6 
#
# 1 0.022429 -0.003067 -0.002494 0.000000 0.011335 0.000000
# 2 -0.003067 0.011186 -0.001754 0.000000 -0.001895 0.000000
# 3 -0.002494 -0.001754 0.005844 0.000000 0.000574 0.000000
# 4 0.000000 0.000000 0.000000 0.046967 0.000000 -0.147751
# 5 0.011335 -0.001895 0.000574 0.000000 0.040817 0.000000
# 6 0.000000 0.000000 0.000000 -0.147751 0.000000 1.064706
#
#
# Mechanical properties :
#
#
# Convention : Reuss Voigt Hill
#
# Bulk Modulus (GPa) = 40.27271 59.27836 49.77553
# Shear Modulus (GPa) = 4.11572 31.52860 17.82216
#
# Velocity S-wave (km/s) = 1.29564 3.58604 2.69614
# Velocity P-wave (km/s) = 4.32023 6.42840 5.47671
#
# Compressibility (1/GPa) = 0.02483071
#
# Stress axis : x y z
#
# Youngs Moduli (GPa) = 44.58469 89.39574 171.10872
#
# Poissons Ratio (x) = 0.27415 0.42667
# Poissons Ratio (y) = 0.13673 0.30017
# Poissons Ratio (z) = 0.11118 0.15682
#
# Static dielectric constant tensor:
#      x y z
#    x 2.021970 0.000000 0.015390 
#    y 0.000000 1.985490 0.000000 
#    z 0.015390 0.000000 2.135900 
# 
# From -- ./inp_files/18446.got.cif
#   From: 2010.05.17/outbox.cif.g08.bks.cpg/sg15_10_cif.got.tgz:18446.got - 2010.06.03 18:47:42.
