data_PCOD9255550
_publ_section_title
;
Structure prediction by ZEFSAII (Michael W. Deem and Ramdas Pophale) SiO2 
 PCOD9255550
Probable space group: C 2/C
;
_chemical_formula_sum "Si O2"
_cell_formula_units_Z 52
_cell_length_a 8.531514
_cell_length_b 29.770801
_cell_length_c 15.413845
_cell_angle_alpha 90.000000
_cell_angle_beta 48.730144
_cell_angle_gamma 90.000000
_cell_volume 2942.529972
_symmetry_space_group_name_H-M "C 2/C"
_symmetry_group_IT_number 15
_symmetry_cell_setting 'monoclinic'
loop_
_space_group_symop_operation_xyz
x,y,z
-x,y,1/2-z
-x,-y,-z
x,-y,1/2+z
1/2+x,1/2+y,z
1/2-x,1/2+y,1/2-z
1/2-x,1/2-y,-z
1/2+x,1/2-y,1/2+z
loop_
_atom_site_type_symbol
_atom_site_label
_atom_site_fract_x
_atom_site_fract_y
_atom_site_fract_z
Si Si1 0.596006 0.124532 0.432869
Si Si2 0.500000 0.561437 0.250000
Si Si3 0.633470 0.889911 0.117914
Si Si4 0.576739 0.307483 0.485262
Si Si5 0.195518 0.374732 0.615848
Si Si6 0.218347 0.780358 0.627813
Si Si7 0.505792 0.543954 0.439669
O O1 0.793727 0.092373 0.339155
O O2 0.541617 0.121625 0.555501
O O3 0.398063 0.115701 0.444908
O O4 0.678076 0.174008 0.376985
O O5 0.522600 0.534262 0.330885
O O6 0.500000 0.903290 0.250000
O O7 0.759309 0.845630 0.102041
O O8 0.794678 0.929130 0.036775
O O9 0.354925 0.332498 0.560903
O O10 0.619533 0.260505 0.422293
O O11 0.645000 0.294280 0.557822
O O12 0.316424 0.419344 0.603288
O O13 0.000000 0.366504 0.750000
O O14 0.000000 0.767255 0.750000
O O15 0.500000 0.500000 0.500000
#
# Coordination Sequence:
#
# PCOD9255550 Si02
#       7
#     8   4   8   8   8   8   8
#     4  10  19  33  60  84 110 153 194 227 288 335
#     4  10  18  40  60  84 112 148 190 228 282 358
#     4   9  19  38  56  75 113 152 189 227 287 348
#     4   9  20  32  51  82 111 151 193 235 278 334
#     4  11  20  36  58  83 117 147 189 244 294 329
#     4  10  17  31  55  81 111 151 200 230 271 340
#     4  10  22  39  59  86 111 144 189 239 282 352
#
# _framework density 17.671866999999999
#
# number of rings (size 3 to 8) (size 9 to 14) (size 15 to 20)
#    0.000    2.154    2.308    2.308    0.000    1.231 
#    2.769    3.846    0.000    0.000    0.000    0.000 
#    0.000    0.000    0.000    0.000    0.000    0.000 
#
# Total GULP energy -144765.908269 kJ/mol
# GULP energy per Si atom -5567.919549 kJ/mol
# Density = 1.763165 g / cm^3
# Si number density = 17.671867 Si / 1000 Ang^3
#
#
#
# Elastic Constant Matrix: (Units=GPa)
#
#
# Indices 1 2 3 4 5 6 
#
# 1 100.5608 34.6115 44.6852 0.0000 6.8234 0.0000
# 2 34.6115 88.8971 26.5704 0.0000 9.8419 0.0000
# 3 44.6852 26.5704 101.5428 0.0000 10.2796 0.0000
# 4 0.0000 0.0000 0.0000 9.6251 0.0000 8.5019
# 5 6.8234 9.8419 10.2796 0.0000 20.5809 0.0000
# 6 0.0000 0.0000 0.0000 8.5019 0.0000 11.6979
#
#
#
# Elastic Compliance Matrix: (Units=1/GPa)
#
#
# Indices 1 2 3 4 5 6 
#
# 1 0.013426 -0.003737 -0.004909 0.000000 -0.000212 0.000000
# 2 -0.003737 0.013646 -0.001465 0.000000 -0.004555 0.000000
# 3 -0.004909 -0.001465 0.012803 0.000000 -0.004067 0.000000
# 4 0.000000 0.000000 0.000000 0.290194 0.000000 -0.210910
# 5 -0.000212 -0.004555 -0.004067 0.000000 0.052869 0.000000
# 6 0.000000 0.000000 0.000000 -0.210910 0.000000 0.238773
#
#
# Mechanical properties :
#
#
# Convention : Reuss Voigt Hill
#
# Bulk Modulus (GPa) = 50.88091 55.85945 53.37018
# Shear Modulus (GPa) = 7.71028 20.72300 14.21664
#
# Velocity S-wave (km/s) = 2.09105 3.42812 2.83941
# Velocity P-wave (km/s) = 5.88936 6.88093 6.40436
#
# Compressibility (1/GPa) = 0.01965374
#
# Stress axis : x y z
#
# Youngs Moduli (GPa) = 74.48163 73.28146 78.10381
#
# Poissons Ratio (x) = 0.27382 0.38342
# Poissons Ratio (y) = 0.27831 0.11444
# Poissons Ratio (z) = 0.36564 0.10738
#
# Static dielectric constant tensor:
#      x y z
#    x 1.623460 0.000000 0.027280 
#    y 0.000000 1.611680 0.000000 
#    z 0.027280 0.000000 1.628610 
# 
# From -- ./inp_files/82322.got.cif
#   From: 2010.05.17/outbox.cif.g08.bks.cpg/sg15_42_cif.got.tgz:82322.got - 2010.06.03 18:47:42.
