data_PCOD9255254
_publ_section_title
;
Structure prediction by ZEFSAII (Michael W. Deem and Ramdas Pophale) SiO2 
 PCOD9255254
Probable space group: C 2/C
;
_chemical_formula_sum "Si O2"
_cell_formula_units_Z 56
_cell_length_a 21.720378
_cell_length_b 9.518435
_cell_length_c 16.939377
_cell_angle_alpha 90.000000
_cell_angle_beta 138.401080
_cell_angle_gamma 90.000000
_cell_volume 2325.096359
_symmetry_space_group_name_H-M "C 2/C"
_symmetry_group_IT_number 15
_symmetry_cell_setting 'monoclinic'
loop_
_space_group_symop_operation_xyz
x,y,z
-x,y,1/2-z
-x,-y,-z
x,-y,1/2+z
1/2+x,1/2+y,z
1/2-x,1/2+y,1/2-z
1/2-x,1/2-y,-z
1/2+x,1/2-y,1/2+z
loop_
_atom_site_type_symbol
_atom_site_label
_atom_site_fract_x
_atom_site_fract_y
_atom_site_fract_z
Si Si1 0.599927 0.025077 0.529588
Si Si2 0.765832 0.838115 0.095789
Si Si3 0.755758 0.375974 0.713513
Si Si4 0.778520 0.607397 0.625989
Si Si5 0.073572 0.932602 0.765842
Si Si6 0.866007 0.675861 0.561439
Si Si7 0.921998 0.742345 0.871476
O O1 0.666760 0.116028 0.536757
O O2 0.538695 0.136997 0.521920
O O3 0.671998 0.945714 0.656972
O O4 0.567682 0.903844 0.436296
O O5 0.803645 0.739241 0.203589
O O6 0.838679 0.966527 0.160970
O O7 0.750000 0.750000 0.000000
O O8 0.722380 0.491115 0.617981
O O9 0.665581 0.318216 0.670331
O O10 0.815547 0.572556 0.574933
O O11 0.716299 0.746128 0.563458
O O12 0.870000 0.636789 0.762840
O O13 0.097367 0.800066 0.846664
O O14 0.038221 0.864377 0.648789
O O15 0.000000 0.013403 0.750000
#
# Coordination Sequence:
#
# PCOD9255254 Si02
#       7
#     8   8   8   8   8   8   8
#     4  10  18  31  57  91 113 140 191 266 297 338
#     4  11  21  35  59  92 116 151 206 257 297 350
#     4  10  17  29  53  85 116 139 184 265 296 329
#     4   9  16  27  51  81 112 138 180 243 299 335
#     4  11  23  39  56  80 122 164 196 239 305 376
#     4  10  17  31  51  78 110 150 193 231 292 355
#     4   9  18  31  51  85 114 145 188 239 300 346
#
# _framework density 24.085024000000001
#
# number of rings (size 3 to 8) (size 9 to 14) (size 15 to 20)
#    0.000    2.000    2.857    3.429    0.000    0.000 
#    0.000    0.714    0.000   27.429    0.000    0.000 
#    0.000    0.000    0.000    0.000    0.000    0.000 
#
# Total GULP energy -156051.212656 kJ/mol
# GULP energy per Si atom -5573.257595 kJ/mol
# Density = 2.403021 g / cm^3
# Si number density = 24.085024 Si / 1000 Ang^3
#
#
#
# Elastic Constant Matrix: (Units=GPa)
#
#
# Indices 1 2 3 4 5 6 
#
# 1 129.4576 50.2501 35.9639 0.0000 -36.3348 0.0000
# 2 50.2501 92.7298 35.9720 0.0000 -27.0318 0.0000
# 3 35.9639 35.9720 42.7557 0.0000 -16.4710 0.0000
# 4 0.0000 0.0000 0.0000 36.0831 0.0000 -19.1990
# 5 -36.3348 -27.0318 -16.4710 0.0000 38.3102 0.0000
# 6 0.0000 0.0000 0.0000 -19.1990 0.0000 43.3165
#
#
#
# Elastic Compliance Matrix: (Units=1/GPa)
#
#
# Indices 1 2 3 4 5 6 
#
# 1 0.012288 -0.002311 -0.005430 0.000000 0.007689 0.000000
# 2 -0.002311 0.017968 -0.010946 0.000000 0.005780 0.000000
# 3 -0.005430 -0.010946 0.038599 0.000000 0.003722 0.000000
# 4 0.000000 0.000000 0.000000 0.036267 0.000000 0.016074
# 5 0.007689 0.005780 0.003722 0.000000 0.039074 0.000000
# 6 0.000000 0.000000 0.000000 0.016074 0.000000 0.030210
#
#
# Mechanical properties :
#
#
# Convention : Reuss Voigt Hill
#
# Bulk Modulus (GPa) = 31.76513 56.59056 44.17785
# Shear Modulus (GPa) = 22.49480 33.05910 27.77695
#
# Velocity S-wave (km/s) = 3.05942 3.70888 3.39969
# Velocity P-wave (km/s) = 5.06926 6.47211 5.81316
#
# Compressibility (1/GPa) = 0.03148106
#
# Stress axis : x y z
#
# Youngs Moduli (GPa) = 81.37914 55.65562 25.90736
#
# Poissons Ratio (x) = 0.12863 0.14066
# Poissons Ratio (y) = 0.18808 0.28359
# Poissons Ratio (z) = 0.44185 0.60922
#
# Static dielectric constant tensor:
#      x y z
#    x 2.046000 0.000000 -0.010420 
#    y 0.000000 2.036880 0.000000 
#    z -0.010420 0.000000 1.966650 
# 
# From -- ./inp_files/218667.got.cif
#   From: 2010.05.17/outbox.cif.g08.bks.cpg/sg15_110_cif.got.tgz:218667.got - 2010.06.03 18:47:42.
