data_PCOD9255553
_publ_section_title
;
Structure prediction by ZEFSAII (Michael W. Deem and Ramdas Pophale) SiO2 
 PCOD9255553
Probable space group: C 2/C
;
_chemical_formula_sum "Si O2"
_cell_formula_units_Z 32
_cell_length_a 14.267698
_cell_length_b 20.980964
_cell_length_c 8.617996
_cell_angle_alpha 90.000000
_cell_angle_beta 34.736603
_cell_angle_gamma 90.000000
_cell_volume 1469.980614
_symmetry_space_group_name_H-M "C 2/C"
_symmetry_group_IT_number 15
_symmetry_cell_setting 'monoclinic'
loop_
_space_group_symop_operation_xyz
x,y,z
-x,y,1/2-z
-x,-y,-z
x,-y,1/2+z
1/2+x,1/2+y,z
1/2-x,1/2+y,1/2-z
1/2-x,1/2-y,-z
1/2+x,1/2-y,1/2+z
loop_
_atom_site_type_symbol
_atom_site_label
_atom_site_fract_x
_atom_site_fract_y
_atom_site_fract_z
Si Si1 0.336200 0.318370 0.868789
Si Si2 0.256458 0.973751 0.066903
Si Si3 0.194186 0.908285 0.857032
Si Si4 0.584120 0.081060 0.854715
O O1 0.500000 0.319961 0.750000
O O2 0.370345 0.346862 0.649154
O O3 0.250000 0.250000 0.000000
O O4 0.202954 0.366972 0.119262
O O5 0.157362 0.928120 0.085074
O O6 0.373553 0.015984 0.795605
O O7 0.352228 0.930540 0.058632
O O8 0.165018 0.028662 0.290422
O O9 0.394923 0.900395 0.591160
#
# Coordination Sequence:
#
# PCOD9255553 Si02
#       4
#     8   8   8   8
#     4  11  23  39  54  72  97 135 179 220 261 306
#     4   9  16  29  55  86 112 137 169 202 249 306
#     4  10  17  31  55  82 109 139 170 207 248 301
#     4  10  17  31  55  82 109 139 170 207 248 301
#
# _framework density 21.768995
#
# number of rings (size 3 to 8) (size 9 to 14) (size 15 to 20)
#    0.000    2.000    0.000    9.750    0.000    0.000 
#    0.000   22.500    0.000    0.000    0.000    0.000 
#    0.000    0.000    0.000    0.000    0.000    0.000 
#
# Total GULP energy -89366.035178 kJ/mol
# GULP energy per Si atom -5585.377199 kJ/mol
# Density = 2.171945 g / cm^3
# Si number density = 21.768995 Si / 1000 Ang^3
#
#
#
# Elastic Constant Matrix: (Units=GPa)
#
#
# Indices 1 2 3 4 5 6 
#
# 1 212.1079 69.8305 36.4823 0.0000 10.3434 0.0000
# 2 69.8305 115.2060 12.2839 0.0000 5.2477 0.0000
# 3 36.4823 12.2839 31.2006 -0.0001 4.7865 0.0000
# 4 0.0000 0.0000 -0.0001 22.4334 0.0000 -3.7408
# 5 10.3434 5.2477 4.7865 0.0000 56.3446 0.0000
# 6 0.0000 0.0000 0.0000 -3.7408 0.0000 32.3034
#
#
#
# Elastic Compliance Matrix: (Units=1/GPa)
#
#
# Indices 1 2 3 4 5 6 
#
# 1 0.007072 -0.003542 -0.006815 0.000000 -0.000389 0.000000
# 2 -0.003542 0.010851 -0.000076 0.000000 -0.000354 0.000000
# 3 -0.006815 -0.000076 0.040382 0.000000 -0.002172 0.000000
# 4 0.000000 0.000000 0.000000 0.045454 0.000000 0.005264
# 5 -0.000389 -0.000354 -0.002172 0.000000 0.018037 0.000000
# 6 0.000000 0.000000 0.000000 0.005264 0.000000 0.031566
#
#
# Mechanical properties :
#
#
# Convention : Reuss Voigt Hill
#
# Bulk Modulus (GPa) = 26.70989 66.18977 46.44983
# Shear Modulus (GPa) = 26.77975 38.21080 32.49527
#
# Velocity S-wave (km/s) = 3.51119 4.19416 3.86778
# Velocity P-wave (km/s) = 5.36044 7.34344 6.42886
#
# Compressibility (1/GPa) = 0.03743932
#
# Stress axis : x y z
#
# Youngs Moduli (GPa) = 141.40623 92.15431 24.76343
#
# Poissons Ratio (x) = 0.32642 0.16875
# Poissons Ratio (y) = 0.50088 0.00189
# Poissons Ratio (z) = 0.96363 0.00702
#
# Static dielectric constant tensor:
#      x y z
#    x 1.840980 0.000000 0.007100 
#    y 0.000000 1.792160 0.000000 
#    z 0.007100 0.000000 1.950600 
# 
# From -- ./inp_files/28879.got.cif
#   From: 2010.05.17/outbox.cif.g08.bks.cpg/sg15_15_cif.got.tgz:28879.got - 2010.06.03 18:47:42.
