data_PCOD9255340
_publ_section_title
;
Structure prediction by ZEFSAII (Michael W. Deem and Ramdas Pophale) SiO2 
 PCOD9255340
Probable space group: C 2/C
;
_chemical_formula_sum "Si O2"
_cell_formula_units_Z 56
_cell_length_a 12.476588
_cell_length_b 20.876707
_cell_length_c 14.176040
_cell_angle_alpha 90.000000
_cell_angle_beta 121.115313
_cell_angle_gamma 90.000000
_cell_volume 3161.199980
_symmetry_space_group_name_H-M "C 2/C"
_symmetry_group_IT_number 15
_symmetry_cell_setting 'monoclinic'
loop_
_space_group_symop_operation_xyz
x,y,z
-x,y,1/2-z
-x,-y,-z
x,-y,1/2+z
1/2+x,1/2+y,z
1/2-x,1/2+y,1/2-z
1/2-x,1/2-y,-z
1/2+x,1/2-y,1/2+z
loop_
_atom_site_type_symbol
_atom_site_label
_atom_site_fract_x
_atom_site_fract_y
_atom_site_fract_z
Si Si1 0.639456 0.712653 0.837089
Si Si2 0.967991 0.424856 0.468330
Si Si3 0.170681 0.351394 0.933951
Si Si4 0.375891 0.083980 0.633911
Si Si5 0.751610 0.364929 0.242848
Si Si6 0.461913 0.533630 0.840659
Si Si7 0.694976 0.535305 0.087577
O O1 0.500000 0.690908 0.750000
O O2 0.629955 0.784783 0.869792
O O3 0.725517 0.701253 0.784166
O O4 0.710999 0.669138 0.946479
O O5 0.933708 0.386650 0.548412
O O6 0.844734 0.409572 0.348362
O O7 0.000000 0.500000 0.500000
O O8 0.080479 0.400585 0.451936
O O9 0.221320 0.401745 0.881255
O O10 0.500000 0.066089 0.750000
O O11 0.310695 0.139194 0.666267
O O12 0.282510 0.024259 0.598222
O O13 0.621991 0.403336 0.182089
O O14 0.500000 0.524860 0.750000
O O15 0.372861 0.478421 0.844206
O O16 0.585170 0.538056 0.960313
#
# Coordination Sequence:
#
# PCOD9255340 Si02
#       7
#     8   8   8   8   8   8   8
#     4  10  20  35  53  71  97 140 186 214 248 303
#     4  10  17  30  51  76 110 132 159 218 280 321
#     4  10  20  33  52  77 103 135 174 219 261 312
#     4   9  18  30  48  77 104 133 166 209 273 327
#     4   9  18  32  51  71  98 139 180 213 246 318
#     4  10  19  31  51  76 102 138 176 211 262 323
#     4  10  19  32  50  76 107 135 167 220 273 315
#
# _framework density 17.714791999999999
#
# number of rings (size 3 to 8) (size 9 to 14) (size 15 to 20)
#    0.000    2.286    1.429    3.000    0.000    0.571 
#    2.571    0.000    0.000    6.857    0.000    0.000 
#    0.000    0.000    0.000    0.000    0.000    0.000 
#
# Total GULP energy -155896.654767 kJ/mol
# GULP energy per Si atom -5567.737670 kJ/mol
# Density = 1.767447 g / cm^3
# Si number density = 17.714792 Si / 1000 Ang^3
#
#
#
# Elastic Constant Matrix: (Units=GPa)
#
#
# Indices 1 2 3 4 5 6 
#
# 1 128.6119 46.5256 40.7234 0.0000 -25.2243 0.0000
# 2 46.5256 76.8810 13.3421 0.0000 -21.4836 0.0000
# 3 40.7234 13.3421 37.2129 0.0000 -11.8313 0.0000
# 4 0.0000 0.0000 0.0000 7.7698 0.0000 -11.5487
# 5 -25.2243 -21.4836 -11.8313 0.0000 38.7299 0.0000
# 6 0.0000 0.0000 0.0000 -11.5487 0.0000 22.4277
#
#
#
# Elastic Compliance Matrix: (Units=1/GPa)
#
#
# Indices 1 2 3 4 5 6 
#
# 1 0.014448 -0.005878 -0.013013 0.000000 0.002175 0.000000
# 2 -0.005878 0.018115 0.002121 0.000000 0.006868 0.000000
# 3 -0.013013 0.002121 0.042123 0.000000 0.005569 0.000000
# 4 0.000000 0.000000 0.000000 0.548554 0.000000 0.282468
# 5 0.002175 0.006868 0.005569 0.000000 0.032747 0.000000
# 6 0.000000 0.000000 0.000000 0.282468 0.000000 0.190040
#
#
# Mechanical properties :
#
#
# Convention : Reuss Voigt Hill
#
# Bulk Modulus (GPa) = 24.30265 49.32089 36.81177
# Shear Modulus (GPa) = 5.59733 23.25978 14.42856
#
# Velocity S-wave (km/s) = 1.77948 3.62749 2.85703
# Velocity P-wave (km/s) = 4.23919 6.74144 5.63106
#
# Compressibility (1/GPa) = 0.04114777
#
# Stress axis : x y z
#
# Youngs Moduli (GPa) = 69.21173 55.20173 23.74003
#
# Poissons Ratio (x) = 0.32446 0.30892
# Poissons Ratio (y) = 0.40681 -0.05035
# Poissons Ratio (z) = 0.90063 -0.11708
#
# Static dielectric constant tensor:
#      x y z
#    x 1.635230 0.000000 -0.019670 
#    y 0.000000 1.603400 0.000000 
#    z -0.019670 0.000000 1.636330 
# 
# From -- ./inp_files/146778.got.cif
#   From: 2010.05.17/outbox.cif.g08.bks.cpg/sg15_74_cif.got.tgz:146778.got - 2010.06.03 18:47:42.
