data_PCOD9255927
_publ_section_title
;
Structure prediction by ZEFSAII (Michael W. Deem and Ramdas Pophale) SiO2 
 PCOD9255927
Probable space group: C 2/C
;
_chemical_formula_sum "Si O2"
_cell_formula_units_Z 48
_cell_length_a 13.676776
_cell_length_b 23.950936
_cell_length_c 11.013893
_cell_angle_alpha 90.000000
_cell_angle_beta 131.858142
_cell_angle_gamma 90.000000
_cell_volume 2687.115300
_symmetry_space_group_name_H-M "C 2/C"
_symmetry_group_IT_number 15
_symmetry_cell_setting 'monoclinic'
loop_
_space_group_symop_operation_xyz
x,y,z
-x,y,1/2-z
-x,-y,-z
x,-y,1/2+z
1/2+x,1/2+y,z
1/2-x,1/2+y,1/2-z
1/2-x,1/2-y,-z
1/2+x,1/2-y,1/2+z
loop_
_atom_site_type_symbol
_atom_site_label
_atom_site_fract_x
_atom_site_fract_y
_atom_site_fract_z
Si Si1 0.779365 0.862182 0.714310
Si Si2 0.945559 0.423023 0.835420
Si Si3 0.682293 0.035609 0.696223
Si Si4 0.648506 0.125530 0.842797
Si Si5 0.071149 0.025498 0.178608
Si Si6 0.139207 0.250103 0.304037
O O1 0.659616 0.878944 0.702161
O O2 0.721339 0.867263 0.530260
O O3 0.889892 0.910032 0.815574
O O4 0.828528 0.798549 0.764495
O O5 0.873341 0.483068 0.774920
O O6 0.000000 0.408027 0.750000
O O7 0.066125 0.434335 0.026417
O O8 0.728427 0.081635 0.829695
O O9 0.792898 0.009675 0.702253
O O10 0.500000 0.105331 0.750000
O O11 0.633391 0.184927 0.761805
O O12 0.000000 0.021280 0.250000
O O13 0.000000 0.000000 0.000000
O O14 0.250000 0.250000 0.500000
O O15 0.000000 0.236479 0.250000
#
# Coordination Sequence:
#
# PCOD9255927 Si02
#       6
#     8   8   8   8   8   8
#     4  10  20  35  57  82 112 144 181 232 284 336
#     4  10  21  32  54  82 107 142 178 226 278 331
#     4  10  21  33  55  78 109 139 180 229 273 331
#     4  10  17  33  57  88 110 132 180 236 287 329
#     4  11  24  37  53  79 115 155 188 226 283 348
#     4   9  19  33  57  87 112 141 182 236 288 335
#
# _framework density 17.863022000000001
#
# number of rings (size 3 to 8) (size 9 to 14) (size 15 to 20)
#    0.000    2.000    1.667    2.000    9.333    1.333 
#    0.000    0.000    0.000    2.000    0.000    0.000 
#    0.000    0.000    0.000    0.000    0.000    0.000 
#
# Total GULP energy -133806.625228 kJ/mol
# GULP energy per Si atom -5575.276051 kJ/mol
# Density = 1.782236 g / cm^3
# Si number density = 17.863022 Si / 1000 Ang^3
#
#
#
# Elastic Constant Matrix: (Units=GPa)
#
#
# Indices 1 2 3 4 5 6 
#
# 1 131.0706 66.6063 16.5568 0.0000 -6.4119 0.0000
# 2 66.6063 87.9764 15.9684 0.0000 -8.2650 0.0000
# 3 16.5568 15.9684 36.5082 0.0000 3.7029 0.0000
# 4 0.0000 0.0000 0.0000 22.2189 0.0000 -1.2558
# 5 -6.4119 -8.2650 3.7029 0.0000 26.0226 0.0000
# 6 0.0000 0.0000 0.0000 -1.2558 0.0000 25.2268
#
#
#
# Elastic Compliance Matrix: (Units=1/GPa)
#
#
# Indices 1 2 3 4 5 6 
#
# 1 0.012497 -0.009107 -0.001728 0.000000 0.000433 0.000000
# 2 -0.009107 0.019593 -0.004914 0.000000 0.004678 0.000000
# 3 -0.001728 -0.004914 0.030973 0.000000 -0.006394 0.000000
# 4 0.000000 0.000000 0.000000 0.045134 0.000000 0.002247
# 5 0.000433 0.004678 -0.006394 0.000000 0.040930 0.000000
# 6 0.000000 0.000000 0.000000 0.002247 0.000000 0.039752
#
#
# Mechanical properties :
#
#
# Convention : Reuss Voigt Hill
#
# Bulk Modulus (GPa) = 31.68153 50.42425 41.05289
# Shear Modulus (GPa) = 21.65457 25.12193 23.38825
#
# Velocity S-wave (km/s) = 3.48553 3.75422 3.62237
# Velocity P-wave (km/s) = 5.82862 6.86162 6.36611
#
# Compressibility (1/GPa) = 0.03156413
#
# Stress axis : x y z
#
# Youngs Moduli (GPa) = 80.02048 51.03880 32.28655
#
# Poissons Ratio (x) = 0.46481 0.05579
# Poissons Ratio (y) = 0.72874 0.15866
# Poissons Ratio (z) = 0.13827 0.25081
#
# Static dielectric constant tensor:
#      x y z
#    x 1.610770 0.000000 0.028080 
#    y 0.000000 1.644240 0.000000 
#    z 0.028080 0.000000 1.648630 
# 
# From -- ./inp_files/90467.got.cif
#   From: 2010.05.17/outbox.cif.g08.bks.cpg/sg15_46_cif.got.tgz:90467.got - 2010.06.03 18:47:42.
