data_PCOD9255396
_publ_section_title
;
Structure prediction by ZEFSAII (Michael W. Deem and Ramdas Pophale) SiO2 
 PCOD9255396
Probable space group: C 2/C
;
_chemical_formula_sum "Si O2"
_cell_formula_units_Z 56
_cell_length_a 22.981947
_cell_length_b 7.082966
_cell_length_c 17.590765
_cell_angle_alpha 90.000000
_cell_angle_beta 50.068356
_cell_angle_gamma 90.000000
_cell_volume 2195.709622
_symmetry_space_group_name_H-M "C 2/C"
_symmetry_group_IT_number 15
_symmetry_cell_setting 'monoclinic'
loop_
_space_group_symop_operation_xyz
x,y,z
-x,y,1/2-z
-x,-y,-z
x,-y,1/2+z
1/2+x,1/2+y,z
1/2-x,1/2+y,1/2-z
1/2-x,1/2-y,-z
1/2+x,1/2-y,1/2+z
loop_
_atom_site_type_symbol
_atom_site_label
_atom_site_fract_x
_atom_site_fract_y
_atom_site_fract_z
Si Si1 0.946625 0.085602 0.228572
Si Si2 0.714760 0.529956 0.681580
Si Si3 0.915704 0.824952 0.994347
Si Si4 0.633066 0.903960 0.522268
Si Si5 0.892230 0.517389 0.284834
Si Si6 0.491598 0.828780 0.567061
Si Si7 0.242295 0.094619 0.836060
O O1 0.872254 0.963728 0.272527
O O2 0.917133 0.296889 0.274937
O O3 0.000000 0.006895 0.250000
O O4 0.007022 0.111876 0.110438
O O5 0.779516 0.619060 0.574012
O O6 0.733197 0.306981 0.665608
O O7 0.729712 0.585814 0.756319
O O8 0.938101 0.808398 0.064241
O O9 0.837014 0.937617 0.054914
O O10 0.892559 0.618150 0.980405
O O11 0.617951 0.891888 0.624291
O O12 0.576608 0.776077 0.519178
O O13 0.953868 0.602881 0.176398
O O14 0.812853 0.527114 0.305619
O O15 0.500000 0.000000 0.500000
#
# Coordination Sequence:
#
# PCOD9255396 Si02
#       7
#     8   8   8   8   8   8   8
#     4  11  20  33  56  86 117 147 187 242 299 340
#     4  10  24  37  61  84 120 154 193 241 288 348
#     4  10  20  32  56  82 119 148 191 239 289 350
#     4  10  19  32  54  88 113 147 195 249 287 327
#     4  11  18  31  57  85 119 143 194 250 289 326
#     4  10  17  30  54  82 115 149 185 236 286 339
#     4  10  22  38  57  87 117 155 193 237 289 344
#
# _framework density 25.504283999999998
#
# number of rings (size 3 to 8) (size 9 to 14) (size 15 to 20)
#    0.000    1.714    4.286    3.000    4.000    2.286 
#    0.000    0.000    0.000    6.857    0.000    0.000 
#    0.000    0.000    0.000    0.000    0.000    0.000 
#
# Total GULP energy -156805.180671 kJ/mol
# GULP energy per Si atom -5600.185024 kJ/mol
# Density = 2.544623 g / cm^3
# Si number density = 25.504284 Si / 1000 Ang^3
#
#
#
# Elastic Constant Matrix: (Units=GPa)
#
#
# Indices 1 2 3 4 5 6 
#
# 1 205.8333 18.3998 84.4831 -0.0028 -25.4781 0.0007
# 2 18.3998 54.1846 13.0225 0.0147 -16.4720 0.0268
# 3 84.4831 13.0225 133.2505 -0.0077 -25.4331 0.0106
# 4 -0.0028 0.0147 -0.0077 18.5364 0.0028 -22.5244
# 5 -25.4781 -16.4720 -25.4331 0.0028 55.8713 0.0011
# 6 0.0007 0.0268 0.0106 -22.5244 0.0011 13.2400
#
#
#
# Elastic Compliance Matrix: (Units=1/GPa)
#
#
# Indices 1 2 3 4 5 6 
#
# 1 0.006694 -0.001034 -0.003963 -0.000006 0.000944 -0.000005
# 2 -0.001034 0.020536 -0.000313 0.000064 0.005440 0.000067
# 3 -0.003963 -0.000313 0.010607 0.000006 0.002929 0.000002
# 4 -0.000006 0.000064 0.000006 -0.050549 0.000023 -0.085995
# 5 0.000944 0.005440 0.002929 0.000023 0.021266 0.000024
# 6 -0.000005 0.000067 0.000002 -0.085995 0.000024 -0.070770
#
#
# Mechanical properties :
#
#
# Convention : Reuss Voigt Hill
#
# Bulk Modulus (GPa) = 36.74207 69.45322 53.09765
# Shear Modulus (GPa) = -117.58056 36.02042 -40.78007
#
# Velocity S-wave (km/s) = -6.79723 3.76217 -4.00303
# Velocity P-wave (km/s) = 6.86772 6.79434 0.70803
#
# Compressibility (1/GPa) = 0.02721675
#
# Stress axis : x y z
#
# Youngs Moduli (GPa) = 149.38438 48.69608 94.27819
#
# Poissons Ratio (x) = 0.05034 0.37363
# Poissons Ratio (y) = 0.15443 0.02952
# Poissons Ratio (z) = 0.59201 0.01525
#
# Static dielectric constant tensor:
#      x y z
#    x 1.979940 0.000000 -0.026790 
#    y 0.000000 2.116900 0.000000 
#    z -0.026790 0.000000 1.951540 
# 
# From -- ./inp_files/214793.got.cif
#   From: 2010.05.17/outbox.cif.g08.bks.cpg/sg15_108_cif.got.tgz:214793.got - 2010.06.03 18:47:42.
