data_PCOD9255540
_publ_section_title
;
Structure prediction by ZEFSAII (Michael W. Deem and Ramdas Pophale) SiO2 
 PCOD9255540
Probable space group: C 2/C
;
_chemical_formula_sum "Si O2"
_cell_formula_units_Z 48
_cell_length_a 22.473730
_cell_length_b 9.082813
_cell_length_c 17.854615
_cell_angle_alpha 90.000000
_cell_angle_beta 145.876877
_cell_angle_gamma 90.000000
_cell_volume 2044.504554
_symmetry_space_group_name_H-M "C 2/C"
_symmetry_group_IT_number 15
_symmetry_cell_setting 'monoclinic'
loop_
_space_group_symop_operation_xyz
x,y,z
-x,y,1/2-z
-x,-y,-z
x,-y,1/2+z
1/2+x,1/2+y,z
1/2-x,1/2+y,1/2-z
1/2-x,1/2-y,-z
1/2+x,1/2-y,1/2+z
loop_
_atom_site_type_symbol
_atom_site_label
_atom_site_fract_x
_atom_site_fract_y
_atom_site_fract_z
Si Si1 0.132235 0.025917 0.154563
Si Si2 0.626648 0.974420 0.040406
Si Si3 0.947399 0.704700 0.432416
Si Si4 0.160018 0.754826 0.806694
Si Si5 0.179202 0.529765 0.938612
Si Si6 0.256195 0.045730 0.146188
O O1 0.251200 0.975429 0.306364
O O2 0.063831 0.878687 0.085186
O O3 0.157189 0.078917 0.095951
O O4 0.101209 0.148263 0.183814
O O5 0.579484 0.134101 0.014690
O O6 0.555019 0.864092 0.012979
O O7 0.621598 0.949405 0.946367
O O8 0.855545 0.631489 0.284595
O O9 0.109976 0.644429 0.816199
O O10 0.228285 0.632130 0.833164
O O11 0.233625 0.867848 0.929206
O O12 0.238555 0.431377 0.937792
#
# Coordination Sequence:
#
# PCOD9255540 Si02
#       6
#     8   8   8   8   8   8
#     4  10  17  31  54  81 116 139 180 245 273 324
#     4   9  19  35  51  80 116 149 191 226 269 348
#     4  10  20  31  55  84 108 151 187 226 280 332
#     4   8  16  29  50  77 102 140 185 225 278 318
#     4   8  15  30  53  74 101 146 189 225 259 337
#     4   9  16  28  51  79 101 147 187 218 274 332
#
# _framework density 23.477571000000001
#
# number of rings (size 3 to 8) (size 9 to 14) (size 15 to 20)
#    1.000    2.000    0.000    3.000    0.000    0.667 
#    0.000    3.333    0.000   29.000    8.667    0.000 
#    0.000    0.000    0.000    0.000    0.000    0.667 
#
# Total GULP energy -133835.471019 kJ/mol
# GULP energy per Si atom -5576.477959 kJ/mol
# Density = 2.342413 g / cm^3
# Si number density = 23.477571 Si / 1000 Ang^3
#
#
#
# Elastic Constant Matrix: (Units=GPa)
#
#
# Indices 1 2 3 4 5 6 
#
# 1 147.3021 18.3104 43.7774 0.0000 -34.7631 0.0000
# 2 18.3104 62.6033 16.1508 0.0000 -4.0785 0.0000
# 3 43.7774 16.1508 55.9468 0.0000 -9.5197 0.0000
# 4 0.0000 0.0000 0.0000 40.9908 0.0000 -1.6094
# 5 -34.7631 -4.0785 -9.5197 0.0000 43.7897 0.0000
# 6 0.0000 0.0000 0.0000 -1.6094 0.0000 34.4721
#
#
#
# Elastic Compliance Matrix: (Units=1/GPa)
#
#
# Indices 1 2 3 4 5 6 
#
# 1 0.010531 -0.000875 -0.006832 0.000000 0.006794 0.000000
# 2 -0.000875 0.017344 -0.004326 0.000000 -0.000020 0.000000
# 3 -0.006832 -0.004326 0.024379 0.000000 -0.000527 0.000000
# 4 0.000000 0.000000 0.000000 0.024441 0.000000 0.001141
# 5 0.006794 -0.000020 -0.000527 0.000000 0.028113 0.000000
# 6 0.000000 0.000000 0.000000 0.001141 0.000000 0.029062
#
#
# Mechanical properties :
#
#
# Convention : Reuss Voigt Hill
#
# Bulk Modulus (GPa) = 35.47429 46.92548 41.19988
# Shear Modulus (GPa) = 29.88067 36.35810 33.11939
#
# Velocity S-wave (km/s) = 3.57141 3.93953 3.75998
# Velocity P-wave (km/s) = 5.67003 6.38154 6.03628
#
# Compressibility (1/GPa) = 0.02818943
#
# Stress axis : x y z
#
# Youngs Moduli (GPa) = 94.95544 57.65615 41.01877
#
# Poissons Ratio (x) = 0.05045 0.28024
# Poissons Ratio (y) = 0.08309 0.17743
# Poissons Ratio (z) = 0.64873 0.24940
#
# Static dielectric constant tensor:
#      x y z
#    x 1.918220 0.000000 0.008130 
#    y 0.000000 1.918280 0.000000 
#    z 0.008130 0.000000 2.004900 
# 
# From -- ./inp_files/254911.got.cif
#   From: 2010.05.17/outbox.cif.g08.bks.cpg/sg15_128_cif.got.tgz:254911.got - 2010.06.03 18:47:42.
