data_PCOD9255020
_publ_section_title
;
Structure prediction by ZEFSAII (Michael W. Deem and Ramdas Pophale) SiO2 
 PCOD9255020
Probable space group: C 2/C
;
_chemical_formula_sum "Si O2"
_cell_formula_units_Z 56
_cell_length_a 27.751801
_cell_length_b 4.986497
_cell_length_c 23.883318
_cell_angle_alpha 90.000000
_cell_angle_beta 100.381152
_cell_angle_gamma 90.000000
_cell_volume 3250.974145
_symmetry_space_group_name_H-M "C 2/C"
_symmetry_group_IT_number 15
_symmetry_cell_setting 'monoclinic'
loop_
_space_group_symop_operation_xyz
x,y,z
-x,y,1/2-z
-x,-y,-z
x,-y,1/2+z
1/2+x,1/2+y,z
1/2-x,1/2+y,1/2-z
1/2-x,1/2-y,-z
1/2+x,1/2-y,1/2+z
loop_
_atom_site_type_symbol
_atom_site_label
_atom_site_fract_x
_atom_site_fract_y
_atom_site_fract_z
Si Si1 0.735307 0.360545 0.281334
Si Si2 0.859945 0.741485 0.290195
Si Si3 0.906837 0.413034 0.455072
Si Si4 0.829213 0.242612 0.355006
Si Si5 0.947655 0.068668 0.017826
Si Si6 0.508419 0.844632 0.120678
Si Si7 0.026182 0.160530 0.696500
O O1 0.745379 0.664884 0.264752
O O2 0.677490 0.306946 0.268180
O O3 0.770487 0.279332 0.339684
O O4 0.849245 0.447281 0.311760
O O5 0.916406 0.771581 0.287677
O O6 0.845522 0.949957 0.337045
O O7 0.855170 0.335247 0.417152
O O8 0.916845 0.716856 0.475264
O O9 0.946628 0.357648 0.414026
O O10 0.919623 0.212551 0.508672
O O11 0.962658 0.217895 0.077888
O O12 0.000000 0.000000 0.000000
O O13 0.521505 0.639961 0.172626
O O14 0.503040 0.138280 0.145622
O O15 0.000000 0.193181 0.750000
#
# Coordination Sequence:
#
# PCOD9255020 Si02
#       7
#     8   8   8   8   8   8   8
#     4   8  16  26  42  62  85 116 145 172 221 275
#     4  10  17  31  42  61  91 121 148 185 221 254
#     4  11  17  29  47  68  90 117 150 175 226 281
#     4  10  17  27  46  66  90 117 144 177 223 276
#     4  10  20  29  45  66  88 121 150 178 224 280
#     4  11  20  34  44  61  94 119 153 192 222 252
#     4  12  22  32  47  65  87 126 165 188 213 255
#
# _framework density 17.225605000000002
#
# number of rings (size 3 to 8) (size 9 to 14) (size 15 to 20)
#    0.000    1.714    2.857    5.571    0.000    0.000 
#    0.000    0.000    0.000    0.000    0.000    0.000 
#    0.000    6.857    0.000    0.000    0.000    0.571 
#
# Total GULP energy -156059.772067 kJ/mol
# GULP energy per Si atom -5573.563288 kJ/mol
# Density = 1.718640 g / cm^3
# Si number density = 17.225605 Si / 1000 Ang^3
#
#
#
# Elastic Constant Matrix: (Units=GPa)
#
#
# Indices 1 2 3 4 5 6 
#
# 1 39.4138 -2.8652 22.6068 0.0000 15.0807 0.0000
# 2 -2.8652 74.4600 -4.4623 0.0000 -2.8355 0.0000
# 3 22.6068 -4.4623 35.2767 0.0000 10.3434 0.0000
# 4 0.0000 0.0000 0.0000 24.7833 0.0000 15.1042
# 5 15.0807 -2.8355 10.3434 0.0000 16.2096 0.0000
# 6 0.0000 0.0000 0.0000 15.1042 0.0000 10.5752
#
#
#
# Elastic Compliance Matrix: (Units=1/GPa)
#
#
# Indices 1 2 3 4 5 6 
#
# 1 0.051303 -0.000678 -0.023291 0.000000 -0.032987 0.000000
# 2 -0.000678 0.013574 0.001563 0.000000 0.002008 0.000000
# 3 -0.023291 0.001563 0.045562 0.000000 -0.007131 0.000000
# 4 0.000000 0.000000 0.000000 0.311459 0.000000 -0.444843
# 5 -0.032987 0.002008 -0.007131 0.000000 0.097283 0.000000
# 6 0.000000 0.000000 0.000000 -0.444843 0.000000 0.729911
#
#
# Mechanical properties :
#
#
# Convention : Reuss Voigt Hill
#
# Bulk Modulus (GPa) = 15.23770 19.96769 17.60269
# Shear Modulus (GPa) = 3.80003 19.23839 11.51921
#
# Velocity S-wave (km/s) = 1.48688 3.34555 2.58878
# Velocity P-wave (km/s) = 3.43699 5.15176 4.37913
#
# Compressibility (1/GPa) = 0.06562672
#
# Stress axis : x y z
#
# Youngs Moduli (GPa) = 19.49186 73.66995 21.94825
#
# Poissons Ratio (x) = 0.04994 0.51120
# Poissons Ratio (y) = 0.01321 -0.03430
# Poissons Ratio (z) = 0.45399 -0.11512
#
# Static dielectric constant tensor:
#      x y z
#    x 1.593340 0.000000 0.077400 
#    y 0.000000 1.606090 0.000000 
#    z 0.077400 0.000000 1.612860 
# 
# From -- ./inp_files/256372.got.cif
#   From: 2010.05.17/outbox.cif.g08.bks.cpg/sg15_129_cif.got.tgz:256372.got - 2010.06.03 18:47:42.
