data_PCOD9255221
_publ_section_title
;
Structure prediction by ZEFSAII (Michael W. Deem and Ramdas Pophale) SiO2 
 PCOD9255221
Probable space group: C 2/C
;
_chemical_formula_sum "Si O2"
_cell_formula_units_Z 40
_cell_length_a 9.431303
_cell_length_b 18.267974
_cell_length_c 11.379691
_cell_angle_alpha 90.000000
_cell_angle_beta 95.890487
_cell_angle_gamma 90.000000
_cell_volume 1950.263736
_symmetry_space_group_name_H-M "C 2/C"
_symmetry_group_IT_number 15
_symmetry_cell_setting 'monoclinic'
loop_
_space_group_symop_operation_xyz
x,y,z
-x,y,1/2-z
-x,-y,-z
x,-y,1/2+z
1/2+x,1/2+y,z
1/2-x,1/2+y,1/2-z
1/2-x,1/2-y,-z
1/2+x,1/2-y,1/2+z
loop_
_atom_site_type_symbol
_atom_site_label
_atom_site_fract_x
_atom_site_fract_y
_atom_site_fract_z
Si Si1 0.815467 0.787721 0.855985
Si Si2 0.843312 0.420545 0.226792
Si Si3 0.829438 0.856994 0.081571
Si Si4 0.861322 0.741260 0.613400
Si Si5 0.554987 0.530639 0.628439
O O1 0.700387 0.725404 0.877463
O O2 0.819532 0.795602 0.716908
O O3 0.974252 0.757917 0.902761
O O4 0.795340 0.855723 0.940342
O O5 0.775858 0.406219 0.349613
O O6 0.856546 0.340707 0.166273
O O7 0.724310 0.465411 0.147836
O O8 0.000000 0.452823 0.250000
O O9 0.986552 0.887419 0.119280
O O10 0.750000 0.750000 0.500000
O O11 0.500000 0.498481 0.750000
O O12 0.500000 0.500000 0.500000
#
# Coordination Sequence:
#
# PCOD9255221 Si02
#       5
#     8   8   8   8   8
#     4   9  17  31  53  82 113 147 186 225 271 349
#     4  10  18  36  59  79 109 152 187 231 282 344
#     4   9  17  34  56  77 114 147 182 228 276 340
#     4  10  17  29  50  83 116 145 183 221 283 334
#     4  10  22  40  61  84 107 151 199 241 292 344
#
# _framework density 20.510045999999999
#
# number of rings (size 3 to 8) (size 9 to 14) (size 15 to 20)
#    0.000    2.400    4.000    1.200    0.000    1.600 
#    7.200    7.000    0.000    0.000    0.000    0.000 
#    0.000    0.000    0.000    0.000    0.000    0.000 
#
# Total GULP energy -111460.673010 kJ/mol
# GULP energy per Si atom -5573.033651 kJ/mol
# Density = 2.046336 g / cm^3
# Si number density = 20.510046 Si / 1000 Ang^3
#
#
#
# Elastic Constant Matrix: (Units=GPa)
#
#
# Indices 1 2 3 4 5 6 
#
# 1 130.4798 22.7440 59.6141 0.0000 25.4021 0.0000
# 2 22.7440 28.4524 28.5432 0.0000 5.2431 0.0000
# 3 59.6141 28.5432 165.5175 0.0000 20.8143 0.0000
# 4 0.0000 0.0000 0.0000 27.5148 0.0000 15.4633
# 5 25.4021 5.2431 20.8143 0.0000 33.4812 0.0000
# 6 0.0000 0.0000 0.0000 15.4633 0.0000 11.6178
#
#
#
# Elastic Compliance Matrix: (Units=1/GPa)
#
#
# Indices 1 2 3 4 5 6 
#
# 1 0.010756 -0.005278 -0.002214 0.000000 -0.005957 0.000000
# 2 -0.005278 0.045250 -0.005982 0.000000 0.000638 0.000000
# 3 -0.002214 -0.005982 0.008181 0.000000 -0.002469 0.000000
# 4 0.000000 0.000000 0.000000 0.144233 0.000000 -0.191974
# 5 -0.005957 0.000638 -0.002469 0.000000 0.035822 0.000000
# 6 0.000000 0.000000 0.000000 -0.191974 0.000000 0.341591
#
#
# Mechanical properties :
#
#
# Convention : Reuss Voigt Hill
#
# Bulk Modulus (GPa) = 26.85552 60.69470 43.77511
# Shear Modulus (GPa) = 7.99750 28.75933 18.37842
#
# Velocity S-wave (km/s) = 1.97681 3.74867 2.99669
# Velocity P-wave (km/s) = 4.28166 6.95655 5.77608
#
# Compressibility (1/GPa) = 0.03723629
#
# Stress axis : x y z
#
# Youngs Moduli (GPa) = 92.97501 22.09955 122.22880
#
# Poissons Ratio (x) = 0.11665 0.27067
# Poissons Ratio (y) = 0.49077 0.73121
# Poissons Ratio (z) = 0.20589 0.13221
#
# Static dielectric constant tensor:
#      x y z
#    x 1.738430 0.000000 -0.042460 
#    y 0.000000 1.763180 0.000000 
#    z -0.042460 0.000000 1.793470 
# 
# From -- ./inp_files/76798.got.cif
#   From: 2010.05.17/outbox.cif.g08.bks.cpg/sg15_39_cif.got.tgz:76798.got - 2010.06.03 18:47:42.
