data_PCOD9255151
_publ_section_title
;
Structure prediction by ZEFSAII (Michael W. Deem and Ramdas Pophale) SiO2 
 PCOD9255151
Probable space group: C 2/C
;
_chemical_formula_sum "Si O2"
_cell_formula_units_Z 60
_cell_length_a 15.391232
_cell_length_b 7.993252
_cell_length_c 22.880328
_cell_angle_alpha 90.000000
_cell_angle_beta 101.488290
_cell_angle_gamma 90.000000
_cell_volume 2758.480329
_symmetry_space_group_name_H-M "C 2/C"
_symmetry_group_IT_number 15
_symmetry_cell_setting 'monoclinic'
loop_
_space_group_symop_operation_xyz
x,y,z
-x,y,1/2-z
-x,-y,-z
x,-y,1/2+z
1/2+x,1/2+y,z
1/2-x,1/2+y,1/2-z
1/2-x,1/2-y,-z
1/2+x,1/2-y,1/2+z
loop_
_atom_site_type_symbol
_atom_site_label
_atom_site_fract_x
_atom_site_fract_y
_atom_site_fract_z
Si Si1 0.652309 0.283248 0.621052
Si Si2 0.397370 0.459201 0.995789
Si Si3 0.872321 0.568888 0.445090
Si Si4 0.500000 0.365505 0.250000
Si Si5 0.928645 0.387087 0.562826
Si Si6 0.656102 0.752720 0.835957
Si Si7 0.509683 0.695395 0.316367
Si Si8 0.679092 0.387264 0.902211
O O1 0.643138 0.433156 0.573397
O O2 0.651044 0.114429 0.582824
O O3 0.744720 0.305228 0.666526
O O4 0.568399 0.258720 0.651044
O O5 0.500000 0.500000 0.000000
O O6 0.393328 0.281096 0.027502
O O7 0.352167 0.583744 0.035222
O O8 0.895938 0.538428 0.516801
O O9 0.781765 0.666866 0.418877
O O10 0.964360 0.622504 0.427143
O O11 0.411612 0.263224 0.226541
O O12 0.493436 0.495499 0.302937
O O13 0.888797 0.373486 0.621947
O O14 0.669150 0.567782 0.867314
O O15 0.500000 0.769640 0.250000
O O16 0.605471 0.720543 0.358195
#
# Coordination Sequence:
#
# PCOD9255151 Si02
#       8
#     8   8   8   4   8   8   8   8
#     4  10  18  31  55  76  98 132 171 205 256 306
#     4  10  17  28  53  81 103 129 167 219 250 294
#     4   9  18  32  53  75 104 141 160 197 263 316
#     4   8  18  34  50  68  98 130 168 218 254 278
#     4   9  18  32  51  76 110 132 164 207 256 305
#     4   9  17  32  52  74  95 130 175 214 240 303
#     4   9  18  32  52  70  99 132 166 212 250 293
#     4   9  16  31  52  75  99 129 173 201 255 307
#
# _framework density 21.751106
#
# number of rings (size 3 to 8) (size 9 to 14) (size 15 to 20)
#    0.400    2.400    1.333    0.800    0.000    3.200 
#    2.400    0.667    7.333    0.000    0.000    0.000 
#    0.000    0.000    0.000    0.000    0.000    0.000 
#
# Total GULP energy -167211.236397 kJ/mol
# GULP energy per Si atom -5573.707880 kJ/mol
# Density = 2.170160 g / cm^3
# Si number density = 21.751106 Si / 1000 Ang^3
#
#
#
# Elastic Constant Matrix: (Units=GPa)
#
#
# Indices 1 2 3 4 5 6 
#
# 1 132.0095 7.4979 40.2127 0.0000 36.0387 0.0000
# 2 7.4979 39.7692 8.4881 0.0000 6.0054 0.0000
# 3 40.2127 8.4881 69.0681 0.0000 26.0156 0.0000
# 4 0.0000 0.0000 0.0000 6.8952 0.0000 1.5544
# 5 36.0387 6.0054 26.0156 0.0000 32.0115 0.0000
# 6 0.0000 0.0000 0.0000 1.5544 0.0000 21.3654
#
#
#
# Elastic Compliance Matrix: (Units=1/GPa)
#
#
# Indices 1 2 3 4 5 6 
#
# 1 0.011243 0.000025 -0.002565 0.000000 -0.010578 0.000000
# 2 0.000025 0.026061 -0.001967 0.000000 -0.003318 0.000000
# 3 -0.002565 -0.001967 0.021598 0.000000 -0.014297 0.000000
# 4 0.000000 0.000000 0.000000 0.147447 0.000000 -0.010727
# 5 -0.010578 -0.003318 -0.014297 0.000000 0.055388 0.000000
# 6 0.000000 0.000000 0.000000 -0.010727 0.000000 0.047585
#
#
# Mechanical properties :
#
#
# Convention : Reuss Voigt Hill
#
# Bulk Modulus (GPa) = 20.04472 39.24938 29.64705
# Shear Modulus (GPa) = 14.92688 24.36428 19.64558
#
# Velocity S-wave (km/s) = 2.62250 3.35048 3.00859
# Velocity P-wave (km/s) = 4.29016 5.74905 5.07233
#
# Compressibility (1/GPa) = 0.04988846
#
# Stress axis : x y z
#
# Youngs Moduli (GPa) = 88.94662 38.37096 46.29965
#
# Poissons Ratio (x) = -0.00096 0.11874
# Poissons Ratio (y) = -0.00222 0.09109
# Poissons Ratio (z) = 0.22811 0.07549
#
# Static dielectric constant tensor:
#      x y z
#    x 1.801680 0.000000 0.024580 
#    y 0.000000 1.860540 0.000000 
#    z 0.024580 0.000000 1.793660 
# 
# From -- ./inp_files/273483.got.cif
#   From: 2010.05.17/outbox.cif.g08.bks.cpg/sg15_137_cif.got.tgz:273483.got - 2010.06.03 18:47:42.
