data_PCOD9255675
_publ_section_title
;
Structure prediction by ZEFSAII (Michael W. Deem and Ramdas Pophale) SiO2 
 PCOD9255675
Probable space group: C 2/C
;
_chemical_formula_sum "Si O2"
_cell_formula_units_Z 48
_cell_length_a 17.553975
_cell_length_b 9.458796
_cell_length_c 17.393960
_cell_angle_alpha 90.000000
_cell_angle_beta 140.487732
_cell_angle_gamma 90.000000
_cell_volume 1837.524372
_symmetry_space_group_name_H-M "C 2/C"
_symmetry_group_IT_number 15
_symmetry_cell_setting 'monoclinic'
loop_
_space_group_symop_operation_xyz
x,y,z
-x,y,1/2-z
-x,-y,-z
x,-y,1/2+z
1/2+x,1/2+y,z
1/2-x,1/2+y,1/2-z
1/2-x,1/2-y,-z
1/2+x,1/2-y,1/2+z
loop_
_atom_site_type_symbol
_atom_site_label
_atom_site_fract_x
_atom_site_fract_y
_atom_site_fract_z
Si Si1 0.337010 0.748545 0.467580
Si Si2 0.984261 0.164526 0.440438
Si Si3 0.418789 0.052231 0.830751
Si Si4 0.666599 0.849666 0.526563
Si Si5 0.696535 0.531052 0.764649
Si Si6 0.167319 0.463776 0.895411
O O1 0.445268 0.726390 0.492795
O O2 0.292857 0.596521 0.461950
O O3 0.359932 0.842654 0.561481
O O4 0.229120 0.820848 0.332077
O O5 0.915605 0.277059 0.330346
O O6 0.924084 0.014475 0.373431
O O7 0.121534 0.201855 0.525753
O O8 0.555467 0.045216 0.967678
O O9 0.304667 0.002128 0.789221
O O10 0.411749 0.984336 0.741699
O O11 0.782837 0.921497 0.650302
O O12 0.669566 0.883786 0.438862
#
# Coordination Sequence:
#
# PCOD9255675 Si02
#       6
#     8   8   8   8   8   8
#     4   9  19  30  52  83 115 146 186 240 293 340
#     4   9  19  33  52  85 111 153 194 232 290 351
#     4   9  18  30  53  82 108 145 192 233 284 345
#     4   9  20  31  53  86 111 148 197 237 284 352
#     4  10  17  34  55  80 116 148 191 242 289 343
#     4  10  17  32  52  83 113 143 187 244 286 341
#
# _framework density 26.122102000000002
#
# number of rings (size 3 to 8) (size 9 to 14) (size 15 to 20)
#    1.000    1.667    1.667    1.000    2.333    0.000 
#    0.000    3.333    0.000    4.000   30.333    0.000 
#    0.000    0.000    0.000    0.000    0.000    0.000 
#
# Total GULP energy -133650.883239 kJ/mol
# GULP energy per Si atom -5568.786802 kJ/mol
# Density = 2.606265 g / cm^3
# Si number density = 26.122102 Si / 1000 Ang^3
#
#
#
# Elastic Constant Matrix: (Units=GPa)
#
#
# Indices 1 2 3 4 5 6 
#
# 1 88.3009 34.4615 15.9170 0.0000 -29.8472 0.0000
# 2 34.4615 91.2663 6.2550 0.0000 -12.8146 0.0000
# 3 15.9170 6.2550 67.7557 0.0000 -17.3943 0.0000
# 4 0.0000 0.0000 0.0000 35.9693 0.0000 23.5179
# 5 -29.8472 -12.8146 -17.3943 0.0000 27.4297 0.0000
# 6 0.0000 0.0000 0.0000 23.5179 0.0000 28.6613
#
#
#
# Elastic Compliance Matrix: (Units=1/GPa)
#
#
# Indices 1 2 3 4 5 6 
#
# 1 0.019696 -0.004719 0.000890 0.000000 0.019792 0.000000
# 2 -0.004719 0.012865 0.000174 0.000000 0.000986 0.000000
# 3 0.000890 0.000174 0.017682 0.000000 0.012262 0.000000
# 4 0.000000 0.000000 0.000000 0.059982 0.000000 -0.049218
# 5 0.019792 0.000986 0.012262 0.000000 0.066229 0.000000
# 6 0.000000 0.000000 0.000000 -0.049218 0.000000 0.075276
#
#
# Mechanical properties :
#
#
# Convention : Reuss Voigt Hill
#
# Bulk Modulus (GPa) = 23.29263 40.06555 31.67909
# Shear Modulus (GPa) = 18.29141 31.12468 24.70805
#
# Velocity S-wave (km/s) = 2.64905 3.45557 3.07883
# Velocity P-wave (km/s) = 4.27701 5.59396 4.97922
#
# Compressibility (1/GPa) = 0.04293204
#
# Stress axis : x y z
#
# Youngs Moduli (GPa) = 50.77113 77.72814 56.55539
#
# Poissons Ratio (x) = 0.36682 -0.05031
# Poissons Ratio (y) = 0.23960 -0.00984
# Poissons Ratio (z) = -0.04517 -0.01352
#
# Static dielectric constant tensor:
#      x y z
#    x 2.131300 0.000000 0.051710 
#    y 0.000000 2.207450 0.000000 
#    z 0.051710 0.000000 2.081860 
# 
# From -- ./inp_files/214648.got.cif
#   From: 2010.05.17/outbox.cif.g08.bks.cpg/sg15_108_cif.got.tgz:214648.got - 2010.06.03 18:47:42.
