data_PCOD9255159
_publ_section_title
;
Structure prediction by ZEFSAII (Michael W. Deem and Ramdas Pophale) SiO2 
 PCOD9255159
Probable space group: C 2/C
;
_chemical_formula_sum "Si O2"
_cell_formula_units_Z 52
_cell_length_a 18.493453
_cell_length_b 33.995599
_cell_length_c 5.524075
_cell_angle_alpha 90.000000
_cell_angle_beta 97.433510
_cell_angle_gamma 90.000000
_cell_volume 3443.775973
_symmetry_space_group_name_H-M "C 2/C"
_symmetry_group_IT_number 15
_symmetry_cell_setting 'monoclinic'
loop_
_space_group_symop_operation_xyz
x,y,z
-x,y,1/2-z
-x,-y,-z
x,-y,1/2+z
1/2+x,1/2+y,z
1/2-x,1/2+y,1/2-z
1/2-x,1/2-y,-z
1/2+x,1/2-y,1/2+z
loop_
_atom_site_type_symbol
_atom_site_label
_atom_site_fract_x
_atom_site_fract_y
_atom_site_fract_z
Si Si1 0.617562 0.249232 0.658310
Si Si2 0.576683 0.892657 0.147766
Si Si3 0.000000 0.657579 0.250000
Si Si4 0.299921 0.833973 0.253856
Si Si5 0.585316 0.015501 0.741829
Si Si6 0.753356 0.692812 0.236697
Si Si7 0.086009 0.729770 0.139788
O O1 0.648131 0.204549 0.698683
O O2 0.685703 0.278339 0.668456
O O3 0.571008 0.249393 0.393651
O O4 0.578634 0.255418 0.897619
O O5 0.500000 0.885249 0.250000
O O6 0.647365 0.870531 0.275673
O O7 0.587498 0.939198 0.159870
O O8 0.560437 0.871090 0.887140
O O9 0.957818 0.688654 0.402747
O O10 0.262065 0.834396 0.501897
O O11 0.249122 0.827633 0.998016
O O12 0.500000 0.004267 0.750000
O O13 0.616400 0.991158 0.526453
O O14 0.827813 0.718491 0.293107
#
# Coordination Sequence:
#
# PCOD9255159 Si02
#       7
#     8   8   4   8   8   8   8
#     4  10  17  30  42  55  74  99 125 150 180 236
#     4  11  22  30  46  56  80 101 121 162 205 248
#     4  12  22  30  40  60  84 100 124 164 208 252
#     4  10  18  28  39  62  72  92 122 146 194 232
#     4   9  20  34  45  57  70  94 128 156 190 242
#     4  10  17  29  43  56  76  95 124 152 180 236
#     4  10  19  28  39  55  76  98 124 147 191 236
#
# _framework density 15.099703999999999
#
# number of rings (size 3 to 8) (size 9 to 14) (size 15 to 20)
#    0.000    1.846    3.077    6.462    5.385    0.000 
#    0.000    0.000    0.000    0.000    0.000    0.000 
#    0.000    0.000    0.000    0.000    0.000    0.000 
#
# Total GULP energy -144771.612883 kJ/mol
# GULP energy per Si atom -5568.138957 kJ/mol
# Density = 1.506534 g / cm^3
# Si number density = 15.099704 Si / 1000 Ang^3
#
#
#
# Elastic Constant Matrix: (Units=GPa)
#
#
# Indices 1 2 3 4 5 6 
#
# 1 32.4599 28.0522 22.0332 0.0000 -3.6989 0.0000
# 2 28.0522 49.1732 24.3555 0.0000 1.0027 0.0000
# 3 22.0332 24.3555 123.4186 0.0000 -8.3841 0.0000
# 4 0.0000 0.0000 0.0000 11.1804 0.0000 1.5987
# 5 -3.6989 1.0027 -8.3841 0.0000 21.5836 0.0000
# 6 0.0000 0.0000 0.0000 1.5987 0.0000 11.2445
#
#
#
# Elastic Compliance Matrix: (Units=1/GPa)
#
#
# Indices 1 2 3 4 5 6 
#
# 1 0.065648 -0.035757 -0.003889 0.000000 0.011401 0.000000
# 2 -0.035757 0.042187 -0.002559 0.000000 -0.009082 0.000000
# 3 -0.003889 -0.002559 0.009516 0.000000 0.003149 0.000000
# 4 0.000000 0.000000 0.000000 0.091298 0.000000 -0.012981
# 5 0.011401 -0.009082 0.003149 0.000000 0.049930 0.000000
# 6 0.000000 0.000000 0.000000 -0.012981 0.000000 0.090778
#
#
# Mechanical properties :
#
#
# Convention : Reuss Voigt Hill
#
# Bulk Modulus (GPa) = 30.35679 39.32594 34.84137
# Shear Modulus (GPa) = 11.24235 17.50910 14.37572
#
# Velocity S-wave (km/s) = 2.73159 3.40893 3.08888
# Velocity P-wave (km/s) = 5.48604 6.44943 5.98714
#
# Compressibility (1/GPa) = 0.03294156
#
# Stress axis : x y z
#
# Youngs Moduli (GPa) = 15.23282 23.70377 105.09037
#
# Poissons Ratio (x) = 0.84757 0.40869
# Poissons Ratio (y) = 0.54468 0.26890
# Poissons Ratio (z) = 0.05924 0.06065
#
# Static dielectric constant tensor:
#      x y z
#    x 1.534780 0.000000 -0.031780 
#    y 0.000000 1.468040 0.000000 
#    z -0.031780 0.000000 1.667410 
# 
# From -- ./inp_files/11809.got.cif
#   From: 2010.05.17/outbox.cif.g08.bks.cpg/sg15_6_cif.got.tgz:11809.got - 2010.06.03 18:47:42.
