data_PCOD9255078
_publ_section_title
;
Structure prediction by ZEFSAII (Michael W. Deem and Ramdas Pophale) SiO2 
 PCOD9255078
Probable space group: C 2/C
;
_chemical_formula_sum "Si O2"
_cell_formula_units_Z 40
_cell_length_a 15.885326
_cell_length_b 9.508071
_cell_length_c 12.737126
_cell_angle_alpha 90.000000
_cell_angle_beta 57.438859
_cell_angle_gamma 90.000000
_cell_volume 1621.412783
_symmetry_space_group_name_H-M "C 2/C"
_symmetry_group_IT_number 15
_symmetry_cell_setting 'monoclinic'
loop_
_space_group_symop_operation_xyz
x,y,z
-x,y,1/2-z
-x,-y,-z
x,-y,1/2+z
1/2+x,1/2+y,z
1/2-x,1/2+y,1/2-z
1/2-x,1/2-y,-z
1/2+x,1/2-y,1/2+z
loop_
_atom_site_type_symbol
_atom_site_label
_atom_site_fract_x
_atom_site_fract_y
_atom_site_fract_z
Si Si1 0.775739 0.498746 0.343626
Si Si2 0.113382 0.762028 0.208701
Si Si3 0.873004 0.238453 0.544507
Si Si4 0.064294 0.374450 0.400202
Si Si5 0.242873 0.513432 0.879091
O O1 0.815400 0.634594 0.376106
O O2 0.692271 0.394833 0.442178
O O3 0.879896 0.419933 0.243448
O O4 0.732970 0.538273 0.256730
O O5 0.119991 0.756542 0.332206
O O6 0.159637 0.910808 0.144245
O O7 0.000000 0.742498 0.250000
O O8 0.815930 0.377695 0.539894
O O9 0.987955 0.249342 0.434037
O O10 0.159977 0.363940 0.411896
O O11 0.000000 0.500000 0.500000
#
# Coordination Sequence:
#
# PCOD9255078 Si02
#       5
#     8   8   8   8   8
#     4   8  16  27  49  67  88 116 156 182 215 263
#     4  10  17  28  45  69  95 116 143 186 234 259
#     4   9  15  31  51  65  85 122 154 185 208 270
#     4   8  13  26  50  68  83 117 161 174 217 266
#     4   7  15  27  46  66  88 114 155 176 213 268
#
# _framework density 24.669844999999999
#
# number of rings (size 3 to 8) (size 9 to 14) (size 15 to 20)
#    1.200    2.400    2.000    0.000    0.000    0.000 
#    0.000    3.000    0.000    1.200    0.000    0.000 
#    0.000    0.000    0.000    0.000    0.000    0.000 
#
# Total GULP energy -111391.926031 kJ/mol
# GULP energy per Si atom -5569.596302 kJ/mol
# Density = 2.461370 g / cm^3
# Si number density = 24.669845 Si / 1000 Ang^3
#
#
#
# Elastic Constant Matrix: (Units=GPa)
#
#
# Indices 1 2 3 4 5 6 
#
# 1 126.2020 61.4580 29.5541 0.0000 -8.1760 0.0000
# 2 61.4580 95.8269 34.0844 0.0000 -17.3631 0.0000
# 3 29.5541 34.0844 68.0173 0.0000 5.0488 0.0000
# 4 0.0000 0.0000 0.0000 32.0288 0.0000 -25.8913
# 5 -8.1760 -17.3631 5.0488 0.0000 20.7937 0.0000
# 6 0.0000 0.0000 0.0000 -25.8913 0.0000 17.1300
#
#
#
# Elastic Compliance Matrix: (Units=1/GPa)
#
#
# Indices 1 2 3 4 5 6 
#
# 1 0.011683 -0.007192 -0.001393 0.000000 -0.001074 0.000000
# 2 -0.007192 0.021272 -0.008802 0.000000 0.017072 0.000000
# 3 -0.001393 -0.008802 0.020677 0.000000 -0.012918 0.000000
# 4 0.000000 0.000000 0.000000 -0.140746 0.000000 -0.212733
# 5 -0.001074 0.017072 -0.012918 0.000000 0.065061 0.000000
# 6 0.000000 0.000000 0.000000 -0.212733 0.000000 -0.263161
#
#
# Mechanical properties :
#
#
# Convention : Reuss Voigt Hill
#
# Bulk Modulus (GPa) = 53.02585 60.02658 56.52622
# Shear Modulus (GPa) = -20.47874 24.98713 2.25420
#
# Velocity S-wave (km/s) = -2.88429 3.18600 0.95694
# Velocity P-wave (km/s) = 3.23244 6.15783 4.91770
#
# Compressibility (1/GPa) = 0.01885873
#
# Stress axis : x y z
#
# Youngs Moduli (GPa) = 85.59722 47.01046 48.36319
#
# Poissons Ratio (x) = 0.33809 0.06735
# Poissons Ratio (y) = 0.61559 0.42569
# Poissons Ratio (z) = 0.11921 0.41378
#
# Static dielectric constant tensor:
#      x y z
#    x 2.022670 0.000000 0.137580 
#    y 0.000000 1.969380 0.000000 
#    z 0.137580 0.000000 2.052450 
# 
# From -- ./inp_files/203404.got.cif
#   From: 2010.05.17/outbox.cif.g08.bks.cpg/sg15_102_cif.got.tgz:203404.got - 2010.06.03 18:47:42.
