data_PCOD9255071
_publ_section_title
;
Structure prediction by ZEFSAII (Michael W. Deem and Ramdas Pophale) SiO2 
 PCOD9255071
Probable space group: C 2/C
;
_chemical_formula_sum "Si O2"
_cell_formula_units_Z 56
_cell_length_a 13.580797
_cell_length_b 19.089990
_cell_length_c 9.851297
_cell_angle_alpha 90.000000
_cell_angle_beta 104.019173
_cell_angle_gamma 90.000000
_cell_volume 2477.948232
_symmetry_space_group_name_H-M "C 2/C"
_symmetry_group_IT_number 15
_symmetry_cell_setting 'monoclinic'
loop_
_space_group_symop_operation_xyz
x,y,z
-x,y,1/2-z
-x,-y,-z
x,-y,1/2+z
1/2+x,1/2+y,z
1/2-x,1/2+y,1/2-z
1/2-x,1/2-y,-z
1/2+x,1/2-y,1/2+z
loop_
_atom_site_type_symbol
_atom_site_label
_atom_site_fract_x
_atom_site_fract_y
_atom_site_fract_z
Si Si1 0.148352 0.218772 0.533947
Si Si2 0.822072 0.402129 0.551199
Si Si3 0.632606 0.408380 0.861039
Si Si4 0.229627 0.614849 0.755866
Si Si5 0.652283 0.517071 0.111521
Si Si6 0.871006 0.364672 0.861486
Si Si7 0.077311 0.448880 0.395354
O O1 0.250000 0.250000 0.500000
O O2 0.096690 0.166692 0.408046
O O3 0.185291 0.168709 0.668765
O O4 0.098638 0.287823 0.577727
O O5 0.820318 0.367660 0.403971
O O6 0.705793 0.418496 0.553031
O O7 0.872018 0.367908 0.699508
O O8 0.862169 0.481179 0.554227
O O9 0.591463 0.443105 0.709341
O O10 0.754835 0.391033 0.866305
O O11 0.620112 0.464073 0.980693
O O12 0.275203 0.535767 0.775439
O O13 0.145357 0.610753 0.844967
O O14 0.946704 0.417313 0.965517
O O15 0.000000 0.465349 0.250000
#
# Coordination Sequence:
#
# PCOD9255071 Si02
#       7
#     8   8   8   8   8   8   8
#     4   9  16  29  44  58  79 115 148 179 232 278
#     4  10  18  27  41  61  85 109 144 193 226 258
#     4   9  14  23  42  56  79 107 137 170 215 265
#     4  10  17  28  44  62  85 114 151 184 227 267
#     4   9  13  23  37  59  81 103 135 168 211 254
#     4  10  18  30  42  59  84 112 153 187 232 266
#     4  11  20  31  46  62  87 126 165 193 216 253
#
# _framework density 22.599342
#
# number of rings (size 3 to 8) (size 9 to 14) (size 15 to 20)
#    0.000    2.286    7.143    1.714    0.000    2.857 
#    0.000    0.000    0.000    0.000    0.000    0.000 
#    0.000    0.000    0.000    5.143    8.571    1.571 
#
# Total GULP energy -155927.621296 kJ/mol
# GULP energy per Si atom -5568.843618 kJ/mol
# Density = 2.254790 g / cm^3
# Si number density = 22.599342 Si / 1000 Ang^3
#
#
#
# Elastic Constant Matrix: (Units=GPa)
#
#
# Indices 1 2 3 4 5 6 
#
# 1 25.9313 0.1544 18.7865 0.0000 -0.8584 0.0000
# 2 0.1544 88.0136 32.3823 0.0000 -13.3297 0.0000
# 3 18.7865 32.3823 161.7880 0.0000 -6.7988 0.0000
# 4 0.0000 0.0000 0.0000 26.0423 0.0000 2.5042
# 5 -0.8584 -13.3297 -6.7988 0.0000 24.1609 0.0000
# 6 0.0000 0.0000 0.0000 2.5042 0.0000 4.0016
#
#
#
# Elastic Compliance Matrix: (Units=1/GPa)
#
#
# Indices 1 2 3 4 5 6 
#
# 1 0.042419 0.002044 -0.005287 0.000000 0.001147 0.000000
# 2 0.002044 0.013338 -0.002626 0.000000 0.006692 0.000000
# 3 -0.005287 -0.002626 0.007338 0.000000 0.000428 0.000000
# 4 0.000000 0.000000 0.000000 0.040858 0.000000 -0.025568
# 5 0.001147 0.006692 0.000428 0.000000 0.045243 0.000000
# 6 0.000000 0.000000 0.000000 -0.025568 0.000000 0.265899
#
#
# Mechanical properties :
#
#
# Convention : Reuss Voigt Hill
#
# Bulk Modulus (GPa) = 19.47054 42.04215 30.75635
# Shear Modulus (GPa) = 11.26250 25.80160 18.53205
#
# Velocity S-wave (km/s) = 2.23481 3.38257 2.86672
# Velocity P-wave (km/s) = 3.91068 5.82231 4.95947
#
# Compressibility (1/GPa) = 0.05135963
#
# Stress axis : x y z
#
# Youngs Moduli (GPa) = 23.57418 74.97400 136.27017
#
# Poissons Ratio (x) = -0.15328 0.72041
# Poissons Ratio (y) = -0.04820 0.35782
# Poissons Ratio (z) = 0.12463 0.19687
#
# Static dielectric constant tensor:
#      x y z
#    x 1.988930 0.000000 0.006490 
#    y 0.000000 1.788480 0.000000 
#    z 0.006490 0.000000 1.906180 
# 
# From -- ./inp_files/49688.got.cif
#   From: 2010.05.17/outbox.cif.g08.bks.cpg/sg15_25_cif.got.tgz:49688.got - 2010.06.03 18:47:42.
