data_PCOD9255652
_publ_section_title
;
Structure prediction by ZEFSAII (Michael W. Deem and Ramdas Pophale) SiO2 
 PCOD9255652
Probable space group: C 2/C
;
_chemical_formula_sum "Si O2"
_cell_formula_units_Z 56
_cell_length_a 25.985350
_cell_length_b 6.910557
_cell_length_c 19.253647
_cell_angle_alpha 90.000000
_cell_angle_beta 142.404875
_cell_angle_gamma 90.000000
_cell_volume 2109.307105
_symmetry_space_group_name_H-M "C 2/C"
_symmetry_group_IT_number 15
_symmetry_cell_setting 'monoclinic'
loop_
_space_group_symop_operation_xyz
x,y,z
-x,y,1/2-z
-x,-y,-z
x,-y,1/2+z
1/2+x,1/2+y,z
1/2-x,1/2+y,1/2-z
1/2-x,1/2-y,-z
1/2+x,1/2-y,1/2+z
loop_
_atom_site_type_symbol
_atom_site_label
_atom_site_fract_x
_atom_site_fract_y
_atom_site_fract_z
Si Si1 0.951134 0.187073 0.479453
Si Si2 0.719936 0.486279 0.892270
Si Si3 0.674474 0.108265 0.113316
Si Si4 0.677239 0.028810 0.869545
Si Si5 0.775849 0.946296 0.848186
Si Si6 0.031963 0.083318 0.706608
Si Si7 0.988755 0.646071 0.872521
O O1 0.853053 0.166265 0.395350
O O2 0.957606 0.324174 0.419014
O O3 0.000000 0.000000 0.500000
O O4 0.996023 0.200822 0.602383
O O5 0.752369 0.505865 0.848951
O O6 0.697927 0.258004 0.879987
O O7 0.633223 0.592622 0.814737
O O8 0.797702 0.524489 0.026213
O O9 0.692609 0.075937 0.212832
O O10 0.690396 0.334652 0.117866
O O11 0.583187 0.069010 0.984393
O O12 0.579853 0.024936 0.744027
O O13 0.743688 0.916461 0.891632
O O14 0.007406 0.858071 0.661034
O O15 0.000000 0.127761 0.750000
#
# Coordination Sequence:
#
# PCOD9255652 Si02
#       7
#     8   8   8   8   8   8   8
#     4  10  17  32  51  76 112 144 191 237 285 336
#     4   9  19  31  50  83 112 143 178 244 294 341
#     4  11  22  34  58  82 115 152 193 235 298 339
#     4   9  19  33  51  77 114 139 183 233 295 339
#     4  11  20  36  55  82 111 152 191 240 284 350
#     4  10  18  29  52  81 113 145 186 243 297 339
#     4  10  21  33  53  82 115 151 187 246 290 349
#
# _framework density 26.549002000000002
#
# number of rings (size 3 to 8) (size 9 to 14) (size 15 to 20)
#    0.000    2.000    2.857    4.286    6.000    0.571 
#    0.000    0.000    0.000    0.857    3.714    0.000 
#    0.000    0.000    0.000    0.000    0.000    0.000 
#
# Total GULP energy -156825.940016 kJ/mol
# GULP energy per Si atom -5600.926429 kJ/mol
# Density = 2.648858 g / cm^3
# Si number density = 26.549002 Si / 1000 Ang^3
#
#
#
# Elastic Constant Matrix: (Units=GPa)
#
#
# Indices 1 2 3 4 5 6 
#
# 1 123.5384 -0.3717 49.2880 0.0000 -4.1760 0.0000
# 2 -0.3717 62.3695 21.9449 -0.0001 10.4653 0.0000
# 3 49.2880 21.9449 207.0307 0.0000 6.3787 0.0000
# 4 0.0000 -0.0001 0.0000 40.6368 0.0000 5.7946
# 5 -4.1760 10.4653 6.3787 0.0000 58.6699 0.0000
# 6 0.0000 0.0000 0.0000 5.7946 0.0000 26.7533
#
#
#
# Elastic Compliance Matrix: (Units=1/GPa)
#
#
# Indices 1 2 3 4 5 6 
#
# 1 0.009019 0.000717 -0.002246 0.000000 0.000758 0.000000
# 2 0.000717 0.017179 -0.001905 0.000000 -0.002806 0.000000
# 3 -0.002246 -0.001905 0.005580 0.000000 -0.000427 0.000000
# 4 0.000000 0.000000 0.000000 0.025392 0.000000 -0.005500
# 5 0.000758 -0.002806 -0.000427 0.000000 0.017645 0.000000
# 6 0.000000 0.000000 0.000000 -0.005500 0.000000 0.038570
#
#
# Mechanical properties :
#
#
# Convention : Reuss Voigt Hill
#
# Bulk Modulus (GPa) = 40.14708 59.40676 49.77692
# Shear Modulus (GPa) = 38.89308 46.68384 42.78846
#
# Velocity S-wave (km/s) = 3.83162 4.19788 4.01893
# Velocity P-wave (km/s) = 5.89320 6.77651 6.35023
#
# Compressibility (1/GPa) = 0.02490841
#
# Stress axis : x y z
#
# Youngs Moduli (GPa) = 110.88068 58.21076 179.20800
#
# Poissons Ratio (x) = -0.04173 0.40258
# Poissons Ratio (y) = -0.07949 0.34142
# Poissons Ratio (z) = 0.24909 0.11090
#
# Static dielectric constant tensor:
#      x y z
#    x 1.961670 0.000000 0.018350 
#    y 0.000000 2.244950 0.000000 
#    z 0.018350 0.000000 1.976830 
# 
# From -- ./inp_files/222062.got.cif
#   From: 2010.05.17/outbox.cif.g08.bks.cpg/sg15_112_cif.got.tgz:222062.got - 2010.06.03 18:47:42.
