data_PCOD9255605
_publ_section_title
;
Structure prediction by ZEFSAII (Michael W. Deem and Ramdas Pophale) SiO2 
 PCOD9255605
Probable space group: C 2/C
;
_chemical_formula_sum "Si O2"
_cell_formula_units_Z 64
_cell_length_a 8.054755
_cell_length_b 29.828110
_cell_length_c 12.561662
_cell_angle_alpha 90.000000
_cell_angle_beta 85.533583
_cell_angle_gamma 90.000000
_cell_volume 3008.875935
_symmetry_space_group_name_H-M "C 2/C"
_symmetry_group_IT_number 15
_symmetry_cell_setting 'monoclinic'
loop_
_space_group_symop_operation_xyz
x,y,z
-x,y,1/2-z
-x,-y,-z
x,-y,1/2+z
1/2+x,1/2+y,z
1/2-x,1/2+y,1/2-z
1/2-x,1/2-y,-z
1/2+x,1/2-y,1/2+z
loop_
_atom_site_type_symbol
_atom_site_label
_atom_site_fract_x
_atom_site_fract_y
_atom_site_fract_z
Si Si1 0.673687 0.937866 0.180065
Si Si2 0.639264 0.806639 0.468528
Si Si3 0.691284 0.382903 0.737935
Si Si4 0.653396 0.038482 0.158288
Si Si5 0.794065 0.347531 0.245839
Si Si6 0.561307 0.102662 0.466712
Si Si7 0.176790 0.266615 0.115502
Si Si8 0.184145 0.289875 0.703097
O O1 0.500000 0.944688 0.250000
O O2 0.767527 0.898763 0.241191
O O3 0.727079 0.988495 0.149969
O O4 0.637041 0.912929 0.072832
O O5 0.752063 0.826604 0.367062
O O6 0.532063 0.850083 0.513277
O O7 0.512121 0.776047 0.408269
O O8 0.701147 0.783829 0.574908
O O9 0.500000 0.369178 0.750000
O O10 0.708865 0.427784 0.805274
O O11 0.786594 0.391674 0.622941
O O12 0.795180 0.342960 0.784347
O O13 0.500000 0.039039 0.250000
O O14 0.567513 0.063420 0.062617
O O15 0.745339 0.312880 0.341545
O O16 0.000000 0.349204 0.250000
O O17 0.200283 0.232452 0.212150
O O18 0.250000 0.250000 0.000000
O O19 0.000000 0.275979 0.750000
#
# Coordination Sequence:
#
# PCOD9255605 Si02
#       8
#     8   8   8   8   8   8   8   8
#     4  10  17  31  60  96 119 152 206 266 316 364
#     4  11  20  39  64  90 128 159 208 269 319 370
#     4  11  23  38  56  86 126 164 208 254 316 382
#     4   9  19  33  58  93 123 153 210 266 314 372
#     4   9  19  34  56  89 125 155 198 256 317 366
#     4  11  17  35  62  91 120 160 204 264 321 367
#     4  11  21  35  61  91 122 158 195 251 328 379
#     4  12  22  39  66  90 118 162 213 268 316 368
#
# _framework density 21.270401
#
# number of rings (size 3 to 8) (size 9 to 14) (size 15 to 20)
#    0.000    1.500    7.500    0.750    0.000    2.000 
#    0.000    0.625    0.000    0.750    0.000    0.000 
#    0.000    0.000    0.000    0.000    0.000    0.000 
#
# Total GULP energy -178339.189370 kJ/mol
# GULP energy per Si atom -5573.099668 kJ/mol
# Density = 2.122199 g / cm^3
# Si number density = 21.270401 Si / 1000 Ang^3
#
#
#
# Elastic Constant Matrix: (Units=GPa)
#
#
# Indices 1 2 3 4 5 6 
#
# 1 29.4235 29.6201 23.8188 0.0000 3.7288 0.0000
# 2 29.6201 117.0686 63.7830 0.0000 5.7126 0.0000
# 3 23.8188 63.7830 157.7047 0.0000 13.1064 0.0000
# 4 0.0000 0.0000 0.0000 84.2641 0.0000 34.2779
# 5 3.7288 5.7126 13.1064 0.0000 23.7920 0.0000
# 6 0.0000 0.0000 0.0000 34.2779 0.0000 31.6161
#
#
#
# Elastic Compliance Matrix: (Units=1/GPa)
#
#
# Indices 1 2 3 4 5 6 
#
# 1 0.046886 -0.010252 -0.002650 0.000000 -0.003427 0.000000
# 2 -0.010252 0.013199 -0.003836 0.000000 0.000550 0.000000
# 3 -0.002650 -0.003836 0.008574 0.000000 -0.003387 0.000000
# 4 0.000000 0.000000 0.000000 0.021231 0.000000 -0.023019
# 5 -0.003427 0.000550 -0.003387 0.000000 0.044301 0.000000
# 6 0.000000 0.000000 0.000000 -0.023019 0.000000 0.056586
#
#
# Mechanical properties :
#
#
# Convention : Reuss Voigt Hill
#
# Bulk Modulus (GPa) = 28.42215 59.84896 44.13555
# Shear Modulus (GPa) = 21.18810 40.39944 30.79377
#
# Velocity S-wave (km/s) = 3.15958 4.36285 3.80903
# Velocity P-wave (km/s) = 5.16739 7.31967 6.33559
#
# Compressibility (1/GPa) = 0.03518383
#
# Stress axis : x y z
#
# Youngs Moduli (GPa) = 21.32812 75.76498 116.63142
#
# Poissons Ratio (x) = 0.77672 0.30912
# Poissons Ratio (y) = 0.21865 0.44735
# Poissons Ratio (z) = 0.05653 0.29060
#
# Static dielectric constant tensor:
#      x y z
#    x 1.597810 0.000000 0.085100 
#    y 0.000000 1.848040 0.000000 
#    z 0.085100 0.000000 1.772570 
# 
# From -- ./inp_files/82595.got.cif
#   From: 2010.05.17/outbox.cif.g08.bks.cpg/sg15_42_cif.got.tgz:82595.got - 2010.06.03 18:47:42.
