data_PCOD9255983
_publ_section_title
;
Structure prediction by ZEFSAII (Michael W. Deem and Ramdas Pophale) SiO2 
 PCOD9255983
Probable space group: C 2/C
;
_chemical_formula_sum "Si O2"
_cell_formula_units_Z 64
_cell_length_a 18.955822
_cell_length_b 10.548306
_cell_length_c 19.453698
_cell_angle_alpha 90.000000
_cell_angle_beta 44.862738
_cell_angle_gamma 90.000000
_cell_volume 2743.908273
_symmetry_space_group_name_H-M "C 2/C"
_symmetry_group_IT_number 15
_symmetry_cell_setting 'monoclinic'
loop_
_space_group_symop_operation_xyz
x,y,z
-x,y,1/2-z
-x,-y,-z
x,-y,1/2+z
1/2+x,1/2+y,z
1/2-x,1/2+y,1/2-z
1/2-x,1/2-y,-z
1/2+x,1/2-y,1/2+z
loop_
_atom_site_type_symbol
_atom_site_label
_atom_site_fract_x
_atom_site_fract_y
_atom_site_fract_z
Si Si1 0.189067 0.899892 0.258030
Si Si2 0.087506 0.775898 0.450446
Si Si3 0.767178 0.099463 0.377317
Si Si4 0.681228 0.055037 0.048848
Si Si5 0.468299 0.069563 0.121442
Si Si6 0.397514 0.800777 0.145314
Si Si7 0.884251 0.676279 0.816634
Si Si8 0.890870 0.286115 0.791282
O O1 0.142366 0.885233 0.366994
O O2 0.289472 0.811886 0.184829
O O3 0.119643 0.836274 0.248504
O O4 0.211536 0.040338 0.213249
O O5 0.170449 0.692985 0.434863
O O6 0.045529 0.685317 0.419613
O O7 0.986020 0.797669 0.565054
O O8 0.752397 0.979171 0.437162
O O9 0.848634 0.183669 0.360940
O O10 0.676271 0.930150 0.100835
O O11 0.575582 0.064954 0.082265
O O12 0.686926 0.174686 0.095773
O O13 0.392111 0.096565 0.236496
O O14 0.445644 0.939287 0.099753
O O15 0.373397 0.807939 0.242500
O O16 0.000000 0.650164 0.750000
O O17 0.000000 0.282530 0.750000
#
# Coordination Sequence:
#
# PCOD9255983 Si02
#       8
#     8   8   8   8   8   8   8   8
#     4  11  25  41  61  93 134 162 209 256 313 386
#     4  11  22  38  63  95 123 162 211 260 313 367
#     4  12  24  38  61  91 126 171 204 255 320 377
#     4  11  20  38  65  94 117 154 218 270 312 356
#     4  10  17  33  63  92 115 144 205 271 314 337
#     4  12  20  37  66  93 121 158 208 270 313 356
#     4  12  23  40  60  90 129 162 207 259 313 372
#     4   9  20  38  63  90 123 165 203 264 312 364
#
# _framework density 23.324394999999999
#
# number of rings (size 3 to 8) (size 9 to 14) (size 15 to 20)
#    0.000    1.000    6.250    1.875    0.000    1.000 
#    0.000    1.875    0.000    0.000    0.000    0.000 
#    0.000    0.000    0.000    0.000    0.000    0.000 
#
# Total GULP energy -178439.116246 kJ/mol
# GULP energy per Si atom -5576.222383 kJ/mol
# Density = 2.327131 g / cm^3
# Si number density = 23.324395 Si / 1000 Ang^3
#
#
#
# Elastic Constant Matrix: (Units=GPa)
#
#
# Indices 1 2 3 4 5 6 
#
# 1 46.5975 -2.5911 -1.8520 0.0000 12.6329 0.0000
# 2 -2.5911 21.9629 -18.0414 -0.0004 -0.2932 -0.0003
# 3 -1.8520 -18.0414 57.6478 -0.0003 10.4879 -0.0002
# 4 0.0000 -0.0004 -0.0003 6244.5954 0.0000 4443.0761
# 5 12.6329 -0.2932 10.4879 0.0000 24.3967 0.0000
# 6 0.0000 -0.0003 -0.0002 4443.0761 0.0000 3194.1843
#
#
#
# Elastic Compliance Matrix: (Units=1/GPa)
#
#
# Indices 1 2 3 4 5 6 
#
# 1 0.026629 0.008187 0.006410 0.000000 -0.016446 0.000000
# 2 0.008187 0.065334 0.023149 0.000000 -0.013406 0.000000
# 3 0.006410 0.023149 0.027501 0.000000 -0.014863 0.000000
# 4 0.000000 0.000000 0.000000 0.015546 0.000000 -0.021625
# 5 -0.016446 -0.013406 -0.014863 0.000000 0.055734 0.000000
# 6 0.000000 0.000000 0.000000 -0.021625 0.000000 0.030393
#
#
# Mechanical properties :
#
#
# Convention : Reuss Voigt Hill
#
# Bulk Modulus (GPa) = 5.12935 9.02656 7.07795
# Shear Modulus (GPa) = 23.73827 1902.54813 963.14320
#
# Velocity S-wave (km/s) = 3.19367 28.59128 20.34282
# Velocity P-wave (km/s) = 3.97534 33.07305 23.55451
#
# Compressibility (1/GPa) = 0.19495664
#
# Stress axis : x y z
#
# Youngs Moduli (GPa) = 37.55299 15.30599 36.36176
#
# Poissons Ratio (x) = -0.12532 -0.23307
# Poissons Ratio (y) = -0.30746 -0.84173
# Poissons Ratio (z) = -0.24071 -0.35432
#
# Static dielectric constant tensor:
#      x y z
#    x 1.859920 0.000000 -0.032890 
#    y 0.000000 1.963700 0.000000 
#    z -0.032890 0.000000 2.204380 
# 
# From -- ./inp_files/252563.got.cif
#   From: 2010.05.17/outbox.cif.g08.bks.cpg/sg15_127_cif.got.tgz:252563.got - 2010.06.03 18:47:42.
