data_PCOD9255484
_publ_section_title
;
Structure prediction by ZEFSAII (Michael W. Deem and Ramdas Pophale) SiO2 
 PCOD9255484
Probable space group: C 2/C
;
_chemical_formula_sum "Si O2"
_cell_formula_units_Z 48
_cell_length_a 9.388684
_cell_length_b 30.568354
_cell_length_c 8.770553
_cell_angle_alpha 90.000000
_cell_angle_beta 65.214650
_cell_angle_gamma 90.000000
_cell_volume 2285.253855
_symmetry_space_group_name_H-M "C 2/C"
_symmetry_group_IT_number 15
_symmetry_cell_setting 'monoclinic'
loop_
_space_group_symop_operation_xyz
x,y,z
-x,y,1/2-z
-x,-y,-z
x,-y,1/2+z
1/2+x,1/2+y,z
1/2-x,1/2+y,1/2-z
1/2-x,1/2-y,-z
1/2+x,1/2-y,1/2+z
loop_
_atom_site_type_symbol
_atom_site_label
_atom_site_fract_x
_atom_site_fract_y
_atom_site_fract_z
Si Si1 0.355943 0.399582 0.430008
Si Si2 0.092954 0.192133 0.551167
Si Si3 0.010447 0.378283 0.557526
Si Si4 0.452370 0.783823 0.947875
Si Si5 0.327387 0.487055 0.625413
Si Si6 0.138062 0.533307 0.486900
O O1 0.500000 0.409400 0.250000
O O2 0.402230 0.357309 0.513513
O O3 0.191462 0.385931 0.426495
O O4 0.305527 0.441148 0.549787
O O5 0.268776 0.204855 0.521225
O O6 0.028091 0.235022 0.492574
O O7 0.000000 0.186462 0.750000
O O8 0.965945 0.328375 0.531727
O O9 0.000000 0.380419 0.750000
O O10 0.912174 0.417516 0.528861
O O11 0.500000 0.778908 0.750000
O O12 0.500000 0.500000 0.500000
O O13 0.198541 0.522242 0.627433
O O14 0.289877 0.478931 0.817205
O O15 0.000000 0.500000 0.500000
#
# Coordination Sequence:
#
# PCOD9255484 Si02
#       6
#     8   8   8   8   8   8
#     4  10  18  31  48  73 107 143 178 220 271 314
#     4   8  14  24  40  65 100 135 168 212 266 313
#     4  10  17  31  51  75 105 140 179 225 273 319
#     4   8  14  23  41  68  98 132 170 214 267 312
#     4  12  25  39  56  79 109 145 183 225 269 325
#     4  12  22  39  57  80 107 144 182 225 271 320
#
# _framework density 21.004231000000001
#
# number of rings (size 3 to 8) (size 9 to 14) (size 15 to 20)
#    0.000    2.000    3.333    2.000    0.000    0.000 
#    0.000    0.000    0.000    0.000    0.000    1.167 
#    0.000    2.667    0.000    1.000    0.000    0.167 
#
# Total GULP energy -133618.482429 kJ/mol
# GULP energy per Si atom -5567.436768 kJ/mol
# Density = 2.095642 g / cm^3
# Si number density = 21.004231 Si / 1000 Ang^3
#
#
#
# Elastic Constant Matrix: (Units=GPa)
#
#
# Indices 1 2 3 4 5 6 
#
# 1 35.2925 16.1522 8.2362 0.0000 -11.0408 0.0000
# 2 16.1522 172.9024 -18.5715 0.0000 15.5494 0.0000
# 3 8.2362 -18.5715 70.2213 0.0000 -26.0838 0.0000
# 4 0.0000 0.0000 0.0000 15.5203 0.0000 -14.0530
# 5 -11.0408 15.5494 -26.0838 0.0000 28.7769 0.0000
# 6 0.0000 0.0000 0.0000 -14.0530 0.0000 18.4418
#
#
#
# Elastic Compliance Matrix: (Units=1/GPa)
#
#
# Indices 1 2 3 4 5 6 
#
# 1 0.035647 -0.004768 0.000897 0.000000 0.017066 0.000000
# 2 -0.004768 0.006733 0.000466 0.000000 -0.005045 0.000000
# 3 0.000897 0.000466 0.021548 0.000000 0.019624 0.000000
# 4 0.000000 0.000000 0.000000 0.207830 0.000000 0.158370
# 5 0.017066 -0.005045 0.019624 0.000000 0.061811 0.000000
# 6 0.000000 0.000000 0.000000 0.158370 0.000000 0.174905
#
#
# Mechanical properties :
#
#
# Convention : Reuss Voigt Hill
#
# Bulk Modulus (GPa) = 17.50804 32.22777 24.86791
# Shear Modulus (GPa) = 9.35763 30.72107 20.03935
#
# Velocity S-wave (km/s) = 2.11300 3.82856 3.09214
# Velocity P-wave (km/s) = 3.78241 5.90937 4.96121
#
# Compressibility (1/GPa) = 0.05711661
#
# Stress axis : x y z
#
# Youngs Moduli (GPa) = 28.05316 148.52562 46.40801
#
# Poissons Ratio (x) = 0.70824 -0.04164
# Poissons Ratio (y) = 0.13377 -0.02162
# Poissons Ratio (z) = -0.02517 -0.06919
#
# Static dielectric constant tensor:
#      x y z
#    x 2.137740 0.000000 0.353880 
#    y 0.000000 1.931260 0.000000 
#    z 0.353880 0.000000 2.107340 
# 
# From -- ./inp_files/92324.got.cif
#   From: 2010.05.17/outbox.cif.g08.bks.cpg/sg15_47_cif.got.tgz:92324.got - 2010.06.03 18:47:42.
