data_PCOD9255715
_publ_section_title
;
Structure prediction by ZEFSAII (Michael W. Deem and Ramdas Pophale) SiO2 
 PCOD9255715
Probable space group: C 2/C
;
_chemical_formula_sum "Si O2"
_cell_formula_units_Z 56
_cell_length_a 17.487381
_cell_length_b 17.594167
_cell_length_c 13.088035
_cell_angle_alpha 90.000000
_cell_angle_beta 138.069278
_cell_angle_gamma 90.000000
_cell_volume 2690.883604
_symmetry_space_group_name_H-M "C 2/C"
_symmetry_group_IT_number 15
_symmetry_cell_setting 'monoclinic'
loop_
_space_group_symop_operation_xyz
x,y,z
-x,y,1/2-z
-x,-y,-z
x,-y,1/2+z
1/2+x,1/2+y,z
1/2-x,1/2+y,1/2-z
1/2-x,1/2-y,-z
1/2+x,1/2-y,1/2+z
loop_
_atom_site_type_symbol
_atom_site_label
_atom_site_fract_x
_atom_site_fract_y
_atom_site_fract_z
Si Si1 0.000000 0.976530 0.750000
Si Si2 0.071836 0.706157 0.027213
Si Si3 0.304990 0.543078 0.678088
Si Si4 0.036697 0.881797 0.993375
Si Si5 0.624260 0.995293 0.251843
Si Si6 0.276540 0.403006 0.783564
Si Si7 0.000000 0.619723 0.750000
Si Si8 0.080297 0.602763 0.502590
O O1 0.029076 0.924529 0.877188
O O2 0.106815 0.028107 0.824141
O O3 0.079070 0.795924 0.023924
O O4 0.034754 0.669677 0.881930
O O5 0.975482 0.680872 0.014423
O O6 0.189770 0.666482 0.179839
O O7 0.261194 0.460622 0.672394
O O8 0.196848 0.598063 0.554651
O O9 0.379514 0.574494 0.846948
O O10 0.909048 0.881709 0.914139
O O11 0.733378 0.047321 0.337057
O O12 0.605361 0.935844 0.323531
O O13 0.608999 0.943048 0.135640
O O14 0.518541 0.053659 0.148147
#
# Coordination Sequence:
#
# PCOD9255715 Si02
#       8
#     4   8   8   8   8   8   4   8
#     4  10  21  40  56  87 122 146 208 244 267 358
#     4  10  21  36  58  88 124 147 185 244 304 363
#     4  10  20  39  61  83 114 162 200 233 288 346
#     4  11  23  39  59  87 121 160 191 233 309 352
#     4   8  15  31  54  80 111 146 191 235 273 339
#     4   9  19  39  55  78 116 158 198 229 274 352
#     4  10  17  32  54  95 120 140 186 246 309 338
#     4   8  16  34  54  77 111 152 190 229 279 341
#
# _framework density 20.811008000000001
#
# number of rings (size 3 to 8) (size 9 to 14) (size 15 to 20)
#    0.000    2.571    0.000    4.714    2.000    0.000 
#   30.857    3.571    0.000    4.286    0.000    0.000 
#    0.000    0.000    0.000    0.000    0.000    0.000 
#
# Total GULP energy -156302.193073 kJ/mol
# GULP energy per Si atom -5582.221181 kJ/mol
# Density = 2.076364 g / cm^3
# Si number density = 20.811008 Si / 1000 Ang^3
#
#
#
# Elastic Constant Matrix: (Units=GPa)
#
#
# Indices 1 2 3 4 5 6 
#
# 1 131.8186 50.5168 42.3312 0.0000 23.8933 0.0000
# 2 50.5168 85.3640 46.3433 0.0000 -8.1822 0.0000
# 3 42.3312 46.3433 91.2858 0.0000 10.3382 0.0000
# 4 0.0000 0.0000 0.0000 24.3252 0.0000 1.2721
# 5 23.8933 -8.1822 10.3382 0.0000 28.4570 0.0000
# 6 0.0000 0.0000 0.0000 1.2721 0.0000 23.7524
#
#
#
# Elastic Compliance Matrix: (Units=1/GPa)
#
#
# Indices 1 2 3 4 5 6 
#
# 1 0.013873 -0.009653 0.000105 0.000000 -0.014462 0.000000
# 2 -0.009653 0.024824 -0.010275 0.000000 0.018976 0.000000
# 3 0.000105 -0.010275 0.017173 0.000000 -0.009282 0.000000
# 4 0.000000 0.000000 0.000000 0.041225 0.000000 -0.002208
# 5 -0.014462 0.018976 -0.009282 0.000000 0.056112 0.000000
# 6 0.000000 0.000000 0.000000 -0.002208 0.000000 0.042219
#
#
# Mechanical properties :
#
#
# Convention : Reuss Voigt Hill
#
# Bulk Modulus (GPa) = 61.63530 65.20565 63.42047
# Shear Modulus (GPa) = 20.79165 26.59209 23.69187
#
# Velocity S-wave (km/s) = 3.16424 3.57850 3.37772
# Velocity P-wave (km/s) = 6.55979 6.96236 6.76407
#
# Compressibility (1/GPa) = 0.01622447
#
# Stress axis : x y z
#
# Youngs Moduli (GPa) = 72.08155 40.28314 58.22954
#
# Poissons Ratio (x) = 0.38886 -0.00613
# Poissons Ratio (y) = 0.69582 0.59832
# Poissons Ratio (z) = -0.00758 0.41392
#
# Static dielectric constant tensor:
#      x y z
#    x 1.808350 0.000000 0.015170 
#    y 0.000000 1.708190 0.000000 
#    z 0.015170 0.000000 1.762470 
# 
# From -- ./inp_files/163123.got.cif
#   From: 2010.05.17/outbox.cif.g08.bks.cpg/sg15_82_cif.got.tgz:163123.got - 2010.06.03 18:47:42.
