data_PCOD9255732
_publ_section_title
;
Structure prediction by ZEFSAII (Michael W. Deem and Ramdas Pophale) SiO2 
 PCOD9255732
Probable space group: C 2/C
;
_chemical_formula_sum "Si O2"
_cell_formula_units_Z 48
_cell_length_a 8.969879
_cell_length_b 17.272521
_cell_length_c 14.243445
_cell_angle_alpha 90.000000
_cell_angle_beta 63.295460
_cell_angle_gamma 90.000000
_cell_volume 1971.387901
_symmetry_space_group_name_H-M "C 2/C"
_symmetry_group_IT_number 15
_symmetry_cell_setting 'monoclinic'
loop_
_space_group_symop_operation_xyz
x,y,z
-x,y,1/2-z
-x,-y,-z
x,-y,1/2+z
1/2+x,1/2+y,z
1/2-x,1/2+y,1/2-z
1/2-x,1/2-y,-z
1/2+x,1/2-y,1/2+z
loop_
_atom_site_type_symbol
_atom_site_label
_atom_site_fract_x
_atom_site_fract_y
_atom_site_fract_z
Si Si1 0.876102 0.165602 0.570530
Si Si2 0.000000 0.545283 0.250000
Si Si3 0.000000 0.025762 0.250000
Si Si4 0.642247 0.193551 0.792412
Si Si5 0.849632 0.506541 0.115341
Si Si6 0.667809 0.632168 0.363227
Si Si7 0.610310 0.154632 0.489528
O O1 0.803116 0.158176 0.695129
O O2 0.744928 0.132538 0.531421
O O3 0.872498 0.257328 0.548230
O O4 0.055768 0.135004 0.489233
O O5 0.080365 0.489640 0.303151
O O6 0.150364 0.597442 0.168571
O O7 0.159290 0.981251 0.161637
O O8 0.072988 0.077698 0.314564
O O9 0.500000 0.198030 0.750000
O O10 0.674392 0.281210 0.818956
O O11 0.566778 0.150962 0.905805
O O12 0.844655 0.601487 0.110741
O O13 0.000000 0.500000 0.000000
#
# Coordination Sequence:
#
# PCOD9255732 Si02
#       7
#     8   4   4   8   8   8   8
#     4   9  15  28  54  90 114 143 187 226 283 344
#     4  10  24  38  58  82 110 148 194 236 284 346
#     4  10  18  36  64  78  98 154 192 232 288 338
#     4   9  16  27  51  90 118 143 183 233 284 335
#     4  11  23  43  59  82 114 151 201 244 282 336
#     4  10  17  32  55  83 112 147 189 228 283 355
#     4   9  17  30  55  84 115 146 184 238 276 332
#
# _framework density 24.348327999999999
#
# number of rings (size 3 to 8) (size 9 to 14) (size 15 to 20)
#    0.000    2.333    2.500    3.000    0.000    0.000 
#    4.500   12.500    0.000    1.000    0.000    0.000 
#    0.000    0.000    0.000    0.000    0.000    0.000 
#
# Total GULP energy -134031.777606 kJ/mol
# GULP energy per Si atom -5584.657400 kJ/mol
# Density = 2.429291 g / cm^3
# Si number density = 24.348328 Si / 1000 Ang^3
#
#
#
# Elastic Constant Matrix: (Units=GPa)
#
#
# Indices 1 2 3 4 5 6 
#
# 1 72.0199 7.1021 45.3288 0.0000 -32.5332 0.0000
# 2 7.1021 25.5667 19.6321 0.0000 -9.7592 0.0000
# 3 45.3288 19.6321 208.7217 0.0000 -48.5666 0.0000
# 4 0.0000 0.0000 0.0000 41.5429 0.0000 -5.9955
# 5 -32.5332 -9.7592 -48.5666 0.0000 50.4989 0.0000
# 6 0.0000 0.0000 0.0000 -5.9955 0.0000 10.6366
#
#
#
# Elastic Compliance Matrix: (Units=1/GPa)
#
#
# Indices 1 2 3 4 5 6 
#
# 1 0.020063 0.000064 -0.001743 0.000000 0.011261 0.000000
# 2 0.000064 0.043417 -0.002751 0.000000 0.005785 0.000000
# 3 -0.001743 -0.002751 0.006497 0.000000 0.004594 0.000000
# 4 0.000000 0.000000 0.000000 0.026203 0.000000 0.014770
# 5 0.011261 0.005785 0.004594 0.000000 0.032594 0.000000
# 6 0.000000 0.000000 0.000000 0.014770 0.000000 0.102340
#
#
# Mechanical properties :
#
#
# Convention : Reuss Voigt Hill
#
# Bulk Modulus (GPa) = 16.36232 50.04827 33.20530
# Shear Modulus (GPa) = 19.20518 36.15205 27.67861
#
# Velocity S-wave (km/s) = 2.81155 3.85747 3.37527
# Velocity P-wave (km/s) = 4.15625 6.35923 5.37188
#
# Compressibility (1/GPa) = 0.06111602
#
# Stress axis : x y z
#
# Youngs Moduli (GPa) = 49.84384 23.03255 153.90863
#
# Poissons Ratio (x) = -0.00147 0.26822
# Poissons Ratio (y) = -0.00317 0.42346
# Poissons Ratio (z) = 0.08686 0.06337
#
# Static dielectric constant tensor:
#      x y z
#    x 1.927470 0.000000 -0.049700 
#    y 0.000000 2.068180 0.000000 
#    z -0.049700 0.000000 2.006430 
# 
# From -- ./inp_files/192860.got.cif
#   From: 2010.05.17/outbox.cif.g08.bks.cpg/sg15_97_cif.got.tgz:192860.got - 2010.06.03 18:47:42.
