data_PCOD9255869
_publ_section_title
;
Structure prediction by ZEFSAII (Michael W. Deem and Ramdas Pophale) SiO2 
 PCOD9255869
Probable space group: C 2/C
;
_chemical_formula_sum "Si O2"
_cell_formula_units_Z 64
_cell_length_a 28.211111
_cell_length_b 18.799743
_cell_length_c 12.469395
_cell_angle_alpha 90.000000
_cell_angle_beta 149.320352
_cell_angle_gamma 90.000000
_cell_volume 3374.347636
_symmetry_space_group_name_H-M "C 2/C"
_symmetry_group_IT_number 15
_symmetry_cell_setting 'monoclinic'
loop_
_space_group_symop_operation_xyz
x,y,z
-x,y,1/2-z
-x,-y,-z
x,-y,1/2+z
1/2+x,1/2+y,z
1/2-x,1/2+y,1/2-z
1/2-x,1/2-y,-z
1/2+x,1/2-y,1/2+z
loop_
_atom_site_type_symbol
_atom_site_label
_atom_site_fract_x
_atom_site_fract_y
_atom_site_fract_z
Si Si1 0.980057 0.314533 0.430423
Si Si2 0.091162 0.293160 0.983924
Si Si3 0.322171 0.683925 0.511814
Si Si4 0.635463 0.726282 0.661397
Si Si5 0.625715 0.935149 0.790791
Si Si6 0.245954 0.462331 0.817836
Si Si7 0.243225 0.889375 0.258725
Si Si8 0.912190 0.428459 0.156354
O O1 0.035657 0.262276 0.460779
O O2 0.057226 0.371675 0.623349
O O3 0.937150 0.276423 0.450048
O O4 0.906677 0.361644 0.223984
O O5 0.000000 0.327041 0.750000
O O6 0.119826 0.227744 0.963312
O O7 0.177601 0.346809 0.152150
O O8 0.355659 0.701023 0.697242
O O9 0.216883 0.715194 0.302506
O O10 0.318580 0.600353 0.481886
O O11 0.659850 0.662419 0.629273
O O12 0.679648 0.965447 0.792872
O O13 0.573363 0.999296 0.748129
O O14 0.702720 0.906615 0.024359
O O15 0.282856 0.539110 0.854150
O O16 0.179528 0.437810 0.591658
O O17 0.000000 0.418314 0.250000
#
# Coordination Sequence:
#
# PCOD9255869 Si02
#       8
#     8   8   8   8   8   8   8   8
#     4  12  20  33  51  79 112 138 179 217 265 318
#     4  11  20  31  53  86 108 132 172 228 270 307
#     4  10  18  34  53  77 106 141 181 217 266 312
#     4  10  17  33  54  76 104 140 182 223 257 310
#     4  11  19  30  49  75 111 142 175 208 257 326
#     4  11  21  35  50  76 111 148 176 211 266 322
#     4  10  21  31  52  80 110 140 175 219 265 314
#     4  11  23  30  46  78 114 151 169 208 267 323
#
# _framework density 18.966629000000001
#
# number of rings (size 3 to 8) (size 9 to 14) (size 15 to 20)
#    0.000    1.250    6.250    1.875    3.500    0.000 
#    0.000    0.625    0.000    3.750    0.000    0.000 
#    0.000    0.000    0.000    0.000    0.000    0.000 
#
# Total GULP energy -178739.183681 kJ/mol
# GULP energy per Si atom -5585.599490 kJ/mol
# Density = 1.892346 g / cm^3
# Si number density = 18.966629 Si / 1000 Ang^3
#
#
#
# Elastic Constant Matrix: (Units=GPa)
#
#
# Indices 1 2 3 4 5 6 
#
# 1 105.5403 40.8856 8.3643 0.0000 6.7749 0.0000
# 2 40.8856 95.5612 6.9615 0.0000 9.3678 0.0000
# 3 8.3643 6.9615 7.9773 0.0000 1.2711 0.0000
# 4 0.0000 0.0000 0.0000 20.1139 0.0000 -4.0753
# 5 6.7749 9.3678 1.2711 0.0000 13.1904 0.0000
# 6 0.0000 0.0000 0.0000 -4.0753 0.0000 28.8413
#
#
#
# Elastic Compliance Matrix: (Units=1/GPa)
#
#
# Indices 1 2 3 4 5 6 
#
# 1 0.011945 -0.004272 -0.008432 0.000000 -0.002289 0.000000
# 2 -0.004272 0.013399 -0.006142 0.000000 -0.006730 0.000000
# 3 -0.008432 -0.006142 0.140327 0.000000 -0.004831 0.000000
# 4 0.000000 0.000000 0.000000 0.051182 0.000000 0.007232
# 5 -0.002289 -0.006730 -0.004831 0.000000 0.082233 0.000000
# 6 0.000000 0.000000 0.000000 0.007232 0.000000 0.035694
#
#
# Mechanical properties :
#
#
# Convention : Reuss Voigt Hill
#
# Bulk Modulus (GPa) = 7.81370 35.72238 21.76804
# Shear Modulus (GPa) = 12.04435 22.62028 17.33231
#
# Velocity S-wave (km/s) = 2.52271 3.45720 3.02625
# Velocity P-wave (km/s) = 3.55163 5.90013 4.86958
#
# Compressibility (1/GPa) = 0.12798033
#
# Stress axis : x y z
#
# Youngs Moduli (GPa) = 83.71567 74.62990 7.12623
#
# Poissons Ratio (x) = 0.31883 0.06009
# Poissons Ratio (y) = 0.35764 0.04377
# Poissons Ratio (z) = 0.70588 0.45834
#
# Static dielectric constant tensor:
#      x y z
#    x 1.662970 0.000000 -0.008720 
#    y 0.000000 1.681490 0.000000 
#    z -0.008720 0.000000 1.664320 
# 
# From -- ./inp_files/119730.got.cif
#   From: 2010.05.17/outbox.cif.g08.bks.cpg/sg15_60_cif.got.tgz:119730.got - 2010.06.03 18:47:42.
