data_PCOD9255767
_publ_section_title
;
Structure prediction by ZEFSAII (Michael W. Deem and Ramdas Pophale) SiO2 
 PCOD9255767
Probable space group: C 2/C
;
_chemical_formula_sum "Si O2"
_cell_formula_units_Z 64
_cell_length_a 24.602082
_cell_length_b 8.392211
_cell_length_c 23.405128
_cell_angle_alpha 90.000000
_cell_angle_beta 45.448574
_cell_angle_gamma 90.000000
_cell_volume 3443.641468
_symmetry_space_group_name_H-M "C 2/C"
_symmetry_group_IT_number 15
_symmetry_cell_setting 'monoclinic'
loop_
_space_group_symop_operation_xyz
x,y,z
-x,y,1/2-z
-x,-y,-z
x,-y,1/2+z
1/2+x,1/2+y,z
1/2-x,1/2+y,1/2-z
1/2-x,1/2-y,-z
1/2+x,1/2-y,1/2+z
loop_
_atom_site_type_symbol
_atom_site_label
_atom_site_fract_x
_atom_site_fract_y
_atom_site_fract_z
Si Si1 0.603507 0.944396 0.974654
Si Si2 0.975781 0.752822 0.524559
Si Si3 0.170537 0.662086 0.258640
Si Si4 0.507168 0.344228 0.381038
Si Si5 0.562030 0.056630 0.126733
Si Si6 0.593547 0.651369 0.302142
Si Si7 0.755986 0.514044 0.692069
Si Si8 0.607096 0.954836 0.212940
O O1 0.564906 0.096966 0.972269
O O2 0.692911 0.962091 0.899064
O O3 0.582056 0.955832 0.056287
O O4 0.562498 0.792611 0.977265
O O5 0.977858 0.869528 0.467981
O O6 0.934097 0.786490 0.615211
O O7 0.086285 0.740955 0.328692
O O8 0.192696 0.542079 0.292653
O O9 0.167161 0.559580 0.203720
O O10 0.233057 0.801390 0.210464
O O11 0.446565 0.240140 0.389135
O O12 0.533767 0.508861 0.332965
O O13 0.613688 0.997366 0.141251
O O14 0.476404 0.018846 0.208865
O O15 0.676271 0.576444 0.251003
O O16 0.603395 0.779324 0.244016
#
# Coordination Sequence:
#
# PCOD9255767 Si02
#       8
#     8   8   8   8   8   8   8   8
#     4  10  18  32  57  81 106 149 192 227 275 334
#     4  10  17  32  57  83 113 142 184 238 283 328
#     4  10  19  33  52  78 111 146 182 223 283 336
#     4   9  19  33  55  85 112 138 182 243 280 325
#     4   9  19  36  58  76 102 148 196 231 271 325
#     4  11  21  33  55  88 117 144 182 228 289 338
#     4  11  21  33  53  83 115 145 178 233 286 341
#     4  10  19  36  56  78 107 149 191 227 270 333
#
# _framework density 18.584976000000001
#
# number of rings (size 3 to 8) (size 9 to 14) (size 15 to 20)
#    0.000    2.000    2.500    2.625    0.000    0.000 
#    0.000    8.750    0.000    0.000    0.000    0.000 
#    0.000    0.000    0.000    0.000    0.000    0.000 
#
# Total GULP energy -178180.715803 kJ/mol
# GULP energy per Si atom -5568.147369 kJ/mol
# Density = 1.854268 g / cm^3
# Si number density = 18.584976 Si / 1000 Ang^3
#
#
#
# Elastic Constant Matrix: (Units=GPa)
#
#
# Indices 1 2 3 4 5 6 
#
# 1 57.7467 42.9203 26.7763 0.0034 26.4069 -0.0034
# 2 42.9203 83.2116 20.3190 0.0031 22.3314 -0.0054
# 3 26.7763 20.3190 76.8502 -0.0007 15.6341 0.0001
# 4 0.0034 0.0031 -0.0007 20.2670 -0.0017 -2.4045
# 5 26.4069 22.3314 15.6341 -0.0017 35.3537 0.0026
# 6 -0.0034 -0.0054 0.0001 -2.4045 0.0026 11.9056
#
#
#
# Elastic Compliance Matrix: (Units=1/GPa)
#
#
# Indices 1 2 3 4 5 6 
#
# 1 0.038102 -0.013530 -0.006205 -0.000005 -0.017169 0.000007
# 2 -0.013530 0.019609 -0.000007 0.000000 -0.002277 0.000005
# 3 -0.006205 -0.000007 0.015639 0.000001 -0.002276 -0.000001
# 4 -0.000005 0.000000 0.000001 0.050553 0.000005 0.010210
# 5 -0.017169 -0.002277 -0.002276 0.000005 0.043555 -0.000015
# 6 0.000007 0.000005 -0.000001 0.010210 -0.000015 0.086056
#
#
# Mechanical properties :
#
#
# Convention : Reuss Voigt Hill
#
# Bulk Modulus (GPa) = 29.52877 44.20441 36.86659
# Shear Modulus (GPa) = 16.43186 22.02480 19.22833
#
# Velocity S-wave (km/s) = 2.97669 3.44624 3.22004
# Velocity P-wave (km/s) = 5.26661 6.29858 5.80557
#
# Compressibility (1/GPa) = 0.03386528
#
# Stress axis : x y z
#
# Youngs Moduli (GPa) = 26.24557 50.99676 63.94088
#
# Poissons Ratio (x) = 0.68998 0.39678
# Poissons Ratio (y) = 0.35510 0.00046
# Poissons Ratio (z) = 0.16286 0.00037
#
# Static dielectric constant tensor:
#      x y z
#    x 1.649560 0.000000 0.020530 
#    y 0.000000 1.704460 0.000000 
#    z 0.020530 0.000000 1.726250 
# 
# From -- ./inp_files/255039.got.cif
#   From: 2010.05.17/outbox.cif.g08.bks.cpg/sg15_128_cif.got.tgz:255039.got - 2010.06.03 18:47:42.
