data_PCOD9255780
_publ_section_title
;
Structure prediction by ZEFSAII (Michael W. Deem and Ramdas Pophale) SiO2 
 PCOD9255780
Probable space group: C 2/C
;
_chemical_formula_sum "Si O2"
_cell_formula_units_Z 44
_cell_length_a 23.643108
_cell_length_b 15.564754
_cell_length_c 12.774379
_cell_angle_alpha 90.000000
_cell_angle_beta 146.729629
_cell_angle_gamma 90.000000
_cell_volume 2578.902538
_symmetry_space_group_name_H-M "C 2/C"
_symmetry_group_IT_number 15
_symmetry_cell_setting 'monoclinic'
loop_
_space_group_symop_operation_xyz
x,y,z
-x,y,1/2-z
-x,-y,-z
x,-y,1/2+z
1/2+x,1/2+y,z
1/2-x,1/2+y,1/2-z
1/2-x,1/2-y,-z
1/2+x,1/2-y,1/2+z
loop_
_atom_site_type_symbol
_atom_site_label
_atom_site_fract_x
_atom_site_fract_y
_atom_site_fract_z
Si Si1 0.220033 0.117269 0.802175
Si Si2 0.000000 0.510030 0.750000
Si Si3 0.301861 0.949794 0.827243
Si Si4 0.340058 0.286982 0.935037
Si Si5 0.938163 0.784279 0.319461
Si Si6 0.881264 0.408588 0.735113
O O1 0.279023 0.196828 0.838325
O O2 0.108833 0.149599 0.669427
O O3 0.233152 0.031182 0.755396
O O4 0.284376 0.099269 0.007734
O O5 0.030236 0.449432 0.699522
O O6 0.897131 0.559513 0.555953
O O7 0.233398 0.864962 0.710231
O O8 0.352196 0.962913 0.791068
O O9 0.379924 0.295983 0.117169
O O10 0.441402 0.288704 0.019801
O O11 0.911427 0.687746 0.314460
#
# Coordination Sequence:
#
# PCOD9255780 Si02
#       6
#     8   4   8   8   8   8
#     4  10  19  33  54  85 106 131 179 217 257 320
#     4  10  22  30  52  82 104 138 182 210 260 318
#     4  11  20  33  54  76 111 138 172 218 264 304
#     4  10  19  33  55  83 104 136 170 219 272 304
#     4  10  17  32  58  80 106 128 175 226 264 305
#     4  10  17  35  55  81 103 131 173 235 265 287
#
# _framework density 17.061520000000002
#
# number of rings (size 3 to 8) (size 9 to 14) (size 15 to 20)
#    0.000    1.818    3.636    4.909    0.000    0.727 
#    0.000    0.000    0.000   12.000    0.000    0.000 
#    0.000    0.000    0.000    0.000    0.000    0.000 
#
# Total GULP energy -122650.255482 kJ/mol
# GULP energy per Si atom -5575.011613 kJ/mol
# Density = 1.702269 g / cm^3
# Si number density = 17.061520 Si / 1000 Ang^3
#
#
#
# Elastic Constant Matrix: (Units=GPa)
#
#
# Indices 1 2 3 4 5 6 
#
# 1 113.8379 40.9443 19.6551 0.0000 9.5170 0.0000
# 2 40.9443 75.8455 32.8863 0.0000 -5.7233 0.0000
# 3 19.6551 32.8863 37.2990 0.0000 6.9074 0.0000
# 4 0.0000 0.0000 0.0000 16.6055 0.0000 -4.8240
# 5 9.5170 -5.7233 6.9074 0.0000 16.9727 0.0000
# 6 0.0000 0.0000 0.0000 -4.8240 0.0000 31.0685
#
#
#
# Elastic Compliance Matrix: (Units=1/GPa)
#
#
# Indices 1 2 3 4 5 6 
#
# 1 0.012412 -0.009169 0.003682 0.000000 -0.011550 0.000000
# 2 -0.009169 0.033118 -0.029622 0.000000 0.028364 0.000000
# 3 0.003682 -0.029622 0.057557 0.000000 -0.035478 0.000000
# 4 0.000000 0.000000 0.000000 0.063066 0.000000 0.009792
# 5 -0.011550 0.028364 -0.035478 0.000000 0.089397 0.000000
# 6 0.000000 0.000000 0.000000 0.009792 0.000000 0.033707
#
#
# Mechanical properties :
#
#
# Convention : Reuss Voigt Hill
#
# Bulk Modulus (GPa) = 30.42127 45.99487 38.20807
# Shear Modulus (GPa) = 13.49780 21.82913 17.66346
#
# Velocity S-wave (km/s) = 2.81575 3.58080 3.22107
# Velocity P-wave (km/s) = 5.33294 6.64176 6.02301
#
# Compressibility (1/GPa) = 0.03287174
#
# Stress axis : x y z
#
# Youngs Moduli (GPa) = 80.56772 30.19469 17.37402
#
# Poissons Ratio (x) = 0.27684 -0.06398
# Poissons Ratio (y) = 0.73869 0.51465
# Poissons Ratio (z) = -0.29667 0.89441
#
# Static dielectric constant tensor:
#      x y z
#    x 1.613150 0.000000 0.024980 
#    y 0.000000 1.568170 0.000000 
#    z 0.024980 0.000000 1.577980 
# 
# From -- ./inp_files/96104.got.cif
#   From: 2010.05.17/outbox.cif.g08.bks.cpg/sg15_49_cif.got.tgz:96104.got - 2010.06.03 18:47:42.
