data_PCOD9255985
_publ_section_title
;
Structure prediction by ZEFSAII (Michael W. Deem and Ramdas Pophale) SiO2 
 PCOD9255985
Probable space group: C 2/C
;
_chemical_formula_sum "Si O2"
_cell_formula_units_Z 64
_cell_length_a 16.894836
_cell_length_b 9.935818
_cell_length_c 21.328986
_cell_angle_alpha 90.000000
_cell_angle_beta 116.249068
_cell_angle_gamma 90.000000
_cell_volume 3211.161334
_symmetry_space_group_name_H-M "C 2/C"
_symmetry_group_IT_number 15
_symmetry_cell_setting 'monoclinic'
loop_
_space_group_symop_operation_xyz
x,y,z
-x,y,1/2-z
-x,-y,-z
x,-y,1/2+z
1/2+x,1/2+y,z
1/2-x,1/2+y,1/2-z
1/2-x,1/2-y,-z
1/2+x,1/2-y,1/2+z
loop_
_atom_site_type_symbol
_atom_site_label
_atom_site_fract_x
_atom_site_fract_y
_atom_site_fract_z
Si Si1 0.022542 0.823924 0.327768
Si Si2 0.078751 0.883110 0.825395
Si Si3 0.666014 0.565810 0.686054
Si Si4 0.074910 0.137142 0.463184
Si Si5 0.752225 0.851113 0.689110
Si Si6 0.417593 0.149663 0.033703
Si Si7 0.887645 0.390914 0.958618
Si Si8 0.120718 0.897056 0.548909
O O1 0.933851 0.890328 0.328224
O O2 0.000000 0.767028 0.250000
O O3 0.063430 0.718310 0.392030
O O4 0.083156 0.954169 0.334355
O O5 0.059757 0.825299 0.886735
O O6 0.168032 0.824541 0.830187
O O7 0.000000 0.856083 0.750000
O O8 0.717513 0.707824 0.702319
O O9 0.708953 0.458139 0.748160
O O10 0.664506 0.483734 0.619661
O O11 0.132531 0.246302 0.519164
O O12 0.979287 0.123554 0.461386
O O13 0.118901 0.993070 0.487963
O O14 0.674281 0.918707 0.621824
O O15 0.513917 0.128734 0.034945
O O16 0.357767 0.249987 0.970153
O O17 0.379528 0.000973 0.010480
#
# Coordination Sequence:
#
# PCOD9255985 Si02
#       8
#     8   8   8   8   8   8   8   8
#     4  11  19  40  68  90 119 172 222 254 313 399
#     4  11  21  39  65  93 119 171 224 258 310 389
#     4  12  23  41  62  97 129 166 218 272 322 384
#     4  10  17  35  63  86 120 157 211 256 307 382
#     4  12  25  41  64  94 132 166 214 272 327 378
#     4  10  20  38  64  93 124 171 215 257 327 392
#     4  10  22  38  58  95 132 160 203 280 327 364
#     4  10  17  33  64  89 112 166 218 250 297 398
#
# _framework density 19.930485000000001
#
# number of rings (size 3 to 8) (size 9 to 14) (size 15 to 20)
#    0.000    1.250    7.500    0.750    1.750    0.500 
#    2.250    2.500    0.000    0.000    0.000    0.000 
#    0.000    0.000    0.000    0.000    0.000    0.000 
#
# Total GULP energy -178251.150893 kJ/mol
# GULP energy per Si atom -5570.348465 kJ/mol
# Density = 1.988512 g / cm^3
# Si number density = 19.930485 Si / 1000 Ang^3
#
#
#
# Elastic Constant Matrix: (Units=GPa)
#
#
# Indices 1 2 3 4 5 6 
#
# 1 26.1591 15.6649 -3.7476 0.0000 -5.0399 0.0000
# 2 15.6649 79.4503 28.4166 0.0000 3.7445 0.0000
# 3 -3.7476 28.4166 112.3694 0.0000 -13.2028 0.0000
# 4 0.0000 0.0000 0.0000 71.0170 0.0000 -7.9156
# 5 -5.0399 3.7445 -13.2028 0.0000 22.3448 0.0000
# 6 0.0000 0.0000 0.0000 -7.9156 0.0000 14.5426
#
#
#
# Elastic Compliance Matrix: (Units=1/GPa)
#
#
# Indices 1 2 3 4 5 6 
#
# 1 0.050759 -0.013429 0.007198 0.000000 0.017952 0.000000
# 2 -0.013429 0.017869 -0.006098 0.000000 -0.009626 0.000000
# 3 0.007198 -0.006098 0.011812 0.000000 0.009625 0.000000
# 4 0.000000 0.000000 0.000000 0.014991 0.000000 0.008159
# 5 0.017952 -0.009626 0.009625 0.000000 0.056102 0.000000
# 6 0.000000 0.000000 0.000000 0.008159 0.000000 0.073205
#
#
# Mechanical properties :
#
#
# Convention : Reuss Voigt Hill
#
# Bulk Modulus (GPa) = 17.92642 33.18298 25.55470
# Shear Modulus (GPa) = 18.65751 33.42386 26.04069
#
# Velocity S-wave (km/s) = 3.06294 4.09959 3.61858
# Velocity P-wave (km/s) = 4.63927 6.25255 5.50532
#
# Compressibility (1/GPa) = 0.05578359
#
# Stress axis : x y z
#
# Youngs Moduli (GPa) = 19.70093 55.96366 84.65869
#
# Poissons Ratio (x) = 0.75151 -0.60938
# Poissons Ratio (y) = 0.26456 0.51622
# Poissons Ratio (z) = -0.14181 0.34125
#
# Static dielectric constant tensor:
#      x y z
#    x 1.724110 0.000000 0.003900 
#    y 0.000000 1.703310 0.000000 
#    z 0.003900 0.000000 1.750710 
# 
# From -- ./inp_files/279404.got.cif
#   From: 2010.05.17/outbox.cif.g08.bks.cpg/sg15_140_cif.got.tgz:279404.got - 2010.06.03 18:47:42.
