data_PCOD9255779
_publ_section_title
;
Structure prediction by ZEFSAII (Michael W. Deem and Ramdas Pophale) SiO2 
 PCOD9255779
Probable space group: C 2/C
;
_chemical_formula_sum "Si O2"
_cell_formula_units_Z 60
_cell_length_a 18.453191
_cell_length_b 27.335002
_cell_length_c 12.471111
_cell_angle_alpha 90.000000
_cell_angle_beta 27.418532
_cell_angle_gamma 90.000000
_cell_volume 2896.763436
_symmetry_space_group_name_H-M "C 2/C"
_symmetry_group_IT_number 15
_symmetry_cell_setting 'monoclinic'
loop_
_space_group_symop_operation_xyz
x,y,z
-x,y,1/2-z
-x,-y,-z
x,-y,1/2+z
1/2+x,1/2+y,z
1/2-x,1/2+y,1/2-z
1/2-x,1/2-y,-z
1/2+x,1/2-y,1/2+z
loop_
_atom_site_type_symbol
_atom_site_label
_atom_site_fract_x
_atom_site_fract_y
_atom_site_fract_z
Si Si1 0.518613 0.726535 0.502378
Si Si2 0.247600 0.085632 0.715956
Si Si3 0.017311 0.882000 0.098166
Si Si4 0.470238 0.831060 0.912578
Si Si5 0.109066 0.536589 0.787356
Si Si6 0.867598 0.271372 0.507611
Si Si7 0.500000 0.974386 0.750000
Si Si8 0.371219 0.876225 0.604317
O O1 0.502104 0.676037 0.588200
O O2 0.523017 0.773799 0.572318
O O3 0.386816 0.738137 0.588001
O O4 0.684201 0.728330 0.220162
O O5 0.104661 0.090151 0.820182
O O6 0.311395 0.140504 0.655318
O O7 0.244277 0.055342 0.832820
O O8 0.392055 0.059333 0.465669
O O9 0.000000 0.889273 0.250000
O O10 0.194498 0.895580 0.829723
O O11 0.500000 0.838734 0.750000
O O12 0.604677 0.857595 0.805541
O O13 0.000907 0.583775 0.908686
O O14 0.000000 0.500000 0.000000
O O15 0.120424 0.507791 0.660981
O O16 0.899827 0.327557 0.498323
O O17 0.000000 0.256239 0.250000
#
# Coordination Sequence:
#
# PCOD9255779 Si02
#       8
#     8   8   8   8   8   8   4   8
#     4  10  21  35  51  87 112 153 199 232 271 332
#     4  10  20  36  59  87 114 153 186 237 285 337
#     4  11  22  34  57  83 126 155 181 227 298 342
#     4  10  17  32  58  79 118 149 195 230 273 337
#     4   9  20  37  62  83 108 137 192 240 278 342
#     4  10  20  35  55  75 111 151 196 237 280 322
#     4  10  20  38  66  86 104 144 200 234 290 352
#     4   9  21  35  52  85 110 146 190 234 283 341
#
# _framework density 20.712772999999999
#
# number of rings (size 3 to 8) (size 9 to 14) (size 15 to 20)
#    0.000    2.133    0.667    2.400    4.667    0.000 
#    0.000    8.000    0.000    0.000    0.000    0.000 
#    0.000    0.000    0.000    0.000    0.000    0.000 
#
# Total GULP energy -167226.616921 kJ/mol
# GULP energy per Si atom -5574.220564 kJ/mol
# Density = 2.066563 g / cm^3
# Si number density = 20.712773 Si / 1000 Ang^3
#
#
#
# Elastic Constant Matrix: (Units=GPa)
#
#
# Indices 1 2 3 4 5 6 
#
# 1 118.2853 23.7871 24.0297 -0.0028 -19.9521 -0.0061
# 2 23.7871 69.7913 3.1798 -0.0037 -2.9426 -0.0020
# 3 24.0297 3.1798 20.9347 -0.0031 -9.8751 -0.0149
# 4 -0.0028 -0.0037 -0.0031 -0.0987 0.0021 -10.3510
# 5 -19.9521 -2.9426 -9.8751 0.0021 32.0459 0.0084
# 6 -0.0061 -0.0020 -0.0149 -10.3510 0.0084 -9.6122
#
#
#
# Elastic Compliance Matrix: (Units=1/GPa)
#
#
# Indices 1 2 3 4 5 6 
#
# 1 0.012137 -0.003451 -0.011691 0.000011 0.003637 0.000002
# 2 -0.003451 0.015425 0.001489 0.000001 -0.000273 -0.000005
# 3 -0.011691 0.001489 0.067387 -0.000066 0.013623 -0.000014
# 4 0.000011 0.000001 -0.000066 0.090516 0.000007 -0.097472
# 5 0.003637 -0.000273 0.013623 0.000007 0.037643 0.000002
# 6 0.000002 -0.000005 -0.000014 -0.097472 0.000002 0.000929
#
#
# Mechanical properties :
#
#
# Convention : Reuss Voigt Hill
#
# Bulk Modulus (GPa) = 14.78344 34.55608 24.66976
# Shear Modulus (GPa) = 18.25550 15.00131 16.62840
#
# Velocity S-wave (km/s) = 2.97200 2.69412 2.83646
# Velocity P-wave (km/s) = 4.35085 5.13784 4.76063
#
# Compressibility (1/GPa) = 0.06764326
#
# Stress axis : x y z
#
# Youngs Moduli (GPa) = 82.39566 64.82928 14.83957
#
# Poissons Ratio (x) = 0.22369 0.17349
# Poissons Ratio (y) = 0.28431 -0.02209
# Poissons Ratio (z) = 0.96331 -0.09652
#
# Static dielectric constant tensor:
#      x y z
#    x 1.742870 0.000000 -0.025440 
#    y 0.000000 1.775410 0.000010 
#    z -0.025440 0.000010 1.727500 
# 
# From -- ./inp_files/108575.got.cif
#   From: 2010.05.17/outbox.cif.g08.bks.cpg/sg15_55_cif.got.tgz:108575.got - 2010.06.03 18:47:42.
