data_PCOD9255645
_publ_section_title
;
Structure prediction by ZEFSAII (Michael W. Deem and Ramdas Pophale) SiO2 
 PCOD9255645
Probable space group: C 2/C
;
_chemical_formula_sum "Si O2"
_cell_formula_units_Z 48
_cell_length_a 11.461527
_cell_length_b 11.754287
_cell_length_c 20.212935
_cell_angle_alpha 90.000000
_cell_angle_beta 51.198580
_cell_angle_gamma 90.000000
_cell_volume 2122.195213
_symmetry_space_group_name_H-M "C 2/C"
_symmetry_group_IT_number 15
_symmetry_cell_setting 'monoclinic'
loop_
_space_group_symop_operation_xyz
x,y,z
-x,y,1/2-z
-x,-y,-z
x,-y,1/2+z
1/2+x,1/2+y,z
1/2-x,1/2+y,1/2-z
1/2-x,1/2-y,-z
1/2+x,1/2-y,1/2+z
loop_
_atom_site_type_symbol
_atom_site_label
_atom_site_fract_x
_atom_site_fract_y
_atom_site_fract_z
Si Si1 0.485498 0.443461 0.576897
Si Si2 0.826704 0.844568 0.170572
Si Si3 0.800064 0.504710 0.534699
Si Si4 0.641773 0.757731 0.976135
Si Si5 0.619729 0.188538 0.086994
Si Si6 0.176760 0.178156 0.684088
O O1 0.500000 0.500000 0.500000
O O2 0.358442 0.519833 0.656441
O O3 0.635554 0.470763 0.565064
O O4 0.495324 0.311237 0.552699
O O5 0.777692 0.802775 0.115365
O O6 0.754713 0.817164 0.266937
O O7 0.977598 0.767668 0.123092
O O8 0.880562 0.390273 0.529677
O O9 0.883972 0.564635 0.443364
O O10 0.766064 0.590781 0.606327
O O11 0.750000 0.750000 0.000000
O O12 0.659371 0.203275 0.149942
O O13 0.750000 0.250000 0.000000
O O14 0.000000 0.137685 0.750000
#
# Coordination Sequence:
#
# PCOD9255645 Si02
#       6
#     8   8   8   8   8   8
#     4   9  16  29  50  72  95 132 174 203 242 310
#     4  10  17  32  53  79  98 134 180 213 260 302
#     4  10  17  32  50  77 105 131 171 220 263 299
#     4   9  20  32  48  73 105 135 168 210 255 313
#     4   9  16  28  52  79  98 122 173 220 251 299
#     4   9  16  29  53  76  97 132 175 228 254 299
#
# _framework density 22.618089000000001
#
# number of rings (size 3 to 8) (size 9 to 14) (size 15 to 20)
#    0.000    2.667    5.000    0.000    0.000    0.667 
#    0.000    5.000    0.000    0.000   39.000    0.000 
#    0.000    0.000    0.000    0.000    0.000    0.000 
#
# Total GULP energy -133688.028896 kJ/mol
# GULP energy per Si atom -5570.334537 kJ/mol
# Density = 2.256661 g / cm^3
# Si number density = 22.618089 Si / 1000 Ang^3
#
#
#
# Elastic Constant Matrix: (Units=GPa)
#
#
# Indices 1 2 3 4 5 6 
#
# 1 69.1374 3.0984 27.7137 0.0000 29.2759 0.0000
# 2 3.0984 150.6640 49.0965 0.0000 12.4606 0.0000
# 3 27.7137 49.0965 121.0379 0.0000 42.5756 0.0000
# 4 0.0000 0.0000 0.0000 27.7893 0.0000 10.1019
# 5 29.2759 12.4606 42.5756 0.0000 44.0111 0.0000
# 6 0.0000 0.0000 0.0000 10.1019 0.0000 21.6016
#
#
#
# Elastic Compliance Matrix: (Units=1/GPa)
#
#
# Indices 1 2 3 4 5 6 
#
# 1 0.020213 0.000763 -0.000200 0.000000 -0.013468 0.000000
# 2 0.000763 0.007724 -0.003577 0.000000 0.000766 0.000000
# 3 -0.000200 -0.003577 0.014181 0.000000 -0.012573 0.000000
# 4 0.000000 0.000000 0.000000 0.043355 0.000000 -0.020275
# 5 -0.013468 0.000766 -0.012573 0.000000 0.043626 0.000000
# 6 0.000000 0.000000 0.000000 -0.020275 0.000000 0.055774
#
#
# Mechanical properties :
#
#
# Convention : Reuss Voigt Hill
#
# Bulk Modulus (GPa) = 27.70879 55.62851 41.66865
# Shear Modulus (GPa) = 24.63879 36.07579 30.35729
#
# Velocity S-wave (km/s) = 3.30410 3.99807 3.66754
# Velocity P-wave (km/s) = 5.18009 6.77945 6.03300
#
# Compressibility (1/GPa) = 0.03608963
#
# Stress axis : x y z
#
# Youngs Moduli (GPa) = 49.47330 129.46718 70.51552
#
# Poissons Ratio (x) = -0.09885 0.01414
# Poissons Ratio (y) = -0.03777 0.25225
# Poissons Ratio (z) = 0.00992 0.46314
#
# Static dielectric constant tensor:
#      x y z
#    x 2.015660 0.000000 0.036820 
#    y 0.000000 2.893510 0.000000 
#    z 0.036820 0.000000 1.878860 
# 
# From -- ./inp_files/243263.got.cif
#   From: 2010.05.17/outbox.cif.g08.bks.cpg/sg15_122_cif.got.tgz:243263.got - 2010.06.03 18:47:42.
