data_PCOD9255087
_publ_section_title
;
Structure prediction by ZEFSAII (Michael W. Deem and Ramdas Pophale) SiO2 
 PCOD9255087
Probable space group: C 2/C
;
_chemical_formula_sum "Si O2"
_cell_formula_units_Z 36
_cell_length_a 26.512814
_cell_length_b 7.292811
_cell_length_c 7.751038
_cell_angle_alpha 90.000000
_cell_angle_beta 91.748788
_cell_angle_gamma 90.000000
_cell_volume 1497.987965
_symmetry_space_group_name_H-M "C 2/C"
_symmetry_group_IT_number 15
_symmetry_cell_setting 'monoclinic'
loop_
_space_group_symop_operation_xyz
x,y,z
-x,y,1/2-z
-x,-y,-z
x,-y,1/2+z
1/2+x,1/2+y,z
1/2-x,1/2+y,1/2-z
1/2-x,1/2-y,-z
1/2+x,1/2-y,1/2+z
loop_
_atom_site_type_symbol
_atom_site_label
_atom_site_fract_x
_atom_site_fract_y
_atom_site_fract_z
Si Si1 0.855802 0.725320 0.780263
Si Si2 0.252313 0.383543 0.160480
Si Si3 0.961241 0.248686 0.386367
Si Si4 0.000000 0.885629 0.250000
Si Si5 0.824540 0.103751 0.958882
O O1 0.804997 0.604627 0.781705
O O2 0.907813 0.652306 0.861420
O O3 0.862474 0.782952 0.580342
O O4 0.845982 0.910111 0.893403
O O5 0.295768 0.314592 0.293755
O O6 0.250000 0.250000 0.000000
O O7 0.278435 0.563924 0.086979
O O8 0.980684 0.228648 0.583889
O O9 0.000000 0.329932 0.250000
O O10 0.958661 0.033639 0.318495
#
# Coordination Sequence:
#
# PCOD9255087 Si02
#       5
#     8   8   8   4   8
#     4  10  17  28  46  67  91 128 151 178 231 276
#     4   9  18  31  44  67  91 121 156 187 222 279
#     4   9  16  27  40  63  92 119 151 185 223 280
#     4   8  16  26  40  58  98 118 148 190 232 266
#     4   9  18  29  45  64  98 119 149 191 224 262
#
# _framework density 24.032236000000001
#
# number of rings (size 3 to 8) (size 9 to 14) (size 15 to 20)
#    0.667    2.222    0.000    2.000    0.000    0.000 
#    0.000    0.000    0.000    0.000    0.000    1.556 
#    0.000    0.000    0.000    0.000    0.000    0.000 
#
# Total GULP energy -100296.654346 kJ/mol
# GULP energy per Si atom -5572.036353 kJ/mol
# Density = 2.397754 g / cm^3
# Si number density = 24.032236 Si / 1000 Ang^3
#
#
#
# Elastic Constant Matrix: (Units=GPa)
#
#
# Indices 1 2 3 4 5 6 
#
# 1 100.7884 2.9975 26.8796 0.0000 14.3821 0.0000
# 2 2.9975 34.9793 6.1368 0.0000 -0.0981 0.0000
# 3 26.8796 6.1368 164.2080 0.0000 22.1750 0.0000
# 4 0.0000 0.0000 0.0000 11.9797 0.0000 -3.8561
# 5 14.3821 -0.0981 22.1750 0.0000 27.6171 0.0000
# 6 0.0000 0.0000 0.0000 -3.8561 0.0000 15.9136
#
#
#
# Elastic Compliance Matrix: (Units=1/GPa)
#
#
# Indices 1 2 3 4 5 6 
#
# 1 0.010926 -0.000755 -0.001112 0.000000 -0.004799 0.000000
# 2 -0.000755 0.028858 -0.001146 0.000000 0.001416 0.000000
# 3 -0.001112 -0.001146 0.006996 0.000000 -0.005042 0.000000
# 4 0.000000 0.000000 0.000000 0.090536 0.000000 0.021938
# 5 -0.004799 0.001416 -0.005042 0.000000 0.042762 0.000000
# 6 0.000000 0.000000 0.000000 0.021938 0.000000 0.068155
#
#
# Mechanical properties :
#
#
# Convention : Reuss Voigt Hill
#
# Bulk Modulus (GPa) = 24.53772 41.33371 32.93571
# Shear Modulus (GPa) = 18.66763 28.69953 23.68358
#
# Velocity S-wave (km/s) = 2.79009 3.45948 3.14266
# Velocity P-wave (km/s) = 4.54004 5.76142 5.18681
#
# Compressibility (1/GPa) = 0.04075359
#
# Stress axis : x y z
#
# Youngs Moduli (GPa) = 91.52753 34.65236 142.94706
#
# Poissons Ratio (x) = 0.02615 0.15897
# Poissons Ratio (y) = 0.06907 0.16384
# Poissons Ratio (z) = 0.10179 0.03972
#
# Static dielectric constant tensor:
#      x y z
#    x 2.007450 0.000000 0.043490 
#    y 0.000000 2.022350 0.000000 
#    z 0.043490 0.000000 2.065860 
# 
# From -- ./inp_files/53907.got.cif
#   From: 2010.05.17/outbox.cif.g08.bks.cpg/sg15_27_cif.got.tgz:53907.got - 2010.06.03 18:47:42.
