data_PCOD9255385
_publ_section_title
;
Structure prediction by ZEFSAII (Michael W. Deem and Ramdas Pophale) SiO2 
 PCOD9255385
Probable space group: C 2/C
;
_chemical_formula_sum "Si O2"
_cell_formula_units_Z 48
_cell_length_a 10.081074
_cell_length_b 14.083031
_cell_length_c 21.666930
_cell_angle_alpha 90.000000
_cell_angle_beta 141.825406
_cell_angle_gamma 90.000000
_cell_volume 1901.213394
_symmetry_space_group_name_H-M "C 2/C"
_symmetry_group_IT_number 15
_symmetry_cell_setting 'monoclinic'
loop_
_space_group_symop_operation_xyz
x,y,z
-x,y,1/2-z
-x,-y,-z
x,-y,1/2+z
1/2+x,1/2+y,z
1/2-x,1/2+y,1/2-z
1/2-x,1/2-y,-z
1/2+x,1/2-y,1/2+z
loop_
_atom_site_type_symbol
_atom_site_label
_atom_site_fract_x
_atom_site_fract_y
_atom_site_fract_z
Si Si1 0.868422 0.066974 0.861771
Si Si2 0.068240 0.604300 0.008709
Si Si3 0.501171 0.222531 0.393683
Si Si4 0.540948 0.588182 0.193414
Si Si5 0.749876 0.584034 0.092323
Si Si6 0.509774 0.733116 0.094370
O O1 0.874445 0.177380 0.846168
O O2 0.839816 0.001110 0.791440
O O3 0.102870 0.058037 0.980175
O O4 0.720222 0.014185 0.858994
O O5 0.310134 0.588189 0.076017
O O6 0.077649 0.665654 0.074948
O O7 0.923776 0.663880 0.908158
O O8 0.000000 0.500000 0.000000
O O9 0.750000 0.250000 0.500000
O O10 0.545423 0.145997 0.354549
O O11 0.500000 0.579151 0.250000
O O12 0.604997 0.693323 0.193459
O O13 0.601366 0.654897 0.079696
O O14 0.250000 0.750000 0.000000
#
# Coordination Sequence:
#
# PCOD9255385 Si02
#       6
#     8   8   8   8   8   8
#     4   9  17  31  55  75 110 151 185 228 297 347
#     4  11  20  34  58  88 113 145 200 248 284 347
#     4  10  17  30  53  86 115 132 184 248 288 337
#     4  10  22  38  55  81 118 155 190 240 304 361
#     4   9  16  29  53  84 110 138 186 244 285 342
#     4   9  18  33  55  81 110 146 193 236 289 344
#
# _framework density 25.247035
#
# number of rings (size 3 to 8) (size 9 to 14) (size 15 to 20)
#    0.000    2.333    3.333    2.000    0.000    1.333 
#    0.000    1.667    0.000    0.000    0.000    0.000 
#    0.000    0.000    0.000    0.000    0.000    0.000 
#
# Total GULP energy -133720.995126 kJ/mol
# GULP energy per Si atom -5571.708130 kJ/mol
# Density = 2.518957 g / cm^3
# Si number density = 25.247035 Si / 1000 Ang^3
#
#
#
# Elastic Constant Matrix: (Units=GPa)
#
#
# Indices 1 2 3 4 5 6 
#
# 1 77.9574 54.7212 27.2481 0.0000 -13.6764 0.0000
# 2 54.7212 247.0405 69.8612 0.0000 -22.9608 0.0000
# 3 27.2481 69.8612 68.9011 0.0000 -29.4381 0.0000
# 4 0.0000 0.0000 0.0000 30.3667 0.0000 -13.6834
# 5 -13.6764 -22.9608 -29.4381 0.0000 53.1865 0.0000
# 6 0.0000 0.0000 0.0000 -13.6834 0.0000 46.5987
#
#
#
# Elastic Compliance Matrix: (Units=1/GPa)
#
#
# Indices 1 2 3 4 5 6 
#
# 1 0.015929 -0.002497 -0.003246 0.000000 0.001222 0.000000
# 2 -0.002497 0.006104 -0.005698 0.000000 -0.001160 0.000000
# 3 -0.003246 -0.005698 0.026413 0.000000 0.011325 0.000000
# 4 0.000000 0.000000 0.000000 0.037953 0.000000 0.011144
# 5 0.001222 -0.001160 0.011325 0.000000 0.024883 0.000000
# 6 0.000000 0.000000 0.000000 0.011144 0.000000 0.024732
#
#
# Mechanical properties :
#
#
# Convention : Reuss Voigt Hill
#
# Bulk Modulus (GPa) = 39.11543 77.50667 58.31105
# Shear Modulus (GPa) = 29.86549 42.16829 36.01689
#
# Velocity S-wave (km/s) = 3.44311 4.09128 3.78111
# Velocity P-wave (km/s) = 5.59762 7.28588 6.49682
#
# Compressibility (1/GPa) = 0.02556536
#
# Stress axis : x y z
#
# Youngs Moduli (GPa) = 62.77854 163.81413 37.86019
#
# Poissons Ratio (x) = 0.40904 0.12288
# Poissons Ratio (y) = 0.15676 0.21572
# Poissons Ratio (z) = 0.20376 0.93339
#
# Static dielectric constant tensor:
#      x y z
#    x 1.389160 0.000000 -0.256330 
#    y 0.000000 1.476600 0.000000 
#    z -0.256330 0.000000 2.017480 
# 
# From -- ./inp_files/237253.got.cif
#   From: 2010.05.17/outbox.cif.g08.bks.cpg/sg15_119_cif.got.tgz:237253.got - 2010.06.03 18:47:42.
