data_PCOD9256701
_publ_section_title
;
Structure prediction by ZEFSAII (Michael W. Deem and Ramdas Pophale) SiO2 
 PCOD9256701
Probable space group: C 2/C
;
_chemical_formula_sum "Si O2"
_cell_formula_units_Z 56
_cell_length_a 18.439060
_cell_length_b 24.100394
_cell_length_c 5.601574
_cell_angle_alpha 90.000000
_cell_angle_beta 104.430767
_cell_angle_gamma 90.000000
_cell_volume 2410.737743
_symmetry_space_group_name_H-M "C 2/C"
_symmetry_group_IT_number 15
_symmetry_cell_setting 'monoclinic'
loop_
_space_group_symop_operation_xyz
x,y,z
-x,y,1/2-z
-x,-y,-z
x,-y,1/2+z
1/2+x,1/2+y,z
1/2-x,1/2+y,1/2-z
1/2-x,1/2-y,-z
1/2+x,1/2-y,1/2+z
loop_
_atom_site_type_symbol
_atom_site_label
_atom_site_fract_x
_atom_site_fract_y
_atom_site_fract_z
Si Si1 0.231870 0.597371 0.897535
Si Si2 0.417761 0.167837 0.726926
Si Si3 0.617140 0.319484 0.441378
Si Si4 0.393120 0.351359 0.564192
Si Si5 0.747719 0.597549 0.085219
Si Si6 0.414848 0.480246 0.667370
Si Si7 0.638041 0.203039 0.321177
O O1 0.150879 0.625128 0.828937
O O2 0.301115 0.642823 0.962368
O O3 0.239507 0.567348 0.652451
O O4 0.239823 0.567526 0.155741
O O5 0.500000 0.144073 0.750000
O O6 0.398226 0.204236 0.473504
O O7 0.415969 0.191978 0.994925
O O8 0.573478 0.330164 0.158708
O O9 0.666421 0.374990 0.506423
O O10 0.664698 0.264732 0.412742
O O11 0.586943 0.315594 0.686198
O O12 0.417182 0.414588 0.627030
O O13 0.802664 0.652362 0.132687
O O14 0.500000 0.503076 0.750000
O O15 0.380977 0.505273 0.397323
#
# Coordination Sequence:
#
# PCOD9256701 Si02
#       7
#     8   8   8   8   8   8   8
#     4   8  16  28  45  66  88 116 151 193 230 260
#     4  10  19  31  43  59  89 128 167 199 226 259
#     4  10  18  29  45  67  93 121 151 192 236 266
#     4  10  19  33  51  73  95 114 145 189 231 273
#     4   8  15  26  42  62  86 117 156 193 228 266
#     4  10  21  38  58  76  95 120 145 171 217 284
#     4  10  18  29  43  61  86 124 166 199 229 264
#
# _framework density 23.229403000000001
#
# number of rings (size 3 to 8) (size 9 to 14) (size 15 to 20)
#    0.000    2.571    0.000    2.571    0.000    0.000 
#    0.000   12.857    0.000    0.000    0.000    0.000 
#    0.000    1.143    0.000    0.000    0.000    4.857 
#
# Total GULP energy -155956.111744 kJ/mol
# GULP energy per Si atom -5569.861134 kJ/mol
# Density = 2.317653 g / cm^3
# Si number density = 23.229403 Si / 1000 Ang^3
#
#
#
# Elastic Constant Matrix: (Units=GPa)
#
#
# Indices 1 2 3 4 5 6 
#
# 1 88.2951 4.3327 37.7652 0.0000 -0.1346 0.0000
# 2 4.3327 64.8504 29.8636 0.0000 -2.0185 0.0000
# 3 37.7652 29.8636 256.8339 0.0000 -56.9461 0.0000
# 4 0.0000 0.0000 0.0000 -20.3678 0.0000 -8.2440
# 5 -0.1346 -2.0185 -56.9461 0.0000 40.1218 0.0000
# 6 0.0000 0.0000 0.0000 -8.2440 0.0000 -3.5850
#
#
#
# Elastic Compliance Matrix: (Units=1/GPa)
#
#
# Indices 1 2 3 4 5 6 
#
# 1 0.012463 0.000296 -0.002706 0.000000 -0.003784 0.000000
# 2 0.000296 0.016507 -0.002595 0.000000 -0.002852 0.000000
# 3 -0.002706 -0.002595 0.006657 0.000000 0.009309 0.000000
# 4 0.000000 0.000000 0.000000 -0.709135 0.000000 1.630712
# 5 -0.003784 -0.002852 0.009309 0.000000 0.037981 0.000000
# 6 0.000000 0.000000 0.000000 1.630712 0.000000 -4.028889
#
#
# Mechanical properties :
#
#
# Convention : Reuss Voigt Hill
#
# Bulk Modulus (GPa) = 39.03825 61.54470 50.29148
# Shear Modulus (GPa) = -1.07623 25.76834 12.34606
#
# Velocity S-wave (km/s) = -0.68140 3.33423 2.30789
# Velocity P-wave (km/s) = 4.02777 6.43231 5.36645
#
# Compressibility (1/GPa) = 0.02561590
#
# Stress axis : x y z
#
# Youngs Moduli (GPa) = 80.23929 60.58163 150.21178
#
# Poissons Ratio (x) = -0.01791 0.40645
# Poissons Ratio (y) = -0.02372 0.38982
# Poissons Ratio (z) = 0.21712 0.15722
#
# Static dielectric constant tensor:
#      x y z
#    x 1.902440 0.000000 -0.045490 
#    y 0.000000 1.828330 0.000000 
#    z -0.045490 0.000000 1.998850 
# 
# From -- ./inp_files/13940.got.cif
#   From: 2010.05.17/outbox.cif.g08.bks.cpg/sg15_7_cif.got.tgz:13940.got - 2010.06.03 18:47:42.
