data_PCOD9256801
_publ_section_title
;
Structure prediction by ZEFSAII (Michael W. Deem and Ramdas Pophale) SiO2 
 PCOD9256801
Probable space group: C 2/C
;
_chemical_formula_sum "Si O2"
_cell_formula_units_Z 64
_cell_length_a 21.376684
_cell_length_b 9.707723
_cell_length_c 13.961653
_cell_angle_alpha 90.000000
_cell_angle_beta 60.864589
_cell_angle_gamma 90.000000
_cell_volume 2530.715257
_symmetry_space_group_name_H-M "C 2/C"
_symmetry_group_IT_number 15
_symmetry_cell_setting 'monoclinic'
loop_
_space_group_symop_operation_xyz
x,y,z
-x,y,1/2-z
-x,-y,-z
x,-y,1/2+z
1/2+x,1/2+y,z
1/2-x,1/2+y,1/2-z
1/2-x,1/2-y,-z
1/2+x,1/2-y,1/2+z
loop_
_atom_site_type_symbol
_atom_site_label
_atom_site_fract_x
_atom_site_fract_y
_atom_site_fract_z
Si Si1 0.185426 0.718735 0.190014
Si Si2 0.938005 0.605045 0.972084
Si Si3 0.579986 0.579062 0.726807
Si Si4 0.005816 0.847832 0.037219
Si Si5 0.923070 0.482744 0.190093
Si Si6 0.352115 0.309017 0.779768
Si Si7 0.804690 0.226419 0.587067
Si Si8 0.663807 0.595978 0.428593
O O1 0.154708 0.845815 0.152416
O O2 0.126957 0.596345 0.223414
O O3 0.194355 0.750589 0.297412
O O4 0.263981 0.674292 0.098415
O O5 0.917002 0.513837 0.079997
O O6 0.865876 0.679032 0.993437
O O7 0.988402 0.729166 0.974805
O O8 0.990167 0.519968 0.863452
O O9 0.500000 0.596933 0.750000
O O10 0.561612 0.651928 0.842457
O O11 0.597633 0.418644 0.705562
O O12 0.086224 0.845216 0.020099
O O13 0.000000 0.000000 0.000000
O O14 0.890227 0.336364 0.239358
O O15 0.274234 0.279070 0.881006
O O16 0.342778 0.380989 0.682096
O O17 0.823702 0.065562 0.558885
#
# Coordination Sequence:
#
# PCOD9256801 Si02
#       8
#     8   8   8   8   8   8   8   8
#     4  10  20  36  53  87 121 156 190 239 311 350
#     4  10  18  29  50  90 126 144 182 249 305 345
#     4  12  25  43  60  82 123 166 201 235 293 378
#     4  12  18  35  60  93 119 148 206 247 293 344
#     4  10  18  31  53  82 122 143 187 245 293 350
#     4  11  20  34  56  88 116 153 194 242 298 347
#     4  10  18  30  54  88 125 141 187 257 296 341
#     4  11  19  30  60  91 120 144 193 258 299 339
#
# _framework density 25.289292
#
# number of rings (size 3 to 8) (size 9 to 14) (size 15 to 20)
#    0.000    1.250    8.750    0.000    0.000    0.000 
#    0.000    1.250    0.000    0.750    0.000    0.000 
#    0.000    0.000    0.000    0.000    0.000    0.000 
#
# Total GULP energy -178840.206762 kJ/mol
# GULP energy per Si atom -5588.756461 kJ/mol
# Density = 2.523173 g / cm^3
# Si number density = 25.289292 Si / 1000 Ang^3
#
#
#
# Elastic Constant Matrix: (Units=GPa)
#
#
# Indices 1 2 3 4 5 6 
#
# 1 63.0615 5.5493 43.3255 0.0000 -33.8317 0.0000
# 2 5.5493 96.0785 25.9416 0.0000 -16.5757 0.0000
# 3 43.3255 25.9416 118.8100 0.0000 -43.4302 0.0000
# 4 0.0000 0.0000 0.0000 23.6947 0.0000 -32.5709
# 5 -33.8317 -16.5757 -43.4302 0.0000 54.7464 0.0000
# 6 0.0000 0.0000 0.0000 -32.5709 0.0000 29.1831
#
#
#
# Elastic Compliance Matrix: (Units=1/GPa)
#
#
# Indices 1 2 3 4 5 6 
#
# 1 0.026075 0.002105 -0.005415 0.000000 0.012455 0.000000
# 2 0.002105 0.011391 -0.002139 0.000000 0.003053 0.000000
# 3 -0.005415 -0.002139 0.013237 0.000000 0.006507 0.000000
# 4 0.000000 0.000000 0.000000 -0.079006 0.000000 -0.088178
# 5 0.012455 0.003053 0.006507 0.000000 0.032049 0.000000
# 6 0.000000 0.000000 0.000000 -0.088178 0.000000 -0.064148
#
#
# Mechanical properties :
#
#
# Convention : Reuss Voigt Hill
#
# Bulk Modulus (GPa) = 25.12293 47.50919 36.31606
# Shear Modulus (GPa) = -137.98385 35.06707 -51.45839
#
# Velocity S-wave (km/s) = -7.39463 3.72780 -4.51576
# Velocity P-wave (km/s) = 7.93421 6.11193 3.57743
#
# Compressibility (1/GPa) = 0.03980427
#
# Stress axis : x y z
#
# Youngs Moduli (GPa) = 38.35145 87.79067 75.54533
#
# Poissons Ratio (x) = -0.18479 0.40910
# Poissons Ratio (y) = -0.08072 0.16157
# Poissons Ratio (z) = 0.20768 0.18776
#
# Static dielectric constant tensor:
#      x y z
#    x 1.869360 0.000000 0.200000 
#    y 0.000000 1.817380 0.000000 
#    z 0.200000 0.000000 2.059710 
# 
# From -- ./inp_files/281494.got.cif
#   From: 2010.05.17/outbox.cif.g08.bks.cpg/sg15_141_cif.got.tgz:281494.got - 2010.06.03 18:47:42.
