data_PCOD9256654
_publ_section_title
;
Structure prediction by ZEFSAII (Michael W. Deem and Ramdas Pophale) SiO2 
 PCOD9256654
Probable space group: C 2/C
;
_chemical_formula_sum "Si O2"
_cell_formula_units_Z 64
_cell_length_a 9.092524
_cell_length_b 21.936268
_cell_length_c 15.624396
_cell_angle_alpha 90.000000
_cell_angle_beta 119.944677
_cell_angle_gamma 90.000000
_cell_volume 2700.367706
_symmetry_space_group_name_H-M "C 2/C"
_symmetry_group_IT_number 15
_symmetry_cell_setting 'monoclinic'
loop_
_space_group_symop_operation_xyz
x,y,z
-x,y,1/2-z
-x,-y,-z
x,-y,1/2+z
1/2+x,1/2+y,z
1/2-x,1/2+y,1/2-z
1/2-x,1/2-y,-z
1/2+x,1/2-y,1/2+z
loop_
_atom_site_type_symbol
_atom_site_label
_atom_site_fract_x
_atom_site_fract_y
_atom_site_fract_z
Si Si1 0.998458 0.990084 0.647765
Si Si2 0.855086 0.883165 0.534440
Si Si3 0.567049 0.154328 0.063660
Si Si4 0.811469 0.436569 0.434230
Si Si5 0.314589 0.387544 0.266749
Si Si6 0.463788 0.935756 0.154673
Si Si7 0.783122 0.759909 0.310304
Si Si8 0.970681 0.750073 0.600405
O O1 0.812074 0.013600 0.564839
O O2 0.000000 0.976052 0.750000
O O3 0.120106 0.048574 0.675347
O O4 0.010712 0.929541 0.595117
O O5 0.742831 0.879507 0.589953
O O6 0.715416 0.906923 0.424950
O O7 0.925212 0.815010 0.544245
O O8 0.415315 0.106812 0.026019
O O9 0.535190 0.195929 0.969783
O O10 0.592984 0.202725 0.144946
O O11 0.681268 0.397397 0.334982
O O12 0.948177 0.462893 0.405341
O O13 0.109390 0.384946 0.218107
O O14 0.375583 0.324136 0.321594
O O15 0.500000 0.976232 0.250000
O O16 0.665573 0.759652 0.362229
O O17 0.653928 0.748237 0.195904
#
# Coordination Sequence:
#
# PCOD9256654 Si02
#       8
#     8   8   8   8   8   8   8   8
#     4  10  21  38  53  73 109 141 183 211 248 313
#     4  10  20  32  52  81 108 136 164 223 270 309
#     4  10  19  30  51  82 105 136 168 213 275 315
#     4   8  18  34  52  75 102 142 179 211 251 308
#     4   9  19  33  52  74 100 146 176 208 247 311
#     4   9  19  31  53  75 101 133 175 210 257 311
#     4  10  18  28  50  75 108 136 164 214 263 306
#     4  10  20  30  49  83 114 132 158 217 280 325
#
# _framework density 23.700475999999998
#
# number of rings (size 3 to 8) (size 9 to 14) (size 15 to 20)
#    0.750    1.750    1.250    1.500   10.500    2.000 
#    0.000    1.250    0.000    0.000    0.000    0.000 
#    0.000    0.000    0.000    0.000    0.000    0.000 
#
# Total GULP energy -178356.106876 kJ/mol
# GULP energy per Si atom -5573.628340 kJ/mol
# Density = 2.364653 g / cm^3
# Si number density = 23.700476 Si / 1000 Ang^3
#
#
#
# Elastic Constant Matrix: (Units=GPa)
#
#
# Indices 1 2 3 4 5 6 
#
# 1 21.5210 17.9328 9.1384 0.0000 3.0204 0.0000
# 2 17.9328 123.3330 56.3787 0.0000 15.0707 0.0000
# 3 9.1384 56.3787 105.9783 0.0000 18.9798 0.0000
# 4 0.0000 0.0000 0.0000 41.6847 0.0000 11.4276
# 5 3.0204 15.0707 18.9798 0.0000 23.1395 0.0000
# 6 0.0000 0.0000 0.0000 11.4276 0.0000 23.8928
#
#
#
# Elastic Compliance Matrix: (Units=1/GPa)
#
#
# Indices 1 2 3 4 5 6 
#
# 1 0.052971 -0.007318 -0.000340 0.000000 -0.001869 0.000000
# 2 -0.007318 0.011870 -0.005240 0.000000 -0.002478 0.000000
# 3 -0.000340 -0.005240 0.013637 0.000000 -0.007728 0.000000
# 4 0.000000 0.000000 0.000000 0.027610 0.000000 -0.013205
# 5 -0.001869 -0.002478 -0.007728 0.000000 0.051413 0.000000
# 6 0.000000 0.000000 0.000000 -0.013205 0.000000 0.048170
#
#
# Mechanical properties :
#
#
# Convention : Reuss Voigt Hill
#
# Bulk Modulus (GPa) = 18.98176 46.41467 32.69822
# Shear Modulus (GPa) = 20.07812 28.90222 24.49017
#
# Velocity S-wave (km/s) = 2.91376 3.49589 3.21802
# Velocity P-wave (km/s) = 4.39846 5.99344 5.25680
#
# Compressibility (1/GPa) = 0.05268215
#
# Stress axis : x y z
#
# Youngs Moduli (GPa) = 18.87827 84.24334 73.33064
#
# Poissons Ratio (x) = 0.61653 0.02490
# Poissons Ratio (y) = 0.13816 0.38425
# Poissons Ratio (z) = 0.00641 0.44144
#
# Static dielectric constant tensor:
#      x y z
#    x 2.103570 0.000000 -0.085720 
#    y 0.000000 1.948890 0.000000 
#    z -0.085720 0.000000 2.028710 
# 
# From -- ./inp_files/200390.got.cif
#   From: 2010.05.17/outbox.cif.g08.bks.cpg/sg15_101_cif.got.tgz:200390.got - 2010.06.03 18:47:42.
