data_PCOD9256443
_publ_section_title
;
Structure prediction by ZEFSAII (Michael W. Deem and Ramdas Pophale) SiO2 
 PCOD9256443
Probable space group: C 2/C
;
_chemical_formula_sum "Si O2"
_cell_formula_units_Z 64
_cell_length_a 21.451087
_cell_length_b 23.756728
_cell_length_c 14.466409
_cell_angle_alpha 90.000000
_cell_angle_beta 154.882288
_cell_angle_gamma 90.000000
_cell_volume 3129.343448
_symmetry_space_group_name_H-M "C 2/C"
_symmetry_group_IT_number 15
_symmetry_cell_setting 'monoclinic'
loop_
_space_group_symop_operation_xyz
x,y,z
-x,y,1/2-z
-x,-y,-z
x,-y,1/2+z
1/2+x,1/2+y,z
1/2-x,1/2+y,1/2-z
1/2-x,1/2-y,-z
1/2+x,1/2-y,1/2+z
loop_
_atom_site_type_symbol
_atom_site_label
_atom_site_fract_x
_atom_site_fract_y
_atom_site_fract_z
Si Si1 0.409340 0.579336 0.531831
Si Si2 0.936703 0.792282 0.061266
Si Si3 0.088703 0.548700 0.173433
Si Si4 0.901239 0.258023 0.890655
Si Si5 0.522152 0.461800 0.665916
Si Si6 0.910780 0.637369 0.852641
Si Si7 0.641610 0.954451 0.377094
Si Si8 0.912491 0.156772 0.035830
O O1 0.500000 0.581662 0.750000
O O2 0.427707 0.641991 0.516661
O O3 0.238293 0.566681 0.323283
O O4 0.469005 0.523142 0.561551
O O5 0.000000 0.791601 0.250000
O O6 0.039943 0.756490 0.132382
O O7 0.772959 0.766976 0.841782
O O8 0.131115 0.518054 0.324305
O O9 0.000000 0.500000 0.000000
O O10 0.984472 0.602551 0.035211
O O11 0.956568 0.206726 0.027918
O O12 0.975557 0.315453 0.025130
O O13 0.500000 0.464336 0.750000
O O14 0.432413 0.405830 0.520417
O O15 0.690694 0.450090 0.864572
O O16 0.874839 0.591380 0.726252
O O17 0.758560 0.665025 0.674312
O O18 0.500000 0.945342 0.250000
O O19 0.000000 0.158771 0.250000
#
# Coordination Sequence:
#
# PCOD9256443 Si02
#       8
#     8   8   8   8   8   8   8   8
#     4  10  18  37  69  88 118 173 219 258 335 406
#     4  11  25  46  70  97 132 178 224 286 342 393
#     4  10  19  36  61  88 125 168 204 262 330 387
#     4  12  25  45  69 100 134 176 240 275 326 408
#     4  10  17  38  66  88 126 175 214 259 334 410
#     4  11  22  42  65  91 136 177 216 277 341 388
#     4  11  22  38  63 101 133 165 219 275 338 404
#     4  11  23  44  70  95 132 186 226 275 334 400
#
# _framework density 20.451574999999998
#
# number of rings (size 3 to 8) (size 9 to 14) (size 15 to 20)
#    0.000    1.250    7.500    1.125    0.000    2.000 
#    2.250    1.250    0.000    0.000    0.000    0.000 
#    0.000    0.000    0.000    0.000    0.000    0.000 
#
# Total GULP energy -178554.726917 kJ/mol
# GULP energy per Si atom -5579.835216 kJ/mol
# Density = 2.040503 g / cm^3
# Si number density = 20.451575 Si / 1000 Ang^3
#
#
#
# Elastic Constant Matrix: (Units=GPa)
#
#
# Indices 1 2 3 4 5 6 
#
# 1 39.0820 15.7969 12.9978 0.0000 10.5095 0.0000
# 2 15.7969 106.1579 22.7429 0.0000 -7.7524 0.0000
# 3 12.9978 22.7429 90.5389 0.0000 10.7568 0.0000
# 4 0.0000 0.0000 0.0000 135.1202 0.0000 28.1183
# 5 10.5095 -7.7524 10.7568 0.0000 21.5392 0.0000
# 6 0.0000 0.0000 0.0000 28.1183 0.0000 19.5387
#
#
#
# Elastic Compliance Matrix: (Units=1/GPa)
#
#
# Indices 1 2 3 4 5 6 
#
# 1 0.033165 -0.005987 -0.001147 0.000000 -0.017764 0.000000
# 2 -0.005987 0.011601 -0.003081 0.000000 0.008635 0.000000
# 3 -0.001147 -0.003081 0.012809 0.000000 -0.006946 0.000000
# 4 0.000000 0.000000 0.000000 0.010565 0.000000 -0.015204
# 5 -0.017764 0.008635 -0.006946 0.000000 0.061671 0.000000
# 6 0.000000 0.000000 0.000000 -0.015204 0.000000 0.073060
#
#
# Mechanical properties :
#
#
# Convention : Reuss Voigt Hill
#
# Bulk Modulus (GPa) = 26.92011 37.65043 32.28527
# Shear Modulus (GPa) = 21.21496 47.52238 34.36867
#
# Velocity S-wave (km/s) = 3.22425 4.82566 4.10383
# Velocity P-wave (km/s) = 5.20120 7.03554 6.18673
#
# Compressibility (1/GPa) = 0.03714695
#
# Stress axis : x y z
#
# Youngs Moduli (GPa) = 30.15185 86.19659 78.07191
#
# Poissons Ratio (x) = 0.51604 0.08954
# Poissons Ratio (y) = 0.18051 0.24051
# Poissons Ratio (z) = 0.03458 0.26554
#
# Static dielectric constant tensor:
#      x y z
#    x 1.758600 0.000000 -0.001640 
#    y 0.000000 1.740940 0.000000 
#    z -0.001640 0.000000 1.714060 
# 
# From -- ./inp_files/220290.got.cif
#   From: 2010.05.17/outbox.cif.g08.bks.cpg/sg15_111_cif.got.tgz:220290.got - 2010.06.03 18:47:42.
