data_PCOD9256595
_publ_section_title
;
Structure prediction by ZEFSAII (Michael W. Deem and Ramdas Pophale) SiO2 
 PCOD9256595
Probable space group: C 2/C
;
_chemical_formula_sum "Si O2"
_cell_formula_units_Z 36
_cell_length_a 13.137730
_cell_length_b 14.598872
_cell_length_c 8.899285
_cell_angle_alpha 90.000000
_cell_angle_beta 101.827925
_cell_angle_gamma 90.000000
_cell_volume 1670.607146
_symmetry_space_group_name_H-M "C 2/C"
_symmetry_group_IT_number 15
_symmetry_cell_setting 'monoclinic'
loop_
_space_group_symop_operation_xyz
x,y,z
-x,y,1/2-z
-x,-y,-z
x,-y,1/2+z
1/2+x,1/2+y,z
1/2-x,1/2+y,1/2-z
1/2-x,1/2-y,-z
1/2+x,1/2-y,1/2+z
loop_
_atom_site_type_symbol
_atom_site_label
_atom_site_fract_x
_atom_site_fract_y
_atom_site_fract_z
Si Si1 0.153283 0.268842 0.185218
Si Si2 0.500000 0.261814 0.250000
Si Si3 0.184121 0.124711 0.962052
Si Si4 0.075543 0.945451 0.914214
Si Si5 0.585960 0.760860 0.481010
O O1 0.219311 0.336490 0.101882
O O2 0.160888 0.288887 0.365569
O O3 0.031743 0.277806 0.111427
O O4 0.186081 0.166964 0.132654
O O5 0.418195 0.326223 0.138669
O O6 0.427489 0.208571 0.349408
O O7 0.169849 0.016977 0.929890
O O8 0.104855 0.848374 0.991004
O O9 0.000000 0.927874 0.750000
O O10 0.000000 0.000000 0.000000
#
# Coordination Sequence:
#
# PCOD9256595 Si02
#       5
#     8   4   8   8   8
#     4   9  18  31  46  66 100 138 165 196 251 309
#     4  10  18  28  44  70  98 130 164 210 240 286
#     4  10  18  29  45  71 102 132 164 203 251 296
#     4  12  17  28  48  73 100 127 158 205 248 290
#     4  10  18  32  48  71  98 137 165 202 248 296
#
# _framework density 21.549053000000001
#
# number of rings (size 3 to 8) (size 9 to 14) (size 15 to 20)
#    0.000    1.778    7.778    0.000    0.000    0.889 
#    0.000    0.000    0.000    0.000    0.000    3.111 
#    0.000   37.333    0.000    0.222    0.000    0.111 
#
# Total GULP energy -100208.981401 kJ/mol
# GULP energy per Si atom -5567.165633 kJ/mol
# Density = 2.150001 g / cm^3
# Si number density = 21.549053 Si / 1000 Ang^3
#
#
#
# Elastic Constant Matrix: (Units=GPa)
#
#
# Indices 1 2 3 4 5 6 
#
# 1 90.0870 38.6242 31.2445 0.0000 -21.6173 0.0000
# 2 38.6242 41.6845 -7.3372 0.0000 -10.2948 0.0000
# 3 31.2445 -7.3372 123.9049 0.0000 -40.5253 0.0000
# 4 0.0000 0.0000 0.0000 3.4154 0.0000 -2.3130
# 5 -21.6173 -10.2948 -40.5253 0.0000 47.7301 0.0000
# 6 0.0000 0.0000 0.0000 -2.3130 0.0000 32.6544
#
#
#
# Elastic Compliance Matrix: (Units=1/GPa)
#
#
# Indices 1 2 3 4 5 6 
#
# 1 0.023552 -0.023360 -0.007589 0.000000 -0.000815 0.000000
# 2 -0.023360 0.050510 0.012439 0.000000 0.010876 0.000000
# 3 -0.007589 0.012439 0.014501 0.000000 0.011558 0.000000
# 4 0.000000 0.000000 0.000000 0.307541 0.000000 0.021784
# 5 -0.000815 0.010876 0.011558 0.000000 0.032741 0.000000
# 6 0.000000 0.000000 0.000000 0.021784 0.000000 0.032167
#
#
# Mechanical properties :
#
#
# Convention : Reuss Voigt Hill
#
# Bulk Modulus (GPa) = 19.40129 42.30439 30.85284
# Shear Modulus (GPa) = 9.70467 29.63632 19.67050
#
# Velocity S-wave (km/s) = 2.12445 3.71252 3.02458
# Velocity P-wave (km/s) = 3.87822 6.16858 5.15228
#
# Compressibility (1/GPa) = 0.05154297
#
# Stress axis : x y z
#
# Youngs Moduli (GPa) = 42.45837 19.79790 68.95970
#
# Poissons Ratio (x) = 0.46249 0.52333
# Poissons Ratio (y) = 0.99184 -0.85777
# Poissons Ratio (z) = 0.32221 -0.24626
#
# Static dielectric constant tensor:
#      x y z
#    x 1.895490 0.000000 0.021350 
#    y 0.000000 1.812580 0.000000 
#    z 0.021350 0.000000 2.013400 
# 
# From -- ./inp_files/28742.got.cif
#   From: 2010.05.17/outbox.cif.g08.bks.cpg/sg15_15_cif.got.tgz:28742.got - 2010.06.03 18:47:42.
