data_PCOD9256918
_publ_section_title
;
Structure prediction by ZEFSAII (Michael W. Deem and Ramdas Pophale) SiO2 
 PCOD9256918
Probable space group: C 2/C
;
_chemical_formula_sum "Si O2"
_cell_formula_units_Z 56
_cell_length_a 5.434995
_cell_length_b 16.431606
_cell_length_c 32.394136
_cell_angle_alpha 90.000000
_cell_angle_beta 109.606258
_cell_angle_gamma 90.000000
_cell_volume 2725.248183
_symmetry_space_group_name_H-M "C 2/C"
_symmetry_group_IT_number 15
_symmetry_cell_setting 'monoclinic'
loop_
_space_group_symop_operation_xyz
x,y,z
-x,y,1/2-z
-x,-y,-z
x,-y,1/2+z
1/2+x,1/2+y,z
1/2-x,1/2+y,1/2-z
1/2-x,1/2-y,-z
1/2+x,1/2-y,1/2+z
loop_
_atom_site_type_symbol
_atom_site_label
_atom_site_fract_x
_atom_site_fract_y
_atom_site_fract_z
Si Si1 0.303486 0.407093 0.151743
Si Si2 0.500000 0.215300 0.750000
Si Si3 0.101619 0.021615 0.050810
Si Si4 0.099020 0.453883 0.799509
Si Si5 0.684777 0.927903 0.592389
Si Si6 0.638368 0.645068 0.319184
Si Si7 0.742553 0.099629 0.871276
Si Si8 0.500000 0.387473 0.250000
O O1 0.243630 0.488444 0.121816
O O2 0.523178 0.358282 0.139401
O O3 0.405783 0.430900 0.202892
O O4 0.034424 0.358282 0.139401
O O5 0.414687 0.271993 0.707344
O O6 0.249404 0.164532 0.750000
O O7 0.378931 0.068273 0.064585
O O8 0.879402 0.068273 0.064584
O O9 0.161435 0.939761 0.080718
O O10 0.000000 0.000000 0.000000
O O11 0.357719 0.400683 0.805588
O O12 0.172965 0.523598 0.836482
O O13 0.000000 0.487486 0.750000
O O14 0.864634 0.400683 0.805588
O O15 0.756204 0.856542 0.628102
#
# Coordination Sequence:
#
# PCOD9256918 Si02
#       8
#     8   4   8   8   8   8   8   4
#     4  10  20  34  52  69 105 131 176 217 239 304
#     4  12  26  39  48  71 104 146 186 212 268 294
#     4  10  18  30  48  76 120 138 150 202 266 344
#     4  12  19  29  50  78 101 131 172 212 254 290
#     4  10  19  33  52  82  98 135 176 206 269 310
#     4  12  20  36  52  71 107 133 174 227 244 313
#     4  10  19  31  48  80 103 128 175 199 254 313
#     4  12  26  39  48  71 104 146 186 218 254 302
#
# _framework density 20.548587000000001
#
# number of rings (size 3 to 8) (size 9 to 14) (size 15 to 20)
#    0.000    1.143    7.143    2.143    2.000    0.571 
#    0.000    0.000    0.000    0.000    0.000    0.000 
#    0.000   91.429    0.000    0.000    0.000    0.000 
#
# Total GULP energy -156471.825448 kJ/mol
# GULP energy per Si atom -5588.279480 kJ/mol
# Density = 2.050182 g / cm^3
# Si number density = 20.548587 Si / 1000 Ang^3
#
#
#
# Elastic Constant Matrix: (Units=GPa)
#
#
# Indices 1 2 3 4 5 6 
#
# 1 226.0930 31.6039 50.7954 0.0000 -3.2334 0.0000
# 2 31.6039 33.4501 12.7504 0.0000 -0.5305 0.0000
# 3 50.7954 12.7504 168.7268 0.0000 1.6180 0.0000
# 4 0.0000 0.0000 0.0000 19.9624 0.0000 0.0545
# 5 -3.2334 -0.5305 1.6180 0.0000 30.3289 0.0000
# 6 0.0000 0.0000 0.0000 0.0545 0.0000 18.0263
#
#
#
# Elastic Compliance Matrix: (Units=1/GPa)
#
#
# Indices 1 2 3 4 5 6 
#
# 1 0.005355 -0.004566 -0.001272 0.000000 0.000559 0.000000
# 2 -0.004566 0.034688 -0.001249 0.000000 0.000187 0.000000
# 3 -0.001272 -0.001249 0.006409 0.000000 -0.000499 0.000000
# 4 0.000000 0.000000 0.000000 0.050095 0.000000 -0.000152
# 5 0.000559 0.000187 -0.000499 0.000000 0.033061 0.000000
# 6 0.000000 0.000000 0.000000 -0.000152 0.000000 0.055475
#
#
# Mechanical properties :
#
#
# Convention : Reuss Voigt Hill
#
# Bulk Modulus (GPa) = 30.98043 68.72993 49.85518
# Shear Modulus (GPa) = 23.80779 35.87155 29.83967
#
# Velocity S-wave (km/s) = 3.40753 4.18268 3.81485
# Velocity P-wave (km/s) = 5.53092 7.53967 6.61202
#
# Compressibility (1/GPa) = 0.03227844
#
# Stress axis : x y z
#
# Youngs Moduli (GPa) = 186.74055 28.82859 156.03135
#
# Poissons Ratio (x) = 0.13162 0.19855
# Poissons Ratio (y) = 0.85258 0.19482
# Poissons Ratio (z) = 0.23762 0.03600
#
# Static dielectric constant tensor:
#      x y z
#    x 1.858760 0.000000 -0.004120 
#    y 0.000000 1.726790 0.000000 
#    z -0.004120 0.000000 1.712290 
# 
# From -- ./inp_files/305720.got.cif
#   From: 2010.05.17/outbox.cif.g08.bks.cpg/sg15_153_cif.got.tgz:305720.got - 2010.06.03 18:47:42.
