data_PCOD9256046
_publ_section_title
;
Structure prediction by ZEFSAII (Michael W. Deem and Ramdas Pophale) SiO2 
 PCOD9256046
Probable space group: C 2/C
;
_chemical_formula_sum "Si O2"
_cell_formula_units_Z 52
_cell_length_a 7.720618
_cell_length_b 15.913688
_cell_length_c 24.849176
_cell_angle_alpha 90.000000
_cell_angle_beta 128.366985
_cell_angle_gamma 90.000000
_cell_volume 2393.753053
_symmetry_space_group_name_H-M "C 2/C"
_symmetry_group_IT_number 15
_symmetry_cell_setting 'monoclinic'
loop_
_space_group_symop_operation_xyz
x,y,z
-x,y,1/2-z
-x,-y,-z
x,-y,1/2+z
1/2+x,1/2+y,z
1/2-x,1/2+y,1/2-z
1/2-x,1/2-y,-z
1/2+x,1/2-y,1/2+z
loop_
_atom_site_type_symbol
_atom_site_label
_atom_site_fract_x
_atom_site_fract_y
_atom_site_fract_z
Si Si1 0.500000 0.841219 0.750000
Si Si2 0.887245 0.785054 0.137612
Si Si3 0.508211 0.336073 0.971976
Si Si4 0.850229 0.576787 0.029207
Si Si5 0.723180 0.958061 0.111205
Si Si6 0.824552 0.740494 0.401295
Si Si7 0.490824 0.612945 0.349443
O O1 0.498394 0.780806 0.801042
O O2 0.271725 0.890987 0.703068
O O3 0.666147 0.738427 0.074641
O O4 0.807911 0.870355 0.150215
O O5 0.056180 0.796651 0.120762
O O6 0.365668 0.402230 0.978641
O O7 0.571115 0.376656 0.927303
O O8 0.685665 0.293729 0.045581
O O9 0.987893 0.499003 0.080419
O O10 0.009441 0.659567 0.061225
O O11 0.796255 0.558936 0.956831
O O12 0.899439 0.031364 0.154272
O O13 0.591356 0.697733 0.342719
#
# Coordination Sequence:
#
# PCOD9256046 Si02
#       7
#     4   8   8   8   8   8   8
#     4  10  24  44  52  72 102 160 190 236 264 324
#     4  10  19  37  61  76 111 144 197 223 270 337
#     4  10  17  34  55  87 117 145 171 223 281 349
#     4   9  17  30  56  85 120 140 169 215 296 346
#     4  10  18  34  55  87 111 146 176 230 280 344
#     4  10  17  34  58  87 105 149 181 226 282 350
#     4  10  23  35  55  79 116 143 188 233 286 325
#
# _framework density 21.723208
#
# number of rings (size 3 to 8) (size 9 to 14) (size 15 to 20)
#    0.000    2.154    3.077    1.385    0.000    1.231 
#    0.000    7.692    0.000    0.000    0.000    0.000 
#    0.000    0.000    0.000    0.000    0.000    0.000 
#
# Total GULP energy -145189.502939 kJ/mol
# GULP energy per Si atom -5584.211651 kJ/mol
# Density = 2.167377 g / cm^3
# Si number density = 21.723208 Si / 1000 Ang^3
#
#
#
# Elastic Constant Matrix: (Units=GPa)
#
#
# Indices 1 2 3 4 5 6 
#
# 1 40.7971 4.9213 -4.1163 0.0000 12.0931 0.0000
# 2 4.9213 71.3411 1.2958 0.0000 16.2120 0.0000
# 3 -4.1163 1.2958 41.8310 0.0000 14.2921 0.0000
# 4 0.0000 0.0000 0.0000 7.0723 0.0000 4.6338
# 5 12.0931 16.2120 14.2921 0.0000 23.7497 0.0000
# 6 0.0000 0.0000 0.0000 4.6338 0.0000 24.5568
#
#
#
# Elastic Compliance Matrix: (Units=1/GPa)
#
#
# Indices 1 2 3 4 5 6 
#
# 1 0.033262 0.003568 0.012313 0.000000 -0.026782 0.000000
# 2 0.003568 0.017588 0.005701 0.000000 -0.017254 0.000000
# 3 0.012313 0.005701 0.035766 0.000000 -0.031685 0.000000
# 4 0.000000 0.000000 0.000000 0.161344 0.000000 -0.030445
# 5 -0.026782 -0.017254 -0.031685 0.000000 0.086588 0.000000
# 6 0.000000 0.000000 0.000000 -0.030445 0.000000 0.046467
#
#
# Mechanical properties :
#
#
# Convention : Reuss Voigt Hill
#
# Bulk Modulus (GPa) = 7.70525 17.57453 12.63989
# Shear Modulus (GPa) = 13.11951 21.20033 17.15992
#
# Velocity S-wave (km/s) = 2.46018 3.12738 2.81363
# Velocity P-wave (km/s) = 3.40950 4.59874 4.04803
#
# Compressibility (1/GPa) = 0.12978168
#
# Stress axis : x y z
#
# Youngs Moduli (GPa) = 30.06405 56.85581 27.95926
#
# Poissons Ratio (x) = -0.20286 -0.34427
# Poissons Ratio (y) = -0.10727 -0.15940
# Poissons Ratio (z) = -0.37018 -0.32415
#
# Static dielectric constant tensor:
#      x y z
#    x 1.818750 0.000000 -0.025920 
#    y 0.000000 1.822960 0.000000 
#    z -0.025920 0.000000 1.820870 
# 
# From -- ./inp_files/231206.got.cif
#   From: 2010.05.17/outbox.cif.g08.bks.cpg/sg15_116_cif.got.tgz:231206.got - 2010.06.03 18:47:42.
