data_PCOD9256606
_publ_section_title
;
Structure prediction by ZEFSAII (Michael W. Deem and Ramdas Pophale) SiO2 
 PCOD9256606
Probable space group: C 2/C
;
_chemical_formula_sum "Si O2"
_cell_formula_units_Z 56
_cell_length_a 19.107248
_cell_length_b 17.069714
_cell_length_c 8.442239
_cell_angle_alpha 90.000000
_cell_angle_beta 90.162909
_cell_angle_gamma 90.000000
_cell_volume 2753.469515
_symmetry_space_group_name_H-M "C 2/C"
_symmetry_group_IT_number 15
_symmetry_cell_setting 'monoclinic'
loop_
_space_group_symop_operation_xyz
x,y,z
-x,y,1/2-z
-x,-y,-z
x,-y,1/2+z
1/2+x,1/2+y,z
1/2-x,1/2+y,1/2-z
1/2-x,1/2-y,-z
1/2+x,1/2-y,1/2+z
loop_
_atom_site_type_symbol
_atom_site_label
_atom_site_fract_x
_atom_site_fract_y
_atom_site_fract_z
Si Si1 0.556290 0.587275 0.384372
Si Si2 0.916950 0.763770 0.790432
Si Si3 0.953990 0.819909 0.116888
Si Si4 0.251284 0.957366 0.640861
Si Si5 0.352109 0.042513 0.392570
Si Si6 0.419905 0.097983 0.692095
Si Si7 0.154684 0.056313 0.872587
O O1 0.500000 0.561412 0.250000
O O2 0.602670 0.656682 0.302987
O O3 0.509036 0.624368 0.522267
O O4 0.604481 0.514733 0.429687
O O5 0.885974 0.682225 0.732357
O O6 0.000000 0.760918 0.750000
O O7 0.916962 0.770248 0.979628
O O8 0.894875 0.875406 0.190264
O O9 0.000000 0.777437 0.250000
O O10 0.198672 0.912975 0.523536
O O11 0.299049 0.006500 0.520478
O O12 0.205539 0.017973 0.744203
O O13 0.303376 0.913430 0.762881
O O14 0.408949 0.084708 0.504004
O O15 0.386088 0.971772 0.293785
O O16 0.500000 0.099449 0.750000
#
# Coordination Sequence:
#
# PCOD9256606 Si02
#       7
#     8   8   8   8   8   8   8
#     4   9  17  29  45  72 105 137 169 209 247 279
#     4   8  18  33  48  71 110 137 152 192 263 314
#     4  10  18  28  45  75 105 132 169 214 246 275
#     4   9  19  31  47  73 100 133 167 207 249 276
#     4   9  19  34  53  74 100 122 160 209 248 300
#     4  10  18  35  59  81  98 121 154 201 263 323
#     4  11  17  28  51  70  99 140 183 204 227 287
#
# _framework density 20.337976000000001
#
# number of rings (size 3 to 8) (size 9 to 14) (size 15 to 20)
#    0.000    2.857    0.000    3.857    0.000    0.000 
#    0.000    9.286    0.000   27.429    0.000    0.000 
#    0.000    0.000    0.000    0.000    0.000    0.000 
#
# Total GULP energy -155904.887513 kJ/mol
# GULP energy per Si atom -5568.031697 kJ/mol
# Density = 2.029169 g / cm^3
# Si number density = 20.337976 Si / 1000 Ang^3
#
#
#
# Elastic Constant Matrix: (Units=GPa)
#
#
# Indices 1 2 3 4 5 6 
#
# 1 50.4828 0.7211 23.2880 0.0000 18.9941 0.0000
# 2 0.7211 54.0654 3.5478 0.0000 18.9014 0.0000
# 3 23.2880 3.5478 78.7969 0.0000 33.1700 0.0000
# 4 0.0000 0.0000 0.0000 13.5869 0.0000 -2.0844
# 5 18.9941 18.9014 33.1700 0.0000 48.1899 0.0000
# 6 0.0000 0.0000 0.0000 -2.0844 0.0000 3.6845
#
#
#
# Elastic Compliance Matrix: (Units=1/GPa)
#
#
# Indices 1 2 3 4 5 6 
#
# 1 0.024645 0.002736 -0.004035 0.000000 -0.008009 0.000000
# 2 0.002736 0.022500 0.003305 0.000000 -0.012179 0.000000
# 3 -0.004035 0.003305 0.019163 0.000000 -0.012896 0.000000
# 4 0.000000 0.000000 0.000000 0.080595 0.000000 0.045594
# 5 -0.008009 -0.012179 -0.012896 0.000000 0.037562 0.000000
# 6 0.000000 0.000000 0.000000 0.045594 0.000000 0.297204
#
#
# Mechanical properties :
#
#
# Convention : Reuss Voigt Hill
#
# Bulk Modulus (GPa) = 14.22065 26.49544 20.35805
# Shear Modulus (GPa) = 9.97811 23.47813 16.72812
#
# Velocity S-wave (km/s) = 2.21739 3.40133 2.87105
# Velocity P-wave (km/s) = 3.68281 5.33678 4.58499
#
# Compressibility (1/GPa) = 0.07032026
#
# Stress axis : x y z
#
# Youngs Moduli (GPa) = 40.57684 44.44365 52.18280
#
# Poissons Ratio (x) = -0.12161 0.21057
# Poissons Ratio (y) = -0.11103 -0.17246
# Poissons Ratio (z) = 0.16373 -0.14688
#
# Static dielectric constant tensor:
#      x y z
#    x 1.770630 0.000000 0.036010 
#    y 0.000000 1.771420 0.000000 
#    z 0.036010 0.000000 1.772330 
# 
# From -- ./inp_files/56125.got.cif
#   From: 2010.05.17/outbox.cif.g08.bks.cpg/sg15_29_cif.got.tgz:56125.got - 2010.06.03 18:47:42.
