data_PCOD9256030
_publ_section_title
;
Structure prediction by ZEFSAII (Michael W. Deem and Ramdas Pophale) SiO2 
 PCOD9256030
Probable space group: C 2/C
;
_chemical_formula_sum "Si O2"
_cell_formula_units_Z 56
_cell_length_a 14.703558
_cell_length_b 18.826824
_cell_length_c 12.939701
_cell_angle_alpha 90.000000
_cell_angle_beta 127.038180
_cell_angle_gamma 90.000000
_cell_volume 2859.263169
_symmetry_space_group_name_H-M "C 2/C"
_symmetry_group_IT_number 15
_symmetry_cell_setting 'monoclinic'
loop_
_space_group_symop_operation_xyz
x,y,z
-x,y,1/2-z
-x,-y,-z
x,-y,1/2+z
1/2+x,1/2+y,z
1/2-x,1/2+y,1/2-z
1/2-x,1/2-y,-z
1/2+x,1/2-y,1/2+z
loop_
_atom_site_type_symbol
_atom_site_label
_atom_site_fract_x
_atom_site_fract_y
_atom_site_fract_z
Si Si1 0.290511 0.413805 0.762278
Si Si2 0.451849 0.098582 0.897171
Si Si3 0.821218 0.805221 0.615977
Si Si4 0.000000 0.949138 0.250000
Si Si5 0.500000 0.196249 0.750000
Si Si6 0.697243 0.574493 0.749949
Si Si7 0.437198 0.935951 0.812175
Si Si8 0.943855 0.923235 0.558116
O O1 0.261336 0.353162 0.660123
O O2 0.276120 0.492190 0.702120
O O3 0.195963 0.415382 0.785915
O O4 0.424257 0.406452 0.879595
O O5 0.520044 0.146440 0.862000
O O6 0.316568 0.114950 0.819591
O O7 0.450308 0.019911 0.845494
O O8 0.509055 0.098693 0.048425
O O9 0.750000 0.750000 0.500000
O O10 0.906171 0.750338 0.727367
O O11 0.890166 0.861613 0.592531
O O12 0.898189 0.904372 0.231784
O O13 0.951793 0.003662 0.129248
O O14 0.634283 0.570767 0.596056
O O15 0.500000 0.918175 0.750000
#
# Coordination Sequence:
#
# PCOD9256030 Si02
#       8
#     8   8   8   4   4   8   8   8
#     4  10  19  38  54  86 119 157 201 251 311 361
#     4  10  22  37  55  92 124 156 211 253 313 374
#     4  12  22  35  61  88 123 162 198 253 309 376
#     4  10  17  34  54  82 122 153 192 246 312 368
#     4  12  21  40  58  88 126 157 196 260 302 370
#     4  10  21  32  59  85 123 159 191 262 311 369
#     4  10  21  38  60  85 123 163 203 262 312 368
#     4  11  19  37  54  91 122 152 205 245 318 369
#
# _framework density 19.585464999999999
#
# number of rings (size 3 to 8) (size 9 to 14) (size 15 to 20)
#    0.000    1.429    5.000    3.429    0.000    3.429 
#    0.000    0.000    0.000    0.857   13.000    0.000 
#    0.000    0.000    0.000    0.000    0.000    0.000 
#
# Total GULP energy -156061.558241 kJ/mol
# GULP energy per Si atom -5573.627080 kJ/mol
# Density = 1.954089 g / cm^3
# Si number density = 19.585465 Si / 1000 Ang^3
#
#
#
# Elastic Constant Matrix: (Units=GPa)
#
#
# Indices 1 2 3 4 5 6 
#
# 1 126.6148 14.0742 17.6263 0.0000 -15.4468 0.0000
# 2 14.0742 55.5599 10.0175 0.0000 -10.2541 0.0000
# 3 17.6263 10.0175 60.3152 0.0000 -8.3639 0.0000
# 4 0.0000 0.0000 0.0000 25.4771 0.0000 -4.1622
# 5 -15.4468 -10.2541 -8.3639 0.0000 30.0762 0.0000
# 6 0.0000 0.0000 0.0000 -4.1622 0.0000 19.3777
#
#
#
# Elastic Compliance Matrix: (Units=1/GPa)
#
#
# Indices 1 2 3 4 5 6 
#
# 1 0.008725 -0.001221 -0.001855 0.000000 0.003549 0.000000
# 2 -0.001221 0.019710 -0.002155 0.000000 0.005494 0.000000
# 3 -0.001855 -0.002155 0.017937 0.000000 0.003301 0.000000
# 4 0.000000 0.000000 0.000000 0.040678 0.000000 0.008737
# 5 0.003549 0.005494 0.003301 0.000000 0.037863 0.000000
# 6 0.000000 0.000000 0.000000 0.008737 0.000000 0.053482
#
#
# Mechanical properties :
#
#
# Convention : Reuss Voigt Hill
#
# Bulk Modulus (GPa) = 27.84649 36.21400 32.03024
# Shear Modulus (GPa) = 24.89699 28.37098 26.63399
#
# Velocity S-wave (km/s) = 3.56925 3.81014 3.69166
# Velocity P-wave (km/s) = 5.58882 6.15521 5.87884
#
# Compressibility (1/GPa) = 0.03591117
#
# Stress axis : x y z
#
# Youngs Moduli (GPa) = 114.61514 50.73492 55.74989
#
# Poissons Ratio (x) = 0.06193 0.10341
# Poissons Ratio (y) = 0.13991 0.12014
# Poissons Ratio (z) = 0.21259 0.10934
#
# Static dielectric constant tensor:
#      x y z
#    x 2.762380 0.000000 0.531730 
#    y 0.000000 1.674960 0.000000 
#    z 0.531730 0.000000 1.949570 
# 
# From -- ./inp_files/98863.got.cif
#   From: 2010.05.17/outbox.cif.g08.bks.cpg/sg15_50_cif.got.tgz:98863.got - 2010.06.03 18:47:42.
