data_PCOD9256124
_publ_section_title
;
Structure prediction by ZEFSAII (Michael W. Deem and Ramdas Pophale) SiO2 
 PCOD9256124
Probable space group: C 2/C
;
_chemical_formula_sum "Si O2"
_cell_formula_units_Z 32
_cell_length_a 29.323866
_cell_length_b 10.261760
_cell_length_c 15.100016
_cell_angle_alpha 90.000000
_cell_angle_beta 161.801354
_cell_angle_gamma 90.000000
_cell_volume 1419.089578
_symmetry_space_group_name_H-M "C 2/C"
_symmetry_group_IT_number 15
_symmetry_cell_setting 'monoclinic'
loop_
_space_group_symop_operation_xyz
x,y,z
-x,y,1/2-z
-x,-y,-z
x,-y,1/2+z
1/2+x,1/2+y,z
1/2-x,1/2+y,1/2-z
1/2-x,1/2-y,-z
1/2+x,1/2-y,1/2+z
loop_
_atom_site_type_symbol
_atom_site_label
_atom_site_fract_x
_atom_site_fract_y
_atom_site_fract_z
Si Si1 0.500000 0.332943 0.750000
Si Si2 0.547776 0.763586 0.714247
Si Si3 0.379295 0.286329 0.349469
Si Si4 0.500000 0.998651 0.250000
Si Si5 0.824368 0.037122 0.340218
O O1 0.484508 0.262213 0.627269
O O2 0.364723 0.435034 0.493326
O O3 0.556884 0.759935 0.625059
O O4 0.504306 0.902223 0.674428
O O5 0.431181 0.658045 0.531247
O O6 0.713840 0.732612 0.053089
O O7 0.354935 0.443338 0.311320
O O8 0.655771 0.928801 0.535051
#
# Coordination Sequence:
#
# PCOD9256124 Si02
#       5
#     4   8   8   4   8
#     4   8  17  34  53  88 122 152 195 259 294 360
#     4  10  17  34  60  91 122 172 194 253 308 348
#     4   8  18  32  59  94 122 157 212 246 303 371
#     4  10  21  34  57  94 122 160 213 239 294 380
#     4   9  18  34  58  85 131 156 202 254 298 359
#
# _framework density 22.549669000000002
#
# number of rings (size 3 to 8) (size 9 to 14) (size 15 to 20)
#    1.500    1.500    0.000    1.500    0.000    0.000 
#    0.000    2.500    0.000    1.500    0.000    0.000 
#    0.000    0.000    0.000    0.000    0.000    0.000 
#
# Total GULP energy -89193.422992 kJ/mol
# GULP energy per Si atom -5574.588937 kJ/mol
# Density = 2.249835 g / cm^3
# Si number density = 22.549669 Si / 1000 Ang^3
#
#
#
# Elastic Constant Matrix: (Units=GPa)
#
#
# Indices 1 2 3 4 5 6 
#
# 1 133.4265 31.4192 89.0988 0.0000 -3.2498 0.0000
# 2 31.4192 61.8446 46.2426 0.0000 6.6855 0.0000
# 3 89.0988 46.2426 176.9266 0.0000 -9.6398 0.0000
# 4 0.0000 0.0000 0.0000 34.1977 0.0000 -21.3473
# 5 -3.2498 6.6855 -9.6398 0.0000 38.4428 0.0000
# 6 0.0000 0.0000 0.0000 -21.3473 0.0000 -32.8312
#
#
#
# Elastic Compliance Matrix: (Units=1/GPa)
#
#
# Indices 1 2 3 4 5 6 
#
# 1 0.011464 -0.001868 -0.005287 0.000000 -0.000032 0.000000
# 2 -0.001868 0.021346 -0.004917 0.000000 -0.005103 0.000000
# 3 -0.005287 -0.004917 0.009755 0.000000 0.002854 0.000000
# 4 0.000000 0.000000 0.000000 0.020800 0.000000 -0.013524
# 5 -0.000032 -0.005103 0.002854 0.000000 0.027613 0.000000
# 6 0.000000 0.000000 0.000000 -0.013524 0.000000 -0.021665
#
#
# Mechanical properties :
#
#
# Convention : Reuss Voigt Hill
#
# Bulk Modulus (GPa) = 54.27949 78.41318 66.34634
# Shear Modulus (GPa) = 50.20248 21.65769 35.93008
#
# Velocity S-wave (km/s) = 4.72349 3.10246 3.99604
# Velocity P-wave (km/s) = 7.33975 6.90527 7.12582
#
# Compressibility (1/GPa) = 0.01842316
#
# Stress axis : x y z
#
# Youngs Moduli (GPa) = 87.22781 46.84633 102.51079
#
# Poissons Ratio (x) = 0.08749 0.54196
# Poissons Ratio (y) = 0.16291 0.50402
# Poissons Ratio (z) = 0.46116 0.23033
#
# Static dielectric constant tensor:
#      x y z
#    x 1.819070 0.000000 -0.061210 
#    y 0.000000 1.928430 0.000000 
#    z -0.061210 0.000000 1.852260 
# 
# From -- ./inp_files/181655.got.cif
#   From: 2010.05.17/outbox.cif.g08.bks.cpg/sg15_91_cif.got.tgz:181655.got - 2010.06.03 18:47:42.
