data_PCOD9256460
_publ_section_title
;
Structure prediction by ZEFSAII (Michael W. Deem and Ramdas Pophale) SiO2 
 PCOD9256460
Probable space group: C 2/C
;
_chemical_formula_sum "Si O2"
_cell_formula_units_Z 44
_cell_length_a 14.545767
_cell_length_b 25.901678
_cell_length_c 5.479020
_cell_angle_alpha 90.000000
_cell_angle_beta 116.231290
_cell_angle_gamma 90.000000
_cell_volume 1851.689424
_symmetry_space_group_name_H-M "C 2/C"
_symmetry_group_IT_number 15
_symmetry_cell_setting 'monoclinic'
loop_
_space_group_symop_operation_xyz
x,y,z
-x,y,1/2-z
-x,-y,-z
x,-y,1/2+z
1/2+x,1/2+y,z
1/2-x,1/2+y,1/2-z
1/2-x,1/2-y,-z
1/2+x,1/2-y,1/2+z
loop_
_atom_site_type_symbol
_atom_site_label
_atom_site_fract_x
_atom_site_fract_y
_atom_site_fract_z
Si Si1 0.500000 0.354980 0.250000
Si Si2 0.063095 0.283085 0.567322
Si Si3 0.155770 0.895229 0.788772
Si Si4 0.500000 0.531927 0.250000
Si Si5 0.191568 0.190976 0.700189
Si Si6 0.000000 0.533463 0.250000
Si Si7 0.840953 0.381492 0.673797
O O1 0.554073 0.388988 0.511802
O O2 0.408741 0.323220 0.260211
O O3 0.172621 0.252249 0.671974
O O4 0.085597 0.344108 0.584058
O O5 0.000000 0.275479 0.750000
O O6 0.000000 0.267169 0.250000
O O7 0.111865 0.938629 0.911482
O O8 0.252918 0.905993 0.737704
O O9 0.175352 0.839323 0.930355
O O10 0.500000 0.500000 0.500000
O O11 0.287293 0.160761 0.930385
O O12 0.096575 0.572614 0.373385
O O13 0.000000 0.500000 0.500000
#
# Coordination Sequence:
#
# PCOD9256460 Si02
#       7
#     4   8   8   4   8   4   8
#     4  10  17  39  64 104 146 204 231 299 372 474
#     4  12  27  47  79 115 163 210 258 315 401 475
#     4  11  24  42  73 105 155 198 254 312 400 468
#     4  12  27  44  68 104 148 192 246 319 394 466
#     4  11  23  43  76 114 156 205 250 312 396 478
#     4  12  32  59  88 110 152 216 279 342 400 446
#     4  11  29  49  81 111 158 199 273 335 387 467
#
# _framework density 23.762084999999999
#
# number of rings (size 3 to 8) (size 9 to 14) (size 15 to 20)
#    0.000    0.727    3.636    2.182   11.455    2.182 
#    0.000    0.000    0.000    0.000    0.000    0.000 
#    0.000    0.000    0.000    0.000    0.000    0.000 
#
# Total GULP energy -122800.017979 kJ/mol
# GULP energy per Si atom -5581.818999 kJ/mol
# Density = 2.370800 g / cm^3
# Si number density = 23.762085 Si / 1000 Ang^3
#
#
#
# Elastic Constant Matrix: (Units=GPa)
#
#
# Indices 1 2 3 4 5 6 
#
# 1 273.9771 62.7014 20.3661 0.0000 -34.5331 0.0000
# 2 62.7014 137.9980 31.9510 0.0000 -4.6549 0.0000
# 3 20.3661 31.9510 111.7205 0.0000 -2.6993 0.0000
# 4 0.0000 0.0000 0.0000 15.3862 0.0000 -15.2853
# 5 -34.5331 -4.6549 -2.6993 0.0000 33.3165 0.0000
# 6 0.0000 0.0000 0.0000 -15.2853 0.0000 17.8294
#
#
#
# Elastic Compliance Matrix: (Units=1/GPa)
#
#
# Indices 1 2 3 4 5 6 
#
# 1 0.004681 -0.001929 -0.000191 0.000000 0.004567 0.000000
# 2 -0.001929 0.008582 -0.002126 0.000000 -0.000972 0.000000
# 3 -0.000191 -0.002126 0.009601 0.000000 0.000282 0.000000
# 4 0.000000 0.000000 0.000000 0.438216 0.000000 0.375686
# 5 0.004567 -0.000972 0.000282 0.000000 0.034636 0.000000
# 6 0.000000 0.000000 0.000000 0.375686 0.000000 0.378166
#
#
# Mechanical properties :
#
#
# Convention : Reuss Voigt Hill
#
# Bulk Modulus (GPa) = 69.58254 83.74808 76.66531
# Shear Modulus (GPa) = 5.63593 40.55155 23.09374
#
# Velocity S-wave (km/s) = 1.54174 4.13554 3.12087
# Velocity P-wave (km/s) = 5.70227 7.62394 6.73203
#
# Compressibility (1/GPa) = 0.01437142
#
# Stress axis : x y z
#
# Youngs Moduli (GPa) = 213.62024 116.51896 104.15851
#
# Poissons Ratio (x) = 0.22472 0.01994
# Poissons Ratio (y) = 0.41199 0.22148
# Poissons Ratio (z) = 0.04090 0.24776
#
# Static dielectric constant tensor:
#      x y z
#    x 1.951070 0.000000 -0.054040 
#    y 0.000000 1.970920 0.000000 
#    z -0.054040 0.000000 2.062800 
# 
# From -- ./inp_files/8323.got.cif
#   From: 2010.05.17/outbox.cif.g08.bks.cpg/sg15_5_cif.got.tgz:8323.got - 2010.06.03 18:47:42.
