data_PCOD9256327
_publ_section_title
;
Structure prediction by ZEFSAII (Michael W. Deem and Ramdas Pophale) SiO2 
 PCOD9256327
Probable space group: C 2/C
;
_chemical_formula_sum "Si O2"
_cell_formula_units_Z 48
_cell_length_a 12.209858
_cell_length_b 14.057579
_cell_length_c 19.319801
_cell_angle_alpha 90.000000
_cell_angle_beta 133.455869
_cell_angle_gamma 90.000000
_cell_volume 2407.150214
_symmetry_space_group_name_H-M "C 2/C"
_symmetry_group_IT_number 15
_symmetry_cell_setting 'monoclinic'
loop_
_space_group_symop_operation_xyz
x,y,z
-x,y,1/2-z
-x,-y,-z
x,-y,1/2+z
1/2+x,1/2+y,z
1/2-x,1/2+y,1/2-z
1/2-x,1/2-y,-z
1/2+x,1/2-y,1/2+z
loop_
_atom_site_type_symbol
_atom_site_label
_atom_site_fract_x
_atom_site_fract_y
_atom_site_fract_z
Si Si1 0.821134 0.149135 0.684534
Si Si2 0.619044 0.450125 0.746341
Si Si3 0.297607 0.762360 0.812309
Si Si4 0.691496 0.315464 0.035947
Si Si5 0.901786 0.223632 0.492059
Si Si6 0.405348 0.513607 0.528820
O O1 0.775428 0.194386 0.737946
O O2 0.000000 0.160441 0.750000
O O3 0.728069 0.206113 0.587130
O O4 0.793874 0.036149 0.677804
O O5 0.500000 0.410335 0.750000
O O6 0.723790 0.364410 0.768687
O O7 0.710359 0.425692 0.023244
O O8 0.241248 0.714264 0.860010
O O9 0.477726 0.769507 0.903149
O O10 0.512346 0.297915 0.973595
O O11 0.520731 0.502551 0.142307
O O12 0.750000 0.250000 0.000000
O O13 0.849687 0.121894 0.499567
O O14 0.500000 0.500000 0.500000
#
# Coordination Sequence:
#
# PCOD9256327 Si02
#       6
#     8   8   8   8   8   8
#     4  11  23  41  61  88 124 164 214 256 310 373
#     4  11  22  38  63  92 121 164 206 254 318 376
#     4  10  21  37  58  91 120 155 208 260 300 364
#     4   9  18  34  59  91 120 158 200 248 312 373
#     4   9  21  37  59  88 120 163 208 251 304 370
#     4  10  17  36  60  82 121 170 202 233 313 382
#
# _framework density 19.940591000000001
#
# number of rings (size 3 to 8) (size 9 to 14) (size 15 to 20)
#    1.000    1.000    1.667    3.000    0.000    1.333 
#    0.000    1.667    0.000    4.000    0.000    0.000 
#    0.000    0.000    0.000    0.000    0.000    0.000 
#
# Total GULP energy -133775.746176 kJ/mol
# GULP energy per Si atom -5573.989424 kJ/mol
# Density = 1.989521 g / cm^3
# Si number density = 19.940591 Si / 1000 Ang^3
#
#
#
# Elastic Constant Matrix: (Units=GPa)
#
#
# Indices 1 2 3 4 5 6 
#
# 1 41.6786 38.0078 8.2336 0.0000 -16.4599 0.0000
# 2 38.0078 143.6631 28.5060 0.0000 -0.4236 0.0000
# 3 8.2336 28.5060 73.8646 0.0000 -8.1500 0.0000
# 4 0.0000 0.0000 0.0000 36.5371 0.0000 0.5236
# 5 -16.4599 -0.4236 -8.1500 0.0000 28.6938 0.0000
# 6 0.0000 0.0000 0.0000 0.5236 0.0000 33.1026
#
#
#
# Elastic Compliance Matrix: (Units=1/GPa)
#
#
# Indices 1 2 3 4 5 6 
#
# 1 0.045295 -0.012437 0.002681 0.000000 0.026561 0.000000
# 2 -0.012437 0.010968 -0.003733 0.000000 -0.008033 0.000000
# 3 0.002681 -0.003733 0.015324 0.000000 0.005836 0.000000
# 4 0.000000 0.000000 0.000000 0.027376 0.000000 -0.000433
# 5 0.026561 -0.008033 0.005836 0.000000 0.051626 0.000000
# 6 0.000000 0.000000 0.000000 -0.000433 0.000000 0.030216
#
#
# Mechanical properties :
#
#
# Convention : Reuss Voigt Hill
#
# Bulk Modulus (GPa) = 22.41661 45.41124 33.91393
# Shear Modulus (GPa) = 22.45671 31.96394 27.21032
#
# Velocity S-wave (km/s) = 3.35950 4.00804 3.69802
# Velocity P-wave (km/s) = 5.12976 6.65146 5.93954
#
# Compressibility (1/GPa) = 0.04460977
#
# Stress axis : x y z
#
# Youngs Moduli (GPa) = 22.07770 91.17385 65.25789
#
# Poissons Ratio (x) = 1.13393 -0.17498
# Poissons Ratio (y) = 0.27458 0.24359
# Poissons Ratio (z) = -0.05920 0.34033
#
# Static dielectric constant tensor:
#      x y z
#    x 1.707390 0.000000 -0.013090 
#    y 0.000000 1.735930 0.000000 
#    z -0.013090 0.000000 1.740080 
# 
# From -- ./inp_files/236587.got.cif
#   From: 2010.05.17/outbox.cif.g08.bks.cpg/sg15_119_cif.got.tgz:236587.got - 2010.06.03 18:47:42.
