data_PCOD9256519
_publ_section_title
;
Structure prediction by ZEFSAII (Michael W. Deem and Ramdas Pophale) SiO2 
 PCOD9256519
Probable space group: C 2/C
;
_chemical_formula_sum "Si O2"
_cell_formula_units_Z 60
_cell_length_a 21.366343
_cell_length_b 18.658769
_cell_length_c 8.900915
_cell_angle_alpha 90.000000
_cell_angle_beta 101.152580
_cell_angle_gamma 90.000000
_cell_volume 3481.512892
_symmetry_space_group_name_H-M "C 2/C"
_symmetry_group_IT_number 15
_symmetry_cell_setting 'monoclinic'
loop_
_space_group_symop_operation_xyz
x,y,z
-x,y,1/2-z
-x,-y,-z
x,-y,1/2+z
1/2+x,1/2+y,z
1/2-x,1/2+y,1/2-z
1/2-x,1/2-y,-z
1/2+x,1/2-y,1/2+z
loop_
_atom_site_type_symbol
_atom_site_label
_atom_site_fract_x
_atom_site_fract_y
_atom_site_fract_z
Si Si1 0.067589 0.841723 0.361203
Si Si2 0.334339 0.933965 0.821720
Si Si3 0.578968 0.061664 0.522755
Si Si4 0.922538 0.675167 0.194603
Si Si5 0.248245 0.477848 0.455009
Si Si6 0.500000 0.030492 0.750000
Si Si7 0.041502 0.056424 0.119151
Si Si8 0.840742 0.045080 0.742170
O O1 0.084953 0.759086 0.339423
O O2 0.058073 0.874225 0.524526
O O3 0.119338 0.889146 0.300495
O O4 0.000000 0.854134 0.250000
O O5 0.380598 0.867085 0.801833
O O6 0.374605 0.004472 0.883452
O O7 0.292571 0.963634 0.660962
O O8 0.293057 0.926144 0.955410
O O9 0.602325 0.134820 0.465729
O O10 0.530266 0.077109 0.633547
O O11 0.546903 0.020751 0.366488
O O12 0.000000 0.664293 0.250000
O O13 0.294387 0.518860 0.589839
O O14 0.294585 0.438487 0.359975
O O15 0.000000 0.071736 0.250000
O O16 0.107496 0.016261 0.191922
O O17 0.000000 0.000000 0.000000
#
# Coordination Sequence:
#
# PCOD9256519 Si02
#       8
#     8   8   8   8   8   4   8   8
#     4  11  23  38  59  92 125 153 182 245 313 355
#     4  11  20  37  58  87 113 156 205 251 277 346
#     4  11  17  33  54  79 110 147 193 232 281 335
#     4  11  22  37  58  86 125 154 187 246 313 352
#     4  10  22  34  62  86 112 149 217 247 273 330
#     4  10  18  26  54  82  98 138 198 228 272 338
#     4  12  19  35  66  95 116 149 197 241 294 366
#     4  11  19  37  61  89 113 150 198 246 287 356
#
# _framework density 17.233888
#
# number of rings (size 3 to 8) (size 9 to 14) (size 15 to 20)
#    0.000    1.067    7.333    0.800    0.000    0.000 
#    1.200    1.333    0.000    0.000    0.000    0.000 
#    0.000    0.000    0.000    0.000    0.000    0.000 
#
# Total GULP energy -167019.722811 kJ/mol
# GULP energy per Si atom -5567.324094 kJ/mol
# Density = 1.719466 g / cm^3
# Si number density = 17.233888 Si / 1000 Ang^3
#
#
#
# Elastic Constant Matrix: (Units=GPa)
#
#
# Indices 1 2 3 4 5 6 
#
# 1 118.1014 59.6636 56.2729 0.0000 -30.0212 0.0000
# 2 59.6636 101.3927 41.5672 0.0000 -16.9070 0.0000
# 3 56.2729 41.5672 112.9512 0.0000 -12.3548 0.0000
# 4 0.0000 0.0000 0.0000 24.3752 0.0000 4.1383
# 5 -30.0212 -16.9070 -12.3548 0.0000 52.7375 0.0000
# 6 0.0000 0.0000 0.0000 4.1383 0.0000 26.8451
#
#
#
# Elastic Compliance Matrix: (Units=1/GPa)
#
#
# Indices 1 2 3 4 5 6 
#
# 1 0.015218 -0.006081 -0.004731 0.000000 0.005605 0.000000
# 2 -0.006081 0.014460 -0.002220 0.000000 0.000654 0.000000
# 3 -0.004731 -0.002220 0.011962 0.000000 -0.000603 0.000000
# 4 0.000000 0.000000 0.000000 0.042128 0.000000 -0.006494
# 5 0.005605 0.000654 -0.000603 0.000000 0.022221 0.000000
# 6 0.000000 0.000000 0.000000 -0.006494 0.000000 0.038252
#
#
# Mechanical properties :
#
#
# Convention : Reuss Voigt Hill
#
# Bulk Modulus (GPa) = 64.20278 71.93918 68.07098
# Shear Modulus (GPa) = 28.49040 32.45432 30.47236
#
# Velocity S-wave (km/s) = 4.07032 4.34426 4.20952
# Velocity P-wave (km/s) = 7.70874 8.18516 7.95052
#
# Compressibility (1/GPa) = 0.01557565
#
# Stress axis : x y z
#
# Youngs Moduli (GPa) = 65.70993 69.15508 83.60113
#
# Poissons Ratio (x) = 0.42053 0.39551
# Poissons Ratio (y) = 0.39958 0.18563
# Poissons Ratio (z) = 0.31087 0.15355
#
# Static dielectric constant tensor:
#      x y z
#    x 1.685770 0.000000 -0.025530 
#    y 0.000000 1.576010 0.000000 
#    z -0.025530 0.000000 1.614380 
# 
# From -- ./inp_files/56698.got.cif
#   From: 2010.05.17/outbox.cif.g08.bks.cpg/sg15_29_cif.got.tgz:56698.got - 2010.06.03 18:47:42.
