data_PCOD9256242
_publ_section_title
;
Structure prediction by ZEFSAII (Michael W. Deem and Ramdas Pophale) SiO2 
 PCOD9256242
Probable space group: C 2/C
;
_chemical_formula_sum "Si O2"
_cell_formula_units_Z 60
_cell_length_a 21.070668
_cell_length_b 8.865423
_cell_length_c 13.844477
_cell_angle_alpha 90.000000
_cell_angle_beta 98.407959
_cell_angle_gamma 90.000000
_cell_volume 2558.357730
_symmetry_space_group_name_H-M "C 2/C"
_symmetry_group_IT_number 15
_symmetry_cell_setting 'monoclinic'
loop_
_space_group_symop_operation_xyz
x,y,z
-x,y,1/2-z
-x,-y,-z
x,-y,1/2+z
1/2+x,1/2+y,z
1/2-x,1/2+y,1/2-z
1/2-x,1/2-y,-z
1/2+x,1/2-y,1/2+z
loop_
_atom_site_type_symbol
_atom_site_label
_atom_site_fract_x
_atom_site_fract_y
_atom_site_fract_z
Si Si1 0.362924 0.381792 0.164455
Si Si2 0.780132 0.747265 0.323381
Si Si3 0.544205 0.060903 0.152620
Si Si4 0.034589 0.328152 0.445675
Si Si5 0.892643 0.783276 0.970130
Si Si6 0.327258 0.080987 0.797378
Si Si7 0.500000 0.650449 0.750000
Si Si8 0.853590 0.103859 0.011130
O O1 0.325112 0.317695 0.246945
O O2 0.435586 0.434993 0.206455
O O3 0.376252 0.261033 0.080396
O O4 0.327325 0.514767 0.098295
O O5 0.710815 0.818261 0.287286
O O6 0.787159 0.568625 0.313271
O O7 0.806969 0.803539 0.431892
O O8 0.560861 0.076974 0.042894
O O9 0.525896 0.228845 0.177855
O O10 0.604830 0.990204 0.218105
O O11 0.484679 0.947660 0.139891
O O12 0.088344 0.206537 0.439624
O O13 0.966165 0.253500 0.459934
O O14 0.845195 0.688407 0.891828
O O15 0.881326 0.962773 0.954599
#
# Coordination Sequence:
#
# PCOD9256242 Si02
#       8
#     8   8   8   8   8   8   4   8
#     4  10  24  38  67  99 131 172 226 272 342 411
#     4  12  24  44  67  91 134 184 231 274 337 405
#     4  10  20  34  64  93 128 168 214 277 335 403
#     4  10  17  35  62  93 126 165 213 267 351 394
#     4   9  21  38  65  97 127 171 219 277 337 405
#     4  11  23  42  65  92 127 182 226 274 335 407
#     4  12  18  40  62 102 126 172 220 276 344 412
#     4  10  21  40  65  97 131 177 213 284 336 400
#
# _framework density 23.452545000000001
#
# number of rings (size 3 to 8) (size 9 to 14) (size 15 to 20)
#    0.800    0.800    4.000    1.200    0.000    0.533 
#    0.000    5.333    2.933    0.000    0.000    0.000 
#    0.000    0.000    0.000    0.000    0.000    0.000 
#
# Total GULP energy -167456.931451 kJ/mol
# GULP energy per Si atom -5581.897715 kJ/mol
# Density = 2.339917 g / cm^3
# Si number density = 23.452545 Si / 1000 Ang^3
#
#
#
# Elastic Constant Matrix: (Units=GPa)
#
#
# Indices 1 2 3 4 5 6 
#
# 1 84.8506 21.6602 42.6862 0.0000 5.4557 0.0000
# 2 21.6602 90.4631 29.6967 0.0000 22.3678 0.0000
# 3 42.6862 29.6967 89.4292 0.0000 19.8624 0.0000
# 4 0.0000 0.0000 0.0000 69.4913 0.0000 9.7971
# 5 5.4557 22.3678 19.8624 0.0000 39.0704 0.0000
# 6 0.0000 0.0000 0.0000 9.7971 0.0000 28.4964
#
#
#
# Elastic Compliance Matrix: (Units=1/GPa)
#
#
# Indices 1 2 3 4 5 6 
#
# 1 0.015917 -0.002020 -0.007541 0.000000 0.002768 0.000000
# 2 -0.002020 0.013876 -0.002189 0.000000 -0.006549 0.000000
# 3 -0.007541 -0.002189 0.016905 0.000000 -0.006288 0.000000
# 4 0.000000 0.000000 0.000000 0.015123 0.000000 -0.005199
# 5 0.002768 -0.006549 -0.006288 0.000000 0.032154 0.000000
# 6 0.000000 0.000000 0.000000 -0.005199 0.000000 0.036880
#
#
# Mechanical properties :
#
#
# Convention : Reuss Voigt Hill
#
# Bulk Modulus (GPa) = 43.10857 50.31436 46.71147
# Shear Modulus (GPa) = 30.84737 38.79159 34.81948
#
# Velocity S-wave (km/s) = 3.63066 4.07141 3.85733
# Velocity P-wave (km/s) = 5.99972 6.60319 6.30867
#
# Compressibility (1/GPa) = 0.02319725
#
# Stress axis : x y z
#
# Youngs Moduli (GPa) = 62.82593 72.06817 59.15341
#
# Poissons Ratio (x) = 0.14556 0.44610
# Poissons Ratio (y) = 0.12689 0.12949
# Poissons Ratio (z) = 0.47380 0.15777
#
# Static dielectric constant tensor:
#      x y z
#    x 2.062590 0.000000 -0.157410 
#    y 0.000000 1.890050 0.000000 
#    z -0.157410 0.000000 2.041940 
# 
# From -- ./inp_files/213961.got.cif
#   From: 2010.05.17/outbox.cif.g08.bks.cpg/sg15_107_cif.got.tgz:213961.got - 2010.06.03 18:47:42.
