data_PCOD9256832
_publ_section_title
;
Structure prediction by ZEFSAII (Michael W. Deem and Ramdas Pophale) SiO2 
 PCOD9256832
Probable space group: C 2/C
;
_chemical_formula_sum "Si O2"
_cell_formula_units_Z 56
_cell_length_a 22.012868
_cell_length_b 9.227155
_cell_length_c 18.279488
_cell_angle_alpha 90.000000
_cell_angle_beta 125.216100
_cell_angle_gamma 90.000000
_cell_volume 3033.342386
_symmetry_space_group_name_H-M "C 2/C"
_symmetry_group_IT_number 15
_symmetry_cell_setting 'monoclinic'
loop_
_space_group_symop_operation_xyz
x,y,z
-x,y,1/2-z
-x,-y,-z
x,-y,1/2+z
1/2+x,1/2+y,z
1/2-x,1/2+y,1/2-z
1/2-x,1/2-y,-z
1/2+x,1/2-y,1/2+z
loop_
_atom_site_type_symbol
_atom_site_label
_atom_site_fract_x
_atom_site_fract_y
_atom_site_fract_z
Si Si1 0.302953 0.704487 0.643950
Si Si2 0.912644 0.680800 0.776835
Si Si3 0.180315 0.423127 0.962254
Si Si4 0.285355 0.364103 0.440716
Si Si5 0.212887 0.463332 0.765907
Si Si6 0.584070 0.188426 0.899588
Si Si7 0.201004 0.097166 0.314311
O O1 0.222600 0.668805 0.552628
O O2 0.345255 0.808298 0.616420
O O3 0.293125 0.799464 0.709204
O O4 0.335099 0.544882 0.675700
O O5 0.865024 0.542467 0.769997
O O6 0.911303 0.689779 0.686472
O O7 0.863238 0.814265 0.770334
O O8 0.997574 0.692090 0.859235
O O9 0.240992 0.527336 0.963817
O O10 0.118076 0.532804 0.945666
O O11 0.275310 0.449736 0.356906
O O12 0.364216 0.312523 0.527876
O O13 0.240303 0.213932 0.394880
O O14 0.237448 0.459151 0.699525
#
# Coordination Sequence:
#
# PCOD9256832 Si02
#       7
#     8   8   8   8   8   8   8
#     4  10  18  29  55  83 106 134 187 232 277 308
#     4  10  22  35  59  84 109 151 182 232 291 325
#     4  10  18  31  56  84 110 134 184 237 281 337
#     4  10  19  34  58  83 102 154 189 223 276 333
#     4  10  21  36  54  81 115 148 194 225 269 336
#     4  11  18  36  60  81 116 135 187 237 284 336
#     4  11  19  35  58  79 107 149 199 222 257 342
#
# _framework density 18.461483999999999
#
# number of rings (size 3 to 8) (size 9 to 14) (size 15 to 20)
#    0.000    1.714    5.714    3.000    0.000    0.000 
#    0.000    1.429   18.857    0.000    0.000    0.000 
#    0.000    0.000    0.000    0.000    0.000    0.000 
#
# Total GULP energy -155956.868671 kJ/mol
# GULP energy per Si atom -5569.888167 kJ/mol
# Density = 1.841946 g / cm^3
# Si number density = 18.461484 Si / 1000 Ang^3
#
#
#
# Elastic Constant Matrix: (Units=GPa)
#
#
# Indices 1 2 3 4 5 6 
#
# 1 63.2683 17.0662 26.4796 0.0000 19.4714 0.0000
# 2 17.0662 117.4217 21.6969 0.0000 8.5432 0.0000
# 3 26.4796 21.6969 55.2169 0.0000 27.0943 0.0000
# 4 0.0000 0.0000 0.0000 22.3769 0.0000 -4.3264
# 5 19.4714 8.5432 27.0943 0.0000 31.0439 0.0000
# 6 0.0000 0.0000 0.0000 -4.3264 0.0000 17.6458
#
#
#
# Elastic Compliance Matrix: (Units=1/GPa)
#
#
# Indices 1 2 3 4 5 6 
#
# 1 0.020966 -0.001434 -0.005653 0.000000 -0.007822 0.000000
# 2 -0.001434 0.009302 -0.003765 0.000000 0.001625 0.000000
# 3 -0.005653 -0.003765 0.035073 0.000000 -0.026029 0.000000
# 4 0.000000 0.000000 0.000000 0.046913 0.000000 0.011502
# 5 -0.007822 0.001625 -0.026029 0.000000 0.059388 0.000000
# 6 0.000000 0.000000 0.000000 0.011502 0.000000 0.059491
#
#
# Mechanical properties :
#
#
# Convention : Reuss Voigt Hill
#
# Bulk Modulus (GPa) = 22.91621 40.71026 31.81324
# Shear Modulus (GPa) = 18.69989 25.59094 22.14541
#
# Velocity S-wave (km/s) = 3.18608 3.72718 3.46720
# Velocity P-wave (km/s) = 5.09654 6.37353 5.77047
#
# Compressibility (1/GPa) = 0.04363724
#
# Stress axis : x y z
#
# Youngs Moduli (GPa) = 47.69740 107.50204 28.51217
#
# Poissons Ratio (x) = 0.15411 0.16117
# Poissons Ratio (y) = 0.06838 0.10736
# Poissons Ratio (z) = 0.26962 0.40478
#
# Static dielectric constant tensor:
#      x y z
#    x 1.634920 0.000000 -0.035600 
#    y 0.000000 1.672580 0.000000 
#    z -0.035600 0.000000 1.694990 
# 
# From -- ./inp_files/281386.got.cif
#   From: 2010.05.17/outbox.cif.g08.bks.cpg/sg15_141_cif.got.tgz:281386.got - 2010.06.03 18:47:42.
