data_PCOD9256529
_publ_section_title
;
Structure prediction by ZEFSAII (Michael W. Deem and Ramdas Pophale) SiO2 
 PCOD9256529
Probable space group: C 2/C
;
_chemical_formula_sum "Si O2"
_cell_formula_units_Z 56
_cell_length_a 19.730529
_cell_length_b 21.234573
_cell_length_c 12.768479
_cell_angle_alpha 90.000000
_cell_angle_beta 156.547502
_cell_angle_gamma 90.000000
_cell_volume 2129.080545
_symmetry_space_group_name_H-M "C 2/C"
_symmetry_group_IT_number 15
_symmetry_cell_setting 'monoclinic'
loop_
_space_group_symop_operation_xyz
x,y,z
-x,y,1/2-z
-x,-y,-z
x,-y,1/2+z
1/2+x,1/2+y,z
1/2-x,1/2+y,1/2-z
1/2-x,1/2-y,-z
1/2+x,1/2-y,1/2+z
loop_
_atom_site_type_symbol
_atom_site_label
_atom_site_fract_x
_atom_site_fract_y
_atom_site_fract_z
Si Si1 0.252531 0.806798 0.689939
Si Si2 0.181071 0.329188 0.095302
Si Si3 0.898807 0.940959 0.408928
Si Si4 0.234755 0.119222 0.376837
Si Si5 0.423554 0.016676 0.509825
Si Si6 0.347979 0.199692 0.712359
Si Si7 0.625664 0.909199 0.767060
O O1 0.453847 0.788717 0.982810
O O2 0.227145 0.865320 0.573477
O O3 0.175206 0.741002 0.543487
O O4 0.200309 0.831124 0.732436
O O5 0.298618 0.383067 0.207328
O O6 0.239447 0.316629 0.300479
O O7 0.997673 0.359905 0.852815
O O8 0.741263 0.970742 0.247972
O O9 0.058467 0.902818 0.679558
O O10 0.000000 0.000000 0.500000
O O11 0.348278 0.143266 0.631110
O O12 0.334534 0.063125 0.464424
O O13 0.590200 0.974951 0.777672
O O14 0.451751 0.061325 0.450252
O O15 0.250000 0.250000 0.500000
#
# Coordination Sequence:
#
# PCOD9256529 Si02
#       7
#     8   8   8   8   8   8   8
#     4  10  19  28  40  62  92 121 153 185 220 257
#     4  10  19  28  42  61  90 123 155 182 217 261
#     4   9  18  30  44  58  74 109 162 201 228 253
#     4  10  18  27  42  59  83 119 158 189 218 254
#     4   8  15  31  45  56  73 106 162 200 228 255
#     4  11  20  28  38  59  94 131 156 179 205 255
#     4   8  16  29  45  59  77 111 157 195 227 256
#
# _framework density 26.302434000000002
#
# number of rings (size 3 to 8) (size 9 to 14) (size 15 to 20)
#    0.000    2.571    1.429    1.286    2.000    1.714 
#    0.000    0.000    0.000    0.000    0.000    0.000 
#    0.000    0.000    0.000    1.286  179.714  348.286 
#
# Total GULP energy -155949.676073 kJ/mol
# GULP energy per Si atom -5569.631288 kJ/mol
# Density = 2.624257 g / cm^3
# Si number density = 26.302434 Si / 1000 Ang^3
#
#
#
# Elastic Constant Matrix: (Units=GPa)
#
#
# Indices 1 2 3 4 5 6 
#
# 1 88.7224 23.9945 14.4214 0.0000 16.5866 0.0000
# 2 23.9945 153.5405 25.3213 0.0000 11.3608 0.0000
# 3 14.4214 25.3213 104.6233 0.0000 17.1664 0.0000
# 4 0.0000 0.0000 0.0000 40.2279 0.0000 3.9421
# 5 16.5866 11.3608 17.1664 0.0000 27.4827 0.0000
# 6 0.0000 0.0000 0.0000 3.9421 0.0000 42.5431
#
#
#
# Elastic Compliance Matrix: (Units=1/GPa)
#
#
# Indices 1 2 3 4 5 6 
#
# 1 0.013038 -0.001467 -0.000279 0.000000 -0.007088 0.000000
# 2 -0.001467 0.007047 -0.001304 0.000000 -0.001213 0.000000
# 3 -0.000279 -0.001304 0.010915 0.000000 -0.006110 0.000000
# 4 0.000000 0.000000 0.000000 0.025086 0.000000 -0.002325
# 5 -0.007088 -0.001213 -0.006110 0.000000 0.044982 0.000000
# 6 0.000000 0.000000 0.000000 -0.002325 0.000000 0.023721
#
#
# Mechanical properties :
#
#
# Convention : Reuss Voigt Hill
#
# Bulk Modulus (GPa) = 40.16190 52.70674 46.43432
# Shear Modulus (GPa) = 35.92197 40.92733 38.42465
#
# Velocity S-wave (km/s) = 3.69958 3.94893 3.82629
# Velocity P-wave (km/s) = 5.79238 6.39330 6.10024
#
# Compressibility (1/GPa) = 0.02489922
#
# Stress axis : x y z
#
# Youngs Moduli (GPa) = 76.69656 141.90318 91.61898
#
# Poissons Ratio (x) = 0.20818 0.02557
# Poissons Ratio (y) = 0.11252 0.11950
# Poissons Ratio (z) = 0.02141 0.18508
#
# Static dielectric constant tensor:
#      x y z
#    x 2.458870 0.000000 0.003980 
#    y 0.000000 2.262480 0.000000 
#    z 0.003980 0.000000 2.152170 
# 
# From -- ./inp_files/249861.got.cif
#   From: 2010.05.17/outbox.cif.g08.bks.cpg/sg15_125_cif.got.tgz:249861.got - 2010.06.03 18:47:42.
