data_PCOD9256971
_publ_section_title
;
Structure prediction by ZEFSAII (Michael W. Deem and Ramdas Pophale) SiO2 
 PCOD9256971
Probable space group: C 2/C
;
_chemical_formula_sum "Si O2"
_cell_formula_units_Z 48
_cell_length_a 13.247350
_cell_length_b 18.276744
_cell_length_c 6.962562
_cell_angle_alpha 90.000000
_cell_angle_beta 104.111923
_cell_angle_gamma 90.000000
_cell_volume 1634.890359
_symmetry_space_group_name_H-M "C 2/C"
_symmetry_group_IT_number 15
_symmetry_cell_setting 'monoclinic'
loop_
_space_group_symop_operation_xyz
x,y,z
-x,y,1/2-z
-x,-y,-z
x,-y,1/2+z
1/2+x,1/2+y,z
1/2-x,1/2+y,1/2-z
1/2-x,1/2-y,-z
1/2+x,1/2-y,1/2+z
loop_
_atom_site_type_symbol
_atom_site_label
_atom_site_fract_x
_atom_site_fract_y
_atom_site_fract_z
Si Si1 0.127604 0.320080 0.134456
Si Si2 0.610846 0.525811 0.901574
Si Si3 0.127712 0.183590 0.880898
Si Si4 0.844405 0.454354 0.555937
Si Si5 0.169084 0.383030 0.529610
Si Si6 0.093688 0.139497 0.444137
O O1 0.250242 0.317792 0.125857
O O2 0.116864 0.322792 0.360891
O O3 0.094710 0.251777 0.992688
O O4 0.087179 0.397617 0.034012
O O5 0.500000 0.517823 0.750000
O O6 0.606604 0.607267 0.983903
O O7 0.609308 0.447442 0.003560
O O8 0.731812 0.531951 0.896465
O O9 0.081339 0.177307 0.645190
O O10 0.866967 0.540009 0.588589
O O11 0.842111 0.408930 0.754923
O O12 0.288525 0.350599 0.582587
O O13 0.000000 0.152057 0.250000
#
# Coordination Sequence:
#
# PCOD9256971 Si02
#       6
#     8   8   8   8   8   8
#     4   9  18  34  48  68 100 132 170 206 254 289
#     4   9  19  28  46  70 100 136 173 199 233 288
#     4   9  18  33  46  62 102 140 160 215 250 276
#     4  10  18  30  50  75  99 132 167 206 245 292
#     4  10  18  30  50  75  99 132 167 206 245 292
#     4   9  19  28  46  70 100 136 173 199 233 288
#
# _framework density 29.359770999999999
#
# number of rings (size 3 to 8) (size 9 to 14) (size 15 to 20)
#    0.000    2.667    1.667    0.000    9.333    1.333 
#    0.000   13.333    0.000    0.000    0.000    0.000 
#    0.000    4.000    0.000    3.000    0.000    6.000 
#
# Total GULP energy -133606.780369 kJ/mol
# GULP energy per Si atom -5566.949182 kJ/mol
# Density = 2.929295 g / cm^3
# Si number density = 29.359771 Si / 1000 Ang^3
#
#
#
# Elastic Constant Matrix: (Units=GPa)
#
#
# Indices 1 2 3 4 5 6 
#
# 1 66.7872 23.6754 43.9915 0.0000 3.8354 0.0000
# 2 23.6754 145.7107 77.9957 0.0000 14.9598 0.0000
# 3 43.9915 77.9957 197.4902 0.0000 -6.6051 0.0000
# 4 0.0000 0.0000 0.0000 72.1935 0.0000 0.2155
# 5 3.8354 14.9598 -6.6051 0.0000 52.0068 0.0000
# 6 0.0000 0.0000 0.0000 0.2155 0.0000 39.5404
#
#
#
# Elastic Compliance Matrix: (Units=1/GPa)
#
#
# Indices 1 2 3 4 5 6 
#
# 1 0.017775 -0.000734 -0.003722 0.000000 -0.001572 0.000000
# 2 -0.000734 0.009209 -0.003575 0.000000 -0.003049 0.000000
# 3 -0.003722 -0.003575 0.007380 0.000000 0.002240 0.000000
# 4 0.000000 0.000000 0.000000 0.013852 0.000000 -0.000075
# 5 -0.001572 -0.003049 0.002240 0.000000 0.020506 0.000000
# 6 0.000000 0.000000 0.000000 -0.000075 0.000000 0.025291
#
#
# Mechanical properties :
#
#
# Convention : Reuss Voigt Hill
#
# Bulk Modulus (GPa) = 54.64397 77.92371 66.28384
# Shear Modulus (GPa) = 43.03807 50.36983 46.70395
#
# Velocity S-wave (km/s) = 3.83284 4.14648 3.99274
# Velocity P-wave (km/s) = 6.18384 7.03726 6.62431
#
# Compressibility (1/GPa) = 0.01830028
#
# Stress axis : x y z
#
# Youngs Moduli (GPa) = 56.25815 108.58844 135.50886
#
# Poissons Ratio (x) = 0.07975 0.50437
# Poissons Ratio (y) = 0.04132 0.48449
# Poissons Ratio (z) = 0.20939 0.38824
#
# Static dielectric constant tensor:
#      x y z
#    x 2.551660 0.000000 -0.085770 
#    y 0.000000 2.329720 0.000000 
#    z -0.085770 0.000000 2.492280 
# 
# From -- ./inp_files/47969.got.cif
#   From: 2010.05.17/outbox.cif.g08.bks.cpg/sg15_24_cif.got.tgz:47969.got - 2010.06.03 18:47:42.
