data_PCOD9256419
_publ_section_title
;
Structure prediction by ZEFSAII (Michael W. Deem and Ramdas Pophale) SiO2 
 PCOD9256419
Probable space group: C 2/C
;
_chemical_formula_sum "Si O2"
_cell_formula_units_Z 56
_cell_length_a 16.363010
_cell_length_b 8.986077
_cell_length_c 25.956072
_cell_angle_alpha 90.000000
_cell_angle_beta 126.022980
_cell_angle_gamma 90.000000
_cell_volume 3086.763383
_symmetry_space_group_name_H-M "C 2/C"
_symmetry_group_IT_number 15
_symmetry_cell_setting 'monoclinic'
loop_
_space_group_symop_operation_xyz
x,y,z
-x,y,1/2-z
-x,-y,-z
x,-y,1/2+z
1/2+x,1/2+y,z
1/2-x,1/2+y,1/2-z
1/2-x,1/2-y,-z
1/2+x,1/2-y,1/2+z
loop_
_atom_site_type_symbol
_atom_site_label
_atom_site_fract_x
_atom_site_fract_y
_atom_site_fract_z
Si Si1 0.069856 0.293497 0.323514
Si Si2 0.719444 0.857664 0.618522
Si Si3 0.600393 0.339056 0.155242
Si Si4 0.791485 0.601014 0.799666
Si Si5 0.002141 0.439912 0.650108
Si Si6 0.042168 0.168490 0.117457
Si Si7 0.063109 0.585223 0.980275
O O1 0.180617 0.237081 0.352541
O O2 0.000000 0.253618 0.250000
O O3 0.060228 0.470807 0.330264
O O4 0.023143 0.213611 0.356428
O O5 0.640259 0.758779 0.622035
O O6 0.672501 0.897748 0.545833
O O7 0.736592 0.003211 0.660583
O O8 0.696596 0.373145 0.227643
O O9 0.520305 0.235435 0.156008
O O10 0.553936 0.493278 0.119197
O O11 0.883821 0.509874 0.806942
O O12 0.847524 0.754531 0.835300
O O13 0.950879 0.492132 0.577346
O O14 0.986613 0.254877 0.050673
O O15 0.000000 0.500000 0.000000
#
# Coordination Sequence:
#
# PCOD9256419 Si02
#       7
#     8   8   8   8   8   8   8
#     4  10  20  37  55  80 110 146 186 222 280 337
#     4  11  20  34  62  79 105 150 187 229 268 339
#     4  11  19  33  54  84 109 140 185 231 285 318
#     4   9  17  32  53  79 105 142 185 223 271 331
#     4   9  20  34  54  75 115 148 173 237 274 330
#     4  10  21  33  55  82 114 144 178 240 276 329
#     4  10  17  38  56  79 108 147 194 219 273 330
#
# _framework density 18.14198
#
# number of rings (size 3 to 8) (size 9 to 14) (size 15 to 20)
#    0.000    2.286    4.286    4.286    0.000    2.857 
#    0.000    3.571    0.000    1.714    0.000    0.000 
#    0.000    0.000    0.000    0.000    0.000    0.000 
#
# Total GULP energy -156060.518080 kJ/mol
# GULP energy per Si atom -5573.589931 kJ/mol
# Density = 1.810069 g / cm^3
# Si number density = 18.141980 Si / 1000 Ang^3
#
#
#
# Elastic Constant Matrix: (Units=GPa)
#
#
# Indices 1 2 3 4 5 6 
#
# 1 52.6618 16.8602 -5.1111 0.0000 4.1798 0.0000
# 2 16.8602 113.0174 3.6811 0.0000 7.7735 0.0000
# 3 -5.1111 3.6811 66.9010 0.0000 6.4706 0.0000
# 4 0.0000 0.0000 0.0000 18.0288 0.0000 -0.8398
# 5 4.1798 7.7735 6.4706 0.0000 15.8386 0.0000
# 6 0.0000 0.0000 0.0000 -0.8398 0.0000 31.1078
#
#
#
# Elastic Compliance Matrix: (Units=1/GPa)
#
#
# Indices 1 2 3 4 5 6 
#
# 1 0.020487 -0.002788 0.002196 0.000000 -0.004935 0.000000
# 2 -0.002788 0.009537 -0.000371 0.000000 -0.003793 0.000000
# 3 0.002196 -0.000371 0.015798 0.000000 -0.006852 0.000000
# 4 0.000000 0.000000 0.000000 0.055537 0.000000 0.001499
# 5 -0.004935 -0.003793 -0.006852 0.000000 0.069100 0.000000
# 6 0.000000 0.000000 0.000000 0.001499 0.000000 0.032187
#
#
# Mechanical properties :
#
#
# Convention : Reuss Voigt Hill
#
# Bulk Modulus (GPa) = 22.78147 29.27120 26.02634
# Shear Modulus (GPa) = 22.80980 27.47170 25.14075
#
# Velocity S-wave (km/s) = 3.54968 3.89557 3.72664
# Velocity P-wave (km/s) = 5.42078 6.03353 5.73535
#
# Compressibility (1/GPa) = 0.04389532
#
# Stress axis : x y z
#
# Youngs Moduli (GPa) = 48.81239 104.85304 63.29795
#
# Poissons Ratio (x) = 0.29236 -0.13899
# Poissons Ratio (y) = 0.13610 0.02348
# Poissons Ratio (z) = -0.10718 0.03889
#
# Static dielectric constant tensor:
#      x y z
#    x 1.626100 0.000000 0.000800 
#    y 0.000000 1.660130 0.000000 
#    z 0.000800 0.000000 1.654580 
# 
# From -- ./inp_files/276349.got.cif
#   From: 2010.05.17/outbox.cif.g08.bks.cpg/sg15_139_cif.got.tgz:276349.got - 2010.06.03 18:47:42.
