data_PCOD9256714
_publ_section_title
;
Structure prediction by ZEFSAII (Michael W. Deem and Ramdas Pophale) SiO2 
 PCOD9256714
Probable space group: C 2/C
;
_chemical_formula_sum "Si O2"
_cell_formula_units_Z 60
_cell_length_a 25.623335
_cell_length_b 22.949163
_cell_length_c 8.758847
_cell_angle_alpha 90.000000
_cell_angle_beta 44.462210
_cell_angle_gamma 90.000000
_cell_volume 3607.609871
_symmetry_space_group_name_H-M "C 2/C"
_symmetry_group_IT_number 15
_symmetry_cell_setting 'monoclinic'
loop_
_space_group_symop_operation_xyz
x,y,z
-x,y,1/2-z
-x,-y,-z
x,-y,1/2+z
1/2+x,1/2+y,z
1/2-x,1/2+y,1/2-z
1/2-x,1/2-y,-z
1/2+x,1/2-y,1/2+z
loop_
_atom_site_type_symbol
_atom_site_label
_atom_site_fract_x
_atom_site_fract_y
_atom_site_fract_z
Si Si1 0.992301 0.193593 0.445651
Si Si2 0.837668 0.812474 0.408778
Si Si3 0.150703 0.200836 0.256262
Si Si4 0.686551 0.173623 0.075741
Si Si5 0.000000 0.507175 0.750000
Si Si6 0.425454 0.077975 0.633225
Si Si7 0.193782 0.665271 0.701513
Si Si8 0.530886 0.168591 0.516056
O O1 0.070300 0.180777 0.364925
O O2 0.000000 0.180890 0.250000
O O3 0.916681 0.167719 0.674659
O O4 0.980480 0.263179 0.488726
O O5 0.838992 0.815550 0.588423
O O6 0.765452 0.842110 0.485106
O O7 0.825065 0.743821 0.397315
O O8 0.158010 0.271753 0.229321
O O9 0.219261 0.173544 0.019249
O O10 0.616512 0.150649 0.317592
O O11 0.683174 0.157237 0.905043
O O12 0.048083 0.544892 0.769135
O O13 0.057910 0.467116 0.535989
O O14 0.346548 0.111030 0.796122
O O15 0.483463 0.131335 0.496955
O O16 0.500000 0.158710 0.750000
#
# Coordination Sequence:
#
# PCOD9256714 Si02
#       8
#     8   8   8   8   4   8   8   8
#     4  10  18  29  44  66  97 135 169 203 238 297
#     4   9  18  28  42  60  98 128 166 205 237 279
#     4  10  19  29  46  74  94 130 168 209 243 309
#     4   9  18  30  41  65  89 130 168 206 241 292
#     4  10  24  34  52  66  98 126 186 220 266 280
#     4  11  20  37  48  72  91 133 163 228 255 304
#     4  10  20  31  50  67  99 125 168 211 260 298
#     4  10  19  28  50  66  90 127 177 208 250 296
#
# _framework density 16.631509999999999
#
# number of rings (size 3 to 8) (size 9 to 14) (size 15 to 20)
#    0.000    2.133    2.000    2.000    1.867    3.200 
#    0.000    0.000    0.000    0.000    0.000    0.000 
#    0.000    0.000    0.000   54.000    0.000    0.000 
#
# Total GULP energy -167178.622673 kJ/mol
# GULP energy per Si atom -5572.620756 kJ/mol
# Density = 1.659366 g / cm^3
# Si number density = 16.631510 Si / 1000 Ang^3
#
#
#
# Elastic Constant Matrix: (Units=GPa)
#
#
# Indices 1 2 3 4 5 6 
#
# 1 94.8462 14.7397 52.6001 0.0000 -21.7921 0.0000
# 2 14.7397 31.6315 18.9028 0.0000 3.1172 0.0000
# 3 52.6001 18.9028 125.3610 0.0000 -19.5880 0.0000
# 4 0.0000 0.0000 0.0000 2.5966 0.0000 -9.7467
# 5 -21.7921 3.1172 -19.5880 0.0000 25.4939 0.0000
# 6 0.0000 0.0000 0.0000 -9.7467 0.0000 15.7154
#
#
#
# Elastic Compliance Matrix: (Units=1/GPa)
#
#
# Indices 1 2 3 4 5 6 
#
# 1 0.016525 -0.006382 -0.004139 0.000000 0.011725 0.000000
# 2 -0.006382 0.039313 -0.005516 0.000000 -0.014500 0.000000
# 3 -0.004139 -0.005516 0.011476 0.000000 0.005953 0.000000
# 4 0.000000 0.000000 0.000000 -0.290001 0.000000 -0.179858
# 5 0.011725 -0.014500 0.005953 0.000000 0.055595 0.000000
# 6 0.000000 0.000000 0.000000 -0.179858 0.000000 -0.047916
#
#
# Mechanical properties :
#
#
# Convention : Reuss Voigt Hill
#
# Bulk Modulus (GPa) = 28.37730 47.14712 37.76221
# Shear Modulus (GPa) = -29.20767 19.80093 -4.70337
#
# Velocity S-wave (km/s) = -4.19521 3.45420 -1.68349
# Velocity P-wave (km/s) = 2.52328 6.65720 4.35611
#
# Compressibility (1/GPa) = 0.03523943
#
# Stress axis : x y z
#
# Youngs Moduli (GPa) = 60.51521 25.43676 87.14113
#
# Poissons Ratio (x) = 0.16234 0.36069
# Poissons Ratio (y) = 0.38622 0.48065
# Poissons Ratio (z) = 0.25048 0.14030
#
# Static dielectric constant tensor:
#      x y z
#    x 1.580280 0.000000 -0.006840 
#    y 0.000000 1.554650 0.000000 
#    z -0.006840 0.000000 1.588830 
# 
# From -- ./inp_files/67651.got.cif
#   From: 2010.05.17/outbox.cif.g08.bks.cpg/sg15_34_cif.got.tgz:67651.got - 2010.06.03 18:47:42.
