data_PCOD9256774
_publ_section_title
;
Structure prediction by ZEFSAII (Michael W. Deem and Ramdas Pophale) SiO2 
 PCOD9256774
Probable space group: C 2/C
;
_chemical_formula_sum "Si O2"
_cell_formula_units_Z 52
_cell_length_a 15.612746
_cell_length_b 28.409197
_cell_length_c 9.100248
_cell_angle_alpha 90.000000
_cell_angle_beta 139.206659
_cell_angle_gamma 90.000000
_cell_volume 2637.095292
_symmetry_space_group_name_H-M "C 2/C"
_symmetry_group_IT_number 15
_symmetry_cell_setting 'monoclinic'
loop_
_space_group_symop_operation_xyz
x,y,z
-x,y,1/2-z
-x,-y,-z
x,-y,1/2+z
1/2+x,1/2+y,z
1/2-x,1/2+y,1/2-z
1/2-x,1/2-y,-z
1/2+x,1/2-y,1/2+z
loop_
_atom_site_type_symbol
_atom_site_label
_atom_site_fract_x
_atom_site_fract_y
_atom_site_fract_z
Si Si1 0.233222 0.803827 0.935066
Si Si2 0.852271 0.950232 0.007500
Si Si3 0.500000 0.138626 0.750000
Si Si4 0.112188 0.564095 0.700325
Si Si5 0.558208 0.650200 0.973891
Si Si6 0.620311 0.380555 0.000580
Si Si7 0.807772 0.492641 0.444447
O O1 0.142153 0.813380 0.676246
O O2 0.162047 0.832615 0.972864
O O3 0.250000 0.750000 0.000000
O O4 0.371254 0.829385 0.083596
O O5 0.859006 0.896589 0.959456
O O6 0.000000 0.963135 0.250000
O O7 0.763098 0.957391 0.035197
O O8 0.794031 0.982865 0.802141
O O9 0.513211 0.104634 0.624108
O O10 0.085842 0.532941 0.521884
O O11 0.252164 0.587506 0.841517
O O12 0.138427 0.532891 0.878452
O O13 0.500000 0.670766 0.750000
O O14 0.439317 0.630956 0.919614
O O15 0.500000 0.402090 0.750000
#
# Coordination Sequence:
#
# PCOD9256774 Si02
#       7
#     8   8   4   8   8   8   8
#     4  10  22  39  66  89 109 146 196 245 295 377
#     4  10  18  29  48  81 119 159 199 243 290 329
#     4  10  22  38  62  82 116 146 198 242 292 358
#     4  10  20  35  50  81 113 160 197 242 283 330
#     4  10  20  36  60  89 122 156 188 251 312 346
#     4   9  18  34  56  81 116 153 191 242 299 350
#     4  10  20  30  49  76 119 159 209 236 269 341
#
# _framework density 19.718665999999999
#
# number of rings (size 3 to 8) (size 9 to 14) (size 15 to 20)
#    0.000    2.154    0.000    5.077    3.231    4.308 
#    0.000    0.769    0.000   13.846    0.000    0.000 
#    0.000    0.000    0.000    0.000    0.000    0.000 
#
# Total GULP energy -145250.376745 kJ/mol
# GULP energy per Si atom -5586.552952 kJ/mol
# Density = 1.967379 g / cm^3
# Si number density = 19.718666 Si / 1000 Ang^3
#
#
#
# Elastic Constant Matrix: (Units=GPa)
#
#
# Indices 1 2 3 4 5 6 
#
# 1 138.6744 52.0609 55.8459 0.0000 -10.3694 0.0000
# 2 52.0609 117.2242 54.7356 0.0000 -10.8940 0.0000
# 3 55.8459 54.7356 80.4355 0.0000 -23.2511 0.0000
# 4 0.0000 0.0000 0.0000 23.1675 0.0000 3.9885
# 5 -10.3694 -10.8940 -23.2511 0.0000 37.2348 0.0000
# 6 0.0000 0.0000 0.0000 3.9885 0.0000 5.6977
#
#
#
# Elastic Compliance Matrix: (Units=1/GPa)
#
#
# Indices 1 2 3 4 5 6 
#
# 1 0.010348 -0.001715 -0.006503 0.000000 -0.001681 0.000000
# 2 -0.001715 0.012914 -0.008106 0.000000 -0.001761 0.000000
# 3 -0.006503 -0.008106 0.025936 0.000000 0.012013 0.000000
# 4 0.000000 0.000000 0.000000 0.049079 0.000000 -0.034356
# 5 -0.001681 -0.001761 0.012013 0.000000 0.033375 0.000000
# 6 0.000000 0.000000 0.000000 -0.034356 0.000000 0.199558
#
#
# Mechanical properties :
#
#
# Convention : Reuss Voigt Hill
#
# Bulk Modulus (GPa) = 60.42666 73.51320 66.96993
# Shear Modulus (GPa) = 13.53639 24.79945 19.16792
#
# Velocity S-wave (km/s) = 2.62291 3.55020 3.12119
# Velocity P-wave (km/s) = 6.31536 7.35984 6.85751
#
# Compressibility (1/GPa) = 0.01654899
#
# Stress axis : x y z
#
# Youngs Moduli (GPa) = 96.63266 77.43753 38.55648
#
# Poissons Ratio (x) = 0.13284 0.25075
# Poissons Ratio (y) = 0.16577 0.31252
# Poissons Ratio (z) = 0.62845 0.62768
#
# Static dielectric constant tensor:
#      x y z
#    x 1.707520 0.000000 0.021290 
#    y 0.000000 1.691650 0.000000 
#    z 0.021290 0.000000 1.725870 
# 
# From -- ./inp_files/43650.got.cif
#   From: 2010.05.17/outbox.cif.g08.bks.cpg/sg15_22_cif.got.tgz:43650.got - 2010.06.03 18:47:42.
