data_PCOD9256102
_publ_section_title
;
Structure prediction by ZEFSAII (Michael W. Deem and Ramdas Pophale) SiO2 
 PCOD9256102
Probable space group: C 2/C
;
_chemical_formula_sum "Si O2"
_cell_formula_units_Z 48
_cell_length_a 19.311430
_cell_length_b 10.189495
_cell_length_c 15.482767
_cell_angle_alpha 90.000000
_cell_angle_beta 117.061461
_cell_angle_gamma 90.000000
_cell_volume 2713.056708
_symmetry_space_group_name_H-M "C 2/C"
_symmetry_group_IT_number 15
_symmetry_cell_setting 'monoclinic'
loop_
_space_group_symop_operation_xyz
x,y,z
-x,y,1/2-z
-x,-y,-z
x,-y,1/2+z
1/2+x,1/2+y,z
1/2-x,1/2+y,1/2-z
1/2-x,1/2-y,-z
1/2+x,1/2-y,1/2+z
loop_
_atom_site_type_symbol
_atom_site_label
_atom_site_fract_x
_atom_site_fract_y
_atom_site_fract_z
Si Si1 0.423903 0.310954 0.154574
Si Si2 0.693272 0.943252 0.731259
Si Si3 0.177191 0.143071 0.756281
Si Si4 0.569752 0.905906 0.507875
Si Si5 0.913845 0.498165 0.173111
Si Si6 0.520033 0.639204 0.550837
O O1 0.500000 0.358760 0.250000
O O2 0.350048 0.374028 0.159552
O O3 0.445457 0.329067 0.068034
O O4 0.418384 0.155512 0.165860
O O5 0.765294 0.031934 0.744038
O O6 0.648060 0.015587 0.784708
O O7 0.710925 0.791531 0.767021
O O8 0.635710 0.927931 0.617155
O O9 0.097944 0.137464 0.654374
O O10 0.600120 0.939143 0.429459
O O11 0.537173 0.757696 0.495055
O O12 0.500000 0.000000 0.500000
O O13 0.000000 0.452479 0.250000
O O14 0.500000 0.500000 0.500000
#
# Coordination Sequence:
#
# PCOD9256102 Si02
#       6
#     8   8   8   8   8   8
#     4   8  15  33  58  73 101 148 183 216 273 333
#     4  10  21  38  57  80 118 147 184 232 277 333
#     4   9  20  39  56  77 110 153 181 226 283 329
#     4  11  19  35  61  85 107 143 194 233 267 328
#     4  10  17  34  59  84 107 143 191 233 272 321
#     4  10  20  36  56  82 113 139 182 236 281 330
#
# _framework density 17.692221
#
# number of rings (size 3 to 8) (size 9 to 14) (size 15 to 20)
#    0.000    2.333    3.333    2.000    0.000    1.333 
#    6.000    4.167    0.000    0.000    0.000    0.000 
#    0.000    0.000    0.000    0.000    0.000    0.000 
#
# Total GULP energy -133612.547886 kJ/mol
# GULP energy per Si atom -5567.189495 kJ/mol
# Density = 1.765195 g / cm^3
# Si number density = 17.692221 Si / 1000 Ang^3
#
#
#
# Elastic Constant Matrix: (Units=GPa)
#
#
# Indices 1 2 3 4 5 6 
#
# 1 126.8117 59.9559 31.8809 0.0000 -32.7999 0.0000
# 2 59.9559 72.9136 12.4722 0.0000 -6.6785 0.0000
# 3 31.8809 12.4722 53.3346 0.0000 -26.9476 0.0000
# 4 0.0000 0.0000 0.0000 22.3846 0.0000 1.2269
# 5 -32.7999 -6.6785 -26.9476 0.0000 27.4922 0.0000
# 6 0.0000 0.0000 0.0000 1.2269 0.0000 34.4265
#
#
#
# Elastic Compliance Matrix: (Units=1/GPa)
#
#
# Indices 1 2 3 4 5 6 
#
# 1 0.020420 -0.015186 0.003547 0.000000 0.024151 0.000000
# 2 -0.015186 0.025582 -0.005783 0.000000 -0.017572 0.000000
# 3 0.003547 -0.005783 0.038454 0.000000 0.040520 0.000000
# 4 0.000000 0.000000 0.000000 0.044761 0.000000 -0.001595
# 5 0.024151 -0.017572 0.040520 0.000000 0.100635 0.000000
# 6 0.000000 0.000000 0.000000 -0.001595 0.000000 0.029104
#
#
# Mechanical properties :
#
#
# Convention : Reuss Voigt Hill
#
# Bulk Modulus (GPa) = 20.15623 51.29752 35.72688
# Shear Modulus (GPa) = 16.11140 26.77740 21.44440
#
# Velocity S-wave (km/s) = 3.02097 3.89461 3.48527
# Velocity P-wave (km/s) = 4.85652 7.02007 6.03602
#
# Compressibility (1/GPa) = 0.04961245
#
# Stress axis : x y z
#
# Youngs Moduli (GPa) = 48.97058 39.09004 26.00477
#
# Poissons Ratio (x) = 0.59363 -0.09224
# Poissons Ratio (y) = 0.74367 0.15039
# Poissons Ratio (z) = -0.17370 0.22606
#
# Static dielectric constant tensor:
#      x y z
#    x 1.632810 0.000000 -0.044480 
#    y 0.000000 1.599660 0.000000 
#    z -0.044480 0.000000 1.701430 
# 
# From -- ./inp_files/152763.got.cif
#   From: 2010.05.17/outbox.cif.g08.bks.cpg/sg15_77_cif.got.tgz:152763.got - 2010.06.03 18:47:42.
