data_PCOD9256781
_publ_section_title
;
Structure prediction by ZEFSAII (Michael W. Deem and Ramdas Pophale) SiO2 
 PCOD9256781
Probable space group: C 2/C
;
_chemical_formula_sum "Si O2"
_cell_formula_units_Z 56
_cell_length_a 6.715759
_cell_length_b 17.398850
_cell_length_c 26.797149
_cell_angle_alpha 90.000000
_cell_angle_beta 136.862762
_cell_angle_gamma 90.000000
_cell_volume 2140.919912
_symmetry_space_group_name_H-M "C 2/C"
_symmetry_group_IT_number 15
_symmetry_cell_setting 'monoclinic'
loop_
_space_group_symop_operation_xyz
x,y,z
-x,y,1/2-z
-x,-y,-z
x,-y,1/2+z
1/2+x,1/2+y,z
1/2-x,1/2+y,1/2-z
1/2-x,1/2-y,-z
1/2+x,1/2-y,1/2+z
loop_
_atom_site_type_symbol
_atom_site_label
_atom_site_fract_x
_atom_site_fract_y
_atom_site_fract_z
Si Si1 0.853570 0.685727 0.145903
Si Si2 0.401201 0.828537 0.161454
Si Si3 0.551669 0.181963 0.942660
Si Si4 0.500000 0.046786 0.750000
Si Si5 0.922135 0.007597 0.151481
Si Si6 0.500000 0.606202 0.750000
Si Si7 0.971804 0.832771 0.807008
Si Si8 0.062151 0.948324 0.961245
O O1 0.760151 0.773656 0.112710
O O2 0.675350 0.679092 0.165662
O O3 0.694159 0.616527 0.086749
O O4 0.189337 0.667649 0.219890
O O5 0.328517 0.834023 0.090934
O O6 0.313476 0.897790 0.180501
O O7 0.338931 0.743416 0.166415
O O8 0.751702 0.841344 0.227881
O O9 0.750000 0.250000 0.000000
O O10 0.634126 0.101130 0.983049
O O11 0.734992 0.993067 0.768690
O O12 0.831751 0.091728 0.152612
O O13 0.919494 0.010007 0.090291
O O14 0.834753 0.941577 0.175469
O O15 0.000000 0.000000 0.000000
#
# Coordination Sequence:
#
# PCOD9256781 Si02
#       8
#     8   8   8   4   8   4   8   8
#     4   8  15  28  47  74  98 128 173 211 253 302
#     4  10  19  34  54  77 100 134 173 212 259 304
#     4   9  17  29  48  72  99 133 171 205 243 306
#     4  10  20  32  52  78 104 128 170 226 260 292
#     4  10  20  35  53  80 107 135 172 215 266 306
#     4  10  22  36  54  78 110 134 164 222 272 306
#     4   9  16  30  54  75  97 130 175 221 256 301
#     4  10  18  29  49  75 105 139 174 208 249 312
#
# _framework density 26.156980000000001
#
# number of rings (size 3 to 8) (size 9 to 14) (size 15 to 20)
#    0.000    2.571    0.000    5.143    0.000    1.714 
#    0.000    0.714    0.000    1.714    0.000   19.000 
#    0.000    0.000    0.000    0.000    0.000    0.000 
#
# Total GULP energy -156002.521195 kJ/mol
# GULP energy per Si atom -5571.518614 kJ/mol
# Density = 2.609745 g / cm^3
# Si number density = 26.156980 Si / 1000 Ang^3
#
#
#
# Elastic Constant Matrix: (Units=GPa)
#
#
# Indices 1 2 3 4 5 6 
#
# 1 46.4503 15.5360 17.3370 0.0000 -27.4097 0.0002
# 2 15.5360 153.5139 62.7669 0.0002 -32.0569 0.0000
# 3 17.3370 62.7669 135.2219 -0.0011 -32.5925 0.0012
# 4 0.0000 0.0002 -0.0011 42.1064 0.0002 -16.2526
# 5 -27.4097 -32.0569 -32.5925 0.0002 42.1093 0.0004
# 6 0.0002 0.0000 0.0012 -16.2526 0.0004 26.2987
#
#
#
# Elastic Compliance Matrix: (Units=1/GPa)
#
#
# Indices 1 2 3 4 5 6 
#
# 1 0.035292 0.001214 0.000825 0.000000 0.024536 -0.000001
# 2 0.001214 0.008662 -0.002946 0.000000 0.005104 0.000000
# 3 0.000825 -0.002946 0.010137 0.000000 0.006140 -0.000001
# 4 0.000000 0.000000 0.000000 0.031189 -0.000001 0.019275
# 5 0.024536 0.005104 0.006140 -0.000001 0.048357 -0.000002
# 6 -0.000001 0.000000 -0.000001 0.019275 -0.000002 0.049937
#
#
# Mechanical properties :
#
#
# Convention : Reuss Voigt Hill
#
# Bulk Modulus (GPa) = 19.12839 58.49622 38.81230
# Shear Modulus (GPa) = 24.65334 38.07260 31.36297
#
# Velocity S-wave (km/s) = 3.07337 3.81930 3.46646
# Velocity P-wave (km/s) = 4.46351 6.47004 5.55807
#
# Compressibility (1/GPa) = 0.05227832
#
# Stress axis : x y z
#
# Youngs Moduli (GPa) = 28.33476 115.45323 98.64939
#
# Poissons Ratio (x) = -0.14022 -0.08141
# Poissons Ratio (y) = -0.03441 0.29061
# Poissons Ratio (z) = -0.02338 0.34012
#
# Static dielectric constant tensor:
#      x y z
#    x 2.079440 0.000000 -0.057550 
#    y 0.000000 2.124140 0.000000 
#    z -0.057550 0.000000 2.147730 
# 
# From -- ./inp_files/289801.got.cif
#   From: 2010.05.17/outbox.cif.g08.bks.cpg/sg15_145_cif.got.tgz:289801.got - 2010.06.03 18:47:42.
