data_PCOD9256947
_publ_section_title
;
Structure prediction by ZEFSAII (Michael W. Deem and Ramdas Pophale) SiO2 
 PCOD9256947
Probable space group: C 2/C
;
_chemical_formula_sum "Si O2"
_cell_formula_units_Z 48
_cell_length_a 26.597238
_cell_length_b 11.457773
_cell_length_c 8.743359
_cell_angle_alpha 90.000000
_cell_angle_beta 92.975548
_cell_angle_gamma 90.000000
_cell_volume 2660.903619
_symmetry_space_group_name_H-M "C 2/C"
_symmetry_group_IT_number 15
_symmetry_cell_setting 'monoclinic'
loop_
_space_group_symop_operation_xyz
x,y,z
-x,y,1/2-z
-x,-y,-z
x,-y,1/2+z
1/2+x,1/2+y,z
1/2-x,1/2+y,1/2-z
1/2-x,1/2-y,-z
1/2+x,1/2-y,1/2+z
loop_
_atom_site_type_symbol
_atom_site_label
_atom_site_fract_x
_atom_site_fract_y
_atom_site_fract_z
Si Si1 0.999364 0.870037 0.932872
Si Si2 0.264975 0.987920 0.233995
Si Si3 0.199422 0.672632 0.009602
Si Si4 0.212189 0.145291 0.978605
Si Si5 0.389232 0.616860 0.405259
Si Si6 0.610278 0.353186 0.962879
O O1 0.943084 0.828499 0.962136
O O2 0.000000 0.878595 0.750000
O O3 0.052496 0.812196 0.985471
O O4 0.000000 0.000000 0.000000
O O5 0.291862 0.081203 0.350061
O O6 0.224304 0.912568 0.320122
O O7 0.231447 0.053954 0.105910
O O8 0.302739 0.904245 0.146628
O O9 0.250000 0.750000 0.000000
O O10 0.152384 0.759957 0.018381
O O11 0.250000 0.250000 0.000000
O O12 0.155835 0.177747 0.011143
O O13 0.385729 0.480166 0.455392
O O14 0.383807 0.627361 0.220425
#
# Coordination Sequence:
#
# PCOD9256947 Si02
#       6
#     8   8   8   8   8   8
#     4   8  16  29  46  71 100 128 156 195 245 297
#     4  10  22  34  47  74 104 131 171 206 239 300
#     4  11  21  35  52  73 103 139 170 206 255 300
#     4  11  20  32  49  72  99 130 161 199 248 292
#     4  10  18  30  49  76 104 129 163 204 246 304
#     4  10  19  32  51  74 103 135 162 198 253 305
#
# _framework density 18.038986999999999
#
# number of rings (size 3 to 8) (size 9 to 14) (size 15 to 20)
#    0.000    2.000    0.000    6.000    0.000    1.333 
#    0.000    0.000    0.000    0.000    0.000   31.500 
#    0.000    0.000    0.000    0.000    0.000    0.000 
#
# Total GULP energy -133788.016808 kJ/mol
# GULP energy per Si atom -5574.500700 kJ/mol
# Density = 1.799793 g / cm^3
# Si number density = 18.038987 Si / 1000 Ang^3
#
#
#
# Elastic Constant Matrix: (Units=GPa)
#
#
# Indices 1 2 3 4 5 6 
#
# 1 154.8724 34.9580 8.8012 0.0000 -21.4754 0.0000
# 2 34.9580 50.1913 11.2448 0.0000 -5.3097 0.0000
# 3 8.8012 11.2448 40.4257 0.0000 -5.3315 0.0000
# 4 0.0000 0.0000 0.0000 9.7304 0.0000 -3.1257
# 5 -21.4754 -5.3097 -5.3315 0.0000 22.2391 0.0000
# 6 0.0000 0.0000 0.0000 -3.1257 0.0000 28.5450
#
#
#
# Elastic Compliance Matrix: (Units=1/GPa)
#
#
# Indices 1 2 3 4 5 6 
#
# 1 0.008637 -0.005381 0.000565 0.000000 0.007191 0.000000
# 2 -0.005381 0.024912 -0.005844 0.000000 -0.000649 0.000000
# 3 0.000565 -0.005844 0.026980 0.000000 0.005618 0.000000
# 4 0.000000 0.000000 0.000000 0.106517 0.000000 0.011664
# 5 0.007191 -0.000649 0.005618 0.000000 0.053101 0.000000
# 6 0.000000 0.000000 0.000000 0.011664 0.000000 0.036310
#
#
# Mechanical properties :
#
#
# Convention : Reuss Voigt Hill
#
# Bulk Modulus (GPa) = 25.50433 39.49974 32.50203
# Shear Modulus (GPa) = 17.19118 24.80194 20.99656
#
# Velocity S-wave (km/s) = 3.09042 3.71200 3.41538
# Velocity P-wave (km/s) = 5.18685 6.34951 5.79740
#
# Compressibility (1/GPa) = 0.03920903
#
# Stress axis : x y z
#
# Youngs Moduli (GPa) = 115.78672 40.14084 37.06420
#
# Poissons Ratio (x) = 0.21601 -0.02094
# Poissons Ratio (y) = 0.62307 0.21659
# Poissons Ratio (z) = -0.06540 0.23457
#
# Static dielectric constant tensor:
#      x y z
#    x 1.677650 0.000000 -0.008730 
#    y 0.000000 1.553540 0.000000 
#    z -0.008730 0.000000 1.645010 
# 
# From -- ./inp_files/60557.got.cif
#   From: 2010.05.17/outbox.cif.g08.bks.cpg/sg15_31_cif.got.tgz:60557.got - 2010.06.03 18:47:42.
