data_PCOD9256236
_publ_section_title
;
Structure prediction by ZEFSAII (Michael W. Deem and Ramdas Pophale) SiO2 
 PCOD9256236
Probable space group: C 2/C
;
_chemical_formula_sum "Si O2"
_cell_formula_units_Z 56
_cell_length_a 11.784522
_cell_length_b 19.840694
_cell_length_c 13.716172
_cell_angle_alpha 90.000000
_cell_angle_beta 112.544248
_cell_angle_gamma 90.000000
_cell_volume 2961.952043
_symmetry_space_group_name_H-M "C 2/C"
_symmetry_group_IT_number 15
_symmetry_cell_setting 'monoclinic'
loop_
_space_group_symop_operation_xyz
x,y,z
-x,y,1/2-z
-x,-y,-z
x,-y,1/2+z
1/2+x,1/2+y,z
1/2-x,1/2+y,1/2-z
1/2-x,1/2-y,-z
1/2+x,1/2-y,1/2+z
loop_
_atom_site_type_symbol
_atom_site_label
_atom_site_fract_x
_atom_site_fract_y
_atom_site_fract_z
Si Si1 0.507588 0.595972 0.361022
Si Si2 0.846478 0.098527 0.817691
Si Si3 0.264584 0.953671 0.720626
Si Si4 0.222599 0.175810 0.529579
Si Si5 0.378432 0.939475 0.567354
Si Si6 0.603887 0.922102 0.531875
Si Si7 0.110946 0.941996 0.390851
O O1 0.500000 0.624126 0.250000
O O2 0.365578 0.583094 0.340388
O O3 0.593518 0.645739 0.448731
O O4 0.573431 0.521652 0.374952
O O5 0.785268 0.159774 0.856684
O O6 0.863924 0.091698 0.706643
O O7 0.988669 0.089432 0.897590
O O8 0.767153 0.031561 0.813780
O O9 0.367300 0.929980 0.678683
O O10 0.313057 0.944626 0.847048
O O11 0.250000 0.250000 0.500000
O O12 0.325090 0.131022 0.509791
O O13 0.476906 0.896855 0.538639
O O14 0.238156 0.933029 0.487060
O O15 0.417473 0.014891 0.547618
#
# Coordination Sequence:
#
# PCOD9256236 Si02
#       7
#     8   8   8   8   8   8   8
#     4  11  17  35  60  86 112 142 194 249 286 330
#     4  10  18  33  59  89 111 147 191 243 296 322
#     4  11  18  34  62  86 113 145 192 254 298 331
#     4  12  24  39  56  82 124 160 192 228 283 355
#     4  11  20  32  56  87 119 147 176 248 302 343
#     4  11  22  35  53  85 123 152 189 229 295 359
#     4  10  17  35  61  93 114 134 193 262 297 328
#
# _framework density 18.906451000000001
#
# number of rings (size 3 to 8) (size 9 to 14) (size 15 to 20)
#    0.000    1.143    8.571    1.286    0.000    2.286 
#    0.000    2.143    6.286    1.714    0.000    0.000 
#    0.000    0.000    0.000    0.000    0.000    0.000 
#
# Total GULP energy -155955.815937 kJ/mol
# GULP energy per Si atom -5569.850569 kJ/mol
# Density = 1.886342 g / cm^3
# Si number density = 18.906451 Si / 1000 Ang^3
#
#
#
# Elastic Constant Matrix: (Units=GPa)
#
#
# Indices 1 2 3 4 5 6 
#
# 1 106.5779 12.4479 28.5157 0.0000 -6.3099 0.0000
# 2 12.4479 62.5307 14.6471 0.0000 -13.7909 0.0000
# 3 28.5157 14.6471 44.7170 0.0000 -14.0977 0.0000
# 4 0.0000 0.0000 0.0000 11.1795 0.0000 -7.6353
# 5 -6.3099 -13.7909 -14.0977 0.0000 36.3495 0.0000
# 6 0.0000 0.0000 0.0000 -7.6353 0.0000 8.1116
#
#
#
# Elastic Compliance Matrix: (Units=1/GPa)
#
#
# Indices 1 2 3 4 5 6 
#
# 1 0.011377 -0.000801 -0.007367 0.000000 -0.001186 0.000000
# 2 -0.000801 0.018207 -0.003781 0.000000 0.005302 0.000000
# 3 -0.007367 -0.003781 0.031267 0.000000 0.009413 0.000000
# 4 0.000000 0.000000 0.000000 0.250469 0.000000 0.235762
# 5 -0.001186 0.005302 0.009413 0.000000 0.032967 0.000000
# 6 0.000000 0.000000 0.000000 0.235762 0.000000 0.345198
#
#
# Mechanical properties :
#
#
# Convention : Reuss Voigt Hill
#
# Bulk Modulus (GPa) = 27.06164 36.11634 31.58899
# Shear Modulus (GPa) = 6.88989 21.67580 14.28285
#
# Velocity S-wave (km/s) = 1.91105 3.38964 2.75152
# Velocity P-wave (km/s) = 4.38338 5.87058 5.18062
#
# Compressibility (1/GPa) = 0.03695268
#
# Stress axis : x y z
#
# Youngs Moduli (GPa) = 87.89542 54.92508 31.98281
#
# Poissons Ratio (x) = 0.04399 0.23561
# Poissons Ratio (y) = 0.07039 0.12094
# Poissons Ratio (z) = 0.64750 0.20769
#
# Static dielectric constant tensor:
#      x y z
#    x 1.722320 0.000000 -0.041130 
#    y 0.000000 1.624510 0.000000 
#    z -0.041130 0.000000 1.862310 
# 
# From -- ./inp_files/145746.got.cif
#   From: 2010.05.17/outbox.cif.g08.bks.cpg/sg15_73_cif.got.tgz:145746.got - 2010.06.03 18:47:42.
