data_PCOD9256319
_publ_section_title
;
Structure prediction by ZEFSAII (Michael W. Deem and Ramdas Pophale) SiO2 
 PCOD9256319
Probable space group: C 2/C
;
_chemical_formula_sum "Si O2"
_cell_formula_units_Z 48
_cell_length_a 10.987956
_cell_length_b 12.902732
_cell_length_c 17.522533
_cell_angle_alpha 90.000000
_cell_angle_beta 122.249279
_cell_angle_gamma 90.000000
_cell_volume 2101.016876
_symmetry_space_group_name_H-M "C 2/C"
_symmetry_group_IT_number 15
_symmetry_cell_setting 'monoclinic'
loop_
_space_group_symop_operation_xyz
x,y,z
-x,y,1/2-z
-x,-y,-z
x,-y,1/2+z
1/2+x,1/2+y,z
1/2-x,1/2+y,1/2-z
1/2-x,1/2-y,-z
1/2+x,1/2-y,1/2+z
loop_
_atom_site_type_symbol
_atom_site_label
_atom_site_fract_x
_atom_site_fract_y
_atom_site_fract_z
Si Si1 0.428306 0.937864 0.809860
Si Si2 0.784016 0.370459 0.525639
Si Si3 0.324776 0.418087 0.557025
Si Si4 0.386992 0.836976 0.315416
Si Si5 0.646336 0.629512 0.137075
Si Si6 0.214003 0.288849 0.377668
O O1 0.500000 0.962095 0.750000
O O2 0.547997 0.875535 0.895514
O O3 0.276133 0.889865 0.738504
O O4 0.397935 0.045213 0.841253
O O5 0.750000 0.250000 0.500000
O O6 0.742297 0.467478 0.457234
O O7 0.692430 0.406694 0.569587
O O8 0.498555 0.417701 0.619081
O O9 0.295102 0.362971 0.464428
O O10 0.259935 0.331985 0.593787
O O11 0.359218 0.754206 0.370947
O O12 0.546335 0.805732 0.341289
O O13 0.277340 0.822353 0.207559
#
# Coordination Sequence:
#
# PCOD9256319 Si02
#       6
#     8   8   8   8   8   8
#     4  10  19  38  60  78 113 160 189 225 292 350
#     4  11  23  40  57  81 123 164 187 224 293 354
#     4  10  19  36  60  87 113 144 195 240 287 332
#     4  10  17  36  59  86 109 143 197 237 287 336
#     4  10  23  35  58  88 110 149 202 238 277 339
#     4   9  17  32  64  88 107 140 189 249 288 329
#
# _framework density 22.846081999999999
#
# number of rings (size 3 to 8) (size 9 to 14) (size 15 to 20)
#    0.000    2.000    3.333    1.500    0.000    2.667 
#    3.000    0.833    7.333    0.000    0.000    0.000 
#    0.000    0.000    0.000    0.000    0.000    0.000 
#
# Total GULP energy -133916.042973 kJ/mol
# GULP energy per Si atom -5579.835124 kJ/mol
# Density = 2.279408 g / cm^3
# Si number density = 22.846082 Si / 1000 Ang^3
#
#
#
# Elastic Constant Matrix: (Units=GPa)
#
#
# Indices 1 2 3 4 5 6 
#
# 1 41.2507 10.5855 34.7755 0.0000 7.7040 0.0000
# 2 10.5855 182.7927 57.2388 0.0000 21.5477 0.0000
# 3 34.7755 57.2388 91.1571 0.0000 27.7684 0.0000
# 4 0.0000 0.0000 0.0000 33.3435 0.0000 0.3392
# 5 7.7040 21.5477 27.7684 0.0000 33.1067 0.0000
# 6 0.0000 0.0000 0.0000 0.3392 0.0000 16.1374
#
#
#
# Elastic Compliance Matrix: (Units=1/GPa)
#
#
# Indices 1 2 3 4 5 6 
#
# 1 0.037241 0.002744 -0.017120 0.000000 0.003908 0.000000
# 2 0.002744 0.007044 -0.005210 0.000000 -0.000853 0.000000
# 3 -0.017120 -0.005210 0.024884 0.000000 -0.013497 0.000000
# 4 0.000000 0.000000 0.000000 0.029997 0.000000 -0.000631
# 5 0.003908 -0.000853 -0.013497 0.000000 0.041172 0.000000
# 6 0.000000 0.000000 0.000000 -0.000631 0.000000 0.061981
#
#
# Mechanical properties :
#
#
# Convention : Reuss Voigt Hill
#
# Bulk Modulus (GPa) = 33.33752 57.82223 45.57988
# Shear Modulus (GPa) = 19.88151 30.69090 25.28620
#
# Velocity S-wave (km/s) = 2.95318 3.66919 3.33048
# Velocity P-wave (km/s) = 5.12370 6.58141 5.89776
#
# Compressibility (1/GPa) = 0.02999623
#
# Stress axis : x y z
#
# Youngs Moduli (GPa) = 26.85213 141.97119 40.18665
#
# Poissons Ratio (x) = -0.38952 0.68801
# Poissons Ratio (y) = -0.07367 0.20936
# Poissons Ratio (z) = 0.45972 0.73961
#
# Static dielectric constant tensor:
#      x y z
#    x 1.880490 0.000000 -0.025240 
#    y 0.000000 1.904740 0.000000 
#    z -0.025240 0.000000 1.888670 
# 
# From -- ./inp_files/196210.got.cif
#   From: 2010.05.17/outbox.cif.g08.bks.cpg/sg15_99_cif.got.tgz:196210.got - 2010.06.03 18:47:42.
