data_PCOD9256922
_publ_section_title
;
Structure prediction by ZEFSAII (Michael W. Deem and Ramdas Pophale) SiO2 
 PCOD9256922
Probable space group: C 2/C
;
_chemical_formula_sum "Si O2"
_cell_formula_units_Z 60
_cell_length_a 29.912979
_cell_length_b 9.669233
_cell_length_c 9.027170
_cell_angle_alpha 90.000000
_cell_angle_beta 103.071254
_cell_angle_gamma 90.000000
_cell_volume 2543.326995
_symmetry_space_group_name_H-M "C 2/C"
_symmetry_group_IT_number 15
_symmetry_cell_setting 'monoclinic'
loop_
_space_group_symop_operation_xyz
x,y,z
-x,y,1/2-z
-x,-y,-z
x,-y,1/2+z
1/2+x,1/2+y,z
1/2-x,1/2+y,1/2-z
1/2-x,1/2-y,-z
1/2+x,1/2-y,1/2+z
loop_
_atom_site_type_symbol
_atom_site_label
_atom_site_fract_x
_atom_site_fract_y
_atom_site_fract_z
Si Si1 0.539554 0.298565 0.991643
Si Si2 0.385191 0.399613 0.248775
Si Si3 0.198979 0.911986 0.756031
Si Si4 0.737039 0.983762 0.965647
Si Si5 0.176823 0.615596 0.675272
Si Si6 0.408812 0.157219 0.040988
Si Si7 0.500000 0.861502 0.750000
Si Si8 0.053684 0.161687 0.200647
O O1 0.495970 0.387086 0.898846
O O2 0.550331 0.235084 0.838309
O O3 0.587546 0.358551 0.083056
O O4 0.520139 0.221106 0.121976
O O5 0.334645 0.459078 0.238895
O O6 0.387193 0.267941 0.141407
O O7 0.416700 0.530415 0.224466
O O8 0.225589 0.929168 0.621842
O O9 0.170479 0.772161 0.723782
O O10 0.236220 0.903168 0.915147
O O11 0.695831 0.033064 0.829388
O O12 0.715963 0.887226 0.077318
O O13 0.130533 0.564261 0.562315
O O14 0.452615 0.080637 0.145414
O O15 0.426653 0.254542 0.922093
#
# Coordination Sequence:
#
# PCOD9256922 Si02
#       8
#     8   8   8   8   8   8   4   8
#     4   9  19  30  46  75 127 178 189 224 272 353
#     4  11  20  30  51  86 124 160 195 224 289 354
#     4  11  22  38  62  90 123 154 199 246 299 361
#     4  10  25  42  62  87 116 154 200 257 309 350
#     4  11  22  44  65  84 115 154 204 248 305 361
#     4  10  20  35  59  87 125 164 194 243 289 364
#     4   8  18  36  52  86 128 160 204 230 292 350
#     4  10  18  30  48  79 125 169 198 222 278 348
#
# _framework density 23.591144
#
# number of rings (size 3 to 8) (size 9 to 14) (size 15 to 20)
#    0.000    1.867    1.333    2.800    1.867    6.400 
#    0.000    5.333    0.000    0.800    0.000    0.000 
#    0.000    0.000    0.000    0.000    0.000    0.000 
#
# Total GULP energy -167133.398792 kJ/mol
# GULP energy per Si atom -5571.113293 kJ/mol
# Density = 2.353745 g / cm^3
# Si number density = 23.591144 Si / 1000 Ang^3
#
#
#
# Elastic Constant Matrix: (Units=GPa)
#
#
# Indices 1 2 3 4 5 6 
#
# 1 39.6134 7.4053 25.4363 0.0000 60.3392 0.0000
# 2 7.4053 43.2948 26.6526 0.0000 4.9365 0.0000
# 3 25.4363 26.6526 164.8704 0.0000 25.6122 0.0000
# 4 0.0000 0.0000 0.0000 -3.3840 0.0000 19.2663
# 5 60.3392 4.9365 25.6122 0.0000 24.5906 0.0000
# 6 0.0000 0.0000 0.0000 19.2663 0.0000 -41.9309
#
#
#
# Elastic Compliance Matrix: (Units=1/GPa)
#
#
# Indices 1 2 3 4 5 6 
#
# 1 -0.008431 0.000241 -0.002320 0.000000 0.023057 0.000000
# 2 0.000241 0.025663 -0.003929 0.000000 -0.001652 0.000000
# 3 -0.002320 -0.003929 0.007220 0.000000 -0.001038 0.000000
# 4 0.000000 0.000000 0.000000 0.182870 0.000000 0.084024
# 5 0.023057 -0.001652 -0.001038 0.000000 -0.014497 0.000000
# 6 0.000000 0.000000 0.000000 0.084024 0.000000 0.014758
#
#
# Mechanical properties :
#
#
# Convention : Reuss Voigt Hill
#
# Bulk Modulus (GPa) = 80.41271 40.75187 60.58229
# Shear Modulus (GPa) = 22.34694 8.40743 15.37719
#
# Velocity S-wave (km/s) = 3.08110 1.88985 2.55585
# Velocity P-wave (km/s) = 6.84233 4.69827 5.86904
#
# Compressibility (1/GPa) = 0.01243584
#
# Stress axis : x y z
#
# Youngs Moduli (GPa) = -118.60296 38.96593 138.50807
#
# Poissons Ratio (x) = -0.00941 0.32134
# Poissons Ratio (y) = 0.02863 0.54425
# Poissons Ratio (z) = -0.27516 0.15311
#
# Static dielectric constant tensor:
#      x y z
#    x 1.946030 0.000000 0.013630 
#    y 0.000000 1.907990 0.000000 
#    z 0.013630 0.000000 1.857590 
# 
# From -- ./inp_files/69401.got.cif
#   From: 2010.05.17/outbox.cif.g08.bks.cpg/sg15_35_cif.got.tgz:69401.got - 2010.06.03 18:47:42.
