data_PCOD9256898
_publ_section_title
;
Structure prediction by ZEFSAII (Michael W. Deem and Ramdas Pophale) SiO2 
 PCOD9256898
Probable space group: C 2/C
;
_chemical_formula_sum "Si O2"
_cell_formula_units_Z 60
_cell_length_a 19.338015
_cell_length_b 20.901449
_cell_length_c 9.261436
_cell_angle_alpha 90.000000
_cell_angle_beta 135.306432
_cell_angle_gamma 90.000000
_cell_volume 2632.791325
_symmetry_space_group_name_H-M "C 2/C"
_symmetry_group_IT_number 15
_symmetry_cell_setting 'monoclinic'
loop_
_space_group_symop_operation_xyz
x,y,z
-x,y,1/2-z
-x,-y,-z
x,-y,1/2+z
1/2+x,1/2+y,z
1/2-x,1/2+y,1/2-z
1/2-x,1/2-y,-z
1/2+x,1/2-y,1/2+z
loop_
_atom_site_type_symbol
_atom_site_label
_atom_site_fract_x
_atom_site_fract_y
_atom_site_fract_z
Si Si1 0.186188 0.327268 0.021124
Si Si2 0.914440 0.798202 0.837495
Si Si3 0.601730 0.166291 0.863967
Si Si4 0.000000 0.766155 0.250000
Si Si5 0.893777 0.468694 0.654395
Si Si6 0.214496 0.878950 0.053128
Si Si7 0.230896 0.484124 0.772122
Si Si8 0.247608 0.161605 0.185865
O O1 0.131420 0.395150 0.916568
O O2 0.251615 0.317108 0.976541
O O3 0.095627 0.278808 0.895426
O O4 0.256836 0.336941 0.263641
O O5 0.920812 0.731807 0.757836
O O6 0.882560 0.852034 0.672016
O O7 0.818479 0.802411 0.796687
O O8 0.995548 0.803165 0.087254
O O9 0.500000 0.131545 0.750000
O O10 0.686853 0.131399 0.898698
O O11 0.645819 0.174350 0.089069
O O12 0.870302 0.481475 0.785539
O O13 0.806292 0.505517 0.443651
O O14 0.000000 0.482957 0.750000
O O15 0.208949 0.953364 0.090072
O O16 0.277990 0.414091 0.853595
#
# Coordination Sequence:
#
# PCOD9256898 Si02
#       8
#     8   8   8   4   8   8   8   8
#     4  10  21  35  55  85 123 160 197 247 302 369
#     4  11  24  43  63  90 122 164 208 261 311 370
#     4  11  22  39  61  93 130 167 203 249 306 372
#     4  12  22  38  60  84 118 154 208 258 314 354
#     4  10  18  30  47  79 121 160 196 237 289 354
#     4  10  21  40  60  87 127 165 204 248 308 367
#     4  10  21  33  56  86 117 163 207 245 293 362
#     4  10  22  38  59  90 124 164 211 248 308 364
#
# _framework density 22.789501000000001
#
# number of rings (size 3 to 8) (size 9 to 14) (size 15 to 20)
#    0.000    1.600    2.000    4.400    0.000    3.733 
#    2.400    0.000    0.000    0.800    1.733    0.000 
#    0.000    0.000    0.000    0.000    0.000    0.000 
#
# Total GULP energy -167277.705911 kJ/mol
# GULP energy per Si atom -5575.923530 kJ/mol
# Density = 2.273763 g / cm^3
# Si number density = 22.789501 Si / 1000 Ang^3
#
#
#
# Elastic Constant Matrix: (Units=GPa)
#
#
# Indices 1 2 3 4 5 6 
#
# 1 47.4496 6.3214 15.4078 0.0000 -18.5957 0.0000
# 2 6.3214 112.5084 52.9598 0.0000 -0.6264 0.0000
# 3 15.4078 52.9598 151.2657 0.0000 -25.9124 0.0000
# 4 0.0000 0.0000 0.0000 25.2501 0.0000 -13.9811
# 5 -18.5957 -0.6264 -25.9124 0.0000 32.1583 0.0000
# 6 0.0000 0.0000 0.0000 -13.9811 0.0000 12.9211
#
#
#
# Elastic Compliance Matrix: (Units=1/GPa)
#
#
# Indices 1 2 3 4 5 6 
#
# 1 0.027527 -0.001743 0.000612 0.000000 0.016377 0.000000
# 2 -0.001743 0.011052 -0.004441 0.000000 -0.004371 0.000000
# 3 0.000612 -0.004441 0.009454 0.000000 0.007885 0.000000
# 4 0.000000 0.000000 0.000000 0.098795 0.000000 0.106899
# 5 0.016377 -0.004371 0.007885 0.000000 0.046835 0.000000
# 6 0.000000 0.000000 0.000000 0.106899 0.000000 0.193062
#
#
# Mechanical properties :
#
#
# Convention : Reuss Voigt Hill
#
# Bulk Modulus (GPa) = 27.10882 51.17797 39.14339
# Shear Modulus (GPa) = 12.19023 29.83489 21.01256
#
# Velocity S-wave (km/s) = 2.31531 3.62214 3.03979
# Velocity P-wave (km/s) = 4.36677 6.32446 5.43450
#
# Compressibility (1/GPa) = 0.03688837
#
# Stress axis : x y z
#
# Youngs Moduli (GPa) = 36.32849 90.48004 105.77467
#
# Poissons Ratio (x) = 0.15775 -0.06473
# Poissons Ratio (y) = 0.06334 0.46971
# Poissons Ratio (z) = -0.02223 0.40179
#
# Static dielectric constant tensor:
#      x y z
#    x 1.850540 0.000000 -0.012140 
#    y 0.000000 1.920620 0.000000 
#    z -0.012140 0.000000 1.949820 
# 
# From -- ./inp_files/58098.got.cif
#   From: 2010.05.17/outbox.cif.g08.bks.cpg/sg15_30_cif.got.tgz:58098.got - 2010.06.03 18:47:42.
