data_PCOD9256019
_publ_section_title
;
Structure prediction by ZEFSAII (Michael W. Deem and Ramdas Pophale) SiO2 
 PCOD9256019
Probable space group: C 2/C
;
_chemical_formula_sum "Si O2"
_cell_formula_units_Z 64
_cell_length_a 32.633710
_cell_length_b 7.874964
_cell_length_c 19.760007
_cell_angle_alpha 90.000000
_cell_angle_beta 146.576622
_cell_angle_gamma 90.000000
_cell_volume 2797.131420
_symmetry_space_group_name_H-M "C 2/C"
_symmetry_group_IT_number 15
_symmetry_cell_setting 'monoclinic'
loop_
_space_group_symop_operation_xyz
x,y,z
-x,y,1/2-z
-x,-y,-z
x,-y,1/2+z
1/2+x,1/2+y,z
1/2-x,1/2+y,1/2-z
1/2-x,1/2-y,-z
1/2+x,1/2-y,1/2+z
loop_
_atom_site_type_symbol
_atom_site_label
_atom_site_fract_x
_atom_site_fract_y
_atom_site_fract_z
Si Si1 0.821495 0.434037 0.363561
Si Si2 0.292296 0.605260 0.917748
Si Si3 0.588687 0.705436 0.513920
Si Si4 0.536157 0.218435 0.478764
Si Si5 0.604586 0.387232 0.192334
Si Si6 0.695064 0.073329 0.381381
Si Si7 0.555513 0.131315 0.661680
Si Si8 0.249493 0.526845 0.096690
O O1 0.769488 0.404665 0.227223
O O2 0.863859 0.616187 0.416825
O O3 0.886765 0.294002 0.454520
O O4 0.771780 0.437554 0.361904
O O5 0.370509 0.598102 0.987296
O O6 0.268237 0.466680 0.938745
O O7 0.285027 0.786583 0.944920
O O8 0.595900 0.630955 0.599501
O O9 0.502851 0.748768 0.380356
O O10 0.478162 0.372068 0.391612
O O11 0.555966 0.195128 0.584999
O O12 0.488087 0.049856 0.396809
O O13 0.661116 0.537742 0.286170
O O14 0.650958 0.227645 0.286305
O O15 0.637805 0.914347 0.297759
O O16 0.716730 0.079081 0.489337
#
# Coordination Sequence:
#
# PCOD9256019 Si02
#       8
#     8   8   8   8   8   8   8   8
#     4  10  17  34  53  79 104 143 190 232 269 317
#     4  11  20  34  55  79 112 147 183 235 277 328
#     4   9  17  31  56  83 102 137 193 237 264 320
#     4   8  14  28  54  77  99 136 186 227 263 314
#     4  10  18  34  55  80 109 142 184 233 276 331
#     4  11  20  36  57  79 114 152 176 226 293 342
#     4   8  14  28  53  79 100 135 184 227 269 316
#     4  11  24  33  51  87 117 141 183 231 287 342
#
# _framework density 22.880583000000001
#
# number of rings (size 3 to 8) (size 9 to 14) (size 15 to 20)
#    0.000    2.250    3.750    2.250    0.000    0.000 
#    0.000   10.625    0.000    0.000    0.000    1.750 
#    0.000    0.000    0.000    0.000    0.000    0.000 
#
# Total GULP energy -178804.644676 kJ/mol
# GULP energy per Si atom -5587.645146 kJ/mol
# Density = 2.282851 g / cm^3
# Si number density = 22.880583 Si / 1000 Ang^3
#
#
#
# Elastic Constant Matrix: (Units=GPa)
#
#
# Indices 1 2 3 4 5 6 
#
# 1 54.4027 26.2277 20.8068 0.0000 -2.9995 0.0000
# 2 26.2277 70.3156 6.3943 0.0000 0.6656 0.0000
# 3 20.8068 6.3943 29.5313 0.0000 1.0457 0.0000
# 4 0.0000 0.0000 0.0000 25.5743 0.0000 9.4072
# 5 -2.9995 0.6656 1.0457 0.0000 36.0377 0.0000
# 6 0.0000 0.0000 0.0000 9.4072 0.0000 18.3076
#
#
#
# Elastic Compliance Matrix: (Units=1/GPa)
#
#
# Indices 1 2 3 4 5 6 
#
# 1 0.030788 -0.009723 -0.019704 0.000000 0.003314 0.000000
# 2 -0.009723 0.017579 0.003088 0.000000 -0.001224 0.000000
# 3 -0.019704 0.003088 0.047185 0.000000 -0.003066 0.000000
# 4 0.000000 0.000000 0.000000 0.048215 0.000000 -0.024775
# 5 0.003314 -0.001224 -0.003066 0.000000 0.028136 0.000000
# 6 0.000000 0.000000 0.000000 -0.024775 0.000000 0.067353
#
#
# Mechanical properties :
#
#
# Convention : Reuss Voigt Hill
#
# Bulk Modulus (GPa) = 23.32479 29.01192 26.16836
# Shear Modulus (GPa) = 16.32779 22.70531 19.51655
#
# Velocity S-wave (km/s) = 2.67424 3.15356 2.92374
# Velocity P-wave (km/s) = 4.44429 5.09580 4.78115
#
# Compressibility (1/GPa) = 0.04287283
#
# Stress axis : x y z
#
# Youngs Moduli (GPa) = 32.48038 56.88533 21.19307
#
# Poissons Ratio (x) = 0.55312 0.41759
# Poissons Ratio (y) = 0.31582 -0.06544
# Poissons Ratio (z) = 0.64000 -0.17565
#
# Static dielectric constant tensor:
#      x y z
#    x 1.837360 0.000000 0.051230 
#    y 0.000000 1.974070 0.000000 
#    z 0.051230 0.000000 1.808130 
# 
# From -- ./inp_files/224641.got.cif
#   From: 2010.05.17/outbox.cif.g08.bks.cpg/sg15_113_cif.got.tgz:224641.got - 2010.06.03 18:47:42.
