data_PCOD9256165
_publ_section_title
;
Structure prediction by ZEFSAII (Michael W. Deem and Ramdas Pophale) SiO2 
 PCOD9256165
Probable space group: C 2/C
;
_chemical_formula_sum "Si O2"
_cell_formula_units_Z 52
_cell_length_a 22.657374
_cell_length_b 19.975690
_cell_length_c 11.224681
_cell_angle_alpha 90.000000
_cell_angle_beta 25.879651
_cell_angle_gamma 90.000000
_cell_volume 2217.440546
_symmetry_space_group_name_H-M "C 2/C"
_symmetry_group_IT_number 15
_symmetry_cell_setting 'monoclinic'
loop_
_space_group_symop_operation_xyz
x,y,z
-x,y,1/2-z
-x,-y,-z
x,-y,1/2+z
1/2+x,1/2+y,z
1/2-x,1/2+y,1/2-z
1/2-x,1/2-y,-z
1/2+x,1/2-y,1/2+z
loop_
_atom_site_type_symbol
_atom_site_label
_atom_site_fract_x
_atom_site_fract_y
_atom_site_fract_z
Si Si1 0.000000 0.908995 0.250000
Si Si2 0.512118 0.359162 0.605094
Si Si3 0.636006 0.538709 0.715628
Si Si4 0.927165 0.312440 0.718139
Si Si5 0.638322 0.307180 0.815374
Si Si6 0.563167 0.029549 0.263640
Si Si7 0.201706 0.736464 0.277141
O O1 0.114987 0.949784 0.112891
O O2 0.933746 0.860124 0.466453
O O3 0.500000 0.398554 0.750000
O O4 0.613038 0.392742 0.328558
O O5 0.372102 0.341964 0.793920
O O6 0.588066 0.291373 0.495245
O O7 0.777273 0.512060 0.508147
O O8 0.500000 0.500000 0.000000
O O9 0.954563 0.389202 0.700307
O O10 0.841888 0.312621 0.749677
O O11 0.053839 0.262353 0.466508
O O12 0.836245 0.274150 0.982726
O O13 0.775649 0.294312 0.634528
O O14 0.500000 0.007420 0.250000
O O15 0.500000 0.000000 0.500000
#
# Coordination Sequence:
#
# PCOD9256165 Si02
#       7
#     4   8   8   8   8   8   8
#     4  10  20  38  70 102 128 162 244 286 328 408
#     4  10  23  38  58  96 133 169 224 281 340 412
#     4  11  26  45  71  94 133 188 236 284 340 412
#     4  10  19  36  67  97 128 172 222 281 345 421
#     4  10  18  34  63 100 123 167 209 285 343 405
#     4  12  28  48  71 103 142 186 239 292 351 423
#     4  10  17  34  66  95 131 164 224 274 347 411
#
# _framework density 23.450458999999999
#
# number of rings (size 3 to 8) (size 9 to 14) (size 15 to 20)
#    0.000    1.538    3.077    1.846    3.231    0.615 
#    0.000    3.077    0.000    0.000    0.000    0.000 
#    0.000    0.000    0.000    0.000    0.000    0.000 
#
# Total GULP energy -145123.652667 kJ/mol
# GULP energy per Si atom -5581.678949 kJ/mol
# Density = 2.339708 g / cm^3
# Si number density = 23.450459 Si / 1000 Ang^3
#
#
#
# Elastic Constant Matrix: (Units=GPa)
#
#
# Indices 1 2 3 4 5 6 
#
# 1 218.3096 34.8927 51.8088 -0.0001 -19.8488 0.0002
# 2 34.8927 43.8910 14.1700 0.0001 -5.6440 -0.0001
# 3 51.8088 14.1700 63.1122 -0.0001 -11.0210 0.0002
# 4 -0.0001 0.0001 -0.0001 19.8121 0.0002 -0.5758
# 5 -19.8488 -5.6440 -11.0210 0.0002 34.6080 -0.0003
# 6 0.0002 -0.0001 0.0002 -0.5758 -0.0003 17.2163
#
#
#
# Elastic Compliance Matrix: (Units=1/GPa)
#
#
# Indices 1 2 3 4 5 6 
#
# 1 0.006250 -0.003436 -0.004057 0.000000 0.001732 0.000000
# 2 -0.003436 0.026640 -0.002908 0.000000 0.001448 0.000000
# 3 -0.004057 -0.002908 0.020477 0.000000 0.003720 0.000000
# 4 0.000000 0.000000 0.000000 0.050523 0.000000 0.001690
# 5 0.001732 0.001448 0.003720 0.000000 0.031309 0.000000
# 6 0.000000 0.000000 0.000000 0.001690 0.000000 0.058141
#
#
# Mechanical properties :
#
#
# Convention : Reuss Voigt Hill
#
# Bulk Modulus (GPa) = 30.70622 58.56175 44.63399
# Shear Modulus (GPa) = 22.22240 29.29006 25.75623
#
# Velocity S-wave (km/s) = 3.08170 3.53798 3.31769
# Velocity P-wave (km/s) = 5.07790 6.45883 5.80954
#
# Compressibility (1/GPa) = 0.03256669
#
# Stress axis : x y z
#
# Youngs Moduli (GPa) = 159.99723 37.53701 48.83436
#
# Poissons Ratio (x) = 0.12899 0.19811
# Poissons Ratio (y) = 0.54980 0.14199
# Poissons Ratio (z) = 0.64906 0.10914
#
# Static dielectric constant tensor:
#      x y z
#    x 1.094160 0.000000 -0.019500 
#    y 0.000000 1.986880 0.000000 
#    z -0.019500 0.000000 1.933310 
# 
# From -- ./inp_files/114345.got.cif
#   From: 2010.05.17/outbox.cif.g08.bks.cpg/sg15_58_cif.got.tgz:114345.got - 2010.06.03 18:47:42.
