data_PCOD9256675
_publ_section_title
;
Structure prediction by ZEFSAII (Michael W. Deem and Ramdas Pophale) SiO2 
 PCOD9256675
Probable space group: C 2/C
;
_chemical_formula_sum "Si O2"
_cell_formula_units_Z 60
_cell_length_a 27.817613
_cell_length_b 15.071685
_cell_length_c 13.177750
_cell_angle_alpha 90.000000
_cell_angle_beta 145.314360
_cell_angle_gamma 90.000000
_cell_volume 3144.063144
_symmetry_space_group_name_H-M "C 2/C"
_symmetry_group_IT_number 15
_symmetry_cell_setting 'monoclinic'
loop_
_space_group_symop_operation_xyz
x,y,z
-x,y,1/2-z
-x,-y,-z
x,-y,1/2+z
1/2+x,1/2+y,z
1/2-x,1/2+y,1/2-z
1/2-x,1/2-y,-z
1/2+x,1/2-y,1/2+z
loop_
_atom_site_type_symbol
_atom_site_label
_atom_site_fract_x
_atom_site_fract_y
_atom_site_fract_z
Si Si1 0.313714 0.454178 0.428626
Si Si2 0.991860 0.095383 0.935636
Si Si3 0.377441 0.736405 0.295977
Si Si4 0.312191 0.637441 0.534769
Si Si5 0.275802 0.880507 0.029006
Si Si6 0.714346 0.073344 0.549157
Si Si7 0.500000 0.506373 0.750000
Si Si8 0.400768 0.791217 0.563619
O O1 0.294872 0.556355 0.427303
O O2 0.265023 0.398076 0.430181
O O3 0.281484 0.429989 0.259931
O O4 0.415683 0.448715 0.621216
O O5 0.895028 0.115057 0.745720
O O6 0.041092 0.173685 0.076307
O O7 0.028445 0.073591 0.888064
O O8 0.000000 0.000000 0.000000
O O9 0.354405 0.813763 0.177023
O O10 0.385574 0.781664 0.418625
O O11 0.297706 0.670437 0.158306
O O12 0.241323 0.633949 0.498986
O O13 0.340859 0.721501 0.519185
O O14 0.293822 0.974299 0.008792
O O15 0.629157 0.113727 0.447332
O O16 0.500000 0.774718 0.750000
#
# Coordination Sequence:
#
# PCOD9256675 Si02
#       8
#     8   8   8   8   8   8   4   8
#     4  10  19  35  56  89 123 161 195 249 309 365
#     4  11  19  32  56  90 119 152 184 241 305 359
#     4  11  20  38  62  88 124 156 202 253 308 371
#     4  10  21  34  59  87 122 149 202 252 304 359
#     4  10  22  37  60  90 117 166 203 247 305 369
#     4  11  22  39  59  87 124 161 208 250 301 363
#     4  10  18  28  52  86 118 144 190 236 294 364
#     4  12  23  40  62  88 117 166 208 253 301 364
#
# _framework density 19.083587000000001
#
# number of rings (size 3 to 8) (size 9 to 14) (size 15 to 20)
#    0.000    1.333    2.667    6.800    0.933    0.000 
#    0.000    0.667    0.000    0.000    3.467    0.000 
#    0.000    0.000    0.000    0.000    0.000    0.000 
#
# Total GULP energy -167267.613443 kJ/mol
# GULP energy per Si atom -5575.587115 kJ/mol
# Density = 1.904015 g / cm^3
# Si number density = 19.083587 Si / 1000 Ang^3
#
#
#
# Elastic Constant Matrix: (Units=GPa)
#
#
# Indices 1 2 3 4 5 6 
#
# 1 51.1141 4.4617 0.4357 0.0000 -3.0380 0.0000
# 2 4.4617 48.2312 -0.3865 0.0000 7.6311 0.0000
# 3 0.4357 -0.3865 32.6885 0.0000 -8.3768 0.0000
# 4 0.0000 0.0000 0.0000 31.8297 0.0000 -0.6137
# 5 -3.0380 7.6311 -8.3768 0.0000 20.0695 0.0000
# 6 0.0000 0.0000 0.0000 -0.6137 0.0000 25.2521
#
#
#
# Elastic Compliance Matrix: (Units=1/GPa)
#
#
# Indices 1 2 3 4 5 6 
#
# 1 0.020036 -0.002533 0.000814 0.000000 0.004336 0.000000
# 2 -0.002533 0.022512 -0.002230 0.000000 -0.009874 0.000000
# 3 0.000814 -0.002230 0.034493 0.000000 0.015368 0.000000
# 4 0.000000 0.000000 0.000000 0.031432 0.000000 0.000764
# 5 0.004336 -0.009874 0.015368 0.000000 0.060652 0.000000
# 6 0.000000 0.000000 0.000000 0.000764 0.000000 0.039619
#
#
# Mechanical properties :
#
#
# Convention : Reuss Voigt Hill
#
# Bulk Modulus (GPa) = 14.46291 15.67285 15.06788
# Shear Modulus (GPa) = 20.86025 23.93180 22.39603
#
# Velocity S-wave (km/s) = 3.30979 3.54510 3.42947
# Velocity P-wave (km/s) = 4.71184 4.99875 4.85742
#
# Compressibility (1/GPa) = 0.06914240
#
# Stress axis : x y z
#
# Youngs Moduli (GPa) = 49.91030 44.42038 28.99148
#
# Poissons Ratio (x) = 0.11251 -0.02360
# Poissons Ratio (y) = 0.12642 0.06466
# Poissons Ratio (z) = -0.04063 0.09908
#
# Static dielectric constant tensor:
#      x y z
#    x 1.750220 0.000000 -0.007390 
#    y 0.000000 1.690520 0.000000 
#    z -0.007390 0.000000 1.667390 
# 
# From -- ./inp_files/182338.got.cif
#   From: 2010.05.17/outbox.cif.g08.bks.cpg/sg15_92_cif.got.tgz:182338.got - 2010.06.03 18:47:42.
