data_PCOD9256359
_publ_section_title
;
Structure prediction by ZEFSAII (Michael W. Deem and Ramdas Pophale) SiO2 
 PCOD9256359
Probable space group: C 2/C
;
_chemical_formula_sum "Si O2"
_cell_formula_units_Z 40
_cell_length_a 29.337822
_cell_length_b 7.547484
_cell_length_c 18.447871
_cell_angle_alpha 90.000000
_cell_angle_beta 156.272193
_cell_angle_gamma 90.000000
_cell_volume 1643.712255
_symmetry_space_group_name_H-M "C 2/C"
_symmetry_group_IT_number 15
_symmetry_cell_setting 'monoclinic'
loop_
_space_group_symop_operation_xyz
x,y,z
-x,y,1/2-z
-x,-y,-z
x,-y,1/2+z
1/2+x,1/2+y,z
1/2-x,1/2+y,1/2-z
1/2-x,1/2-y,-z
1/2+x,1/2-y,1/2+z
loop_
_atom_site_type_symbol
_atom_site_label
_atom_site_fract_x
_atom_site_fract_y
_atom_site_fract_z
Si Si1 0.109987 0.898247 0.464220
Si Si2 0.415693 0.137590 0.939796
Si Si3 0.831227 0.415877 0.699836
Si Si4 0.829721 0.623767 0.568148
Si Si5 0.596790 0.808396 0.476560
O O1 0.113781 0.772850 0.539749
O O2 0.218145 0.853784 0.572726
O O3 0.000000 0.884779 0.250000
O O4 0.120583 0.099227 0.510269
O O5 0.357870 0.107721 0.778033
O O6 0.547879 0.177687 0.116816
O O7 0.391168 0.943201 0.939492
O O8 0.815766 0.442799 0.591667
O O9 0.750000 0.750000 0.500000
O O10 0.824890 0.614904 0.474545
O O11 0.961125 0.681783 0.766658
#
# Coordination Sequence:
#
# PCOD9256359 Si02
#       5
#     8   8   8   8   8
#     4  12  24  41  70 104 127 169 236 276 319 404
#     4  10  26  45  65  96 138 179 220 274 341 396
#     4  10  23  45  65  96 140 176 218 278 340 396
#     4  10  17  36  64  89 124 172 210 264 328 390
#     4  10  21  40  64  92 131 172 217 271 331 390
#
# _framework density 24.335160999999999
#
# number of rings (size 3 to 8) (size 9 to 14) (size 15 to 20)
#    0.000    1.600    4.000    0.000    8.400    0.800 
#    3.600    9.000    0.000    0.000    0.000    0.000 
#    0.000    0.000    0.000    0.000    0.000    0.000 
#
# Total GULP energy -111531.621428 kJ/mol
# GULP energy per Si atom -5576.581071 kJ/mol
# Density = 2.427977 g / cm^3
# Si number density = 24.335161 Si / 1000 Ang^3
#
#
#
# Elastic Constant Matrix: (Units=GPa)
#
#
# Indices 1 2 3 4 5 6 
#
# 1 217.0454 67.4597 50.6485 0.0000 27.3893 0.0000
# 2 67.4597 96.5614 17.7040 0.0000 -10.1387 0.0000
# 3 50.6485 17.7040 75.5678 0.0000 17.7248 0.0000
# 4 0.0000 0.0000 0.0000 10.2260 0.0000 2.5710
# 5 27.3893 -10.1387 17.7248 0.0000 58.1626 0.0000
# 6 0.0000 0.0000 0.0000 2.5710 0.0000 46.6303
#
#
#
# Elastic Compliance Matrix: (Units=1/GPa)
#
#
# Indices 1 2 3 4 5 6 
#
# 1 0.007224 -0.004865 -0.002913 0.000000 -0.003362 0.000000
# 2 -0.004865 0.014560 -0.001381 0.000000 0.005250 0.000000
# 3 -0.002913 -0.001381 0.016418 0.000000 -0.003872 0.000000
# 4 0.000000 0.000000 0.000000 0.099164 0.000000 -0.005467
# 5 -0.003362 0.005250 -0.003872 0.000000 0.020872 0.000000
# 6 0.000000 0.000000 0.000000 -0.005467 0.000000 0.021747
#
#
# Mechanical properties :
#
#
# Convention : Reuss Voigt Hill
#
# Bulk Modulus (GPa) = 50.29976 73.42210 61.86093
# Shear Modulus (GPa) = 24.39851 39.89460 32.14655
#
# Velocity S-wave (km/s) = 3.16983 4.05332 3.63849
# Velocity P-wave (km/s) = 5.84051 7.22098 6.56712
#
# Compressibility (1/GPa) = 0.01988081
#
# Stress axis : x y z
#
# Youngs Moduli (GPa) = 138.43503 68.68246 60.91056
#
# Poissons Ratio (x) = 0.33417 0.17744
# Poissons Ratio (y) = 0.67355 0.08415
# Poissons Ratio (z) = 0.40327 0.09488
#
# Static dielectric constant tensor:
#      x y z
#    x 1.843060 0.000000 -0.056810 
#    y 0.000000 1.939830 0.000000 
#    z -0.056810 0.000000 2.002670 
# 
# From -- ./inp_files/221975.got.cif
#   From: 2010.05.17/outbox.cif.g08.bks.cpg/sg15_111_cif.got.tgz:221975.got - 2010.06.03 18:47:42.
