data_PCOD9256522
_publ_section_title
;
Structure prediction by ZEFSAII (Michael W. Deem and Ramdas Pophale) SiO2 
 PCOD9256522
Probable space group: C 2/C
;
_chemical_formula_sum "Si O2"
_cell_formula_units_Z 60
_cell_length_a 27.658694
_cell_length_b 26.433753
_cell_length_c 5.207947
_cell_angle_alpha 90.000000
_cell_angle_beta 74.436069
_cell_angle_gamma 90.000000
_cell_volume 3668.030092
_symmetry_space_group_name_H-M "C 2/C"
_symmetry_group_IT_number 15
_symmetry_cell_setting 'monoclinic'
loop_
_space_group_symop_operation_xyz
x,y,z
-x,y,1/2-z
-x,-y,-z
x,-y,1/2+z
1/2+x,1/2+y,z
1/2-x,1/2+y,1/2-z
1/2-x,1/2-y,-z
1/2+x,1/2-y,1/2+z
loop_
_atom_site_type_symbol
_atom_site_label
_atom_site_fract_x
_atom_site_fract_y
_atom_site_fract_z
Si Si1 0.770362 0.369791 0.609488
Si Si2 0.591173 0.850160 0.903550
Si Si3 0.720641 0.729244 0.288356
Si Si4 0.662799 0.070947 0.152338
Si Si5 0.743777 0.982181 0.067718
Si Si6 0.857852 0.691337 0.688148
Si Si7 0.500000 0.110274 0.250000
Si Si8 0.081933 0.464673 0.433681
O O1 0.726485 0.331135 0.747650
O O2 0.795375 0.387463 0.843471
O O3 0.760839 0.423134 0.483293
O O4 0.810933 0.339989 0.377467
O O5 0.617440 0.906121 0.892530
O O6 0.619424 0.828031 0.611970
O O7 0.534525 0.858357 0.895246
O O8 0.601719 0.817333 0.141128
O O9 0.750000 0.750000 0.500000
O O10 0.665677 0.753782 0.341373
O O11 0.750000 0.750000 0.000000
O O12 0.634318 0.063928 0.924143
O O13 0.692974 0.018642 0.165931
O O14 0.770736 0.991386 0.294418
O O15 0.462710 0.075027 0.468731
O O16 0.078645 0.497175 0.182494
#
# Coordination Sequence:
#
# PCOD9256522 Si02
#       8
#     8   8   8   8   8   8   4   8
#     4   9  18  30  46  66  87 112 144 182 221 264
#     4  10  21  34  49  64  85 111 147 189 234 278
#     4  10  19  31  48  68  89 110 140 182 228 274
#     4   9  18  30  44  62  85 115 146 179 219 263
#     4  10  18  27  39  58  83 110 141 172 204 248
#     4  10  19  33  48  65  85 111 139 180 233 277
#     4  10  24  36  50  66  82 110 150 196 238 278
#     4  11  22  34  46  60  83 113 147 188 232 272
#
# _framework density 16.357554
#
# number of rings (size 3 to 8) (size 9 to 14) (size 15 to 20)
#    0.000    2.133    0.000    5.200    0.000   12.267 
#    0.000    0.000    0.000    0.000    0.000    0.000 
#    0.000    0.000    0.000    0.000    0.000    0.000 
#
# Total GULP energy -167056.497135 kJ/mol
# GULP energy per Si atom -5568.549904 kJ/mol
# Density = 1.632032 g / cm^3
# Si number density = 16.357554 Si / 1000 Ang^3
#
#
#
# Elastic Constant Matrix: (Units=GPa)
#
#
# Indices 1 2 3 4 5 6 
#
# 1 60.8037 50.2686 27.1477 0.0000 12.6445 0.0000
# 2 50.2686 102.1224 25.9125 0.0000 0.0361 0.0000
# 3 27.1477 25.9125 87.6405 0.0000 23.4023 0.0000
# 4 0.0000 0.0000 0.0000 23.0816 0.0000 -6.5553
# 5 12.6445 0.0361 23.4023 0.0000 20.8311 0.0000
# 6 0.0000 0.0000 0.0000 -6.5553 0.0000 33.3419
#
#
#
# Elastic Compliance Matrix: (Units=1/GPa)
#
#
# Indices 1 2 3 4 5 6 
#
# 1 0.035205 -0.017287 -0.000137 0.000000 -0.021186 0.000000
# 2 -0.017287 0.019452 -0.004556 0.000000 0.015578 0.000000
# 3 -0.000137 -0.004556 0.018250 0.000000 -0.020412 0.000000
# 4 0.000000 0.000000 0.000000 0.045887 0.000000 0.009022
# 5 -0.021186 0.015578 -0.020412 0.000000 0.083769 0.000000
# 6 0.000000 0.000000 0.000000 0.009022 0.000000 0.031766
#
#
# Mechanical properties :
#
#
# Convention : Reuss Voigt Hill
#
# Bulk Modulus (GPa) = 34.54568 50.80269 42.67418
# Shear Modulus (GPa) = 17.36479 25.26679 21.31579
#
# Velocity S-wave (km/s) = 3.26172 3.93447 3.61379
# Velocity P-wave (km/s) = 5.94559 7.19480 6.59982
#
# Compressibility (1/GPa) = 0.02894718
#
# Stress axis : x y z
#
# Youngs Moduli (GPa) = 28.40506 51.40816 54.79357
#
# Poissons Ratio (x) = 0.88870 0.00749
# Poissons Ratio (y) = 0.49104 0.24966
# Poissons Ratio (z) = 0.00388 0.23423
#
# Static dielectric constant tensor:
#      x y z
#    x 1.579180 0.000000 0.036660 
#    y 0.000000 1.619790 0.000000 
#    z 0.036660 0.000000 1.651240 
# 
# From -- ./inp_files/17615.got.cif
#   From: 2010.05.17/outbox.cif.g08.bks.cpg/sg15_9_cif.got.tgz:17615.got - 2010.06.03 18:47:42.
