data_PCOD9256425
_publ_section_title
;
Structure prediction by ZEFSAII (Michael W. Deem and Ramdas Pophale) SiO2 
 PCOD9256425
Probable space group: C 2/C
;
_chemical_formula_sum "Si O2"
_cell_formula_units_Z 32
_cell_length_a 16.829134
_cell_length_b 7.209470
_cell_length_c 24.851398
_cell_angle_alpha 90.000000
_cell_angle_beta 22.977942
_cell_angle_gamma 90.000000
_cell_volume 1177.063363
_symmetry_space_group_name_H-M "C 2/C"
_symmetry_group_IT_number 15
_symmetry_cell_setting 'monoclinic'
loop_
_space_group_symop_operation_xyz
x,y,z
-x,y,1/2-z
-x,-y,-z
x,-y,1/2+z
1/2+x,1/2+y,z
1/2-x,1/2+y,1/2-z
1/2-x,1/2-y,-z
1/2+x,1/2-y,1/2+z
loop_
_atom_site_type_symbol
_atom_site_label
_atom_site_fract_x
_atom_site_fract_y
_atom_site_fract_z
Si Si1 0.724055 0.657670 0.949668
Si Si2 0.148319 0.504468 0.735310
Si Si3 0.517687 0.987560 0.552020
Si Si4 0.535911 0.332950 0.112054
O O1 0.701562 0.578432 0.903180
O O2 0.699868 0.876432 0.957021
O O3 0.935781 0.591951 0.844262
O O4 0.555874 0.550802 0.090758
O O5 0.125678 0.278928 0.750579
O O6 0.152264 0.551265 0.796816
O O7 0.500000 0.000000 0.500000
O O8 0.531271 0.773618 0.558353
O O9 0.750000 0.250000 0.000000
#
# Coordination Sequence:
#
# PCOD9256425 Si02
#       4
#     8   8   8   8
#     4  10  17  38  61  74 117 149 181 238 268 319
#     4   8  19  36  54  86 104 148 198 214 270 344
#     4  10  21  37  53  86 113 142 188 228 281 335
#     4   8  18  35  56  82 108 140 191 226 265 335
#
# _framework density 27.186302999999999
#
# number of rings (size 3 to 8) (size 9 to 14) (size 15 to 20)
#    1.500    1.500    0.000    0.750    0.000    1.000 
#    9.000    2.500    0.000    0.000    0.000    0.000 
#    0.000    0.000    0.000    0.000    0.000    0.000 
#
# Total GULP energy -89091.845603 kJ/mol
# GULP energy per Si atom -5568.240350 kJ/mol
# Density = 2.712443 g / cm^3
# Si number density = 27.186303 Si / 1000 Ang^3
#
#
#
# Elastic Constant Matrix: (Units=GPa)
#
#
# Indices 1 2 3 4 5 6 
#
# 1 191.6987 18.9941 33.0381 -0.0047 38.3864 0.0010
# 2 18.9941 123.1518 10.7094 -0.0012 -8.0518 -0.0001
# 3 33.0381 10.7094 42.1126 -0.0354 15.2609 0.0015
# 4 -0.0047 -0.0012 -0.0354 26.8473 -0.0030 2.1408
# 5 38.3864 -8.0518 15.2609 -0.0030 48.3984 0.0013
# 6 0.0010 -0.0001 0.0015 2.1408 0.0013 41.7348
#
#
#
# Elastic Compliance Matrix: (Units=1/GPa)
#
#
# Indices 1 2 3 4 5 6 
#
# 1 0.006814 -0.001044 -0.003453 -0.000004 -0.004489 0.000000
# 2 -0.001044 0.008699 -0.002504 -0.000003 0.003065 0.000000
# 3 -0.003453 -0.002504 0.029637 0.000038 -0.007022 -0.000003
# 4 -0.000004 -0.000003 0.000038 0.037401 -0.000007 -0.001918
# 5 -0.004489 0.003065 -0.007022 -0.000007 0.026947 0.000000
# 6 0.000000 0.000000 -0.000003 -0.001918 0.000000 0.024059
#
#
# Mechanical properties :
#
#
# Convention : Reuss Voigt Hill
#
# Bulk Modulus (GPa) = 32.10546 53.60516 42.85531
# Shear Modulus (GPa) = 31.65725 43.01087 37.33406
#
# Velocity S-wave (km/s) = 3.41611 3.98185 3.70978
# Velocity P-wave (km/s) = 5.23401 6.39536 5.84361
#
# Compressibility (1/GPa) = 0.03114735
#
# Stress axis : x y z
#
# Youngs Moduli (GPa) = 146.75443 114.95284 33.74197
#
# Poissons Ratio (x) = 0.12003 0.11653
# Poissons Ratio (y) = 0.15324 0.08448
# Poissons Ratio (z) = 0.50680 0.28781
#
# Static dielectric constant tensor:
#      x y z
#    x 2.168510 0.000000 -0.085580 
#    y 0.000000 2.101810 0.000010 
#    z -0.085580 0.000010 2.291420 
# 
# From -- ./inp_files/109386.got.cif
#   From: 2010.05.17/outbox.cif.g08.bks.cpg/sg15_55_cif.got.tgz:109386.got - 2010.06.03 18:47:42.
