data_PCOD9256792
_publ_section_title
;
Structure prediction by ZEFSAII (Michael W. Deem and Ramdas Pophale) SiO2 
 PCOD9256792
Probable space group: C 2/C
;
_chemical_formula_sum "Si O2"
_cell_formula_units_Z 48
_cell_length_a 19.096777
_cell_length_b 14.201314
_cell_length_c 8.607737
_cell_angle_alpha 90.000000
_cell_angle_beta 109.482583
_cell_angle_gamma 90.000000
_cell_volume 2200.750834
_symmetry_space_group_name_H-M "C 2/C"
_symmetry_group_IT_number 15
_symmetry_cell_setting 'monoclinic'
loop_
_space_group_symop_operation_xyz
x,y,z
-x,y,1/2-z
-x,-y,-z
x,-y,1/2+z
1/2+x,1/2+y,z
1/2-x,1/2+y,1/2-z
1/2-x,1/2-y,-z
1/2+x,1/2-y,1/2+z
loop_
_atom_site_type_symbol
_atom_site_label
_atom_site_fract_x
_atom_site_fract_y
_atom_site_fract_z
Si Si1 0.675169 0.213615 0.023529
Si Si2 0.150626 0.987159 0.145667
Si Si3 0.912496 0.869056 0.689818
Si Si4 0.325579 0.023922 0.308692
Si Si5 0.331113 0.681594 0.649266
Si Si6 0.342229 0.862381 0.525095
O O1 0.673682 0.101905 0.052095
O O2 0.675629 0.258796 0.196157
O O3 0.750000 0.250000 0.000000
O O4 0.612333 0.263457 0.873548
O O5 0.130000 0.913498 0.268355
O O6 0.117474 0.087249 0.171163
O O7 0.239468 0.000303 0.208051
O O8 0.123535 0.934346 0.972187
O O9 0.000000 0.877646 0.750000
O O10 0.362058 0.074750 0.189085
O O11 0.360112 0.925741 0.390451
O O12 0.369135 0.755333 0.560827
O O13 0.247987 0.651992 0.536416
#
# Coordination Sequence:
#
# PCOD9256792 Si02
#       6
#     8   8   8   8   8   8
#     4  10  19  32  49  75 101 133 178 219 252 304
#     4  10  18  32  51  72 103 137 173 205 256 309
#     4  11  22  35  51  75 109 144 171 206 257 316
#     4  10  18  29  50  74 102 132 168 220 258 300
#     4   8  17  29  45  67 103 134 156 209 261 302
#     4   9  17  28  43  71 104 129 160 206 272 299
#
# _framework density 21.810737
#
# number of rings (size 3 to 8) (size 9 to 14) (size 15 to 20)
#    0.000    2.333    1.667    2.500    4.667    0.000 
#    0.000    0.000    0.000    0.000    0.000   11.667 
#    0.000    0.000    0.000    0.000    0.000    0.000 
#
# Total GULP energy -133869.972412 kJ/mol
# GULP energy per Si atom -5577.915517 kJ/mol
# Density = 2.176109 g / cm^3
# Si number density = 21.810737 Si / 1000 Ang^3
#
#
#
# Elastic Constant Matrix: (Units=GPa)
#
#
# Indices 1 2 3 4 5 6 
#
# 1 10.9460 -0.4674 4.1661 0.0000 1.6769 0.0000
# 2 -0.4674 127.7968 50.4660 0.0000 -1.3093 0.0000
# 3 4.1661 50.4660 23.4209 0.0000 -3.8262 0.0000
# 4 0.0000 0.0000 0.0000 55.5247 0.0000 -6.5311
# 5 1.6769 -1.3093 -3.8262 0.0000 5.3425 0.0000
# 6 0.0000 0.0000 0.0000 -6.5311 0.0000 11.0849
#
#
#
# Elastic Compliance Matrix: (Units=1/GPa)
#
#
# Indices 1 2 3 4 5 6 
#
# 1 -0.102198 -0.148915 0.383162 0.000000 0.270002 0.000000
# 2 -0.148915 -0.104122 0.288009 0.000000 0.227495 0.000000
# 3 0.383162 0.288009 -0.740842 0.000000 -0.580272 0.000000
# 4 0.000000 0.000000 0.000000 0.019351 0.000000 0.011401
# 5 0.270002 0.227495 -0.580272 0.000000 -0.257405 0.000000
# 6 0.000000 0.000000 0.000000 0.011401 0.000000 0.096931
#
#
# Mechanical properties :
#
#
# Convention : Reuss Voigt Hill
#
# Bulk Modulus (GPa) = 10.27221 30.05478 20.16349
# Shear Modulus (GPa) = -2.38056 21.59034 9.60489
#
# Velocity S-wave (km/s) = -1.04586 3.14967 2.10079
# Velocity P-wave (km/s) = 1.80596 5.19971 3.89220
#
# Compressibility (1/GPa) = 0.09735004
#
# Stress axis : x y z
#
# Youngs Moduli (GPa) = -9.78489 -9.60414 -1.34982
#
# Poissons Ratio (x) = -1.43020 0.51720
# Poissons Ratio (y) = -1.45712 0.38876
# Poissons Ratio (z) = 3.74920 2.76608
#
# Static dielectric constant tensor:
#      x y z
#    x 1.773260 0.000000 -0.057610 
#    y 0.000000 1.869830 0.000000 
#    z -0.057610 0.000000 1.887160 
# 
# From -- ./inp_files/55229.got.cif
#   From: 2010.05.17/outbox.cif.g08.bks.cpg/sg15_28_cif.got.tgz:55229.got - 2010.06.03 18:47:42.
