data_PCOD9256036
_publ_section_title
;
Structure prediction by ZEFSAII (Michael W. Deem and Ramdas Pophale) SiO2 
 PCOD9256036
Probable space group: C 2/C
;
_chemical_formula_sum "Si O2"
_cell_formula_units_Z 60
_cell_length_a 18.968596
_cell_length_b 22.430153
_cell_length_c 9.871293
_cell_angle_alpha 90.000000
_cell_angle_beta 135.099300
_cell_angle_gamma 90.000000
_cell_volume 2964.643529
_symmetry_space_group_name_H-M "C 2/C"
_symmetry_group_IT_number 15
_symmetry_cell_setting 'monoclinic'
loop_
_space_group_symop_operation_xyz
x,y,z
-x,y,1/2-z
-x,-y,-z
x,-y,1/2+z
1/2+x,1/2+y,z
1/2-x,1/2+y,1/2-z
1/2-x,1/2-y,-z
1/2+x,1/2-y,1/2+z
loop_
_atom_site_type_symbol
_atom_site_label
_atom_site_fract_x
_atom_site_fract_y
_atom_site_fract_z
Si Si1 0.329429 0.576126 0.072905
Si Si2 0.843964 0.103755 0.387239
Si Si3 0.150724 0.496749 0.442197
Si Si4 0.395735 0.820560 0.688149
Si Si5 0.389894 0.313729 0.160703
Si Si6 0.376688 0.929166 0.842401
Si Si7 0.224099 0.889331 0.294357
Si Si8 0.000000 0.020700 0.750000
O O1 0.351451 0.613478 0.237948
O O2 0.221374 0.548188 0.956880
O O3 0.413605 0.524273 0.185019
O O4 0.316897 0.609781 0.913856
O O5 0.830199 0.165917 0.446766
O O6 0.743656 0.069373 0.297581
O O7 0.937454 0.063622 0.563826
O O8 0.090977 0.460396 0.474905
O O9 0.093561 0.533446 0.249337
O O10 0.227412 0.545655 0.612126
O O11 0.500000 0.822567 0.750000
O O12 0.370596 0.752142 0.687814
O O13 0.402410 0.862369 0.830301
O O14 0.312180 0.846196 0.470468
O O15 0.500000 0.314242 0.250000
O O16 0.366297 0.366502 0.233993
#
# Coordination Sequence:
#
# PCOD9256036 Si02
#       8
#     8   8   8   8   8   8   8   4
#     4  11  22  32  52  89 133 164 188 238 309 377
#     4  11  21  32  55  87 123 164 203 232 293 376
#     4  10  17  34  54  85 118 154 187 232 300 371
#     4  10  23  42  66  87 108 160 226 271 295 352
#     4  11  22  38  63  88 118 161 220 250 295 370
#     4  10  19  35  59  82 118 150 194 244 304 354
#     4  11  21  39  62  89 126 162 200 257 315 363
#     4  12  20  34  54  94 136 172 192 228 298 394
#
# _framework density 20.238520999999999
#
# number of rings (size 3 to 8) (size 9 to 14) (size 15 to 20)
#    0.000    1.333    6.000    1.600    1.867    0.000 
#    0.000    3.333    0.000    2.400    0.000    0.000 
#    0.000    0.000    0.000    0.000    0.000    0.000 
#
# Total GULP energy -167141.393989 kJ/mol
# GULP energy per Si atom -5571.379800 kJ/mol
# Density = 2.019246 g / cm^3
# Si number density = 20.238521 Si / 1000 Ang^3
#
#
#
# Elastic Constant Matrix: (Units=GPa)
#
#
# Indices 1 2 3 4 5 6 
#
# 1 78.3928 36.3439 36.4838 0.0000 -14.8682 0.0000
# 2 36.3439 102.0483 25.0017 0.0000 -23.9207 0.0000
# 3 36.4838 25.0017 75.2727 0.0000 -28.9980 0.0000
# 4 0.0000 0.0000 0.0000 13.1041 0.0000 -4.3870
# 5 -14.8682 -23.9207 -28.9980 0.0000 44.8489 0.0000
# 6 0.0000 0.0000 0.0000 -4.3870 0.0000 30.5871
#
#
#
# Elastic Compliance Matrix: (Units=1/GPa)
#
#
# Indices 1 2 3 4 5 6 
#
# 1 0.018455 -0.005026 -0.007925 0.000000 -0.001687 0.000000
# 2 -0.005026 0.012774 0.000235 0.000000 0.005298 0.000000
# 3 -0.007925 0.000235 0.021420 0.000000 0.011347 0.000000
# 4 0.000000 0.000000 0.000000 0.080161 0.000000 0.011497
# 5 -0.001687 0.005298 0.011347 0.000000 0.031901 0.000000
# 6 0.000000 0.000000 0.000000 0.011497 0.000000 0.034343
#
#
# Mechanical properties :
#
#
# Convention : Reuss Voigt Hill
#
# Bulk Modulus (GPa) = 36.74517 50.15250 43.44883
# Shear Modulus (GPa) = 21.40786 28.23364 24.82075
#
# Velocity S-wave (km/s) = 3.25588 3.73908 3.50581
# Velocity P-wave (km/s) = 5.68593 6.59359 6.15651
#
# Compressibility (1/GPa) = 0.02721446
#
# Stress axis : x y z
#
# Youngs Moduli (GPa) = 54.18576 78.28451 46.68572
#
# Poissons Ratio (x) = 0.39349 0.37000
# Poissons Ratio (y) = 0.27236 -0.01095
# Poissons Ratio (z) = 0.42944 -0.01836
#
# Static dielectric constant tensor:
#      x y z
#    x 1.822630 0.000000 0.074140 
#    y 0.000000 1.749790 0.000000 
#    z 0.074140 0.000000 1.820990 
# 
# From -- ./inp_files/51544.got.cif
#   From: 2010.05.17/outbox.cif.g08.bks.cpg/sg15_26_cif.got.tgz:51544.got - 2010.06.03 18:47:42.
