data_PCOD9256185
_publ_section_title
;
Structure prediction by ZEFSAII (Michael W. Deem and Ramdas Pophale) SiO2 
 PCOD9256185
Probable space group: C 2/C
;
_chemical_formula_sum "Si O2"
_cell_formula_units_Z 40
_cell_length_a 20.418267
_cell_length_b 21.613934
_cell_length_c 13.091225
_cell_angle_alpha 90.000000
_cell_angle_beta 25.358616
_cell_angle_gamma 90.000000
_cell_volume 2474.362760
_symmetry_space_group_name_H-M "C 2/C"
_symmetry_group_IT_number 15
_symmetry_cell_setting 'monoclinic'
loop_
_space_group_symop_operation_xyz
x,y,z
-x,y,1/2-z
-x,-y,-z
x,-y,1/2+z
1/2+x,1/2+y,z
1/2-x,1/2+y,1/2-z
1/2-x,1/2-y,-z
1/2+x,1/2-y,1/2+z
loop_
_atom_site_type_symbol
_atom_site_label
_atom_site_fract_x
_atom_site_fract_y
_atom_site_fract_z
Si Si1 0.048350 0.308104 0.300271
Si Si2 0.399459 0.986615 0.798366
Si Si3 0.594878 0.666251 0.217989
Si Si4 0.869919 0.949072 0.696095
Si Si5 0.368226 0.917719 0.637993
O O1 0.046243 0.234753 0.323324
O O2 0.000000 0.317595 0.250000
O O3 0.933658 0.349040 0.528703
O O4 0.224085 0.329729 0.062616
O O5 0.500000 0.959771 0.750000
O O6 0.354830 0.938017 0.774096
O O7 0.504681 0.038093 0.594673
O O8 0.256638 0.021141 0.050242
O O9 0.500000 0.652011 0.250000
O O10 0.570464 0.613291 0.335238
O O11 0.784531 0.930913 0.711427
O O12 0.000000 0.000000 0.500000
#
# Coordination Sequence:
#
# PCOD9256185 Si02
#       5
#     8   8   8   8   8
#     4  10  17  35  55  77 106 143 177 222 273 324
#     4   9  19  33  51  79 101 139 184 213 266 324
#     4  10  21  30  52  83 111 133 179 230 269 310
#     4  11  22  33  51  81 116 140 177 223 273 322
#     4  10  18  34  58  72 107 147 175 218 271 325
#
# _framework density 16.165778
#
# number of rings (size 3 to 8) (size 9 to 14) (size 15 to 20)
#    0.000    2.000    4.000    0.600    2.800    1.600 
#    0.000    0.000    0.000    1.200    0.000    0.000 
#    0.000    0.000    0.000    0.000    0.000    0.000 
#
# Total GULP energy -111534.224527 kJ/mol
# GULP energy per Si atom -5576.711226 kJ/mol
# Density = 1.612898 g / cm^3
# Si number density = 16.165778 Si / 1000 Ang^3
#
#
#
# Elastic Constant Matrix: (Units=GPa)
#
#
# Indices 1 2 3 4 5 6 
#
# 1 142.4992 70.9821 42.5230 0.0017 -8.2963 -0.0006
# 2 70.9821 96.9262 19.6613 -0.0018 -3.0551 -0.0014
# 3 42.5230 19.6613 30.3930 -0.0027 -11.1536 -0.0023
# 4 0.0017 -0.0018 -0.0027 31.3460 -0.0020 5.0644
# 5 -8.2963 -3.0551 -11.1536 -0.0020 26.7989 0.0006
# 6 -0.0006 -0.0014 -0.0023 5.0644 0.0006 22.3146
#
#
#
# Elastic Compliance Matrix: (Units=1/GPa)
#
#
# Indices 1 2 3 4 5 6 
#
# 1 0.016842 -0.008504 -0.019480 -0.000003 -0.003863 -0.000001
# 2 -0.008504 0.016278 0.001278 0.000001 -0.000245 0.000001
# 3 -0.019480 0.001278 0.067476 0.000008 0.022199 0.000004
# 4 -0.000003 0.000001 0.000008 0.033116 0.000005 -0.007516
# 5 -0.003863 -0.000245 0.022199 0.000005 0.045330 0.000000
# 6 -0.000001 0.000001 0.000004 -0.007516 0.000000 0.046519
#
#
# Mechanical properties :
#
#
# Convention : Reuss Voigt Hill
#
# Bulk Modulus (GPa) = 21.19352 59.57235 40.38294
# Shear Modulus (GPa) = 16.96633 25.20203 21.08418
#
# Velocity S-wave (km/s) = 3.24315 3.95267 3.61536
# Velocity P-wave (km/s) = 5.21177 7.60015 6.51632
#
# Compressibility (1/GPa) = 0.04718422
#
# Stress axis : x y z
#
# Youngs Moduli (GPa) = 59.37683 61.43282 14.82003
#
# Poissons Ratio (x) = 0.52242 0.28869
# Poissons Ratio (y) = 0.50494 -0.01894
# Poissons Ratio (z) = 1.15664 -0.07850
#
# Static dielectric constant tensor:
#      x y z
#    x 1.547470 0.000000 -0.017980 
#    y 0.000000 1.548870 0.000000 
#    z -0.017980 0.000000 1.524870 
# 
# From -- ./inp_files/30172.got.cif
#   From: 2010.05.17/outbox.cif.g08.bks.cpg/sg15_16_cif.got.tgz:30172.got - 2010.06.03 18:47:42.
