data_PCOD9256594
_publ_section_title
;
Structure prediction by ZEFSAII (Michael W. Deem and Ramdas Pophale) SiO2 
 PCOD9256594
Probable space group: C 2/C
;
_chemical_formula_sum "Si O2"
_cell_formula_units_Z 48
_cell_length_a 5.160841
_cell_length_b 24.222121
_cell_length_c 25.108814
_cell_angle_alpha 90.000000
_cell_angle_beta 61.068149
_cell_angle_gamma 90.000000
_cell_volume 2747.034030
_symmetry_space_group_name_H-M "C 2/C"
_symmetry_group_IT_number 15
_symmetry_cell_setting 'monoclinic'
loop_
_space_group_symop_operation_xyz
x,y,z
-x,y,1/2-z
-x,-y,-z
x,-y,1/2+z
1/2+x,1/2+y,z
1/2-x,1/2+y,1/2-z
1/2-x,1/2-y,-z
1/2+x,1/2-y,1/2+z
loop_
_atom_site_type_symbol
_atom_site_label
_atom_site_fract_x
_atom_site_fract_y
_atom_site_fract_z
Si Si1 0.725224 0.883550 0.995292
Si Si2 0.663106 0.470189 0.434590
Si Si3 0.578044 0.632978 0.180515
Si Si4 0.917834 0.273301 0.034333
Si Si5 0.238770 0.321023 0.618045
Si Si6 0.247800 0.029311 0.100450
O O1 0.650902 0.931798 0.959839
O O2 0.023319 0.854968 0.942090
O O3 0.785409 0.909495 0.047147
O O4 0.465916 0.838580 0.025589
O O5 0.500000 0.500000 0.500000
O O6 0.463104 0.482574 0.403561
O O7 0.974051 0.501664 0.399022
O O8 0.500000 0.634251 0.250000
O O9 0.349553 0.666909 0.166642
O O10 0.583152 0.571141 0.156254
O O11 0.910191 0.656866 0.140155
O O12 0.766004 0.243148 0.099352
O O13 0.750000 0.250000 0.000000
O O14 0.250000 0.250000 0.000000
#
# Coordination Sequence:
#
# PCOD9256594 Si02
#       6
#     8   8   8   8   8   8
#     4   9  18  30  48  71 103 132 152 185 244 301
#     4  10  18  28  44  68  99 129 154 186 232 291
#     4  11  21  35  52  69  94 130 167 211 255 283
#     4  10  19  30  47  71 102 134 157 190 241 300
#     4  10  20  33  48  74 101 125 164 204 240 300
#     4  10  19  30  44  69  98 124 160 196 230 287
#
# _framework density 17.473393000000002
#
# number of rings (size 3 to 8) (size 9 to 14) (size 15 to 20)
#    0.000    2.000    0.000    8.500    0.000    6.667 
#    0.000    0.000    0.000    0.000    0.000    4.667 
#    0.000    0.000    0.000    0.000    0.000    0.000 
#
# Total GULP energy -133865.889739 kJ/mol
# GULP energy per Si atom -5577.745406 kJ/mol
# Density = 1.743362 g / cm^3
# Si number density = 17.473393 Si / 1000 Ang^3
#
#
#
# Elastic Constant Matrix: (Units=GPa)
#
#
# Indices 1 2 3 4 5 6 
#
# 1 82.2001 13.6543 0.5988 0.0000 10.7512 0.0000
# 2 13.6543 73.9341 22.9270 0.0000 7.8711 0.0000
# 3 0.5988 22.9270 46.7308 0.0000 13.9544 0.0000
# 4 0.0000 0.0000 0.0000 11.7973 0.0000 2.3895
# 5 10.7512 7.8711 13.9544 0.0000 22.9422 0.0000
# 6 0.0000 0.0000 0.0000 2.3895 0.0000 31.2774
#
#
#
# Elastic Compliance Matrix: (Units=1/GPa)
#
#
# Indices 1 2 3 4 5 6 
#
# 1 0.013581 -0.002772 0.003425 0.000000 -0.007496 0.000000
# 2 -0.002772 0.016533 -0.008272 0.000000 0.000659 0.000000
# 3 0.003425 -0.008272 0.030604 0.000000 -0.017381 0.000000
# 4 0.000000 0.000000 0.000000 0.086097 0.000000 -0.006578
# 5 -0.007496 0.000659 -0.017381 0.000000 0.057447 0.000000
# 6 0.000000 0.000000 0.000000 -0.006578 0.000000 0.032474
#
#
# Mechanical properties :
#
#
# Convention : Reuss Voigt Hill
#
# Bulk Modulus (GPa) = 21.98848 30.80280 26.39564
# Shear Modulus (GPa) = 18.71704 24.24905 21.48304
#
# Velocity S-wave (km/s) = 3.27643 3.72932 3.51019
# Velocity P-wave (km/s) = 5.18889 6.01751 5.61850
#
# Compressibility (1/GPa) = 0.04547836
#
# Stress axis : x y z
#
# Youngs Moduli (GPa) = 73.62979 60.48631 32.67532
#
# Poissons Ratio (x) = 0.16768 -0.11190
# Poissons Ratio (y) = 0.20411 0.27030
# Poissons Ratio (z) = -0.25215 0.50036
#
# Static dielectric constant tensor:
#      x y z
#    x 1.619450 0.000000 0.010450 
#    y 0.000000 1.665330 0.000000 
#    z 0.010450 0.000000 1.593390 
# 
# From -- ./inp_files/261516.got.cif
#   From: 2010.05.17/outbox.cif.g08.bks.cpg/sg15_131_cif.got.tgz:261516.got - 2010.06.03 18:47:42.
