data_PCOD9256117
_publ_section_title
;
Structure prediction by ZEFSAII (Michael W. Deem and Ramdas Pophale) SiO2 
 PCOD9256117
Probable space group: C 2/C
;
_chemical_formula_sum "Si O2"
_cell_formula_units_Z 56
_cell_length_a 29.237862
_cell_length_b 14.343267
_cell_length_c 12.860834
_cell_angle_alpha 90.000000
_cell_angle_beta 149.284755
_cell_angle_gamma 90.000000
_cell_volume 2754.797256
_symmetry_space_group_name_H-M "C 2/C"
_symmetry_group_IT_number 15
_symmetry_cell_setting 'monoclinic'
loop_
_space_group_symop_operation_xyz
x,y,z
-x,y,1/2-z
-x,-y,-z
x,-y,1/2+z
1/2+x,1/2+y,z
1/2-x,1/2+y,1/2-z
1/2-x,1/2-y,-z
1/2+x,1/2-y,1/2+z
loop_
_atom_site_type_symbol
_atom_site_label
_atom_site_fract_x
_atom_site_fract_y
_atom_site_fract_z
Si Si1 0.304621 0.512839 0.870578
Si Si2 0.102079 0.278242 0.755885
Si Si3 0.500000 0.439279 0.750000
Si Si4 0.500000 0.267769 0.250000
Si Si5 0.295423 0.730201 0.870974
Si Si6 0.255575 0.139226 0.097357
Si Si7 0.348769 0.644201 0.310957
Si Si8 0.542883 0.302842 0.671799
O O1 0.279591 0.620964 0.817684
O O2 0.254386 0.457919 0.863496
O O3 0.302646 0.450738 0.761632
O O4 0.410176 0.509482 0.103995
O O5 0.060463 0.290710 0.788360
O O6 0.171933 0.354364 0.851839
O O7 0.019971 0.265210 0.516148
O O8 0.160749 0.182406 0.875278
O O9 0.480651 0.375359 0.611796
O O10 0.566989 0.329450 0.450432
O O11 0.287381 0.788155 0.749250
O O12 0.222322 0.773748 0.806409
O O13 0.392043 0.740581 0.114274
O O14 0.389788 0.645295 0.276540
#
# Coordination Sequence:
#
# PCOD9256117 Si02
#       8
#     8   8   4   4   8   8   8   8
#     4  10  20  35  57  85 122 148 188 241 290 352
#     4  10  19  35  59  88 107 156 194 229 291 350
#     4  10  21  36  50  94 123 144 185 240 308 362
#     4  10  17  34  60  84 113 150 193 246 276 350
#     4  10  20  39  55  87 122 153 191 240 290 349
#     4  10  21  37  59  83 121 153 191 233 292 351
#     4  10  20  36  58  84 115 160 192 234 293 340
#     4  10  21  35  60  84 119 150 190 243 293 348
#
# _framework density 20.328175999999999
#
# number of rings (size 3 to 8) (size 9 to 14) (size 15 to 20)
#    0.000    2.000    2.857    2.571    2.000    0.571 
#   12.857    0.000    0.000    6.857    0.000    0.000 
#    0.000    0.000    0.000    0.000    0.000    0.000 
#
# Total GULP energy -156235.655825 kJ/mol
# GULP energy per Si atom -5579.844851 kJ/mol
# Density = 2.028191 g / cm^3
# Si number density = 20.328176 Si / 1000 Ang^3
#
#
#
# Elastic Constant Matrix: (Units=GPa)
#
#
# Indices 1 2 3 4 5 6 
#
# 1 135.6488 29.3359 10.3526 0.0000 23.9053 0.0000
# 2 29.3359 82.3117 20.0837 0.0000 9.3597 0.0000
# 3 10.3526 20.0837 76.6477 0.0000 -6.0198 0.0000
# 4 0.0000 0.0000 0.0000 12.1487 0.0000 4.6603
# 5 23.9053 9.3597 -6.0198 0.0000 33.6462 0.0000
# 6 0.0000 0.0000 0.0000 4.6603 0.0000 7.2843
#
#
#
# Elastic Compliance Matrix: (Units=1/GPa)
#
#
# Indices 1 2 3 4 5 6 
#
# 1 0.008994 -0.002262 -0.001090 0.000000 -0.005956 0.000000
# 2 -0.002262 0.014185 -0.003646 0.000000 -0.002991 0.000000
# 3 -0.001090 -0.003646 0.014493 0.000000 0.004382 0.000000
# 4 0.000000 0.000000 0.000000 0.109085 0.000000 -0.069789
# 5 -0.005956 -0.002991 0.004382 0.000000 0.035569 0.000000
# 6 0.000000 0.000000 0.000000 -0.069789 0.000000 0.181931
#
#
# Mechanical properties :
#
#
# Convention : Reuss Voigt Hill
#
# Bulk Modulus (GPa) = 42.23710 46.01696 44.12703
# Shear Modulus (GPa) = 12.94852 26.27160 19.61006
#
# Velocity S-wave (km/s) = 2.52657 3.59886 3.10929
# Velocity P-wave (km/s) = 5.41610 6.32102 5.88597
#
# Compressibility (1/GPa) = 0.02367587
#
# Stress axis : x y z
#
# Youngs Moduli (GPa) = 111.18536 70.49705 68.99688
#
# Poissons Ratio (x) = 0.15949 0.07519
# Poissons Ratio (y) = 0.25154 0.25157
# Poissons Ratio (z) = 0.12117 0.25704
#
# Static dielectric constant tensor:
#      x y z
#    x 1.763400 0.000000 -0.010180 
#    y 0.000000 1.748450 0.000000 
#    z -0.010180 0.000000 1.740880 
# 
# From -- ./inp_files/182195.got.cif
#   From: 2010.05.17/outbox.cif.g08.bks.cpg/sg15_92_cif.got.tgz:182195.got - 2010.06.03 18:47:42.
