data_PCOD9256542
_publ_section_title
;
Structure prediction by ZEFSAII (Michael W. Deem and Ramdas Pophale) SiO2 
 PCOD9256542
Probable space group: C 2/C
;
_chemical_formula_sum "Si O2"
_cell_formula_units_Z 60
_cell_length_a 21.191185
_cell_length_b 14.149295
_cell_length_c 22.149836
_cell_angle_alpha 90.000000
_cell_angle_beta 150.394620
_cell_angle_gamma 90.000000
_cell_volume 3281.014693
_symmetry_space_group_name_H-M "C 2/C"
_symmetry_group_IT_number 15
_symmetry_cell_setting 'monoclinic'
loop_
_space_group_symop_operation_xyz
x,y,z
-x,y,1/2-z
-x,-y,-z
x,-y,1/2+z
1/2+x,1/2+y,z
1/2-x,1/2+y,1/2-z
1/2-x,1/2-y,-z
1/2+x,1/2-y,1/2+z
loop_
_atom_site_type_symbol
_atom_site_label
_atom_site_fract_x
_atom_site_fract_y
_atom_site_fract_z
Si Si1 0.802930 0.056991 0.369150
Si Si2 0.427091 0.294503 0.816665
Si Si3 0.929751 0.138404 0.951342
Si Si4 0.662265 0.150187 0.143144
Si Si5 0.500000 0.642642 0.250000
Si Si6 0.514647 0.901936 0.411449
Si Si7 0.728755 0.138223 0.991823
Si Si8 0.113062 0.506007 0.301440
O O1 0.705340 0.107073 0.242038
O O2 0.941101 0.107324 0.476356
O O3 0.832020 0.949218 0.371322
O O4 0.740004 0.059021 0.383377
O O5 0.294257 0.345395 0.715891
O O6 0.464709 0.296413 0.778798
O O7 0.420135 0.187475 0.833005
O O8 0.530360 0.344815 0.945397
O O9 0.884289 0.240980 0.890954
O O10 0.564104 0.089810 0.020848
O O11 0.632251 0.592525 0.378475
O O12 0.636716 0.871944 0.472548
O O13 0.451452 0.979561 0.316350
O O14 0.662164 0.085378 0.880179
O O15 0.750000 0.250000 0.000000
O O16 0.000000 0.548088 0.250000
#
# Coordination Sequence:
#
# PCOD9256542 Si02
#       8
#     8   8   8   8   4   8   8   8
#     4  10  20  37  58  78 110 150 183 231 283 329
#     4  10  18  27  46  74 114 146 178 221 259 327
#     4   9  20  36  54  80 111 151 189 224 275 333
#     4  10  20  34  53  79 108 145 192 229 270 325
#     4  12  18  24  42  70 106 152 180 206 250 322
#     4  10  19  30  45  72 108 142 183 219 264 319
#     4  11  20  28  44  74 110 149 181 208 258 335
#     4  10  22  35  51  77 111 147 181 226 281 333
#
# _framework density 18.287026000000001
#
# number of rings (size 3 to 8) (size 9 to 14) (size 15 to 20)
#    0.000    1.867    2.667    2.400    3.733    0.533 
#    0.000    0.000    0.000    0.800    0.000    0.000 
#    0.000    0.000    0.000    0.000    0.000    0.000 
#
# Total GULP energy -167084.248979 kJ/mol
# GULP energy per Si atom -5569.474966 kJ/mol
# Density = 1.824540 g / cm^3
# Si number density = 18.287026 Si / 1000 Ang^3
#
#
#
# Elastic Constant Matrix: (Units=GPa)
#
#
# Indices 1 2 3 4 5 6 
#
# 1 95.6612 33.5874 24.8276 0.0002 2.1497 0.0001
# 2 33.5874 58.7948 35.6717 0.0005 -7.9184 0.0002
# 3 24.8276 35.6717 77.0389 0.0004 -1.6314 0.0002
# 4 0.0002 0.0005 0.0004 23.6467 0.0002 2.4660
# 5 2.1497 -7.9184 -1.6314 0.0002 15.1933 0.0001
# 6 0.0001 0.0002 0.0002 2.4660 0.0001 18.1563
#
#
#
# Elastic Compliance Matrix: (Units=1/GPa)
#
#
# Indices 1 2 3 4 5 6 
#
# 1 0.013668 -0.008208 -0.000738 0.000000 -0.006291 0.000000
# 2 -0.008208 0.030641 -0.011205 0.000000 0.015927 0.000000
# 3 -0.000738 -0.011205 0.018327 0.000000 -0.003768 0.000000
# 4 0.000000 0.000000 0.000000 0.042897 -0.000001 -0.005826
# 5 -0.006291 0.015927 -0.003768 -0.000001 0.074605 0.000000
# 6 0.000000 0.000000 0.000000 -0.005826 0.000000 0.055869
#
#
# Mechanical properties :
#
#
# Convention : Reuss Voigt Hill
#
# Bulk Modulus (GPa) = 44.77431 46.62981 45.70206
# Shear Modulus (GPa) = 17.62097 20.55978 19.09037
#
# Velocity S-wave (km/s) = 3.10752 3.35667 3.23450
# Velocity P-wave (km/s) = 6.11661 6.37002 6.24460
#
# Compressibility (1/GPa) = 0.02233423
#
# Stress axis : x y z
#
# Youngs Moduli (GPa) = 73.16233 32.63631 54.56496
#
# Poissons Ratio (x) = 0.26788 0.04025
# Poissons Ratio (y) = 0.60051 0.61141
# Poissons Ratio (z) = 0.05396 0.36570
#
# Static dielectric constant tensor:
#      x y z
#    x 1.644780 0.000000 0.041260 
#    y 0.000000 1.626670 0.000000 
#    z 0.041260 0.000000 1.713910 
# 
# From -- ./inp_files/112376.got.cif
#   From: 2010.05.17/outbox.cif.g08.bks.cpg/sg15_57_cif.got.tgz:112376.got - 2010.06.03 18:47:42.
