data_PCOD9256874
_publ_section_title
;
Structure prediction by ZEFSAII (Michael W. Deem and Ramdas Pophale) SiO2 
 PCOD9256874
Probable space group: C 2/C
;
_chemical_formula_sum "Si O2"
_cell_formula_units_Z 36
_cell_length_a 17.714212
_cell_length_b 10.031784
_cell_length_c 8.904794
_cell_angle_alpha 90.000000
_cell_angle_beta 68.674858
_cell_angle_gamma 90.000000
_cell_volume 1474.081665
_symmetry_space_group_name_H-M "C 2/C"
_symmetry_group_IT_number 15
_symmetry_cell_setting 'monoclinic'
loop_
_space_group_symop_operation_xyz
x,y,z
-x,y,1/2-z
-x,-y,-z
x,-y,1/2+z
1/2+x,1/2+y,z
1/2-x,1/2+y,1/2-z
1/2-x,1/2-y,-z
1/2+x,1/2-y,1/2+z
loop_
_atom_site_type_symbol
_atom_site_label
_atom_site_fract_x
_atom_site_fract_y
_atom_site_fract_z
Si Si1 0.126894 0.779949 0.579501
Si Si2 0.334149 0.834083 0.755756
Si Si3 0.170449 0.924888 0.032583
Si Si4 0.500000 0.109761 0.250000
Si Si5 0.550330 0.720737 0.428758
O O1 0.167711 0.690900 0.421616
O O2 0.108493 0.722536 0.757052
O O3 0.036972 0.807728 0.577562
O O4 0.168755 0.921502 0.576017
O O5 0.253092 0.890796 0.886866
O O6 0.411243 0.926682 0.744618
O O7 0.342241 0.684320 0.825025
O O8 0.096445 0.901691 0.970803
O O9 0.466137 0.181136 0.423001
#
# Coordination Sequence:
#
# PCOD9256874 Si02
#       5
#     8   8   8   4   8
#     4  10  18  30  48  74 101 128 160 200 245 289
#     4   9  19  31  47  71  99 131 165 198 240 290
#     4  10  18  30  46  70 101 132 162 197 243 293
#     4   8  16  34  50  68 100 132 160 194 240 296
#     4   9  18  29  48  73 100 126 155 199 249 292
#
# _framework density 24.421984999999999
#
# number of rings (size 3 to 8) (size 9 to 14) (size 15 to 20)
#    0.000    2.667    0.000    2.000    0.000    9.778 
#    0.000    0.000    0.000    0.000    0.000   42.000 
#    0.000   14.222    0.000    0.000    0.000    0.444 
#
# Total GULP energy -100384.864829 kJ/mol
# GULP energy per Si atom -5576.936935 kJ/mol
# Density = 2.436640 g / cm^3
# Si number density = 24.421985 Si / 1000 Ang^3
#
#
#
# Elastic Constant Matrix: (Units=GPa)
#
#
# Indices 1 2 3 4 5 6 
#
# 1 42.8679 22.8226 12.7419 0.0000 -1.0189 0.0000
# 2 22.8226 91.4254 51.7711 0.0000 -1.1947 0.0000
# 3 12.7419 51.7711 201.6721 0.0000 -5.1275 0.0000
# 4 0.0000 0.0000 0.0000 3.3497 0.0000 7.8880
# 5 -1.0189 -1.1947 -5.1275 0.0000 29.6208 0.0000
# 6 0.0000 0.0000 0.0000 7.8880 0.0000 92.8009
#
#
#
# Elastic Compliance Matrix: (Units=1/GPa)
#
#
# Indices 1 2 3 4 5 6 
#
# 1 0.026916 -0.006736 0.000045 0.000000 0.000662 0.000000
# 2 -0.006736 0.014484 -0.003298 0.000000 -0.000218 0.000000
# 3 0.000045 -0.003298 0.005825 0.000000 0.000877 0.000000
# 4 0.000000 0.000000 0.000000 0.373242 0.000000 -0.031725
# 5 0.000662 -0.000218 0.000877 0.000000 0.033926 0.000000
# 6 0.000000 0.000000 0.000000 -0.031725 0.000000 0.013472
#
#
# Mechanical properties :
#
#
# Convention : Reuss Voigt Hill
#
# Bulk Modulus (GPa) = 36.70112 56.73740 46.71926
# Shear Modulus (GPa) = 10.06188 41.72960 25.89574
#
# Velocity S-wave (km/s) = 2.03198 4.13811 3.25983
# Velocity P-wave (km/s) = 4.53495 6.79077 5.77409
#
# Compressibility (1/GPa) = 0.02724713
#
# Stress axis : x y z
#
# Youngs Moduli (GPa) = 37.15263 69.04062 171.68439
#
# Poissons Ratio (x) = 0.46507 -0.00781
# Poissons Ratio (y) = 0.25027 0.56625
# Poissons Ratio (z) = -0.00169 0.22771
#
# Static dielectric constant tensor:
#      x y z
#    x 1.991430 0.000000 0.045330 
#    y 0.000000 1.915120 0.000000 
#    z 0.045330 0.000000 1.933090 
# 
# From -- ./inp_files/46008.got.cif
#   From: 2010.05.17/outbox.cif.g08.bks.cpg/sg15_24_cif.got.tgz:46008.got - 2010.06.03 18:47:42.
