data_PCOD9256772
_publ_section_title
;
Structure prediction by ZEFSAII (Michael W. Deem and Ramdas Pophale) SiO2 
 PCOD9256772
Probable space group: C 2/C
;
_chemical_formula_sum "Si O2"
_cell_formula_units_Z 40
_cell_length_a 22.500184
_cell_length_b 13.862732
_cell_length_c 9.791323
_cell_angle_alpha 90.000000
_cell_angle_beta 42.198551
_cell_angle_gamma 90.000000
_cell_volume 2051.411670
_symmetry_space_group_name_H-M "C 2/C"
_symmetry_group_IT_number 15
_symmetry_cell_setting 'monoclinic'
loop_
_space_group_symop_operation_xyz
x,y,z
-x,y,1/2-z
-x,-y,-z
x,-y,1/2+z
1/2+x,1/2+y,z
1/2-x,1/2+y,1/2-z
1/2-x,1/2-y,-z
1/2+x,1/2-y,1/2+z
loop_
_atom_site_type_symbol
_atom_site_label
_atom_site_fract_x
_atom_site_fract_y
_atom_site_fract_z
Si Si1 0.220772 0.395609 0.960288
Si Si2 0.086718 0.411477 0.945487
Si Si3 0.578553 0.133366 0.921634
Si Si4 0.754626 0.110029 0.963342
Si Si5 0.323466 0.729515 0.081571
O O1 0.138613 0.391252 0.995135
O O2 0.264739 0.501737 0.891865
O O3 0.289490 0.323092 0.775587
O O4 0.173757 0.372805 0.183298
O O5 0.061506 0.524392 0.001220
O O6 0.159794 0.396080 0.702843
O O7 0.001723 0.350084 0.046620
O O8 0.590803 0.210426 0.020018
O O9 0.743987 0.189342 0.863200
O O10 0.822977 0.150397 0.960461
#
# Coordination Sequence:
#
# PCOD9256772 Si02
#       5
#     8   8   8   8   8
#     4  10  18  32  50  75 109 135 175 216 256 313
#     4   9  18  30  49  74 110 132 163 215 264 320
#     4  10  18  29  48  78 105 138 166 208 272 311
#     4   9  19  33  49  74 107 141 173 213 260 309
#     4  10  19  32  49  74 109 140 177 210 260 317
#
# _framework density 19.498767999999998
#
# number of rings (size 3 to 8) (size 9 to 14) (size 15 to 20)
#    0.000    2.400    2.000    1.200    0.000    0.800 
#    0.000    0.000    0.000    0.000    0.000   22.400 
#    0.000    0.000    0.000    0.000    0.000    0.000 
#
# Total GULP energy -111408.145124 kJ/mol
# GULP energy per Si atom -5570.407256 kJ/mol
# Density = 1.945439 g / cm^3
# Si number density = 19.498768 Si / 1000 Ang^3
#
#
#
# Elastic Constant Matrix: (Units=GPa)
#
#
# Indices 1 2 3 4 5 6 
#
# 1 91.6174 47.3738 -7.3808 0.0000 -4.1344 0.0000
# 2 47.3738 110.6174 20.8676 0.0000 0.5149 0.0000
# 3 -7.3808 20.8676 45.0044 0.0000 5.8763 0.0000
# 4 0.0000 0.0000 0.0000 14.9315 0.0000 9.6861
# 5 -4.1344 0.5149 5.8763 0.0000 10.7985 0.0000
# 6 0.0000 0.0000 0.0000 9.6861 0.0000 38.1826
#
#
#
# Elastic Compliance Matrix: (Units=1/GPa)
#
#
# Indices 1 2 3 4 5 6 
#
# 1 0.015523 -0.007741 0.005717 0.000000 0.003201 0.000000
# 2 -0.007741 0.013815 -0.007753 0.000000 0.000596 0.000000
# 3 0.005717 -0.007753 0.028439 0.000000 -0.012918 0.000000
# 4 0.000000 0.000000 0.000000 0.080164 0.000000 -0.020336
# 5 0.003201 0.000596 -0.012918 0.000000 0.100832 0.000000
# 6 0.000000 0.000000 0.000000 -0.020336 0.000000 0.031349
#
#
# Mechanical properties :
#
#
# Convention : Reuss Voigt Hill
#
# Bulk Modulus (GPa) = 26.16235 40.99561 33.57898
# Shear Modulus (GPa) = 16.53333 25.20776 20.87055
#
# Velocity S-wave (km/s) = 2.91506 3.59944 3.27517
# Velocity P-wave (km/s) = 4.97762 6.19233 5.61790
#
# Compressibility (1/GPa) = 0.03822286
#
# Stress axis : x y z
#
# Youngs Moduli (GPa) = 64.42056 72.38269 35.16242
#
# Poissons Ratio (x) = 0.56035 -0.20104
# Poissons Ratio (y) = 0.49871 0.27263
# Poissons Ratio (z) = -0.36832 0.56121
#
# Static dielectric constant tensor:
#      x y z
#    x 1.732510 0.000000 0.024650 
#    y 0.000000 1.727500 0.000000 
#    z 0.024650 0.000000 1.768840 
# 
# From -- ./inp_files/46086.got.cif
#   From: 2010.05.17/outbox.cif.g08.bks.cpg/sg15_24_cif.got.tgz:46086.got - 2010.06.03 18:47:42.
