data_PCOD9256282
_publ_section_title
;
Structure prediction by ZEFSAII (Michael W. Deem and Ramdas Pophale) SiO2 
 PCOD9256282
Probable space group: C 2/C
;
_chemical_formula_sum "Si O2"
_cell_formula_units_Z 60
_cell_length_a 10.930830
_cell_length_b 21.491710
_cell_length_c 15.307165
_cell_angle_alpha 90.000000
_cell_angle_beta 101.664605
_cell_angle_gamma 90.000000
_cell_volume 3521.728490
_symmetry_space_group_name_H-M "C 2/C"
_symmetry_group_IT_number 15
_symmetry_cell_setting 'monoclinic'
loop_
_space_group_symop_operation_xyz
x,y,z
-x,y,1/2-z
-x,-y,-z
x,-y,1/2+z
1/2+x,1/2+y,z
1/2-x,1/2+y,1/2-z
1/2-x,1/2-y,-z
1/2+x,1/2-y,1/2+z
loop_
_atom_site_type_symbol
_atom_site_label
_atom_site_fract_x
_atom_site_fract_y
_atom_site_fract_z
Si Si1 0.010794 0.719972 0.647939
Si Si2 0.852787 0.077341 0.564421
Si Si3 0.000000 0.481224 0.250000
Si Si4 0.704730 0.883576 0.208409
Si Si5 0.467200 0.529495 0.347169
Si Si6 0.988874 0.154577 0.040808
Si Si7 0.733525 0.137049 0.908446
Si Si8 0.792555 0.492317 0.599226
O O1 0.128641 0.674306 0.658460
O O2 0.022963 0.781905 0.593657
O O3 0.000000 0.734658 0.750000
O O4 0.888092 0.680515 0.602668
O O5 0.801920 0.093168 0.651957
O O6 0.918153 0.134155 0.523617
O O7 0.954704 0.022818 0.589951
O O8 0.742176 0.050401 0.487604
O O9 0.100965 0.435821 0.218248
O O10 0.078159 0.519662 0.332117
O O11 0.765449 0.865058 0.309604
O O12 0.500000 0.525824 0.250000
O O13 0.503300 0.596745 0.390812
O O14 0.322247 0.517337 0.349427
O O15 0.849911 0.159052 0.981683
O O16 0.704883 0.065016 0.927550
#
# Coordination Sequence:
#
# PCOD9256282 Si02
#       8
#     8   8   4   8   8   8   8   8
#     4  10  20  37  55  75 102 140 185 218 259 317
#     4  11  22  33  54  83 112 140 171 219 273 323
#     4  10  18  36  56  76 106 146 184 218 256 314
#     4  10  20  34  56  77 102 145 177 220 262 313
#     4  11  20  34  54  81 113 141 174 213 274 322
#     4  11  21  34  54  80 110 138 170 229 268 311
#     4  10  17  36  55  78 103 135 188 220 255 307
#     4  10  18  35  53  79 113 134 176 224 262 314
#
# _framework density 17.037089000000002
#
# number of rings (size 3 to 8) (size 9 to 14) (size 15 to 20)
#    0.000    1.600    6.000    3.200    0.000    1.067 
#    0.000    0.000    0.000    3.200    0.000    0.000 
#    0.000    0.000    0.000    0.000    0.000    0.000 
#
# Total GULP energy -167408.456812 kJ/mol
# GULP energy per Si atom -5580.281894 kJ/mol
# Density = 1.699831 g / cm^3
# Si number density = 17.037089 Si / 1000 Ang^3
#
#
#
# Elastic Constant Matrix: (Units=GPa)
#
#
# Indices 1 2 3 4 5 6 
#
# 1 28.3548 15.6407 13.4802 0.0000 5.5407 0.0000
# 2 15.6407 69.7602 13.4098 0.0000 1.7318 0.0000
# 3 13.4802 13.4098 39.7274 0.0000 11.0370 0.0000
# 4 0.0000 0.0000 0.0000 25.8801 0.0000 -1.5713
# 5 5.5407 1.7318 11.0370 0.0000 41.9275 0.0000
# 6 0.0000 0.0000 0.0000 -1.5713 0.0000 17.1877
#
#
#
# Elastic Compliance Matrix: (Units=1/GPa)
#
#
# Indices 1 2 3 4 5 6 
#
# 1 0.045918 -0.007884 -0.012218 0.000000 -0.002526 0.000000
# 2 -0.007884 0.016707 -0.003304 0.000000 0.001221 0.000000
# 3 -0.012218 -0.003304 0.032309 0.000000 -0.006754 0.000000
# 4 0.000000 0.000000 0.000000 0.038855 0.000000 0.003552
# 5 -0.002526 0.001221 -0.006754 0.000000 0.025912 0.000000
# 6 0.000000 0.000000 0.000000 0.003552 0.000000 0.058506
#
#
# Mechanical properties :
#
#
# Convention : Reuss Voigt Hill
#
# Bulk Modulus (GPa) = 20.77986 24.76708 22.77347
# Shear Modulus (GPa) = 17.78983 23.35317 20.57150
#
# Velocity S-wave (km/s) = 3.23489 3.70635 3.47861
# Velocity P-wave (km/s) = 5.11625 5.73452 5.43418
#
# Compressibility (1/GPa) = 0.04812351
#
# Stress axis : x y z
#
# Youngs Moduli (GPa) = 21.77780 59.85462 30.95133
#
# Poissons Ratio (x) = 0.47188 0.37816
# Poissons Ratio (y) = 0.17169 0.10225
# Poissons Ratio (z) = 0.26608 0.19774
#
# Static dielectric constant tensor:
#      x y z
#    x 1.567840 0.000000 0.009170 
#    y 0.000000 1.560340 0.000000 
#    z 0.009170 0.000000 1.586320 
# 
# From -- ./inp_files/90896.got.cif
#   From: 2010.05.17/outbox.cif.g08.bks.cpg/sg15_46_cif.got.tgz:90896.got - 2010.06.03 18:47:42.
