data_PCOD9256558
_publ_section_title
;
Structure prediction by ZEFSAII (Michael W. Deem and Ramdas Pophale) SiO2 
 PCOD9256558
Probable space group: C 2/C
;
_chemical_formula_sum "Si O2"
_cell_formula_units_Z 56
_cell_length_a 25.874266
_cell_length_b 30.647693
_cell_length_c 5.218491
_cell_angle_alpha 90.000000
_cell_angle_beta 78.295765
_cell_angle_gamma 90.000000
_cell_volume 4052.151169
_symmetry_space_group_name_H-M "C 2/C"
_symmetry_group_IT_number 15
_symmetry_cell_setting 'monoclinic'
loop_
_space_group_symop_operation_xyz
x,y,z
-x,y,1/2-z
-x,-y,-z
x,-y,1/2+z
1/2+x,1/2+y,z
1/2-x,1/2+y,1/2-z
1/2-x,1/2-y,-z
1/2+x,1/2-y,1/2+z
loop_
_atom_site_type_symbol
_atom_site_label
_atom_site_fract_x
_atom_site_fract_y
_atom_site_fract_z
Si Si1 0.555286 0.381330 0.848959
Si Si2 0.347542 0.669661 0.469679
Si Si3 0.000000 0.819862 0.250000
Si Si4 0.561816 0.518959 0.253361
Si Si5 0.500000 0.258342 0.750000
Si Si6 0.673963 0.786168 0.521420
Si Si7 0.114553 0.729244 0.581982
Si Si8 0.712383 0.315158 0.971717
O O1 0.500000 0.377508 0.750000
O O2 0.603215 0.360619 0.645642
O O3 0.564472 0.432706 0.867781
O O4 0.546660 0.352725 0.114988
O O5 0.368879 0.719511 0.439902
O O6 0.320316 0.662179 0.768989
O O7 0.304555 0.666750 0.286032
O O8 0.006647 0.788739 0.490168
O O9 0.500000 0.509511 0.250000
O O10 0.584944 0.486845 0.445423
O O11 0.552974 0.230122 0.710520
O O12 0.648219 0.793457 0.271325
O O13 0.694084 0.735738 0.496501
O O14 0.725491 0.814451 0.533273
O O15 0.630985 0.789144 0.789958
#
# Coordination Sequence:
#
# PCOD9256558 Si02
#       8
#     8   8   4   8   4   8   8   8
#     4  11  23  31  46  59  79  98 121 150 197 243
#     4  10  19  28  41  58  74  93 115 151 189 227
#     4  12  22  30  40  57  78 100 114 152 190 244
#     4   9  20  33  45  57  72  94 123 150 178 225
#     4  12  22  30  40  59  84  98 124 152 188 240
#     4   9  17  29  42  53  70  98 121 147 177 216
#     4  10  18  28  41  55  75  98 120 146 184 223
#     4   9  18  29  41  56  72  90 123 149 176 221
#
# _framework density 13.819819000000001
#
# number of rings (size 3 to 8) (size 9 to 14) (size 15 to 20)
#    0.000    2.000    2.143    1.714   11.000    3.429 
#    0.000    0.000    0.000    0.000    0.000    0.000 
#    0.000    0.000    0.000    0.000    0.000    0.000 
#
# Total GULP energy -156037.139435 kJ/mol
# GULP energy per Si atom -5572.754980 kJ/mol
# Density = 1.378836 g / cm^3
# Si number density = 13.819819 Si / 1000 Ang^3
#
#
#
# Elastic Constant Matrix: (Units=GPa)
#
#
# Indices 1 2 3 4 5 6 
#
# 1 36.8852 5.7806 -6.3858 0.0000 -3.5744 0.0000
# 2 5.7806 11.9732 1.2936 0.0000 -1.8740 0.0000
# 3 -6.3858 1.2936 55.7451 0.0000 2.0271 0.0000
# 4 0.0000 0.0000 0.0000 2.8268 0.0000 -0.7231
# 5 -3.5744 -1.8740 2.0271 0.0000 18.6310 0.0000
# 6 0.0000 0.0000 0.0000 -0.7231 0.0000 5.0083
#
#
#
# Elastic Compliance Matrix: (Units=1/GPa)
#
#
# Indices 1 2 3 4 5 6 
#
# 1 0.030397 -0.014450 0.003673 0.000000 0.003979 0.000000
# 2 -0.014450 0.092016 -0.004042 0.000000 0.006923 0.000000
# 3 0.003673 -0.004042 0.018516 0.000000 -0.001716 0.000000
# 4 0.000000 0.000000 0.000000 0.367318 0.000000 0.053035
# 5 0.003979 0.006923 -0.001716 0.000000 0.055320 0.000000
# 6 0.000000 0.000000 0.000000 0.053035 0.000000 0.207326
#
#
# Mechanical properties :
#
#
# Convention : Reuss Voigt Hill
#
# Bulk Modulus (GPa) = 8.98549 11.77561 10.38055
# Shear Modulus (GPa) = 5.96923 12.22090 9.09506
#
# Velocity S-wave (km/s) = 2.08055 2.97695 2.56816
# Velocity P-wave (km/s) = 3.50537 4.51172 4.04000
#
# Compressibility (1/GPa) = 0.11129053
#
# Stress axis : x y z
#
# Youngs Moduli (GPa) = 32.89786 10.86765 54.00813
#
# Poissons Ratio (x) = 0.15703 -0.19836
# Poissons Ratio (y) = 0.47536 0.21832
# Poissons Ratio (z) = -0.12082 0.04393
#
# Static dielectric constant tensor:
#      x y z
#    x 1.477460 0.000000 0.010290 
#    y 0.000000 1.425990 0.000000 
#    z 0.010290 0.000000 1.512810 
# 
# From -- ./inp_files/16304.got.cif
#   From: 2010.05.17/outbox.cif.g08.bks.cpg/sg15_9_cif.got.tgz:16304.got - 2010.06.03 18:47:42.
