data_PCOD9256362
_publ_section_title
;
Structure prediction by ZEFSAII (Michael W. Deem and Ramdas Pophale) SiO2 
 PCOD9256362
Probable space group: C 2/C
;
_chemical_formula_sum "Si O2"
_cell_formula_units_Z 52
_cell_length_a 16.997375
_cell_length_b 9.149180
_cell_length_c 16.540711
_cell_angle_alpha 90.000000
_cell_angle_beta 86.719437
_cell_angle_gamma 90.000000
_cell_volume 2568.064539
_symmetry_space_group_name_H-M "C 2/C"
_symmetry_group_IT_number 15
_symmetry_cell_setting 'monoclinic'
loop_
_space_group_symop_operation_xyz
x,y,z
-x,y,1/2-z
-x,-y,-z
x,-y,1/2+z
1/2+x,1/2+y,z
1/2-x,1/2+y,1/2-z
1/2-x,1/2-y,-z
1/2+x,1/2-y,1/2+z
loop_
_atom_site_type_symbol
_atom_site_label
_atom_site_fract_x
_atom_site_fract_y
_atom_site_fract_z
Si Si1 0.169767 0.364139 0.283316
Si Si2 0.630425 0.414647 0.879424
Si Si3 0.955809 0.115611 0.400169
Si Si4 0.702780 0.814080 0.799144
Si Si5 0.089604 0.111696 0.724651
Si Si6 0.000000 0.330249 0.250000
Si Si7 0.673546 0.317187 0.464102
O O1 0.162479 0.245229 0.355729
O O2 0.215221 0.274393 0.210872
O O3 0.215545 0.513865 0.294724
O O4 0.080210 0.410500 0.268660
O O5 0.544414 0.413904 0.926111
O O6 0.614398 0.496897 0.794364
O O7 0.684981 0.517797 0.930059
O O8 0.898147 0.181023 0.469569
O O9 0.974126 0.227492 0.325830
O O10 0.916296 0.974979 0.359250
O O11 0.650361 0.745026 0.729975
O O12 0.657901 0.775602 0.884164
O O13 0.000000 0.158224 0.750000
O O14 0.750000 0.250000 0.500000
#
# Coordination Sequence:
#
# PCOD9256362 Si02
#       7
#     8   8   8   8   8   4   8
#     4  11  22  40  65  87 125 160 210 254 307 363
#     4   9  19  39  59  84 117 165 204 243 295 367
#     4  10  17  36  65  85 119 159 208 243 299 371
#     4  11  24  37  62  91 124 158 207 259 312 360
#     4   9  17  35  62  90 116 154 208 250 301 369
#     4  10  20  38  66  92 118 164 206 248 302 370
#     4  11  23  34  60  91 127 161 200 249 312 359
#
# _framework density 20.248712000000001
#
# number of rings (size 3 to 8) (size 9 to 14) (size 15 to 20)
#    0.000    1.846    3.846    3.231    3.231    0.000 
#    0.000    3.846    6.769    0.000    0.000    0.000 
#    0.000    0.000    0.000    0.000    0.000    0.000 
#
# Total GULP energy -145046.801562 kJ/mol
# GULP energy per Si atom -5578.723137 kJ/mol
# Density = 2.020263 g / cm^3
# Si number density = 20.248712 Si / 1000 Ang^3
#
#
#
# Elastic Constant Matrix: (Units=GPa)
#
#
# Indices 1 2 3 4 5 6 
#
# 1 100.5366 35.0144 37.6896 0.0000 -15.5657 0.0000
# 2 35.0144 110.5155 34.5363 0.0000 -13.3854 0.0000
# 3 37.6896 34.5363 81.9627 0.0000 -24.8440 0.0000
# 4 0.0000 0.0000 0.0000 17.8944 0.0000 -2.2089
# 5 -15.5657 -13.3854 -24.8440 0.0000 30.0474 0.0000
# 6 0.0000 0.0000 0.0000 -2.2089 0.0000 31.1706
#
#
#
# Elastic Compliance Matrix: (Units=1/GPa)
#
#
# Indices 1 2 3 4 5 6 
#
# 1 0.012686 -0.002468 -0.004183 0.000000 0.002014 0.000000
# 2 -0.002468 0.010942 -0.003184 0.000000 0.000964 0.000000
# 3 -0.004183 -0.003184 0.019188 0.000000 0.012280 0.000000
# 4 0.000000 0.000000 0.000000 0.056377 0.000000 0.003995
# 5 0.002014 0.000964 0.012280 0.000000 0.044906 0.000000
# 6 0.000000 0.000000 0.000000 0.003995 0.000000 0.032365
#
#
# Mechanical properties :
#
#
# Convention : Reuss Voigt Hill
#
# Bulk Modulus (GPa) = 43.20377 56.38838 49.79608
# Shear Modulus (GPa) = 24.52792 28.20743 26.36768
#
# Velocity S-wave (km/s) = 3.48420 3.73640 3.61250
# Velocity P-wave (km/s) = 6.12936 6.82075 6.48428
#
# Compressibility (1/GPa) = 0.02314613
#
# Stress axis : x y z
#
# Youngs Moduli (GPa) = 78.82558 91.39031 52.11615
#
# Poissons Ratio (x) = 0.22557 0.21802
# Poissons Ratio (y) = 0.19456 0.16592
# Poissons Ratio (z) = 0.32975 0.29095
#
# Static dielectric constant tensor:
#      x y z
#    x 1.798410 0.000000 0.020890 
#    y 0.000000 1.726650 0.000000 
#    z 0.020890 0.000000 1.740270 
# 
# From -- ./inp_files/209069.got.cif
#   From: 2010.05.17/outbox.cif.g08.bks.cpg/sg15_105_cif.got.tgz:209069.got - 2010.06.03 18:47:42.
