data_PCOD9256228
_publ_section_title
;
Structure prediction by ZEFSAII (Michael W. Deem and Ramdas Pophale) SiO2 
 PCOD9256228
Probable space group: C 2/C
;
_chemical_formula_sum "Si O2"
_cell_formula_units_Z 56
_cell_length_a 20.831775
_cell_length_b 20.703871
_cell_length_c 9.028719
_cell_angle_alpha 90.000000
_cell_angle_beta 41.620695
_cell_angle_gamma 90.000000
_cell_volume 2586.428034
_symmetry_space_group_name_H-M "C 2/C"
_symmetry_group_IT_number 15
_symmetry_cell_setting 'monoclinic'
loop_
_space_group_symop_operation_xyz
x,y,z
-x,y,1/2-z
-x,-y,-z
x,-y,1/2+z
1/2+x,1/2+y,z
1/2-x,1/2+y,1/2-z
1/2-x,1/2-y,-z
1/2+x,1/2-y,1/2+z
loop_
_atom_site_type_symbol
_atom_site_label
_atom_site_fract_x
_atom_site_fract_y
_atom_site_fract_z
Si Si1 0.219245 0.176540 0.561728
Si Si2 0.588027 0.956412 0.683168
Si Si3 0.704253 0.856925 0.281885
Si Si4 0.414038 0.863017 0.571082
Si Si5 0.787563 0.579773 0.040797
Si Si6 0.543773 0.758695 0.509213
Si Si7 0.094458 0.876187 0.022426
O O1 0.250000 0.250000 0.500000
O O2 0.211498 0.156502 0.745291
O O3 0.311865 0.142304 0.332106
O O4 0.133284 0.161474 0.600989
O O5 0.500000 0.988872 0.750000
O O6 0.627128 0.901545 0.502561
O O7 0.546671 0.924359 0.904844
O O8 0.672960 0.007944 0.553322
O O9 0.648635 0.791742 0.334389
O O10 0.733578 0.890210 0.081329
O O11 0.375065 0.880251 0.473894
O O12 0.477516 0.799512 0.505735
O O13 0.686345 0.584367 0.304328
O O14 0.500000 0.770224 0.750000
O O15 0.562564 0.681690 0.465246
O O16 0.000000 0.912142 0.250000
#
# Coordination Sequence:
#
# PCOD9256228 Si02
#       7
#     8   8   8   8   8   8   8
#     4  10  17  35  61  85 112 164 207 244 305 384
#     4  11  21  39  63  89 131 173 205 244 314 403
#     4  11  21  36  62  91 134 156 204 263 309 376
#     4  10  20  36  58  90 126 164 205 240 318 379
#     4  11  26  36  56  97 132 163 208 264 316 360
#     4  11  17  36  62  87 119 168 209 239 303 388
#     4  10  22  41  65  82 119 169 216 258 308 381
#
# _framework density 21.651482000000001
#
# number of rings (size 3 to 8) (size 9 to 14) (size 15 to 20)
#    0.000    1.429    5.714    1.714    2.000    1.714 
#    0.000    0.714    6.286   13.714    0.000    0.000 
#    0.000    0.000    0.000    0.000    0.000    0.000 
#
# Total GULP energy -156089.031294 kJ/mol
# GULP energy per Si atom -5574.608260 kJ/mol
# Density = 2.160220 g / cm^3
# Si number density = 21.651482 Si / 1000 Ang^3
#
#
#
# Elastic Constant Matrix: (Units=GPa)
#
#
# Indices 1 2 3 4 5 6 
#
# 1 103.4870 13.1573 22.7702 0.0000 16.4630 0.0000
# 2 13.1573 46.7264 7.3581 0.0000 3.2173 0.0000
# 3 22.7702 7.3581 43.4764 0.0000 6.0758 0.0000
# 4 0.0000 0.0000 0.0000 9.6957 0.0000 1.6564
# 5 16.4630 3.2173 6.0758 0.0000 36.0313 0.0000
# 6 0.0000 0.0000 0.0000 1.6564 0.0000 23.2878
#
#
#
# Elastic Compliance Matrix: (Units=1/GPa)
#
#
# Indices 1 2 3 4 5 6 
#
# 1 0.011770 -0.002200 -0.005190 0.000000 -0.004306 0.000000
# 2 -0.002200 0.022465 -0.002570 0.000000 -0.000567 0.000000
# 3 -0.005190 -0.002570 0.026413 0.000000 -0.001853 0.000000
# 4 0.000000 0.000000 0.000000 0.104407 0.000000 -0.007426
# 5 -0.004306 -0.000567 -0.001853 0.000000 0.030084 0.000000
# 6 0.000000 0.000000 0.000000 -0.007426 0.000000 0.043469
#
#
# Mechanical properties :
#
#
# Convention : Reuss Voigt Hill
#
# Bulk Modulus (GPa) = 24.55436 31.14011 27.84723
# Shear Modulus (GPa) = 18.37530 23.82992 21.10261
#
# Velocity S-wave (km/s) = 2.91638 3.32115 3.12532
# Velocity P-wave (km/s) = 4.76505 5.39633 5.09049
#
# Compressibility (1/GPa) = 0.04072597
#
# Stress axis : x y z
#
# Youngs Moduli (GPa) = 84.96316 44.51453 37.85985
#
# Poissons Ratio (x) = 0.09795 0.19650
# Poissons Ratio (y) = 0.18695 0.09731
# Poissons Ratio (z) = 0.44097 0.11442
#
# Static dielectric constant tensor:
#      x y z
#    x 1.805100 0.000000 0.065450 
#    y 0.000000 1.466190 0.000000 
#    z 0.065450 0.000000 1.769420 
# 
# From -- ./inp_files/51472.got.cif
#   From: 2010.05.17/outbox.cif.g08.bks.cpg/sg15_26_cif.got.tgz:51472.got - 2010.06.03 18:47:42.
