data_PCOD9256198
_publ_section_title
;
Structure prediction by ZEFSAII (Michael W. Deem and Ramdas Pophale) SiO2 
 PCOD9256198
Probable space group: C 2/C
;
_chemical_formula_sum "Si O2"
_cell_formula_units_Z 24
_cell_length_a 9.532583
_cell_length_b 8.731976
_cell_length_c 14.242220
_cell_angle_alpha 90.000000
_cell_angle_beta 46.927921
_cell_angle_gamma 90.000000
_cell_volume 866.000536
_symmetry_space_group_name_H-M "C 2/C"
_symmetry_group_IT_number 15
_symmetry_cell_setting 'monoclinic'
loop_
_space_group_symop_operation_xyz
x,y,z
-x,y,1/2-z
-x,-y,-z
x,-y,1/2+z
1/2+x,1/2+y,z
1/2-x,1/2+y,1/2-z
1/2-x,1/2-y,-z
1/2+x,1/2-y,1/2+z
loop_
_atom_site_type_symbol
_atom_site_label
_atom_site_fract_x
_atom_site_fract_y
_atom_site_fract_z
Si Si1 0.322065 0.459610 0.098272
Si Si2 0.886417 0.163800 0.214062
Si Si3 0.002472 0.491995 0.109226
O O1 0.204874 0.549827 0.256524
O O2 0.176004 0.550004 0.093553
O O3 0.503390 0.431986 0.934661
O O4 0.218834 0.211423 0.842858
O O5 0.010351 0.315356 0.130934
O O6 0.000000 0.085700 0.250000
O O7 0.000000 0.500000 0.000000
#
# Coordination Sequence:
#
# PCOD9256198 Si02
#       3
#     8   8   8
#     4   9  19  36  57  76 108 142 173 216 266 311
#     4  10  17  35  57  75 106 140 176 215 266 308
#     4   9  20  36  55  75 112 138 174 215 273 303
#
# _framework density 27.713611
#
# number of rings (size 3 to 8) (size 9 to 14) (size 15 to 20)
#    2.000    0.667    3.333    0.000    0.000    4.000 
#    0.000    3.333    0.000    0.000    0.000    0.000 
#    0.000    0.000    0.000    0.000    0.000    0.000 
#
# Total GULP energy -66808.266103 kJ/mol
# GULP energy per Si atom -5567.355509 kJ/mol
# Density = 2.765053 g / cm^3
# Si number density = 27.713611 Si / 1000 Ang^3
#
#
#
# Elastic Constant Matrix: (Units=GPa)
#
#
# Indices 1 2 3 4 5 6 
#
# 1 176.6262 32.1656 59.1345 0.0000 23.5016 0.0000
# 2 32.1656 81.5373 14.3749 0.0000 20.1714 0.0000
# 3 59.1345 14.3749 232.3016 0.0000 18.5256 0.0000
# 4 0.0000 0.0000 0.0000 77.3743 0.0000 6.9058
# 5 23.5016 20.1714 18.5256 0.0000 85.9725 0.0000
# 6 0.0000 0.0000 0.0000 6.9058 0.0000 35.2320
#
#
#
# Elastic Compliance Matrix: (Units=1/GPa)
#
#
# Indices 1 2 3 4 5 6 
#
# 1 0.006681 -0.002124 -0.001489 0.000000 -0.001007 0.000000
# 2 -0.002124 0.013770 -0.000102 0.000000 -0.002628 0.000000
# 3 -0.001489 -0.000102 0.004737 0.000000 -0.000590 0.000000
# 4 0.000000 0.000000 0.000000 0.013154 0.000000 -0.002578
# 5 -0.001007 -0.002628 -0.000590 0.000000 0.012651 0.000000
# 6 0.000000 0.000000 0.000000 -0.002578 0.000000 0.028889
#
#
# Mechanical properties :
#
#
# Convention : Reuss Voigt Hill
#
# Bulk Modulus (GPa) = 56.30943 77.97946 67.14445
# Shear Modulus (GPa) = 53.63006 65.36844 59.49925
#
# Velocity S-wave (km/s) = 4.40381 4.86193 4.63853
# Velocity P-wave (km/s) = 6.79857 7.72764 7.27794
#
# Compressibility (1/GPa) = 0.01775901
#
# Stress axis : x y z
#
# Youngs Moduli (GPa) = 149.67880 72.61977 211.09891
#
# Poissons Ratio (x) = 0.15424 0.31432
# Poissons Ratio (y) = 0.31790 0.02150
# Poissons Ratio (z) = 0.22286 0.00740
#
# Static dielectric constant tensor:
#      x y z
#    x 2.265370 0.000000 -0.020870 
#    y 0.000000 2.051540 0.000000 
#    z -0.020870 0.000000 2.662150 
# 
# From -- ./inp_files/45609.got.cif
#   From: 2010.05.17/outbox.cif.g08.bks.cpg/sg15_23_cif.got.tgz:45609.got - 2010.06.03 18:47:42.
