data_PCOD9256393
_publ_section_title
;
Structure prediction by ZEFSAII (Michael W. Deem and Ramdas Pophale) SiO2 
 PCOD9256393
Probable space group: C 2/C
;
_chemical_formula_sum "Si O2"
_cell_formula_units_Z 60
_cell_length_a 16.702709
_cell_length_b 10.755573
_cell_length_c 26.797989
_cell_angle_alpha 90.000000
_cell_angle_beta 147.763848
_cell_angle_gamma 90.000000
_cell_volume 2567.934258
_symmetry_space_group_name_H-M "C 2/C"
_symmetry_group_IT_number 15
_symmetry_cell_setting 'monoclinic'
loop_
_space_group_symop_operation_xyz
x,y,z
-x,y,1/2-z
-x,-y,-z
x,-y,1/2+z
1/2+x,1/2+y,z
1/2-x,1/2+y,1/2-z
1/2-x,1/2-y,-z
1/2+x,1/2-y,1/2+z
loop_
_atom_site_type_symbol
_atom_site_label
_atom_site_fract_x
_atom_site_fract_y
_atom_site_fract_z
Si Si1 0.500000 0.357544 0.250000
Si Si2 0.939161 0.416896 0.613447
Si Si3 0.194972 0.373605 0.856383
Si Si4 0.011602 0.190647 0.928192
Si Si5 0.315052 0.546870 0.081564
Si Si6 0.281104 0.945156 0.222755
Si Si7 0.628706 0.103231 0.074974
Si Si8 0.575795 0.314592 0.734791
O O1 0.366456 0.260820 0.194907
O O2 0.414203 0.445317 0.164914
O O3 0.924492 0.422178 0.665279
O O4 0.793784 0.480381 0.513763
O O5 0.948224 0.277804 0.597348
O O6 0.092891 0.484901 0.678185
O O7 0.237814 0.465175 0.834764
O O8 0.340181 0.359203 0.967931
O O9 0.883537 0.092900 0.845523
O O10 0.945082 0.280362 0.936515
O O11 0.201199 0.618865 0.058583
O O12 0.441648 0.639929 0.128836
O O13 0.359071 0.816410 0.247467
O O14 0.785681 0.088235 0.188485
O O15 0.500000 0.000000 0.000000
O O16 0.500000 0.303139 0.750000
#
# Coordination Sequence:
#
# PCOD9256393 Si02
#       8
#     4   8   8   8   8   8   8   8
#     4  12  20  40  70 100 128 180 238 276 346 408
#     4  12  24  44  67 103 138 176 240 295 332 414
#     4  12  24  45  72  97 137 189 233 280 346 432
#     4  11  25  43  68 101 140 180 232 290 348 412
#     4  11  22  39  68 105 130 175 232 291 345 411
#     4  11  25  48  65  98 145 190 225 277 364 422
#     4  10  17  37  61  90 135 170 212 274 345 404
#     4   9  19  37  65  92 127 181 224 269 335 423
#
# _framework density 23.365082999999998
#
# number of rings (size 3 to 8) (size 9 to 14) (size 15 to 20)
#    0.000    1.067    6.000    1.600    0.000    0.533 
#    9.600    0.000    0.000    0.000    0.000    0.000 
#    0.000    0.000    0.000    0.000    0.000    0.000 
#
# Total GULP energy -167518.483149 kJ/mol
# GULP energy per Si atom -5583.949438 kJ/mol
# Density = 2.331190 g / cm^3
# Si number density = 23.365083 Si / 1000 Ang^3
#
#
#
# Elastic Constant Matrix: (Units=GPa)
#
#
# Indices 1 2 3 4 5 6 
#
# 1 56.6631 6.9849 4.7198 0.0000 2.1898 0.0000
# 2 6.9849 52.0055 14.3744 0.0000 -2.0163 0.0000
# 3 4.7198 14.3744 122.8580 0.0000 4.0092 0.0000
# 4 0.0000 0.0000 0.0000 42.1960 0.0000 14.4371
# 5 2.1898 -2.0163 4.0092 0.0000 37.1993 0.0000
# 6 0.0000 0.0000 0.0000 14.4371 0.0000 21.2282
#
#
#
# Elastic Compliance Matrix: (Units=1/GPa)
#
#
# Indices 1 2 3 4 5 6 
#
# 1 0.018015 -0.002359 -0.000379 0.000000 -0.001148 0.000000
# 2 -0.002359 0.020246 -0.002327 0.000000 0.001487 0.000000
# 3 -0.000379 -0.002327 0.008459 0.000000 -0.001016 0.000000
# 4 0.000000 0.000000 0.000000 0.030886 0.000000 -0.021005
# 5 -0.001148 0.001487 -0.001016 0.000000 0.027140 0.000000
# 6 0.000000 0.000000 0.000000 -0.021005 0.000000 0.061393
#
#
# Mechanical properties :
#
#
# Convention : Reuss Voigt Hill
#
# Bulk Modulus (GPa) = 27.32896 31.52054 29.42475
# Shear Modulus (GPa) = 26.53005 33.82119 30.17562
#
# Velocity S-wave (km/s) = 3.37331 3.80874 3.59762
# Velocity P-wave (km/s) = 5.18596 5.73252 5.46607
#
# Compressibility (1/GPa) = 0.03659122
#
# Stress axis : x y z
#
# Youngs Moduli (GPa) = 55.50961 49.39153 118.21184
#
# Poissons Ratio (x) = 0.11654 0.04475
# Poissons Ratio (y) = 0.13097 0.27505
# Poissons Ratio (z) = 0.02101 0.11492
#
# Static dielectric constant tensor:
#      x y z
#    x 1.915560 0.000000 0.009960 
#    y 0.000000 1.891140 0.000000 
#    z 0.009960 0.000000 1.930010 
# 
# From -- ./inp_files/316086.got.cif
#   From: 2010.05.17/outbox.cif.g08.bks.cpg/sg15_159_cif.got.tgz:316086.got - 2010.06.03 18:47:42.
