data_PCOD9256323
_publ_section_title
;
Structure prediction by ZEFSAII (Michael W. Deem and Ramdas Pophale) SiO2 
 PCOD9256323
Probable space group: C 2/C
;
_chemical_formula_sum "Si O2"
_cell_formula_units_Z 56
_cell_length_a 17.674288
_cell_length_b 8.944870
_cell_length_c 17.827493
_cell_angle_alpha 90.000000
_cell_angle_beta 79.140260
_cell_angle_gamma 90.000000
_cell_volume 2767.949214
_symmetry_space_group_name_H-M "C 2/C"
_symmetry_group_IT_number 15
_symmetry_cell_setting 'monoclinic'
loop_
_space_group_symop_operation_xyz
x,y,z
-x,y,1/2-z
-x,-y,-z
x,-y,1/2+z
1/2+x,1/2+y,z
1/2-x,1/2+y,1/2-z
1/2-x,1/2-y,-z
1/2+x,1/2-y,1/2+z
loop_
_atom_site_type_symbol
_atom_site_label
_atom_site_fract_x
_atom_site_fract_y
_atom_site_fract_z
Si Si1 0.735416 0.902895 0.456471
Si Si2 0.386019 0.049592 0.646225
Si Si3 0.170793 0.462415 0.105174
Si Si4 0.122994 0.226281 0.232052
Si Si5 0.785704 0.653520 0.271272
Si Si6 0.615335 0.590880 0.673854
Si Si7 0.518333 0.149110 0.157796
O O1 0.750000 0.750000 0.500000
O O2 0.661917 0.886249 0.414485
O O3 0.814019 0.936413 0.396988
O O4 0.712053 0.035039 0.517984
O O5 0.420833 0.173291 0.697559
O O6 0.323112 0.958406 0.705527
O O7 0.451016 0.923923 0.621175
O O8 0.140984 0.314947 0.152006
O O9 0.225051 0.554650 0.152321
O O10 0.095320 0.566261 0.116943
O O11 0.205906 0.209596 0.255743
O O12 0.093751 0.062311 0.218134
O O13 0.844978 0.788180 0.277155
O O14 0.542403 0.676817 0.651623
O O15 0.500000 0.117600 0.250000
#
# Coordination Sequence:
#
# PCOD9256323 Si02
#       7
#     8   8   8   8   8   8   8
#     4  12  21  39  62  94 124 171 210 264 317 376
#     4  11  22  37  65  88 127 162 216 254 322 380
#     4  10  22  36  60  86 130 159 210 254 319 380
#     4  11  19  36  61  95 114 157 214 272 302 363
#     4  10  17  36  59  90 114 158 213 263 306 368
#     4  11  21  35  64  90 125 154 212 264 317 365
#     4  11  20  41  59  88 119 168 204 251 315 391
#
# _framework density 20.231584999999999
#
# number of rings (size 3 to 8) (size 9 to 14) (size 15 to 20)
#    0.000    1.143   10.000    0.857    0.000    1.143 
#    2.571    0.000    0.000    0.857    0.000    0.000 
#    0.000    0.000    0.000    0.000    0.000    0.000 
#
# Total GULP energy -156147.511993 kJ/mol
# GULP energy per Si atom -5576.696857 kJ/mol
# Density = 2.018554 g / cm^3
# Si number density = 20.231585 Si / 1000 Ang^3
#
#
#
# Elastic Constant Matrix: (Units=GPa)
#
#
# Indices 1 2 3 4 5 6 
#
# 1 71.0845 26.9250 26.0243 0.0000 4.0374 0.0000
# 2 26.9250 123.8913 27.3285 0.0000 16.3297 0.0000
# 3 26.0243 27.3285 72.3150 0.0000 7.5559 0.0000
# 4 0.0000 0.0000 0.0000 22.1169 0.0000 5.0561
# 5 4.0374 16.3297 7.5559 0.0000 18.6300 0.0000
# 6 0.0000 0.0000 0.0000 5.0561 0.0000 22.7597
#
#
#
# Elastic Compliance Matrix: (Units=1/GPa)
#
#
# Indices 1 2 3 4 5 6 
#
# 1 0.016916 -0.002633 -0.005170 0.000000 0.000739 0.000000
# 2 -0.002633 0.010082 -0.002087 0.000000 -0.007420 0.000000
# 3 -0.005170 -0.002087 0.016885 0.000000 -0.003898 0.000000
# 4 0.000000 0.000000 0.000000 0.047633 0.000000 -0.010582
# 5 0.000739 -0.007420 -0.003898 0.000000 0.061602 0.000000
# 6 0.000000 0.000000 0.000000 -0.010582 0.000000 0.046288
#
#
# Mechanical properties :
#
#
# Convention : Reuss Voigt Hill
#
# Bulk Modulus (GPa) = 41.48911 47.53847 44.51379
# Shear Modulus (GPa) = 22.00501 25.16886 23.58694
#
# Velocity S-wave (km/s) = 3.30154 3.53092 3.41815
# Velocity P-wave (km/s) = 5.92327 6.33809 6.13419
#
# Compressibility (1/GPa) = 0.02410271
#
# Stress axis : x y z
#
# Youngs Moduli (GPa) = 59.11615 99.18346 59.22456
#
# Poissons Ratio (x) = 0.26118 0.30617
# Poissons Ratio (y) = 0.15567 0.12361
# Poissons Ratio (z) = 0.30561 0.20702
#
# Static dielectric constant tensor:
#      x y z
#    x 1.749960 0.000000 0.003070 
#    y 0.000000 1.766860 0.000000 
#    z 0.003070 0.000000 1.764920 
# 
# From -- ./inp_files/213408.got.cif
#   From: 2010.05.17/outbox.cif.g08.bks.cpg/sg15_107_cif.got.tgz:213408.got - 2010.06.03 18:47:42.
