data_PCOD9256732
_publ_section_title
;
Structure prediction by ZEFSAII (Michael W. Deem and Ramdas Pophale) SiO2 
 PCOD9256732
Probable space group: C 2/C
;
_chemical_formula_sum "Si O2"
_cell_formula_units_Z 56
_cell_length_a 6.907519
_cell_length_b 22.511792
_cell_length_c 23.139098
_cell_angle_alpha 90.000000
_cell_angle_beta 141.323229
_cell_angle_gamma 90.000000
_cell_volume 2248.574672
_symmetry_space_group_name_H-M "C 2/C"
_symmetry_group_IT_number 15
_symmetry_cell_setting 'monoclinic'
loop_
_space_group_symop_operation_xyz
x,y,z
-x,y,1/2-z
-x,-y,-z
x,-y,1/2+z
1/2+x,1/2+y,z
1/2-x,1/2+y,1/2-z
1/2-x,1/2-y,-z
1/2+x,1/2-y,1/2+z
loop_
_atom_site_type_symbol
_atom_site_label
_atom_site_fract_x
_atom_site_fract_y
_atom_site_fract_z
Si Si1 0.698478 0.574825 0.392375
Si Si2 0.216156 0.972431 0.219318
Si Si3 0.142865 0.223479 0.717798
Si Si4 0.526698 0.124475 0.866153
Si Si5 0.143367 0.640700 0.218524
Si Si6 0.083929 0.065898 0.044553
Si Si7 0.704533 0.626772 0.917488
O O1 0.579350 0.513404 0.336701
O O2 0.494163 0.621550 0.310833
O O3 0.569121 0.566361 0.427414
O O4 0.041234 0.599049 0.481007
O O5 0.500000 0.002092 0.250000
O O6 0.377085 0.936406 0.307616
O O7 0.073464 0.920028 0.147812
O O8 0.428422 0.178889 0.801283
O O9 0.157375 0.291475 0.701634
O O10 0.000000 0.226388 0.750000
O O11 0.947002 0.191307 0.621487
O O12 0.366623 0.129483 0.891634
O O13 0.887723 0.114514 0.962663
O O14 0.000000 0.641712 0.250000
O O15 0.932677 0.591846 0.135340
O O16 0.000000 0.000000 0.000000
#
# Coordination Sequence:
#
# PCOD9256732 Si02
#       7
#     8   8   8   8   8   8   8
#     4  10  19  30  46  72 103 130 160 203 248 290
#     4  11  19  31  50  74  99 129 166 202 240 291
#     4   8  15  29  46  68  96 126 161 200 246 293
#     4   9  18  32  50  72  99 129 163 203 246 292
#     4   9  17  28  45  71 101 127 159 207 250 286
#     4  10  18  29  45  72 104 132 163 202 248 296
#     4   9  19  33  50  73 100 129 162 201 246 292
#
# _framework density 24.904665000000001
#
# number of rings (size 3 to 8) (size 9 to 14) (size 15 to 20)
#    0.000    2.571    0.000    4.714    0.000    1.143 
#    0.000    5.714    0.000    0.000    0.000   60.000 
#    0.000    0.000    0.000    0.000    0.000    0.000 
#
# Total GULP energy -156256.649218 kJ/mol
# GULP energy per Si atom -5580.594615 kJ/mol
# Density = 2.484798 g / cm^3
# Si number density = 24.904665 Si / 1000 Ang^3
#
#
#
# Elastic Constant Matrix: (Units=GPa)
#
#
# Indices 1 2 3 4 5 6 
#
# 1 76.0665 7.7400 24.7757 0.0000 -0.6637 0.0000
# 2 7.7400 195.4078 77.8546 0.0000 5.5546 0.0000
# 3 24.7757 77.8546 179.3675 0.0000 13.5362 0.0000
# 4 0.0000 0.0000 0.0000 9.6515 0.0000 0.7395
# 5 -0.6637 5.5546 13.5362 0.0000 33.6413 0.0000
# 6 0.0000 0.0000 0.0000 0.7395 0.0000 8.5562
#
#
#
# Elastic Compliance Matrix: (Units=1/GPa)
#
#
# Indices 1 2 3 4 5 6 
#
# 1 0.013814 0.000260 -0.002102 0.000000 0.001075 0.000000
# 2 0.000260 0.006193 -0.002730 0.000000 0.000081 0.000000
# 3 -0.002102 -0.002730 0.007239 0.000000 -0.002504 0.000000
# 4 0.000000 0.000000 0.000000 0.104301 0.000000 -0.009015
# 5 0.001075 0.000081 -0.002504 0.000000 0.030741 0.000000
# 6 0.000000 0.000000 0.000000 -0.009015 0.000000 0.117654
#
#
# Mechanical properties :
#
#
# Convention : Reuss Voigt Hill
#
# Bulk Modulus (GPa) = 55.24370 74.62028 64.93199
# Shear Modulus (GPa) = 16.94228 33.06791 25.00509
#
# Velocity S-wave (km/s) = 2.61106 3.64782 3.17208
# Velocity P-wave (km/s) = 5.59646 6.91155 6.28848
#
# Compressibility (1/GPa) = 0.01810161
#
# Stress axis : x y z
#
# Youngs Moduli (GPa) = 72.39034 161.48436 138.13424
#
# Poissons Ratio (x) = -0.04194 0.29036
# Poissons Ratio (y) = -0.01880 0.37709
# Poissons Ratio (z) = 0.15216 0.44083
#
# Static dielectric constant tensor:
#      x y z
#    x 2.101240 0.000000 -0.018460 
#    y 0.000000 1.949990 0.000000 
#    z -0.018460 0.000000 1.964010 
# 
# From -- ./inp_files/309025.got.cif
#   From: 2010.05.17/outbox.cif.g08.bks.cpg/sg15_155_cif.got.tgz:309025.got - 2010.06.03 18:47:42.
