data_PCOD9256676
_publ_section_title
;
Structure prediction by ZEFSAII (Michael W. Deem and Ramdas Pophale) SiO2 
 PCOD9256676
Probable space group: C 2/C
;
_chemical_formula_sum "Si O2"
_cell_formula_units_Z 60
_cell_length_a 24.413549
_cell_length_b 7.419633
_cell_length_c 20.350960
_cell_angle_alpha 90.000000
_cell_angle_beta 34.989756
_cell_angle_gamma 90.000000
_cell_volume 2113.871724
_symmetry_space_group_name_H-M "C 2/C"
_symmetry_group_IT_number 15
_symmetry_cell_setting 'monoclinic'
loop_
_space_group_symop_operation_xyz
x,y,z
-x,y,1/2-z
-x,-y,-z
x,-y,1/2+z
1/2+x,1/2+y,z
1/2-x,1/2+y,1/2-z
1/2-x,1/2-y,-z
1/2+x,1/2-y,1/2+z
loop_
_atom_site_type_symbol
_atom_site_label
_atom_site_fract_x
_atom_site_fract_y
_atom_site_fract_z
Si Si1 0.105027 0.056104 0.284569
Si Si2 0.640046 0.031045 0.119943
Si Si3 0.868791 0.352024 0.691916
Si Si4 0.339182 0.354416 0.555308
Si Si5 0.993881 0.435438 0.356823
Si Si6 0.851061 0.061528 0.892116
Si Si7 0.000000 0.000000 0.500000
Si Si8 0.179841 0.581736 0.409390
O O1 0.106231 0.859404 0.320927
O O2 0.083222 0.025384 0.229126
O O3 0.211165 0.131268 0.186381
O O4 0.035285 0.146506 0.404949
O O5 0.588527 0.895606 0.220898
O O6 0.562037 0.062130 0.140026
O O7 0.656669 0.234042 0.129373
O O8 0.744568 0.976216 0.993055
O O9 0.770005 0.414676 0.822747
O O10 0.849082 0.375220 0.635531
O O11 0.960334 0.457510 0.628320
O O12 0.368010 0.416925 0.453188
O O13 0.412008 0.428158 0.537863
O O14 0.328615 0.136049 0.572856
O O15 0.899064 0.324154 0.466976
#
# Coordination Sequence:
#
# PCOD9256676 Si02
#       8
#     8   8   8   8   8   8   4   8
#     4  11  23  39  62  92 125 162 213 258 313 375
#     4  10  18  28  52  87 119 150 184 252 316 361
#     4  11  21  37  57  90 129 166 200 253 315 371
#     4  11  23  39  62  92 125 162 213 258 313 375
#     4  11  18  28  50  83 120 152 190 234 309 375
#     4  11  18  38  60  85 123 160 198 272 318 344
#     4  12  26  42  58  90 130 168 206 254 310 390
#     4  11  21  37  57  90 129 166 200 253 315 371
#
# _framework density 28.383935999999999
#
# number of rings (size 3 to 8) (size 9 to 14) (size 15 to 20)
#    0.000    1.067    6.667    2.800    0.000    0.533 
#    0.000    0.000    0.000    0.000    0.000   24.267 
#    0.000    0.000    0.000    0.000    0.000    0.000 
#
# Total GULP energy -167217.592268 kJ/mol
# GULP energy per Si atom -5573.919742 kJ/mol
# Density = 2.831933 g / cm^3
# Si number density = 28.383936 Si / 1000 Ang^3
#
#
#
# Elastic Constant Matrix: (Units=GPa)
#
#
# Indices 1 2 3 4 5 6 
#
# 1 140.9867 27.5948 22.0211 -0.0075 -12.1311 0.0020
# 2 27.5948 113.4644 9.4656 -0.0183 -8.1834 0.0132
# 3 22.0211 9.4656 135.6641 -0.0205 -10.6007 0.0151
# 4 -0.0075 -0.0183 -0.0205 -15.4897 0.0038 -14.8247
# 5 -12.1311 -8.1834 -10.6007 0.0038 64.5244 -0.0013
# 6 0.0020 0.0132 0.0151 -14.8247 -0.0013 32.3537
#
#
#
# Elastic Compliance Matrix: (Units=1/GPa)
#
#
# Indices 1 2 3 4 5 6 
#
# 1 0.007681 -0.001705 -0.001045 -0.000001 0.001056 0.000000
# 2 -0.001705 0.009312 -0.000310 -0.000004 0.000810 -0.000006
# 3 -0.001045 -0.000310 0.007642 -0.000004 0.001020 -0.000005
# 4 -0.000001 -0.000004 -0.000004 -0.044878 0.000001 -0.020564
# 5 0.001056 0.000810 0.001020 0.000001 0.015967 0.000000
# 6 0.000000 -0.000006 -0.000005 -0.020564 0.000000 0.021486
#
#
# Mechanical properties :
#
#
# Convention : Reuss Voigt Hill
#
# Bulk Modulus (GPa) = 54.00844 56.47537 55.24190
# Shear Modulus (GPa) = 169.48948 38.34661 103.91804
#
# Velocity S-wave (km/s) = 7.73581 3.67958 6.05731
# Velocity P-wave (km/s) = 9.94281 6.16381 8.27200
#
# Compressibility (1/GPa) = 0.01851562
#
# Stress axis : x y z
#
# Youngs Moduli (GPa) = 130.19760 107.38684 130.85393
#
# Poissons Ratio (x) = 0.18305 0.13678
# Poissons Ratio (y) = 0.22193 0.04054
# Poissons Ratio (z) = 0.13609 0.03327
#
# Static dielectric constant tensor:
#      x y z
#    x 2.204090 0.000000 0.083040 
#    y 0.000000 2.203660 0.000040 
#    z 0.083040 0.000040 1.451620 
# 
# From -- ./inp_files/219289.got.cif
#   From: 2010.05.17/outbox.cif.g08.bks.cpg/sg15_110_cif.got.tgz:219289.got - 2010.06.03 18:47:42.
