data_PCOD9256373
_publ_section_title
;
Structure prediction by ZEFSAII (Michael W. Deem and Ramdas Pophale) SiO2 
 PCOD9256373
Probable space group: C 2/C
;
_chemical_formula_sum "Si O2"
_cell_formula_units_Z 64
_cell_length_a 14.589637
_cell_length_b 11.001720
_cell_length_c 20.340516
_cell_angle_alpha 90.000000
_cell_angle_beta 68.916254
_cell_angle_gamma 90.000000
_cell_volume 3046.313357
_symmetry_space_group_name_H-M "C 2/C"
_symmetry_group_IT_number 15
_symmetry_cell_setting 'monoclinic'
loop_
_space_group_symop_operation_xyz
x,y,z
-x,y,1/2-z
-x,-y,-z
x,-y,1/2+z
1/2+x,1/2+y,z
1/2-x,1/2+y,1/2-z
1/2-x,1/2-y,-z
1/2+x,1/2-y,1/2+z
loop_
_atom_site_type_symbol
_atom_site_label
_atom_site_fract_x
_atom_site_fract_y
_atom_site_fract_z
Si Si1 0.993712 0.432105 0.828115
Si Si2 0.743574 0.272806 0.221003
Si Si3 0.044238 0.408800 0.044139
Si Si4 0.927980 0.949846 0.463274
Si Si5 0.239458 0.466775 0.948399
Si Si6 0.648862 0.779745 0.440099
Si Si7 0.716285 0.957919 0.802989
Si Si8 0.520751 0.663466 0.813439
O O1 0.100782 0.428737 0.834460
O O2 0.960519 0.291219 0.834714
O O3 0.000000 0.470120 0.750000
O O4 0.939028 0.524065 0.890464
O O5 0.772103 0.253778 0.137476
O O6 0.771319 0.146921 0.248887
O O7 0.785690 0.406328 0.226214
O O8 0.631961 0.295246 0.272430
O O9 0.955632 0.312042 0.068846
O O10 0.152632 0.374499 0.990920
O O11 0.000000 0.500000 0.000000
O O12 0.839667 0.037178 0.462767
O O13 0.875220 0.830028 0.505863
O O14 0.993146 0.913306 0.383433
O O15 0.000000 0.000000 0.500000
O O16 0.190155 0.601753 0.967247
O O17 0.257874 0.459299 0.865710
O O18 0.500000 0.597297 0.750000
#
# Coordination Sequence:
#
# PCOD9256373 Si02
#       8
#     8   8   8   8   8   8   8   8
#     4  10  19  34  61 101 126 159 222 280 327 392
#     4  10  21  36  67  93 130 177 223 280 337 410
#     4  10  17  36  67  92 127 165 212 274 340 397
#     4  12  27  43  62 100 138 175 232 291 348 411
#     4  10  21  40  69  93 123 179 226 276 341 411
#     4  10  21  40  68  96 129 173 230 282 340 408
#     4  10  20  38  62  95 132 172 223 270 348 408
#     4  10  21  38  63  91 129 176 225 278 341 406
#
# _framework density 21.009001999999999
#
# number of rings (size 3 to 8) (size 9 to 14) (size 15 to 20)
#    0.000    1.750    3.750    3.375    3.500    3.000 
#    0.000    1.875    0.000    0.000    0.000    0.000 
#    0.000    0.000    0.000    0.000    0.000    0.000 
#
# Total GULP energy -178243.152364 kJ/mol
# GULP energy per Si atom -5570.098511 kJ/mol
# Density = 2.096118 g / cm^3
# Si number density = 21.009002 Si / 1000 Ang^3
#
#
#
# Elastic Constant Matrix: (Units=GPa)
#
#
# Indices 1 2 3 4 5 6 
#
# 1 96.8978 4.3132 30.6411 0.0000 8.1510 0.0000
# 2 4.3132 38.1763 30.3835 0.0000 5.1884 0.0000
# 3 30.6411 30.3835 120.5806 0.0000 7.1750 0.0000
# 4 0.0000 0.0000 0.0000 8.8450 0.0000 7.4571
# 5 8.1510 5.1884 7.1750 0.0000 34.3151 0.0000
# 6 0.0000 0.0000 0.0000 7.4571 0.0000 17.0569
#
#
#
# Elastic Compliance Matrix: (Units=1/GPa)
#
#
# Indices 1 2 3 4 5 6 
#
# 1 0.011443 0.001531 -0.003157 0.000000 -0.002289 0.000000
# 2 0.001531 0.033336 -0.008574 0.000000 -0.003611 0.000000
# 3 -0.003157 -0.008574 0.011275 0.000000 -0.000311 0.000000
# 4 0.000000 0.000000 0.000000 0.179054 0.000000 -0.078280
# 5 -0.002289 -0.003611 -0.000311 0.000000 0.030297 0.000000
# 6 0.000000 0.000000 0.000000 -0.078280 0.000000 0.092850
#
#
# Mechanical properties :
#
#
# Convention : Reuss Voigt Hill
#
# Bulk Modulus (GPa) = 28.04818 42.92557 35.48687
# Shear Modulus (GPa) = 12.80281 24.73123 18.76702
#
# Velocity S-wave (km/s) = 2.47127 3.43472 2.99203
# Velocity P-wave (km/s) = 4.63923 6.01715 5.37255
#
# Compressibility (1/GPa) = 0.03565293
#
# Stress axis : x y z
#
# Youngs Moduli (GPa) = 87.38953 29.99762 88.69557
#
# Poissons Ratio (x) = -0.04593 0.28005
# Poissons Ratio (y) = -0.13381 0.76048
# Poissons Ratio (z) = 0.27593 0.25720
#
# Static dielectric constant tensor:
#      x y z
#    x 1.660110 0.000000 0.123580 
#    y 0.000000 1.829850 0.000000 
#    z 0.123580 0.000000 1.638840 
# 
# From -- ./inp_files/243726.got.cif
#   From: 2010.05.17/outbox.cif.g08.bks.cpg/sg15_122_cif.got.tgz:243726.got - 2010.06.03 18:47:42.
