data_PCOD9256155
_publ_section_title
;
Structure prediction by ZEFSAII (Michael W. Deem and Ramdas Pophale) SiO2 
 PCOD9256155
Probable space group: C 2/C
;
_chemical_formula_sum "Si O2"
_cell_formula_units_Z 48
_cell_length_a 17.477471
_cell_length_b 20.245975
_cell_length_c 10.625756
_cell_angle_alpha 90.000000
_cell_angle_beta 146.330267
_cell_angle_gamma 90.000000
_cell_volume 2084.510833
_symmetry_space_group_name_H-M "C 2/C"
_symmetry_group_IT_number 15
_symmetry_cell_setting 'monoclinic'
loop_
_space_group_symop_operation_xyz
x,y,z
-x,y,1/2-z
-x,-y,-z
x,-y,1/2+z
1/2+x,1/2+y,z
1/2-x,1/2+y,1/2-z
1/2-x,1/2-y,-z
1/2+x,1/2-y,1/2+z
loop_
_atom_site_type_symbol
_atom_site_label
_atom_site_fract_x
_atom_site_fract_y
_atom_site_fract_z
Si Si1 0.863168 0.547221 0.185024
Si Si2 0.318497 0.094711 0.514220
Si Si3 0.910800 0.762733 0.255590
Si Si4 0.874283 0.968973 0.936663
Si Si5 0.365583 0.403093 0.285333
Si Si6 0.017119 0.639092 0.559371
O O1 0.877166 0.475633 0.144306
O O2 0.746420 0.544689 0.131927
O O3 0.995571 0.578190 0.433078
O O4 0.789899 0.593665 0.981712
O O5 0.175633 0.071574 0.257280
O O6 0.405928 0.127479 0.520372
O O7 0.338901 0.138927 0.667222
O O8 0.911910 0.828068 0.343906
O O9 0.976798 0.702858 0.424380
O O10 0.000000 0.773630 0.250000
O O11 0.750000 0.750000 0.000000
O O12 0.871737 0.047698 0.911489
O O13 0.028319 0.942385 0.161783
#
# Coordination Sequence:
#
# PCOD9256155 Si02
#       6
#     8   8   8   8   8   8
#     4  10  17  34  63  92 124 164 216 275 325 384
#     4   9  20  36  61  88 126 168 205 265 337 377
#     4  12  26  44  69  96 130 176 224 270 324 395
#     4   9  19  34  63  94 124 161 220 273 330 384
#     4  10  20  37  62  92 126 168 217 277 323 380
#     4  10  21  40  59  93 131 169 214 261 330 399
#
# _framework density 23.026985
#
# number of rings (size 3 to 8) (size 9 to 14) (size 15 to 20)
#    0.000    2.000    1.667    2.000    2.333    1.333 
#    6.000    0.833   22.000    0.000    0.000    0.000 
#    0.000    0.000    0.000    0.000    0.000    0.000 
#
# Total GULP energy -133837.403557 kJ/mol
# GULP energy per Si atom -5576.558482 kJ/mol
# Density = 2.297457 g / cm^3
# Si number density = 23.026985 Si / 1000 Ang^3
#
#
#
# Elastic Constant Matrix: (Units=GPa)
#
#
# Indices 1 2 3 4 5 6 
#
# 1 70.2392 -4.0852 26.7036 0.0000 15.0534 0.0000
# 2 -4.0852 104.1398 18.3255 0.0000 -15.9853 0.0000
# 3 26.7036 18.3255 94.2076 0.0000 0.3561 0.0000
# 4 0.0000 0.0000 0.0000 18.5601 0.0000 9.5508
# 5 15.0534 -15.9853 0.3561 0.0000 18.6443 0.0000
# 6 0.0000 0.0000 0.0000 9.5508 0.0000 12.3742
#
#
#
# Elastic Compliance Matrix: (Units=1/GPa)
#
#
# Indices 1 2 3 4 5 6 
#
# 1 0.019791 -0.000821 -0.005388 0.000000 -0.016580 0.000000
# 2 -0.000821 0.011561 -0.002057 0.000000 0.010614 0.000000
# 3 -0.005388 -0.002057 0.012533 0.000000 0.002347 0.000000
# 4 0.000000 0.000000 0.000000 0.089377 0.000000 -0.068984
# 5 -0.016580 0.010614 0.002347 0.000000 0.076078 0.000000
# 6 0.000000 0.000000 0.000000 -0.068984 0.000000 0.134057
#
#
# Mechanical properties :
#
#
# Convention : Reuss Voigt Hill
#
# Bulk Modulus (GPa) = 36.55464 38.94162 37.74813
# Shear Modulus (GPa) = 13.54846 25.09189 19.32017
#
# Velocity S-wave (km/s) = 2.42827 3.30460 2.89973
# Velocity P-wave (km/s) = 4.87557 5.61325 5.25736
#
# Compressibility (1/GPa) = 0.02735631
#
# Stress axis : x y z
#
# Youngs Moduli (GPa) = 50.52819 86.49428 79.78844
#
# Poissons Ratio (x) = 0.07097 0.42986
# Poissons Ratio (y) = 0.04146 0.16409
# Poissons Ratio (z) = 0.27222 0.17788
#
# Static dielectric constant tensor:
#      x y z
#    x 1.900220 0.000000 -0.036110 
#    y 0.000000 1.851450 0.000000 
#    z -0.036110 0.000000 1.935800 
# 
# From -- ./inp_files/113524.got.cif
#   From: 2010.05.17/outbox.cif.g08.bks.cpg/sg15_57_cif.got.tgz:113524.got - 2010.06.03 18:47:42.
