data_PCOD9256384
_publ_section_title
;
Structure prediction by ZEFSAII (Michael W. Deem and Ramdas Pophale) SiO2 
 PCOD9256384
Probable space group: C 2/C
;
_chemical_formula_sum "Si O2"
_cell_formula_units_Z 56
_cell_length_a 23.601122
_cell_length_b 8.674947
_cell_length_c 20.035801
_cell_angle_alpha 90.000000
_cell_angle_beta 33.647800
_cell_angle_gamma 90.000000
_cell_volume 2272.916866
_symmetry_space_group_name_H-M "C 2/C"
_symmetry_group_IT_number 15
_symmetry_cell_setting 'monoclinic'
loop_
_space_group_symop_operation_xyz
x,y,z
-x,y,1/2-z
-x,-y,-z
x,-y,1/2+z
1/2+x,1/2+y,z
1/2-x,1/2+y,1/2-z
1/2-x,1/2-y,-z
1/2+x,1/2-y,1/2+z
loop_
_atom_site_type_symbol
_atom_site_label
_atom_site_fract_x
_atom_site_fract_y
_atom_site_fract_z
Si Si1 0.603285 0.327096 0.186929
Si Si2 0.067917 0.718898 0.744861
Si Si3 0.608650 0.311714 0.852273
Si Si4 0.811343 0.467455 0.691648
Si Si5 0.907508 0.516691 0.461019
Si Si6 0.045435 0.226795 0.882402
Si Si7 0.779534 0.518794 0.458497
O O1 0.500000 0.284482 0.250000
O O2 0.583287 0.373267 0.283031
O O3 0.671642 0.171061 0.122705
O O4 0.659884 0.453134 0.085092
O O5 0.085888 0.809514 0.795751
O O6 0.173713 0.637211 0.617572
O O7 0.000000 0.786265 0.750000
O O8 0.996609 0.576640 0.838041
O O9 0.692450 0.434657 0.795672
O O10 0.659549 0.141224 0.815585
O O11 0.507316 0.328128 0.997383
O O12 0.867956 0.436465 0.566145
O O13 0.863781 0.345726 0.689365
O O14 0.817563 0.528904 0.497223
O O15 0.952674 0.677737 0.439866
#
# Coordination Sequence:
#
# PCOD9256384 Si02
#       7
#     8   8   8   8   8   8   8
#     4  11  20  32  53  94 131 164 209 280 350 387
#     4  10  18  38  66  92 123 170 232 278 314 402
#     4  11  23  41  65  99 130 177 225 276 338 397
#     4  11  23  38  65  95 129 169 224 273 334 398
#     4  10  17  37  59  87 116 162 221 269 312 393
#     4  11  20  36  61  91 126 170 221 273 317 406
#     4  10  20  31  59  89 121 162 220 274 325 389
#
# _framework density 24.637944000000001
#
# number of rings (size 3 to 8) (size 9 to 14) (size 15 to 20)
#    0.000    1.429    5.714    1.286    4.000    1.143 
#    0.000    3.571    3.143    0.000    0.000    0.000 
#    0.000    0.000    0.000    0.000    0.000    0.000 
#
# Total GULP energy -156586.096173 kJ/mol
# GULP energy per Si atom -5592.360578 kJ/mol
# Density = 2.458187 g / cm^3
# Si number density = 24.637944 Si / 1000 Ang^3
#
#
#
# Elastic Constant Matrix: (Units=GPa)
#
#
# Indices 1 2 3 4 5 6 
#
# 1 98.9998 38.7249 57.7688 -0.0010 46.3037 -0.0001
# 2 38.7249 97.0045 39.5771 -0.0033 4.8363 0.0023
# 3 57.7688 39.5771 149.7997 0.0000 11.3930 0.0011
# 4 -0.0010 -0.0033 0.0000 6.6711 0.0009 -26.5051
# 5 46.3037 4.8363 11.3930 0.0009 34.9207 -0.0002
# 6 -0.0001 0.0023 0.0011 -26.5051 -0.0002 1.7729
#
#
#
# Elastic Compliance Matrix: (Units=1/GPa)
#
#
# Indices 1 2 3 4 5 6 
#
# 1 0.050157 -0.012308 -0.011446 -0.000001 -0.061067 -0.000003
# 2 -0.012308 0.014588 -0.000200 0.000001 0.014365 -0.000001
# 3 -0.011446 -0.000200 0.010240 0.000000 0.011864 0.000001
# 4 -0.000001 0.000001 0.000000 -0.002567 0.000002 -0.038375
# 5 -0.061067 0.014365 0.011864 0.000002 0.103749 0.000004
# 6 -0.000003 -0.000001 0.000001 -0.038375 0.000004 -0.009659
#
#
# Mechanical properties :
#
#
# Convention : Reuss Voigt Hill
#
# Bulk Modulus (GPa) = 36.93367 68.66063 52.79715
# Shear Modulus (GPa) = 22.37710 22.65516 22.51613
#
# Velocity S-wave (km/s) = 3.01697 3.03565 3.02633
# Velocity P-wave (km/s) = 5.21145 6.34155 5.80407
#
# Compressibility (1/GPa) = 0.02707557
#
# Stress axis : x y z
#
# Youngs Moduli (GPa) = 19.93750 68.55034 97.65418
#
# Poissons Ratio (x) = 0.84375 1.11776
# Poissons Ratio (y) = 0.24540 0.01953
# Poissons Ratio (z) = 0.22821 0.01371
#
# Static dielectric constant tensor:
#      x y z
#    x 1.934660 0.000000 -0.002240 
#    y 0.000000 1.991020 0.000000 
#    z -0.002240 0.000000 1.970480 
# 
# From -- ./inp_files/257393.got.cif
#   From: 2010.05.17/outbox.cif.g08.bks.cpg/sg15_129_cif.got.tgz:257393.got - 2010.06.03 18:47:42.
