data_PCOD9256029
_publ_section_title
;
Structure prediction by ZEFSAII (Michael W. Deem and Ramdas Pophale) SiO2 
 PCOD9256029
Probable space group: C 2/C
;
_chemical_formula_sum "Si O2"
_cell_formula_units_Z 60
_cell_length_a 15.995567
_cell_length_b 12.250607
_cell_length_c 23.825737
_cell_angle_alpha 90.000000
_cell_angle_beta 37.871596
_cell_angle_gamma 90.000000
_cell_volume 2866.136950
_symmetry_space_group_name_H-M "C 2/C"
_symmetry_group_IT_number 15
_symmetry_cell_setting 'monoclinic'
loop_
_space_group_symop_operation_xyz
x,y,z
-x,y,1/2-z
-x,-y,-z
x,-y,1/2+z
1/2+x,1/2+y,z
1/2-x,1/2+y,1/2-z
1/2-x,1/2-y,-z
1/2+x,1/2-y,1/2+z
loop_
_atom_site_type_symbol
_atom_site_label
_atom_site_fract_x
_atom_site_fract_y
_atom_site_fract_z
Si Si1 0.000000 0.893578 0.250000
Si Si2 0.428702 0.704572 0.111561
Si Si3 0.062980 0.984153 0.331425
Si Si4 0.169635 0.447345 0.876267
Si Si5 0.364238 0.755326 0.679998
Si Si6 0.416938 0.084684 0.964228
Si Si7 0.611229 0.117396 0.085308
Si Si8 0.266347 0.244252 0.587474
O O1 0.020785 0.960207 0.181194
O O2 0.861348 0.822060 0.318002
O O3 0.471203 0.583506 0.109089
O O4 0.292294 0.741412 0.217844
O O5 0.548535 0.789724 0.061502
O O6 0.374468 0.718853 0.076666
O O7 0.079495 0.866891 0.352223
O O8 0.206185 0.018794 0.228062
O O9 0.127643 0.325470 0.880891
O O10 0.052565 0.532466 0.921291
O O11 0.194308 0.441111 0.929210
O O12 0.462216 0.826988 0.668996
O O13 0.394382 0.011223 0.921861
O O14 0.702400 0.153422 0.088613
O O15 0.670030 0.171216 0.996492
#
# Coordination Sequence:
#
# PCOD9256029 Si02
#       8
#     4   8   8   8   8   8   8   8
#     4  12  20  38  62  80 116 144 196 228 286 336
#     4  11  21  34  58  84 116 145 194 228 289 337
#     4  11  21  34  57  85 112 148 184 240 281 338
#     4   9  18  31  57  80 110 143 193 225 282 330
#     4  10  18  34  53  87 111 145 185 245 272 335
#     4  10  17  34  54  82 110 151 182 231 275 347
#     4  10  21  33  61  85 118 139 195 236 292 323
#     4  11  20  36  58  91 106 148 189 248 278 330
#
# _framework density 20.934100999999998
#
# number of rings (size 3 to 8) (size 9 to 14) (size 15 to 20)
#    0.000    1.600    4.000    3.200    0.000    0.000 
#    0.000    2.667    5.867    1.600    0.000    0.000 
#    0.000    0.000    0.000    0.000    0.000    0.000 
#
# Total GULP energy -167396.599241 kJ/mol
# GULP energy per Si atom -5579.886641 kJ/mol
# Density = 2.088645 g / cm^3
# Si number density = 20.934101 Si / 1000 Ang^3
#
#
#
# Elastic Constant Matrix: (Units=GPa)
#
#
# Indices 1 2 3 4 5 6 
#
# 1 71.0554 51.8613 -1.9801 0.0000 16.7493 0.0000
# 2 51.8613 156.1819 -1.3762 0.0000 26.5536 0.0000
# 3 -1.9801 -1.3762 32.6808 0.0000 4.1017 0.0000
# 4 0.0000 0.0000 0.0000 16.0210 0.0000 1.9842
# 5 16.7493 26.5536 4.1017 0.0000 19.4133 0.0000
# 6 0.0000 0.0000 0.0000 1.9842 0.0000 32.6621
#
#
#
# Elastic Compliance Matrix: (Units=1/GPa)
#
#
# Indices 1 2 3 4 5 6 
#
# 1 0.020348 -0.004770 0.002482 0.000000 -0.011556 0.000000
# 2 -0.004770 0.009569 0.001274 0.000000 -0.009243 0.000000
# 3 0.002482 0.001274 0.032143 0.000000 -0.010676 0.000000
# 4 0.000000 0.000000 0.000000 0.062891 0.000000 -0.003821
# 5 -0.011556 -0.009243 -0.010676 0.000000 0.076379 0.000000
# 6 0.000000 0.000000 0.000000 -0.003821 0.000000 0.030849
#
#
# Mechanical properties :
#
#
# Convention : Reuss Voigt Hill
#
# Bulk Modulus (GPa) = 16.65759 39.65868 28.15813
# Shear Modulus (GPa) = 19.66817 27.71350 23.69083
#
# Velocity S-wave (km/s) = 3.06850 3.64241 3.36770
# Velocity P-wave (km/s) = 4.53086 6.05601 5.34808
#
# Compressibility (1/GPa) = 0.06003270
#
# Stress axis : x y z
#
# Youngs Moduli (GPa) = 49.14417 104.49964 31.11108
#
# Poissons Ratio (x) = 0.49849 -0.07723
# Poissons Ratio (y) = 0.23443 -0.03964
# Poissons Ratio (z) = -0.12199 -0.13313
#
# Static dielectric constant tensor:
#      x y z
#    x 1.779610 0.000000 -0.027820 
#    y 0.000000 1.776660 0.000000 
#    z -0.027820 0.000000 1.826210 
# 
# From -- ./inp_files/160941.got.cif
#   From: 2010.05.17/outbox.cif.g08.bks.cpg/sg15_81_cif.got.tgz:160941.got - 2010.06.03 18:47:42.
