data_PCOD9256227
_publ_section_title
;
Structure prediction by ZEFSAII (Michael W. Deem and Ramdas Pophale) SiO2 
 PCOD9256227
Probable space group: C 2/C
;
_chemical_formula_sum "Si O2"
_cell_formula_units_Z 56
_cell_length_a 21.565846
_cell_length_b 8.460505
_cell_length_c 15.376617
_cell_angle_alpha 90.000000
_cell_angle_beta 126.191975
_cell_angle_gamma 90.000000
_cell_volume 2264.228602
_symmetry_space_group_name_H-M "C 2/C"
_symmetry_group_IT_number 15
_symmetry_cell_setting 'monoclinic'
loop_
_space_group_symop_operation_xyz
x,y,z
-x,y,1/2-z
-x,-y,-z
x,-y,1/2+z
1/2+x,1/2+y,z
1/2-x,1/2+y,1/2-z
1/2-x,1/2-y,-z
1/2+x,1/2-y,1/2+z
loop_
_atom_site_type_symbol
_atom_site_label
_atom_site_fract_x
_atom_site_fract_y
_atom_site_fract_z
Si Si1 0.676247 0.965570 0.632553
Si Si2 0.930636 0.999026 0.807453
Si Si3 0.121343 0.645150 0.735564
Si Si4 0.699739 0.280076 0.288022
Si Si5 0.211884 0.811589 0.056973
Si Si6 0.590644 0.118064 0.336756
Si Si7 0.597302 0.584359 0.921693
O O1 0.610682 0.040964 0.639245
O O2 0.721618 0.857766 0.740621
O O3 0.658218 0.832901 0.545945
O O4 0.733235 0.095585 0.640184
O O5 0.914173 0.816005 0.805732
O O6 0.914637 0.036170 0.690910
O O7 0.017672 0.040236 0.900866
O O8 0.870511 0.112057 0.806693
O O9 0.212999 0.662637 0.822062
O O10 0.092965 0.559499 0.800572
O O11 0.659422 0.190530 0.334328
O O12 0.250000 0.750000 0.000000
O O13 0.166220 0.974108 0.009137
O O14 0.500000 0.160146 0.250000
O O15 0.607096 0.225313 0.435553
#
# Coordination Sequence:
#
# PCOD9256227 Si02
#       7
#     8   8   8   8   8   8   8
#     4  11  21  37  61  93 124 163 212 258 318 386
#     4  10  18  38  61  89 117 178 202 243 326 386
#     4  11  23  36  66  91 125 170 217 255 321 388
#     4  10  17  35  61  83 119 163 210 248 303 386
#     4  12  22  38  63  97 124 159 216 277 311 363
#     4  10  20  36  60  90 121 166 214 257 304 383
#     4  10  20  36  60  88 127 160 209 259 317 371
#
# _framework density 24.732485
#
# number of rings (size 3 to 8) (size 9 to 14) (size 15 to 20)
#    0.000    1.429    7.143    0.857    2.000    0.571 
#    0.000    1.429    0.000    0.000    0.000    0.000 
#    0.000    0.000    0.000    0.000    0.000    0.000 
#
# Total GULP energy -156104.201354 kJ/mol
# GULP energy per Si atom -5575.150048 kJ/mol
# Density = 2.467619 g / cm^3
# Si number density = 24.732485 Si / 1000 Ang^3
#
#
#
# Elastic Constant Matrix: (Units=GPa)
#
#
# Indices 1 2 3 4 5 6 
#
# 1 74.6416 40.1965 42.9402 0.0000 18.6476 0.0000
# 2 40.1965 107.5510 9.4129 0.0000 3.8437 0.0000
# 3 42.9402 9.4129 39.3694 0.0000 4.9261 0.0000
# 4 0.0000 0.0000 0.0000 26.0903 0.0000 -7.7810
# 5 18.6476 3.8437 4.9261 0.0000 27.2434 0.0000
# 6 0.0000 0.0000 0.0000 -7.7810 0.0000 53.5123
#
#
#
# Elastic Compliance Matrix: (Units=1/GPa)
#
#
# Indices 1 2 3 4 5 6 
#
# 1 0.074624 -0.020320 -0.072133 0.000000 -0.035169 0.000000
# 2 -0.020320 0.015054 0.017485 0.000000 0.008623 0.000000
# 3 -0.072133 0.017485 0.096203 0.000000 0.029512 0.000000
# 4 0.000000 0.000000 0.000000 0.040066 0.000000 0.005826
# 5 -0.035169 0.008623 0.029512 0.000000 0.054226 0.000000
# 6 0.000000 0.000000 0.000000 0.005826 0.000000 0.019534
#
#
# Mechanical properties :
#
#
# Convention : Reuss Voigt Hill
#
# Bulk Modulus (GPa) = 27.82124 45.18459 36.50291
# Shear Modulus (GPa) = 10.83133 29.97002 20.40067
#
# Velocity S-wave (km/s) = 2.09497 3.48482 2.87514
# Velocity P-wave (km/s) = 4.13825 5.87375 5.08066
#
# Compressibility (1/GPa) = 0.03594377
#
# Stress axis : x y z
#
# Youngs Moduli (GPa) = 13.40060 66.42761 10.39471
#
# Poissons Ratio (x) = 1.34982 0.74980
# Poissons Ratio (y) = 0.27230 -0.18175
# Poissons Ratio (z) = 0.96663 -1.16148
#
# Static dielectric constant tensor:
#      x y z
#    x 2.002400 0.000000 -0.113370 
#    y 0.000000 2.037060 0.000000 
#    z -0.113370 0.000000 2.078560 
# 
# From -- ./inp_files/214015.got.cif
#   From: 2010.05.17/outbox.cif.g08.bks.cpg/sg15_108_cif.got.tgz:214015.got - 2010.06.03 18:47:42.
