data_PCOD9256247
_publ_section_title
;
Structure prediction by ZEFSAII (Michael W. Deem and Ramdas Pophale) SiO2 
 PCOD9256247
Probable space group: C 2/C
;
_chemical_formula_sum "Si O2"
_cell_formula_units_Z 48
_cell_length_a 9.306940
_cell_length_b 16.309153
_cell_length_c 17.808379
_cell_angle_alpha 90.000000
_cell_angle_beta 83.135036
_cell_angle_gamma 90.000000
_cell_volume 2683.724144
_symmetry_space_group_name_H-M "C 2/C"
_symmetry_group_IT_number 15
_symmetry_cell_setting 'monoclinic'
loop_
_space_group_symop_operation_xyz
x,y,z
-x,y,1/2-z
-x,-y,-z
x,-y,1/2+z
1/2+x,1/2+y,z
1/2-x,1/2+y,1/2-z
1/2-x,1/2-y,-z
1/2+x,1/2-y,1/2+z
loop_
_atom_site_type_symbol
_atom_site_label
_atom_site_fract_x
_atom_site_fract_y
_atom_site_fract_z
Si Si1 0.288706 0.419274 0.321944
Si Si2 0.509463 0.833217 0.339040
Si Si3 0.158347 0.516177 0.570830
Si Si4 0.249010 0.255796 0.910128
Si Si5 0.604798 0.408274 0.356283
Si Si6 0.123952 0.433225 0.901043
O O1 0.177573 0.345511 0.347904
O O2 0.432926 0.417325 0.362545
O O3 0.335639 0.413346 0.232409
O O4 0.201284 0.503584 0.340104
O O5 0.500000 0.842548 0.250000
O O6 0.427940 0.907753 0.385941
O O7 0.413444 0.756103 0.370038
O O8 0.314572 0.522424 0.599242
O O9 0.163664 0.533476 0.481991
O O10 0.050602 0.440691 0.593047
O O11 0.154319 0.179922 0.885045
O O12 0.181802 0.341847 0.889893
O O13 0.250000 0.250000 0.000000
#
# Coordination Sequence:
#
# PCOD9256247 Si02
#       6
#     8   8   8   8   8   8
#     4  10  21  37  59  87 118 163 196 242 304 372
#     4  10  17  35  63  81 114 161 199 230 309 360
#     4   9  18  35  61  83 113 154 198 239 291 358
#     4  11  20  38  62  88 116 154 199 253 296 352
#     4  10  20  39  59  83 126 158 196 246 313 351
#     4  10  20  35  60  90 113 147 207 244 288 363
#
# _framework density 17.885594000000001
#
# number of rings (size 3 to 8) (size 9 to 14) (size 15 to 20)
#    0.000    2.000    6.667    0.000    0.000    0.667 
#    3.000    5.833    0.000    0.000    0.000    0.000 
#    0.000    0.000    0.000    0.000    0.000    0.000 
#
# Total GULP energy -133696.767944 kJ/mol
# GULP energy per Si atom -5570.698664 kJ/mol
# Density = 1.784489 g / cm^3
# Si number density = 17.885594 Si / 1000 Ang^3
#
#
#
# Elastic Constant Matrix: (Units=GPa)
#
#
# Indices 1 2 3 4 5 6 
#
# 1 118.6813 24.2585 0.8087 0.0000 20.6770 0.0000
# 2 24.2585 83.6309 6.4591 0.0000 1.1661 0.0000
# 3 0.8087 6.4591 62.9803 0.0000 -0.0984 0.0000
# 4 0.0000 0.0000 0.0000 22.2596 0.0000 -1.1097
# 5 20.6770 1.1661 -0.0984 0.0000 29.5284 0.0000
# 6 0.0000 0.0000 0.0000 -1.1097 0.0000 36.2767
#
#
#
# Elastic Compliance Matrix: (Units=1/GPa)
#
#
# Indices 1 2 3 4 5 6 
#
# 1 0.010244 -0.002885 0.000153 0.000000 -0.007059 0.000000
# 2 -0.002885 0.012872 -0.001281 0.000000 0.001508 0.000000
# 3 0.000153 -0.001281 0.016007 0.000000 -0.000003 0.000000
# 4 0.000000 0.000000 0.000000 0.044993 0.000000 0.001376
# 5 -0.007059 0.001508 -0.000003 0.000000 0.038749 0.000000
# 6 0.000000 0.000000 0.000000 0.001376 0.000000 0.027608
#
#
# Mechanical properties :
#
#
# Convention : Reuss Voigt Hill
#
# Bulk Modulus (GPa) = 32.15533 36.48278 34.31905
# Shear Modulus (GPa) = 29.60940 33.19736 31.40338
#
# Velocity S-wave (km/s) = 4.07318 4.31292 4.19476
# Velocity P-wave (km/s) = 6.33549 6.72635 6.53385
#
# Compressibility (1/GPa) = 0.03109905
#
# Stress axis : x y z
#
# Youngs Moduli (GPa) = 97.61398 77.68783 62.47124
#
# Poissons Ratio (x) = 0.22413 -0.00958
# Poissons Ratio (y) = 0.28161 0.08001
# Poissons Ratio (z) = -0.01497 0.09950
#
# Static dielectric constant tensor:
#      x y z
#    x 1.671380 0.000000 0.006490 
#    y 0.000000 1.607400 0.000000 
#    z 0.006490 0.000000 1.605640 
# 
# From -- ./inp_files/189858.got.cif
#   From: 2010.05.17/outbox.cif.g08.bks.cpg/sg15_95_cif.got.tgz:189858.got - 2010.06.03 18:47:42.
