data_PCOD9256200
_publ_section_title
;
Structure prediction by ZEFSAII (Michael W. Deem and Ramdas Pophale) SiO2 
 PCOD9256200
Probable space group: C 2/C
;
_chemical_formula_sum "Si O2"
_cell_formula_units_Z 64
_cell_length_a 9.076503
_cell_length_b 16.954451
_cell_length_c 20.440533
_cell_angle_alpha 90.000000
_cell_angle_beta 85.737110
_cell_angle_gamma 90.000000
_cell_volume 3136.832703
_symmetry_space_group_name_H-M "C 2/C"
_symmetry_group_IT_number 15
_symmetry_cell_setting 'monoclinic'
loop_
_space_group_symop_operation_xyz
x,y,z
-x,y,1/2-z
-x,-y,-z
x,-y,1/2+z
1/2+x,1/2+y,z
1/2-x,1/2+y,1/2-z
1/2-x,1/2-y,-z
1/2+x,1/2-y,1/2+z
loop_
_atom_site_type_symbol
_atom_site_label
_atom_site_fract_x
_atom_site_fract_y
_atom_site_fract_z
Si Si1 0.279827 0.421946 0.515116
Si Si2 0.708367 0.353188 0.129490
Si Si3 0.574011 0.285951 0.918666
Si Si4 0.988040 0.575652 0.679164
Si Si5 0.979718 0.669046 0.032536
Si Si6 0.105874 0.246289 0.192886
Si Si7 0.903749 0.786093 0.146489
Si Si8 0.274280 0.912669 0.436423
O O1 0.318932 0.392269 0.440835
O O2 0.365079 0.370146 0.565324
O O3 0.306225 0.512826 0.529463
O O4 0.107889 0.396379 0.529100
O O5 0.802747 0.272203 0.116835
O O6 0.818219 0.412557 0.163591
O O7 0.552752 0.328104 0.165230
O O8 0.433007 0.289981 0.876130
O O9 0.538340 0.241616 0.986954
O O10 0.000000 0.535129 0.750000
O O11 0.048419 0.664374 0.687654
O O12 0.095241 0.552095 0.615628
O O13 0.943598 0.709017 0.102304
O O14 0.847304 0.634131 0.994125
O O15 0.278519 0.255839 0.200704
O O16 0.000000 0.207418 0.250000
O O17 0.822800 0.851260 0.102424
#
# Coordination Sequence:
#
# PCOD9256200 Si02
#       8
#     8   8   8   8   8   8   8   8
#     4  11  20  33  57  86 121 151 185 238 294 347
#     4  10  18  33  57  86 113 146 194 237 286 343
#     4  10  17  35  57  77 114 160 182 234 292 340
#     4   9  18  36  57  77 109 160 199 231 277 343
#     4  11  18  34  57  84 115 148 193 232 289 349
#     4   9  19  35  56  80 108 154 201 233 279 345
#     4  11  20  34  58  89 115 144 191 247 289 338
#     4  11  22  33  55  86 120 150 193 232 292 349
#
# _framework density 20.402746
#
# number of rings (size 3 to 8) (size 9 to 14) (size 15 to 20)
#    0.000    1.750    7.500    1.500    0.000    0.500 
#    0.000   10.000    2.750    0.000    0.000    0.000 
#    0.000    0.000    0.000    0.000    0.000    0.000 
#
# Total GULP energy -178382.709363 kJ/mol
# GULP energy per Si atom -5574.459668 kJ/mol
# Density = 2.035631 g / cm^3
# Si number density = 20.402746 Si / 1000 Ang^3
#
#
#
# Elastic Constant Matrix: (Units=GPa)
#
#
# Indices 1 2 3 4 5 6 
#
# 1 84.5932 -3.6309 24.1314 0.0000 -13.7828 0.0000
# 2 -3.6309 41.6383 -2.2136 0.0000 2.8710 0.0000
# 3 24.1314 -2.2136 60.2696 0.0000 -7.6677 0.0000
# 4 0.0000 0.0000 0.0000 4.2280 0.0000 -6.3189
# 5 -13.7828 2.8710 -7.6677 0.0000 18.8997 0.0000
# 6 0.0000 0.0000 0.0000 -6.3189 0.0000 8.7163
#
#
#
# Elastic Compliance Matrix: (Units=1/GPa)
#
#
# Indices 1 2 3 4 5 6 
#
# 1 0.014600 0.000424 -0.004728 0.000000 0.008665 0.000000
# 2 0.000424 0.024294 0.000308 0.000000 -0.003256 0.000000
# 3 -0.004728 0.000308 0.019034 0.000000 0.004228 0.000000
# 4 0.000000 0.000000 0.000000 -2.833853 0.000000 -2.054405
# 5 0.008665 -0.003256 0.004228 0.000000 0.061439 0.000000
# 6 0.000000 0.000000 0.000000 -2.054405 0.000000 -1.374615
#
#
# Mechanical properties :
#
#
# Convention : Reuss Voigt Hill
#
# Bulk Modulus (GPa) = 20.02487 24.78608 22.40548
# Shear Modulus (GPa) = -1.23017 17.58308 8.17645
#
# Velocity S-wave (km/s) = -0.77734 2.93883 2.00405
# Velocity P-wave (km/s) = 3.00507 4.86728 4.04480
#
# Compressibility (1/GPa) = 0.04993790
#
# Stress axis : x y z
#
# Youngs Moduli (GPa) = 68.49368 41.16206 52.53697
#
# Poissons Ratio (x) = -0.01747 0.24838
# Poissons Ratio (y) = -0.02907 -0.01619
# Poissons Ratio (z) = 0.32382 -0.01268
#
# Static dielectric constant tensor:
#      x y z
#    x 1.823140 0.000000 -0.012470 
#    y 0.000000 1.693800 0.000000 
#    z -0.012470 0.000000 1.870950 
# 
# From -- ./inp_files/265234.got.cif
#   From: 2010.05.17/outbox.cif.g08.bks.cpg/sg15_133_cif.got.tgz:265234.got - 2010.06.03 18:47:42.
