data_PCOD9256607
_publ_section_title
;
Structure prediction by ZEFSAII (Michael W. Deem and Ramdas Pophale) SiO2 
 PCOD9256607
Probable space group: C 2/C
;
_chemical_formula_sum "Si O2"
_cell_formula_units_Z 60
_cell_length_a 19.964253
_cell_length_b 19.805309
_cell_length_c 14.652094
_cell_angle_alpha 90.000000
_cell_angle_beta 42.783827
_cell_angle_gamma 90.000000
_cell_volume 3935.083087
_symmetry_space_group_name_H-M "C 2/C"
_symmetry_group_IT_number 15
_symmetry_cell_setting 'monoclinic'
loop_
_space_group_symop_operation_xyz
x,y,z
-x,y,1/2-z
-x,-y,-z
x,-y,1/2+z
1/2+x,1/2+y,z
1/2-x,1/2+y,1/2-z
1/2-x,1/2-y,-z
1/2+x,1/2-y,1/2+z
loop_
_atom_site_type_symbol
_atom_site_label
_atom_site_fract_x
_atom_site_fract_y
_atom_site_fract_z
Si Si1 0.702474 0.818016 0.362932
Si Si2 0.702473 0.818012 0.732120
Si Si3 0.222217 0.113980 0.527782
Si Si4 0.114051 0.429891 0.940684
Si Si5 0.883179 0.493366 0.366824
Si Si6 0.500000 0.365779 0.250000
Si Si7 0.614049 0.929889 0.331206
Si Si8 0.499999 0.768702 0.852270
O O1 0.750003 0.750002 0.277291
O O2 0.757876 0.843318 0.399543
O O3 0.686972 0.876847 0.305062
O O4 0.595512 0.795111 0.503152
O O5 0.757877 0.843313 0.584703
O O6 0.686974 0.876844 0.820990
O O7 0.595510 0.795111 0.805825
O O8 0.105062 0.096159 0.644937
O O9 0.303869 0.054255 0.446127
O O10 0.121460 0.499998 0.878528
O O11 0.131929 0.448872 0.027690
O O12 0.000001 0.406477 0.046171
O O13 0.868075 0.448861 0.291557
O O14 0.000000 0.516092 0.250000
O O15 0.500000 0.312061 0.165394
O O16 0.500000 0.798028 0.750000
#
# Coordination Sequence:
#
# PCOD9256607 Si02
#       8
#     8   8   8   8   8   4   8   8
#     4  12  20  31  52  81 109 145 173 219 270 324
#     4  12  20  31  52  81 109 145 173 219 270 324
#     4  12  20  31  53  77 117 139 172 219 268 325
#     4  10  20  33  53  80 111 141 172 222 277 320
#     4  10  22  36  54  83 111 136 175 226 274 321
#     4  10  20  34  44  78 118 146 168 204 274 332
#     4  10  20  33  53  80 111 141 172 222 277 320
#     4  10  18  28  45  75 117 133 162 212 274 324
#
# _framework density 15.247455
#
# number of rings (size 3 to 8) (size 9 to 14) (size 15 to 20)
#    0.400    0.800    8.000    0.400    1.867    0.000 
#    0.000    0.667    0.000    4.800    0.000    0.000 
#    0.000    0.000    0.000    0.000    0.000    0.000 
#
# Total GULP energy -167128.719608 kJ/mol
# GULP energy per Si atom -5570.957320 kJ/mol
# Density = 1.521275 g / cm^3
# Si number density = 15.247455 Si / 1000 Ang^3
#
#
#
# Elastic Constant Matrix: (Units=GPa)
#
#
# Indices 1 2 3 4 5 6 
#
# 1 -115.2698 38.9180 238.2660 0.0000 15.7019 0.0000
# 2 38.9180 73.9578 36.2370 0.0000 4.1357 0.0000
# 3 238.2660 36.2370 -118.8119 0.0000 -16.6228 0.0000
# 4 0.0000 0.0000 0.0000 43.8638 0.0000 9.0882
# 5 15.7019 4.1357 -16.6228 0.0000 37.6385 0.0000
# 6 0.0000 0.0000 0.0000 9.0882 0.0000 45.1872
#
#
#
# Elastic Compliance Matrix: (Units=1/GPa)
#
#
# Indices 1 2 3 4 5 6 
#
# 1 0.004777 -0.006249 0.007399 0.000000 0.001962 0.000000
# 2 -0.006249 0.019941 -0.006129 0.000000 -0.002291 0.000000
# 3 0.007399 -0.006129 0.004606 0.000000 -0.000379 0.000000
# 4 0.000000 0.000000 0.000000 0.023789 0.000000 -0.004785
# 5 0.001962 -0.002291 -0.000379 0.000000 0.025834 0.000000
# 6 0.000000 0.000000 0.000000 -0.004785 0.000000 0.023092
#
#
# Mechanical properties :
#
#
# Convention : Reuss Voigt Hill
#
# Bulk Modulus (GPa) = 51.63645 51.85757 51.74701
# Shear Modulus (GPa) = 42.21098 -6.23175 17.98962
#
# Velocity S-wave (km/s) = 5.26726 -2.02384 3.43861
# Velocity P-wave (km/s) = 8.42207 5.35007 7.05530
#
# Compressibility (1/GPa) = 0.01936617
#
# Stress axis : x y z
#
# Youngs Moduli (GPa) = 209.33690 50.14842 217.11363
#
# Poissons Ratio (x) = 0.31337 -1.60652
# Poissons Ratio (y) = 1.30813 1.33075
# Poissons Ratio (z) = -1.54898 0.30737
#
# Static dielectric constant tensor:
#      x y z
#    x 1.511180 0.000000 -0.004560 
#    y 0.000000 1.522540 0.000000 
#    z -0.004560 0.000000 1.511840 
# 
# From -- ./inp_files/162935.got.cif
#   From: 2010.05.17/outbox.cif.g08.bks.cpg/sg15_82_cif.got.tgz:162935.got - 2010.06.03 18:47:42.
