data_PCOD9256195
_publ_section_title
;
Structure prediction by ZEFSAII (Michael W. Deem and Ramdas Pophale) SiO2 
 PCOD9256195
Probable space group: C 2/C
;
_chemical_formula_sum "Si O2"
_cell_formula_units_Z 40
_cell_length_a 12.736114
_cell_length_b 14.624493
_cell_length_c 14.823070
_cell_angle_alpha 90.000000
_cell_angle_beta 39.453732
_cell_angle_gamma 90.000000
_cell_volume 1754.448610
_symmetry_space_group_name_H-M "C 2/C"
_symmetry_group_IT_number 15
_symmetry_cell_setting 'monoclinic'
loop_
_space_group_symop_operation_xyz
x,y,z
-x,y,1/2-z
-x,-y,-z
x,-y,1/2+z
1/2+x,1/2+y,z
1/2-x,1/2+y,1/2-z
1/2-x,1/2-y,-z
1/2+x,1/2-y,1/2+z
loop_
_atom_site_type_symbol
_atom_site_label
_atom_site_fract_x
_atom_site_fract_y
_atom_site_fract_z
Si Si1 0.000000 0.249332 0.750000
Si Si2 0.952127 0.684367 0.621743
Si Si3 0.500000 0.669954 0.250000
Si Si4 0.876815 0.832902 0.093111
Si Si5 0.189140 0.129709 0.472289
Si Si6 0.781667 0.567984 0.973838
O O1 0.084913 0.187759 0.615752
O O2 0.155790 0.314917 0.670593
O O3 0.758902 0.665746 0.737435
O O4 0.968407 0.764054 0.686482
O O5 0.053441 0.730751 0.473286
O O6 0.041840 0.597017 0.604766
O O7 0.345637 0.605144 0.367913
O O8 0.772761 0.872989 0.077918
O O9 0.043778 0.889705 0.997038
O O10 0.258744 0.037289 0.468316
#
# Coordination Sequence:
#
# PCOD9256195 Si02
#       6
#     4   8   4   8   8   8
#     4  10  25  47  64  74 118 170 210 249 317 362
#     4  11  19  36  61  93 130 161 191 247 322 370
#     4  10  17  35  56  88 128 170 184 237 315 378
#     4  11  21  36  62  94 124 154 201 256 306 361
#     4  11  24  43  64  87 115 166 215 254 299 369
#     4  11  21  35  62  92 129 158 203 248 306 371
#
# _framework density 22.799187
#
# number of rings (size 3 to 8) (size 9 to 14) (size 15 to 20)
#    0.000    1.200    4.000    3.600    2.800    0.000 
#    0.000    0.000    0.000    4.800    0.000    0.000 
#    0.000    0.000    0.000    0.000    0.000    0.000 
#
# Total GULP energy -111694.598929 kJ/mol
# GULP energy per Si atom -5584.729946 kJ/mol
# Density = 2.274730 g / cm^3
# Si number density = 22.799187 Si / 1000 Ang^3
#
#
#
# Elastic Constant Matrix: (Units=GPa)
#
#
# Indices 1 2 3 4 5 6 
#
# 1 50.8792 29.1976 35.2356 -0.0001 -28.1175 0.0000
# 2 29.1976 122.4735 43.5197 -0.0001 -21.9313 0.0001
# 3 35.2356 43.5197 148.8287 -0.0002 -44.9411 0.0002
# 4 -0.0001 -0.0001 -0.0002 17.7750 0.0002 -9.8825
# 5 -28.1175 -21.9313 -44.9411 0.0002 39.7796 -0.0001
# 6 0.0000 0.0001 0.0002 -9.8825 -0.0001 25.0924
#
#
#
# Elastic Compliance Matrix: (Units=1/GPa)
#
#
# Indices 1 2 3 4 5 6 
#
# 1 0.034139 -0.004166 -0.000412 0.000000 0.021369 0.000000
# 2 -0.004166 0.009872 -0.001739 0.000000 0.000533 0.000000
# 3 -0.000412 -0.001739 0.010545 0.000000 0.010664 0.000000
# 4 0.000000 0.000000 0.000000 0.072031 0.000000 0.028369
# 5 0.021369 0.000533 0.010664 0.000000 0.052583 0.000000
# 6 0.000000 0.000000 0.000000 0.028369 0.000000 0.051025
#
#
# Mechanical properties :
#
#
# Convention : Reuss Voigt Hill
#
# Bulk Modulus (GPa) = 23.85388 59.78745 41.82066
# Shear Modulus (GPa) = 19.47005 30.81131 25.14068
#
# Velocity S-wave (km/s) = 2.92546 3.68016 3.32430
# Velocity P-wave (km/s) = 4.67936 6.65872 5.75478
#
# Compressibility (1/GPa) = 0.04192190
#
# Stress axis : x y z
#
# Youngs Moduli (GPa) = 29.29174 101.29982 94.82921
#
# Poissons Ratio (x) = 0.42201 0.03904
# Poissons Ratio (y) = 0.12203 0.16495
# Poissons Ratio (z) = 0.01206 0.17621
#
# Static dielectric constant tensor:
#      x y z
#    x 1.950530 0.000000 0.012060 
#    y 0.000000 1.805040 0.000000 
#    z 0.012060 0.000000 1.926540 
# 
# From -- ./inp_files/38098.got.cif
#   From: 2010.05.17/outbox.cif.g08.bks.cpg/sg15_20_cif.got.tgz:38098.got - 2010.06.03 18:47:42.
