data_PCOD9256292
_publ_section_title
;
Structure prediction by ZEFSAII (Michael W. Deem and Ramdas Pophale) SiO2 
 PCOD9256292
Probable space group: C 2/C
;
_chemical_formula_sum "Si O2"
_cell_formula_units_Z 48
_cell_length_a 27.905249
_cell_length_b 11.490204
_cell_length_c 15.151738
_cell_angle_alpha 90.000000
_cell_angle_beta 154.046884
_cell_angle_gamma 90.000000
_cell_volume 2126.124400
_symmetry_space_group_name_H-M "C 2/C"
_symmetry_group_IT_number 15
_symmetry_cell_setting 'monoclinic'
loop_
_space_group_symop_operation_xyz
x,y,z
-x,y,1/2-z
-x,-y,-z
x,-y,1/2+z
1/2+x,1/2+y,z
1/2-x,1/2+y,1/2-z
1/2-x,1/2-y,-z
1/2+x,1/2-y,1/2+z
loop_
_atom_site_type_symbol
_atom_site_label
_atom_site_fract_x
_atom_site_fract_y
_atom_site_fract_z
Si Si1 0.579302 0.089956 0.503345
Si Si2 0.660570 0.833031 0.965064
Si Si3 0.989334 0.650887 0.836956
Si Si4 0.339767 0.398842 0.114416
Si Si5 0.745830 0.613658 0.474329
Si Si6 0.046352 0.192702 0.063448
O O1 0.459635 0.130604 0.268669
O O2 0.667361 0.114562 0.573210
O O3 0.590799 0.183203 0.599745
O O4 0.569626 0.952364 0.503650
O O5 0.667858 0.692816 0.977257
O O6 0.749701 0.870555 0.041036
O O7 0.868626 0.593142 0.647200
O O8 0.998284 0.764180 0.914494
O O9 0.000000 0.673652 0.750000
O O10 0.303360 0.529835 0.031744
O O11 0.454903 0.368149 0.351984
O O12 0.750000 0.750000 0.500000
O O13 0.648961 0.606813 0.242006
#
# Coordination Sequence:
#
# PCOD9256292 Si02
#       6
#     8   8   8   8   8   8
#     4  10  17  36  56  86 114 149 197 236 290 343
#     4   9  18  31  61  86 111 150 186 244 286 341
#     4  11  20  37  60  83 117 153 196 241 292 350
#     4  10  18  36  58  86 117 148 198 231 294 347
#     4  10  21  38  59  81 118 159 185 238 301 346
#     4  10  23  33  58  85 117 151 193 242 294 345
#
# _framework density 22.576288999999999
#
# number of rings (size 3 to 8) (size 9 to 14) (size 15 to 20)
#    0.000    2.000    3.333    1.000    0.000    1.333 
#    0.000    0.000   36.667    0.000    0.000    0.000 
#    0.000    0.000    0.000    0.000    0.000    0.000 
#
# Total GULP energy -133698.462101 kJ/mol
# GULP energy per Si atom -5570.769254 kJ/mol
# Density = 2.252490 g / cm^3
# Si number density = 22.576289 Si / 1000 Ang^3
#
#
#
# Elastic Constant Matrix: (Units=GPa)
#
#
# Indices 1 2 3 4 5 6 
#
# 1 45.1800 6.2732 0.0284 0.0000 1.7419 0.0000
# 2 6.2732 105.4054 1.8379 0.0000 4.4349 0.0000
# 3 0.0284 1.8379 36.1584 0.0000 10.5035 0.0000
# 4 0.0000 0.0000 0.0000 28.3828 0.0000 7.7226
# 5 1.7419 4.4349 10.5035 0.0000 19.0085 0.0000
# 6 0.0000 0.0000 0.0000 7.7226 0.0000 27.8359
#
#
#
# Elastic Compliance Matrix: (Units=1/GPa)
#
#
# Indices 1 2 3 4 5 6 
#
# 1 0.022389 -0.001255 0.000664 0.000000 -0.002126 0.000000
# 2 -0.001255 0.009653 0.000156 0.000000 -0.002223 0.000000
# 3 0.000664 0.000156 0.032968 0.000000 -0.018314 0.000000
# 4 0.000000 0.000000 0.000000 0.038109 0.000000 -0.010573
# 5 -0.002126 -0.002223 -0.018314 0.000000 0.063441 0.000000
# 6 0.000000 0.000000 0.000000 -0.010573 0.000000 0.038858
#
#
# Mechanical properties :
#
#
# Convention : Reuss Voigt Hill
#
# Bulk Modulus (GPa) = 15.59083 22.55810 19.07447
# Shear Modulus (GPa) = 21.96178 26.95239 24.45708
#
# Velocity S-wave (km/s) = 3.12233 3.45894 3.29494
# Velocity P-wave (km/s) = 4.46312 5.09568 4.78985
#
# Compressibility (1/GPa) = 0.06414027
#
# Stress axis : x y z
#
# Youngs Moduli (GPa) = 44.66396 103.59824 30.33276
#
# Poissons Ratio (x) = 0.12998 -0.02013
# Poissons Ratio (y) = 0.05604 -0.00474
# Poissons Ratio (z) = -0.02964 -0.01619
#
# Static dielectric constant tensor:
#      x y z
#    x 1.861650 0.000000 -0.027620 
#    y 0.000000 1.998480 0.000000 
#    z -0.027620 0.000000 1.904990 
# 
# From -- ./inp_files/177893.got.cif
#   From: 2010.05.17/outbox.cif.g08.bks.cpg/sg15_89_cif.got.tgz:177893.got - 2010.06.03 18:47:42.
