data_PCOD9256939
_publ_section_title
;
Structure prediction by ZEFSAII (Michael W. Deem and Ramdas Pophale) SiO2 
 PCOD9256939
Probable space group: C 2/C
;
_chemical_formula_sum "Si O2"
_cell_formula_units_Z 56
_cell_length_a 18.073183
_cell_length_b 14.908567
_cell_length_c 8.375477
_cell_angle_alpha 90.000000
_cell_angle_beta 96.247726
_cell_angle_gamma 90.000000
_cell_volume 2243.329069
_symmetry_space_group_name_H-M "C 2/C"
_symmetry_group_IT_number 15
_symmetry_cell_setting 'monoclinic'
loop_
_space_group_symop_operation_xyz
x,y,z
-x,y,1/2-z
-x,-y,-z
x,-y,1/2+z
1/2+x,1/2+y,z
1/2-x,1/2+y,1/2-z
1/2-x,1/2-y,-z
1/2+x,1/2-y,1/2+z
loop_
_atom_site_type_symbol
_atom_site_label
_atom_site_fract_x
_atom_site_fract_y
_atom_site_fract_z
Si Si1 0.835796 0.750538 0.580591
Si Si2 0.198530 0.562326 0.876029
Si Si3 0.524017 0.097931 0.571406
Si Si4 0.656547 0.875191 0.890768
Si Si5 0.668043 0.629956 0.124957
Si Si6 0.559494 0.747726 0.650768
Si Si7 0.190033 0.034566 0.848138
O O1 0.750000 0.750000 0.500000
O O2 0.850105 0.644281 0.579576
O O3 0.849830 0.789828 0.759845
O O4 0.890032 0.800627 0.469594
O O5 0.151945 0.475188 0.814544
O O6 0.255563 0.591150 0.752126
O O7 0.253533 0.524843 0.027687
O O8 0.500000 0.105877 0.750000
O O9 0.611542 0.112741 0.545445
O O10 0.486944 0.176828 0.457126
O O11 0.500000 0.000000 0.500000
O O12 0.744431 0.855544 0.899714
O O13 0.616581 0.801126 0.776631
O O14 0.639576 0.598838 0.944739
O O15 0.654642 0.541129 0.228875
O O16 0.500000 0.699252 0.750000
#
# Coordination Sequence:
#
# PCOD9256939 Si02
#       7
#     8   8   8   8   8   8   8
#     4  12  20  32  53  81 107 137 178 224 274 316
#     4  10  18  30  49  72 107 141 174 220 256 304
#     4  11  22  33  48  72 102 145 187 215 246 303
#     4   9  18  34  51  72 102 141 183 213 254 306
#     4  10  19  32  52  75 103 135 170 220 264 317
#     4  10  21  36  54  75 106 145 183 218 259 322
#     4   8  17  31  46  70 102 136 171 208 264 309
#
# _framework density 24.962900000000001
#
# number of rings (size 3 to 8) (size 9 to 14) (size 15 to 20)
#    0.000    2.286    2.857    3.000    0.000    9.714 
#    0.000    0.000    0.000    0.000    0.000    1.000 
#    0.000    0.000    0.000    0.000    0.000    0.000 
#
# Total GULP energy -156329.098709 kJ/mol
# GULP energy per Si atom -5583.182097 kJ/mol
# Density = 2.490608 g / cm^3
# Si number density = 24.962900 Si / 1000 Ang^3
#
#
#
# Elastic Constant Matrix: (Units=GPa)
#
#
# Indices 1 2 3 4 5 6 
#
# 1 59.2087 14.9663 27.8744 0.0000 -21.2792 0.0000
# 2 14.9663 54.2719 17.8314 0.0000 -5.1297 0.0000
# 3 27.8744 17.8314 142.7082 0.0000 -47.5943 0.0000
# 4 0.0000 0.0000 0.0000 48.1088 0.0000 0.0979
# 5 -21.2792 -5.1297 -47.5943 0.0000 46.5593 0.0000
# 6 0.0000 0.0000 0.0000 0.0979 0.0000 21.4222
#
#
#
# Elastic Compliance Matrix: (Units=1/GPa)
#
#
# Indices 1 2 3 4 5 6 
#
# 1 0.021548 -0.004889 -0.000748 0.000000 0.008545 0.000000
# 2 -0.004889 0.020332 -0.002403 0.000000 -0.002451 0.000000
# 3 -0.000748 -0.002403 0.011002 0.000000 0.010640 0.000000
# 4 0.000000 0.000000 0.000000 0.020786 0.000000 -0.000095
# 5 0.008545 -0.002451 0.010640 0.000000 0.035990 0.000000
# 6 0.000000 0.000000 0.000000 -0.000095 0.000000 0.046681
#
#
# Mechanical properties :
#
#
# Convention : Reuss Voigt Hill
#
# Bulk Modulus (GPa) = 27.17204 41.94810 34.56007
# Shear Modulus (GPa) = 27.07284 36.25251 31.66267
#
# Velocity S-wave (km/s) = 3.29678 3.81498 3.56531
# Velocity P-wave (km/s) = 5.03987 6.02047 5.55186
#
# Compressibility (1/GPa) = 0.03680254
#
# Stress axis : x y z
#
# Youngs Moduli (GPa) = 46.40715 49.18415 90.89041
#
# Poissons Ratio (x) = 0.24045 0.06802
# Poissons Ratio (y) = 0.22688 0.21839
# Poissons Ratio (z) = 0.03473 0.11818
#
# Static dielectric constant tensor:
#      x y z
#    x 2.050920 0.000000 0.024970 
#    y 0.000000 2.014520 0.000000 
#    z 0.024970 0.000000 2.101290 
# 
# From -- ./inp_files/56090.got.cif
#   From: 2010.05.17/outbox.cif.g08.bks.cpg/sg15_29_cif.got.tgz:56090.got - 2010.06.03 18:47:42.
