data_PCOD9256358
_publ_section_title
;
Structure prediction by ZEFSAII (Michael W. Deem and Ramdas Pophale) SiO2 
 PCOD9256358
Probable space group: C 2/C
;
_chemical_formula_sum "Si O2"
_cell_formula_units_Z 60
_cell_length_a 30.850553
_cell_length_b 19.580481
_cell_length_c 15.604816
_cell_angle_alpha 90.000000
_cell_angle_beta 20.483110
_cell_angle_gamma 90.000000
_cell_volume 3298.585058
_symmetry_space_group_name_H-M "C 2/C"
_symmetry_group_IT_number 15
_symmetry_cell_setting 'monoclinic'
loop_
_space_group_symop_operation_xyz
x,y,z
-x,y,1/2-z
-x,-y,-z
x,-y,1/2+z
1/2+x,1/2+y,z
1/2-x,1/2+y,1/2-z
1/2-x,1/2-y,-z
1/2+x,1/2-y,1/2+z
loop_
_atom_site_type_symbol
_atom_site_label
_atom_site_fract_x
_atom_site_fract_y
_atom_site_fract_z
Si Si1 0.556279 0.066078 0.942672
Si Si2 0.823382 0.203653 0.643922
Si Si3 0.719377 0.008442 0.285303
Si Si4 0.146101 0.344544 0.975821
Si Si5 0.880955 0.605412 0.411093
Si Si6 0.428868 0.642812 0.272494
Si Si7 0.000000 0.019420 0.250000
Si Si8 0.772730 0.330995 0.479052
O O1 0.619966 0.126058 0.769116
O O2 0.658437 0.035007 0.820347
O O3 0.440376 0.097372 0.208629
O O4 0.500000 0.000000 0.000000
O O5 0.793032 0.282287 0.687882
O O6 0.844788 0.169821 0.508874
O O7 0.955753 0.194055 0.444636
O O8 0.719932 0.162891 0.885978
O O9 0.661963 0.082881 0.401663
O O10 0.680815 0.964739 0.440450
O O11 0.867442 0.016196 0.003237
O O12 0.201871 0.342436 0.968128
O O13 0.000000 0.329025 0.250000
O O14 0.000000 0.619377 0.250000
O O15 0.484441 0.570816 0.198666
O O16 0.352277 0.637327 0.328461
O O17 0.750000 0.250000 0.500000
#
# Coordination Sequence:
#
# PCOD9256358 Si02
#       8
#     8   8   8   8   8   8   4   8
#     4  11  23  39  59  91 127 163 202 264 315 364
#     4  10  18  36  61  90 115 158 202 248 308 361
#     4  11  21  38  61  86 118 165 207 247 309 378
#     4  12  23  38  60  92 125 156 203 263 309 372
#     4  10  19  34  61  85 113 155 209 241 297 374
#     4  10  17  36  64  88 110 155 204 252 294 372
#     4  10  18  38  62  80 116 154 212 238 300 374
#     4  12  22  37  63  95 120 156 215 262 310 368
#
# _framework density 18.189616999999998
#
# number of rings (size 3 to 8) (size 9 to 14) (size 15 to 20)
#    0.000    1.333    6.667    3.600    0.000    0.000 
#    1.200    2.000    0.000    5.600    0.000    0.000 
#    0.000    0.000    0.000    0.000    0.000    0.000 
#
# Total GULP energy -167258.775743 kJ/mol
# GULP energy per Si atom -5575.292525 kJ/mol
# Density = 1.814822 g / cm^3
# Si number density = 18.189617 Si / 1000 Ang^3
#
#
#
# Elastic Constant Matrix: (Units=GPa)
#
#
# Indices 1 2 3 4 5 6 
#
# 1 65.0001 6.7086 26.8015 0.0000 -11.7200 0.0000
# 2 6.7086 110.7074 45.6287 0.0000 15.8749 0.0000
# 3 26.8015 45.6287 109.3084 0.0001 -0.2441 0.0000
# 4 0.0000 0.0000 0.0001 27.6262 0.0000 -1.5686
# 5 -11.7200 15.8749 -0.2441 0.0000 23.9848 0.0000
# 6 0.0000 0.0000 0.0000 -1.5686 0.0000 16.6771
#
#
#
# Elastic Compliance Matrix: (Units=1/GPa)
#
#
# Indices 1 2 3 4 5 6 
#
# 1 0.019002 -0.000771 -0.004315 0.000000 0.009752 0.000000
# 2 -0.000771 0.012374 -0.004996 0.000000 -0.008618 0.000000
# 3 -0.004315 -0.004996 0.012295 0.000000 0.001323 0.000000
# 4 0.000000 0.000000 0.000000 0.036392 0.000000 0.003423
# 5 0.009752 -0.008618 0.001323 0.000000 0.052176 0.000000
# 6 0.000000 0.000000 0.000000 0.003423 0.000000 0.060284
#
#
# Mechanical properties :
#
#
# Convention : Reuss Voigt Hill
#
# Bulk Modulus (GPa) = 42.54123 49.25483 45.89803
# Shear Modulus (GPa) = 22.67341 27.38275 25.02808
#
# Velocity S-wave (km/s) = 3.53441 3.88417 3.71341
# Velocity P-wave (km/s) = 6.33202 6.87408 6.60861
#
# Compressibility (1/GPa) = 0.02350661
#
# Stress axis : x y z
#
# Youngs Moduli (GPa) = 52.62647 80.81298 81.33532
#
# Poissons Ratio (x) = 0.06232 0.35099
# Poissons Ratio (y) = 0.04058 0.40631
# Poissons Ratio (z) = 0.22710 0.40371
#
# Static dielectric constant tensor:
#      x y z
#    x 1.653680 0.000000 -0.010610 
#    y 0.000000 1.646930 0.000000 
#    z -0.010610 0.000000 1.626540 
# 
# From -- ./inp_files/183070.got.cif
#   From: 2010.05.17/outbox.cif.g08.bks.cpg/sg15_92_cif.got.tgz:183070.got - 2010.06.03 18:47:42.
