data_PCOD9256826
_publ_section_title
;
Structure prediction by ZEFSAII (Michael W. Deem and Ramdas Pophale) SiO2 
 PCOD9256826
Probable space group: C 2/C
;
_chemical_formula_sum "Si O2"
_cell_formula_units_Z 40
_cell_length_a 10.000528
_cell_length_b 19.048441
_cell_length_c 16.750196
_cell_angle_alpha 90.000000
_cell_angle_beta 147.019705
_cell_angle_gamma 90.000000
_cell_volume 1736.924504
_symmetry_space_group_name_H-M "C 2/C"
_symmetry_group_IT_number 15
_symmetry_cell_setting 'monoclinic'
loop_
_space_group_symop_operation_xyz
x,y,z
-x,y,1/2-z
-x,-y,-z
x,-y,1/2+z
1/2+x,1/2+y,z
1/2-x,1/2+y,1/2-z
1/2-x,1/2-y,-z
1/2+x,1/2-y,1/2+z
loop_
_atom_site_type_symbol
_atom_site_label
_atom_site_fract_x
_atom_site_fract_y
_atom_site_fract_z
Si Si1 0.394595 0.116214 0.464406
Si Si2 0.423551 0.407722 0.841824
Si Si3 0.387958 0.447002 0.279239
Si Si4 0.986280 0.790652 0.147532
Si Si5 0.993333 0.759864 0.917798
O O1 0.157115 0.107422 0.401556
O O2 0.609483 0.072318 0.614837
O O3 0.483037 0.196609 0.508171
O O4 0.315638 0.097868 0.335294
O O5 0.423448 0.490450 0.860114
O O6 0.444162 0.341889 0.912741
O O7 0.500000 0.470499 0.250000
O O8 0.518391 0.374381 0.368045
O O9 0.000000 0.779387 0.250000
O O10 0.249842 0.763212 0.247172
O O11 0.750000 0.750000 0.000000
O O12 0.250000 0.750000 0.000000
#
# Coordination Sequence:
#
# PCOD9256826 Si02
#       5
#     8   8   8   8   8
#     4   9  18  31  44  78 108 138 178 229 284 337
#     4  10  18  29  54  75 106 144 179 238 285 329
#     4  10  19  30  51  83 110 136 183 239 294 334
#     4  10  23  39  59  87 119 155 192 240 292 349
#     4   9  20  34  51  80 113 151 192 227 289 350
#
# _framework density 23.029211
#
# number of rings (size 3 to 8) (size 9 to 14) (size 15 to 20)
#    0.000    2.400    2.000    0.600    8.400    0.000 
#    0.000    0.000    0.000    1.200   15.600    0.000 
#    0.000    0.000    0.000    0.000    0.000    0.000 
#
# Total GULP energy -111462.646110 kJ/mol
# GULP energy per Si atom -5573.132305 kJ/mol
# Density = 2.297680 g / cm^3
# Si number density = 23.029211 Si / 1000 Ang^3
#
#
#
# Elastic Constant Matrix: (Units=GPa)
#
#
# Indices 1 2 3 4 5 6 
#
# 1 22.5922 13.2758 25.9188 -0.0002 11.1563 0.0004
# 2 13.2758 223.2603 83.8575 -0.0050 -1.0380 0.0023
# 3 25.9188 83.8575 125.3794 -0.0182 20.1248 0.0109
# 4 -0.0002 -0.0050 -0.0182 41.2524 0.0046 -2.1487
# 5 11.1563 -1.0380 20.1248 0.0046 28.7970 0.0008
# 6 0.0004 0.0023 0.0109 -2.1487 0.0008 12.8026
#
#
#
# Elastic Compliance Matrix: (Units=1/GPa)
#
#
# Indices 1 2 3 4 5 6 
#
# 1 0.065275 0.000038 -0.010656 -0.000002 -0.017840 0.000007
# 2 0.000038 0.006291 -0.004787 -0.000002 0.003557 0.000002
# 3 -0.010656 -0.004787 0.014355 0.000006 -0.006077 -0.000010
# 4 -0.000002 -0.000002 0.000006 0.024455 -0.000007 0.004104
# 5 -0.017840 0.003557 -0.006077 -0.000007 0.046012 0.000001
# 6 0.000007 0.000002 -0.000010 0.004104 0.000001 0.078798
#
#
# Mechanical properties :
#
#
# Convention : Reuss Voigt Hill
#
# Bulk Modulus (GPa) = 18.14449 68.59288 43.36868
# Shear Modulus (GPa) = 17.58293 33.11573 25.34933
#
# Velocity S-wave (km/s) = 2.76616 3.79620 3.32135
# Velocity P-wave (km/s) = 4.25420 7.00461 5.79495
#
# Compressibility (1/GPa) = 0.05511315
#
# Stress axis : x y z
#
# Youngs Moduli (GPa) = 15.31974 158.95199 69.66058
#
# Poissons Ratio (x) = -0.00602 0.74228
# Poissons Ratio (y) = -0.00058 0.33343
# Poissons Ratio (z) = 0.16324 0.76083
#
# Static dielectric constant tensor:
#      x y z
#    x 1.937770 0.000000 -0.014610 
#    y 0.000000 1.958940 -0.000010 
#    z -0.014610 -0.000010 1.936880 
# 
# From -- ./inp_files/97690.got.cif
#   From: 2010.05.17/outbox.cif.g08.bks.cpg/sg15_49_cif.got.tgz:97690.got - 2010.06.03 18:47:42.
