data_PCOD9256004
_publ_section_title
;
Structure prediction by ZEFSAII (Michael W. Deem and Ramdas Pophale) SiO2 
 PCOD9256004
Probable space group: C 2/C
;
_chemical_formula_sum "Si O2"
_cell_formula_units_Z 60
_cell_length_a 18.625052
_cell_length_b 19.863173
_cell_length_c 9.673695
_cell_angle_alpha 90.000000
_cell_angle_beta 97.131068
_cell_angle_gamma 90.000000
_cell_volume 3551.125999
_symmetry_space_group_name_H-M "C 2/C"
_symmetry_group_IT_number 15
_symmetry_cell_setting 'monoclinic'
loop_
_space_group_symop_operation_xyz
x,y,z
-x,y,1/2-z
-x,-y,-z
x,-y,1/2+z
1/2+x,1/2+y,z
1/2-x,1/2+y,1/2-z
1/2-x,1/2-y,-z
1/2+x,1/2-y,1/2+z
loop_
_atom_site_type_symbol
_atom_site_label
_atom_site_fract_x
_atom_site_fract_y
_atom_site_fract_z
Si Si1 0.411984 0.293371 0.233234
Si Si2 0.248675 0.837760 0.661727
Si Si3 0.391271 0.569965 0.375270
Si Si4 0.084255 0.948582 0.306273
Si Si5 0.662561 0.786518 0.035797
Si Si6 0.318732 0.786274 0.940043
Si Si7 0.500000 0.334290 0.750000
Si Si8 0.421323 0.799875 0.207939
O O1 0.500000 0.286739 0.250000
O O2 0.392900 0.372471 0.224109
O O3 0.381885 0.257891 0.086648
O O4 0.371162 0.260509 0.355483
O O5 0.179515 0.884251 0.639440
O O6 0.302582 0.846342 0.545460
O O7 0.221580 0.761331 0.624630
O O8 0.285796 0.837489 0.819367
O O9 0.379775 0.508701 0.268420
O O10 0.406078 0.541525 0.529464
O O11 0.459082 0.617270 0.347100
O O12 0.000000 0.953132 0.250000
O O13 0.614955 0.808049 0.152614
O O14 0.250000 0.750000 0.000000
O O15 0.369038 0.818773 0.070452
O O16 0.560199 0.280292 0.815129
O O17 0.500000 0.831940 0.250000
#
# Coordination Sequence:
#
# PCOD9256004 Si02
#       8
#     8   8   8   8   8   8   4   8
#     4  10  21  34  51  73 104 144 186 217 263 315
#     4  10  20  33  50  67  99 137 178 220 269 321
#     4  12  22  38  47  72 102 147 191 226 256 294
#     4  11  24  34  51  70 101 146 195 226 250 296
#     4  10  17  34  50  69  97 139 178 209 273 324
#     4  11  20  31  51  79 101 134 186 223 270 317
#     4  10  20  30  52  66 108 138 178 220 256 286
#     4  10  19  30  51  77 103 136 169 219 266 312
#
# _framework density 16.896049000000001
#
# number of rings (size 3 to 8) (size 9 to 14) (size 15 to 20)
#    0.400    1.067    4.667    1.200    3.733    1.067 
#    0.000    0.000    0.000    0.000    0.000    0.000 
#    0.000    0.000    0.000  147.600   16.800    0.000 
#
# Total GULP energy -167090.367521 kJ/mol
# GULP energy per Si atom -5569.678917 kJ/mol
# Density = 1.685759 g / cm^3
# Si number density = 16.896049 Si / 1000 Ang^3
#
#
#
# Elastic Constant Matrix: (Units=GPa)
#
#
# Indices 1 2 3 4 5 6 
#
# 1 97.0575 17.0942 64.8811 0.0000 -13.6259 0.0000
# 2 17.0942 34.8755 26.2227 0.0000 -12.4743 0.0000
# 3 64.8811 26.2227 147.5961 0.0000 -1.3297 0.0000
# 4 0.0000 0.0000 0.0000 12.1513 0.0000 -13.7976
# 5 -13.6259 -12.4743 -1.3297 0.0000 29.2147 0.0000
# 6 0.0000 0.0000 0.0000 -13.7976 0.0000 -208.9558
#
#
#
# Elastic Compliance Matrix: (Units=1/GPa)
#
#
# Indices 1 2 3 4 5 6 
#
# 1 0.015946 -0.000065 -0.006934 0.000000 0.007094 0.000000
# 2 -0.000065 0.039860 -0.006903 0.000000 0.016675 0.000000
# 3 -0.006934 -0.006903 0.010999 0.000000 -0.005681 0.000000
# 4 0.000000 0.000000 0.000000 0.076556 0.000000 -0.005055
# 5 0.007094 0.016675 -0.005681 0.000000 0.044400 0.000000
# 6 0.000000 0.000000 0.000000 -0.005055 0.000000 -0.004452
#
#
# Mechanical properties :
#
#
# Convention : Reuss Voigt Hill
#
# Bulk Modulus (GPa) = 25.64061 55.10280 40.37170
# Shear Modulus (GPa) = 22.31027 -22.09590 0.10719
#
# Velocity S-wave (km/s) = 3.63773 -3.62021 0.25214
# Velocity P-wave (km/s) = 5.73172 3.89988 4.90212
#
# Compressibility (1/GPa) = 0.03900064
#
# Stress axis : x y z
#
# Youngs Moduli (GPa) = 62.71223 25.08785 90.92007
#
# Poissons Ratio (x) = 0.00162 0.63046
# Poissons Ratio (y) = 0.00405 0.62763
# Poissons Ratio (z) = 0.43486 0.17318
#
# Static dielectric constant tensor:
#      x y z
#    x 1.646690 0.000000 -0.017820 
#    y 0.000000 1.553540 0.000000 
#    z -0.017820 0.000000 1.585450 
# 
# From -- ./inp_files/50270.got.cif
#   From: 2010.05.17/outbox.cif.g08.bks.cpg/sg15_26_cif.got.tgz:50270.got - 2010.06.03 18:47:42.
