data_PCOD9256749
_publ_section_title
;
Structure prediction by ZEFSAII (Michael W. Deem and Ramdas Pophale) SiO2 
 PCOD9256749
Probable space group: C 2/C
;
_chemical_formula_sum "Si O2"
_cell_formula_units_Z 40
_cell_length_a 11.189804
_cell_length_b 23.099622
_cell_length_c 8.980583
_cell_angle_alpha 90.000000
_cell_angle_beta 126.095888
_cell_angle_gamma 90.000000
_cell_volume 1875.687714
_symmetry_space_group_name_H-M "C 2/C"
_symmetry_group_IT_number 15
_symmetry_cell_setting 'monoclinic'
loop_
_space_group_symop_operation_xyz
x,y,z
-x,y,1/2-z
-x,-y,-z
x,-y,1/2+z
1/2+x,1/2+y,z
1/2-x,1/2+y,1/2-z
1/2-x,1/2-y,-z
1/2+x,1/2-y,1/2+z
loop_
_atom_site_type_symbol
_atom_site_label
_atom_site_fract_x
_atom_site_fract_y
_atom_site_fract_z
Si Si1 0.761761 0.924402 0.702772
Si Si2 0.945177 0.383623 0.548852
Si Si3 0.107650 0.185876 0.049222
Si Si4 0.713227 0.298203 0.281176
Si Si5 0.329661 0.002071 0.604437
O O1 0.597085 0.897993 0.581510
O O2 0.860996 0.874975 0.847995
O O3 0.777680 0.952565 0.553517
O O4 0.745088 0.978670 0.801825
O O5 0.841975 0.345555 0.369861
O O6 0.861131 0.442608 0.534025
O O7 0.000000 0.356332 0.750000
O O8 0.208417 0.236922 0.189069
O O9 0.157917 0.190196 0.911992
O O10 0.932944 0.196993 0.923939
O O11 0.500000 0.023609 0.750000
#
# Coordination Sequence:
#
# PCOD9256749 Si02
#       5
#     8   8   8   8   8
#     4  10  18  32  51  76 107 134 176 203 253 295
#     4   9  15  28  45  70  97 130 162 207 246 302
#     4  10  19  28  47  73 103 132 162 217 261 310
#     4  10  18  29  47  72 107 127 165 212 275 292
#     4   9  17  30  50  76 101 139 171 211 239 303
#
# _framework density 21.325510000000001
#
# number of rings (size 3 to 8) (size 9 to 14) (size 15 to 20)
#    0.000    2.800    4.000    3.600    2.800    0.000 
#    0.000    1.000    0.000    0.000    0.000   12.600 
#    0.000    0.000    0.000    0.000    0.000    0.000 
#
# Total GULP energy -111447.859571 kJ/mol
# GULP energy per Si atom -5572.392979 kJ/mol
# Density = 2.127697 g / cm^3
# Si number density = 21.325510 Si / 1000 Ang^3
#
#
#
# Elastic Constant Matrix: (Units=GPa)
#
#
# Indices 1 2 3 4 5 6 
#
# 1 13.4407 18.2607 33.7179 0.0000 12.4735 0.0000
# 2 18.2607 56.5980 78.9637 0.0000 -10.9822 0.0000
# 3 33.7179 78.9637 125.3894 0.0000 14.1707 0.0000
# 4 0.0000 0.0000 0.0000 21.9666 0.0000 -9.1190
# 5 12.4735 -10.9822 14.1707 0.0000 -1.8491 0.0000
# 6 0.0000 0.0000 0.0000 -9.1190 0.0000 -9.3651
#
#
#
# Elastic Compliance Matrix: (Units=1/GPa)
#
#
# Indices 1 2 3 4 5 6 
#
# 1 0.323913 0.140919 -0.175875 0.000000 0.000261 0.000000
# 2 0.140919 0.069523 -0.076332 0.000000 -0.047286 0.000000
# 3 -0.175875 -0.076332 0.099773 0.000000 0.031557 0.000000
# 4 0.000000 0.000000 0.000000 0.032419 0.000000 -0.031567
# 5 0.000261 -0.047286 0.031557 0.000000 -0.016360 0.000000
# 6 0.000000 0.000000 0.000000 -0.031567 0.000000 -0.076042
#
#
# Mechanical properties :
#
#
# Convention : Reuss Voigt Hill
#
# Bulk Modulus (GPa) = 3.69504 50.81250 27.25377
# Shear Modulus (GPa) = 6.70229 6.44953 6.57591
#
# Velocity S-wave (km/s) = 1.77473 1.74095 1.75792
# Velocity P-wave (km/s) = 2.43639 5.28394 4.11437
#
# Compressibility (1/GPa) = 0.27063285
#
# Stress axis : x y z
#
# Youngs Moduli (GPa) = 3.08724 14.38363 10.02278
#
# Poissons Ratio (x) = -2.02693 1.76276
# Poissons Ratio (y) = -0.43505 0.76506
# Poissons Ratio (z) = 0.54297 1.09793
#
# Static dielectric constant tensor:
#      x y z
#    x 1.782270 0.000000 -0.020210 
#    y 0.000000 1.804850 0.000000 
#    z -0.020210 0.000000 1.806380 
# 
# From -- ./inp_files/99560.got.cif
#   From: 2010.05.17/outbox.cif.g08.bks.cpg/sg15_50_cif.got.tgz:99560.got - 2010.06.03 18:47:42.
