data_PCOD9256980
_publ_section_title
;
Structure prediction by ZEFSAII (Michael W. Deem and Ramdas Pophale) SiO2 
 PCOD9256980
Probable space group: C 2/C
;
_chemical_formula_sum "Si O2"
_cell_formula_units_Z 60
_cell_length_a 7.469640
_cell_length_b 22.233363
_cell_length_c 14.470826
_cell_angle_alpha 90.000000
_cell_angle_beta 100.774694
_cell_angle_gamma 90.000000
_cell_volume 2360.876156
_symmetry_space_group_name_H-M "C 2/C"
_symmetry_group_IT_number 15
_symmetry_cell_setting 'monoclinic'
loop_
_space_group_symop_operation_xyz
x,y,z
-x,y,1/2-z
-x,-y,-z
x,-y,1/2+z
1/2+x,1/2+y,z
1/2-x,1/2+y,1/2-z
1/2-x,1/2-y,-z
1/2+x,1/2-y,1/2+z
loop_
_atom_site_type_symbol
_atom_site_label
_atom_site_fract_x
_atom_site_fract_y
_atom_site_fract_z
Si Si1 0.000000 0.990175 0.750000
Si Si2 0.184909 0.787491 0.645991
Si Si3 0.847440 0.919133 0.880541
Si Si4 0.249500 0.214436 0.370852
Si Si5 0.819811 0.657134 0.852124
Si Si6 0.734097 0.095111 0.040097
Si Si7 0.248677 0.966866 0.434351
Si Si8 0.254177 0.156101 0.641241
O O1 0.913594 0.026803 0.656726
O O2 0.831003 0.952716 0.780765
O O3 0.240791 0.853356 0.615943
O O4 0.246402 0.788700 0.759473
O O5 0.245284 0.721790 0.614766
O O6 0.964179 0.787229 0.621913
O O7 0.064808 0.909069 0.897664
O O8 0.809076 0.959472 0.965225
O O9 0.344253 0.157471 0.427748
O O10 0.328425 0.280373 0.400609
O O11 0.827885 0.597732 0.914383
O O12 0.715668 0.645091 0.744903
O O13 0.029483 0.666421 0.844867
O O14 0.647107 0.031351 0.058522
O O15 0.776263 0.104285 0.935623
#
# Coordination Sequence:
#
# PCOD9256980 Si02
#       8
#     4   8   8   8   8   8   8   8
#     4  10  20  36  54  74 114 130 168 224 250 314
#     4   8  14  30  51  69 105 127 171 205 246 307
#     4  10  20  33  52  82  97 138 169 206 263 299
#     4   8  14  28  51  79  92 130 167 218 256 278
#     4   9  20  34  49  74  98 142 168 208 257 299
#     4  10  18  30  50  77 103 124 170 218 252 301
#     4  11  23  32  50  78 107 138 169 199 267 310
#     4   9  18  33  54  71 100 129 180 215 248 298
#
# _framework density 25.414292
#
# number of rings (size 3 to 8) (size 9 to 14) (size 15 to 20)
#    0.000    2.667    0.000    6.000    3.733    1.067 
#    0.000    0.000    0.000    0.000    0.000    0.000 
#    0.000    0.000    0.000    0.000    0.000    0.000 
#
# Total GULP energy -167280.681196 kJ/mol
# GULP energy per Si atom -5576.022707 kJ/mol
# Density = 2.535645 g / cm^3
# Si number density = 25.414292 Si / 1000 Ang^3
#
#
#
# Elastic Constant Matrix: (Units=GPa)
#
#
# Indices 1 2 3 4 5 6 
#
# 1 42.5073 22.2208 8.0432 0.0000 -9.7540 0.0000
# 2 22.2208 210.3486 66.8682 0.0000 -9.7624 0.0000
# 3 8.0432 66.8682 118.4765 0.0000 -2.1099 0.0000
# 4 0.0000 0.0000 0.0000 46.8068 0.0000 0.8476
# 5 -9.7540 -9.7624 -2.1099 0.0000 16.4299 0.0000
# 6 0.0000 0.0000 0.0000 0.8476 0.0000 8.5138
#
#
#
# Elastic Compliance Matrix: (Units=1/GPa)
#
#
# Indices 1 2 3 4 5 6 
#
# 1 0.028270 -0.002128 -0.000443 0.000000 0.015462 0.000000
# 2 -0.002128 0.006108 -0.003268 0.000000 0.001946 0.000000
# 3 -0.000443 -0.003268 0.010299 0.000000 -0.000882 0.000000
# 4 0.000000 0.000000 0.000000 0.021403 0.000000 -0.002131
# 5 0.015462 0.001946 -0.000882 0.000000 0.071087 0.000000
# 6 0.000000 0.000000 0.000000 -0.002131 0.000000 0.117669
#
#
# Mechanical properties :
#
#
# Convention : Reuss Voigt Hill
#
# Bulk Modulus (GPa) = 30.30398 62.84409 46.57403
# Shear Modulus (GPa) = 18.01710 32.63010 25.32360
#
# Velocity S-wave (km/s) = 2.66547 3.58708 3.16005
# Velocity P-wave (km/s) = 4.62848 6.47593 5.62853
#
# Compressibility (1/GPa) = 0.03299897
#
# Stress axis : x y z
#
# Youngs Moduli (GPa) = 35.37379 163.71695 97.09243
#
# Poissons Ratio (x) = 0.34839 0.04299
# Poissons Ratio (y) = 0.07528 0.31733
# Poissons Ratio (z) = 0.01566 0.53507
#
# Static dielectric constant tensor:
#      x y z
#    x 2.048080 0.000000 0.001480 
#    y 0.000000 2.163420 0.000000 
#    z 0.001480 0.000000 2.073760 
# 
# From -- ./inp_files/146772.got.cif
#   From: 2010.05.17/outbox.cif.g08.bks.cpg/sg15_74_cif.got.tgz:146772.got - 2010.06.03 18:47:42.
