data_PCOD9256276
_publ_section_title
;
Structure prediction by ZEFSAII (Michael W. Deem and Ramdas Pophale) SiO2 
 PCOD9256276
Probable space group: C 2/C
;
_chemical_formula_sum "Si O2"
_cell_formula_units_Z 56
_cell_length_a 19.914605
_cell_length_b 13.051677
_cell_length_c 8.312445
_cell_angle_alpha 90.000000
_cell_angle_beta 92.131907
_cell_angle_gamma 90.000000
_cell_volume 2159.066855
_symmetry_space_group_name_H-M "C 2/C"
_symmetry_group_IT_number 15
_symmetry_cell_setting 'monoclinic'
loop_
_space_group_symop_operation_xyz
x,y,z
-x,y,1/2-z
-x,-y,-z
x,-y,1/2+z
1/2+x,1/2+y,z
1/2-x,1/2+y,1/2-z
1/2-x,1/2-y,-z
1/2+x,1/2-y,1/2+z
loop_
_atom_site_type_symbol
_atom_site_label
_atom_site_fract_x
_atom_site_fract_y
_atom_site_fract_z
Si Si1 0.572839 0.150604 0.306609
Si Si2 0.229813 0.870633 0.481465
Si Si3 0.287546 0.144830 0.668526
Si Si4 0.075145 0.305907 0.186617
Si Si5 0.719425 0.128349 0.183801
Si Si6 0.088769 0.884171 0.293757
Si Si7 0.058152 0.922453 0.622924
O O1 0.500000 0.105591 0.250000
O O2 0.578261 0.151458 0.502714
O O3 0.642173 0.111442 0.234636
O O4 0.573422 0.268882 0.243204
O O5 0.250000 0.750000 0.500000
O O6 0.275833 0.908221 0.338946
O O7 0.237675 0.910310 0.661919
O O8 0.156985 0.883812 0.401098
O O9 0.368191 0.158839 0.682853
O O10 0.269152 0.095133 0.497792
O O11 0.242503 0.249798 0.672959
O O12 0.092747 0.185702 0.166711
O O13 0.000000 0.318774 0.250000
O O14 0.037146 0.912288 0.434397
O O15 0.095399 0.971278 0.161661
O O16 0.000000 0.919784 0.750000
#
# Coordination Sequence:
#
# PCOD9256276 Si02
#       7
#     8   8   8   8   8   8   8
#     4  11  19  30  48  70 103 138 177 217 258 304
#     4  10  17  36  51  70  98 125 176 219 269 308
#     4  10  18  31  53  74  95 131 176 211 267 313
#     4  10  20  34  49  73 107 141 179 221 251 308
#     4  10  18  30  49  74  93 127 174 207 266 316
#     4  11  21  35  49  68 100 141 182 228 255 300
#     4  10  21  34  47  67 101 142 184 221 251 295
#
# _framework density 25.93713
#
# number of rings (size 3 to 8) (size 9 to 14) (size 15 to 20)
#    0.000    1.714    4.286    4.286    0.000    3.429 
#    2.571    0.000    0.000    0.000    0.000    0.000 
#    0.000    0.000    0.000   11.571    0.857    0.286 
#
# Total GULP energy -156384.485569 kJ/mol
# GULP energy per Si atom -5585.160199 kJ/mol
# Density = 2.587810 g / cm^3
# Si number density = 25.937130 Si / 1000 Ang^3
#
#
#
# Elastic Constant Matrix: (Units=GPa)
#
#
# Indices 1 2 3 4 5 6 
#
# 1 151.4809 -11.5579 14.9616 0.0000 8.8045 0.0000
# 2 -11.5579 43.8594 33.3221 0.0000 -0.7953 0.0000
# 3 14.9616 33.3221 141.1632 0.0000 -5.9722 0.0000
# 4 0.0000 0.0000 0.0000 44.2686 0.0000 -7.1373
# 5 8.8045 -0.7953 -5.9722 0.0000 51.2763 0.0000
# 6 0.0000 0.0000 0.0000 -7.1373 0.0000 13.1710
#
#
#
# Elastic Compliance Matrix: (Units=1/GPa)
#
#
# Indices 1 2 3 4 5 6 
#
# 1 0.007056 0.002981 -0.001508 0.000000 -0.001341 0.000000
# 2 0.002981 0.029048 -0.007211 0.000000 -0.000901 0.000000
# 3 -0.001508 -0.007211 0.008997 0.000000 0.001195 0.000000
# 4 0.000000 0.000000 0.000000 0.024752 0.000000 0.013413
# 5 -0.001341 -0.000901 0.001195 0.000000 0.019858 0.000000
# 6 0.000000 0.000000 0.000000 0.013413 0.000000 0.083193
#
#
# Mechanical properties :
#
#
# Convention : Reuss Voigt Hill
#
# Bulk Modulus (GPa) = 29.74086 45.55057 37.64571
# Shear Modulus (GPa) = 25.56408 41.72835 33.64621
#
# Velocity S-wave (km/s) = 3.14286 4.01537 3.60560
# Velocity P-wave (km/s) = 4.96603 6.25281 5.64620
#
# Compressibility (1/GPa) = 0.03362378
#
# Stress axis : x y z
#
# Youngs Moduli (GPa) = 141.72655 34.42599 111.15342
#
# Poissons Ratio (x) = -0.10262 0.16764
# Poissons Ratio (y) = -0.42247 0.80152
# Poissons Ratio (z) = 0.21375 0.24824
#
# Static dielectric constant tensor:
#      x y z
#    x 2.171360 0.000000 -0.058270 
#    y 0.000000 2.307380 0.000000 
#    z -0.058270 0.000000 2.053510 
# 
# From -- ./inp_files/56180.got.cif
#   From: 2010.05.17/outbox.cif.g08.bks.cpg/sg15_29_cif.got.tgz:56180.got - 2010.06.03 18:47:42.
