data_PCOD9256343
_publ_section_title
;
Structure prediction by ZEFSAII (Michael W. Deem and Ramdas Pophale) SiO2 
 PCOD9256343
Probable space group: C 2/C
;
_chemical_formula_sum "Si O2"
_cell_formula_units_Z 48
_cell_length_a 11.126836
_cell_length_b 13.802966
_cell_length_c 12.970473
_cell_angle_alpha 90.000000
_cell_angle_beta 101.646491
_cell_angle_gamma 90.000000
_cell_volume 1951.035795
_symmetry_space_group_name_H-M "C 2/C"
_symmetry_group_IT_number 15
_symmetry_cell_setting 'monoclinic'
loop_
_space_group_symop_operation_xyz
x,y,z
-x,y,1/2-z
-x,-y,-z
x,-y,1/2+z
1/2+x,1/2+y,z
1/2-x,1/2+y,1/2-z
1/2-x,1/2-y,-z
1/2+x,1/2-y,1/2+z
loop_
_atom_site_type_symbol
_atom_site_label
_atom_site_fract_x
_atom_site_fract_y
_atom_site_fract_z
Si Si1 0.960135 0.066967 0.348316
Si Si2 0.272197 0.402190 0.535625
Si Si3 0.083334 0.296262 0.171969
Si Si4 0.571178 0.241803 0.436935
Si Si5 0.249233 0.909966 0.550152
Si Si6 0.202796 0.772536 0.157208
O O1 0.935042 0.180406 0.324833
O O2 0.833674 0.036598 0.378259
O O3 0.000000 0.016316 0.250000
O O4 0.083561 0.069463 0.436162
O O5 0.203979 0.504106 0.514260
O O6 0.240675 0.336781 0.628998
O O7 0.251487 0.336193 0.432110
O O8 0.223864 0.310027 0.230992
O O9 0.000000 0.339085 0.250000
O O10 0.051575 0.310615 0.046458
O O11 0.645637 0.159851 0.388522
O O12 0.656945 0.334783 0.476333
O O13 0.443631 0.273997 0.366954
#
# Coordination Sequence:
#
# PCOD9256343 Si02
#       6
#     8   8   8   8   8   8
#     4  10  18  37  63  84 118 157 201 254 297 354
#     4  11  20  36  63  91 115 158 210 246 301 364
#     4  10  17  36  61  91 118 161 209 251 291 364
#     4  10  22  41  60  87 132 162 196 254 316 357
#     4  10  22  40  60  87 129 163 190 262 317 348
#     4  11  20  35  65  90 117 167 204 246 302 370
#
# _framework density 24.602316999999999
#
# number of rings (size 3 to 8) (size 9 to 14) (size 15 to 20)
#    0.000    1.667    6.667    1.500    0.000    0.667 
#    3.000    7.500    0.000    4.000    0.000    0.000 
#    0.000    0.000    0.000    0.000    0.000    0.000 
#
# Total GULP energy -133974.315990 kJ/mol
# GULP energy per Si atom -5582.263166 kJ/mol
# Density = 2.454632 g / cm^3
# Si number density = 24.602317 Si / 1000 Ang^3
#
#
#
# Elastic Constant Matrix: (Units=GPa)
#
#
# Indices 1 2 3 4 5 6 
#
# 1 78.3968 8.7655 26.0699 0.0000 13.0105 0.0000
# 2 8.7655 76.2167 -12.1297 0.0000 -4.9891 0.0000
# 3 26.0699 -12.1297 79.2203 0.0000 -1.3634 0.0000
# 4 0.0000 0.0000 0.0000 16.2726 0.0000 0.8204
# 5 13.0105 -4.9891 -1.3634 0.0000 42.5082 0.0000
# 6 0.0000 0.0000 0.0000 0.8204 0.0000 12.7690
#
#
#
# Elastic Compliance Matrix: (Units=1/GPa)
#
#
# Indices 1 2 3 4 5 6 
#
# 1 0.015939 -0.003114 -0.005815 0.000000 -0.005430 0.000000
# 2 -0.003114 0.014173 0.003242 0.000000 0.002720 0.000000
# 3 -0.005815 0.003242 0.015079 0.000000 0.002644 0.000000
# 4 0.000000 0.000000 0.000000 0.061653 0.000000 -0.003961
# 5 -0.005430 0.002720 0.002644 0.000000 0.025591 0.000000
# 6 0.000000 0.000000 0.000000 -0.003961 0.000000 0.078569
#
#
# Mechanical properties :
#
#
# Convention : Reuss Voigt Hill
#
# Bulk Modulus (GPa) = 29.57330 31.02725 30.30028
# Shear Modulus (GPa) = 21.39950 28.38517 24.89234
#
# Velocity S-wave (km/s) = 2.95246 3.40039 3.18431
# Velocity P-wave (km/s) = 4.86512 5.29677 5.08552
#
# Compressibility (1/GPa) = 0.03381428
#
# Stress axis : x y z
#
# Youngs Moduli (GPa) = 62.73968 70.55869 66.31907
#
# Poissons Ratio (x) = 0.21973 0.38567
# Poissons Ratio (y) = 0.19538 -0.21498
# Poissons Ratio (z) = 0.36486 -0.22872
#
# Static dielectric constant tensor:
#      x y z
#    x 2.077810 0.000000 -0.100860 
#    y 0.000000 1.926570 0.000000 
#    z -0.100860 0.000000 2.069200 
# 
# From -- ./inp_files/143801.got.cif
#   From: 2010.05.17/outbox.cif.g08.bks.cpg/sg15_72_cif.got.tgz:143801.got - 2010.06.03 18:47:42.
