data_PCOD9256045
_publ_section_title
;
Structure prediction by ZEFSAII (Michael W. Deem and Ramdas Pophale) SiO2 
 PCOD9256045
Probable space group: C 2/C
;
_chemical_formula_sum "Si O2"
_cell_formula_units_Z 52
_cell_length_a 15.890886
_cell_length_b 7.771524
_cell_length_c 20.161310
_cell_angle_alpha 90.000000
_cell_angle_beta 70.639089
_cell_angle_gamma 90.000000
_cell_volume 2349.045901
_symmetry_space_group_name_H-M "C 2/C"
_symmetry_group_IT_number 15
_symmetry_cell_setting 'monoclinic'
loop_
_space_group_symop_operation_xyz
x,y,z
-x,y,1/2-z
-x,-y,-z
x,-y,1/2+z
1/2+x,1/2+y,z
1/2-x,1/2+y,1/2-z
1/2-x,1/2-y,-z
1/2+x,1/2-y,1/2+z
loop_
_atom_site_type_symbol
_atom_site_label
_atom_site_fract_x
_atom_site_fract_y
_atom_site_fract_z
Si Si1 0.924588 0.812816 0.971391
Si Si2 0.751922 0.750870 0.387440
Si Si3 0.337679 0.038422 0.469161
Si Si4 0.406737 0.141672 0.646730
Si Si5 0.500000 0.247124 0.750000
Si Si6 0.967915 0.720017 0.102341
Si Si7 0.422729 0.544007 0.854334
O O1 0.854068 0.661242 0.976972
O O2 0.017271 0.736985 0.917027
O O3 0.900232 0.979872 0.935248
O O4 0.938789 0.828922 0.045937
O O5 0.705862 0.867810 0.456681
O O6 0.779897 0.577727 0.418579
O O7 0.683399 0.755757 0.345066
O O8 0.844355 0.842670 0.345858
O O9 0.435441 0.127531 0.434789
O O10 0.441648 0.144129 0.712734
O O11 0.402343 0.941100 0.628074
O O12 0.438198 0.373752 0.808769
O O13 0.987405 0.844609 0.159034
#
# Coordination Sequence:
#
# PCOD9256045 Si02
#       7
#     8   8   8   8   4   8   8
#     4  10  17  34  55  87 115 145 170 225 281 363
#     4  10  18  34  55  87 110 148 172 242 273 338
#     4   9  17  30  56  84 123 135 177 213 297 339
#     4  10  19  37  62  76 107 146 201 219 277 327
#     4  10  24  44  52  72 102 160 190 238 254 336
#     4  10  17  34  58  87 105 149 178 230 279 359
#     4  10  23  35  54  79 120 139 187 227 293 323
#
# _framework density 22.136648000000001
#
# number of rings (size 3 to 8) (size 9 to 14) (size 15 to 20)
#    0.000    2.154    3.077    1.385    0.000    1.231 
#    0.000    7.692    0.000    0.000    0.000    0.000 
#    0.000    0.000    0.000    0.000    0.000    0.000 
#
# Total GULP energy -145225.016815 kJ/mol
# GULP energy per Si atom -5585.577570 kJ/mol
# Density = 2.208626 g / cm^3
# Si number density = 22.136648 Si / 1000 Ang^3
#
#
#
# Elastic Constant Matrix: (Units=GPa)
#
#
# Indices 1 2 3 4 5 6 
#
# 1 84.3898 9.8536 23.6999 0.0000 35.5744 0.0000
# 2 9.8536 36.7203 -3.9877 0.0000 4.6332 0.0000
# 3 23.6999 -3.9877 59.0834 0.0000 29.3176 0.0000
# 4 0.0000 0.0000 0.0000 17.8822 0.0000 8.4387
# 5 35.5744 4.6332 29.3176 0.0000 31.4163 0.0000
# 6 0.0000 0.0000 0.0000 8.4387 0.0000 27.4933
#
#
#
# Elastic Compliance Matrix: (Units=1/GPa)
#
#
# Indices 1 2 3 4 5 6 
#
# 1 0.024313 -0.001521 0.006881 0.000000 -0.033727 0.000000
# 2 -0.001521 0.029629 0.007307 0.000000 -0.009466 0.000000
# 3 0.006881 0.007307 0.035496 0.000000 -0.041994 0.000000
# 4 0.000000 0.000000 0.000000 0.065393 0.000000 -0.020072
# 5 -0.033727 -0.009466 -0.041994 0.000000 0.110606 0.000000
# 6 0.000000 0.000000 0.000000 -0.020072 0.000000 0.042533
#
#
# Mechanical properties :
#
#
# Convention : Reuss Voigt Hill
#
# Bulk Modulus (GPa) = 8.71307 26.59167 17.65237
# Shear Modulus (GPa) = 15.58143 25.40020 20.49081
#
# Velocity S-wave (km/s) = 2.65594 3.39104 3.04575
# Velocity P-wave (km/s) = 3.65376 5.23171 4.51225
#
# Compressibility (1/GPa) = 0.11477008
#
# Stress axis : x y z
#
# Youngs Moduli (GPa) = 41.13063 33.75070 28.17225
#
# Poissons Ratio (x) = 0.05135 -0.19384
# Poissons Ratio (y) = 0.06257 -0.20585
# Poissons Ratio (z) = -0.28300 -0.24661
#
# Static dielectric constant tensor:
#      x y z
#    x 1.844250 0.000000 0.013180 
#    y 0.000000 1.801770 0.000000 
#    z 0.013180 0.000000 1.853900 
# 
# From -- ./inp_files/242456.got.cif
#   From: 2010.05.17/outbox.cif.g08.bks.cpg/sg15_122_cif.got.tgz:242456.got - 2010.06.03 18:47:42.
