data_PCOD9256059
_publ_section_title
;
Structure prediction by ZEFSAII (Michael W. Deem and Ramdas Pophale) SiO2 
 PCOD9256059
Probable space group: C 2/C
;
_chemical_formula_sum "Si O2"
_cell_formula_units_Z 64
_cell_length_a 27.164843
_cell_length_b 7.201391
_cell_length_c 14.916181
_cell_angle_alpha 90.000000
_cell_angle_beta 74.985209
_cell_angle_gamma 90.000000
_cell_volume 2818.350207
_symmetry_space_group_name_H-M "C 2/C"
_symmetry_group_IT_number 15
_symmetry_cell_setting 'monoclinic'
loop_
_space_group_symop_operation_xyz
x,y,z
-x,y,1/2-z
-x,-y,-z
x,-y,1/2+z
1/2+x,1/2+y,z
1/2-x,1/2+y,1/2-z
1/2-x,1/2-y,-z
1/2+x,1/2-y,1/2+z
loop_
_atom_site_type_symbol
_atom_site_label
_atom_site_fract_x
_atom_site_fract_y
_atom_site_fract_z
Si Si1 0.022442 0.182937 0.541026
Si Si2 0.240298 0.416314 0.894522
Si Si3 0.349332 0.689607 0.295762
Si Si4 0.764936 0.969644 0.573116
Si Si5 0.447653 0.519682 0.294100
Si Si6 0.126124 0.118692 0.423531
Si Si7 0.417478 0.725113 0.636347
Si Si8 0.682337 0.068035 0.245580
O O1 0.041936 0.115526 0.628778
O O2 0.076028 0.240708 0.470436
O O3 0.971577 0.309224 0.576624
O O4 0.000000 0.000000 0.500000
O O5 0.300115 0.427805 0.843634
O O6 0.228636 0.191943 0.905187
O O7 0.207053 0.490297 0.828593
O O8 0.236314 0.517227 0.991541
O O9 0.398011 0.640836 0.331103
O O10 0.359766 0.660308 0.185778
O O11 0.335668 0.902790 0.309600
O O12 0.730795 0.863389 0.663949
O O13 0.821834 0.883861 0.544806
O O14 0.500000 0.628705 0.250000
O O15 0.435901 0.403390 0.210313
O O16 0.105210 0.906946 0.430304
O O17 0.369100 0.829288 0.700919
#
# Coordination Sequence:
#
# PCOD9256059 Si02
#       8
#     8   8   8   8   8   8   8   8
#     4   9  18  33  59  86 105 144 201 250 291 352
#     4  10  20  36  56  85 122 162 205 239 297 365
#     4  10  21  34  58  84 117 155 194 248 303 351
#     4  10  20  34  60  84 115 167 204 242 297 361
#     4   9  18  36  58  79 106 146 199 241 291 360
#     4  10  17  34  56  82 111 150 201 243 290 354
#     4   9  19  35  59  79 111 153 194 247 302 347
#     4  11  21  38  56  86 126 157 197 250 306 358
#
# _framework density 22.708318999999999
#
# number of rings (size 3 to 8) (size 9 to 14) (size 15 to 20)
#    0.000    2.250    2.500    1.500    0.000    0.000 
#    2.250    3.125    0.000    0.000    0.000    0.000 
#    0.000    0.000    0.000    0.000    0.000    0.000 
#
# Total GULP energy -178297.163197 kJ/mol
# GULP energy per Si atom -5571.786350 kJ/mol
# Density = 2.265663 g / cm^3
# Si number density = 22.708319 Si / 1000 Ang^3
#
#
#
# Elastic Constant Matrix: (Units=GPa)
#
#
# Indices 1 2 3 4 5 6 
#
# 1 192.3242 40.2912 51.4800 0.0000 -24.9528 0.0000
# 2 40.2912 30.3319 6.8021 0.0000 -10.7180 0.0000
# 3 51.4800 6.8021 94.9176 0.0000 -11.0637 0.0000
# 4 0.0000 0.0000 0.0000 16.7919 0.0000 -6.2630
# 5 -24.9528 -10.7180 -11.0637 0.0000 41.3476 0.0000
# 6 0.0000 0.0000 0.0000 -6.2630 0.0000 28.8540
#
#
#
# Elastic Compliance Matrix: (Units=1/GPa)
#
#
# Indices 1 2 3 4 5 6 
#
# 1 0.008456 -0.009852 -0.003698 0.000000 0.001560 0.000000
# 2 -0.009852 0.047994 0.002747 0.000000 0.007230 0.000000
# 3 -0.003698 0.002747 0.012559 0.000000 0.001841 0.000000
# 4 0.000000 0.000000 0.000000 0.064798 0.000000 0.014065
# 5 0.001560 0.007230 0.001841 0.000000 0.027493 0.000000
# 6 0.000000 0.000000 0.000000 0.014065 0.000000 0.037710
#
#
# Mechanical properties :
#
#
# Convention : Reuss Voigt Hill
#
# Bulk Modulus (GPa) = 21.09623 57.19114 39.14369
# Shear Modulus (GPa) = 21.14902 31.99874 26.57388
#
# Velocity S-wave (km/s) = 3.05509 3.75790 3.42457
# Velocity P-wave (km/s) = 4.66422 6.63844 5.73689
#
# Compressibility (1/GPa) = 0.04740183
#
# Stress axis : x y z
#
# Youngs Moduli (GPa) = 118.26319 20.83601 79.62423
#
# Poissons Ratio (x) = 0.20527 0.29447
# Poissons Ratio (y) = 1.16508 -0.21869
# Poissons Ratio (z) = 0.43737 -0.05723
#
# Static dielectric constant tensor:
#      x y z
#    x 1.915410 0.000000 -0.124820 
#    y 0.000000 1.957390 0.000000 
#    z -0.124820 0.000000 1.927240 
# 
# From -- ./inp_files/176548.got.cif
#   From: 2010.05.17/outbox.cif.g08.bks.cpg/sg15_89_cif.got.tgz:176548.got - 2010.06.03 18:47:42.
