data_PCOD9256042
_publ_section_title
;
Structure prediction by ZEFSAII (Michael W. Deem and Ramdas Pophale) SiO2 
 PCOD9256042
Probable space group: C 2/C
;
_chemical_formula_sum "Si O2"
_cell_formula_units_Z 52
_cell_length_a 21.513285
_cell_length_b 15.103503
_cell_length_c 9.363315
_cell_angle_alpha 90.000000
_cell_angle_beta 57.681994
_cell_angle_gamma 90.000000
_cell_volume 2571.100183
_symmetry_space_group_name_H-M "C 2/C"
_symmetry_group_IT_number 15
_symmetry_cell_setting 'monoclinic'
loop_
_space_group_symop_operation_xyz
x,y,z
-x,y,1/2-z
-x,-y,-z
x,-y,1/2+z
1/2+x,1/2+y,z
1/2-x,1/2+y,1/2-z
1/2-x,1/2-y,-z
1/2+x,1/2-y,1/2+z
loop_
_atom_site_type_symbol
_atom_site_label
_atom_site_fract_x
_atom_site_fract_y
_atom_site_fract_z
Si Si1 0.328759 0.895731 0.624569
Si Si2 0.343491 0.932267 0.269592
Si Si3 0.000201 0.362852 0.080746
Si Si4 0.758990 0.786271 0.148911
Si Si5 0.897522 0.888669 0.894508
Si Si6 0.024402 0.824346 0.952795
Si Si7 0.000000 0.949089 0.250000
O O1 0.324578 0.921640 0.461221
O O2 0.415429 0.884404 0.550654
O O3 0.286762 0.801668 0.698153
O O4 0.307784 0.979884 0.746560
O O5 0.432682 0.930871 0.147957
O O6 0.312839 0.844006 0.228133
O O7 0.000000 0.336831 0.250000
O O8 0.980437 0.278340 0.009668
O O9 0.750000 0.750000 0.000000
O O10 0.821664 0.862211 0.059431
O O11 0.957461 0.847389 0.928242
O O12 0.903761 0.843109 0.731420
O O13 0.928281 0.987180 0.828732
O O14 0.014159 0.888575 0.096786
#
# Coordination Sequence:
#
# PCOD9256042 Si02
#       7
#     8   8   8   8   8   8   4
#     4  10  20  40  61  84 113 147 195 242 284 335
#     4  10  22  38  59  88 112 150 197 236 284 341
#     4  10  17  36  63  81 108 155 197 231 277 348
#     4  10  20  38  60  83 111 156 199 226 279 356
#     4  10  17  35  57  75 109 156 195 224 275 346
#     4  10  17  34  55  83 113 145 190 231 284 333
#     4  10  22  32  50  94 120 138 188 246 286 334
#
# _framework density 20.224805
#
# number of rings (size 3 to 8) (size 9 to 14) (size 15 to 20)
#    0.000    2.154    3.077    4.154    0.000    0.000 
#   16.615    0.769    0.000    0.000    0.000    0.000 
#    0.000    0.000    0.000    0.000    0.000    0.000 
#
# Total GULP energy -144756.062786 kJ/mol
# GULP energy per Si atom -5567.540876 kJ/mol
# Density = 2.017877 g / cm^3
# Si number density = 20.224805 Si / 1000 Ang^3
#
#
#
# Elastic Constant Matrix: (Units=GPa)
#
#
# Indices 1 2 3 4 5 6 
#
# 1 64.5667 37.6447 18.6852 0.0000 -8.3985 0.0000
# 2 37.6447 134.7561 30.9723 0.0000 8.7179 0.0000
# 3 18.6852 30.9723 29.1748 0.0000 1.4242 0.0000
# 4 0.0000 0.0000 0.0000 18.5647 0.0000 13.5579
# 5 -8.3985 8.7179 1.4242 0.0000 14.2401 0.0000
# 6 0.0000 0.0000 0.0000 13.5579 0.0000 19.7542
#
#
#
# Elastic Compliance Matrix: (Units=1/GPa)
#
#
# Indices 1 2 3 4 5 6 
#
# 1 0.024208 -0.005557 -0.010520 0.000000 0.018732 0.000000
# 2 -0.005557 0.011458 -0.008142 0.000000 -0.009477 0.000000
# 3 -0.010520 -0.008142 0.049961 0.000000 -0.006217 0.000000
# 4 0.000000 0.000000 0.000000 0.107997 0.000000 -0.074122
# 5 0.018732 -0.009477 -0.006217 0.000000 0.087695 0.000000
# 6 0.000000 0.000000 0.000000 -0.074122 0.000000 0.101494
#
#
# Mechanical properties :
#
#
# Convention : Reuss Voigt Hill
#
# Bulk Modulus (GPa) = 26.88914 44.78909 35.83911
# Shear Modulus (GPa) = 11.27023 19.92486 15.59754
#
# Velocity S-wave (km/s) = 2.36317 3.14215 2.78008
# Velocity P-wave (km/s) = 4.55742 5.94624 5.29754
#
# Compressibility (1/GPa) = 0.03718974
#
# Stress axis : x y z
#
# Youngs Moduli (GPa) = 41.30783 87.27860 20.01567
#
# Poissons Ratio (x) = 0.48498 0.21056
# Poissons Ratio (y) = 0.22953 0.16297
# Poissons Ratio (z) = 0.43455 0.71062
#
# Static dielectric constant tensor:
#      x y z
#    x 1.899140 0.000000 -0.219240 
#    y 0.000000 1.778480 0.000000 
#    z -0.219240 0.000000 1.961570 
# 
# From -- ./inp_files/61452.got.cif
#   From: 2010.05.17/outbox.cif.g08.bks.cpg/sg15_31_cif.got.tgz:61452.got - 2010.06.03 18:47:42.
