data_PCOD9256605
_publ_section_title
;
Structure prediction by ZEFSAII (Michael W. Deem and Ramdas Pophale) SiO2 
 PCOD9256605
Probable space group: C 2/C
;
_chemical_formula_sum "Si O2"
_cell_formula_units_Z 56
_cell_length_a 22.159007
_cell_length_b 17.205430
_cell_length_c 18.261511
_cell_angle_alpha 90.000000
_cell_angle_beta 25.891617
_cell_angle_gamma 90.000000
_cell_volume 3040.227330
_symmetry_space_group_name_H-M "C 2/C"
_symmetry_group_IT_number 15
_symmetry_cell_setting 'monoclinic'
loop_
_space_group_symop_operation_xyz
x,y,z
-x,y,1/2-z
-x,-y,-z
x,-y,1/2+z
1/2+x,1/2+y,z
1/2-x,1/2+y,1/2-z
1/2-x,1/2-y,-z
1/2+x,1/2-y,1/2+z
loop_
_atom_site_type_symbol
_atom_site_label
_atom_site_fract_x
_atom_site_fract_y
_atom_site_fract_z
Si Si1 0.700858 0.775629 0.259270
Si Si2 0.453551 0.991383 0.384178
Si Si3 0.948440 0.660890 0.964608
Si Si4 0.269240 0.611883 0.813721
Si Si5 0.126897 0.405120 0.795492
Si Si6 0.427482 0.646860 0.990002
Si Si7 0.543918 0.208556 0.122402
O O1 0.599866 0.802782 0.305797
O O2 0.736314 0.851547 0.269821
O O3 0.617017 0.712105 0.400767
O O4 0.837121 0.729824 0.087130
O O5 0.500000 0.008781 0.250000
O O6 0.319183 0.038451 0.561362
O O7 0.571295 0.020429 0.312763
O O8 0.430672 0.900212 0.419462
O O9 0.924428 0.611133 0.066086
O O10 0.432860 0.603155 0.641261
O O11 0.200901 0.680356 0.937590
O O12 0.291756 0.402076 0.620775
O O13 0.057328 0.334870 0.824476
O O14 0.463388 0.700295 0.881586
O O15 0.500000 0.184981 0.250000
#
# Coordination Sequence:
#
# PCOD9256605 Si02
#       7
#     8   8   8   8   8   8   8
#     4  10  18  34  60  89 114 140 192 244 284 324
#     4  11  24  40  56  81 118 161 190 219 280 354
#     4  11  20  38  63  85 112 147 192 239 284 332
#     4  10  18  33  54  80 117 143 186 238 277 332
#     4  10  19  33  55  79 111 144 189 227 282 337
#     4  10  18  30  49  84 112 143 184 234 283 324
#     4  10  18  28  45  74 114 154 185 221 275 338
#
# _framework density 18.419675000000002
#
# number of rings (size 3 to 8) (size 9 to 14) (size 15 to 20)
#    0.000    1.714    5.714    3.857    0.000    3.429 
#    0.000    5.000    0.000    0.000    0.000    0.000 
#    0.000    0.000    0.000    0.000    0.000    0.000 
#
# Total GULP energy -155991.147181 kJ/mol
# GULP energy per Si atom -5571.112399 kJ/mol
# Density = 1.837775 g / cm^3
# Si number density = 18.419675 Si / 1000 Ang^3
#
#
#
# Elastic Constant Matrix: (Units=GPa)
#
#
# Indices 1 2 3 4 5 6 
#
# 1 39.2042 24.4191 39.6127 0.0005 -18.6400 -0.0003
# 2 24.4191 52.8021 24.7821 0.0016 -3.8658 -0.0009
# 3 39.6127 24.7821 78.4779 0.0020 -40.3686 -0.0013
# 4 0.0005 0.0016 0.0020 13.2686 -0.0011 0.0109
# 5 -18.6400 -3.8658 -40.3686 -0.0011 32.6376 0.0006
# 6 -0.0003 -0.0009 -0.0013 0.0109 0.0006 14.1307
#
#
#
# Elastic Compliance Matrix: (Units=1/GPa)
#
#
# Indices 1 2 3 4 5 6 
#
# 1 0.062430 -0.017282 -0.024102 0.000004 0.003798 -0.000002
# 2 -0.017282 0.030872 -0.011606 -0.000003 -0.020569 0.000002
# 3 -0.024102 -0.011606 0.057140 -0.000001 0.055536 0.000001
# 4 0.000004 -0.000003 -0.000001 0.075366 0.000002 -0.000058
# 5 0.003798 -0.020569 0.055536 0.000002 0.099063 0.000000
# 6 -0.000002 0.000002 0.000001 -0.000058 0.000000 0.070768
#
#
# Mechanical properties :
#
#
# Convention : Reuss Voigt Hill
#
# Bulk Modulus (GPa) = 22.49035 38.67909 30.58472
# Shear Modulus (GPa) = 9.68166 17.45207 13.56686
#
# Velocity S-wave (km/s) = 2.29512 3.08144 2.71688
# Velocity P-wave (km/s) = 4.38861 5.80558 5.14610
#
# Compressibility (1/GPa) = 0.04446352
#
# Stress axis : x y z
#
# Youngs Moduli (GPa) = 16.01787 32.39154 17.50076
#
# Poissons Ratio (x) = 0.55979 0.42180
# Poissons Ratio (y) = 0.27682 0.20312
# Poissons Ratio (z) = 0.38606 0.37594
#
# Static dielectric constant tensor:
#      x y z
#    x 1.651330 0.000000 -0.006230 
#    y 0.000000 1.668480 0.000000 
#    z -0.006230 0.000000 1.643160 
# 
# From -- ./inp_files/216028.got.cif
#   From: 2010.05.17/outbox.cif.g08.bks.cpg/sg15_109_cif.got.tgz:216028.got - 2010.06.03 18:47:42.
