data_PCOD9256862
_publ_section_title
;
Structure prediction by ZEFSAII (Michael W. Deem and Ramdas Pophale) SiO2 
 PCOD9256862
Probable space group: C 2/C
;
_chemical_formula_sum "Si O2"
_cell_formula_units_Z 64
_cell_length_a 20.634775
_cell_length_b 26.885895
_cell_length_c 18.774371
_cell_angle_alpha 90.000000
_cell_angle_beta 155.483446
_cell_angle_gamma 90.000000
_cell_volume 4322.070229
_symmetry_space_group_name_H-M "C 2/C"
_symmetry_group_IT_number 15
_symmetry_cell_setting 'monoclinic'
loop_
_space_group_symop_operation_xyz
x,y,z
-x,y,1/2-z
-x,-y,-z
x,-y,1/2+z
1/2+x,1/2+y,z
1/2-x,1/2+y,1/2-z
1/2-x,1/2-y,-z
1/2+x,1/2-y,1/2+z
loop_
_atom_site_type_symbol
_atom_site_label
_atom_site_fract_x
_atom_site_fract_y
_atom_site_fract_z
Si Si1 0.436958 0.008750 0.266848
Si Si2 0.436958 0.491250 0.107068
Si Si3 0.936852 0.896127 0.354606
Si Si4 0.062834 0.305396 0.734124
Si Si5 0.436859 0.952372 0.980826
Si Si6 0.562834 0.694604 0.891544
Si Si7 0.936859 0.952372 0.892891
Si Si8 0.063148 0.396127 0.980902
O O1 0.500000 0.006257 0.250000
O O2 0.501025 0.058910 0.368655
O O3 0.497449 0.962493 0.374915
O O4 0.250000 0.010303 0.081094
O O5 0.500000 0.493743 0.250000
O O6 0.501024 0.441090 0.133394
O O7 0.497449 0.537507 0.119983
O O8 0.999388 0.845191 0.384083
O O9 0.000351 0.906664 0.497646
O O10 0.750000 0.897492 0.167857
O O11 0.000000 0.319235 0.750000
O O12 0.000000 0.250000 0.656385
O O13 0.999388 0.345191 0.614693
O O14 0.250000 0.305257 0.922518
O O15 0.499649 0.906664 0.996944
O O16 0.250000 0.952756 0.794538
O O17 0.500000 0.000000 0.000000
O O18 0.500000 0.680765 0.750000
O O19 0.000000 0.000000 0.000000
#
# Coordination Sequence:
#
# PCOD9256862 Si02
#       8
#     8   8   8   8   8   8   8   8
#     4  11  20  31  45  65  90 119 151 186 222 264
#     4  11  20  31  45  65  90 119 151 186 222 264
#     4  11  20  32  47  65  88 119 152 185 222 265
#     4  11  21  34  48  66  89 117 150 188 226 264
#     4  10  18  30  45  64  87 115 147 183 221 263
#     4  11  21  34  48  66  89 117 150 188 226 264
#     4  10  18  30  45  64  87 115 147 183 221 263
#     4  11  20  32  47  65  88 119 152 185 222 265
#
# _framework density 14.807719000000001
#
# number of rings (size 3 to 8) (size 9 to 14) (size 15 to 20)
#    0.000    1.250    0.000   13.500    0.000    0.000 
#    0.000    0.000    0.000    0.000    0.000    0.000 
#    0.000    1.000    0.000   10.000    0.000    6.000 
#
# Total GULP energy -178670.291313 kJ/mol
# GULP energy per Si atom -5583.446604 kJ/mol
# Density = 1.477402 g / cm^3
# Si number density = 14.807719 Si / 1000 Ang^3
#
#
#
# Elastic Constant Matrix: (Units=GPa)
#
#
# Indices 1 2 3 4 5 6 
#
# 1 96.6151 33.6762 57.1388 0.0000 8.7814 0.0000
# 2 33.6762 56.7849 31.9521 0.0000 -1.1379 0.0000
# 3 57.1388 31.9521 154.2593 0.0000 29.2621 0.0000
# 4 0.0000 0.0000 0.0000 24.9769 0.0000 -2.7891
# 5 8.7814 -1.1379 29.2621 0.0000 39.9076 0.0000
# 6 0.0000 0.0000 0.0000 -2.7891 0.0000 29.2030
#
#
#
# Elastic Compliance Matrix: (Units=1/GPa)
#
#
# Indices 1 2 3 4 5 6 
#
# 1 0.015173 -0.006676 -0.004144 0.000000 -0.000490 0.000000
# 2 -0.006676 0.023489 -0.003250 0.000000 0.004522 0.000000
# 3 -0.004144 -0.003250 0.009915 0.000000 -0.006451 0.000000
# 4 0.000000 0.000000 0.000000 0.040469 0.000000 0.003865
# 5 -0.000490 0.004522 -0.006451 0.000000 0.030025 0.000000
# 6 0.000000 0.000000 0.000000 0.003865 0.000000 0.034612
#
#
# Mechanical properties :
#
#
# Convention : Reuss Voigt Hill
#
# Bulk Modulus (GPa) = 48.93542 61.46594 55.20068
# Shear Modulus (GPa) = 26.50620 31.14364 28.82492
#
# Velocity S-wave (km/s) = 4.23546 4.59104 4.41683
# Velocity P-wave (km/s) = 7.55234 8.34884 7.96056
#
# Compressibility (1/GPa) = 0.02043510
#
# Stress axis : x y z
#
# Youngs Moduli (GPa) = 65.90680 42.57290 100.86194
#
# Poissons Ratio (x) = 0.28422 0.41800
# Poissons Ratio (y) = 0.44001 0.32783
# Poissons Ratio (z) = 0.27314 0.13837
#
# Static dielectric constant tensor:
#      x y z
#    x 1.491850 0.000000 -0.001610 
#    y 0.000000 1.595240 0.000000 
#    z -0.001610 0.000000 1.489410 
# 
# From -- ./inp_files/217192.got.cif
#   From: 2010.05.17/outbox.cif.g08.bks.cpg/sg15_109_cif.got.tgz:217192.got - 2010.06.03 18:47:42.
