data_PCOD9256470
_publ_section_title
;
Structure prediction by ZEFSAII (Michael W. Deem and Ramdas Pophale) SiO2 
 PCOD9256470
Probable space group: C 2/C
;
_chemical_formula_sum "Si O2"
_cell_formula_units_Z 52
_cell_length_a 29.098065
_cell_length_b 13.773230
_cell_length_c 17.284562
_cell_angle_alpha 90.000000
_cell_angle_beta 161.837947
_cell_angle_gamma 90.000000
_cell_volume 2159.250403
_symmetry_space_group_name_H-M "C 2/C"
_symmetry_group_IT_number 15
_symmetry_cell_setting 'monoclinic'
loop_
_space_group_symop_operation_xyz
x,y,z
-x,y,1/2-z
-x,-y,-z
x,-y,1/2+z
1/2+x,1/2+y,z
1/2-x,1/2+y,1/2-z
1/2-x,1/2-y,-z
1/2+x,1/2-y,1/2+z
loop_
_atom_site_type_symbol
_atom_site_label
_atom_site_fract_x
_atom_site_fract_y
_atom_site_fract_z
Si Si1 0.766947 0.208643 0.198147
Si Si2 0.475677 0.231259 0.293550
Si Si3 0.024902 0.444729 0.118814
Si Si4 0.000000 0.441282 0.250000
Si Si5 0.521435 0.609242 0.505098
Si Si6 0.684714 0.342162 0.943270
Si Si7 0.671800 0.793646 0.779737
O O1 0.897004 0.167770 0.352405
O O2 0.860981 0.228549 0.424978
O O3 0.639938 0.129909 0.984985
O O4 0.702512 0.307875 0.059383
O O5 0.500000 0.179287 0.250000
O O6 0.412811 0.185756 0.273544
O O7 0.345947 0.311634 0.069971
O O8 0.001767 0.488096 0.167236
O O9 0.197648 0.422374 0.390987
O O10 0.000000 0.500000 0.000000
O O11 0.919452 0.349905 0.933364
O O12 0.500000 0.500000 0.500000
O O13 0.473278 0.624132 0.339255
O O14 0.661346 0.676585 0.747271
O O15 0.750000 0.250000 0.000000
#
# Coordination Sequence:
#
# PCOD9256470 Si02
#       7
#     8   8   8   4   8   8   8
#     4  10  20  39  66  94 131 171 235 275 333 413
#     4  10  20  36  62  96 134 177 221 274 343 415
#     4  12  24  41  68 100 137 176 232 285 343 412
#     4  12  22  42  72  98 128 188 230 284 352 400
#     4  10  19  36  67  95 125 173 226 276 342 414
#     4  10  17  40  65  92 126 170 224 275 326 405
#     4  10  21  41  62  96 136 180 225 280 351 403
#
# _framework density 24.082432000000001
#
# number of rings (size 3 to 8) (size 9 to 14) (size 15 to 20)
#    0.000    1.538    7.692    0.923    0.000    3.692 
#    1.385    0.000    3.385    0.000    8.000    0.000 
#    0.000    0.000    0.000    0.000    0.000    0.000 
#
# Total GULP energy -144742.847953 kJ/mol
# GULP energy per Si atom -5567.032614 kJ/mol
# Density = 2.402762 g / cm^3
# Si number density = 24.082432 Si / 1000 Ang^3
#
#
#
# Elastic Constant Matrix: (Units=GPa)
#
#
# Indices 1 2 3 4 5 6 
#
# 1 147.7270 31.8793 37.0092 0.0000 -34.2648 0.0000
# 2 31.8793 63.6880 16.7383 0.0000 -20.7622 0.0000
# 3 37.0092 16.7383 123.2767 0.0000 -25.5452 0.0000
# 4 0.0000 0.0000 0.0000 13.4621 0.0000 -12.4986
# 5 -34.2648 -20.7622 -25.5452 0.0000 48.2462 0.0000
# 6 0.0000 0.0000 0.0000 -12.4986 0.0000 28.8672
#
#
#
# Elastic Compliance Matrix: (Units=1/GPa)
#
#
# Indices 1 2 3 4 5 6 
#
# 1 0.008668 -0.002570 -0.001356 0.000000 0.004333 0.000000
# 2 -0.002570 0.019127 -0.000559 0.000000 0.006109 0.000000
# 3 -0.001356 -0.000559 0.009374 0.000000 0.003760 0.000000
# 4 0.000000 0.000000 0.000000 0.124215 0.000000 0.053781
# 5 0.004333 0.006109 0.003760 0.000000 0.028424 0.000000
# 6 0.000000 0.000000 0.000000 0.053781 0.000000 0.057927
#
#
# Mechanical properties :
#
#
# Convention : Reuss Voigt Hill
#
# Bulk Modulus (GPa) = 35.46300 56.21615 45.83958
# Shear Modulus (GPa) = 18.78958 34.71943 26.75451
#
# Velocity S-wave (km/s) = 2.79627 3.80108 3.33672
# Velocity P-wave (km/s) = 5.01828 6.53132 5.82414
#
# Compressibility (1/GPa) = 0.02819840
#
# Stress axis : x y z
#
# Youngs Moduli (GPa) = 115.36095 52.28266 106.67985
#
# Poissons Ratio (x) = 0.13439 0.14461
# Poissons Ratio (y) = 0.29652 0.05968
# Poissons Ratio (z) = 0.15638 0.02925
#
# Static dielectric constant tensor:
#      x y z
#    x 2.085910 0.000000 -0.049780 
#    y 0.000000 2.020330 0.000000 
#    z -0.049780 0.000000 1.991530 
# 
# From -- ./inp_files/225503.got.cif
#   From: 2010.05.17/outbox.cif.g08.bks.cpg/sg15_113_cif.got.tgz:225503.got - 2010.06.03 18:47:42.
