data_PCOD9256510
_publ_section_title
;
Structure prediction by ZEFSAII (Michael W. Deem and Ramdas Pophale) SiO2 
 PCOD9256510
Probable space group: C 2/C
;
_chemical_formula_sum "Si O2"
_cell_formula_units_Z 60
_cell_length_a 20.438550
_cell_length_b 5.642524
_cell_length_c 19.524756
_cell_angle_alpha 90.000000
_cell_angle_beta 91.047516
_cell_angle_gamma 90.000000
_cell_volume 2251.316352
_symmetry_space_group_name_H-M "C 2/C"
_symmetry_group_IT_number 15
_symmetry_cell_setting 'monoclinic'
loop_
_space_group_symop_operation_xyz
x,y,z
-x,y,1/2-z
-x,-y,-z
x,-y,1/2+z
1/2+x,1/2+y,z
1/2-x,1/2+y,1/2-z
1/2-x,1/2-y,-z
1/2+x,1/2-y,1/2+z
loop_
_atom_site_type_symbol
_atom_site_label
_atom_site_fract_x
_atom_site_fract_y
_atom_site_fract_z
Si Si1 0.585616 0.299095 0.208227
Si Si2 0.537429 0.528697 0.345302
Si Si3 0.816518 0.511426 0.617383
Si Si4 0.265305 0.488216 0.068615
Si Si5 0.214884 0.670103 0.244558
Si Si6 0.903229 0.995916 0.001971
Si Si7 0.115207 0.493521 0.517676
Si Si8 0.500000 0.090501 0.750000
O O1 0.660523 0.266082 0.190722
O O2 0.548935 0.052884 0.202962
O O3 0.574215 0.371268 0.288129
O O4 0.539794 0.476352 0.165591
O O5 0.564621 0.499441 0.421435
O O6 0.543915 0.775937 0.306678
O O7 0.773230 0.281197 0.595321
O O8 0.827183 0.449755 0.695590
O O9 0.875687 0.508302 0.565051
O O10 0.784000 0.772908 0.611715
O O11 0.324209 0.498826 0.013421
O O12 0.190547 0.512185 0.044197
O O13 0.245359 0.924873 0.270825
O O14 0.917654 0.744649 0.966755
O O15 0.919183 0.245572 0.966395
#
# Coordination Sequence:
#
# PCOD9256510 Si02
#       8
#     8   8   8   8   8   8   8   4
#     4   9  20  36  52  74 108 143 192 246 276 321
#     4   9  19  31  54  82 102 150 185 227 294 345
#     4  10  19  33  52  71 104 147 182 220 271 326
#     4  10  18  31  52  79 112 142 172 223 292 352
#     4  12  27  40  56  80 114 159 206 231 262 320
#     4  10  18  26  45  73 112 137 170 200 265 352
#     4  10  19  30  49  80 114 143 168 224 288 356
#     4   8  18  30  56  72 106 136 192 232 294 324
#
# _framework density 26.651076
#
# number of rings (size 3 to 8) (size 9 to 14) (size 15 to 20)
#    0.000    2.400    0.000    6.400   11.200    0.000 
#    0.000    0.000    0.000    0.000    0.000    0.000 
#    0.000   36.267    0.000    0.000    0.000    0.000 
#
# Total GULP energy -167286.619062 kJ/mol
# GULP energy per Si atom -5576.220635 kJ/mol
# Density = 2.659042 g / cm^3
# Si number density = 26.651076 Si / 1000 Ang^3
#
#
#
# Elastic Constant Matrix: (Units=GPa)
#
#
# Indices 1 2 3 4 5 6 
#
# 1 73.4613 43.1402 16.2344 0.0000 7.4824 0.0000
# 2 43.1402 245.9891 34.0048 0.0000 14.5234 0.0000
# 3 16.2344 34.0048 38.9667 0.0000 2.8640 0.0000
# 4 0.0000 0.0000 0.0000 43.7957 0.0000 3.1588
# 5 7.4824 14.5234 2.8640 0.0000 29.6222 0.0000
# 6 0.0000 0.0000 0.0000 3.1588 0.0000 25.9296
#
#
#
# Elastic Compliance Matrix: (Units=1/GPa)
#
#
# Indices 1 2 3 4 5 6 
#
# 1 0.016115 -0.002013 -0.004765 0.000000 -0.002623 0.000000
# 2 -0.002013 0.004982 -0.003391 0.000000 -0.001606 0.000000
# 3 -0.004765 -0.003391 0.030614 0.000000 -0.000094 0.000000
# 4 0.000000 0.000000 0.000000 0.023036 0.000000 -0.002806
# 5 -0.002623 -0.001606 -0.000094 0.000000 0.035218 0.000000
# 6 0.000000 0.000000 0.000000 -0.002806 0.000000 0.038908
#
#
# Mechanical properties :
#
#
# Convention : Reuss Voigt Hill
#
# Bulk Modulus (GPa) = 31.87326 60.57511 46.22419
# Shear Modulus (GPa) = 27.82945 37.53866 32.68406
#
# Velocity S-wave (km/s) = 3.23494 3.75710 3.50575
# Velocity P-wave (km/s) = 5.09299 6.44976 5.81111
#
# Compressibility (1/GPa) = 0.03137426
#
# Stress axis : x y z
#
# Youngs Moduli (GPa) = 62.05548 200.73257 32.66480
#
# Poissons Ratio (x) = 0.40399 0.15564
# Poissons Ratio (y) = 0.12489 0.11076
# Poissons Ratio (z) = 0.29567 0.68065
#
# Static dielectric constant tensor:
#      x y z
#    x 2.071890 0.000000 0.006190 
#    y 0.000000 2.171120 0.000000 
#    z 0.006190 0.000000 2.204520 
# 
# From -- ./inp_files/281021.got.cif
#   From: 2010.05.17/outbox.cif.g08.bks.cpg/sg15_141_cif.got.tgz:281021.got - 2010.06.03 18:47:42.
