data_PCOD9256543
_publ_section_title
;
Structure prediction by ZEFSAII (Michael W. Deem and Ramdas Pophale) SiO2 
 PCOD9256543
Probable space group: C 2/C
;
_chemical_formula_sum "Si O2"
_cell_formula_units_Z 56
_cell_length_a 13.151154
_cell_length_b 18.779144
_cell_length_c 27.831594
_cell_angle_alpha 90.000000
_cell_angle_beta 27.533440
_cell_angle_gamma 90.000000
_cell_volume 3177.385446
_symmetry_space_group_name_H-M "C 2/C"
_symmetry_group_IT_number 15
_symmetry_cell_setting 'monoclinic'
loop_
_space_group_symop_operation_xyz
x,y,z
-x,y,1/2-z
-x,-y,-z
x,-y,1/2+z
1/2+x,1/2+y,z
1/2-x,1/2+y,1/2-z
1/2-x,1/2-y,-z
1/2+x,1/2-y,1/2+z
loop_
_atom_site_type_symbol
_atom_site_label
_atom_site_fract_x
_atom_site_fract_y
_atom_site_fract_z
Si Si1 0.343537 0.145957 0.770153
Si Si2 0.341270 0.006423 0.242625
Si Si3 0.213928 0.953626 0.902877
Si Si4 0.550000 0.233232 0.440083
Si Si5 0.730139 0.857628 0.781066
Si Si6 0.119521 0.701028 0.149270
Si Si7 0.355105 0.261300 0.904266
O O1 0.500000 0.124965 0.750000
O O2 0.152161 0.197317 0.870046
O O3 0.497225 0.193187 0.671786
O O4 0.265346 0.074878 0.776538
O O5 0.603912 0.009980 0.139311
O O6 0.266247 0.040863 0.324517
O O7 0.273551 0.058448 0.228355
O O8 0.229098 0.869825 0.907289
O O9 0.000000 0.000000 0.000000
O O10 0.632902 0.167635 0.372774
O O11 0.289478 0.241183 0.557236
O O12 0.669556 0.230701 0.441396
O O13 0.569033 0.820621 0.809368
O O14 0.973433 0.826379 0.671430
O O15 0.000000 0.718038 0.250000
O O16 0.250000 0.250000 0.000000
#
# Coordination Sequence:
#
# PCOD9256543 Si02
#       7
#     8   8   8   8   8   8   8
#     4   9  17  32  52  81 111 139 174 227 285 338
#     4  10  18  31  48  77 114 141 174 216 275 345
#     4  10  18  27  46  75 113 141 163 211 281 336
#     4  10  21  35  56  78 110 152 186 233 284 335
#     4  10  20  35  49  77 116 149 188 218 280 352
#     4  11  19  32  50  79 111 147 182 224 274 335
#     4  10  21  35  56  81 111 146 192 236 285 328
#
# _framework density 17.624552999999999
#
# number of rings (size 3 to 8) (size 9 to 14) (size 15 to 20)
#    0.000    2.000    4.286    3.429    2.000    0.000 
#    0.000    0.000    0.000    0.857    0.000   16.000 
#    0.000    0.000    0.000    0.000    0.000    0.000 
#
# Total GULP energy -156110.485773 kJ/mol
# GULP energy per Si atom -5575.374492 kJ/mol
# Density = 1.758444 g / cm^3
# Si number density = 17.624553 Si / 1000 Ang^3
#
#
#
# Elastic Constant Matrix: (Units=GPa)
#
#
# Indices 1 2 3 4 5 6 
#
# 1 49.9201 18.9934 23.8267 0.0023 15.4280 -0.0117
# 2 18.9934 79.2368 14.7447 0.0013 8.2644 -0.0088
# 3 23.8267 14.7447 92.9496 -0.0057 8.7980 -0.0185
# 4 0.0023 0.0013 -0.0057 14.6701 -0.0106 1.5113
# 5 15.4280 8.2644 8.7980 -0.0106 28.9486 0.0087
# 6 -0.0117 -0.0088 -0.0185 1.5113 0.0087 30.9429
#
#
#
# Elastic Compliance Matrix: (Units=1/GPa)
#
#
# Indices 1 2 3 4 5 6 
#
# 1 0.027989 -0.004464 -0.005329 -0.000016 -0.012023 0.000010
# 2 -0.004464 0.014006 -0.000952 -0.000002 -0.001330 0.000002
# 3 -0.005329 -0.000952 0.012336 0.000005 -0.000637 0.000005
# 4 -0.000016 -0.000002 0.000005 0.068511 0.000034 -0.003346
# 5 -0.012023 -0.001330 -0.000637 0.000034 0.041525 -0.000019
# 6 0.000010 0.000002 0.000005 -0.003346 -0.000019 0.032481
#
#
# Mechanical properties :
#
#
# Convention : Reuss Voigt Hill
#
# Bulk Modulus (GPa) = 30.44748 37.47067 33.95907
# Shear Modulus (GPa) = 21.80702 25.88178 23.84440
#
# Velocity S-wave (km/s) = 3.52136 3.83627 3.68218
# Velocity P-wave (km/s) = 5.81776 6.39760 6.11456
#
# Compressibility (1/GPa) = 0.03284344
#
# Stress axis : x y z
#
# Youngs Moduli (GPa) = 35.72772 71.39697 81.06501
#
# Poissons Ratio (x) = 0.31869 0.43197
# Poissons Ratio (y) = 0.15947 0.07715
# Poissons Ratio (z) = 0.19038 0.06795
#
# Static dielectric constant tensor:
#      x y z
#    x 1.589740 0.000010 -0.000050 
#    y 0.000010 1.642920 -0.000070 
#    z -0.000050 -0.000070 1.548450 
# 
# From -- ./inp_files/270912.got.cif
#   From: 2010.05.17/outbox.cif.g08.bks.cpg/sg15_136_cif.got.tgz:270912.got - 2010.06.03 18:47:42.
