data_PCOD9256215
_publ_section_title
;
Structure prediction by ZEFSAII (Michael W. Deem and Ramdas Pophale) SiO2 
 PCOD9256215
Probable space group: C 2/C
;
_chemical_formula_sum "Si O2"
_cell_formula_units_Z 56
_cell_length_a 26.018115
_cell_length_b 13.477965
_cell_length_c 13.842675
_cell_angle_alpha 90.000000
_cell_angle_beta 152.152983
_cell_angle_gamma 90.000000
_cell_volume 2267.469979
_symmetry_space_group_name_H-M "C 2/C"
_symmetry_group_IT_number 15
_symmetry_cell_setting 'monoclinic'
loop_
_space_group_symop_operation_xyz
x,y,z
-x,y,1/2-z
-x,-y,-z
x,-y,1/2+z
1/2+x,1/2+y,z
1/2-x,1/2+y,1/2-z
1/2-x,1/2-y,-z
1/2+x,1/2-y,1/2+z
loop_
_atom_site_type_symbol
_atom_site_label
_atom_site_fract_x
_atom_site_fract_y
_atom_site_fract_z
Si Si1 0.103223 0.612352 0.158376
Si Si2 0.152892 0.192666 0.487593
Si Si3 0.569344 0.894177 0.278178
Si Si4 0.338860 0.791688 0.568433
Si Si5 0.213814 0.163510 0.179405
Si Si6 0.825286 0.943951 0.302775
Si Si7 0.215951 0.024892 0.445730
O O1 0.073549 0.666646 0.209797
O O2 0.164710 0.667661 0.170837
O O3 0.205758 0.543451 0.358810
O O4 0.992740 0.579569 0.922873
O O5 0.080033 0.277937 0.317482
O O6 0.265399 0.253600 0.703315
O O7 0.119011 0.129154 0.526718
O O8 0.169865 0.110258 0.434744
O O9 0.500000 0.940806 0.250000
O O10 0.692930 0.930226 0.475150
O O11 0.250000 0.750000 0.500000
O O12 0.365004 0.706642 0.535213
O O13 0.283006 0.879033 0.411316
O O14 0.186144 0.051339 0.163817
O O15 0.868164 0.968186 0.265106
#
# Coordination Sequence:
#
# PCOD9256215 Si02
#       7
#     8   8   8   8   8   8   8
#     4  10  19  37  57  88 122 157 200 251 314 366
#     4  11  22  37  62  94 121 165 207 255 303 371
#     4  12  23  37  58  89 132 157 194 255 326 361
#     4   8  18  31  54  82 108 153 202 243 293 363
#     4  10  17  35  58  88 116 156 203 256 293 364
#     4  10  19  34  59  87 118 147 210 255 295 349
#     4  11  22  38  62  94 119 163 211 257 298 370
#
# _framework density 24.697129
#
# number of rings (size 3 to 8) (size 9 to 14) (size 15 to 20)
#    0.000    1.714    4.286    0.857    0.000    0.000 
#    0.000    0.000    0.000    3.429    0.000    0.000 
#    0.000    0.000    0.000    0.000    0.000    0.000 
#
# Total GULP energy -155889.687137 kJ/mol
# GULP energy per Si atom -5567.488826 kJ/mol
# Density = 2.464092 g / cm^3
# Si number density = 24.697129 Si / 1000 Ang^3
#
#
#
# Elastic Constant Matrix: (Units=GPa)
#
#
# Indices 1 2 3 4 5 6 
#
# 1 46.5371 29.5439 30.2469 0.0000 -26.4723 0.0000
# 2 29.5439 146.6949 30.1479 0.0000 -30.9867 0.0000
# 3 30.2469 30.1479 83.2891 0.0000 -34.8318 0.0000
# 4 0.0000 0.0000 0.0000 7.9283 0.0000 -15.3965
# 5 -26.4723 -30.9867 -34.8318 0.0000 39.7918 0.0000
# 6 0.0000 0.0000 0.0000 -15.3965 0.0000 43.7510
#
#
#
# Elastic Compliance Matrix: (Units=1/GPa)
#
#
# Indices 1 2 3 4 5 6 
#
# 1 0.036517 -0.002543 -0.004747 0.000000 0.018158 0.000000
# 2 -0.002543 0.008348 -0.000137 0.000000 0.004688 0.000000
# 3 -0.004747 -0.000137 0.019584 0.000000 0.013877 0.000000
# 4 0.000000 0.000000 0.000000 0.398402 0.000000 0.140203
# 5 0.018158 0.004688 0.013877 0.000000 0.053009 0.000000
# 6 0.000000 0.000000 0.000000 0.140203 0.000000 0.072196
#
#
# Mechanical properties :
#
#
# Convention : Reuss Voigt Hill
#
# Bulk Modulus (GPa) = 20.16421 50.71097 35.43759
# Shear Modulus (GPa) = 8.07178 30.73304 19.40241
#
# Velocity S-wave (km/s) = 1.80981 3.53143 2.80592
# Velocity P-wave (km/s) = 3.54253 6.09965 4.98775
#
# Compressibility (1/GPa) = 0.04959283
#
# Stress axis : x y z
#
# Youngs Moduli (GPa) = 27.38433 119.79464 51.06310
#
# Poissons Ratio (x) = 0.30468 0.24241
# Poissons Ratio (y) = 0.06965 0.00701
# Poissons Ratio (z) = 0.13000 0.01645
#
# Static dielectric constant tensor:
#      x y z
#    x 2.050320 0.000000 -0.013790 
#    y 0.000000 2.091860 0.000000 
#    z -0.013790 0.000000 2.025940 
# 
# From -- ./inp_files/182151.got.cif
#   From: 2010.05.17/outbox.cif.g08.bks.cpg/sg15_92_cif.got.tgz:182151.got - 2010.06.03 18:47:42.
