data_PCOD9256741
_publ_section_title
;
Structure prediction by ZEFSAII (Michael W. Deem and Ramdas Pophale) SiO2 
 PCOD9256741
Probable space group: C 2/C
;
_chemical_formula_sum "Si O2"
_cell_formula_units_Z 48
_cell_length_a 23.258811
_cell_length_b 9.870683
_cell_length_c 10.944105
_cell_angle_alpha 90.000000
_cell_angle_beta 47.903410
_cell_angle_gamma 90.000000
_cell_volume 1864.352732
_symmetry_space_group_name_H-M "C 2/C"
_symmetry_group_IT_number 15
_symmetry_cell_setting 'monoclinic'
loop_
_space_group_symop_operation_xyz
x,y,z
-x,y,1/2-z
-x,-y,-z
x,-y,1/2+z
1/2+x,1/2+y,z
1/2-x,1/2+y,1/2-z
1/2-x,1/2-y,-z
1/2+x,1/2-y,1/2+z
loop_
_atom_site_type_symbol
_atom_site_label
_atom_site_fract_x
_atom_site_fract_y
_atom_site_fract_z
Si Si1 0.240082 0.036831 0.374439
Si Si2 0.137851 0.826554 0.216555
Si Si3 0.500000 0.157824 0.750000
Si Si4 0.113748 0.896238 0.877697
Si Si5 0.340760 0.747888 0.547343
Si Si6 0.000000 0.182773 0.750000
Si Si7 0.876287 0.390207 0.269384
O O1 0.197392 0.889648 0.444334
O O2 0.328881 0.989190 0.252085
O O3 0.207977 0.126295 0.530607
O O4 0.200510 0.097725 0.310234
O O5 0.170936 0.753082 0.290088
O O6 0.069144 0.753861 0.237280
O O7 0.102662 0.969375 0.314821
O O8 0.565676 0.251025 0.597799
O O9 0.541017 0.068032 0.794529
O O10 0.108802 0.755027 0.813859
O O11 0.054308 0.894591 0.075411
O O12 0.326303 0.862608 0.464723
#
# Coordination Sequence:
#
# PCOD9256741 Si02
#       7
#     8   8   4   8   8   4   8
#     4  10  20  32  51  79 115 148 188 223 272 348
#     4  10  18  29  46  77 112 145 179 219 278 334
#     4   8  18  27  52  82 106 143 172 227 282 332
#     4  10  20  30  51  78 113 151 183 224 281 332
#     4   9  18  30  50  78 109 141 182 229 276 331
#     4  10  20  29  46  76 122 145 170 219 286 360
#     4  10  19  35  54  82 115 145 189 229 277 336
#
# _framework density 25.746200999999999
#
# number of rings (size 3 to 8) (size 9 to 14) (size 15 to 20)
#    1.000    1.333    1.667    2.000    0.000    9.333 
#    0.000    0.000    0.000   20.000    0.000   10.500 
#    0.000    0.000    0.000    0.167    0.000    0.000 
#
# Total GULP energy -133937.896891 kJ/mol
# GULP energy per Si atom -5580.745704 kJ/mol
# Density = 2.568760 g / cm^3
# Si number density = 25.746201 Si / 1000 Ang^3
#
#
#
# Elastic Constant Matrix: (Units=GPa)
#
#
# Indices 1 2 3 4 5 6 
#
# 1 182.5919 35.4489 -5.3117 0.0000 -9.2918 0.0000
# 2 35.4489 100.5145 3.6064 0.0000 5.2295 0.0000
# 3 -5.3117 3.6064 107.3838 0.0000 11.7516 0.0000
# 4 0.0000 0.0000 0.0000 -8.3987 0.0000 23.0370
# 5 -9.2918 5.2295 11.7516 0.0000 37.0289 0.0000
# 6 0.0000 0.0000 0.0000 23.0370 0.0000 -19.6386
#
#
#
# Elastic Compliance Matrix: (Units=1/GPa)
#
#
# Indices 1 2 3 4 5 6 
#
# 1 0.006002 -0.002215 0.000178 0.000000 0.001762 0.000000
# 2 -0.002215 0.010843 -0.000254 0.000000 -0.002006 0.000000
# 3 0.000178 -0.000254 0.009656 0.000000 -0.002984 0.000000
# 4 0.000000 0.000000 0.000000 0.053692 0.000000 0.062983
# 5 0.001762 -0.002006 -0.002984 0.000000 0.028678 0.000000
# 6 0.000000 0.000000 0.000000 0.062983 0.000000 0.022962
#
#
# Mechanical properties :
#
#
# Convention : Reuss Voigt Hill
#
# Bulk Modulus (GPa) = 45.61963 50.88639 48.25301
# Shear Modulus (GPa) = 34.78958 25.58143 30.18551
#
# Velocity S-wave (km/s) = 3.67992 3.15556 3.42778
# Velocity P-wave (km/s) = 5.98442 5.75189 5.86931
#
# Compressibility (1/GPa) = 0.02192039
#
# Stress axis : x y z
#
# Youngs Moduli (GPa) = 166.62449 92.22220 103.55941
#
# Poissons Ratio (x) = 0.20424 -0.01848
# Poissons Ratio (y) = 0.36902 0.02632
# Poissons Ratio (z) = -0.02973 0.02344
#
# Static dielectric constant tensor:
#      x y z
#    x 2.086480 0.000000 -0.056470 
#    y 0.000000 2.018750 0.000000 
#    z -0.056470 0.000000 2.189220 
# 
# From -- ./inp_files/118311.got.cif
#   From: 2010.05.17/outbox.cif.g08.bks.cpg/sg15_60_cif.got.tgz:118311.got - 2010.06.03 18:47:42.
