data_PCOD9256377
_publ_section_title
;
Structure prediction by ZEFSAII (Michael W. Deem and Ramdas Pophale) SiO2 
 PCOD9256377
Probable space group: C 2/C
;
_chemical_formula_sum "Si O2"
_cell_formula_units_Z 44
_cell_length_a 26.206527
_cell_length_b 16.117573
_cell_length_c 11.713153
_cell_angle_alpha 90.000000
_cell_angle_beta 21.763226
_cell_angle_gamma 90.000000
_cell_volume 1834.381511
_symmetry_space_group_name_H-M "C 2/C"
_symmetry_group_IT_number 15
_symmetry_cell_setting 'monoclinic'
loop_
_space_group_symop_operation_xyz
x,y,z
-x,y,1/2-z
-x,-y,-z
x,-y,1/2+z
1/2+x,1/2+y,z
1/2-x,1/2+y,1/2-z
1/2-x,1/2-y,-z
1/2+x,1/2-y,1/2+z
loop_
_atom_site_type_symbol
_atom_site_label
_atom_site_fract_x
_atom_site_fract_y
_atom_site_fract_z
Si Si1 0.907857 0.580308 0.673542
Si Si2 0.699683 0.635062 0.299706
Si Si3 0.179021 0.119912 0.994844
Si Si4 0.353860 0.264162 0.123452
Si Si5 0.531586 0.735451 0.465977
Si Si6 0.000000 0.989396 0.750000
O O1 0.792238 0.564382 0.818536
O O2 0.974641 0.667117 0.494677
O O3 0.000000 0.500000 0.500000
O O4 0.828383 0.610006 0.952491
O O5 0.756475 0.688288 0.287711
O O6 0.581404 0.685000 0.473632
O O7 0.629864 0.548036 0.471619
O O8 0.211271 0.155173 0.802884
O O9 0.151727 0.200592 0.130038
O O10 0.037088 0.069610 0.278751
O O11 0.500000 0.251979 0.750000
O O12 0.397668 0.276414 0.163214
#
# Coordination Sequence:
#
# PCOD9256377 Si02
#       6
#     8   8   8   8   8   4
#     4  11  22  38  68  97 125 160 218 278 320 372
#     4  11  23  42  62  93 135 168 218 266 320 390
#     4  10  19  40  62  89 128 173 215 244 324 405
#     4  10  17  36  71  86 112 179 217 243 315 403
#     4  10  19  39  69  90 120 178 212 249 333 388
#     4  12  26  38  62  98 130 174 216 270 316 372
#
# _framework density 23.986284999999999
#
# number of rings (size 3 to 8) (size 9 to 14) (size 15 to 20)
#    0.000    1.455    8.182    1.091    2.545    2.909 
#    0.000    2.727    0.000    0.000    0.000    0.000 
#    0.000    0.000    0.000    0.000    0.000    0.000 
#
# Total GULP energy -122700.576922 kJ/mol
# GULP energy per Si atom -5577.298951 kJ/mol
# Density = 2.393169 g / cm^3
# Si number density = 23.986285 Si / 1000 Ang^3
#
#
#
# Elastic Constant Matrix: (Units=GPa)
#
#
# Indices 1 2 3 4 5 6 
#
# 1 138.7361 55.1330 49.8780 0.0001 -41.2948 0.0000
# 2 55.1330 155.2080 43.2169 -0.0001 -28.2886 0.0000
# 3 49.8780 43.2169 65.0869 0.0000 -23.5294 -0.0001
# 4 0.0001 -0.0001 0.0000 42.0635 0.0000 -35.8910
# 5 -41.2948 -28.2886 -23.5294 0.0000 43.0138 0.0000
# 6 0.0000 0.0000 -0.0001 -35.8910 0.0000 26.3755
#
#
#
# Elastic Compliance Matrix: (Units=1/GPa)
#
#
# Indices 1 2 3 4 5 6 
#
# 1 0.011999 -0.001327 -0.005566 0.000000 0.007602 0.000000
# 2 -0.001327 0.008353 -0.003744 0.000000 0.002171 0.000000
# 3 -0.005566 -0.003744 0.024049 -0.000001 0.005350 -0.000001
# 4 0.000000 0.000000 -0.000001 -0.147578 0.000000 -0.200820
# 5 0.007602 0.002171 0.005350 0.000000 0.034901 0.000000
# 6 0.000000 0.000000 -0.000001 -0.200820 0.000000 -0.235356
#
#
# Mechanical properties :
#
#
# Convention : Reuss Voigt Hill
#
# Bulk Modulus (GPa) = 43.23978 72.83189 58.03584
# Shear Modulus (GPa) = -18.20507 36.34409 9.06951
#
# Velocity S-wave (km/s) = -2.75794 3.89678 1.94662
# Velocity P-wave (km/s) = 2.81502 7.11874 5.41298
#
# Compressibility (1/GPa) = 0.02312685
#
# Stress axis : x y z
#
# Youngs Moduli (GPa) = 83.33968 119.72308 41.58092
#
# Poissons Ratio (x) = 0.15886 0.23144
# Poissons Ratio (y) = 0.11058 0.15569
# Poissons Ratio (z) = 0.46386 0.44828
#
# Static dielectric constant tensor:
#      x y z
#    x 1.976710 0.000000 0.008000 
#    y 0.000000 1.927740 0.000000 
#    z 0.008000 0.000000 2.016360 
# 
# From -- ./inp_files/182234.got.cif
#   From: 2010.05.17/outbox.cif.g08.bks.cpg/sg15_92_cif.got.tgz:182234.got - 2010.06.03 18:47:42.
