data_PCOD9256063
_publ_section_title
;
Structure prediction by ZEFSAII (Michael W. Deem and Ramdas Pophale) SiO2 
 PCOD9256063
Probable space group: C 2/C
;
_chemical_formula_sum "Si O2"
_cell_formula_units_Z 32
_cell_length_a 11.775854
_cell_length_b 11.378506
_cell_length_c 14.365038
_cell_angle_alpha 90.000000
_cell_angle_beta 140.175999
_cell_angle_gamma 90.000000
_cell_volume 1232.699166
_symmetry_space_group_name_H-M "C 2/C"
_symmetry_group_IT_number 15
_symmetry_cell_setting 'monoclinic'
loop_
_space_group_symop_operation_xyz
x,y,z
-x,y,1/2-z
-x,-y,-z
x,-y,1/2+z
1/2+x,1/2+y,z
1/2-x,1/2+y,1/2-z
1/2-x,1/2-y,-z
1/2+x,1/2-y,1/2+z
loop_
_atom_site_type_symbol
_atom_site_label
_atom_site_fract_x
_atom_site_fract_y
_atom_site_fract_z
Si Si1 0.804615 0.489712 0.692296
Si Si2 0.117893 0.742086 0.703225
Si Si3 0.019092 0.632590 0.051675
Si Si4 0.026461 0.979281 0.871619
O O1 0.894745 0.616033 0.758744
O O2 0.944656 0.393652 0.816890
O O3 0.643000 0.500053 0.667635
O O4 0.699721 0.472046 0.530957
O O5 0.294897 0.803241 0.853074
O O6 0.965424 0.837114 0.625175
O O7 0.118848 0.712792 0.591990
O O8 0.000000 0.500000 0.000000
O O9 0.000000 0.022398 0.750000
#
# Coordination Sequence:
#
# PCOD9256063 Si02
#       4
#     8   8   8   8
#     4   9  19  35  53  81 120 153 184 234 296 350
#     4  10  17  34  56  84 113 153 186 235 293 348
#     4   9  18  31  55  83 111 151 190 228 284 351
#     4  10  20  34  58  89 115 148 193 248 293 340
#
# _framework density 25.959295999999998
#
# number of rings (size 3 to 8) (size 9 to 14) (size 15 to 20)
#    0.000    2.500    2.500    0.000    0.000    1.000 
#    0.000    0.000    0.000   13.500    0.000    0.000 
#    0.000    0.000    0.000    0.000    0.000    0.000 
#
# Total GULP energy -89215.538997 kJ/mol
# GULP energy per Si atom -5575.971187 kJ/mol
# Density = 2.590021 g / cm^3
# Si number density = 25.959296 Si / 1000 Ang^3
#
#
#
# Elastic Constant Matrix: (Units=GPa)
#
#
# Indices 1 2 3 4 5 6 
#
# 1 107.3133 17.7003 53.5587 0.0001 -11.0420 0.0000
# 2 17.7003 60.6441 32.5676 0.0000 -5.8093 0.0000
# 3 53.5587 32.5676 236.3983 0.0001 -34.2748 0.0001
# 4 0.0001 0.0000 0.0001 46.3719 0.0001 7.6953
# 5 -11.0420 -5.8093 -34.2748 0.0001 36.4791 0.0001
# 6 0.0000 0.0000 0.0001 7.6953 0.0001 -11.7845
#
#
#
# Elastic Compliance Matrix: (Units=1/GPa)
#
#
# Indices 1 2 3 4 5 6 
#
# 1 0.010755 -0.001956 -0.002015 0.000000 0.001051 0.000000
# 2 -0.001956 0.018175 -0.001999 0.000000 0.000424 0.000000
# 3 -0.002015 -0.001999 0.005589 0.000000 0.004323 0.000000
# 4 0.000000 0.000000 0.000000 0.019456 0.000000 0.012705
# 5 0.001051 0.000424 0.004323 0.000000 0.031860 0.000000
# 6 0.000000 0.000000 0.000000 0.012705 0.000000 -0.076561
#
#
# Mechanical properties :
#
#
# Convention : Reuss Voigt Hill
#
# Bulk Modulus (GPa) = 44.29116 68.00100 56.14608
# Shear Modulus (GPa) = 173.96670 34.24855 104.10763
#
# Velocity S-wave (km/s) = 8.19516 3.63618 6.33966
# Velocity P-wave (km/s) = 10.32697 6.62429 8.67547
#
# Compressibility (1/GPa) = 0.02257787
#
# Stress axis : x y z
#
# Youngs Moduli (GPa) = 92.98123 55.02098 178.92941
#
# Poissons Ratio (x) = 0.10764 0.36050
# Poissons Ratio (y) = 0.18191 0.35772
# Poissons Ratio (z) = 0.18733 0.11000
#
# Static dielectric constant tensor:
#      x y z
#    x 2.199980 0.000000 -0.059460 
#    y 0.000000 2.014620 0.000000 
#    z -0.059460 0.000000 2.087280 
# 
# From -- ./inp_files/151635.got.cif
#   From: 2010.05.17/outbox.cif.g08.bks.cpg/sg15_76_cif.got.tgz:151635.got - 2010.06.03 18:47:42.
