data_PCOD9256881
_publ_section_title
;
Structure prediction by ZEFSAII (Michael W. Deem and Ramdas Pophale) SiO2 
 PCOD9256881
Probable space group: C 2/C
;
_chemical_formula_sum "Si O2"
_cell_formula_units_Z 60
_cell_length_a 23.708726
_cell_length_b 7.510207
_cell_length_c 29.502831
_cell_angle_alpha 90.000000
_cell_angle_beta 152.939018
_cell_angle_gamma 90.000000
_cell_volume 2389.882658
_symmetry_space_group_name_H-M "C 2/C"
_symmetry_group_IT_number 15
_symmetry_cell_setting 'monoclinic'
loop_
_space_group_symop_operation_xyz
x,y,z
-x,y,1/2-z
-x,-y,-z
x,-y,1/2+z
1/2+x,1/2+y,z
1/2-x,1/2+y,1/2-z
1/2-x,1/2-y,-z
1/2+x,1/2-y,1/2+z
loop_
_atom_site_type_symbol
_atom_site_label
_atom_site_fract_x
_atom_site_fract_y
_atom_site_fract_z
Si Si1 0.001282 0.698754 0.982032
Si Si2 0.514021 0.696784 0.934097
Si Si3 0.500000 0.293494 0.250000
Si Si4 0.337364 0.839206 0.242703
Si Si5 0.736654 0.803463 0.755283
Si Si6 0.301472 0.549201 0.547017
Si Si7 0.775496 0.512173 0.105347
Si Si8 0.597140 0.092345 0.963533
O O1 0.865593 0.736377 0.866365
O O2 0.094832 0.705972 0.007570
O O3 0.020633 0.822717 0.038302
O O4 0.000000 0.500000 0.000000
O O5 0.379558 0.674418 0.815572
O O6 0.549195 0.897030 0.944581
O O7 0.640799 0.594918 0.019083
O O8 0.560126 0.411723 0.334137
O O9 0.385559 0.163190 0.182731
O O10 0.296462 0.014404 0.242627
O O11 0.315275 0.881935 0.174302
O O12 0.486614 0.823036 0.354764
O O13 0.263638 0.691260 0.219897
O O14 0.250000 0.750000 0.500000
O O15 0.256583 0.448924 0.468958
O O16 0.225033 0.451993 0.531492
#
# Coordination Sequence:
#
# PCOD9256881 Si02
#       8
#     8   8   4   8   8   8   8   8
#     4   9  18  33  52  74 105 154 190 217 278 355
#     4  10  18  31  51  75 112 142 183 235 283 332
#     4  10  20  30  50  72 110 154 186 218 294 362
#     4  10  20  35  55  79 114 153 189 235 284 347
#     4  10  21  35  54  79 113 152 192 230 286 349
#     4  10  18  30  46  76 106 142 185 231 287 340
#     4  11  20  30  50  77 115 146 181 240 299 331
#     4   9  17  32  50  74 107 146 189 223 272 352
#
# _framework density 25.105836
#
# number of rings (size 3 to 8) (size 9 to 14) (size 15 to 20)
#    0.000    2.133    4.000    2.400    1.867    0.533 
#    0.000    0.000    0.000    0.000    0.000    0.933 
#   12.000    0.133    0.000    0.000    0.000    0.000 
#
# Total GULP energy -167336.936049 kJ/mol
# GULP energy per Si atom -5577.897868 kJ/mol
# Density = 2.504869 g / cm^3
# Si number density = 25.105836 Si / 1000 Ang^3
#
#
#
# Elastic Constant Matrix: (Units=GPa)
#
#
# Indices 1 2 3 4 5 6 
#
# 1 115.3190 25.1852 59.0697 0.0000 -6.4525 -0.0001
# 2 25.1852 60.8465 20.8797 0.0000 12.5649 -0.0028
# 3 59.0697 20.8797 119.6930 -0.0001 6.6081 -0.0004
# 4 0.0000 0.0000 -0.0001 29.6484 0.0000 7.9787
# 5 -6.4525 12.5649 6.6081 0.0000 45.8493 0.0002
# 6 -0.0001 -0.0028 -0.0004 7.9787 0.0002 19.1272
#
#
#
# Elastic Compliance Matrix: (Units=1/GPa)
#
#
# Indices 1 2 3 4 5 6 
#
# 1 0.012727 -0.004056 -0.005780 0.000000 0.003736 -0.000001
# 2 -0.004056 0.019695 -0.001113 -0.000001 -0.005808 0.000003
# 3 -0.005780 -0.001113 0.011521 0.000000 -0.002169 0.000000
# 4 0.000000 -0.000001 0.000000 0.037994 0.000000 -0.015849
# 5 0.003736 -0.005808 -0.002169 0.000000 0.024240 -0.000001
# 6 -0.000001 0.000003 0.000000 -0.015849 -0.000001 0.058893
#
#
# Mechanical properties :
#
#
# Convention : Reuss Voigt Hill
#
# Bulk Modulus (GPa) = 45.36173 56.23642 50.79907
# Shear Modulus (GPa) = 25.73133 31.63990 28.68562
#
# Velocity S-wave (km/s) = 3.20490 3.55387 3.38389
# Velocity P-wave (km/s) = 5.63938 6.26804 5.96200
#
# Compressibility (1/GPa) = 0.02204501
#
# Stress axis : x y z
#
# Youngs Moduli (GPa) = 78.57390 50.77439 86.79857
#
# Poissons Ratio (x) = 0.20594 0.50166
# Poissons Ratio (y) = 0.31869 0.09664
# Poissons Ratio (z) = 0.45412 0.05653
#
# Static dielectric constant tensor:
#      x y z
#    x 2.125300 0.000000 -0.022140 
#    y 0.000000 2.071700 0.000000 
#    z -0.022140 0.000000 1.997820 
# 
# From -- ./inp_files/318712.got.cif
#   From: 2010.05.17/outbox.cif.g08.bks.cpg/sg15_160_cif.got.tgz:318712.got - 2010.06.03 18:47:42.
