data_PCOD9256422
_publ_section_title
;
Structure prediction by ZEFSAII (Michael W. Deem and Ramdas Pophale) SiO2 
 PCOD9256422
Probable space group: C 2/C
;
_chemical_formula_sum "Si O2"
_cell_formula_units_Z 56
_cell_length_a 19.342403
_cell_length_b 9.168224
_cell_length_c 25.174322
_cell_angle_alpha 90.000000
_cell_angle_beta 141.868321
_cell_angle_gamma 90.000000
_cell_volume 2756.575594
_symmetry_space_group_name_H-M "C 2/C"
_symmetry_group_IT_number 15
_symmetry_cell_setting 'monoclinic'
loop_
_space_group_symop_operation_xyz
x,y,z
-x,y,1/2-z
-x,-y,-z
x,-y,1/2+z
1/2+x,1/2+y,z
1/2-x,1/2+y,1/2-z
1/2-x,1/2-y,-z
1/2+x,1/2-y,1/2+z
loop_
_atom_site_type_symbol
_atom_site_label
_atom_site_fract_x
_atom_site_fract_y
_atom_site_fract_z
Si Si1 0.086125 0.558423 0.473122
Si Si2 0.398594 0.176165 0.440568
Si Si3 0.317872 0.166266 0.226564
Si Si4 0.708473 0.357343 0.550140
Si Si5 0.487721 0.434582 0.551784
Si Si6 0.706295 0.598060 0.701101
Si Si7 0.043613 0.553639 0.332253
O O1 0.150014 0.455566 0.554008
O O2 0.155077 0.704479 0.501109
O O3 0.056746 0.483469 0.398991
O O4 0.978502 0.615438 0.441960
O O5 0.469688 0.265980 0.527712
O O6 0.317874 0.293109 0.363333
O O7 0.229832 0.155468 0.125970
O O8 0.284022 0.297705 0.243284
O O9 0.445549 0.173473 0.283245
O O10 0.305928 0.011327 0.249066
O O11 0.620191 0.487597 0.487571
O O12 0.831919 0.389654 0.603814
O O13 0.500000 0.500000 0.500000
O O14 0.599734 0.491919 0.646747
O O15 0.000000 0.480381 0.250000
#
# Coordination Sequence:
#
# PCOD9256422 Si02
#       7
#     8   8   8   8   8   8   8
#     4  11  20  36  62  90 114 151 205 247 289 345
#     4  10  20  34  61  90 120 140 195 259 295 344
#     4  11  22  36  58  89 124 154 193 244 314 346
#     4  11  20  36  62  82 117 162 201 239 287 357
#     4  10  17  38  58  85 117 151 196 242 297 344
#     4  11  21  36  58  90 121 150 189 251 306 354
#     4  10  23  38  55  86 120 162 199 239 294 361
#
# _framework density 20.315061
#
# number of rings (size 3 to 8) (size 9 to 14) (size 15 to 20)
#    0.000    1.429    7.143    0.429    2.000    1.143 
#    0.000    0.714    0.000    1.714    0.000    0.000 
#    0.000    0.000    0.000    0.000    0.000    0.000 
#
# Total GULP energy -155960.665207 kJ/mol
# GULP energy per Si atom -5570.023757 kJ/mol
# Density = 2.026882 g / cm^3
# Si number density = 20.315061 Si / 1000 Ang^3
#
#
#
# Elastic Constant Matrix: (Units=GPa)
#
#
# Indices 1 2 3 4 5 6 
#
# 1 91.0405 37.4223 48.8345 0.0000 -2.2784 0.0000
# 2 37.4223 44.0694 7.5101 0.0000 -8.3603 0.0000
# 3 48.8345 7.5101 66.0607 0.0000 7.1395 0.0000
# 4 0.0000 0.0000 0.0000 31.1341 0.0000 -9.0540
# 5 -2.2784 -8.3603 7.1395 0.0000 30.3799 0.0000
# 6 0.0000 0.0000 0.0000 -9.0540 0.0000 13.8763
#
#
#
# Elastic Compliance Matrix: (Units=1/GPa)
#
#
# Indices 1 2 3 4 5 6 
#
# 1 0.031833 -0.023283 -0.020984 0.000000 0.000912 0.000000
# 2 -0.023283 0.041797 0.011703 0.000000 0.007006 0.000000
# 3 -0.020984 0.011703 0.029901 0.000000 -0.005380 0.000000
# 4 0.000000 0.000000 0.000000 0.039641 0.000000 0.025865
# 5 0.000912 0.007006 -0.005380 0.000000 0.036177 0.000000
# 6 0.000000 0.000000 0.000000 0.025865 0.000000 0.088942
#
#
# Mechanical properties :
#
#
# Convention : Reuss Voigt Hill
#
# Bulk Modulus (GPa) = 26.03962 43.18938 34.61450
# Shear Modulus (GPa) = 14.44168 22.23832 18.34000
#
# Velocity S-wave (km/s) = 2.66914 3.31217 3.00789
# Velocity P-wave (km/s) = 4.72702 5.99443 5.39806
#
# Compressibility (1/GPa) = 0.03840302
#
# Stress axis : x y z
#
# Youngs Moduli (GPa) = 31.41370 23.92501 33.44404
#
# Poissons Ratio (x) = 0.55704 0.70179
# Poissons Ratio (y) = 0.73140 -0.39138
# Poissons Ratio (z) = 0.65918 -0.27999
#
# Static dielectric constant tensor:
#      x y z
#    x 1.758010 0.000000 -0.032380 
#    y 0.000000 1.765180 0.000000 
#    z -0.032380 0.000000 1.795220 
# 
# From -- ./inp_files/298579.got.cif
#   From: 2010.05.17/outbox.cif.g08.bks.cpg/sg15_150_cif.got.tgz:298579.got - 2010.06.03 18:47:42.
