data_PCOD9256886
_publ_section_title
;
Structure prediction by ZEFSAII (Michael W. Deem and Ramdas Pophale) SiO2 
 PCOD9256886
Probable space group: C 2/C
;
_chemical_formula_sum "Si O2"
_cell_formula_units_Z 52
_cell_length_a 20.912129
_cell_length_b 28.137186
_cell_length_c 5.394258
_cell_angle_alpha 90.000000
_cell_angle_beta 54.333630
_cell_angle_gamma 90.000000
_cell_volume 2578.661788
_symmetry_space_group_name_H-M "C 2/C"
_symmetry_group_IT_number 15
_symmetry_cell_setting 'monoclinic'
loop_
_space_group_symop_operation_xyz
x,y,z
-x,y,1/2-z
-x,-y,-z
x,-y,1/2+z
1/2+x,1/2+y,z
1/2-x,1/2+y,1/2-z
1/2-x,1/2-y,-z
1/2+x,1/2-y,1/2+z
loop_
_atom_site_type_symbol
_atom_site_label
_atom_site_fract_x
_atom_site_fract_y
_atom_site_fract_z
Si Si1 0.872401 0.726485 0.712428
Si Si2 0.089780 0.323290 0.874695
Si Si3 0.201687 0.174385 0.090864
Si Si4 0.714836 0.487055 0.048016
Si Si5 0.259420 0.375558 0.499693
Si Si6 0.500000 0.107455 0.250000
Si Si7 0.388486 0.974534 0.147911
O O1 0.906034 0.713116 0.367342
O O2 0.786695 0.700923 0.906140
O O3 0.915836 0.704563 0.853506
O O4 0.860126 0.782564 0.770712
O O5 0.171996 0.352866 0.701064
O O6 0.027316 0.361626 0.920176
O O7 0.201073 0.143486 0.842294
O O8 0.198141 0.143565 0.348727
O O9 0.670940 0.499090 0.895969
O O10 0.742182 0.432509 0.992377
O O11 0.793800 0.520496 0.864981
O O12 0.426059 0.075856 0.503212
O O13 0.414441 0.992788 0.357729
#
# Coordination Sequence:
#
# PCOD9256886 Si02
#       7
#     8   8   8   8   8   4   8
#     4   9  18  33  47  67  85 106 132 191 258 292
#     4  10  21  31  46  64  89 113 151 195 235 283
#     4   9  17  30  51  67  84 102 137 188 252 305
#     4  10  19  31  44  61  89 119 151 193 234 266
#     4  10  18  30  47  68  84 112 150 193 237 286
#     4  12  24  36  48  66  90 132 174 202 234 274
#     4  10  22  35  47  59  82 120 166 209 240 266
#
# _framework density 20.165497999999999
#
# number of rings (size 3 to 8) (size 9 to 14) (size 15 to 20)
#    0.000    2.154    0.000    4.154    0.000   12.923 
#    0.000    0.000    0.000    0.000    0.000    0.000 
#    0.000    0.000    0.000    0.000    0.000    0.000 
#
# Total GULP energy -145213.191074 kJ/mol
# GULP energy per Si atom -5585.122734 kJ/mol
# Density = 2.011960 g / cm^3
# Si number density = 20.165498 Si / 1000 Ang^3
#
#
#
# Elastic Constant Matrix: (Units=GPa)
#
#
# Indices 1 2 3 4 5 6 
#
# 1 28.9255 28.6247 30.9380 0.0000 22.9346 0.0000
# 2 28.6247 109.3504 48.6136 0.0000 14.4538 0.0000
# 3 30.9380 48.6136 119.7243 0.0000 51.4769 0.0000
# 4 0.0000 0.0000 0.0000 0.5302 0.0000 7.5769
# 5 22.9346 14.4538 51.4769 0.0000 34.1224 0.0000
# 6 0.0000 0.0000 0.0000 7.5769 0.0000 28.6700
#
#
#
# Elastic Compliance Matrix: (Units=1/GPa)
#
#
# Indices 1 2 3 4 5 6 
#
# 1 0.125735 -0.031006 0.030703 0.000000 -0.117694 0.000000
# 2 -0.031006 0.019255 -0.014969 0.000000 0.035267 0.000000
# 3 0.030703 -0.014969 0.035984 0.000000 -0.068580 0.000000
# 4 0.000000 0.000000 0.000000 -0.679232 0.000000 0.179507
# 5 -0.117694 0.035267 -0.068580 0.000000 0.196933 0.000000
# 6 0.000000 0.000000 0.000000 0.179507 0.000000 -0.012560
#
#
# Mechanical properties :
#
#
# Convention : Reuss Voigt Hill
#
# Bulk Modulus (GPa) = 6.64775 52.70588 29.67681
# Shear Modulus (GPa) = -21.44101 22.65277 0.60588
#
# Velocity S-wave (km/s) = -3.26429 3.35527 0.54873
# Velocity P-wave (km/s) = 3.30208 6.41902 3.89231
#
# Compressibility (1/GPa) = 0.15042694
#
# Stress axis : x y z
#
# Youngs Moduli (GPa) = 7.95326 51.93488 27.79032
#
# Poissons Ratio (x) = 1.61032 -0.85324
# Poissons Ratio (y) = 0.24660 0.41601
# Poissons Ratio (z) = -0.24419 0.77744
#
# Static dielectric constant tensor:
#      x y z
#    x 1.725530 0.000000 0.014560 
#    y 0.000000 1.702310 0.000000 
#    z 0.014560 0.000000 1.794980 
# 
# From -- ./inp_files/11262.got.cif
#   From: 2010.05.17/outbox.cif.g08.bks.cpg/sg15_6_cif.got.tgz:11262.got - 2010.06.03 18:47:42.
