data_PCOD9256230
_publ_section_title
;
Structure prediction by ZEFSAII (Michael W. Deem and Ramdas Pophale) SiO2 
 PCOD9256230
Probable space group: C 2/C
;
_chemical_formula_sum "Si O2"
_cell_formula_units_Z 64
_cell_length_a 17.753658
_cell_length_b 11.214942
_cell_length_c 17.210443
_cell_angle_alpha 90.000000
_cell_angle_beta 57.640058
_cell_angle_gamma 90.000000
_cell_volume 2894.547145
_symmetry_space_group_name_H-M "C 2/C"
_symmetry_group_IT_number 15
_symmetry_cell_setting 'monoclinic'
loop_
_space_group_symop_operation_xyz
x,y,z
-x,y,1/2-z
-x,-y,-z
x,-y,1/2+z
1/2+x,1/2+y,z
1/2-x,1/2+y,1/2-z
1/2-x,1/2-y,-z
1/2+x,1/2-y,1/2+z
loop_
_atom_site_type_symbol
_atom_site_label
_atom_site_fract_x
_atom_site_fract_y
_atom_site_fract_z
Si Si1 0.021543 0.182580 0.329422
Si Si2 0.598294 0.433013 0.324163
Si Si3 0.879099 0.916771 0.014952
Si Si4 0.392985 0.911422 0.964282
Si Si5 0.919276 0.152429 0.895669
Si Si6 0.952614 0.550605 0.690289
Si Si7 0.711191 0.948770 0.640076
Si Si8 0.238657 0.824212 0.144496
O O1 0.064038 0.311400 0.318596
O O2 0.000000 0.166910 0.250000
O O3 0.928230 0.173445 0.429208
O O4 0.085576 0.074543 0.319915
O O5 0.578440 0.403440 0.424226
O O6 0.520533 0.374415 0.315781
O O7 0.691276 0.378431 0.245884
O O8 0.775459 0.936953 0.093333
O O9 0.897721 0.042537 0.963365
O O10 0.424874 0.776752 0.936143
O O11 0.335438 0.935824 0.918085
O O12 0.478152 0.996588 0.910067
O O13 0.324037 0.902711 0.073214
O O14 0.837905 0.159341 0.880041
O O15 0.000000 0.547966 0.750000
O O16 0.863560 0.475588 0.754008
O O17 0.754351 0.819127 0.636283
#
# Coordination Sequence:
#
# PCOD9256230 Si02
#       8
#     8   8   8   8   8   8   8   8
#     4  10  21  40  60  84 112 155 203 234 285 354
#     4  11  23  35  58  87 119 159 195 237 300 355
#     4  11  21  39  58  84 121 158 192 239 300 361
#     4  10  18  34  63  90 115 141 195 260 298 337
#     4  10  17  35  61  86 112 149 192 254 296 336
#     4   9  20  37  57  87 119 152 189 241 298 349
#     4  10  19  38  61  88 122 149 192 253 311 339
#     4  11  19  35  61  95 113 144 205 252 297 342
#
# _framework density 22.110538999999999
#
# number of rings (size 3 to 8) (size 9 to 14) (size 15 to 20)
#    0.000    1.750    2.500    4.875    0.000    2.000 
#    4.500    1.875    0.000    4.500    0.000    0.000 
#    0.000    0.000    0.000    0.000    0.000    0.000 
#
# Total GULP energy -178488.940598 kJ/mol
# GULP energy per Si atom -5577.779394 kJ/mol
# Density = 2.206021 g / cm^3
# Si number density = 22.110539 Si / 1000 Ang^3
#
#
#
# Elastic Constant Matrix: (Units=GPa)
#
#
# Indices 1 2 3 4 5 6 
#
# 1 32.7863 -0.5409 20.4477 0.0000 -0.2480 0.0000
# 2 -0.5409 40.4514 25.8958 0.0000 -8.5548 0.0000
# 3 20.4477 25.8958 138.3364 0.0000 -11.2716 0.0000
# 4 0.0000 0.0000 0.0000 -15.6189 0.0000 10.5507
# 5 -0.2480 -8.5548 -11.2716 0.0000 37.0136 0.0000
# 6 0.0000 0.0000 0.0000 10.5507 0.0000 -18.0661
#
#
#
# Elastic Compliance Matrix: (Units=1/GPa)
#
#
# Indices 1 2 3 4 5 6 
#
# 1 0.034227 0.004088 -0.005875 0.000000 -0.000615 0.000000
# 2 0.004088 0.029513 -0.005713 0.000000 0.005109 0.000000
# 3 -0.005875 -0.005713 0.009286 0.000000 0.001468 0.000000
# 4 0.000000 0.000000 0.000000 -0.105740 0.000000 -0.061752
# 5 -0.000615 0.005109 0.001468 0.000000 0.028641 0.000000
# 6 0.000000 0.000000 0.000000 -0.061752 0.000000 -0.091416
#
#
# Mechanical properties :
#
#
# Convention : Reuss Voigt Hill
#
# Bulk Modulus (GPa) = 17.23284 33.68659 25.45972
# Shear Modulus (GPa) = -81.76982 11.71716 -35.02633
#
# Velocity S-wave (km/s) = -6.08790 2.30453 -3.98445
# Velocity P-wave (km/s) = 6.45026 4.72755 3.10291
#
# Compressibility (1/GPa) = 0.05802874
#
# Stress axis : x y z
#
# Youngs Moduli (GPa) = 29.21658 33.88297 107.68768
#
# Poissons Ratio (x) = -0.13853 0.63262
# Poissons Ratio (y) = -0.11945 0.61520
# Poissons Ratio (z) = 0.17164 0.19357
#
# Static dielectric constant tensor:
#      x y z
#    x 1.904770 0.000000 -0.047640 
#    y 0.000000 1.764300 0.000000 
#    z -0.047640 0.000000 1.868640 
# 
# From -- ./inp_files/215050.got.cif
#   From: 2010.05.17/outbox.cif.g08.bks.cpg/sg15_108_cif.got.tgz:215050.got - 2010.06.03 18:47:42.
