data_PCOD9256389
_publ_section_title
;
Structure prediction by ZEFSAII (Michael W. Deem and Ramdas Pophale) SiO2 
 PCOD9256389
Probable space group: C 2/C
;
_chemical_formula_sum "Si O2"
_cell_formula_units_Z 40
_cell_length_a 33.087107
_cell_length_b 14.324149
_cell_length_c 9.510071
_cell_angle_alpha 90.000000
_cell_angle_beta 156.703005
_cell_angle_gamma 90.000000
_cell_volume 1782.604274
_symmetry_space_group_name_H-M "C 2/C"
_symmetry_group_IT_number 15
_symmetry_cell_setting 'monoclinic'
loop_
_space_group_symop_operation_xyz
x,y,z
-x,y,1/2-z
-x,-y,-z
x,-y,1/2+z
1/2+x,1/2+y,z
1/2-x,1/2+y,1/2-z
1/2-x,1/2-y,-z
1/2+x,1/2-y,1/2+z
loop_
_atom_site_type_symbol
_atom_site_label
_atom_site_fract_x
_atom_site_fract_y
_atom_site_fract_z
Si Si1 0.500000 0.601088 0.750000
Si Si2 0.276221 0.593087 0.718735
Si Si3 0.079508 0.382670 0.726340
Si Si4 0.500000 0.032266 0.250000
Si Si5 0.836459 0.051036 0.630543
Si Si6 0.996008 0.810633 0.944553
O O1 0.405446 0.532788 0.414899
O O2 0.521063 0.665253 0.685306
O O3 0.193700 0.647372 0.547672
O O4 0.253265 0.578994 0.480710
O O5 0.291305 0.493741 0.845364
O O6 0.385095 0.645285 0.065560
O O7 0.066865 0.408745 0.850528
O O8 0.059580 0.467206 0.553060
O O9 0.003076 0.298986 0.445197
O O10 0.916096 0.133793 0.857084
#
# Coordination Sequence:
#
# PCOD9256389 Si02
#       6
#     4   8   8   4   8   8
#     4  10  17  37  60  92 132 166 184 257 337 360
#     4  11  22  39  66  98 125 165 210 255 324 375
#     4  11  25  46  67  92 123 174 213 257 314 374
#     4  10  25  51  66  80 136 170 208 263 313 372
#     4  11  19  38  63  96 132 161 197 267 322 369
#     4  11  22  38  65  96 134 158 212 266 308 369
#
# _framework density 22.439079
#
# number of rings (size 3 to 8) (size 9 to 14) (size 15 to 20)
#    0.000    1.200    4.000    3.000    2.800    0.800 
#    7.200    5.000    0.000    0.000    0.000    0.000 
#    0.000    0.000    0.000    0.000    0.000    0.000 
#
# Total GULP energy -111706.527429 kJ/mol
# GULP energy per Si atom -5585.326371 kJ/mol
# Density = 2.238801 g / cm^3
# Si number density = 22.439079 Si / 1000 Ang^3
#
#
#
# Elastic Constant Matrix: (Units=GPa)
#
#
# Indices 1 2 3 4 5 6 
#
# 1 223.2614 41.8796 33.1457 0.0000 4.5868 0.0000
# 2 41.8796 76.1216 11.7027 0.0000 9.2726 0.0000
# 3 33.1457 11.7027 25.0211 0.0000 1.4459 0.0000
# 4 0.0000 0.0000 0.0000 5.3049 0.0000 -4.2563
# 5 4.5868 9.2726 1.4459 0.0000 29.3515 0.0000
# 6 0.0000 0.0000 0.0000 -4.2563 0.0000 15.4298
#
#
#
# Elastic Compliance Matrix: (Units=1/GPa)
#
#
# Indices 1 2 3 4 5 6 
#
# 1 0.005900 -0.002216 -0.006785 0.000000 0.000112 0.000000
# 2 -0.002216 0.015512 -0.004067 0.000000 -0.004354 0.000000
# 3 -0.006785 -0.004067 0.050867 0.000000 -0.000160 0.000000
# 4 0.000000 0.000000 0.000000 0.242082 0.000000 0.066778
# 5 0.000112 -0.004354 -0.000160 0.000000 0.035436 0.000000
# 6 0.000000 0.000000 0.000000 0.066778 0.000000 0.083230
#
#
# Mechanical properties :
#
#
# Convention : Reuss Voigt Hill
#
# Bulk Modulus (GPa) = 21.67322 55.31778 38.49550
# Shear Modulus (GPa) = 10.53640 25.86232 18.19936
#
# Velocity S-wave (km/s) = 2.16927 3.39862 2.85099
# Velocity P-wave (km/s) = 3.99425 6.33299 5.29437
#
# Compressibility (1/GPa) = 0.04613990
#
# Stress axis : x y z
#
# Youngs Moduli (GPa) = 169.49471 64.46645 19.65924
#
# Poissons Ratio (x) = 0.14289 0.13340
# Poissons Ratio (y) = 0.37568 0.07996
# Poissons Ratio (z) = 1.15010 0.26221
#
# Static dielectric constant tensor:
#      x y z
#    x 1.875280 0.000000 0.012090 
#    y 0.000000 1.818010 0.000000 
#    z 0.012090 0.000000 1.864900 
# 
# From -- ./inp_files/37895.got.cif
#   From: 2010.05.17/outbox.cif.g08.bks.cpg/sg15_19_cif.got.tgz:37895.got - 2010.06.03 18:47:42.
