data_PCOD9256012
_publ_section_title
;
Structure prediction by ZEFSAII (Michael W. Deem and Ramdas Pophale) SiO2 
 PCOD9256012
Probable space group: C 2/C
;
_chemical_formula_sum "Si O2"
_cell_formula_units_Z 64
_cell_length_a 8.857694
_cell_length_b 22.113766
_cell_length_c 21.968887
_cell_angle_alpha 90.000000
_cell_angle_beta 134.758227
_cell_angle_gamma 90.000000
_cell_volume 3055.634016
_symmetry_space_group_name_H-M "C 2/C"
_symmetry_group_IT_number 15
_symmetry_cell_setting 'monoclinic'
loop_
_space_group_symop_operation_xyz
x,y,z
-x,y,1/2-z
-x,-y,-z
x,-y,1/2+z
1/2+x,1/2+y,z
1/2-x,1/2+y,1/2-z
1/2-x,1/2-y,-z
1/2+x,1/2-y,1/2+z
loop_
_atom_site_type_symbol
_atom_site_label
_atom_site_fract_x
_atom_site_fract_y
_atom_site_fract_z
Si Si1 0.700629 0.620571 0.189473
Si Si2 0.729694 0.121905 0.086865
Si Si3 0.948368 0.840025 0.377339
Si Si4 0.203400 0.823985 0.567417
Si Si5 0.225022 0.898242 0.278538
Si Si6 0.675897 0.209496 0.175182
Si Si7 0.136735 0.690214 0.587429
Si Si8 0.257681 0.029897 0.311551
O O1 0.448097 0.608861 0.115065
O O2 0.766236 0.630034 0.138702
O O3 0.755552 0.683248 0.240376
O O4 0.790634 0.568782 0.259553
O O5 0.788404 0.170334 0.155835
O O6 0.649686 0.064634 0.103468
O O7 0.556986 0.153252 0.996084
O O8 0.039138 0.848108 0.470618
O O9 0.153240 0.826097 0.392486
O O10 0.823345 0.892316 0.306655
O O11 0.806033 0.779816 0.332630
O O12 0.423104 0.805227 0.597062
O O13 0.112430 0.762233 0.572279
O O14 0.329626 0.837792 0.336040
O O15 0.000000 0.901677 0.250000
O O16 0.334644 0.961489 0.325894
O O17 0.000000 0.030820 0.250000
#
# Coordination Sequence:
#
# PCOD9256012 Si02
#       8
#     8   8   8   8   8   8   8   8
#     4  10  21  31  53  76 104 137 171 204 254 306
#     4  10  18  33  53  77 105 132 167 213 251 302
#     4  10  18  32  52  76 107 133 166 213 261 295
#     4  11  19  32  51  82 108 130 164 212 254 310
#     4   9  18  31  53  75  98 135 178 216 251 294
#     4  10  17  34  52  76 106 134 165 210 256 297
#     4  10  18  32  52  81 106 127 171 217 255 298
#     4   8  17  34  49  72 102 135 173 215 249 288
#
# _framework density 20.944917
#
# number of rings (size 3 to 8) (size 9 to 14) (size 15 to 20)
#    0.000    2.250    2.500    3.000    0.000    3.000 
#    0.000    0.625    0.000    0.000    6.500    0.000 
#    0.000    0.000    0.000    0.000    0.000    0.000 
#
# Total GULP energy -178442.490634 kJ/mol
# GULP energy per Si atom -5576.327832 kJ/mol
# Density = 2.089725 g / cm^3
# Si number density = 20.944917 Si / 1000 Ang^3
#
#
#
# Elastic Constant Matrix: (Units=GPa)
#
#
# Indices 1 2 3 4 5 6 
#
# 1 27.0472 15.3733 6.8423 0.0000 -7.2980 0.0000
# 2 15.3733 55.6267 18.2719 0.0000 -0.5497 0.0000
# 3 6.8423 18.2719 91.1057 0.0000 -17.1511 0.0000
# 4 0.0000 0.0000 0.0000 19.7041 0.0000 0.5794
# 5 -7.2980 -0.5497 -17.1511 0.0000 20.7575 0.0000
# 6 0.0000 0.0000 0.0000 0.5794 0.0000 6.0673
#
#
#
# Elastic Compliance Matrix: (Units=1/GPa)
#
#
# Indices 1 2 3 4 5 6 
#
# 1 0.049733 -0.014482 0.002829 0.000000 0.019439 0.000000
# 2 -0.014482 0.023640 -0.005322 0.000000 -0.008863 0.000000
# 3 0.002829 -0.005322 0.014201 0.000000 0.012587 0.000000
# 4 0.000000 0.000000 0.000000 0.050894 0.000000 -0.004860
# 5 0.019439 -0.008863 0.012587 0.000000 0.065175 0.000000
# 6 0.000000 0.000000 0.000000 -0.004860 0.000000 0.165281
#
#
# Mechanical properties :
#
#
# Convention : Reuss Voigt Hill
#
# Bulk Modulus (GPa) = 18.64830 28.30604 23.47717
# Shear Modulus (GPa) = 11.88361 18.19194 15.03778
#
# Velocity S-wave (km/s) = 2.38455 2.95033 2.68240
# Velocity P-wave (km/s) = 4.06254 5.01496 4.56366
#
# Compressibility (1/GPa) = 0.05362418
#
# Stress axis : x y z
#
# Youngs Moduli (GPa) = 20.10731 42.30170 70.41876
#
# Poissons Ratio (x) = 0.61260 -0.19920
# Poissons Ratio (y) = 0.29119 0.37477
# Poissons Ratio (z) = -0.05688 0.22513
#
# Static dielectric constant tensor:
#      x y z
#    x 1.779230 0.000000 0.009430 
#    y 0.000000 1.771430 0.000000 
#    z 0.009430 0.000000 1.761060 
# 
# From -- ./inp_files/270851.got.cif
#   From: 2010.05.17/outbox.cif.g08.bks.cpg/sg15_136_cif.got.tgz:270851.got - 2010.06.03 18:47:42.
