data_PCOD9256066
_publ_section_title
;
Structure prediction by ZEFSAII (Michael W. Deem and Ramdas Pophale) SiO2 
 PCOD9256066
Probable space group: C 2/C
;
_chemical_formula_sum "Si O2"
_cell_formula_units_Z 40
_cell_length_a 26.775711
_cell_length_b 9.655798
_cell_length_c 19.426544
_cell_angle_alpha 90.000000
_cell_angle_beta 162.579278
_cell_angle_gamma 90.000000
_cell_volume 1503.682197
_symmetry_space_group_name_H-M "C 2/C"
_symmetry_group_IT_number 15
_symmetry_cell_setting 'monoclinic'
loop_
_space_group_symop_operation_xyz
x,y,z
-x,y,1/2-z
-x,-y,-z
x,-y,1/2+z
1/2+x,1/2+y,z
1/2-x,1/2+y,1/2-z
1/2-x,1/2-y,-z
1/2+x,1/2-y,1/2+z
loop_
_atom_site_type_symbol
_atom_site_label
_atom_site_fract_x
_atom_site_fract_y
_atom_site_fract_z
Si Si1 0.255951 0.720599 0.630513
Si Si2 0.273897 0.972341 0.130618
Si Si3 0.338995 0.042485 0.863769
Si Si4 0.306825 0.933110 0.021239
Si Si5 0.897257 0.142804 0.372293
O O1 0.194280 0.873257 0.530504
O O2 0.180973 0.649161 0.599929
O O3 0.224382 0.599136 0.533120
O O4 0.454441 0.739345 0.907068
O O5 0.472727 0.993044 0.390395
O O6 0.243663 0.908425 0.015977
O O7 0.254144 0.905883 0.180922
O O8 0.240346 0.902352 0.754063
O O9 0.500000 0.908989 0.250000
O O10 0.190515 0.846311 0.816618
O O11 0.000000 0.000000 0.500000
#
# Coordination Sequence:
#
# PCOD9256066 Si02
#       5
#     8   8   8   8   8
#     4  10  21  36  56  85 120 152 186 232 293 347
#     4  11  20  33  60  86 112 149 196 237 280 340
#     4   9  20  35  51  83 112 152 189 231 287 341
#     4  10  17  34  56  87 117 143 187 240 289 332
#     4   8  17  35  53  74 120 154 175 224 292 344
#
# _framework density 26.601365999999999
#
# number of rings (size 3 to 8) (size 9 to 14) (size 15 to 20)
#    0.000    2.800    4.000    0.600    2.800    0.000 
#    0.000    9.000    0.000    4.800   20.800    0.000 
#    0.000    0.000    0.000    0.000    0.000    0.000 
#
# Total GULP energy -111741.276196 kJ/mol
# GULP energy per Si atom -5587.063810 kJ/mol
# Density = 2.654082 g / cm^3
# Si number density = 26.601366 Si / 1000 Ang^3
#
#
#
# Elastic Constant Matrix: (Units=GPa)
#
#
# Indices 1 2 3 4 5 6 
#
# 1 149.5697 13.2564 18.4091 0.0000 -49.0867 0.0000
# 2 13.2564 57.0322 -4.5706 0.0000 -12.8384 0.0000
# 3 18.4091 -4.5706 99.2889 0.0000 -12.5501 0.0000
# 4 0.0000 0.0000 0.0000 21.7166 0.0000 -13.6446
# 5 -49.0867 -12.8384 -12.5501 0.0000 55.6844 0.0000
# 6 0.0000 0.0000 0.0000 -13.6446 0.0000 46.8495
#
#
#
# Elastic Compliance Matrix: (Units=1/GPa)
#
#
# Indices 1 2 3 4 5 6 
#
# 1 0.009468 -0.000444 -0.000755 0.000000 0.008073 0.000000
# 2 -0.000444 0.018714 0.001482 0.000000 0.004257 0.000000
# 3 -0.000755 0.001482 0.010539 0.000000 0.002051 0.000000
# 4 0.000000 0.000000 0.000000 0.056361 0.000000 0.016415
# 5 0.008073 0.004257 0.002051 0.000000 0.026519 0.000000
# 6 0.000000 0.000000 0.000000 0.016415 0.000000 0.026126
#
#
# Mechanical properties :
#
#
# Convention : Reuss Voigt Hill
#
# Bulk Modulus (GPa) = 25.45398 40.00896 32.73147
# Shear Modulus (GPa) = 31.19987 43.43649 37.31818
#
# Velocity S-wave (km/s) = 3.42843 4.04526 3.74955
# Velocity P-wave (km/s) = 5.02609 6.07385 5.57464
#
# Compressibility (1/GPa) = 0.03928658
#
# Stress axis : x y z
#
# Youngs Moduli (GPa) = 105.62203 53.43522 94.88438
#
# Poissons Ratio (x) = 0.02372 0.07167
# Poissons Ratio (y) = 0.04688 -0.14061
# Poissons Ratio (z) = 0.07978 -0.07919
#
# Static dielectric constant tensor:
#      x y z
#    x 2.217340 0.000000 -0.048810 
#    y 0.000000 2.330150 0.000000 
#    z -0.048810 0.000000 2.101800 
# 
# From -- ./inp_files/123206.got.cif
#   From: 2010.05.17/outbox.cif.g08.bks.cpg/sg15_62_cif.got.tgz:123206.got - 2010.06.03 18:47:42.
