data_PCOD9256080
_publ_section_title
;
Structure prediction by ZEFSAII (Michael W. Deem and Ramdas Pophale) SiO2 
 PCOD9256080
Probable space group: C 2/C
;
_chemical_formula_sum "Si O2"
_cell_formula_units_Z 64
_cell_length_a 9.539380
_cell_length_b 30.357748
_cell_length_c 14.902127
_cell_angle_alpha 90.000000
_cell_angle_beta 127.549019
_cell_angle_gamma 90.000000
_cell_volume 3421.521370
_symmetry_space_group_name_H-M "C 2/C"
_symmetry_group_IT_number 15
_symmetry_cell_setting 'monoclinic'
loop_
_space_group_symop_operation_xyz
x,y,z
-x,y,1/2-z
-x,-y,-z
x,-y,1/2+z
1/2+x,1/2+y,z
1/2-x,1/2+y,1/2-z
1/2-x,1/2-y,-z
1/2+x,1/2-y,1/2+z
loop_
_atom_site_type_symbol
_atom_site_label
_atom_site_fract_x
_atom_site_fract_y
_atom_site_fract_z
Si Si1 0.658891 0.608630 0.377773
Si Si2 0.521463 0.627800 0.521696
Si Si3 0.038644 0.781823 0.117631
Si Si4 0.251935 0.683433 0.637043
Si Si5 0.662388 0.411463 0.263771
Si Si6 0.910159 0.318757 0.912921
Si Si7 0.891484 0.607783 0.120735
Si Si8 0.516771 0.051984 0.514099
O O1 0.500000 0.594154 0.250000
O O2 0.595113 0.613905 0.454529
O O3 0.732776 0.655375 0.367809
O O4 0.826587 0.575843 0.445238
O O5 0.549048 0.680222 0.547243
O O6 0.612293 0.602860 0.642722
O O7 0.312063 0.618375 0.440311
O O8 0.182084 0.793388 0.248720
O O9 0.082347 0.732346 0.108151
O O10 0.849434 0.791184 0.093490
O O11 0.319037 0.633519 0.670291
O O12 0.043833 0.679434 0.548764
O O13 0.500000 0.436114 0.250000
O O14 0.848595 0.435457 0.352684
O O15 0.009231 0.348141 0.876165
O O16 0.000000 0.592641 0.250000
O O17 0.901311 0.572409 0.044969
O O18 0.500000 0.000000 0.500000
#
# Coordination Sequence:
#
# PCOD9256080 Si02
#       8
#     8   8   8   8   8   8   8   8
#     4  11  26  46  61  89 137 180 207 251 337 397
#     4  11  21  39  66  93 128 175 214 259 318 377
#     4  10  20  31  60  97 123 161 222 276 297 358
#     4  10  17  34  57  91 123 155 216 269 312 357
#     4  11  17  40  70  95 124 158 211 269 319 374
#     4  11  21  37  59  87 130 173 217 262 315 367
#     4  11  22  39  65  93 126 172 215 262 320 384
#     4  11  24  46  70  95 126 163 209 271 334 387
#
# _framework density 18.70513
#
# number of rings (size 3 to 8) (size 9 to 14) (size 15 to 20)
#    0.000    1.250    7.500    1.875    1.750    2.500 
#    2.250    0.625    0.000    0.000    0.000    0.000 
#    0.000    0.000    0.000    0.000    0.000    0.000 
#
# Total GULP energy -178435.004604 kJ/mol
# GULP energy per Si atom -5576.093894 kJ/mol
# Density = 1.866256 g / cm^3
# Si number density = 18.705130 Si / 1000 Ang^3
#
#
#
# Elastic Constant Matrix: (Units=GPa)
#
#
# Indices 1 2 3 4 5 6 
#
# 1 102.0133 42.6417 38.8524 0.0000 1.9050 0.0000
# 2 42.6417 98.3613 35.2713 0.0000 -2.6608 0.0000
# 3 38.8524 35.2713 111.0409 0.0000 13.6847 0.0000
# 4 0.0000 0.0000 0.0000 11.9661 0.0000 1.2545
# 5 1.9050 -2.6608 13.6847 0.0000 29.0839 0.0000
# 6 0.0000 0.0000 0.0000 1.2545 0.0000 1.8216
#
#
#
# Elastic Compliance Matrix: (Units=1/GPa)
#
#
# Indices 1 2 3 4 5 6 
#
# 1 0.012841 -0.004447 -0.003107 0.000000 0.000214 0.000000
# 2 -0.004447 0.013254 -0.003014 0.000000 0.002922 0.000000
# 3 -0.003107 -0.003014 0.011740 0.000000 -0.005596 0.000000
# 4 0.000000 0.000000 0.000000 0.090072 0.000000 -0.062030
# 5 0.000214 0.002922 -0.005596 0.000000 0.037270 0.000000
# 6 0.000000 0.000000 0.000000 -0.062030 0.000000 0.591680
#
#
# Mechanical properties :
#
#
# Convention : Reuss Voigt Hill
#
# Bulk Modulus (GPa) = 59.88368 60.54959 60.21664
# Shear Modulus (GPa) = 6.38114 21.55100 13.96607
#
# Velocity S-wave (km/s) = 1.84901 3.39801 2.73544
# Velocity P-wave (km/s) = 6.05331 6.91637 6.49918
#
# Compressibility (1/GPa) = 0.01669904
#
# Stress axis : x y z
#
# Youngs Moduli (GPa) = 77.87766 75.44671 85.17986
#
# Poissons Ratio (x) = 0.33550 0.26463
# Poissons Ratio (y) = 0.34631 0.25676
# Poissons Ratio (z) = 0.24194 0.22742
#
# Static dielectric constant tensor:
#      x y z
#    x 1.669730 0.000000 0.018550 
#    y 0.000000 1.672430 0.000000 
#    z 0.018550 0.000000 1.694800 
# 
# From -- ./inp_files/139849.got.cif
#   From: 2010.05.17/outbox.cif.g08.bks.cpg/sg15_70_cif.got.tgz:139849.got - 2010.06.03 18:47:42.
