data_PCOD9256047
_publ_section_title
;
Structure prediction by ZEFSAII (Michael W. Deem and Ramdas Pophale) SiO2 
 PCOD9256047
Probable space group: C 2/C
;
_chemical_formula_sum "Si O2"
_cell_formula_units_Z 40
_cell_length_a 11.667976
_cell_length_b 21.015628
_cell_length_c 8.955351
_cell_angle_alpha 90.000000
_cell_angle_beta 99.861144
_cell_angle_gamma 90.000000
_cell_volume 2163.496725
_symmetry_space_group_name_H-M "C 2/C"
_symmetry_group_IT_number 15
_symmetry_cell_setting 'monoclinic'
loop_
_space_group_symop_operation_xyz
x,y,z
-x,y,1/2-z
-x,-y,-z
x,-y,1/2+z
1/2+x,1/2+y,z
1/2-x,1/2+y,1/2-z
1/2-x,1/2-y,-z
1/2+x,1/2-y,1/2+z
loop_
_atom_site_type_symbol
_atom_site_label
_atom_site_fract_x
_atom_site_fract_y
_atom_site_fract_z
Si Si1 0.434279 0.659198 0.467278
Si Si2 0.170038 0.917077 0.933152
Si Si3 0.622679 0.472986 0.598639
Si Si4 0.500000 0.255373 0.250000
Si Si5 0.500000 0.756443 0.250000
Si Si6 0.159142 0.696770 0.038355
O O1 0.561577 0.627454 0.461921
O O2 0.355173 0.596938 0.463887
O O3 0.436740 0.699353 0.616891
O O4 0.416872 0.707916 0.325990
O O5 0.131277 0.956094 0.775725
O O6 0.275149 0.869375 0.928817
O O7 0.202471 0.969135 0.065264
O O8 0.500000 0.500000 0.500000
O O9 0.593600 0.216484 0.175109
O O10 0.564029 0.799165 0.385575
O O11 0.250000 0.750000 0.000000
#
# Coordination Sequence:
#
# PCOD9256047 Si02
#       6
#     8   8   8   4   4   8
#     4  10  17  34  55  89 120 148 194 250 313 361
#     4  11  21  36  58  84 125 159 189 248 314 370
#     4  10  20  32  58  88 118 155 199 250 313 362
#     4  10  22  32  63  91 120 162 204 246 302 370
#     4  10  18  36  63  87 120 166 196 252 304 360
#     4  11  21  40  61  86 127 164 204 250 307 364
#
# _framework density 18.488588
#
# number of rings (size 3 to 8) (size 9 to 14) (size 15 to 20)
#    0.000    1.600    6.000    1.800    5.600    0.000 
#    0.000   13.000    0.000    3.600    0.000    0.000 
#    0.000    0.000    0.000    0.000    0.000    0.000 
#
# Total GULP energy -111346.232316 kJ/mol
# GULP energy per Si atom -5567.311616 kJ/mol
# Density = 1.844651 g / cm^3
# Si number density = 18.488588 Si / 1000 Ang^3
#
#
#
# Elastic Constant Matrix: (Units=GPa)
#
#
# Indices 1 2 3 4 5 6 
#
# 1 52.4294 42.3970 40.7476 0.0000 -15.1891 0.0000
# 2 42.3970 112.3097 71.4840 0.0000 -10.3652 0.0000
# 3 40.7476 71.4840 136.8071 0.0000 -12.4365 0.0000
# 4 0.0000 0.0000 0.0000 19.2309 0.0000 -7.1939
# 5 -15.1891 -10.3652 -12.4365 0.0000 24.5484 0.0000
# 6 0.0000 0.0000 0.0000 -7.1939 0.0000 32.9185
#
#
#
# Elastic Compliance Matrix: (Units=1/GPa)
#
#
# Indices 1 2 3 4 5 6 
#
# 1 0.033675 -0.008704 -0.004111 0.000000 0.015078 0.000000
# 2 -0.008704 0.015705 -0.005766 0.000000 -0.001675 0.000000
# 3 -0.004111 -0.005766 0.011630 0.000000 0.000913 0.000000
# 4 0.000000 0.000000 0.000000 0.056629 0.000000 0.012376
# 5 0.015078 -0.001675 0.000913 0.000000 0.049821 0.000000
# 6 0.000000 0.000000 0.000000 0.012376 0.000000 0.033083
#
#
# Mechanical properties :
#
#
# Convention : Reuss Voigt Hill
#
# Bulk Modulus (GPa) = 41.93293 67.86704 54.89999
# Shear Modulus (GPa) = 20.35373 25.13406 22.74390
#
# Velocity S-wave (km/s) = 3.32155 3.69105 3.51117
# Velocity P-wave (km/s) = 6.11882 7.41299 6.79678
#
# Compressibility (1/GPa) = 0.02384761
#
# Stress axis : x y z
#
# Youngs Moduli (GPa) = 29.69529 63.67355 85.98437
#
# Poissons Ratio (x) = 0.55421 0.35352
# Poissons Ratio (y) = 0.25847 0.49579
# Poissons Ratio (z) = 0.12209 0.36714
#
# Static dielectric constant tensor:
#      x y z
#    x 1.745580 0.000000 -0.003270 
#    y 0.000000 1.670330 0.000000 
#    z -0.003270 0.000000 1.696580 
# 
# From -- ./inp_files/30395.got.cif
#   From: 2010.05.17/outbox.cif.g08.bks.cpg/sg15_16_cif.got.tgz:30395.got - 2010.06.03 18:47:42.
