data_PCOD9256427
_publ_section_title
;
Structure prediction by ZEFSAII (Michael W. Deem and Ramdas Pophale) SiO2 
 PCOD9256427
Probable space group: C 2/C
;
_chemical_formula_sum "Si O2"
_cell_formula_units_Z 52
_cell_length_a 10.213688
_cell_length_b 15.414676
_cell_length_c 23.091627
_cell_angle_alpha 90.000000
_cell_angle_beta 35.976370
_cell_angle_gamma 90.000000
_cell_volume 2135.716353
_symmetry_space_group_name_H-M "C 2/C"
_symmetry_group_IT_number 15
_symmetry_cell_setting 'monoclinic'
loop_
_space_group_symop_operation_xyz
x,y,z
-x,y,1/2-z
-x,-y,-z
x,-y,1/2+z
1/2+x,1/2+y,z
1/2-x,1/2+y,1/2-z
1/2-x,1/2-y,-z
1/2+x,1/2-y,1/2+z
loop_
_atom_site_type_symbol
_atom_site_label
_atom_site_fract_x
_atom_site_fract_y
_atom_site_fract_z
Si Si1 0.027143 0.209647 0.916488
Si Si2 0.000000 0.066681 0.250000
Si Si3 0.620494 0.220341 0.911475
Si Si4 0.044735 0.918475 0.150469
Si Si5 0.513347 0.917561 0.367590
Si Si6 0.000000 0.351452 0.250000
Si Si7 0.000000 0.652457 0.250000
Si Si8 0.468815 0.107208 0.132997
O O1 0.289175 0.205402 0.809215
O O2 0.937842 0.297409 0.916807
O O3 0.953584 0.116340 0.916161
O O4 0.995305 0.227638 0.995392
O O5 0.785607 0.110913 0.298462
O O6 0.899700 0.009953 0.339962
O O7 0.790351 0.150691 0.879325
O O8 0.461343 0.163712 0.927463
O O9 0.782238 0.287162 0.821595
O O10 0.784340 0.913075 0.262972
O O11 0.429223 0.904650 0.332376
O O12 0.453256 0.011326 0.415703
O O13 0.998284 0.600484 0.309978
#
# Coordination Sequence:
#
# PCOD9256427 Si02
#       8
#     8   4   8   8   8   4   4   8
#     4  11  24  35  65  89 118 149 209 243 295 345
#     4  10  20  40  65  83 124 164 198 235 319 346
#     4  12  20  39  63  88 112 164 199 242 287 366
#     4  10  17  38  61  85 110 159 197 238 276 368
#     4  10  20  38  64  79 124 162 192 232 319 345
#     4  10  22  44  56  86 122 162 188 248 300 366
#     4  12  22  38  63  89 122 148 212 251 295 340
#     4  11  22  36  60  95 115 157 196 262 290 357
#
# _framework density 24.347802000000001
#
# number of rings (size 3 to 8) (size 9 to 14) (size 15 to 20)
#    0.000    1.231    6.154    2.308    0.000    1.231 
#    0.000    0.000    3.385    5.538    0.000    0.000 
#    0.000    0.000    0.000    0.000    0.000    0.000 
#
# Total GULP energy -144996.684099 kJ/mol
# GULP energy per Si atom -5576.795542 kJ/mol
# Density = 2.429239 g / cm^3
# Si number density = 24.347802 Si / 1000 Ang^3
#
#
#
# Elastic Constant Matrix: (Units=GPa)
#
#
# Indices 1 2 3 4 5 6 
#
# 1 97.9582 42.1169 7.3974 -0.0127 27.0621 -0.0129
# 2 42.1169 142.0582 43.9372 -0.0099 14.9161 -0.0143
# 3 7.3974 43.9372 56.4305 -0.0462 13.9346 -0.0445
# 4 -0.0127 -0.0099 -0.0462 -23.0650 0.0169 -40.9107
# 5 27.0621 14.9161 13.9346 0.0169 31.6242 0.0148
# 6 -0.0129 -0.0143 -0.0445 -40.9107 0.0148 -3.5634
#
#
#
# Elastic Compliance Matrix: (Units=1/GPa)
#
#
# Indices 1 2 3 4 5 6 
#
# 1 0.015525 -0.004735 0.004916 -0.000013 -0.013218 -0.000008
# 2 -0.004735 0.010767 -0.008426 0.000007 0.002686 0.000005
# 3 0.004916 -0.008426 0.026587 -0.000030 -0.011947 -0.000017
# 4 -0.000013 0.000007 -0.000030 0.002239 0.000032 -0.025706
# 5 -0.013218 0.002686 -0.011947 0.000032 0.046930 0.000019
# 6 -0.000008 0.000005 -0.000017 -0.025706 0.000019 0.014493
#
#
# Mechanical properties :
#
#
# Convention : Reuss Voigt Hill
#
# Bulk Modulus (GPa) = 27.48169 53.70553 40.59361
# Shear Modulus (GPa) = 34.44451 14.53218 24.48835
#
# Velocity S-wave (km/s) = 3.76531 2.44572 3.17483
# Velocity P-wave (km/s) = 5.49682 5.48461 5.49072
#
# Compressibility (1/GPa) = 0.03638787
#
# Stress axis : x y z
#
# Youngs Moduli (GPa) = 64.41378 92.87393 37.61197
#
# Poissons Ratio (x) = 0.43978 -0.18489
# Poissons Ratio (y) = 0.30501 0.31692
# Poissons Ratio (z) = -0.31663 0.78256
#
# Static dielectric constant tensor:
#      x y z
#    x 1.971040 0.000000 0.015250 
#    y 0.000000 1.958120 0.000000 
#    z 0.015250 0.000000 1.983180 
# 
# From -- ./inp_files/197728.got.cif
#   From: 2010.05.17/outbox.cif.g08.bks.cpg/sg15_99_cif.got.tgz:197728.got - 2010.06.03 18:47:42.
