data_PCOD9256912
_publ_section_title
;
Structure prediction by ZEFSAII (Michael W. Deem and Ramdas Pophale) SiO2 
 PCOD9256912
Probable space group: C 2/C
;
_chemical_formula_sum "Si O2"
_cell_formula_units_Z 52
_cell_length_a 21.112295
_cell_length_b 25.246131
_cell_length_c 9.048794
_cell_angle_alpha 90.000000
_cell_angle_beta 36.379356
_cell_angle_gamma 90.000000
_cell_volume 2860.684877
_symmetry_space_group_name_H-M "C 2/C"
_symmetry_group_IT_number 15
_symmetry_cell_setting 'monoclinic'
loop_
_space_group_symop_operation_xyz
x,y,z
-x,y,1/2-z
-x,-y,-z
x,-y,1/2+z
1/2+x,1/2+y,z
1/2-x,1/2+y,1/2-z
1/2-x,1/2-y,-z
1/2+x,1/2-y,1/2+z
loop_
_atom_site_type_symbol
_atom_site_label
_atom_site_fract_x
_atom_site_fract_y
_atom_site_fract_z
Si Si1 0.920305 0.524873 0.270296
Si Si2 0.424635 0.242549 0.170466
Si Si3 0.644804 0.909686 0.097097
Si Si4 0.000000 0.191666 0.250000
Si Si5 0.599965 0.122850 0.363279
Si Si6 0.793482 0.835707 0.976963
Si Si7 0.659404 0.254836 0.868417
O O1 0.852117 0.472870 0.436359
O O2 0.862210 0.576307 0.316956
O O3 0.000000 0.541577 0.250000
O O4 0.000000 0.500000 0.000000
O O5 0.391127 0.182007 0.210370
O O6 0.351232 0.267185 0.437821
O O7 0.439043 0.271949 0.986640
O O8 0.542922 0.242839 0.019198
O O9 0.526539 0.890748 0.372577
O O10 0.655917 0.883568 0.915634
O O11 0.730053 0.888518 0.054159
O O12 0.089043 0.159349 0.173810
O O13 0.798219 0.801784 0.815346
O O14 0.727732 0.797755 0.210528
#
# Coordination Sequence:
#
# PCOD9256912 Si02
#       7
#     8   8   8   4   8   8   8
#     4  10  18  30  48  74 111 135 168 207 263 332
#     4  10  19  33  51  78 111 142 173 219 276 328
#     4  10  18  33  50  72 106 149 171 213 267 323
#     4  10  22  36  54  74 110 148 194 230 256 302
#     4  10  19  29  50  80 109 141 167 210 275 334
#     4  10  20  36  52  72 106 148 192 224 264 309
#     4   9  20  32  50  76 104 144 180 219 267 329
#
# _framework density 18.177465000000002
#
# number of rings (size 3 to 8) (size 9 to 14) (size 15 to 20)
#    0.000    2.154    4.615    0.923    6.462    0.615 
#    0.000    0.000    0.000    0.000    0.000    1.077 
#    0.000    0.000    0.000    0.000    0.000    0.000 
#
# Total GULP energy -144908.702356 kJ/mol
# GULP energy per Si atom -5573.411629 kJ/mol
# Density = 1.813609 g / cm^3
# Si number density = 18.177465 Si / 1000 Ang^3
#
#
#
# Elastic Constant Matrix: (Units=GPa)
#
#
# Indices 1 2 3 4 5 6 
#
# 1 95.7618 37.4215 17.2835 0.0000 5.7846 0.0000
# 2 37.4215 42.0796 1.8483 0.0000 -10.1267 0.0000
# 3 17.2835 1.8483 50.0485 0.0000 17.5392 0.0000
# 4 0.0000 0.0000 0.0000 6.6055 0.0000 5.0154
# 5 5.7846 -10.1267 17.5392 0.0000 28.3728 0.0000
# 6 0.0000 0.0000 0.0000 5.0154 0.0000 24.6344
#
#
#
# Elastic Compliance Matrix: (Units=1/GPa)
#
#
# Indices 1 2 3 4 5 6 
#
# 1 0.018770 -0.018700 -0.002695 0.000000 -0.008835 0.000000
# 2 -0.018700 0.045813 -0.002937 0.000000 0.021979 0.000000
# 3 -0.002695 -0.002937 0.027056 0.000000 -0.017224 0.000000
# 4 0.000000 0.000000 0.000000 0.179071 0.000001 -0.036457
# 5 -0.008835 0.021979 -0.017224 0.000001 0.055538 0.000000
# 6 0.000000 0.000000 0.000000 -0.036457 0.000000 0.048016
#
#
# Mechanical properties :
#
#
# Convention : Reuss Voigt Hill
#
# Bulk Modulus (GPa) = 23.26931 33.44406 28.35669
# Shear Modulus (GPa) = 11.43500 20.67830 16.05665
#
# Velocity S-wave (km/s) = 2.51086 3.37646 2.97531
# Velocity P-wave (km/s) = 4.60813 5.79993 5.23804
#
# Compressibility (1/GPa) = 0.04297505
#
# Stress axis : x y z
#
# Youngs Moduli (GPa) = 53.27528 21.82773 36.96067
#
# Poissons Ratio (x) = 0.40819 0.09962
# Poissons Ratio (y) = 0.99627 0.10854
# Poissons Ratio (z) = 0.14359 0.06410
#
# Static dielectric constant tensor:
#      x y z
#    x 1.643400 0.000000 0.031150 
#    y 0.000000 1.633590 0.000000 
#    z 0.031150 0.000000 1.670480 
# 
# From -- ./inp_files/58577.got.cif
#   From: 2010.05.17/outbox.cif.g08.bks.cpg/sg15_30_cif.got.tgz:58577.got - 2010.06.03 18:47:42.
