data_PCOD9256637
_publ_section_title
;
Structure prediction by ZEFSAII (Michael W. Deem and Ramdas Pophale) SiO2 
 PCOD9256637
Probable space group: C 2/C
;
_chemical_formula_sum "Si O2"
_cell_formula_units_Z 56
_cell_length_a 19.274436
_cell_length_b 12.017641
_cell_length_c 14.522203
_cell_angle_alpha 90.000000
_cell_angle_beta 102.405474
_cell_angle_gamma 90.000000
_cell_volume 3285.285710
_symmetry_space_group_name_H-M "C 2/C"
_symmetry_group_IT_number 15
_symmetry_cell_setting 'monoclinic'
loop_
_space_group_symop_operation_xyz
x,y,z
-x,y,1/2-z
-x,-y,-z
x,-y,1/2+z
1/2+x,1/2+y,z
1/2-x,1/2+y,1/2-z
1/2-x,1/2-y,-z
1/2+x,1/2-y,1/2+z
loop_
_atom_site_type_symbol
_atom_site_label
_atom_site_fract_x
_atom_site_fract_y
_atom_site_fract_z
Si Si1 0.946143 0.065024 0.157889
Si Si2 0.790026 0.982436 0.682077
Si Si3 0.796664 0.359120 0.992117
Si Si4 0.702335 0.481839 0.100857
Si Si5 0.584807 0.704535 0.524868
Si Si6 0.185513 0.826874 0.449825
Si Si7 0.030823 0.199470 0.857649
O O1 0.866093 0.068702 0.173956
O O2 0.000000 0.106034 0.250000
O O3 0.964483 0.936046 0.143126
O O4 0.950412 0.136610 0.067887
O O5 0.730485 0.913637 0.610600
O O6 0.784194 0.985804 0.789995
O O7 0.792397 0.104274 0.635412
O O8 0.875293 0.312757 0.002888
O O9 0.750000 0.250000 0.000000
O O10 0.773406 0.441314 0.067717
O O11 0.644609 0.381321 0.082096
O O12 0.673566 0.581961 0.028059
O O13 0.526369 0.732602 0.583120
O O14 0.250000 0.750000 0.500000
O O15 0.111317 0.766300 0.405388
O O16 0.000000 0.234325 0.750000
#
# Coordination Sequence:
#
# PCOD9256637 Si02
#       7
#     8   8   8   8   8   8   8
#     4  10  18  28  48  78 109 134 169 204 266 328
#     4  10  19  34  51  77 105 143 175 215 265 313
#     4   9  18  34  50  77 104 140 176 212 256 317
#     4  10  19  32  54  75 107 141 174 217 264 310
#     4  11  18  33  54  74 112 138 170 213 263 323
#     4  10  21  36  50  80 109 135 179 220 264 315
#     4  10  20  32  51  78 108 142 172 209 272 325
#
# _framework density 17.045701999999999
#
# number of rings (size 3 to 8) (size 9 to 14) (size 15 to 20)
#    0.000    2.000    5.714    3.000    2.000    3.429 
#    0.000    0.000    0.000    3.429    0.000    6.000 
#    0.000    0.000    0.000    0.000    0.000    0.000 
#
# Total GULP energy -156058.980449 kJ/mol
# GULP energy per Si atom -5573.535016 kJ/mol
# Density = 1.700691 g / cm^3
# Si number density = 17.045702 Si / 1000 Ang^3
#
#
#
# Elastic Constant Matrix: (Units=GPa)
#
#
# Indices 1 2 3 4 5 6 
#
# 1 80.3192 11.4473 32.1332 0.0000 3.9252 0.0000
# 2 11.4473 10.0662 6.1413 0.0000 2.3328 0.0000
# 3 32.1332 6.1413 115.7903 0.0000 -14.9904 0.0000
# 4 0.0000 0.0000 0.0000 10.4359 0.0000 10.8202
# 5 3.9252 2.3328 -14.9904 0.0000 26.9244 0.0000
# 6 0.0000 0.0000 0.0000 10.8202 0.0000 17.5262
#
#
#
# Elastic Compliance Matrix: (Units=1/GPa)
#
#
# Indices 1 2 3 4 5 6 
#
# 1 0.016493 -0.015403 -0.004201 0.000000 -0.003409 0.000000
# 2 -0.015403 0.121349 -0.003483 0.000000 -0.010208 0.000000
# 3 -0.004201 -0.003483 0.010890 0.000000 0.006978 0.000000
# 4 0.000000 0.000000 0.000000 0.266253 0.000000 -0.164376
# 5 -0.003409 -0.010208 0.006978 0.000000 0.042407 0.000000
# 6 0.000000 0.000000 0.000000 -0.164376 0.000000 0.158538
#
#
# Mechanical properties :
#
#
# Convention : Reuss Voigt Hill
#
# Bulk Modulus (GPa) = 9.75060 33.95770 21.85415
# Shear Modulus (GPa) = 7.18090 21.40755 14.29422
#
# Velocity S-wave (km/s) = 2.05472 3.54770 2.89897
# Velocity P-wave (km/s) = 3.37074 6.06188 4.90450
#
# Compressibility (1/GPa) = 0.10255783
#
# Stress axis : x y z
#
# Youngs Moduli (GPa) = 60.63175 8.24069 91.82445
#
# Poissons Ratio (x) = 0.12693 0.38579
# Poissons Ratio (y) = 0.93388 0.31986
# Poissons Ratio (z) = 0.25474 0.02871
#
# Static dielectric constant tensor:
#      x y z
#    x 1.589250 0.000000 0.011610 
#    y 0.000000 1.584000 0.000000 
#    z 0.011610 0.000000 1.572360 
# 
# From -- ./inp_files/160991.got.cif
#   From: 2010.05.17/outbox.cif.g08.bks.cpg/sg15_81_cif.got.tgz:160991.got - 2010.06.03 18:47:42.
