data_PCOD9256564
_publ_section_title
;
Structure prediction by ZEFSAII (Michael W. Deem and Ramdas Pophale) SiO2 
 PCOD9256564
Probable space group: C 2/C
;
_chemical_formula_sum "Si O2"
_cell_formula_units_Z 64
_cell_length_a 27.033166
_cell_length_b 18.630229
_cell_length_c 9.013888
_cell_angle_alpha 90.000000
_cell_angle_beta 90.000423
_cell_angle_gamma 90.000000
_cell_volume 4539.701128
_symmetry_space_group_name_H-M "C 2/C"
_symmetry_group_IT_number 15
_symmetry_cell_setting 'monoclinic'
loop_
_space_group_symop_operation_xyz
x,y,z
-x,y,1/2-z
-x,-y,-z
x,-y,1/2+z
1/2+x,1/2+y,z
1/2-x,1/2+y,1/2-z
1/2-x,1/2-y,-z
1/2+x,1/2-y,1/2+z
loop_
_atom_site_type_symbol
_atom_site_label
_atom_site_fract_x
_atom_site_fract_y
_atom_site_fract_z
Si Si1 0.800604 0.296990 0.670709
Si Si2 0.245928 0.077783 0.322813
Si Si3 0.254071 0.422213 0.322812
Si Si4 0.552217 0.577602 0.321391
Si Si5 0.851654 0.169812 0.177042
Si Si6 0.851653 0.169816 0.822963
Si Si7 0.699395 0.796986 0.170707
Si Si8 0.947783 0.922392 0.321385
O O1 0.787772 0.368382 0.761545
O O2 0.841206 0.244562 0.741339
O O3 0.749999 0.250002 0.674996
O O4 0.811583 0.313781 0.500001
O O5 0.248995 0.072412 0.500001
O O6 0.193044 0.114870 0.285030
O O7 0.249113 0.999997 0.250004
O O8 0.306955 0.385125 0.285031
O O9 0.212226 0.368377 0.261549
O O10 0.500000 0.600090 0.250000
O O11 0.596408 0.632467 0.287975
O O12 0.563933 0.499996 0.250007
O O13 0.547796 0.570562 0.500003
O O14 0.841207 0.244556 0.258672
O O15 0.848884 0.181731 0.000003
O O16 0.903592 0.132473 0.787975
O O17 0.000000 0.899902 0.250000
#
# Coordination Sequence:
#
# PCOD9256564 Si02
#       8
#     8   8   8   8   8   8   8   8
#     4   9  17  28  42  60  81 106 137 171 206 246
#     4  10  18  28  42  60  84 111 140 172 206 245
#     4  10  18  28  42  60  84 111 140 172 206 245
#     4  10  19  30  43  60  83 110 142 177 212 246
#     4   9  18  30  43  59  81 111 142 173 209 247
#     4   9  18  30  43  59  81 111 142 173 209 247
#     4   9  17  28  42  60  81 106 137 171 206 246
#     4  10  19  30  43  60  83 110 142 177 212 246
#
# _framework density 14.097845
#
# number of rings (size 3 to 8) (size 9 to 14) (size 15 to 20)
#    0.000    2.500    0.000    3.750    0.000    6.000 
#    0.000    0.000    0.000    0.000    0.000    0.000 
#    0.000    1.000    0.000   10.500    0.000    5.750 
#
# Total GULP energy -178374.593137 kJ/mol
# GULP energy per Si atom -5574.206036 kJ/mol
# Density = 1.406576 g / cm^3
# Si number density = 14.097845 Si / 1000 Ang^3
#
#
#
# Elastic Constant Matrix: (Units=GPa)
#
#
# Indices 1 2 3 4 5 6 
#
# 1 83.9419 54.1358 45.8598 0.0000 -0.0064 0.0000
# 2 54.1358 107.1191 61.1039 0.0000 -0.0068 0.0000
# 3 45.8598 61.1039 71.4618 0.0000 -0.0078 0.0000
# 4 0.0000 0.0000 0.0000 29.2229 0.0000 -0.0002
# 5 -0.0064 -0.0068 -0.0078 0.0000 12.0006 0.0000
# 6 0.0000 0.0000 0.0000 -0.0002 0.0000 25.4627
#
#
#
# Elastic Compliance Matrix: (Units=1/GPa)
#
#
# Indices 1 2 3 4 5 6 
#
# 1 0.019820 -0.005390 -0.008110 0.000000 0.000002 0.000000
# 2 -0.005390 0.019690 -0.013377 0.000000 0.000000 0.000000
# 3 -0.008110 -0.013377 0.030636 0.000000 0.000008 0.000000
# 4 0.000000 0.000000 0.000000 0.034220 0.000000 0.000000
# 5 0.000002 0.000000 0.000008 0.000000 0.083329 0.000000
# 6 0.000000 0.000000 0.000000 0.000000 0.000000 0.039273
#
#
# Mechanical properties :
#
#
# Convention : Reuss Voigt Hill
#
# Bulk Modulus (GPa) = 61.00801 64.96909 62.98855
# Shear Modulus (GPa) = 17.47099 20.09879 18.78489
#
# Velocity S-wave (km/s) = 3.52414 3.77989 3.65425
# Velocity P-wave (km/s) = 7.74132 8.07679 7.91084
#
# Compressibility (1/GPa) = 0.01639129
#
# Stress axis : x y z
#
# Youngs Moduli (GPa) = 50.45331 50.78649 32.64090
#
# Poissons Ratio (x) = 0.27376 0.26473
# Poissons Ratio (y) = 0.27196 0.43664
# Poissons Ratio (z) = 0.40920 0.67938
#
# Static dielectric constant tensor:
#      x y z
#    x 1.451160 0.000000 0.000000 
#    y 0.000000 1.442500 0.000000 
#    z 0.000000 0.000000 1.473620 
# 
# From -- ./inp_files/51884.got.cif
#   From: 2010.05.17/outbox.cif.g08.bks.cpg/sg15_26_cif.got.tgz:51884.got - 2010.06.03 18:47:42.
