data_PCOD9256941
_publ_section_title
;
Structure prediction by ZEFSAII (Michael W. Deem and Ramdas Pophale) SiO2 
 PCOD9256941
Probable space group: C 2/C
;
_chemical_formula_sum "Si O2"
_cell_formula_units_Z 64
_cell_length_a 26.742342
_cell_length_b 6.966104
_cell_length_c 23.065148
_cell_angle_alpha 90.000000
_cell_angle_beta 145.097251
_cell_angle_gamma 90.000000
_cell_volume 2458.568290
_symmetry_space_group_name_H-M "C 2/C"
_symmetry_group_IT_number 15
_symmetry_cell_setting 'monoclinic'
loop_
_space_group_symop_operation_xyz
x,y,z
-x,y,1/2-z
-x,-y,-z
x,-y,1/2+z
1/2+x,1/2+y,z
1/2-x,1/2+y,1/2-z
1/2-x,1/2-y,-z
1/2+x,1/2-y,1/2+z
loop_
_atom_site_type_symbol
_atom_site_label
_atom_site_fract_x
_atom_site_fract_y
_atom_site_fract_z
Si Si1 0.605430 0.286084 0.210733
Si Si2 0.372255 0.346709 0.508461
Si Si3 0.865642 0.318427 0.370739
Si Si4 0.605113 0.671801 0.341394
Si Si5 0.069300 0.753310 0.688122
Si Si6 0.760566 0.850685 0.071300
Si Si7 0.172876 0.125772 0.659302
Si Si8 0.583641 0.195704 0.457342
O O1 0.592114 0.519235 0.201384
O O2 0.691866 0.238957 0.330135
O O3 0.616555 0.253973 0.151994
O O4 0.518377 0.194874 0.155778
O O5 0.352218 0.289452 0.555547
O O6 0.465567 0.249627 0.587145
O O7 0.317764 0.304865 0.398269
O O8 0.388518 0.578418 0.524373
O O9 0.896015 0.353990 0.334631
O O10 0.766539 0.388381 0.278322
O O11 0.914356 0.378497 0.474709
O O12 0.866374 0.086688 0.379538
O O13 0.500000 0.622593 0.250000
O O14 0.601894 0.812114 0.282648
O O15 0.667558 0.508069 0.376310
O O16 0.663613 0.905785 0.000614
O O17 0.750000 0.750000 0.000000
#
# Coordination Sequence:
#
# PCOD9256941 Si02
#       8
#     8   8   8   8   8   8   8   8
#     4   9  18  31  47  74 102 138 174 222 259 312
#     4   9  16  29  48  75  98 135 174 225 257 307
#     4  10  19  33  51  80 103 139 175 225 264 315
#     4   9  17  30  47  74 109 134 172 224 267 309
#     4   8  16  29  50  70  99 133 175 216 268 298
#     4  11  19  26  45  75 108 138 162 213 277 321
#     4  10  19  32  53  76 109 133 178 221 268 307
#     4  10  18  30  49  73 107 135 178 218 267 312
#
# _framework density 26.031410000000001
#
# number of rings (size 3 to 8) (size 9 to 14) (size 15 to 20)
#    0.000    2.500    2.500    1.500    0.000    3.000 
#    0.000    0.625    0.000    3.000    0.000    0.000 
#    0.000    0.000    0.000    0.000    0.000    0.000 
#
# Total GULP energy -178689.273951 kJ/mol
# GULP energy per Si atom -5584.039811 kJ/mol
# Density = 2.597216 g / cm^3
# Si number density = 26.031410 Si / 1000 Ang^3
#
#
#
# Elastic Constant Matrix: (Units=GPa)
#
#
# Indices 1 2 3 4 5 6 
#
# 1 184.4683 24.4383 53.5978 -0.0001 -23.9785 -0.0002
# 2 24.4383 82.6164 22.1263 -0.0001 -12.2715 -0.0006
# 3 53.5978 22.1263 99.7788 -0.0001 -35.2395 -0.0001
# 4 -0.0001 -0.0001 -0.0001 23.1392 0.0000 1.1707
# 5 -23.9785 -12.2715 -35.2395 0.0000 53.8512 -0.0001
# 6 -0.0002 -0.0006 -0.0001 1.1707 -0.0001 22.7938
#
#
#
# Elastic Compliance Matrix: (Units=1/GPa)
#
#
# Indices 1 2 3 4 5 6 
#
# 1 0.006528 -0.001015 -0.003039 0.000000 0.000687 0.000000
# 2 -0.001015 0.013106 -0.001907 0.000000 0.001287 0.000000
# 3 -0.003039 -0.001907 0.014886 0.000000 0.007954 0.000000
# 4 0.000000 0.000000 0.000000 0.043329 0.000000 -0.002225
# 5 0.000687 0.001287 0.007954 0.000000 0.024374 0.000000
# 6 0.000000 0.000000 0.000000 -0.002225 0.000000 0.043986
#
#
# Mechanical properties :
#
#
# Convention : Reuss Voigt Hill
#
# Bulk Modulus (GPa) = 44.24887 63.02090 53.63489
# Shear Modulus (GPa) = 30.18176 37.73694 33.95935
#
# Velocity S-wave (km/s) = 3.40874 3.81158 3.61578
# Velocity P-wave (km/s) = 5.70332 6.60553 6.17094
#
# Compressibility (1/GPa) = 0.02259945
#
# Stress axis : x y z
#
# Youngs Moduli (GPa) = 153.19431 76.29999 67.17531
#
# Poissons Ratio (x) = 0.07745 0.20413
# Poissons Ratio (y) = 0.15550 0.12807
# Poissons Ratio (z) = 0.46553 0.14547
#
# Static dielectric constant tensor:
#      x y z
#    x 2.029730 0.000000 0.001430 
#    y 0.000000 2.200270 0.000000 
#    z 0.001430 0.000000 2.066880 
# 
# From -- ./inp_files/283499.got.cif
#   From: 2010.05.17/outbox.cif.g08.bks.cpg/sg15_142_cif.got.tgz:283499.got - 2010.06.03 18:47:42.
