data_PCOD9256385
_publ_section_title
;
Structure prediction by ZEFSAII (Michael W. Deem and Ramdas Pophale) SiO2 
 PCOD9256385
Probable space group: C 2/C
;
_chemical_formula_sum "Si O2"
_cell_formula_units_Z 56
_cell_length_a 19.249432
_cell_length_b 7.216737
_cell_length_c 18.607878
_cell_angle_alpha 90.000000
_cell_angle_beta 120.153030
_cell_angle_gamma 90.000000
_cell_volume 2235.190361
_symmetry_space_group_name_H-M "C 2/C"
_symmetry_group_IT_number 15
_symmetry_cell_setting 'monoclinic'
loop_
_space_group_symop_operation_xyz
x,y,z
-x,y,1/2-z
-x,-y,-z
x,-y,1/2+z
1/2+x,1/2+y,z
1/2-x,1/2+y,1/2-z
1/2-x,1/2-y,-z
1/2+x,1/2-y,1/2+z
loop_
_atom_site_type_symbol
_atom_site_label
_atom_site_fract_x
_atom_site_fract_y
_atom_site_fract_z
Si Si1 0.000000 0.291546 0.250000
Si Si2 0.133834 0.369008 0.960034
Si Si3 0.195374 0.889209 0.188660
Si Si4 0.836899 0.488039 0.165580
Si Si5 0.750000 0.750000 0.500000
Si Si6 0.071623 0.771069 0.931361
Si Si7 0.420533 0.671218 0.439376
Si Si8 0.791284 0.479304 0.364881
O O1 0.924686 0.420416 0.233956
O O2 0.970082 0.176345 0.165718
O O3 0.157519 0.345819 0.889806
O O4 0.073482 0.543518 0.930640
O O5 0.097580 0.199413 0.985158
O O6 0.132078 0.350646 0.114222
O O7 0.272969 0.994006 0.194958
O O8 0.193703 0.684965 0.155161
O O9 0.120043 0.004358 0.123695
O O10 0.213360 0.905076 0.282872
O O11 0.801325 0.328510 0.095106
O O12 0.791936 0.459658 0.453258
O O13 0.012325 0.819034 0.965050
O O14 0.163186 0.832054 0.987607
#
# Coordination Sequence:
#
# PCOD9256385 Si02
#       8
#     4   8   8   8   4   8   8   8
#     4   8  18  30  58  88 108 164 218 242 316 370
#     4   8  19  37  59  86 122 163 209 252 315 367
#     4  12  21  37  61  92 130 163 215 255 323 370
#     4  10  19  36  60  90 121 169 210 263 309 385
#     4   8  18  34  60  90 120 158 216 244 316 374
#     4  10  17  37  59  90 124 164 208 265 308 381
#     4  10  22  36  59  94 124 163 208 260 315 379
#     4  10  21  37  56  92 127 169 211 261 312 384
#
# _framework density 25.053795000000001
#
# number of rings (size 3 to 8) (size 9 to 14) (size 15 to 20)
#    0.857    1.714    1.429    3.000    0.000    0.571 
#    0.000    2.857    0.000    0.000    7.429    2.000 
#    0.000    0.000    0.000    0.000    0.000    0.000 
#
# Total GULP energy -155945.128932 kJ/mol
# GULP energy per Si atom -5569.468890 kJ/mol
# Density = 2.499677 g / cm^3
# Si number density = 25.053795 Si / 1000 Ang^3
#
#
#
# Elastic Constant Matrix: (Units=GPa)
#
#
# Indices 1 2 3 4 5 6 
#
# 1 127.7255 28.9139 47.6105 0.0000 26.4806 0.0000
# 2 28.9139 77.9705 5.8366 0.0000 4.6328 0.0000
# 3 47.6105 5.8366 134.6182 0.0000 8.8887 0.0000
# 4 0.0000 0.0000 0.0000 25.5185 0.0000 3.6770
# 5 26.4806 4.6328 8.8887 0.0000 47.5052 0.0000
# 6 0.0000 0.0000 0.0000 3.6770 0.0000 22.4194
#
#
#
# Elastic Compliance Matrix: (Units=1/GPa)
#
#
# Indices 1 2 3 4 5 6 
#
# 1 0.010945 -0.003501 -0.003381 0.000000 -0.005127 0.000000
# 2 -0.003501 0.014051 0.000598 0.000000 0.000469 0.000000
# 3 -0.003381 0.000598 0.008584 0.000000 0.000220 0.000000
# 4 0.000000 0.000000 0.000000 0.040136 0.000000 -0.006583
# 5 -0.005127 0.000469 0.000220 0.000000 0.023821 0.000000
# 6 0.000000 0.000000 0.000000 -0.006583 0.000000 0.045684
#
#
# Mechanical properties :
#
#
# Convention : Reuss Voigt Hill
#
# Bulk Modulus (GPa) = 47.59113 56.11513 51.85313
# Shear Modulus (GPa) = 30.71412 36.28552 33.49982
#
# Velocity S-wave (km/s) = 3.50512 3.80979 3.66063
# Velocity P-wave (km/s) = 5.95130 6.46522 6.21358
#
# Compressibility (1/GPa) = 0.02101232
#
# Stress axis : x y z
#
# Youngs Moduli (GPa) = 91.36661 71.16930 116.50162
#
# Poissons Ratio (x) = 0.24917 0.39384
# Poissons Ratio (y) = 0.31988 -0.06967
# Poissons Ratio (z) = 0.30887 -0.04256
#
# Static dielectric constant tensor:
#      x y z
#    x 2.012580 0.000000 -0.130380 
#    y 0.000000 1.779190 0.000000 
#    z -0.130380 0.000000 2.071030 
# 
# From -- ./inp_files/218351.got.cif
#   From: 2010.05.17/outbox.cif.g08.bks.cpg/sg15_110_cif.got.tgz:218351.got - 2010.06.03 18:47:42.
