data_PCOD9256091
_publ_section_title
;
Structure prediction by ZEFSAII (Michael W. Deem and Ramdas Pophale) SiO2 
 PCOD9256091
Probable space group: C 2/C
;
_chemical_formula_sum "Si O2"
_cell_formula_units_Z 56
_cell_length_a 9.590297
_cell_length_b 17.637526
_cell_length_c 17.156424
_cell_angle_alpha 90.000000
_cell_angle_beta 101.592504
_cell_angle_gamma 90.000000
_cell_volume 2842.797714
_symmetry_space_group_name_H-M "C 2/C"
_symmetry_group_IT_number 15
_symmetry_cell_setting 'monoclinic'
loop_
_space_group_symop_operation_xyz
x,y,z
-x,y,1/2-z
-x,-y,-z
x,-y,1/2+z
1/2+x,1/2+y,z
1/2-x,1/2+y,1/2-z
1/2-x,1/2-y,-z
1/2+x,1/2-y,1/2+z
loop_
_atom_site_type_symbol
_atom_site_label
_atom_site_fract_x
_atom_site_fract_y
_atom_site_fract_z
Si Si1 0.212319 0.931288 0.129066
Si Si2 0.587194 0.372694 0.840802
Si Si3 0.169741 0.019064 0.792750
Si Si4 0.351036 0.780911 0.697743
Si Si5 0.148447 0.714134 0.810998
Si Si6 0.393904 0.639298 0.593071
Si Si7 0.674766 0.596208 0.083801
O O1 0.242132 0.961223 0.220224
O O2 0.311977 0.858552 0.133280
O O3 0.053340 0.895832 0.106733
O O4 0.221530 0.008417 0.080759
O O5 0.500000 0.362080 0.750000
O O6 0.700506 0.436900 0.831833
O O7 0.639983 0.288949 0.863906
O O8 0.482175 0.404826 0.894441
O O9 0.190245 0.082745 0.859120
O O10 0.000000 0.018959 0.750000
O O11 0.500000 0.806716 0.750000
O O12 0.261971 0.736881 0.755594
O O13 0.386913 0.720217 0.634046
O O14 0.265227 0.851501 0.652662
O O15 0.000000 0.700361 0.750000
O O16 0.332033 0.636401 0.499981
#
# Coordination Sequence:
#
# PCOD9256091 Si02
#       7
#     8   8   8   8   8   8   8
#     4  11  20  37  61  91 120 162 211 247 294 366
#     4  10  17  34  58  87 116 159 201 245 289 362
#     4   9  15  31  58  85 114 153 207 242 283 351
#     4  12  22  41  65  90 121 164 207 251 299 370
#     4  11  21  37  64  89 118 156 210 251 296 356
#     4  11  21  36  62  95 121 160 203 256 303 360
#     4  12  23  36  63  94 127 153 205 259 310 352
#
# _framework density 19.698903999999999
#
# number of rings (size 3 to 8) (size 9 to 14) (size 15 to 20)
#    0.000    1.143   10.000    1.286    0.000    0.571 
#    0.000    0.714    0.000    0.857    0.000    0.000 
#    0.000    0.000    0.000    0.000    0.000    0.000 
#
# Total GULP energy -156150.358239 kJ/mol
# GULP energy per Si atom -5576.798509 kJ/mol
# Density = 1.965407 g / cm^3
# Si number density = 19.698904 Si / 1000 Ang^3
#
#
#
# Elastic Constant Matrix: (Units=GPa)
#
#
# Indices 1 2 3 4 5 6 
#
# 1 32.7390 4.4822 9.9924 0.0000 9.3160 0.0000
# 2 4.4822 126.2676 0.3154 0.0000 14.6150 0.0000
# 3 9.9924 0.3154 49.1493 0.0000 -0.6636 0.0000
# 4 0.0000 0.0000 0.0000 18.2426 0.0000 2.0022
# 5 9.3160 14.6150 -0.6636 0.0000 12.7151 0.0000
# 6 0.0000 0.0000 0.0000 2.0022 0.0000 23.3141
#
#
#
# Elastic Compliance Matrix: (Units=1/GPa)
#
#
# Indices 1 2 3 4 5 6 
#
# 1 0.042924 0.002532 -0.009213 0.000000 -0.034840 0.000000
# 2 0.002532 0.009286 -0.000744 0.000000 -0.012568 0.000000
# 3 -0.009213 -0.000744 0.022343 0.000000 0.008772 0.000000
# 4 0.000000 0.000000 0.000000 0.055338 0.000000 -0.004752
# 5 -0.034840 -0.012568 0.008772 0.000000 0.119077 0.000000
# 6 0.000000 0.000000 0.000000 -0.004752 0.000000 0.043301
#
#
# Mechanical properties :
#
#
# Convention : Reuss Voigt Hill
#
# Bulk Modulus (GPa) = 16.74991 26.41510 21.58251
# Shear Modulus (GPa) = 15.28955 23.74539 19.51747
#
# Velocity S-wave (km/s) = 2.78899 3.47568 3.15110
# Velocity P-wave (km/s) = 4.34658 5.43559 4.92130
#
# Compressibility (1/GPa) = 0.05970181
#
# Stress axis : x y z
#
# Youngs Moduli (GPa) = 23.29700 107.68494 44.75766
#
# Poissons Ratio (x) = -0.27265 0.41237
# Poissons Ratio (y) = -0.05899 0.03330
# Poissons Ratio (z) = 0.21465 0.08012
#
# Static dielectric constant tensor:
#      x y z
#    x 1.725960 0.000000 -0.002180 
#    y 0.000000 1.754090 0.000000 
#    z -0.002180 0.000000 1.680930 
# 
# From -- ./inp_files/191057.got.cif
#   From: 2010.05.17/outbox.cif.g08.bks.cpg/sg15_96_cif.got.tgz:191057.got - 2010.06.03 18:47:42.
