data_PCOD9256306
_publ_section_title
;
Structure prediction by ZEFSAII (Michael W. Deem and Ramdas Pophale) SiO2 
 PCOD9256306
Probable space group: C 2/C
;
_chemical_formula_sum "Si O2"
_cell_formula_units_Z 56
_cell_length_a 29.293241
_cell_length_b 13.923666
_cell_length_c 13.225240
_cell_angle_alpha 90.000000
_cell_angle_beta 30.681668
_cell_angle_gamma 90.000000
_cell_volume 2752.470854
_symmetry_space_group_name_H-M "C 2/C"
_symmetry_group_IT_number 15
_symmetry_cell_setting 'monoclinic'
loop_
_space_group_symop_operation_xyz
x,y,z
-x,y,1/2-z
-x,-y,-z
x,-y,1/2+z
1/2+x,1/2+y,z
1/2-x,1/2+y,1/2-z
1/2-x,1/2-y,-z
1/2+x,1/2-y,1/2+z
loop_
_atom_site_type_symbol
_atom_site_label
_atom_site_fract_x
_atom_site_fract_y
_atom_site_fract_z
Si Si1 0.449503 0.585088 0.653194
Si Si2 0.000000 0.028391 0.250000
Si Si3 0.241753 0.947369 0.932316
Si Si4 0.325545 0.987613 0.972608
Si Si5 0.753112 0.674222 0.205557
Si Si6 0.552718 0.741845 0.547025
Si Si7 0.187979 0.886442 0.384429
Si Si8 0.500000 0.924012 0.750000
O O1 0.500000 0.500000 0.500000
O O2 0.458104 0.541086 0.748032
O O3 0.500508 0.686901 0.557023
O O4 0.343844 0.589619 0.839871
O O5 0.914213 0.088041 0.451229
O O6 0.256644 0.875182 0.810092
O O7 0.216435 0.049018 0.927597
O O8 0.319713 0.959470 0.866075
O O9 0.258955 0.918344 0.163734
O O10 0.288921 0.094769 0.060007
O O11 0.421736 0.979403 0.842092
O O12 0.651667 0.700892 0.368843
O O13 0.804857 0.774253 0.107462
O O14 0.500000 0.717071 0.750000
O O15 0.546064 0.856650 0.574467
#
# Coordination Sequence:
#
# PCOD9256306 Si02
#       8
#     8   4   8   8   8   8   8   4
#     4  11  18  32  58  89 119 149 196 258 322 356
#     4  10  19  35  54  82 126 148 192 256 310 364
#     4  10  21  37  60  92 119 154 208 262 300 374
#     4  11  23  40  63  89 123 164 208 258 315 366
#     4  11  21  39  62  85 126 166 204 256 312 366
#     4  10  17  36  58  82 116 162 195 249 307 359
#     4  10  21  39  59  88 123 164 201 256 318 368
#     4  10  21  41  62  84 126 170 204 254 310 376
#
# _framework density 20.345355999999999
#
# number of rings (size 3 to 8) (size 9 to 14) (size 15 to 20)
#    0.429    1.143    3.571    3.429    0.000    1.714 
#    2.571    2.857    0.000    0.000    0.000    0.000 
#    0.000    0.000    0.000    0.000    0.000    0.000 
#
# Total GULP energy -155996.531772 kJ/mol
# GULP energy per Si atom -5571.304706 kJ/mol
# Density = 2.029905 g / cm^3
# Si number density = 20.345356 Si / 1000 Ang^3
#
#
#
# Elastic Constant Matrix: (Units=GPa)
#
#
# Indices 1 2 3 4 5 6 
#
# 1 61.9520 -13.6585 19.0502 0.0000 -20.3364 0.0000
# 2 -13.6585 52.0110 4.9582 0.0000 -8.8473 0.0000
# 3 19.0502 4.9582 51.6638 0.0000 -25.3947 0.0000
# 4 0.0000 0.0000 0.0000 17.0154 0.0000 -10.7906
# 5 -20.3364 -8.8473 -25.3947 0.0000 30.6271 0.0000
# 6 0.0000 0.0000 0.0000 -10.7906 0.0000 13.2292
#
#
#
# Elastic Compliance Matrix: (Units=1/GPa)
#
#
# Indices 1 2 3 4 5 6 
#
# 1 0.024581 0.009660 -0.001007 0.000000 0.018277 0.000000
# 2 0.009660 0.024092 0.001181 0.000000 0.014353 0.000000
# 3 -0.001007 0.001181 0.032835 0.000000 0.026898 0.000000
# 4 0.000000 0.000000 0.000000 0.121745 0.000000 0.099303
# 5 0.018277 0.014353 0.026898 0.000000 0.071236 0.000000
# 6 0.000000 0.000000 0.000000 0.099303 0.000000 0.156588
#
#
# Mechanical properties :
#
#
# Convention : Reuss Voigt Hill
#
# Bulk Modulus (GPa) = 9.88369 20.70298 15.29334
# Shear Modulus (GPa) = 11.23255 22.52613 16.87934
#
# Velocity S-wave (km/s) = 2.35222 3.33105 2.88347
# Velocity P-wave (km/s) = 3.49939 4.99924 4.31498
#
# Compressibility (1/GPa) = 0.10117677
#
# Stress axis : x y z
#
# Youngs Moduli (GPa) = 40.68251 41.50678 30.45491
#
# Poissons Ratio (x) = -0.40096 0.03066
# Poissons Ratio (y) = -0.39300 -0.03596
# Poissons Ratio (z) = 0.04096 -0.04902
#
# Static dielectric constant tensor:
#      x y z
#    x 1.746470 0.000000 -0.015010 
#    y 0.000000 1.764850 0.000000 
#    z -0.015010 0.000000 1.746180 
# 
# From -- ./inp_files/182144.got.cif
#   From: 2010.05.17/outbox.cif.g08.bks.cpg/sg15_92_cif.got.tgz:182144.got - 2010.06.03 18:47:42.
