data_PCOD9256225
_publ_section_title
;
Structure prediction by ZEFSAII (Michael W. Deem and Ramdas Pophale) SiO2 
 PCOD9256225
Probable space group: C 2/C
;
_chemical_formula_sum "Si O2"
_cell_formula_units_Z 40
_cell_length_a 10.272652
_cell_length_b 11.304643
_cell_length_c 13.300327
_cell_angle_alpha 90.000000
_cell_angle_beta 64.863653
_cell_angle_gamma 90.000000
_cell_volume 1398.279641
_symmetry_space_group_name_H-M "C 2/C"
_symmetry_group_IT_number 15
_symmetry_cell_setting 'monoclinic'
loop_
_space_group_symop_operation_xyz
x,y,z
-x,y,1/2-z
-x,-y,-z
x,-y,1/2+z
1/2+x,1/2+y,z
1/2-x,1/2+y,1/2-z
1/2-x,1/2-y,-z
1/2+x,1/2-y,1/2+z
loop_
_atom_site_type_symbol
_atom_site_label
_atom_site_fract_x
_atom_site_fract_y
_atom_site_fract_z
Si Si1 0.500000 0.623053 0.250000
Si Si2 0.000000 0.516965 0.750000
Si Si3 0.737247 0.710568 0.875036
Si Si4 0.774750 0.229804 0.860817
Si Si5 0.822292 0.992419 0.634931
Si Si6 0.021235 0.661650 0.061441
O O1 0.612130 0.715690 0.163348
O O2 0.591198 0.537762 0.293750
O O3 0.162521 0.568540 0.690429
O O4 0.992456 0.441117 0.651172
O O5 0.701032 0.719331 0.764690
O O6 0.626980 0.598525 0.949781
O O7 0.624412 0.814655 0.949736
O O8 0.717883 0.365284 0.891527
O O9 0.910751 0.234675 0.888921
O O10 0.650972 0.143161 0.940267
#
# Coordination Sequence:
#
# PCOD9256225 Si02
#       6
#     4   4   8   8   8   8
#     4  10  21  37  58  92 120 150 203 251 284 372
#     4  10  17  39  60  80 112 168 185 243 304 348
#     4  11  20  37  60  83 120 162 186 250 307 339
#     4   9  20  35  56  90 111 149 207 242 281 374
#     4  10  21  35  61  85 120 156 201 240 302 358
#     4  10  17  35  61  80 115 153 197 245 297 344
#
# _framework density 28.606580999999998
#
# number of rings (size 3 to 8) (size 9 to 14) (size 15 to 20)
#    0.000    2.000    6.000    0.600    2.800    0.800 
#    0.000    5.000    0.000    0.000    0.000    1.400 
#    0.000    0.000    0.000    0.000    0.000    0.000 
#
# Total GULP energy -111367.496433 kJ/mol
# GULP energy per Si atom -5568.374822 kJ/mol
# Density = 2.854147 g / cm^3
# Si number density = 28.606581 Si / 1000 Ang^3
#
#
#
# Elastic Constant Matrix: (Units=GPa)
#
#
# Indices 1 2 3 4 5 6 
#
# 1 163.1563 55.1022 25.2544 0.0000 -27.1523 0.0000
# 2 55.1022 160.9288 12.5364 0.0000 7.8982 0.0000
# 3 25.2544 12.5364 93.1580 0.0000 3.0412 0.0000
# 4 0.0000 0.0000 0.0000 17.1393 0.0000 1.7707
# 5 -27.1523 7.8982 3.0412 0.0000 32.5982 0.0000
# 6 0.0000 0.0000 0.0000 1.7707 0.0000 59.0022
#
#
#
# Elastic Compliance Matrix: (Units=1/GPa)
#
#
# Indices 1 2 3 4 5 6 
#
# 1 0.009029 -0.003333 -0.002278 0.000000 0.008540 0.000000
# 2 -0.003333 0.007579 0.000034 0.000000 -0.004616 0.000000
# 3 -0.002278 0.000034 0.011444 0.000000 -0.002973 0.000000
# 4 0.000000 0.000000 0.000000 0.058527 0.000000 -0.001756
# 5 0.008540 -0.004616 -0.002973 0.000000 0.039186 0.000000
# 6 0.000000 0.000000 0.000000 -0.001756 0.000000 0.017001
#
#
# Mechanical properties :
#
#
# Convention : Reuss Voigt Hill
#
# Bulk Modulus (GPa) = 59.17571 67.00325 63.08948
# Shear Modulus (GPa) = 31.33764 43.37126 37.35445
#
# Velocity S-wave (km/s) = 3.31338 3.89797 3.61750
# Velocity P-wave (km/s) = 5.94718 6.61303 6.28892
#
# Compressibility (1/GPa) = 0.01689883
#
# Stress axis : x y z
#
# Youngs Moduli (GPa) = 110.75864 131.94261 87.37897
#
# Poissons Ratio (x) = 0.43978 0.19904
# Poissons Ratio (y) = 0.36917 -0.00300
# Poissons Ratio (z) = 0.25229 -0.00453
#
# Static dielectric constant tensor:
#      x y z
#    x 2.296360 0.000000 -0.153050 
#    y 0.000000 2.339590 0.000000 
#    z -0.153050 0.000000 2.320200 
# 
# From -- ./inp_files/142542.got.cif
#   From: 2010.05.17/outbox.cif.g08.bks.cpg/sg15_72_cif.got.tgz:142542.got - 2010.06.03 18:47:42.
