data_PCOD9256630
_publ_section_title
;
Structure prediction by ZEFSAII (Michael W. Deem and Ramdas Pophale) SiO2 
 PCOD9256630
Probable space group: C 2/C
;
_chemical_formula_sum "Si O2"
_cell_formula_units_Z 60
_cell_length_a 5.713445
_cell_length_b 28.050859
_cell_length_c 14.392442
_cell_angle_alpha 90.000000
_cell_angle_beta 113.546821
_cell_angle_gamma 90.000000
_cell_volume 2114.569697
_symmetry_space_group_name_H-M "C 2/C"
_symmetry_group_IT_number 15
_symmetry_cell_setting 'monoclinic'
loop_
_space_group_symop_operation_xyz
x,y,z
-x,y,1/2-z
-x,-y,-z
x,-y,1/2+z
1/2+x,1/2+y,z
1/2-x,1/2+y,1/2-z
1/2-x,1/2-y,-z
1/2+x,1/2-y,1/2+z
loop_
_atom_site_type_symbol
_atom_site_label
_atom_site_fract_x
_atom_site_fract_y
_atom_site_fract_z
Si Si1 0.448776 0.690708 0.119226
Si Si2 0.747615 0.326839 0.110809
Si Si3 0.907995 0.709840 0.081728
Si Si4 0.707884 0.938763 0.363776
Si Si5 0.746405 0.337705 0.377116
Si Si6 0.401538 0.421705 0.634662
Si Si7 0.500000 0.427315 0.250000
Si Si8 0.106934 0.539926 0.374699
O O1 0.746068 0.703337 0.150099
O O2 0.434254 0.635233 0.141191
O O3 0.215550 0.715300 0.138711
O O4 0.348571 0.696029 0.998587
O O5 0.738169 0.385027 0.094543
O O6 0.537893 0.317396 0.155442
O O7 0.044308 0.314163 0.156488
O O8 0.750000 0.750000 0.000000
O O9 0.860903 0.665782 0.000278
O O10 0.500000 0.931695 0.250000
O O11 0.933947 0.956529 0.330903
O O12 0.623751 0.984477 0.406776
O O13 0.700607 0.389897 0.327956
O O14 0.500000 0.440005 0.750000
O O15 0.602932 0.439839 0.588008
O O16 0.100581 0.434486 0.592438
O O17 0.000000 0.542813 0.250000
#
# Coordination Sequence:
#
# PCOD9256630 Si02
#       8
#     8   8   8   8   8   8   4   8
#     4  10  20  36  59  76 105 137 176 213 262 315
#     4   9  18  31  46  76  99 136 174 210 249 315
#     4  10  20  36  59  84 104 133 170 214 261 324
#     4  10  18  28  48  72 105 138 178 217 262 303
#     4   9  18  30  48  74 105 133 170 203 253 319
#     4  10  20  37  53  75 101 141 184 223 254 302
#     4  10  18  28  50  74 106 142 170 214 264 310
#     4   9  20  30  49  73 104 134 181 225 260 294
#
# _framework density 28.374569999999999
#
# number of rings (size 3 to 8) (size 9 to 14) (size 15 to 20)
#    0.000    2.400    1.333    1.200    4.667    0.000 
#    0.000    1.333    2.933    0.000    0.000    0.000 
#    0.000    0.000    0.000    0.000    0.000    0.000 
#
# Total GULP energy -167381.548677 kJ/mol
# GULP energy per Si atom -5579.384956 kJ/mol
# Density = 2.830999 g / cm^3
# Si number density = 28.374570 Si / 1000 Ang^3
#
#
#
# Elastic Constant Matrix: (Units=GPa)
#
#
# Indices 1 2 3 4 5 6 
#
# 1 328.3948 53.4758 46.0215 0.0000 -35.5139 0.0000
# 2 53.4758 125.4475 7.8017 0.0000 -19.6946 0.0000
# 3 46.0215 7.8017 75.5811 0.0000 -17.3271 0.0000
# 4 0.0000 0.0000 0.0000 21.4926 0.0000 -13.7143
# 5 -35.5139 -19.6946 -17.3271 0.0000 39.8758 0.0000
# 6 0.0000 0.0000 0.0000 -13.7143 0.0000 37.2938
#
#
#
# Elastic Compliance Matrix: (Units=1/GPa)
#
#
# Indices 1 2 3 4 5 6 
#
# 1 0.003681 -0.001154 -0.001668 0.000000 0.001984 0.000000
# 2 -0.001154 0.009004 0.000619 0.000000 0.003688 0.000000
# 3 -0.001668 0.000619 0.015451 0.000000 0.005534 0.000000
# 4 0.000000 0.000000 0.000000 0.060793 0.000000 0.022356
# 5 0.001984 0.003688 0.005534 0.000000 0.031071 0.000000
# 6 0.000000 0.000000 0.000000 0.022356 0.000000 0.035035
#
#
# Mechanical properties :
#
#
# Convention : Reuss Voigt Hill
#
# Bulk Modulus (GPa) = 42.13963 82.66905 62.40434
# Shear Modulus (GPa) = 29.87728 47.87406 38.87567
#
# Velocity S-wave (km/s) = 3.24845 4.11203 3.70549
# Velocity P-wave (km/s) = 5.38083 7.19328 6.35203
#
# Compressibility (1/GPa) = 0.02373063
#
# Stress axis : x y z
#
# Youngs Moduli (GPa) = 271.64313 111.06238 64.72025
#
# Poissons Ratio (x) = 0.12817 0.10793
# Poissons Ratio (y) = 0.31350 -0.04005
# Poissons Ratio (z) = 0.45299 -0.06873
#
# Static dielectric constant tensor:
#      x y z
#    x 2.666430 0.000000 -0.100810 
#    y 0.000000 2.180060 0.000000 
#    z -0.100810 0.000000 2.286590 
# 
# From -- ./inp_files/228509.got.cif
#   From: 2010.05.17/outbox.cif.g08.bks.cpg/sg15_115_cif.got.tgz:228509.got - 2010.06.03 18:47:42.
