data_PCOD9256752
_publ_section_title
;
Structure prediction by ZEFSAII (Michael W. Deem and Ramdas Pophale) SiO2 
 PCOD9256752
Probable space group: C 2/C
;
_chemical_formula_sum "Si O2"
_cell_formula_units_Z 60
_cell_length_a 5.291286
_cell_length_b 31.590658
_cell_length_c 21.050772
_cell_angle_alpha 90.000000
_cell_angle_beta 65.755109
_cell_angle_gamma 90.000000
_cell_volume 3208.388026
_symmetry_space_group_name_H-M "C 2/C"
_symmetry_group_IT_number 15
_symmetry_cell_setting 'monoclinic'
loop_
_space_group_symop_operation_xyz
x,y,z
-x,y,1/2-z
-x,-y,-z
x,-y,1/2+z
1/2+x,1/2+y,z
1/2-x,1/2+y,1/2-z
1/2-x,1/2-y,-z
1/2+x,1/2-y,1/2+z
loop_
_atom_site_type_symbol
_atom_site_label
_atom_site_fract_x
_atom_site_fract_y
_atom_site_fract_z
Si Si1 0.493941 0.316545 0.827129
Si Si2 0.872870 0.460299 0.834954
Si Si3 0.124942 0.912738 0.665373
Si Si4 0.410699 0.296929 0.362170
Si Si5 0.209531 0.259968 0.077458
Si Si6 0.376524 0.395334 0.333560
Si Si7 0.873294 0.442223 0.335079
Si Si8 0.000000 0.265566 0.750000
O O1 0.500000 0.312996 0.750000
O O2 0.418708 0.364388 0.851400
O O3 0.297114 0.283999 0.883045
O O4 0.799812 0.297777 0.808513
O O5 0.564238 0.442638 0.858484
O O6 0.881424 0.508977 0.855014
O O7 0.000000 0.459187 0.750000
O O8 0.065657 0.430290 0.858079
O O9 0.000000 0.914188 0.750000
O O10 0.546631 0.287468 0.416276
O O11 0.411227 0.346509 0.348026
O O12 0.594332 0.268618 0.293677
O O13 0.093534 0.281686 0.385304
O O14 0.250000 0.250000 0.000000
O O15 0.500000 0.399829 0.250000
O O16 0.565540 0.424008 0.359576
O O17 0.065654 0.412798 0.358994
O O18 0.000000 0.441334 0.250000
#
# Coordination Sequence:
#
# PCOD9256752 Si02
#       8
#     8   8   8   8   8   8   8   4
#     4  10  20  33  53  77 106 136 180 221 264 308
#     4   9  16  28  39  64  98 140 165 198 257 320
#     4   9  18  25  44  65  96 129 171 210 246 305
#     4  11  21  36  55  76 107 136 185 219 264 314
#     4  11  24  39  55  76 110 148 179 219 270 323
#     4  10  18  29  47  75 100 134 174 219 258 310
#     4   9  17  27  43  64 104 138 166 202 261 324
#     4  10  20  32  52  78 104 136 176 224 270 300
#
# _framework density 18.700979
#
# number of rings (size 3 to 8) (size 9 to 14) (size 15 to 20)
#    0.000    2.133    2.000    2.000    4.667    3.200 
#    0.000    0.000    0.000    0.000    0.000    0.000 
#    0.000   21.333    0.000    0.000    0.000    0.000 
#
# Total GULP energy -167077.223362 kJ/mol
# GULP energy per Si atom -5569.240779 kJ/mol
# Density = 1.865841 g / cm^3
# Si number density = 18.700979 Si / 1000 Ang^3
#
#
#
# Elastic Constant Matrix: (Units=GPa)
#
#
# Indices 1 2 3 4 5 6 
#
# 1 100.9683 62.3460 3.4006 0.0000 18.3125 0.0000
# 2 62.3460 138.2342 14.2472 0.0000 11.6361 0.0000
# 3 3.4006 14.2472 24.5254 0.0000 12.7263 0.0000
# 4 0.0000 0.0000 0.0000 -0.5599 0.0000 3.5148
# 5 18.3125 11.6361 12.7263 0.0000 15.7975 0.0000
# 6 0.0000 0.0000 0.0000 3.5148 0.0000 29.1690
#
#
#
# Elastic Compliance Matrix: (Units=1/GPa)
#
#
# Indices 1 2 3 4 5 6 
#
# 1 0.020414 -0.008410 0.019107 0.000000 -0.032861 0.000000
# 2 -0.008410 0.011277 -0.010539 0.000000 0.009932 0.000000
# 3 0.019107 -0.010539 0.088856 0.000000 -0.085967 0.000000
# 4 0.000000 0.000000 0.000000 -1.016845 0.000000 0.122526
# 5 -0.032861 0.009932 -0.085967 0.000000 0.163332 0.000000
# 6 0.000000 0.000000 0.000000 0.122526 0.000000 0.019519
#
#
# Mechanical properties :
#
#
# Convention : Reuss Voigt Hill
#
# Bulk Modulus (GPa) = 8.27391 47.07952 27.67672
# Shear Modulus (GPa) = -7.42417 21.13027 6.85305
#
# Velocity S-wave (km/s) = -1.99463 3.36505 1.91638
# Velocity P-wave (km/s) = 0.93317 6.35040 4.44167
#
# Compressibility (1/GPa) = 0.12086178
#
# Stress axis : x y z
#
# Youngs Moduli (GPa) = 48.98705 88.67376 11.25422
#
# Poissons Ratio (x) = 0.74575 -0.21503
# Poissons Ratio (y) = 0.41198 0.11861
# Poissons Ratio (z) = -0.93598 0.93454
#
# Static dielectric constant tensor:
#      x y z
#    x 1.749560 0.000000 -0.004260 
#    y 0.000000 1.632890 0.000000 
#    z -0.004260 0.000000 1.647430 
# 
# From -- ./inp_files/186514.got.cif
#   From: 2010.05.17/outbox.cif.g08.bks.cpg/sg15_94_cif.got.tgz:186514.got - 2010.06.03 18:47:42.
