data_PCOD9256778
_publ_section_title
;
Structure prediction by ZEFSAII (Michael W. Deem and Ramdas Pophale) SiO2 
 PCOD9256778
Probable space group: C 2/C
;
_chemical_formula_sum "Si O2"
_cell_formula_units_Z 64
_cell_length_a 16.336489
_cell_length_b 15.639864
_cell_length_c 11.580306
_cell_angle_alpha 90.000000
_cell_angle_beta 61.154894
_cell_angle_gamma 90.000000
_cell_volume 2591.670107
_symmetry_space_group_name_H-M "C 2/C"
_symmetry_group_IT_number 15
_symmetry_cell_setting 'monoclinic'
loop_
_space_group_symop_operation_xyz
x,y,z
-x,y,1/2-z
-x,-y,-z
x,-y,1/2+z
1/2+x,1/2+y,z
1/2-x,1/2+y,1/2-z
1/2-x,1/2-y,-z
1/2+x,1/2-y,1/2+z
loop_
_atom_site_type_symbol
_atom_site_label
_atom_site_fract_x
_atom_site_fract_y
_atom_site_fract_z
Si Si1 0.314094 0.577000 0.323335
Si Si2 0.188590 0.402930 0.201980
Si Si3 0.459578 0.323443 0.162722
Si Si4 0.030450 0.632634 0.354050
Si Si5 0.761341 0.397544 0.848497
Si Si6 0.399080 0.127695 0.959756
Si Si7 0.382414 0.330582 0.987506
Si Si8 0.225555 0.119071 0.634172
O O1 0.318092 0.616916 0.192788
O O2 0.205361 0.593127 0.435920
O O3 0.383249 0.620767 0.366014
O O4 0.321631 0.474820 0.319252
O O5 0.224334 0.499720 0.160717
O O6 0.274341 0.343503 0.100866
O O7 0.185584 0.383929 0.340820
O O8 0.101148 0.392595 0.177210
O O9 0.500000 0.367246 0.250000
O O10 0.507200 0.230112 0.119594
O O11 0.450599 0.364752 0.042322
O O12 0.350582 0.314805 0.270396
O O13 0.141219 0.637793 0.261109
O O14 0.030152 0.596678 0.486666
O O15 0.000000 0.592152 0.250000
O O16 0.744598 0.367139 0.988251
O O17 0.400798 0.230314 0.964726
#
# Coordination Sequence:
#
# PCOD9256778 Si02
#       8
#     8   8   8   8   8   8   8   8
#     4   9  16  27  46  71 102 117 156 195 242 276
#     4   9  16  27  46  71 102 117 156 195 242 276
#     4   9  19  34  50  69  95 129 165 195 230 283
#     4   9  19  34  50  69  95 129 165 195 230 283
#     4  10  18  29  49  72 100 126 148 199 249 278
#     4   9  15  28  51  71  90 125 167 198 225 274
#     4   9  15  28  51  71  90 125 167 198 225 274
#     4  10  18  29  49  72 100 126 148 199 249 278
#
# _framework density 24.694500999999999
#
# number of rings (size 3 to 8) (size 9 to 14) (size 15 to 20)
#    0.000    2.750    2.500    1.500    0.000    1.500 
#    0.000    1.250    0.000    0.000    0.000    5.250 
#    0.000    0.000    0.000    0.000    0.000    0.000 
#
# Total GULP energy -178245.838783 kJ/mol
# GULP energy per Si atom -5570.182462 kJ/mol
# Density = 2.463829 g / cm^3
# Si number density = 24.694501 Si / 1000 Ang^3
#
#
#
# Elastic Constant Matrix: (Units=GPa)
#
#
# Indices 1 2 3 4 5 6 
#
# 1 116.7835 13.8929 66.6663 0.0000 61.7187 0.0000
# 2 13.8929 55.3162 5.6983 0.0000 14.1683 0.0000
# 3 66.6663 5.6983 129.5811 0.0000 81.1546 0.0000
# 4 0.0000 0.0000 0.0000 372.4523 0.0000 246.4588
# 5 61.7187 14.1683 81.1546 0.0000 77.0814 0.0000
# 6 0.0000 0.0000 0.0000 246.4588 0.0000 172.2190
#
#
#
# Elastic Compliance Matrix: (Units=1/GPa)
#
#
# Indices 1 2 3 4 5 6 
#
# 1 0.014895 -0.000851 -0.000747 0.000000 -0.010984 0.000000
# 2 -0.000851 0.019739 0.004155 0.000000 -0.007322 0.000000
# 3 -0.000747 0.004155 0.023553 0.000000 -0.024963 0.000000
# 4 0.000000 0.000000 0.000000 0.050631 0.000000 -0.072457
# 5 -0.010984 -0.007322 -0.024963 0.000000 0.049396 0.000000
# 6 0.000000 0.000000 0.000000 -0.072457 0.000000 0.109499
#
#
# Mechanical properties :
#
#
# Convention : Reuss Voigt Hill
#
# Bulk Modulus (GPa) = 15.79728 52.68844 34.24286
# Shear Modulus (GPa) = 17.62439 138.71210 78.16824
#
# Velocity S-wave (km/s) = 2.67441 7.50288 5.63230
# Velocity P-wave (km/s) = 3.99344 9.82039 7.49625
#
# Compressibility (1/GPa) = 0.06330205
#
# Stress axis : x y z
#
# Youngs Moduli (GPa) = 67.13554 50.66154 42.45826
#
# Poissons Ratio (x) = 0.04310 0.03170
# Poissons Ratio (y) = 0.05711 -0.17642
# Poissons Ratio (z) = 0.05013 -0.21051
#
# Static dielectric constant tensor:
#      x y z
#    x 2.001400 0.000000 0.062230 
#    y 0.000000 1.947400 0.000000 
#    z 0.062230 0.000000 2.167070 
# 
# From -- ./inp_files/106399.got.cif
#   From: 2010.05.17/outbox.cif.g08.bks.cpg/sg15_54_cif.got.tgz:106399.got - 2010.06.03 18:47:42.
