data_PCOD9256582
_publ_section_title
;
Structure prediction by ZEFSAII (Michael W. Deem and Ramdas Pophale) SiO2 
 PCOD9256582
Probable space group: C 2/C
;
_chemical_formula_sum "Si O2"
_cell_formula_units_Z 52
_cell_length_a 15.497089
_cell_length_b 21.183781
_cell_length_c 14.153809
_cell_angle_alpha 90.000000
_cell_angle_beta 151.701010
_cell_angle_gamma 90.000000
_cell_volume 2202.783789
_symmetry_space_group_name_H-M "C 2/C"
_symmetry_group_IT_number 15
_symmetry_cell_setting 'monoclinic'
loop_
_space_group_symop_operation_xyz
x,y,z
-x,y,1/2-z
-x,-y,-z
x,-y,1/2+z
1/2+x,1/2+y,z
1/2-x,1/2+y,1/2-z
1/2-x,1/2-y,-z
1/2+x,1/2-y,1/2+z
loop_
_atom_site_type_symbol
_atom_site_label
_atom_site_fract_x
_atom_site_fract_y
_atom_site_fract_z
Si Si1 0.362168 0.671034 0.257661
Si Si2 0.731694 0.832191 0.115810
Si Si3 0.000000 0.299905 0.750000
Si Si4 0.944647 0.579593 0.562717
Si Si5 0.228711 0.685606 0.838565
Si Si6 0.449227 0.058371 0.340621
Si Si7 0.653808 0.647481 0.032626
O O1 0.248770 0.612583 0.108469
O O2 0.572782 0.665549 0.438641
O O3 0.301533 0.740956 0.166957
O O4 0.336389 0.668990 0.347725
O O5 0.723026 0.819658 0.218543
O O6 0.943666 0.845012 0.298368
O O7 0.612273 0.776748 0.951227
O O8 0.606589 0.891542 0.961892
O O9 0.183318 0.324565 0.873814
O O10 0.961159 0.568259 0.465234
O O11 0.083490 0.633788 0.729385
O O12 0.993324 0.509570 0.641662
O O13 0.239020 0.075863 0.115838
#
# Coordination Sequence:
#
# PCOD9256582 Si02
#       7
#     8   8   4   8   8   8   8
#     4  10  18  28  44  59  83 118 150 182 213 249
#     4   9  18  30  45  61  83 112 146 185 222 263
#     4  10  18  30  46  60  82 114 146 188 232 258
#     4   9  16  28  42  64  84 107 145 180 215 261
#     4  10  18  28  44  59  83 118 150 182 213 249
#     4   8  16  28  44  62  84 108 138 182 224 256
#     4   9  18  30  45  61  83 112 146 185 222 263
#
# _framework density 23.606493
#
# number of rings (size 3 to 8) (size 9 to 14) (size 15 to 20)
#    0.000    2.769    1.538    1.385    0.000    1.231 
#    0.000    6.923    0.000    0.000    0.000    0.000 
#    0.000    0.000    0.000   22.154    0.000    1.231 
#
# Total GULP energy -144759.178447 kJ/mol
# GULP energy per Si atom -5567.660710 kJ/mol
# Density = 2.355276 g / cm^3
# Si number density = 23.606493 Si / 1000 Ang^3
#
#
#
# Elastic Constant Matrix: (Units=GPa)
#
#
# Indices 1 2 3 4 5 6 
#
# 1 67.2417 -16.5117 30.4932 0.0000 -7.2897 0.0000
# 2 -16.5117 132.1079 71.8821 0.0000 15.1868 0.0000
# 3 30.4932 71.8821 215.4824 0.0000 20.1750 0.0000
# 4 0.0000 0.0000 0.0000 15.7668 0.0000 14.4016
# 5 -7.2897 15.1868 20.1750 0.0000 19.6877 0.0000
# 6 0.0000 0.0000 0.0000 14.4016 0.0000 -2.4223
#
#
#
# Elastic Compliance Matrix: (Units=1/GPa)
#
#
# Indices 1 2 3 4 5 6 
#
# 1 0.019028 0.003996 -0.004863 0.000000 0.008947 0.000000
# 2 0.003996 0.010444 -0.003798 0.000000 -0.002685 0.000000
# 3 -0.004863 -0.003798 0.007179 0.000000 -0.006228 0.000000
# 4 0.000000 0.000000 0.000000 0.009863 0.000000 0.058639
# 5 0.008947 -0.002685 -0.006228 0.000000 0.062559 0.000000
# 6 0.000000 0.000000 0.000000 0.058639 0.000000 -0.064198
#
#
# Mechanical properties :
#
#
# Convention : Reuss Voigt Hill
#
# Bulk Modulus (GPa) = 36.60230 65.17325 50.88778
# Shear Modulus (GPa) = 78.97183 28.53766 53.75475
#
# Velocity S-wave (km/s) = 5.79017 3.48068 4.77709
# Velocity P-wave (km/s) = 7.76146 6.61979 7.21325
#
# Compressibility (1/GPa) = 0.02732069
#
# Stress axis : x y z
#
# Youngs Moduli (GPa) = 52.55285 95.74570 139.29310
#
# Poissons Ratio (x) = -0.38261 0.67745
# Poissons Ratio (y) = -0.21001 0.52907
# Poissons Ratio (z) = 0.25559 0.36366
#
# Static dielectric constant tensor:
#      x y z
#    x 1.976100 0.000000 -0.088580 
#    y 0.000000 2.095620 0.000000 
#    z -0.088580 0.000000 1.867710 
# 
# From -- ./inp_files/253463.got.cif
#   From: 2010.05.17/outbox.cif.g08.bks.cpg/sg15_127_cif.got.tgz:253463.got - 2010.06.03 18:47:42.
