data_PCOD9256163
_publ_section_title
;
Structure prediction by ZEFSAII (Michael W. Deem and Ramdas Pophale) SiO2 
 PCOD9256163
Probable space group: C 2/C
;
_chemical_formula_sum "Si O2"
_cell_formula_units_Z 56
_cell_length_a 10.781469
_cell_length_b 19.085848
_cell_length_c 15.024881
_cell_angle_alpha 90.000000
_cell_angle_beta 58.187243
_cell_angle_gamma 90.000000
_cell_volume 2627.269151
_symmetry_space_group_name_H-M "C 2/C"
_symmetry_group_IT_number 15
_symmetry_cell_setting 'monoclinic'
loop_
_space_group_symop_operation_xyz
x,y,z
-x,y,1/2-z
-x,-y,-z
x,-y,1/2+z
1/2+x,1/2+y,z
1/2-x,1/2+y,1/2-z
1/2-x,1/2-y,-z
1/2+x,1/2-y,1/2+z
loop_
_atom_site_type_symbol
_atom_site_label
_atom_site_fract_x
_atom_site_fract_y
_atom_site_fract_z
Si Si1 0.293186 0.439140 0.722106
Si Si2 0.000000 0.371044 0.250000
Si Si3 0.211363 0.331064 0.520236
Si Si4 0.654597 0.039384 0.455836
Si Si5 0.988524 0.322408 0.058564
Si Si6 0.784893 0.048144 0.587152
Si Si7 0.500000 0.116912 0.250000
Si Si8 0.029711 0.842554 0.953555
O O1 0.267094 0.464124 0.831827
O O2 0.357897 0.497480 0.631515
O O3 0.129106 0.426000 0.747407
O O4 0.386063 0.368939 0.667610
O O5 0.023912 0.328228 0.330996
O O6 0.141033 0.419201 0.185431
O O7 0.250000 0.250000 0.500000
O O8 0.151056 0.349894 0.445635
O O9 0.080192 0.341238 0.640723
O O10 0.355999 0.361725 0.510759
O O11 0.614226 0.122068 0.484107
O O12 0.726639 0.011716 0.519287
O O13 0.500000 0.000000 0.500000
O O14 0.005813 0.240125 0.030595
O O15 0.887706 0.111434 0.519988
#
# Coordination Sequence:
#
# PCOD9256163 Si02
#       8
#     8   4   8   8   8   8   4   8
#     4  11  21  39  64  92 122 173 217 256 325 389
#     4  10  23  40  68  90 122 169 210 276 313 384
#     4   9  19  38  61  95 128 164 210 262 318 393
#     4  11  23  39  69  93 120 172 221 274 307 385
#     4  10  21  42  64  98 127 161 222 257 328 394
#     4  11  24  43  61  94 133 161 221 275 323 383
#     4  10  17  34  66  88 118 169 220 256 309 386
#     4  10  24  40  64  94 136 168 200 279 336 383
#
# _framework density 21.314909
#
# number of rings (size 3 to 8) (size 9 to 14) (size 15 to 20)
#    0.000    1.714    1.429    3.429    2.000    5.143 
#    7.714    0.000    0.000    0.000    0.000    0.000 
#    0.000    0.000    0.000    0.000    0.000    0.000 
#
# Total GULP energy -156304.643474 kJ/mol
# GULP energy per Si atom -5582.308695 kJ/mol
# Density = 2.126640 g / cm^3
# Si number density = 21.314909 Si / 1000 Ang^3
#
#
#
# Elastic Constant Matrix: (Units=GPa)
#
#
# Indices 1 2 3 4 5 6 
#
# 1 56.8584 22.6218 33.8921 0.0000 7.5710 0.0000
# 2 22.6218 96.3833 36.9182 0.0000 -2.7167 0.0000
# 3 33.8921 36.9182 98.9005 0.0000 17.6307 0.0000
# 4 0.0000 0.0000 0.0000 20.8332 0.0000 -4.7977
# 5 7.5710 -2.7167 17.6307 0.0000 43.5050 0.0000
# 6 0.0000 0.0000 0.0000 -4.7977 0.0000 33.2519
#
#
#
# Elastic Compliance Matrix: (Units=1/GPa)
#
#
# Indices 1 2 3 4 5 6 
#
# 1 0.022799 -0.002925 -0.006447 0.000000 -0.001538 0.000000
# 2 -0.002925 0.012804 -0.004323 0.000000 0.003060 0.000000
# 3 -0.006447 -0.004323 0.014855 0.000000 -0.005168 0.000000
# 4 0.000000 0.000000 0.000000 0.049650 0.000000 0.007164
# 5 -0.001538 0.003060 -0.005168 0.000000 0.025539 0.000000
# 6 0.000000 0.000000 0.000000 0.007164 0.000000 0.031107
#
#
# Mechanical properties :
#
#
# Convention : Reuss Voigt Hill
#
# Bulk Modulus (GPa) = 43.34853 48.77848 46.06351
# Shear Modulus (GPa) = 26.06433 30.09870 28.08152
#
# Velocity S-wave (km/s) = 3.50068 3.76186 3.63362
# Velocity P-wave (km/s) = 6.05979 6.46554 6.26595
#
# Compressibility (1/GPa) = 0.02306883
#
# Stress axis : x y z
#
# Youngs Moduli (GPa) = 43.86172 78.10215 67.31559
#
# Poissons Ratio (x) = 0.22845 0.43398
# Poissons Ratio (y) = 0.12829 0.29098
# Poissons Ratio (z) = 0.28278 0.33761
#
# Static dielectric constant tensor:
#      x y z
#    x 1.802320 0.000000 0.053010 
#    y 0.000000 1.788940 0.000000 
#    z 0.053010 0.000000 1.863760 
# 
# From -- ./inp_files/146017.got.cif
#   From: 2010.05.17/outbox.cif.g08.bks.cpg/sg15_74_cif.got.tgz:146017.got - 2010.06.03 18:47:42.
