data_PCOD9256515
_publ_section_title
;
Structure prediction by ZEFSAII (Michael W. Deem and Ramdas Pophale) SiO2 
 PCOD9256515
Probable space group: C 2/C
;
_chemical_formula_sum "Si O2"
_cell_formula_units_Z 60
_cell_length_a 18.312040
_cell_length_b 16.640077
_cell_length_c 25.886428
_cell_angle_alpha 90.000000
_cell_angle_beta 158.097772
_cell_angle_gamma 90.000000
_cell_volume 2942.393832
_symmetry_space_group_name_H-M "C 2/C"
_symmetry_group_IT_number 15
_symmetry_cell_setting 'monoclinic'
loop_
_space_group_symop_operation_xyz
x,y,z
-x,y,1/2-z
-x,-y,-z
x,-y,1/2+z
1/2+x,1/2+y,z
1/2-x,1/2+y,1/2-z
1/2-x,1/2-y,-z
1/2+x,1/2-y,1/2+z
loop_
_atom_site_type_symbol
_atom_site_label
_atom_site_fract_x
_atom_site_fract_y
_atom_site_fract_z
Si Si1 0.248484 0.645888 0.046752
Si Si2 0.500000 0.097785 0.250000
Si Si3 0.487344 0.961001 0.325321
Si Si4 0.678025 0.110692 0.113357
Si Si5 0.208048 0.446343 0.190608
Si Si6 0.875220 0.097164 0.963644
Si Si7 0.925645 0.905454 0.014546
Si Si8 0.973519 0.782788 0.849903
O O1 0.200560 0.573779 0.976495
O O2 0.042480 0.695605 0.913131
O O3 0.280710 0.614083 0.124811
O O4 0.408620 0.701995 0.126099
O O5 0.717512 0.134976 0.390818
O O6 0.500002 0.041825 0.301152
O O7 0.385803 0.969271 0.314844
O O8 0.351666 0.900931 0.202671
O O9 0.752618 0.189470 0.192904
O O10 0.747987 0.031631 0.189459
O O11 0.450407 0.098154 0.949864
O O12 0.399998 0.395027 0.329951
O O13 0.000270 0.115371 0.994223
O O14 0.939179 0.157657 0.049669
O O15 0.902796 0.003422 0.996967
#
# Coordination Sequence:
#
# PCOD9256515 Si02
#       8
#     8   4   8   8   8   8   8   8
#     4  10  22  33  45  71 106 141 183 208 246 303
#     4  10  18  26  52  80 108 126 168 210 280 312
#     4   9  18  31  47  73 100 138 168 213 259 311
#     4  10  20  34  50  68  95 146 181 217 255 299
#     4   9  18  34  53  68 100 138 182 220 264 305
#     4   9  17  29  49  65  97 135 177 208 260 297
#     4   9  16  30  48  76  95 130 167 222 264 315
#     4  11  21  32  48  69 105 146 177 215 242 302
#
# _framework density 20.391559999999998
#
# number of rings (size 3 to 8) (size 9 to 14) (size 15 to 20)
#    0.000    2.400    1.333    2.800    1.867    0.000 
#    0.000    0.000    0.000    0.000    0.000    0.000 
#    0.000   17.067    0.000    0.000    0.000    0.000 
#
# Total GULP energy -167210.459501 kJ/mol
# GULP energy per Si atom -5573.681983 kJ/mol
# Density = 2.034515 g / cm^3
# Si number density = 20.391560 Si / 1000 Ang^3
#
#
#
# Elastic Constant Matrix: (Units=GPa)
#
#
# Indices 1 2 3 4 5 6 
#
# 1 81.3031 16.6351 28.4489 -0.0070 -4.4269 -0.0002
# 2 16.6351 29.3320 1.4495 0.0055 -10.2247 -0.0014
# 3 28.4489 1.4495 92.0527 -0.0210 -5.4141 -0.0059
# 4 -0.0070 0.0055 -0.0210 21.0494 0.0069 1.0730
# 5 -4.4269 -10.2247 -5.4141 0.0069 33.2405 0.0035
# 6 -0.0002 -0.0014 -0.0059 1.0730 0.0035 18.2763
#
#
#
# Elastic Compliance Matrix: (Units=1/GPa)
#
#
# Indices 1 2 3 4 5 6 
#
# 1 0.015799 -0.009254 -0.004827 0.000003 -0.001529 -0.000002
# 2 -0.009254 0.043609 0.002918 -0.000016 0.012657 0.000003
# 3 -0.004827 0.002918 0.012443 0.000009 0.002281 0.000003
# 4 0.000003 -0.000016 0.000009 0.047650 -0.000013 -0.002797
# 5 -0.001529 0.012657 0.002281 -0.000013 0.034145 -0.000004
# 6 -0.000002 0.000003 0.000003 -0.002797 -0.000004 0.054880
#
#
# Mechanical properties :
#
#
# Convention : Reuss Voigt Hill
#
# Bulk Modulus (GPa) = 20.19226 32.86165 26.52695
# Shear Modulus (GPa) = 20.21342 24.92353 22.56848
#
# Velocity S-wave (km/s) = 3.15185 3.49986 3.33040
# Velocity P-wave (km/s) = 4.81345 5.69933 5.27502
#
# Compressibility (1/GPa) = 0.04952393
#
# Stress axis : x y z
#
# Youngs Moduli (GPa) = 63.29565 22.93123 80.36451
#
# Poissons Ratio (x) = 0.21221 0.38791
# Poissons Ratio (y) = 0.58576 -0.23449
# Poissons Ratio (z) = 0.30552 -0.06691
#
# Static dielectric constant tensor:
#      x y z
#    x 1.737870 0.000000 0.046230 
#    y 0.000000 1.723830 -0.000010 
#    z 0.046230 -0.000010 1.861090 
# 
# From -- ./inp_files/245456.got.cif
#   From: 2010.05.17/outbox.cif.g08.bks.cpg/sg15_123_cif.got.tgz:245456.got - 2010.06.03 18:47:42.
