data_PCOD9256639
_publ_section_title
;
Structure prediction by ZEFSAII (Michael W. Deem and Ramdas Pophale) SiO2 
 PCOD9256639
Probable space group: C 2/C
;
_chemical_formula_sum "Si O2"
_cell_formula_units_Z 48
_cell_length_a 24.659660
_cell_length_b 23.027161
_cell_length_c 5.423975
_cell_angle_alpha 90.000000
_cell_angle_beta 62.389402
_cell_angle_gamma 90.000000
_cell_volume 2729.208122
_symmetry_space_group_name_H-M "C 2/C"
_symmetry_group_IT_number 15
_symmetry_cell_setting 'monoclinic'
loop_
_space_group_symop_operation_xyz
x,y,z
-x,y,1/2-z
-x,-y,-z
x,-y,1/2+z
1/2+x,1/2+y,z
1/2-x,1/2+y,1/2-z
1/2-x,1/2-y,-z
1/2+x,1/2-y,1/2+z
loop_
_atom_site_type_symbol
_atom_site_label
_atom_site_fract_x
_atom_site_fract_y
_atom_site_fract_z
Si Si1 0.723576 0.345810 0.106548
Si Si2 0.279013 0.526169 0.094254
Si Si3 0.408177 0.351126 0.979253
Si Si4 0.696986 0.762973 0.309783
Si Si5 0.579795 0.482252 0.656420
Si Si6 0.066329 0.217347 0.562160
O O1 0.665483 0.351412 0.410160
O O2 0.784811 0.325107 0.113312
O O3 0.725816 0.405483 0.950943
O O4 0.706789 0.290390 0.976566
O O5 0.252315 0.507288 0.413158
O O6 0.350190 0.505210 0.955730
O O7 0.421108 0.321216 0.216468
O O8 0.425084 0.418248 0.946042
O O9 0.437516 0.320303 0.680768
O O10 0.625594 0.758121 0.393357
O O11 0.750000 0.750000 0.000000
O O12 0.554958 0.520967 0.485661
O O13 0.000000 0.245499 0.750000
#
# Coordination Sequence:
#
# PCOD9256639 Si02
#       6
#     8   8   8   8   8   8
#     4  10  20  33  51  86 109 137 184 225 283 322
#     4  10  20  29  49  79 110 144 170 220 276 324
#     4  11  20  34  57  75 103 140 184 221 267 320
#     4  10  21  34  57  80 108 141 178 237 275 325
#     4  10  18  28  48  79  96 139 176 221 272 299
#     4  11  24  39  56  76 105 147 185 224 273 321
#
# _framework density 17.587519
#
# number of rings (size 3 to 8) (size 9 to 14) (size 15 to 20)
#    0.000    1.667    5.000    1.500    9.333    0.000 
#    0.000    0.000    0.000   10.000    0.000    0.000 
#    0.000    1.333    0.000    0.167    0.000    0.000 
#
# Total GULP energy -133666.784883 kJ/mol
# GULP energy per Si atom -5569.449370 kJ/mol
# Density = 1.754749 g / cm^3
# Si number density = 17.587519 Si / 1000 Ang^3
#
#
#
# Elastic Constant Matrix: (Units=GPa)
#
#
# Indices 1 2 3 4 5 6 
#
# 1 54.2551 19.8457 32.5299 0.0000 -5.4856 0.0000
# 2 19.8457 48.2248 8.0011 0.0000 -4.1188 0.0000
# 3 32.5299 8.0011 89.2496 0.0000 12.9560 0.0000
# 4 0.0000 0.0000 0.0000 7.8882 0.0000 4.1945
# 5 -5.4856 -4.1188 12.9560 0.0000 36.0003 0.0000
# 6 0.0000 0.0000 0.0000 4.1945 0.0000 10.0423
#
#
#
# Elastic Compliance Matrix: (Units=1/GPa)
#
#
# Indices 1 2 3 4 5 6 
#
# 1 0.029156 -0.009585 -0.010819 0.000000 0.007239 0.000000
# 2 -0.009585 0.024569 0.001155 0.000000 0.000935 0.000000
# 3 -0.010819 0.001155 0.016106 0.000000 -0.007313 0.000000
# 4 0.000000 0.000000 0.000000 0.162966 0.000000 -0.068068
# 5 0.007239 0.000935 -0.007313 0.000000 0.031619 0.000000
# 6 0.000000 0.000000 0.000000 -0.068068 0.000000 0.128010
#
#
# Mechanical properties :
#
#
# Convention : Reuss Voigt Hill
#
# Bulk Modulus (GPa) = 31.91423 34.72032 33.31727
# Shear Modulus (GPa) = 11.32845 19.54300 15.43572
#
# Velocity S-wave (km/s) = 2.54070 3.33706 2.96573
# Velocity P-wave (km/s) = 5.17612 5.88492 5.54186
#
# Compressibility (1/GPa) = 0.03133399
#
# Stress axis : x y z
#
# Youngs Moduli (GPa) = 34.29821 40.70183 62.09005
#
# Poissons Ratio (x) = 0.39014 0.67172
# Poissons Ratio (y) = 0.32876 -0.07174
# Poissons Ratio (z) = 0.37106 -0.04703
#
# Static dielectric constant tensor:
#      x y z
#    x 1.979990 0.000000 -0.459910 
#    y 0.000000 1.601670 0.000000 
#    z -0.459910 0.000000 2.453460 
# 
# From -- ./inp_files/10722.got.cif
#   From: 2010.05.17/outbox.cif.g08.bks.cpg/sg15_6_cif.got.tgz:10722.got - 2010.06.03 18:47:42.
