data_PCOD9256591
_publ_section_title
;
Structure prediction by ZEFSAII (Michael W. Deem and Ramdas Pophale) SiO2 
 PCOD9256591
Probable space group: C 2/C
;
_chemical_formula_sum "Si O2"
_cell_formula_units_Z 60
_cell_length_a 18.862601
_cell_length_b 31.772493
_cell_length_c 8.260233
_cell_angle_alpha 90.000000
_cell_angle_beta 46.138264
_cell_angle_gamma 90.000000
_cell_volume 3569.347922
_symmetry_space_group_name_H-M "C 2/C"
_symmetry_group_IT_number 15
_symmetry_cell_setting 'monoclinic'
loop_
_space_group_symop_operation_xyz
x,y,z
-x,y,1/2-z
-x,-y,-z
x,-y,1/2+z
1/2+x,1/2+y,z
1/2-x,1/2+y,1/2-z
1/2-x,1/2-y,-z
1/2+x,1/2-y,1/2+z
loop_
_atom_site_type_symbol
_atom_site_label
_atom_site_fract_x
_atom_site_fract_y
_atom_site_fract_z
Si Si1 0.080667 0.093304 0.387599
Si Si2 0.500000 0.775431 0.250000
Si Si3 0.207379 0.702823 0.533513
Si Si4 0.135012 0.176447 0.458220
Si Si5 0.677203 0.640361 0.931935
Si Si6 0.882851 0.983566 0.472124
Si Si7 0.646498 0.565623 0.795419
Si Si8 0.055772 0.204475 0.921736
O O1 0.104581 0.127079 0.493451
O O2 0.125443 0.048452 0.364474
O O3 0.965269 0.083811 0.544536
O O4 0.128579 0.114152 0.155027
O O5 0.409273 0.798034 0.306616
O O6 0.446557 0.746877 0.471720
O O7 0.250000 0.750000 0.500000
O O8 0.260812 0.685695 0.286732
O O9 0.242747 0.671784 0.620375
O O10 0.119432 0.197291 0.657879
O O11 0.054884 0.196961 0.463984
O O12 0.709615 0.605883 0.748176
O O13 0.594575 0.669412 0.982310
O O14 0.833252 0.959685 0.400946
O O15 0.000000 0.986387 0.250000
O O16 0.849809 0.029754 0.573192
#
# Coordination Sequence:
#
# PCOD9256591 Si02
#       8
#     8   4   8   8   8   8   8   8
#     4  10  18  28  44  67 101 135 174 206 240 299
#     4  12  22  40  54  74 104 130 174 224 270 302
#     4  11  22  37  55  76 100 134 174 218 263 315
#     4  10  21  33  50  80 101 138 180 209 251 307
#     4  11  20  32  51  69  96 137 176 205 254 301
#     4  10  19  28  39  68 101 137 173 203 250 293
#     4  11  19  28  43  65  99 139 169 211 243 304
#     4  11  20  32  54  75 103 135 173 220 250 303
#
# _framework density 16.809792999999999
#
# number of rings (size 3 to 8) (size 9 to 14) (size 15 to 20)
#    0.000    1.333    4.000    5.200    5.600    0.533 
#    0.000    0.000    0.000    0.000    0.000    0.000 
#    0.000    9.600    0.000    0.000    0.000    1.867 
#
# Total GULP energy -167327.214790 kJ/mol
# GULP energy per Si atom -5577.573826 kJ/mol
# Density = 1.677153 g / cm^3
# Si number density = 16.809793 Si / 1000 Ang^3
#
#
#
# Elastic Constant Matrix: (Units=GPa)
#
#
# Indices 1 2 3 4 5 6 
#
# 1 87.3223 49.4148 30.7813 0.0000 11.5542 0.0000
# 2 49.4148 98.6629 20.5863 0.0000 1.4068 0.0000
# 3 30.7813 20.5863 44.3333 0.0000 7.9080 0.0000
# 4 0.0000 0.0000 0.0000 10.1202 0.0000 5.8203
# 5 11.5542 1.4068 7.9080 0.0000 19.0502 0.0000
# 6 0.0000 0.0000 0.0000 5.8203 0.0000 32.5438
#
#
#
# Elastic Compliance Matrix: (Units=1/GPa)
#
#
# Indices 1 2 3 4 5 6 
#
# 1 0.020262 -0.008190 -0.008835 0.000000 -0.008017 0.000000
# 2 -0.008190 0.014570 -0.001915 0.000000 0.004687 0.000000
# 3 -0.008835 -0.001915 0.030886 0.000000 -0.007321 0.000000
# 4 0.000000 0.000000 0.000000 0.110141 0.000000 -0.019698
# 5 -0.008017 0.004687 -0.007321 0.000000 0.060048 0.000000
# 6 0.000000 0.000000 0.000000 -0.019698 0.000000 0.034251
#
#
# Mechanical properties :
#
#
# Convention : Reuss Voigt Hill
#
# Bulk Modulus (GPa) = 35.92295 47.98704 41.95500
# Shear Modulus (GPa) = 15.75711 20.97857 18.36784
#
# Velocity S-wave (km/s) = 3.06498 3.53653 3.30917
# Velocity P-wave (km/s) = 5.82599 6.72942 6.29394
#
# Compressibility (1/GPa) = 0.02783736
#
# Stress axis : x y z
#
# Youngs Moduli (GPa) = 49.35429 68.63254 32.37733
#
# Poissons Ratio (x) = 0.56212 0.28605
# Poissons Ratio (y) = 0.40422 0.06201
# Poissons Ratio (z) = 0.43604 0.13144
#
# Static dielectric constant tensor:
#      x y z
#    x 1.592520 0.000000 0.064150 
#    y 0.000000 1.614260 0.000000 
#    z 0.064150 0.000000 1.603750 
# 
# From -- ./inp_files/52548.got.cif
#   From: 2010.05.17/outbox.cif.g08.bks.cpg/sg15_27_cif.got.tgz:52548.got - 2010.06.03 18:47:42.
