data_PCOD9256722
_publ_section_title
;
Structure prediction by ZEFSAII (Michael W. Deem and Ramdas Pophale) SiO2 
 PCOD9256722
Probable space group: C 2/C
;
_chemical_formula_sum "Si O2"
_cell_formula_units_Z 48
_cell_length_a 18.826553
_cell_length_b 24.358266
_cell_length_c 5.270942
_cell_angle_alpha 90.000000
_cell_angle_beta 87.628425
_cell_angle_gamma 90.000000
_cell_volume 2415.089763
_symmetry_space_group_name_H-M "C 2/C"
_symmetry_group_IT_number 15
_symmetry_cell_setting 'monoclinic'
loop_
_space_group_symop_operation_xyz
x,y,z
-x,y,1/2-z
-x,-y,-z
x,-y,1/2+z
1/2+x,1/2+y,z
1/2-x,1/2+y,1/2-z
1/2-x,1/2-y,-z
1/2+x,1/2-y,1/2+z
loop_
_atom_site_type_symbol
_atom_site_label
_atom_site_fract_x
_atom_site_fract_y
_atom_site_fract_z
Si Si1 0.182019 0.982102 0.623486
Si Si2 0.074821 0.633285 0.815807
Si Si3 0.118624 0.687229 0.311488
Si Si4 0.277737 0.354802 0.877085
Si Si5 0.160199 0.471919 0.379240
Si Si6 0.811814 0.208593 0.893140
O O1 0.205535 0.919086 0.612819
O O2 0.142053 0.001514 0.381791
O O3 0.254899 0.019048 0.620584
O O4 0.088857 0.678739 0.597803
O O5 0.136833 0.588194 0.802171
O O6 0.000000 0.606600 0.750000
O O7 0.074927 0.657730 0.096471
O O8 0.196310 0.657827 0.309695
O O9 0.128943 0.749779 0.221480
O O10 0.324286 0.328077 0.641400
O O11 0.288744 0.326707 0.150673
O O12 0.133173 0.487429 0.662437
O O13 0.750000 0.250000 0.000000
#
# Coordination Sequence:
#
# PCOD9256722 Si02
#       6
#     8   8   8   8   8   8
#     4  10  18  29  45  67  94 129 162 193 238 290
#     4  12  24  36  51  70  95 134 180 219 254 288
#     4  11  20  36  52  68  96 123 160 216 266 299
#     4  11  19  32  52  74  97 122 165 209 253 311
#     4  10  20  33  47  65  88 124 169 213 255 282
#     4  10  20  32  51  76  93 118 157 210 267 314
#
# _framework density 19.875036000000001
#
# number of rings (size 3 to 8) (size 9 to 14) (size 15 to 20)
#    0.000    1.333    0.000   11.500    0.000    0.667 
#    0.000    0.000    0.000    0.000    0.000    0.000 
#    0.000    0.000    0.000    0.000    0.000  210.000 
#
# Total GULP energy -133910.025946 kJ/mol
# GULP energy per Si atom -5579.584414 kJ/mol
# Density = 1.982980 g / cm^3
# Si number density = 19.875036 Si / 1000 Ang^3
#
#
#
# Elastic Constant Matrix: (Units=GPa)
#
#
# Indices 1 2 3 4 5 6 
#
# 1 2.7292 1.1893 2.1185 0.0000 1.4097 0.0000
# 2 1.1893 77.9301 38.6875 0.0000 0.6216 0.0000
# 3 2.1185 38.6875 172.7359 0.0000 5.3865 0.0000
# 4 0.0000 0.0000 0.0000 37.6695 0.0000 3.7733
# 5 1.4097 0.6216 5.3865 0.0000 18.3467 0.0000
# 6 0.0000 0.0000 0.0000 3.7733 0.0000 0.2687
#
#
#
# Elastic Compliance Matrix: (Units=1/GPa)
#
#
# Indices 1 2 3 4 5 6 
#
# 1 0.385259 -0.004217 -0.002888 0.000000 -0.028612 0.000000
# 2 -0.004217 0.014487 -0.003217 0.000000 0.000778 0.000000
# 3 -0.002888 -0.003217 0.006595 0.000000 -0.001605 0.000000
# 4 0.000000 0.000000 0.000000 -0.065289 0.000000 0.916823
# 5 -0.028612 0.000778 -0.001605 0.000000 0.057149 0.000000
# 6 0.000000 0.000000 0.000000 0.916823 0.000000 -9.152886
#
#
# Mechanical properties :
#
#
# Convention : Reuss Voigt Hill
#
# Bulk Modulus (GPa) = 2.59271 37.48731 20.04001
# Shear Modulus (GPa) = -0.58103 25.35029 12.38463
#
# Velocity S-wave (km/s) = -0.54127 3.57527 2.49896
# Velocity P-wave (km/s) = 0.95745 5.99548 4.29317
#
# Compressibility (1/GPa) = 0.38569614
#
# Stress axis : x y z
#
# Youngs Moduli (GPa) = 2.59566 69.02580 151.62461
#
# Poissons Ratio (x) = 0.29110 0.43794
# Poissons Ratio (y) = 0.01095 0.48781
# Poissons Ratio (z) = 0.00750 0.22207
#
# Static dielectric constant tensor:
#      x y z
#    x 1.700360 0.000000 -0.023850 
#    y 0.000000 1.712540 0.000000 
#    z -0.023850 0.000000 1.827800 
# 
# From -- ./inp_files/10738.got.cif
#   From: 2010.05.17/outbox.cif.g08.bks.cpg/sg15_6_cif.got.tgz:10738.got - 2010.06.03 18:47:42.
