data_PCOD9256468
_publ_section_title
;
Structure prediction by ZEFSAII (Michael W. Deem and Ramdas Pophale) SiO2 
 PCOD9256468
Probable space group: C 2/C
;
_chemical_formula_sum "Si O2"
_cell_formula_units_Z 48
_cell_length_a 11.642030
_cell_length_b 15.946993
_cell_length_c 13.490127
_cell_angle_alpha 90.000000
_cell_angle_beta 114.291086
_cell_angle_gamma 90.000000
_cell_volume 2282.783069
_symmetry_space_group_name_H-M "C 2/C"
_symmetry_group_IT_number 15
_symmetry_cell_setting 'monoclinic'
loop_
_space_group_symop_operation_xyz
x,y,z
-x,y,1/2-z
-x,-y,-z
x,-y,1/2+z
1/2+x,1/2+y,z
1/2-x,1/2+y,1/2-z
1/2-x,1/2-y,-z
1/2+x,1/2-y,1/2+z
loop_
_atom_site_type_symbol
_atom_site_label
_atom_site_fract_x
_atom_site_fract_y
_atom_site_fract_z
Si Si1 0.261349 0.102906 0.412930
Si Si2 0.851620 0.226498 0.279008
Si Si3 0.854785 0.055397 0.707140
Si Si4 0.007447 0.725882 0.014832
Si Si5 0.793718 0.866274 0.378292
Si Si6 0.866848 0.749982 0.151109
O O1 0.163317 0.153357 0.306948
O O2 0.397738 0.147053 0.447513
O O3 0.228393 0.112918 0.516347
O O4 0.243086 0.006625 0.378609
O O5 0.969385 0.248151 0.390160
O O6 0.818168 0.310711 0.206977
O O7 0.742089 0.209096 0.321646
O O8 0.820645 0.060284 0.811197
O O9 0.849361 0.149366 0.659325
O O10 0.000000 0.027292 0.750000
O O11 0.887632 0.719961 0.045572
O O12 0.086909 0.804131 0.084689
O O13 0.000000 0.728617 0.250000
#
# Coordination Sequence:
#
# PCOD9256468 Si02
#       6
#     8   8   8   8   8   8
#     4  11  24  36  59  94 124 157 206 260 307 368
#     4  10  21  36  63  92 120 164 208 249 311 363
#     4  10  21  40  62  85 126 164 207 251 311 364
#     4  11  20  38  64  91 123 162 206 258 304 363
#     4  10  22  40  58  87 126 162 201 256 308 371
#     4  10  17  40  64  86 125 165 206 253 299 365
#
# _framework density 21.026966000000002
#
# number of rings (size 3 to 8) (size 9 to 14) (size 15 to 20)
#    0.000    1.667    6.667    2.500    2.333    4.000 
#    0.000    3.333    0.000    4.000    0.000    0.000 
#    0.000    0.000    0.000    0.000    0.000    0.000 
#
# Total GULP energy -133948.065602 kJ/mol
# GULP energy per Si atom -5581.169400 kJ/mol
# Density = 2.097911 g / cm^3
# Si number density = 21.026966 Si / 1000 Ang^3
#
#
#
# Elastic Constant Matrix: (Units=GPa)
#
#
# Indices 1 2 3 4 5 6 
#
# 1 83.9165 22.1720 28.3940 0.0000 -30.9680 0.0000
# 2 22.1720 30.1369 17.6547 0.0000 -10.4163 0.0000
# 3 28.3940 17.6547 137.7515 0.0000 -18.8460 0.0000
# 4 0.0000 0.0000 0.0000 24.8594 0.0000 0.9353
# 5 -30.9680 -10.4163 -18.8460 0.0000 51.0668 0.0000
# 6 0.0000 0.0000 0.0000 0.9353 0.0000 6.3375
#
#
#
# Elastic Compliance Matrix: (Units=1/GPa)
#
#
# Indices 1 2 3 4 5 6 
#
# 1 0.018022 -0.009545 -0.001330 0.000000 0.008491 0.000000
# 2 -0.009545 0.042715 -0.003272 0.000000 0.001717 0.000000
# 3 -0.001330 -0.003272 0.008163 0.000000 0.001539 0.000000
# 4 0.000000 0.000000 0.000000 0.040451 0.000000 -0.005970
# 5 0.008491 0.001717 0.001539 0.000000 0.025650 0.000000
# 6 0.000000 0.000000 0.000000 -0.005970 0.000000 0.158671
#
#
# Mechanical properties :
#
#
# Convention : Reuss Voigt Hill
#
# Bulk Modulus (GPa) = 24.62686 43.13849 33.88268
# Shear Modulus (GPa) = 14.90307 28.69168 21.79737
#
# Velocity S-wave (km/s) = 2.66514 3.69795 3.22318
# Velocity P-wave (km/s) = 4.60523 6.22844 5.47729
#
# Compressibility (1/GPa) = 0.04060606
#
# Stress axis : x y z
#
# Youngs Moduli (GPa) = 55.48741 23.41119 122.49727
#
# Poissons Ratio (x) = 0.22346 0.16289
# Poissons Ratio (y) = 0.52964 0.40082
# Poissons Ratio (z) = 0.07378 0.07660
#
# Static dielectric constant tensor:
#      x y z
#    x 1.824930 0.000000 0.007930 
#    y 0.000000 1.733630 0.000000 
#    z 0.007930 0.000000 1.807730 
# 
# From -- ./inp_files/87883.got.cif
#   From: 2010.05.17/outbox.cif.g08.bks.cpg/sg15_44_cif.got.tgz:87883.got - 2010.06.03 18:47:42.
