data_PCOD9256013
_publ_section_title
;
Structure prediction by ZEFSAII (Michael W. Deem and Ramdas Pophale) SiO2 
 PCOD9256013
Probable space group: C 2/C
;
_chemical_formula_sum "Si O2"
_cell_formula_units_Z 64
_cell_length_a 11.908783
_cell_length_b 20.286715
_cell_length_c 22.850257
_cell_angle_alpha 90.000000
_cell_angle_beta 141.910292
_cell_angle_gamma 90.000000
_cell_volume 3405.501713
_symmetry_space_group_name_H-M "C 2/C"
_symmetry_group_IT_number 15
_symmetry_cell_setting 'monoclinic'
loop_
_space_group_symop_operation_xyz
x,y,z
-x,y,1/2-z
-x,-y,-z
x,-y,1/2+z
1/2+x,1/2+y,z
1/2-x,1/2+y,1/2-z
1/2-x,1/2-y,-z
1/2+x,1/2-y,1/2+z
loop_
_atom_site_type_symbol
_atom_site_label
_atom_site_fract_x
_atom_site_fract_y
_atom_site_fract_z
Si Si1 0.713451 0.749754 0.403004
Si Si2 0.654850 0.576422 0.159289
Si Si3 0.227602 0.137317 0.490204
Si Si4 0.864757 0.072622 0.860657
Si Si5 0.882037 0.547104 0.641303
Si Si6 0.747465 0.908225 0.937521
Si Si7 0.946003 0.685561 0.296291
Si Si8 0.213399 0.287022 0.269352
O O1 0.821893 0.803328 0.485400
O O2 0.766783 0.677577 0.447299
O O3 0.748349 0.761667 0.349654
O O4 0.498664 0.766728 0.327479
O O5 0.448845 0.592973 0.091366
O O6 0.686121 0.499168 0.185567
O O7 0.685658 0.589448 0.102642
O O8 0.796008 0.627877 0.244319
O O9 0.385136 0.096402 0.587721
O O10 0.810693 0.064899 0.907106
O O11 0.758610 0.134976 0.790542
O O12 0.080343 0.084198 0.949826
O O13 0.877683 0.473791 0.614531
O O14 0.000000 0.552992 0.750000
O O15 0.629530 0.843230 0.900469
O O16 0.851075 0.750290 0.282597
O O17 0.000000 0.692064 0.250000
#
# Coordination Sequence:
#
# PCOD9256013 Si02
#       8
#     8   8   8   8   8   8   8   8
#     4  10  22  33  55  84 113 152 184 236 288 337
#     4  10  17  34  52  82 112 141 181 234 290 334
#     4  11  18  33  55  82 114 145 181 231 296 339
#     4  11  19  30  54  82 114 144 182 242 291 334
#     4  11  18  30  53  86 118 137 184 240 292 337
#     4  10  18  31  50  81 108 146 182 230 289 326
#     4  10  22  36  57  78 113 153 189 232 282 343
#     4  11  21  38  54  83 117 146 197 232 281 349
#
# _framework density 18.793119999999998
#
# number of rings (size 3 to 8) (size 9 to 14) (size 15 to 20)
#    0.000    1.500    5.000    3.375    0.000    0.500 
#    0.000    0.000    0.000    2.250    0.000    0.000 
#    0.000    0.000    0.000    0.000    0.000    0.000 
#
# Total GULP energy -178195.646054 kJ/mol
# GULP energy per Si atom -5568.613939 kJ/mol
# Density = 1.875035 g / cm^3
# Si number density = 18.793120 Si / 1000 Ang^3
#
#
#
# Elastic Constant Matrix: (Units=GPa)
#
#
# Indices 1 2 3 4 5 6 
#
# 1 40.7179 31.1938 14.9053 0.0000 6.5393 0.0000
# 2 31.1938 107.4616 17.6164 0.0000 0.9478 0.0000
# 3 14.9053 17.6164 66.5711 -0.0001 8.1446 -0.0001
# 4 0.0000 0.0000 -0.0001 26.1348 0.0000 3.8136
# 5 6.5393 0.9478 8.1446 0.0000 15.6874 0.0000
# 6 0.0000 0.0000 -0.0001 3.8136 0.0000 24.8103
#
#
#
# Elastic Compliance Matrix: (Units=1/GPa)
#
#
# Indices 1 2 3 4 5 6 
#
# 1 0.035175 -0.009466 -0.003894 0.000000 -0.012069 0.000000
# 2 -0.009466 0.012284 -0.001627 0.000000 0.004048 0.000000
# 3 -0.003894 -0.001627 0.017206 0.000000 -0.007212 0.000000
# 4 0.000000 0.000000 0.000000 0.039141 0.000000 -0.006016
# 5 -0.012069 0.004048 -0.007212 0.000000 0.072276 0.000000
# 6 0.000000 0.000000 0.000000 -0.006016 0.000000 0.041231
#
#
# Mechanical properties :
#
#
# Convention : Reuss Voigt Hill
#
# Bulk Modulus (GPa) = 28.82502 38.02019 33.42260
# Shear Modulus (GPa) = 19.31627 23.39552 21.35590
#
# Velocity S-wave (km/s) = 3.20947 3.53214 3.37466
# Velocity P-wave (km/s) = 5.39496 6.07532 5.74522
#
# Compressibility (1/GPa) = 0.03469209
#
# Stress axis : x y z
#
# Youngs Moduli (GPa) = 28.42967 81.40498 58.11862
#
# Poissons Ratio (x) = 0.77054 0.22633
# Poissons Ratio (y) = 0.26910 0.09454
# Poissons Ratio (z) = 0.11071 0.13242
#
# Static dielectric constant tensor:
#      x y z
#    x 1.646830 0.000000 0.049820 
#    y 0.000000 1.706490 0.000000 
#    z 0.049820 0.000000 1.726210 
# 
# From -- ./inp_files/270864.got.cif
#   From: 2010.05.17/outbox.cif.g08.bks.cpg/sg15_136_cif.got.tgz:270864.got - 2010.06.03 18:47:42.
