data_PCOD9256368
_publ_section_title
;
Structure prediction by ZEFSAII (Michael W. Deem and Ramdas Pophale) SiO2 
 PCOD9256368
Probable space group: C 2/C
;
_chemical_formula_sum "Si O2"
_cell_formula_units_Z 40
_cell_length_a 22.064470
_cell_length_b 10.488169
_cell_length_c 13.822854
_cell_angle_alpha 90.000000
_cell_angle_beta 32.650178
_cell_angle_gamma 90.000000
_cell_volume 1725.794527
_symmetry_space_group_name_H-M "C 2/C"
_symmetry_group_IT_number 15
_symmetry_cell_setting 'monoclinic'
loop_
_space_group_symop_operation_xyz
x,y,z
-x,y,1/2-z
-x,-y,-z
x,-y,1/2+z
1/2+x,1/2+y,z
1/2-x,1/2+y,1/2-z
1/2-x,1/2-y,-z
1/2+x,1/2-y,1/2+z
loop_
_atom_site_type_symbol
_atom_site_label
_atom_site_fract_x
_atom_site_fract_y
_atom_site_fract_z
Si Si1 0.380964 0.397486 0.966927
Si Si2 0.646182 0.992706 0.200473
Si Si3 0.143134 0.718975 0.082015
Si Si4 0.053314 0.309882 0.986248
Si Si5 0.444865 0.656973 0.967938
O O1 0.500000 0.391599 0.750000
O O2 0.371719 0.264860 0.037112
O O3 0.398851 0.516101 0.016656
O O4 0.269909 0.434020 0.053786
O O5 0.628270 0.071494 0.125802
O O6 0.617947 0.095243 0.325032
O O7 0.547678 0.890652 0.333567
O O8 0.142377 0.749421 0.970224
O O9 0.054321 0.811442 0.255187
O O10 0.250000 0.750000 0.000000
O O11 0.985355 0.202501 0.016655
#
# Coordination Sequence:
#
# PCOD9256368 Si02
#       5
#     8   8   8   8   8
#     4  12  23  42  68 100 138 174 225 284 342 399
#     4  10  23  44  66  96 135 178 228 276 338 403
#     4  10  17  36  66  91 127 165 223 269 324 401
#     4  10  25  43  63 101 137 175 231 275 341 401
#     4  10  20  37  64  96 124 176 221 273 325 404
#
# _framework density 23.177728999999999
#
# number of rings (size 3 to 8) (size 9 to 14) (size 15 to 20)
#    0.000    1.600    4.000    0.600    2.800    0.800 
#   10.800    2.000    0.000    0.000    0.000    0.000 
#    0.000    0.000    0.000    0.000    0.000    0.000 
#
# Total GULP energy -111573.620072 kJ/mol
# GULP energy per Si atom -5578.681004 kJ/mol
# Density = 2.312498 g / cm^3
# Si number density = 23.177729 Si / 1000 Ang^3
#
#
#
# Elastic Constant Matrix: (Units=GPa)
#
#
# Indices 1 2 3 4 5 6 
#
# 1 73.4589 33.6360 15.2112 0.0000 -21.1687 0.0000
# 2 33.6360 100.9331 24.9961 0.0000 -1.5980 0.0000
# 3 15.2112 24.9961 71.2467 0.0000 -24.8043 0.0000
# 4 0.0000 0.0000 0.0000 22.4598 0.0000 -19.5641
# 5 -21.1687 -1.5980 -24.8043 0.0000 31.6986 0.0000
# 6 0.0000 0.0000 0.0000 -19.5641 0.0000 -21.7048
#
#
#
# Elastic Compliance Matrix: (Units=1/GPa)
#
#
# Indices 1 2 3 4 5 6 
#
# 1 0.021256 -0.007841 0.004147 0.000000 0.017045 0.000000
# 2 -0.007841 0.014006 -0.006621 0.000000 -0.009711 0.000000
# 3 0.004147 -0.006621 0.022432 0.000000 0.019989 0.000000
# 4 0.000000 0.000000 0.000000 0.024941 0.000000 -0.022481
# 5 0.017045 -0.009711 0.019989 0.000000 0.058082 0.000000
# 6 0.000000 0.000000 0.000000 -0.022481 0.000000 -0.025809
#
#
# Mechanical properties :
#
#
# Convention : Reuss Voigt Hill
#
# Bulk Modulus (GPa) = 26.97936 43.70282 35.34109
# Shear Modulus (GPa) = 33.80798 17.94374 25.87586
#
# Velocity S-wave (km/s) = 3.82336 2.78543 3.34490
# Velocity P-wave (km/s) = 5.58178 5.40752 5.49534
#
# Compressibility (1/GPa) = 0.03706537
#
# Stress axis : x y z
#
# Youngs Moduli (GPa) = 47.04464 71.39599 44.57863
#
# Poissons Ratio (x) = 0.55980 -0.18485
# Poissons Ratio (y) = 0.36887 0.29515
# Poissons Ratio (z) = -0.19508 0.47270
#
# Static dielectric constant tensor:
#      x y z
#    x 1.831200 0.000000 -0.009600 
#    y 0.000000 1.969840 0.000000 
#    z -0.009600 0.000000 1.958640 
# 
# From -- ./inp_files/167092.got.cif
#   From: 2010.05.17/outbox.cif.g08.bks.cpg/sg15_84_cif.got.tgz:167092.got - 2010.06.03 18:47:42.
