data_PCOD9256520
_publ_section_title
;
Structure prediction by ZEFSAII (Michael W. Deem and Ramdas Pophale) SiO2 
 PCOD9256520
Probable space group: C 2/C
;
_chemical_formula_sum "Si O2"
_cell_formula_units_Z 48
_cell_length_a 22.669134
_cell_length_b 27.043738
_cell_length_c 5.498128
_cell_angle_alpha 90.000000
_cell_angle_beta 60.982911
_cell_angle_gamma 90.000000
_cell_volume 2947.568647
_symmetry_space_group_name_H-M "C 2/C"
_symmetry_group_IT_number 15
_symmetry_cell_setting 'monoclinic'
loop_
_space_group_symop_operation_xyz
x,y,z
-x,y,1/2-z
-x,-y,-z
x,-y,1/2+z
1/2+x,1/2+y,z
1/2-x,1/2+y,1/2-z
1/2-x,1/2-y,-z
1/2+x,1/2-y,1/2+z
loop_
_atom_site_type_symbol
_atom_site_label
_atom_site_fract_x
_atom_site_fract_y
_atom_site_fract_z
Si Si1 0.226604 0.383322 0.296787
Si Si2 0.114977 0.697050 0.520033
Si Si3 0.573104 0.152521 0.103780
Si Si4 0.719775 0.272235 0.310450
Si Si5 0.575258 0.031111 0.599512
Si Si6 0.797399 0.398975 0.655209
O O1 0.143768 0.377605 0.462455
O O2 0.261724 0.329851 0.226552
O O3 0.241684 0.409429 0.519492
O O4 0.241685 0.409428 0.013756
O O5 0.077776 0.683977 0.343415
O O6 0.143221 0.752461 0.463555
O O7 0.179614 0.658938 0.390762
O O8 0.077774 0.683974 0.845451
O O9 0.500000 0.125913 0.250000
O O10 0.750000 0.250000 0.500000
O O11 0.750000 0.250000 0.000000
O O12 0.500000 0.053233 0.750000
O O13 0.632825 0.071598 0.484347
O O14 0.581504 0.999993 0.337040
#
# Coordination Sequence:
#
# PCOD9256520 Si02
#       6
#     8   8   8   8   8   8
#     4  10  19  28  43  65  79 106 128 167 222 248
#     4  10  19  29  42  61  77 107 130 164 219 246
#     4  10  18  27  36  53  80 102 130 160 197 246
#     4  12  16  30  45  59  87 103 132 163 207 270
#     4  10  21  35  47  58  75 106 142 180 228 273
#     4  10  18  29  43  60  78  92 132 170 211 263
#
# _framework density 16.284607999999999
#
# number of rings (size 3 to 8) (size 9 to 14) (size 15 to 20)
#    0.000    1.667    6.667    1.500    0.000    5.333 
#    0.000    1.667    0.000    0.000    0.000    0.000 
#    0.000    0.000    0.000    0.000    0.000    0.000 
#
# Total GULP energy -133679.242906 kJ/mol
# GULP energy per Si atom -5569.968454 kJ/mol
# Density = 1.624754 g / cm^3
# Si number density = 16.284608 Si / 1000 Ang^3
#
#
#
# Elastic Constant Matrix: (Units=GPa)
#
#
# Indices 1 2 3 4 5 6 
#
# 1 34.1570 8.1418 35.2050 0.0000 27.9668 0.0000
# 2 8.1418 26.7520 14.6641 0.0000 7.1799 0.0000
# 3 35.2050 14.6641 107.5329 0.0000 52.7849 0.0000
# 4 0.0000 0.0000 0.0000 20.4626 0.0000 1.5883
# 5 27.9668 7.1799 52.7849 0.0000 39.4949 0.0000
# 6 0.0000 0.0000 0.0000 1.5883 0.0000 19.0186
#
#
#
# Elastic Compliance Matrix: (Units=1/GPa)
#
#
# Indices 1 2 3 4 5 6 
#
# 1 0.072617 -0.009844 0.005615 0.000000 -0.057136 0.000000
# 2 -0.009844 0.041735 -0.006297 0.000000 0.007800 0.000000
# 3 0.005615 -0.006297 0.028230 0.000000 -0.040561 0.000000
# 4 0.000000 0.000000 0.000000 0.049189 0.000000 -0.004108
# 5 -0.057136 0.007800 -0.040561 0.000000 0.118570 0.000000
# 6 0.000000 0.000000 0.000000 -0.004108 0.000000 0.052923
#
#
# Mechanical properties :
#
#
# Convention : Reuss Voigt Hill
#
# Bulk Modulus (GPa) = 8.22843 31.60707 19.91775
# Shear Modulus (GPa) = 11.76953 23.15727 17.46340
#
# Velocity S-wave (km/s) = 2.69130 3.77508 3.27828
# Velocity P-wave (km/s) = 3.83684 6.20104 5.15627
#
# Compressibility (1/GPa) = 0.12152985
#
# Stress axis : x y z
#
# Youngs Moduli (GPa) = 13.77087 23.96084 35.42303
#
# Poissons Ratio (x) = 0.23586 -0.19889
# Poissons Ratio (y) = 0.13556 0.22307
# Poissons Ratio (z) = -0.07732 0.15089
#
# Static dielectric constant tensor:
#      x y z
#    x 1.586940 0.000000 0.060140 
#    y 0.000000 1.573060 0.000000 
#    z 0.060140 0.000000 1.641560 
# 
# From -- ./inp_files/13563.got.cif
#   From: 2010.05.17/outbox.cif.g08.bks.cpg/sg15_7_cif.got.tgz:13563.got - 2010.06.03 18:47:42.
