data_PCOD9256213
_publ_section_title
;
Structure prediction by ZEFSAII (Michael W. Deem and Ramdas Pophale) SiO2 
 PCOD9256213
Probable space group: C 2/C
;
_chemical_formula_sum "Si O2"
_cell_formula_units_Z 48
_cell_length_a 9.308114
_cell_length_b 14.958672
_cell_length_c 20.483307
_cell_angle_alpha 90.000000
_cell_angle_beta 54.477284
_cell_angle_gamma 90.000000
_cell_volume 2321.228911
_symmetry_space_group_name_H-M "C 2/C"
_symmetry_group_IT_number 15
_symmetry_cell_setting 'monoclinic'
loop_
_space_group_symop_operation_xyz
x,y,z
-x,y,1/2-z
-x,-y,-z
x,-y,1/2+z
1/2+x,1/2+y,z
1/2-x,1/2+y,1/2-z
1/2-x,1/2-y,-z
1/2+x,1/2-y,1/2+z
loop_
_atom_site_type_symbol
_atom_site_label
_atom_site_fract_x
_atom_site_fract_y
_atom_site_fract_z
Si Si1 0.504619 0.761402 0.171458
Si Si2 0.517931 0.911407 0.635833
Si Si3 0.406578 0.506253 0.344936
Si Si4 0.149965 0.677232 0.431100
Si Si5 0.708470 0.408406 0.825249
Si Si6 0.578735 0.905022 0.397738
O O1 0.500000 0.747761 0.250000
O O2 0.712871 0.757801 0.098537
O O3 0.393940 0.682878 0.165720
O O4 0.418085 0.853571 0.171555
O O5 0.469972 0.828062 0.601993
O O6 0.358347 0.921286 0.730157
O O7 0.694437 0.903732 0.631325
O O8 0.515485 0.999837 0.590988
O O9 0.500000 0.513772 0.250000
O O10 0.282626 0.592694 0.387462
O O11 0.562789 0.513589 0.356044
O O12 0.270866 0.424827 0.376709
O O13 0.030392 0.656793 0.524516
#
# Coordination Sequence:
#
# PCOD9256213 Si02
#       6
#     8   8   8   8   8   8
#     4  11  22  40  59  86 119 162 199 242 304 354
#     4  10  19  36  61  88 114 150 205 240 290 353
#     4  10  17  35  58  86 116 154 196 241 289 349
#     4  10  19  40  60  84 120 163 193 238 310 362
#     4  10  19  36  59  84 116 157 197 238 291 361
#     4  11  23  35  62  92 117 149 204 256 294 346
#
# _framework density 20.678701
#
# number of rings (size 3 to 8) (size 9 to 14) (size 15 to 20)
#    0.000    1.667    5.000    3.500    2.333    0.000 
#    3.000   10.000    0.000    2.000    0.000    0.000 
#    0.000    0.000    0.000    0.000    0.000    0.000 
#
# Total GULP energy -133896.390500 kJ/mol
# GULP energy per Si atom -5579.016271 kJ/mol
# Density = 2.063164 g / cm^3
# Si number density = 20.678701 Si / 1000 Ang^3
#
#
#
# Elastic Constant Matrix: (Units=GPa)
#
#
# Indices 1 2 3 4 5 6 
#
# 1 194.1128 24.8748 17.5403 0.0000 1.3070 0.0000
# 2 24.8748 34.0586 -8.7059 0.0000 -6.8445 0.0000
# 3 17.5403 -8.7059 43.0203 0.0000 -3.3097 0.0000
# 4 0.0000 0.0000 0.0000 3.2779 0.0000 7.9662
# 5 1.3070 -6.8445 -3.3097 0.0000 21.3632 0.0000
# 6 0.0000 0.0000 0.0000 7.9662 0.0000 30.8362
#
#
#
# Elastic Compliance Matrix: (Units=1/GPa)
#
#
# Indices 1 2 3 4 5 6 
#
# 1 0.006349 -0.006295 -0.004096 0.000000 -0.003040 0.000000
# 2 -0.006295 0.040000 0.011818 0.000000 0.015032 0.000000
# 3 -0.004096 0.011818 0.027950 0.000000 0.008367 0.000000
# 4 0.000000 0.000000 0.000000 0.819737 0.000000 -0.211770
# 5 -0.003040 0.015032 0.008367 0.000000 0.053108 0.000000
# 6 0.000000 0.000000 0.000000 -0.211770 0.000000 0.087138
#
#
# Mechanical properties :
#
#
# Convention : Reuss Voigt Hill
#
# Bulk Modulus (GPa) = 12.96138 37.62334 25.29236
# Shear Modulus (GPa) = 4.72971 26.92763 15.82867
#
# Velocity S-wave (km/s) = 1.51400 3.61250 2.76969
# Velocity P-wave (km/s) = 3.05579 5.96942 4.74193
#
# Compressibility (1/GPa) = 0.07715230
#
# Stress axis : x y z
#
# Youngs Moduli (GPa) = 157.50672 24.99987 35.77784
#
# Poissons Ratio (x) = 0.15737 0.14656
# Poissons Ratio (y) = 0.99150 -0.42281
# Poissons Ratio (z) = 0.64520 -0.29544
#
# Static dielectric constant tensor:
#      x y z
#    x 1.764760 0.000000 -0.005820 
#    y 0.000000 1.769610 0.000000 
#    z -0.005820 0.000000 1.748600 
# 
# From -- ./inp_files/189212.got.cif
#   From: 2010.05.17/outbox.cif.g08.bks.cpg/sg15_95_cif.got.tgz:189212.got - 2010.06.03 18:47:42.
