data_PCOD9256720
_publ_section_title
;
Structure prediction by ZEFSAII (Michael W. Deem and Ramdas Pophale) SiO2 
 PCOD9256720
Probable space group: C 2/C
;
_chemical_formula_sum "Si O2"
_cell_formula_units_Z 56
_cell_length_a 22.692206
_cell_length_b 24.114655
_cell_length_c 7.758354
_cell_angle_alpha 90.000000
_cell_angle_beta 50.855226
_cell_angle_gamma 90.000000
_cell_volume 3292.600403
_symmetry_space_group_name_H-M "C 2/C"
_symmetry_group_IT_number 15
_symmetry_cell_setting 'monoclinic'
loop_
_space_group_symop_operation_xyz
x,y,z
-x,y,1/2-z
-x,-y,-z
x,-y,1/2+z
1/2+x,1/2+y,z
1/2-x,1/2+y,1/2-z
1/2-x,1/2-y,-z
1/2+x,1/2-y,1/2+z
loop_
_atom_site_type_symbol
_atom_site_label
_atom_site_fract_x
_atom_site_fract_y
_atom_site_fract_z
Si Si1 0.834035 0.224989 0.342814
Si Si2 0.712005 0.325589 0.917456
Si Si3 0.981217 0.742722 0.484996
Si Si4 0.140621 0.921754 0.250040
Si Si5 0.514874 0.372392 0.020274
Si Si6 0.914670 0.966025 0.824458
Si Si7 0.640373 0.246086 0.333873
O O1 0.750000 0.250000 0.500000
O O2 0.824422 0.179610 0.206280
O O3 0.851797 0.214778 0.512010
O O4 0.894732 0.273900 0.181907
O O5 0.798393 0.303388 0.758804
O O6 0.699145 0.384540 0.034553
O O7 0.665351 0.281124 0.120044
O O8 0.968678 0.808481 0.545582
O O9 0.000000 0.734718 0.250000
O O10 0.054036 0.726153 0.462433
O O11 0.150239 0.944994 0.424302
O O12 0.066499 0.883587 0.413706
O O13 0.111964 0.975465 0.199250
O O14 0.500000 0.378417 0.250000
O O15 0.571121 0.418695 0.844407
O O16 0.000000 0.974047 0.750000
#
# Coordination Sequence:
#
# PCOD9256720 Si02
#       7
#     8   8   8   8   8   8   8
#     4  10  21  33  50  73  99 132 170 214 257 302
#     4  10  20  36  50  72 101 131 178 219 264 292
#     4  11  19  32  50  75 103 140 180 212 251 312
#     4  11  19  33  44  64  93 133 166 224 256 300
#     4  10  18  29  45  65  92 130 171 212 250 299
#     4  10  21  30  43  63  93 129 177 215 258 301
#     4  10  20  34  52  73  98 133 179 217 252 315
#
# _framework density 17.007833999999999
#
# number of rings (size 3 to 8) (size 9 to 14) (size 15 to 20)
#    0.000    1.714    2.857    4.286    2.000    1.143 
#    0.000    0.000    0.000    0.000    0.000    0.000 
#    0.000    0.000    0.000   41.143    0.000    0.571 
#
# Total GULP energy -155916.066800 kJ/mol
# GULP energy per Si atom -5568.430957 kJ/mol
# Density = 1.696912 g / cm^3
# Si number density = 17.007834 Si / 1000 Ang^3
#
#
#
# Elastic Constant Matrix: (Units=GPa)
#
#
# Indices 1 2 3 4 5 6 
#
# 1 82.3510 16.5861 38.0085 0.0000 -6.6762 0.0000
# 2 16.5861 55.9577 29.7586 0.0000 5.9224 0.0000
# 3 38.0085 29.7586 92.4283 0.0000 -0.8779 0.0000
# 4 0.0000 0.0000 0.0000 25.3719 0.0000 -3.2101
# 5 -6.6762 5.9224 -0.8779 0.0000 34.3550 0.0000
# 6 0.0000 0.0000 0.0000 -3.2101 0.0000 15.2195
#
#
#
# Elastic Compliance Matrix: (Units=1/GPa)
#
#
# Indices 1 2 3 4 5 6 
#
# 1 0.015410 -0.001869 -0.005705 0.000000 0.003171 0.000000
# 2 -0.001869 0.022324 -0.006460 0.000000 -0.004377 0.000000
# 3 -0.005705 -0.006460 0.015249 0.000000 0.000395 0.000000
# 4 0.000000 0.000000 0.000000 0.040494 0.000000 0.008541
# 5 0.003171 -0.004377 0.000395 0.000000 0.030489 0.000000
# 6 0.000000 0.000000 0.000000 0.008541 0.000000 0.067507
#
#
# Mechanical properties :
#
#
# Convention : Reuss Voigt Hill
#
# Bulk Modulus (GPa) = 40.13907 44.38260 42.26083
# Shear Modulus (GPa) = 21.94473 24.74819 23.34646
#
# Velocity S-wave (km/s) = 3.59593 3.81872 3.70900
# Velocity P-wave (km/s) = 6.39473 6.75245 6.57602
#
# Compressibility (1/GPa) = 0.02491339
#
# Stress axis : x y z
#
# Youngs Moduli (GPa) = 64.89399 44.79582 65.57855
#
# Poissons Ratio (x) = 0.08373 0.37412
# Poissons Ratio (y) = 0.12130 0.42366
# Poissons Ratio (z) = 0.37021 0.28939
#
# Static dielectric constant tensor:
#      x y z
#    x 1.739090 0.000000 0.000990 
#    y 0.000000 1.603860 0.000000 
#    z 0.000990 0.000000 1.786970 
# 
# From -- ./inp_files/58898.got.cif
#   From: 2010.05.17/outbox.cif.g08.bks.cpg/sg15_30_cif.got.tgz:58898.got - 2010.06.03 18:47:42.
