data_PCOD9256118
_publ_section_title
;
Structure prediction by ZEFSAII (Michael W. Deem and Ramdas Pophale) SiO2 
 PCOD9256118
Probable space group: C 2/C
;
_chemical_formula_sum "Si O2"
_cell_formula_units_Z 56
_cell_length_a 17.902727
_cell_length_b 16.441642
_cell_length_c 14.946792
_cell_angle_alpha 90.000000
_cell_angle_beta 146.101374
_cell_angle_gamma 90.000000
_cell_volume 2453.763144
_symmetry_space_group_name_H-M "C 2/C"
_symmetry_group_IT_number 15
_symmetry_cell_setting 'monoclinic'
loop_
_space_group_symop_operation_xyz
x,y,z
-x,y,1/2-z
-x,-y,-z
x,-y,1/2+z
1/2+x,1/2+y,z
1/2-x,1/2+y,1/2-z
1/2-x,1/2-y,-z
1/2+x,1/2-y,1/2+z
loop_
_atom_site_type_symbol
_atom_site_label
_atom_site_fract_x
_atom_site_fract_y
_atom_site_fract_z
Si Si1 0.074762 0.163560 0.699083
Si Si2 0.805409 0.261158 0.186731
Si Si3 0.552554 0.516733 0.208975
Si Si4 0.563716 0.156986 0.899826
Si Si5 0.797126 0.442346 0.824224
Si Si6 0.218922 0.203110 0.131792
Si Si7 0.680372 0.413749 0.127017
O O1 0.179621 0.236256 0.817229
O O2 0.096631 0.136750 0.617005
O O3 0.922661 0.192964 0.557697
O O4 0.096612 0.076914 0.769100
O O5 0.803996 0.239730 0.290954
O O6 0.742335 0.351238 0.119345
O O7 0.958867 0.270115 0.312976
O O8 0.707982 0.200349 0.037859
O O9 0.500000 0.553098 0.250000
O O10 0.669722 0.558565 0.267295
O O11 0.421432 0.522064 0.016680
O O12 0.500000 0.115348 0.750000
O O13 0.581454 0.094340 0.998360
O O14 0.778391 0.384283 0.719585
O O15 0.795222 0.535109 0.790868
#
# Coordination Sequence:
#
# PCOD9256118 Si02
#       7
#     8   8   8   8   8   8   8
#     4  10  19  36  60  89 115 155 204 251 297 364
#     4  10  22  35  58  87 115 165 198 253 304 368
#     4  11  22  36  62  91 124 161 203 251 314 375
#     4  11  24  38  54  87 132 159 201 242 323 382
#     4  10  20  37  62  86 116 164 203 262 291 366
#     4  10  17  34  60  84 114 146 208 252 291 349
#     4  10  19  37  63  87 119 156 218 250 303 363
#
# _framework density 22.822088000000001
#
# number of rings (size 3 to 8) (size 9 to 14) (size 15 to 20)
#    0.000    1.714    2.857    3.857    4.000    1.143 
#    0.000    2.143    0.000    0.000    0.000    0.000 
#    0.000    0.000    0.000    0.000    0.000    0.000 
#
# Total GULP energy -156242.965271 kJ/mol
# GULP energy per Si atom -5580.105903 kJ/mol
# Density = 2.277014 g / cm^3
# Si number density = 22.822088 Si / 1000 Ang^3
#
#
#
# Elastic Constant Matrix: (Units=GPa)
#
#
# Indices 1 2 3 4 5 6 
#
# 1 47.2267 5.8954 1.4885 0.0000 6.1187 0.0000
# 2 5.8954 102.0621 42.0342 0.0000 11.5726 0.0000
# 3 1.4885 42.0342 100.8616 0.0000 15.0346 0.0000
# 4 0.0000 0.0000 0.0000 24.1085 0.0000 6.8260
# 5 6.1187 11.5726 15.0346 0.0000 16.0848 0.0000
# 6 0.0000 0.0000 0.0000 6.8260 0.0000 24.7371
#
#
#
# Elastic Compliance Matrix: (Units=1/GPa)
#
#
# Indices 1 2 3 4 5 6 
#
# 1 0.022430 -0.000820 0.001388 0.000000 -0.009240 0.000000
# 2 -0.000820 0.012150 -0.004409 0.000000 -0.004308 0.000000
# 3 0.001388 -0.004409 0.013173 0.000000 -0.009668 0.000000
# 4 0.000000 0.000000 0.000000 0.044994 0.000000 -0.012416
# 5 -0.009240 -0.004308 -0.009668 0.000000 0.077822 0.000000
# 6 0.000000 0.000000 0.000000 -0.012416 0.000000 0.043851
#
#
# Mechanical properties :
#
#
# Convention : Reuss Voigt Hill
#
# Bulk Modulus (GPa) = 24.95562 38.77628 31.86595
# Shear Modulus (GPa) = 21.23513 26.36824 23.80168
#
# Velocity S-wave (km/s) = 3.05366 3.40278 3.23294
# Velocity P-wave (km/s) = 4.83650 5.69790 5.28478
#
# Compressibility (1/GPa) = 0.04007114
#
# Stress axis : x y z
#
# Youngs Moduli (GPa) = 44.58281 82.30661 75.91411
#
# Poissons Ratio (x) = 0.06745 -0.10536
# Poissons Ratio (y) = 0.03654 0.33471
# Poissons Ratio (z) = -0.06187 0.36290
#
# Static dielectric constant tensor:
#      x y z
#    x 1.915130 0.000000 -0.006090 
#    y 0.000000 1.877270 0.000000 
#    z -0.006090 0.000000 1.850340 
# 
# From -- ./inp_files/216058.got.cif
#   From: 2010.05.17/outbox.cif.g08.bks.cpg/sg15_109_cif.got.tgz:216058.got - 2010.06.03 18:47:42.
