data_PCOD9256950
_publ_section_title
;
Structure prediction by ZEFSAII (Michael W. Deem and Ramdas Pophale) SiO2 
 PCOD9256950
Probable space group: C 2/C
;
_chemical_formula_sum "Si O2"
_cell_formula_units_Z 48
_cell_length_a 19.792851
_cell_length_b 12.633993
_cell_length_c 22.260432
_cell_angle_alpha 90.000000
_cell_angle_beta 150.969806
_cell_angle_gamma 90.000000
_cell_volume 2701.260291
_symmetry_space_group_name_H-M "C 2/C"
_symmetry_group_IT_number 15
_symmetry_cell_setting 'monoclinic'
loop_
_space_group_symop_operation_xyz
x,y,z
-x,y,1/2-z
-x,-y,-z
x,-y,1/2+z
1/2+x,1/2+y,z
1/2-x,1/2+y,1/2-z
1/2-x,1/2-y,-z
1/2+x,1/2-y,1/2+z
loop_
_atom_site_type_symbol
_atom_site_label
_atom_site_fract_x
_atom_site_fract_y
_atom_site_fract_z
Si Si1 0.090718 0.211380 0.881318
Si Si2 0.843987 0.306362 0.745631
Si Si3 0.128546 0.866239 0.089962
Si Si4 0.806192 0.406812 0.342320
Si Si5 0.111441 0.928219 0.505576
Si Si6 0.635465 0.866307 0.601148
O O1 0.082137 0.105207 0.914946
O O2 0.000000 0.202427 0.750000
O O3 0.004676 0.296150 0.854021
O O4 0.250000 0.250000 0.000000
O O5 0.773579 0.189642 0.687580
O O6 0.763107 0.383643 0.638868
O O7 0.826993 0.346325 0.799984
O O8 0.246953 0.906336 0.228162
O O9 0.162683 0.748633 0.093845
O O10 0.993216 0.868214 0.029051
O O11 0.101950 0.949995 0.016910
O O12 0.789670 0.523909 0.357798
O O13 0.970093 0.384311 0.467836
#
# Coordination Sequence:
#
# PCOD9256950 Si02
#       6
#     8   8   8   8   8   8
#     4  12  24  36  56  79 112 150 193 233 278 328
#     4  11  19  35  50  77 117 142 180 231 272 334
#     4  10  20  31  53  76 116 147 172 228 284 338
#     4  10  18  30  49  77 112 148 175 220 277 340
#     4  11  20  34  51  79 111 149 179 221 289 333
#     4  10  19  30  50  79 114 145 178 214 282 342
#
# _framework density 17.769485
#
# number of rings (size 3 to 8) (size 9 to 14) (size 15 to 20)
#    0.000    1.333    8.333    0.000    0.000    0.000 
#    0.000    0.000    0.000    0.000    0.000    1.167 
#    5.000    0.167    0.000    0.000    0.000    0.000 
#
# Total GULP energy -133735.965903 kJ/mol
# GULP energy per Si atom -5572.331913 kJ/mol
# Density = 1.772904 g / cm^3
# Si number density = 17.769485 Si / 1000 Ang^3
#
#
#
# Elastic Constant Matrix: (Units=GPa)
#
#
# Indices 1 2 3 4 5 6 
#
# 1 44.0753 20.4231 13.8263 -0.0001 -2.1594 0.0000
# 2 20.4231 101.0431 21.1833 -0.0008 7.6651 -0.0002
# 3 13.8263 21.1833 81.0334 -0.0006 3.2495 -0.0002
# 4 -0.0001 -0.0008 -0.0006 25.5485 -0.0001 -5.8192
# 5 -2.1594 7.6651 3.2495 -0.0001 28.3699 0.0000
# 6 0.0000 -0.0002 -0.0002 -5.8192 0.0000 7.7165
#
#
#
# Elastic Compliance Matrix: (Units=1/GPa)
#
#
# Indices 1 2 3 4 5 6 
#
# 1 0.026174 -0.004870 -0.003341 0.000000 0.003691 0.000000
# 2 -0.004870 0.011560 -0.002060 0.000000 -0.003258 0.000001
# 3 -0.003341 -0.002060 0.013499 0.000000 -0.001244 0.000001
# 4 0.000000 0.000000 0.000000 0.047258 0.000000 0.035638
# 5 0.003691 -0.003258 -0.001244 0.000000 0.036552 0.000000
# 6 0.000000 0.000001 0.000001 0.035638 0.000000 0.156467
#
#
# Mechanical properties :
#
#
# Convention : Reuss Voigt Hill
#
# Bulk Modulus (GPa) = 32.58301 37.44634 35.01467
# Shear Modulus (GPa) = 15.51429 23.70827 19.61128
#
# Velocity S-wave (km/s) = 2.95801 3.65665 3.32573
# Velocity P-wave (km/s) = 5.48112 6.24077 5.87324
#
# Compressibility (1/GPa) = 0.03069084
#
# Stress axis : x y z
#
# Youngs Moduli (GPa) = 38.20606 86.50372 74.07885
#
# Poissons Ratio (x) = 0.42126 0.24749
# Poissons Ratio (y) = 0.18606 0.15263
# Poissons Ratio (z) = 0.12764 0.17823
#
# Static dielectric constant tensor:
#      x y z
#    x 1.604310 0.000000 0.003610 
#    y 0.000000 1.656120 0.000000 
#    z 0.003610 0.000000 1.667250 
# 
# From -- ./inp_files/110621.got.cif
#   From: 2010.05.17/outbox.cif.g08.bks.cpg/sg15_56_cif.got.tgz:110621.got - 2010.06.03 18:47:42.
