data_PCOD9256053
_publ_section_title
;
Structure prediction by ZEFSAII (Michael W. Deem and Ramdas Pophale) SiO2 
 PCOD9256053
Probable space group: C 2/C
;
_chemical_formula_sum "Si O2"
_cell_formula_units_Z 48
_cell_length_a 11.771191
_cell_length_b 22.933053
_cell_length_c 6.858108
_cell_angle_alpha 90.000000
_cell_angle_beta 87.372210
_cell_angle_gamma 90.000000
_cell_volume 1849.394998
_symmetry_space_group_name_H-M "C 2/C"
_symmetry_group_IT_number 15
_symmetry_cell_setting 'monoclinic'
loop_
_space_group_symop_operation_xyz
x,y,z
-x,y,1/2-z
-x,-y,-z
x,-y,1/2+z
1/2+x,1/2+y,z
1/2-x,1/2+y,1/2-z
1/2-x,1/2-y,-z
1/2+x,1/2-y,1/2+z
loop_
_atom_site_type_symbol
_atom_site_label
_atom_site_fract_x
_atom_site_fract_y
_atom_site_fract_z
Si Si1 0.785462 0.071918 0.961991
Si Si2 0.273137 0.049305 0.085062
Si Si3 0.595862 0.839927 0.910325
Si Si4 0.040266 0.087700 0.022011
Si Si5 0.524930 0.715984 0.980191
Si Si6 0.277838 0.310782 0.586278
O O1 0.762710 0.069370 0.196609
O O2 0.750024 0.138686 0.931781
O O3 0.922672 0.071837 0.919829
O O4 0.706467 0.019745 0.893428
O O5 0.365822 0.096743 0.008420
O O6 0.153898 0.050341 0.975498
O O7 0.500000 0.851178 0.750000
O O8 0.561805 0.781712 0.034430
O O9 0.706278 0.817548 0.785474
O O10 0.000000 0.079945 0.250000
O O11 0.086961 0.153371 0.980977
O O12 0.500000 0.723441 0.750000
O O13 0.412132 0.694750 0.102667
O O14 0.250000 0.250000 0.500000
#
# Coordination Sequence:
#
# PCOD9256053 Si02
#       6
#     8   8   8   8   8   8
#     4   9  20  34  57  81 110 151 186 234 288 339
#     4  10  20  36  53  79 113 150 189 231 290 344
#     4  10  20  35  58  85 116 155 189 239 293 344
#     4   9  19  35  55  82 119 149 177 240 302 339
#     4  10  19  32  58  88 108 148 196 230 281 350
#     4  10  17  34  56  81 110 141 187 238 278 330
#
# _framework density 25.954433000000002
#
# number of rings (size 3 to 8) (size 9 to 14) (size 15 to 20)
#    0.000    2.333    3.333    1.500    0.000    3.333 
#    0.000    4.167    0.000    0.000    0.000    0.000 
#    0.000    0.000    0.000    0.000    0.000    0.000 
#
# Total GULP energy -133792.879935 kJ/mol
# GULP energy per Si atom -5574.703331 kJ/mol
# Density = 2.589536 g / cm^3
# Si number density = 25.954433 Si / 1000 Ang^3
#
#
#
# Elastic Constant Matrix: (Units=GPa)
#
#
# Indices 1 2 3 4 5 6 
#
# 1 55.3587 30.9833 11.9960 0.0000 -6.1644 0.0000
# 2 30.9833 228.7465 -1.1644 0.0000 0.5016 0.0000
# 3 11.9960 -1.1644 53.7036 0.0000 -6.9388 0.0000
# 4 0.0000 0.0000 0.0000 29.2827 0.0000 6.5018
# 5 -6.1644 0.5016 -6.9388 0.0000 27.7018 0.0000
# 6 0.0000 0.0000 0.0000 6.5018 0.0000 49.5306
#
#
#
# Elastic Compliance Matrix: (Units=1/GPa)
#
#
# Indices 1 2 3 4 5 6 
#
# 1 0.021008 -0.002875 -0.004283 0.000000 0.003654 0.000000
# 2 -0.002875 0.004766 0.000674 0.000000 -0.000557 0.000000
# 3 -0.004283 0.000674 0.020118 0.000000 0.004074 0.000000
# 4 0.000000 0.000000 0.000000 0.035175 0.000000 -0.004617
# 5 0.003654 -0.000557 0.004074 0.000000 0.037942 0.000000
# 6 0.000000 0.000000 0.000000 -0.004617 0.000000 0.020796
#
#
# Mechanical properties :
#
#
# Convention : Reuss Voigt Hill
#
# Bulk Modulus (GPa) = 30.37380 46.82652 38.60016
# Shear Modulus (GPa) = 30.53445 41.03594 35.78520
#
# Velocity S-wave (km/s) = 3.43368 3.98059 3.71721
# Velocity P-wave (km/s) = 5.23912 6.26161 5.77305
#
# Compressibility (1/GPa) = 0.03292311
#
# Stress axis : x y z
#
# Youngs Moduli (GPa) = 47.60020 209.82989 49.70571
#
# Poissons Ratio (x) = 0.60334 0.21289
# Poissons Ratio (y) = 0.13687 -0.03348
# Poissons Ratio (z) = 0.20387 -0.14134
#
# Static dielectric constant tensor:
#      x y z
#    x 2.193760 0.000000 0.069860 
#    y 0.000000 2.295210 0.000000 
#    z 0.069860 0.000000 2.133550 
# 
# From -- ./inp_files/31937.got.cif
#   From: 2010.05.17/outbox.cif.g08.bks.cpg/sg15_16_cif.got.tgz:31937.got - 2010.06.03 18:47:42.
