data_PCOD9256347
_publ_section_title
;
Structure prediction by ZEFSAII (Michael W. Deem and Ramdas Pophale) SiO2 
 PCOD9256347
Probable space group: C 2/C
;
_chemical_formula_sum "Si O2"
_cell_formula_units_Z 52
_cell_length_a 18.042034
_cell_length_b 15.741821
_cell_length_c 16.321889
_cell_angle_alpha 90.000000
_cell_angle_beta 25.387104
_cell_angle_gamma 90.000000
_cell_volume 1987.451713
_symmetry_space_group_name_H-M "C 2/C"
_symmetry_group_IT_number 15
_symmetry_cell_setting 'monoclinic'
loop_
_space_group_symop_operation_xyz
x,y,z
-x,y,1/2-z
-x,-y,-z
x,-y,1/2+z
1/2+x,1/2+y,z
1/2-x,1/2+y,1/2-z
1/2-x,1/2-y,-z
1/2+x,1/2-y,1/2+z
loop_
_atom_site_type_symbol
_atom_site_label
_atom_site_fract_x
_atom_site_fract_y
_atom_site_fract_z
Si Si1 0.505025 0.268125 0.925315
Si Si2 0.276897 0.417294 0.578558
Si Si3 0.250000 0.750000 0.000000
Si Si4 0.176161 0.364868 0.960902
Si Si5 0.638045 0.338322 0.272473
Si Si6 0.824752 0.892510 0.976281
Si Si7 0.708303 0.502895 0.271192
O O1 0.692343 0.306957 0.722970
O O2 0.389292 0.332198 0.984710
O O3 0.501466 0.173772 0.892223
O O4 0.452213 0.276308 0.072181
O O5 0.203527 0.344108 0.593095
O O6 0.478872 0.387133 0.385692
O O7 0.262626 0.513260 0.559905
O O8 0.216047 0.436777 0.733120
O O9 0.257099 0.705577 0.903619
O O10 0.200537 0.352360 0.032277
O O11 0.231278 0.456527 0.874707
O O12 0.746268 0.404456 0.218890
O O13 0.000000 0.906385 0.750000
O O14 0.500000 0.500000 0.500000
#
# Coordination Sequence:
#
# PCOD9256347 Si02
#       7
#     8   8   4   8   8   8   8
#     4  11  21  37  59  89 126 155 205 253 314 375
#     4  11  20  38  58  88 119 155 210 265 310 361
#     4  12  24  32  56  92 124 156 188 270 326 366
#     4  11  21  35  60  92 120 159 197 260 309 369
#     4  11  21  37  58  86 119 156 206 262 311 366
#     4  10  19  35  60  88 115 153 207 260 306 357
#     4  10  17  36  62  86 113 154 214 259 304 360
#
# _framework density 26.164158
#
# number of rings (size 3 to 8) (size 9 to 14) (size 15 to 20)
#    0.000    1.231    4.615    6.462    0.000    0.000 
#    0.000    0.000    0.000    8.308    0.000    0.000 
#    0.000    0.000    0.000    0.000    0.000    0.000 
#
# Total GULP energy -144745.821754 kJ/mol
# GULP energy per Si atom -5567.146991 kJ/mol
# Density = 2.610461 g / cm^3
# Si number density = 26.164158 Si / 1000 Ang^3
#
#
#
# Elastic Constant Matrix: (Units=GPa)
#
#
# Indices 1 2 3 4 5 6 
#
# 1 103.9666 29.6165 43.9387 -0.0023 42.9730 0.0010
# 2 29.6165 111.2933 9.4486 -0.0108 22.3915 0.0115
# 3 43.9387 9.4486 51.4800 -0.0064 29.1130 0.0042
# 4 -0.0023 -0.0108 -0.0064 6.3634 0.0010 12.3888
# 5 42.9730 22.3915 29.1130 0.0010 50.8527 -0.0021
# 6 0.0010 0.0115 0.0042 12.3888 -0.0021 33.4387
#
#
#
# Elastic Compliance Matrix: (Units=1/GPa)
#
#
# Indices 1 2 3 4 5 6 
#
# 1 0.018067 -0.002246 -0.010253 -0.000029 -0.008409 0.000012
# 2 -0.002246 0.010170 0.002232 0.000097 -0.003858 -0.000040
# 3 -0.010253 0.002232 0.034636 0.000172 -0.012148 -0.000069
# 4 -0.000029 0.000097 0.000172 0.563872 -0.000136 -0.208911
# 5 -0.008409 -0.003858 -0.012148 -0.000136 0.035424 0.000056
# 6 0.000012 -0.000040 -0.000069 -0.208911 0.000056 0.107306
#
#
# Mechanical properties :
#
#
# Convention : Reuss Voigt Hill
#
# Bulk Modulus (GPa) = 23.61841 48.08305 35.85073
# Shear Modulus (GPa) = 6.21797 30.38004 18.29900
#
# Velocity S-wave (km/s) = 1.54327 3.41124 2.64747
# Velocity P-wave (km/s) = 3.49602 5.82518 4.80390
#
# Compressibility (1/GPa) = 0.04233986
#
# Stress axis : x y z
#
# Youngs Moduli (GPa) = 55.34985 98.33247 28.87169
#
# Poissons Ratio (x) = 0.22081 0.29601
# Poissons Ratio (y) = 0.12429 -0.06444
# Poissons Ratio (z) = 0.56748 -0.21947
#
# Static dielectric constant tensor:
#      x y z
#    x 2.104110 0.000000 -0.116560 
#    y 0.000000 2.082680 0.000010 
#    z -0.116560 0.000010 2.249790 
# 
# From -- ./inp_files/215562.got.cif
#   From: 2010.05.17/outbox.cif.g08.bks.cpg/sg15_108_cif.got.tgz:215562.got - 2010.06.03 18:47:42.
