data_PCOD9256429
_publ_section_title
;
Structure prediction by ZEFSAII (Michael W. Deem and Ramdas Pophale) SiO2 
 PCOD9256429
Probable space group: C 2/C
;
_chemical_formula_sum "Si O2"
_cell_formula_units_Z 48
_cell_length_a 10.524151
_cell_length_b 17.870225
_cell_length_c 14.999815
_cell_angle_alpha 90.000000
_cell_angle_beta 45.203271
_cell_angle_gamma 90.000000
_cell_volume 2001.812101
_symmetry_space_group_name_H-M "C 2/C"
_symmetry_group_IT_number 15
_symmetry_cell_setting 'monoclinic'
loop_
_space_group_symop_operation_xyz
x,y,z
-x,y,1/2-z
-x,-y,-z
x,-y,1/2+z
1/2+x,1/2+y,z
1/2-x,1/2+y,1/2-z
1/2-x,1/2-y,-z
1/2+x,1/2-y,1/2+z
loop_
_atom_site_type_symbol
_atom_site_label
_atom_site_fract_x
_atom_site_fract_y
_atom_site_fract_z
Si Si1 0.382775 0.927232 0.174386
Si Si2 0.745139 0.985709 0.936408
Si Si3 0.504019 0.417572 0.409826
Si Si4 0.457866 0.762603 0.414002
Si Si5 0.000000 0.857810 0.750000
Si Si6 0.000000 0.798267 0.250000
Si Si7 0.179803 0.211497 0.443578
O O1 0.297103 0.952902 0.120369
O O2 0.212255 0.932947 0.324712
O O3 0.459058 0.843481 0.147085
O O4 0.564074 0.975797 0.082777
O O5 0.907181 0.011144 0.918590
O O6 0.825546 0.910129 0.853709
O O7 0.495263 0.354399 0.336140
O O8 0.365961 0.375763 0.543214
O O9 0.250000 0.750000 0.500000
O O10 0.540258 0.697173 0.312470
O O11 0.500492 0.749513 0.496546
O O12 0.838607 0.742966 0.304755
O O13 0.250000 0.250000 0.500000
#
# Coordination Sequence:
#
# PCOD9256429 Si02
#       7
#     8   8   8   8   4   4   8
#     4  11  21  39  70  98 139 188 247 284 371 443
#     4  11  22  42  69 103 133 205 247 292 363 462
#     4  11  19  39  69  95 136 182 246 296 347 440
#     4  12  26  43  67 112 144 182 240 307 378 435
#     4  12  25  44  70  95 158 184 242 310 365 438
#     4  10  17  38  62 103 136 174 240 288 363 424
#     4  10  23  40  70 101 142 185 235 303 362 431
#
# _framework density 23.978273000000002
#
# number of rings (size 3 to 8) (size 9 to 14) (size 15 to 20)
#    0.000    1.000    6.667    1.000    2.333    0.000 
#    6.000    0.833    3.667    0.000    0.000    0.000 
#    0.000    0.000    0.000    0.000    0.000    0.000 
#
# Total GULP energy -133739.438087 kJ/mol
# GULP energy per Si atom -5572.476587 kJ/mol
# Density = 2.392370 g / cm^3
# Si number density = 23.978273 Si / 1000 Ang^3
#
#
#
# Elastic Constant Matrix: (Units=GPa)
#
#
# Indices 1 2 3 4 5 6 
#
# 1 113.5163 30.3590 34.2111 0.0000 -26.6092 -0.0001
# 2 30.3590 113.4821 48.9920 0.0000 -13.2658 0.0000
# 3 34.2111 48.9920 76.9619 0.0000 -34.4161 0.0000
# 4 0.0000 0.0000 0.0000 55.5904 0.0000 -11.2548
# 5 -26.6092 -13.2658 -34.4161 0.0000 40.3262 0.0000
# 6 -0.0001 0.0000 0.0000 -11.2548 0.0000 38.3345
#
#
#
# Elastic Compliance Matrix: (Units=1/GPa)
#
#
# Indices 1 2 3 4 5 6 
#
# 1 0.010964 -0.001728 -0.001282 0.000000 0.005572 0.000000
# 2 -0.001728 0.012883 -0.009780 0.000000 -0.005249 0.000000
# 3 -0.001282 -0.009780 0.029064 0.000000 0.020742 0.000000
# 4 0.000000 0.000000 0.000000 0.019126 0.000000 0.005615
# 5 0.005572 -0.005249 0.020742 0.000000 0.044450 0.000000
# 6 0.000000 0.000000 0.000000 0.005615 0.000000 0.027735
#
#
# Mechanical properties :
#
#
# Convention : Reuss Voigt Hill
#
# Bulk Modulus (GPa) = 36.58842 59.00939 47.79890
# Shear Modulus (GPa) = 27.94678 39.54344 33.74511
#
# Velocity S-wave (km/s) = 3.41765 4.06536 3.75550
# Velocity P-wave (km/s) = 5.55571 6.83368 6.22756
#
# Compressibility (1/GPa) = 0.02733105
#
# Stress axis : x y z
#
# Youngs Moduli (GPa) = 91.20772 77.62232 34.40659
#
# Poissons Ratio (x) = 0.13416 0.04410
# Poissons Ratio (y) = 0.15765 0.33649
# Poissons Ratio (z) = 0.11690 0.75914
#
# Static dielectric constant tensor:
#      x y z
#    x 1.904170 0.000000 0.075750 
#    y 0.000000 1.950160 0.000000 
#    z 0.075750 0.000000 2.218690 
# 
# From -- ./inp_files/238999.got.cif
#   From: 2010.05.17/outbox.cif.g08.bks.cpg/sg15_120_cif.got.tgz:238999.got - 2010.06.03 18:47:42.
