data_PCOD9256580
_publ_section_title
;
Structure prediction by ZEFSAII (Michael W. Deem and Ramdas Pophale) SiO2 
 PCOD9256580
Probable space group: C 2/C
;
_chemical_formula_sum "Si O2"
_cell_formula_units_Z 48
_cell_length_a 22.750789
_cell_length_b 9.685057
_cell_length_c 21.528013
_cell_angle_alpha 90.000000
_cell_angle_beta 156.331442
_cell_angle_gamma 90.000000
_cell_volume 1904.271616
_symmetry_space_group_name_H-M "C 2/C"
_symmetry_group_IT_number 15
_symmetry_cell_setting 'monoclinic'
loop_
_space_group_symop_operation_xyz
x,y,z
-x,y,1/2-z
-x,-y,-z
x,-y,1/2+z
1/2+x,1/2+y,z
1/2-x,1/2+y,1/2-z
1/2-x,1/2-y,-z
1/2+x,1/2-y,1/2+z
loop_
_atom_site_type_symbol
_atom_site_label
_atom_site_fract_x
_atom_site_fract_y
_atom_site_fract_z
Si Si1 0.955254 0.665094 0.016290
Si Si2 0.959899 0.623922 0.776727
Si Si3 0.263139 0.594446 0.486047
Si Si4 0.186572 0.586153 0.746120
Si Si5 0.467486 0.466095 0.065362
Si Si6 0.247848 0.479958 0.601851
O O1 0.871363 0.665006 0.869615
O O2 0.836044 0.613890 0.951341
O O3 0.011306 0.815950 0.084060
O O4 0.087264 0.554334 0.146909
O O5 0.888305 0.475460 0.685742
O O6 0.845666 0.661870 0.719610
O O7 0.000000 0.695242 0.750000
O O8 0.111692 0.621049 0.960969
O O9 0.250000 0.750000 0.500000
O O10 0.377971 0.568645 0.542339
O O11 0.303061 0.507939 0.585899
O O12 0.354675 0.541905 0.911003
O O13 0.614271 0.547733 0.222143
#
# Coordination Sequence:
#
# PCOD9256580 Si02
#       6
#     8   8   8   8   8   8
#     4  10  19  33  46  62  94 133 164 193 233 288
#     4   8  17  31  46  65  96 131 155 188 234 286
#     4  10  18  28  43  69 101 129 153 183 232 300
#     4   9  20  34  46  64  96 130 161 196 236 286
#     4  11  20  30  48  72  96 129 163 199 237 275
#     4  10  19  27  44  69  96 126 158 191 227 281
#
# _framework density 25.206488
#
# number of rings (size 3 to 8) (size 9 to 14) (size 15 to 20)
#    0.000    2.333    1.667    1.500    4.667    2.000 
#    0.000    0.000    0.000    0.000    0.000    0.000 
#    0.000   50.667    0.000   19.667    0.000   13.500 
#
# Total GULP energy -134099.842887 kJ/mol
# GULP energy per Si atom -5587.493454 kJ/mol
# Density = 2.514912 g / cm^3
# Si number density = 25.206488 Si / 1000 Ang^3
#
#
#
# Elastic Constant Matrix: (Units=GPa)
#
#
# Indices 1 2 3 4 5 6 
#
# 1 82.0766 14.6165 7.8040 -0.0001 -16.9505 0.0000
# 2 14.6165 82.4526 39.7244 0.0000 7.8627 0.0000
# 3 7.8040 39.7244 201.4810 -0.0003 3.3789 0.0002
# 4 -0.0001 0.0000 -0.0003 18.8806 -0.0002 9.7588
# 5 -16.9505 7.8627 3.3789 -0.0002 32.8440 0.0001
# 6 0.0000 0.0000 0.0002 9.7588 0.0001 -27.0800
#
#
#
# Elastic Compliance Matrix: (Units=1/GPa)
#
#
# Indices 1 2 3 4 5 6 
#
# 1 0.014493 -0.003339 -0.000042 0.000000 0.008283 0.000000
# 2 -0.003339 0.014460 -0.002639 0.000000 -0.004913 0.000000
# 3 -0.000042 -0.002639 0.005484 0.000000 0.000046 0.000000
# 4 0.000000 0.000000 0.000000 0.044648 0.000000 0.016090
# 5 0.008283 -0.004913 0.000046 0.000000 0.035893 0.000000
# 6 0.000000 0.000000 0.000000 0.016090 0.000000 -0.031129
#
#
# Mechanical properties :
#
#
# Convention : Reuss Voigt Hill
#
# Bulk Modulus (GPa) = 44.64803 54.47777 49.56290
# Shear Modulus (GPa) = 48.37653 25.18661 36.78157
#
# Velocity S-wave (km/s) = 4.38563 3.16446 3.82411
# Velocity P-wave (km/s) = 6.58759 5.91703 6.26130
#
# Compressibility (1/GPa) = 0.02239740
#
# Stress axis : x y z
#
# Youngs Moduli (GPa) = 68.99877 69.15555 182.33322
#
# Poissons Ratio (x) = 0.23090 0.00765
# Poissons Ratio (y) = 0.23038 0.48123
# Poissons Ratio (z) = 0.00290 0.18252
#
# Static dielectric constant tensor:
#      x y z
#    x 2.026420 0.000000 0.017070 
#    y 0.000000 2.012520 0.000000 
#    z 0.017070 0.000000 1.968600 
# 
# From -- ./inp_files/283558.got.cif
#   From: 2010.05.17/outbox.cif.g08.bks.cpg/sg15_142_cif.got.tgz:283558.got - 2010.06.03 18:47:42.
