data_PCOD9256738
_publ_section_title
;
Structure prediction by ZEFSAII (Michael W. Deem and Ramdas Pophale) SiO2 
 PCOD9256738
Probable space group: C 2/C
;
_chemical_formula_sum "Si O2"
_cell_formula_units_Z 48
_cell_length_a 12.581423
_cell_length_b 18.891230
_cell_length_c 21.324803
_cell_angle_alpha 90.000000
_cell_angle_beta 146.711583
_cell_angle_gamma 90.000000
_cell_volume 2781.837347
_symmetry_space_group_name_H-M "C 2/C"
_symmetry_group_IT_number 15
_symmetry_cell_setting 'monoclinic'
loop_
_space_group_symop_operation_xyz
x,y,z
-x,y,1/2-z
-x,-y,-z
x,-y,1/2+z
1/2+x,1/2+y,z
1/2-x,1/2+y,1/2-z
1/2-x,1/2-y,-z
1/2+x,1/2-y,1/2+z
loop_
_atom_site_type_symbol
_atom_site_label
_atom_site_fract_x
_atom_site_fract_y
_atom_site_fract_z
Si Si1 0.000000 0.698400 0.750000
Si Si2 0.739139 0.995862 0.049378
Si Si3 0.308290 0.877319 0.049032
Si Si4 0.500000 0.393778 0.250000
Si Si5 0.083699 0.805085 0.681611
Si Si6 0.116768 0.317695 0.107678
Si Si7 0.871933 0.399680 0.893521
O O1 0.151660 0.649197 0.861468
O O2 0.090149 0.750139 0.742466
O O3 0.727702 0.052953 0.101121
O O4 0.911286 0.943514 0.152024
O O5 0.751197 0.042159 0.992848
O O6 0.541977 0.950245 0.951974
O O7 0.505873 0.862398 0.107416
O O8 0.137001 0.830468 0.934968
O O9 0.324423 0.348672 0.191779
O O10 0.132808 0.760969 0.643219
O O11 0.222115 0.869685 0.769146
O O12 0.978295 0.333358 0.979996
#
# Coordination Sequence:
#
# PCOD9256738 Si02
#       7
#     4   8   8   4   8   8   8
#     4  10  18  29  46  71 104 124 148 202 244 278
#     4   9  17  30  49  74  95 125 164 195 241 281
#     4  10  19  30  50  75  99 125 158 201 242 285
#     4  10  18  33  52  69 100 130 158 202 236 284
#     4  11  18  30  52  76  97 125 159 196 249 290
#     4   9  19  31  46  73 100 126 159 197 243 281
#     4   9  17  30  50  72  99 123 157 208 236 279
#
# _framework density 17.254783
#
# number of rings (size 3 to 8) (size 9 to 14) (size 15 to 20)
#    0.000    2.333    0.000    7.000    0.000    0.000 
#    0.000    3.333    0.000   12.000    0.000    0.000 
#    0.000    0.000    0.000    0.000    0.000    0.000 
#
# Total GULP energy -133689.378893 kJ/mol
# GULP energy per Si atom -5570.390787 kJ/mol
# Density = 1.721551 g / cm^3
# Si number density = 17.254783 Si / 1000 Ang^3
#
#
#
# Elastic Constant Matrix: (Units=GPa)
#
#
# Indices 1 2 3 4 5 6 
#
# 1 41.0425 31.6332 43.5533 0.0000 5.5559 -0.0001
# 2 31.6332 79.6505 44.1890 0.0002 -3.9689 -0.0001
# 3 43.5533 44.1890 101.5746 -0.0001 5.2161 -0.0004
# 4 0.0000 0.0002 -0.0001 17.5222 0.0001 -13.1181
# 5 5.5559 -3.9689 5.2161 0.0001 23.7896 -0.0001
# 6 -0.0001 -0.0001 -0.0004 -13.1181 -0.0001 14.9961
#
#
#
# Elastic Compliance Matrix: (Units=1/GPa)
#
#
# Indices 1 2 3 4 5 6 
#
# 1 0.053283 -0.012299 -0.016942 -0.000001 -0.010781 -0.000001
# 2 -0.012299 0.019854 -0.003723 -0.000001 0.007001 -0.000001
# 3 -0.016942 -0.003723 0.018769 0.000001 -0.000780 0.000002
# 4 -0.000001 -0.000001 0.000001 0.165376 -0.000001 0.144666
# 5 -0.010781 0.007001 -0.000780 -0.000001 0.045892 0.000000
# 6 -0.000001 -0.000001 0.000002 0.144666 0.000000 0.193234
#
#
# Mechanical properties :
#
#
# Convention : Reuss Voigt Hill
#
# Bulk Modulus (GPa) = 38.49612 51.22430 44.86021
# Shear Modulus (GPa) = 8.75663 18.12106 13.43885
#
# Velocity S-wave (km/s) = 2.25520 3.24420 2.79381
# Velocity P-wave (km/s) = 5.39815 6.61699 6.03840
#
# Compressibility (1/GPa) = 0.02597665
#
# Stress axis : x y z
#
# Youngs Moduli (GPa) = 18.76789 50.36824 53.27853
#
# Poissons Ratio (x) = 0.61948 0.90266
# Poissons Ratio (y) = 0.23083 0.19836
# Poissons Ratio (z) = 0.31797 0.18753
#
# Static dielectric constant tensor:
#      x y z
#    x 1.578430 0.000000 -0.016560 
#    y 0.000000 1.624530 0.000000 
#    z -0.016560 0.000000 1.602840 
# 
# From -- ./inp_files/88797.got.cif
#   From: 2010.05.17/outbox.cif.g08.bks.cpg/sg15_45_cif.got.tgz:88797.got - 2010.06.03 18:47:42.
