data_PCOD9256212
_publ_section_title
;
Structure prediction by ZEFSAII (Michael W. Deem and Ramdas Pophale) SiO2 
 PCOD9256212
Probable space group: C 2/C
;
_chemical_formula_sum "Si O2"
_cell_formula_units_Z 60
_cell_length_a 19.247000
_cell_length_b 17.271204
_cell_length_c 9.264500
_cell_angle_alpha 90.000000
_cell_angle_beta 111.331218
_cell_angle_gamma 90.000000
_cell_volume 2868.714446
_symmetry_space_group_name_H-M "C 2/C"
_symmetry_group_IT_number 15
_symmetry_cell_setting 'monoclinic'
loop_
_space_group_symop_operation_xyz
x,y,z
-x,y,1/2-z
-x,-y,-z
x,-y,1/2+z
1/2+x,1/2+y,z
1/2-x,1/2+y,1/2-z
1/2-x,1/2-y,-z
1/2+x,1/2-y,1/2+z
loop_
_atom_site_type_symbol
_atom_site_label
_atom_site_fract_x
_atom_site_fract_y
_atom_site_fract_z
Si Si1 0.814059 0.589977 0.113894
Si Si2 0.500000 0.361433 0.250000
Si Si3 0.124379 0.744736 0.409923
Si Si4 0.617074 0.435815 0.770891
Si Si5 0.172792 0.807645 0.140573
Si Si6 0.746174 0.960840 0.238015
Si Si7 0.543358 0.594033 0.490751
Si Si8 0.787787 0.804273 0.768145
O O1 0.879291 0.655352 0.147590
O O2 0.810219 0.513294 0.210499
O O3 0.747949 0.639104 0.138930
O O4 0.793323 0.562962 0.939364
O O5 0.553411 0.301016 0.373723
O O6 0.460217 0.414828 0.339041
O O7 0.164720 0.789294 0.307072
O O8 0.166705 0.745580 0.594853
O O9 0.678328 0.493238 0.751579
O O10 0.540789 0.417364 0.626464
O O11 0.660131 0.353720 0.795296
O O12 0.591782 0.456116 0.914659
O O13 0.222801 0.884154 0.161061
O O14 0.089472 0.824690 0.020891
O O15 0.220425 0.734292 0.129919
#
# Coordination Sequence:
#
# PCOD9256212 Si02
#       8
#     8   4   8   8   8   8   8   8
#     4  10  20  33  55  80 112 139 187 223 278 312
#     4  10  20  34  66  80  98 142 200 220 276 324
#     4  10  17  35  58  83 100 141 188 240 260 322
#     4  10  22  35  50  77 123 143 171 224 288 312
#     4  10  19  32  57  80 105 141 200 219 264 324
#     4  11  20  33  52  80 108 152 178 221 269 332
#     4  10  21  36  49  79 111 148 177 223 265 334
#     4  10  17  35  59  79 104 148 183 239 263 312
#
# _framework density 20.915292999999998
#
# number of rings (size 3 to 8) (size 9 to 14) (size 15 to 20)
#    0.000    1.867    4.000    1.600    0.000    1.067 
#    0.000    9.333    0.000    0.800    0.000    0.000 
#    0.000    0.000    0.000    0.000    0.000    0.000 
#
# Total GULP energy -167024.197268 kJ/mol
# GULP energy per Si atom -5567.473242 kJ/mol
# Density = 2.086769 g / cm^3
# Si number density = 20.915293 Si / 1000 Ang^3
#
#
#
# Elastic Constant Matrix: (Units=GPa)
#
#
# Indices 1 2 3 4 5 6 
#
# 1 45.4046 27.0878 13.3295 0.0000 0.8598 0.0000
# 2 27.0878 101.4046 24.1460 0.0000 5.5441 0.0000
# 3 13.3295 24.1460 78.0554 0.0000 -6.2857 0.0000
# 4 0.0000 0.0000 0.0000 30.5902 0.0000 -2.9172
# 5 0.8598 5.5441 -6.2857 0.0000 31.0367 0.0000
# 6 0.0000 0.0000 0.0000 -2.9172 0.0000 28.0732
#
#
#
# Elastic Compliance Matrix: (Units=1/GPa)
#
#
# Indices 1 2 3 4 5 6 
#
# 1 0.026657 -0.006510 -0.002546 0.000000 -0.000091 0.000000
# 2 -0.006510 0.012448 -0.002952 0.000000 -0.002641 0.000000
# 3 -0.002546 -0.002952 0.014443 0.000000 0.003523 0.000000
# 4 0.000000 0.000000 0.000000 0.033017 0.000000 0.003431
# 5 -0.000091 -0.002641 0.003523 0.000000 0.033408 0.000000
# 6 0.000000 0.000000 0.000000 0.003431 0.000000 0.035978
#
#
# Mechanical properties :
#
#
# Convention : Reuss Voigt Hill
#
# Bulk Modulus (GPa) = 33.86006 39.33234 36.59620
# Shear Modulus (GPa) = 26.34233 28.62677 27.48455
#
# Velocity S-wave (km/s) = 3.55276 3.70361 3.62897
# Velocity P-wave (km/s) = 5.74924 6.09388 5.92406
#
# Compressibility (1/GPa) = 0.02953332
#
# Stress axis : x y z
#
# Youngs Moduli (GPa) = 37.51381 80.33694 69.23804
#
# Poissons Ratio (x) = 0.52296 0.17627
# Poissons Ratio (y) = 0.24420 0.20436
# Poissons Ratio (z) = 0.09550 0.23712
#
# Static dielectric constant tensor:
#      x y z
#    x 1.788010 0.000000 -0.005650 
#    y 0.000000 1.824880 0.000000 
#    z -0.005650 0.000000 1.813820 
# 
# From -- ./inp_files/56686.got.cif
#   From: 2010.05.17/outbox.cif.g08.bks.cpg/sg15_29_cif.got.tgz:56686.got - 2010.06.03 18:47:42.
