data_PCOD9256493
_publ_section_title
;
Structure prediction by ZEFSAII (Michael W. Deem and Ramdas Pophale) SiO2 
 PCOD9256493
Probable space group: C 2/C
;
_chemical_formula_sum "Si O2"
_cell_formula_units_Z 52
_cell_length_a 16.074046
_cell_length_b 15.266611
_cell_length_c 18.277813
_cell_angle_alpha 90.000000
_cell_angle_beta 29.108861
_cell_angle_gamma 90.000000
_cell_volume 2181.969078
_symmetry_space_group_name_H-M "C 2/C"
_symmetry_group_IT_number 15
_symmetry_cell_setting 'monoclinic'
loop_
_space_group_symop_operation_xyz
x,y,z
-x,y,1/2-z
-x,-y,-z
x,-y,1/2+z
1/2+x,1/2+y,z
1/2-x,1/2+y,1/2-z
1/2-x,1/2-y,-z
1/2+x,1/2-y,1/2+z
loop_
_atom_site_type_symbol
_atom_site_label
_atom_site_fract_x
_atom_site_fract_y
_atom_site_fract_z
Si Si1 0.923545 0.124861 0.587375
Si Si2 0.791208 0.027839 0.279880
Si Si3 0.757661 0.880108 0.061207
Si Si4 0.099131 0.722700 0.899608
Si Si5 0.000000 0.462309 0.750000
Si Si6 0.527171 0.075591 0.070759
Si Si7 0.769401 0.189538 0.389722
O O1 0.917684 0.045986 0.650085
O O2 0.871184 0.098836 0.545431
O O3 0.092328 0.180963 0.440538
O O4 0.776531 0.192934 0.727680
O O5 0.683608 0.989563 0.431425
O O6 0.646613 0.034245 0.327957
O O7 0.839329 0.124201 0.273132
O O8 0.654111 0.968765 0.132207
O O9 0.666311 0.789449 0.157591
O O10 0.807212 0.851887 0.940176
O O11 0.066356 0.658940 0.992416
O O12 0.934561 0.703514 0.972840
O O13 0.990959 0.408084 0.830518
#
# Coordination Sequence:
#
# PCOD9256493 Si02
#       7
#     8   8   8   8   4   8   8
#     4  10  18  31  51  75 105 132 177 206 259 301
#     4   9  15  29  45  68  94 135 168 211 244 307
#     4  10  18  25  44  76 105 133 157 217 261 308
#     4   9  19  32  48  74 103 138 166 216 250 307
#     4  12  16  26  46  76 100 124 166 220 254 294
#     4   9  17  26  45  70  98 123 168 216 253 282
#     4   9  17  29  43  72 109 131 165 209 267 299
#
# _framework density 23.831685
#
# number of rings (size 3 to 8) (size 9 to 14) (size 15 to 20)
#    0.000    2.462    3.077    1.846    0.000    0.000 
#    0.000    0.000    0.000   12.000    0.000    0.000 
#    0.000    0.000    0.000    0.000    0.000    0.000 
#
# Total GULP energy -145141.748126 kJ/mol
# GULP energy per Si atom -5582.374928 kJ/mol
# Density = 2.377744 g / cm^3
# Si number density = 23.831685 Si / 1000 Ang^3
#
#
#
# Elastic Constant Matrix: (Units=GPa)
#
#
# Indices 1 2 3 4 5 6 
#
# 1 59.0117 14.5635 41.1902 -0.0266 26.9642 0.0551
# 2 14.5635 79.1530 45.4988 -0.0511 -5.2478 0.1098
# 3 41.1902 45.4988 130.1333 -0.0593 34.5918 0.1164
# 4 -0.0266 -0.0511 -0.0593 33.0793 0.0309 47.7089
# 5 26.9642 -5.2478 34.5918 0.0309 42.2208 -0.0606
# 6 0.0551 0.1098 0.1164 47.7089 -0.0606 -55.3114
#
#
#
# Elastic Compliance Matrix: (Units=1/GPa)
#
#
# Indices 1 2 3 4 5 6 
#
# 1 0.027136 -0.004297 -0.002989 -0.000008 -0.015415 0.000022
# 2 -0.004297 0.019151 -0.008563 -0.000002 0.012140 0.000001
# 3 -0.002989 -0.008563 0.014574 -0.000005 -0.011096 0.000018
# 4 -0.000008 -0.000002 -0.000005 0.013472 0.000016 0.011620
# 5 -0.015415 0.012140 -0.011096 0.000016 0.044130 -0.000049
# 6 0.000022 0.000001 0.000018 0.011620 -0.000049 -0.008057
#
#
# Mechanical properties :
#
#
# Convention : Reuss Voigt Hill
#
# Bulk Modulus (GPa) = 34.28919 52.31147 43.30033
# Shear Modulus (GPa) = 32.93251 15.13410 24.03331
#
# Velocity S-wave (km/s) = 3.72140 2.52274 3.17907
# Velocity P-wave (km/s) = 5.73449 5.52120 5.62885
#
# Compressibility (1/GPa) = 0.02916371
#
# Stress axis : x y z
#
# Youngs Moduli (GPa) = 36.85081 52.21551 68.61531
#
# Poissons Ratio (x) = 0.22435 0.20512
# Poissons Ratio (y) = 0.15833 0.58756
# Poissons Ratio (z) = 0.11016 0.44713
#
# Static dielectric constant tensor:
#      x y z
#    x 1.941270 0.000000 -0.135110 
#    y 0.000000 1.951260 0.000010 
#    z -0.135110 0.000010 2.076140 
# 
# From -- ./inp_files/112085.got.cif
#   From: 2010.05.17/outbox.cif.g08.bks.cpg/sg15_57_cif.got.tgz:112085.got - 2010.06.03 18:47:42.
