data_PCOD9256159
_publ_section_title
;
Structure prediction by ZEFSAII (Michael W. Deem and Ramdas Pophale) SiO2 
 PCOD9256159
Probable space group: C 2/C
;
_chemical_formula_sum "Si O2"
_cell_formula_units_Z 40
_cell_length_a 13.543336
_cell_length_b 5.202822
_cell_length_c 23.119328
_cell_angle_alpha 90.000000
_cell_angle_beta 108.074718
_cell_angle_gamma 90.000000
_cell_volume 1548.680128
_symmetry_space_group_name_H-M "C 2/C"
_symmetry_group_IT_number 15
_symmetry_cell_setting 'monoclinic'
loop_
_space_group_symop_operation_xyz
x,y,z
-x,y,1/2-z
-x,-y,-z
x,-y,1/2+z
1/2+x,1/2+y,z
1/2-x,1/2+y,1/2-z
1/2-x,1/2-y,-z
1/2+x,1/2-y,1/2+z
loop_
_atom_site_type_symbol
_atom_site_label
_atom_site_fract_x
_atom_site_fract_y
_atom_site_fract_z
Si Si1 0.344212 0.505364 0.471151
Si Si2 0.460767 0.385161 0.878042
Si Si3 0.078273 0.503810 0.960674
Si Si4 0.602211 0.488132 0.305108
Si Si5 0.767921 0.503476 0.665066
O O1 0.435603 0.510249 0.437764
O O2 0.357916 0.748031 0.515010
O O3 0.353531 0.251807 0.510494
O O4 0.248531 0.517215 0.407953
O O5 0.503776 0.093308 0.893959
O O6 0.551606 0.521314 0.859809
O O7 0.346247 0.431753 0.830230
O O8 0.000000 0.500000 0.000000
O O9 0.500000 0.553697 0.250000
O O10 0.652838 0.214964 0.300515
O O11 0.687794 0.713287 0.316066
#
# Coordination Sequence:
#
# PCOD9256159 Si02
#       5
#     8   8   8   8   8
#     4   9  20  37  63  90 129 163 199 247 307 374
#     4   9  23  40  68  90 130 167 200 253 318 359
#     4  10  17  34  65  91 125 171 193 240 314 370
#     4  12  26  45  64  92 123 162 218 268 309 366
#     4  10  25  42  65  93 127 159 216 255 309 379
#
# _framework density 25.828444999999999
#
# number of rings (size 3 to 8) (size 9 to 14) (size 15 to 20)
#    1.200    0.800    0.000    4.200    0.000    8.000 
#    0.000    6.000    0.000    0.000    0.000    0.000 
#    0.000    0.000    0.000    0.000    0.000    0.000 
#
# Total GULP energy -111664.464744 kJ/mol
# GULP energy per Si atom -5583.223237 kJ/mol
# Density = 2.576966 g / cm^3
# Si number density = 25.828445 Si / 1000 Ang^3
#
#
#
# Elastic Constant Matrix: (Units=GPa)
#
#
# Indices 1 2 3 4 5 6 
#
# 1 136.3777 26.1639 0.0871 0.0000 14.5516 0.0000
# 2 26.1639 154.0032 13.3499 0.0000 15.8934 0.0000
# 3 0.0871 13.3499 66.7616 0.0000 21.1748 0.0000
# 4 0.0000 0.0000 0.0000 24.3547 0.0000 16.4983
# 5 14.5516 15.8934 21.1748 0.0000 40.8055 0.0000
# 6 0.0000 0.0000 0.0000 16.4983 0.0000 -4.2935
#
#
#
# Elastic Compliance Matrix: (Units=1/GPa)
#
#
# Indices 1 2 3 4 5 6 
#
# 1 0.007865 -0.001130 0.001156 0.000000 -0.002964 0.000000
# 2 -0.001130 0.006949 -0.000787 0.000000 -0.001895 0.000000
# 3 0.001156 -0.000787 0.018156 0.000000 -0.009527 0.000000
# 4 0.000000 0.000000 0.000000 0.011396 0.000000 0.043790
# 5 -0.002964 -0.001895 -0.009527 0.000000 0.031246 0.000000
# 6 0.000000 0.000000 0.000000 0.043790 0.000000 -0.064642
#
#
# Mechanical properties :
#
#
# Convention : Reuss Voigt Hill
#
# Bulk Modulus (GPa) = 31.79907 48.48269 40.14088
# Shear Modulus (GPa) = 217.62630 33.34278 125.48454
#
# Velocity S-wave (km/s) = 9.18919 3.59685 6.97777
# Velocity P-wave (km/s) = 11.17706 6.00513 8.97186
#
# Compressibility (1/GPa) = 0.03144746
#
# Stress axis : x y z
#
# Youngs Moduli (GPa) = 127.14534 143.90064 55.07717
#
# Poissons Ratio (x) = 0.16268 -0.06367
# Poissons Ratio (y) = 0.14374 0.04335
# Poissons Ratio (z) = -0.14698 0.11326
#
# Static dielectric constant tensor:
#      x y z
#    x 2.309600 0.000000 -0.022940 
#    y 0.000000 2.051850 0.000000 
#    z -0.022940 0.000000 2.194230 
# 
# From -- ./inp_files/290597.got.cif
#   From: 2010.05.17/outbox.cif.g08.bks.cpg/sg15_146_cif.got.tgz:290597.got - 2010.06.03 18:47:42.
