data_PCOD9256964
_publ_section_title
;
Structure prediction by ZEFSAII (Michael W. Deem and Ramdas Pophale) SiO2 
 PCOD9256964
Probable space group: C 2/C
;
_chemical_formula_sum "Si O2"
_cell_formula_units_Z 60
_cell_length_a 14.163358
_cell_length_b 20.145363
_cell_length_c 22.059526
_cell_angle_alpha 90.000000
_cell_angle_beta 30.523310
_cell_angle_gamma 90.000000
_cell_volume 3196.731762
_symmetry_space_group_name_H-M "C 2/C"
_symmetry_group_IT_number 15
_symmetry_cell_setting 'monoclinic'
loop_
_space_group_symop_operation_xyz
x,y,z
-x,y,1/2-z
-x,-y,-z
x,-y,1/2+z
1/2+x,1/2+y,z
1/2-x,1/2+y,1/2-z
1/2-x,1/2-y,-z
1/2+x,1/2-y,1/2+z
loop_
_atom_site_type_symbol
_atom_site_label
_atom_site_fract_x
_atom_site_fract_y
_atom_site_fract_z
Si Si1 0.726682 0.793206 0.360638
Si Si2 0.592052 0.893623 0.970854
Si Si3 0.982744 0.005392 0.643181
Si Si4 0.557346 0.018856 0.372219
Si Si5 0.784650 0.662875 0.379575
Si Si6 0.170604 0.517416 0.120419
Si Si7 0.500000 0.589613 0.250000
Si Si8 0.095837 0.842921 0.110873
O O1 0.552159 0.835804 0.437304
O O2 0.680398 0.716176 0.396117
O O3 0.798553 0.824810 0.385271
O O4 0.901987 0.803140 0.219704
O O5 0.805398 0.872609 0.859623
O O6 0.564372 0.923622 0.918654
O O7 0.543630 0.955634 0.041277
O O8 0.769212 0.001786 0.739379
O O9 0.137778 0.985016 0.507702
O O10 0.036413 0.079607 0.636487
O O11 0.993803 0.957669 0.694767
O O12 0.434714 0.039661 0.383024
O O13 0.770181 0.584234 0.376623
O O14 0.717978 0.674257 0.484998
O O15 0.000000 0.679544 0.250000
O O16 0.000000 0.482138 0.250000
#
# Coordination Sequence:
#
# PCOD9256964 Si02
#       8
#     8   8   8   8   8   8   4   8
#     4  11  19  29  48  74 103 136 172 213 261 310
#     4  10  19  30  49  80 102 130 176 222 272 312
#     4  10  18  30  50  73 103 141 172 207 265 316
#     4  10  19  31  50  74 105 140 173 216 262 320
#     4  10  20  32  46  69 106 139 169 206 255 303
#     4  10  21  35  48  71 111 146 177 209 251 316
#     4  10  18  30  52  74 108 130 164 226 272 310
#     4  10  19  28  46  74 106 136 165 208 256 316
#
# _framework density 18.769169999999999
#
# number of rings (size 3 to 8) (size 9 to 14) (size 15 to 20)
#    0.000    1.867    4.000    2.800    1.867    0.533 
#    0.000    0.000    0.000    0.000    0.000    0.933 
#   24.000    0.000    0.000    0.000    0.000    0.000 
#
# Total GULP energy -167271.545777 kJ/mol
# GULP energy per Si atom -5575.718193 kJ/mol
# Density = 1.872645 g / cm^3
# Si number density = 18.769170 Si / 1000 Ang^3
#
#
#
# Elastic Constant Matrix: (Units=GPa)
#
#
# Indices 1 2 3 4 5 6 
#
# 1 28.4764 6.2025 20.8642 0.0057 -14.0040 0.0006
# 2 6.2025 35.9875 9.2193 -0.0171 -5.6363 -0.0030
# 3 20.8642 9.2193 158.8716 -0.0335 -6.5225 -0.0064
# 4 0.0057 -0.0171 -0.0335 -11.3935 0.0003 2.9162
# 5 -14.0040 -5.6363 -6.5225 0.0003 33.7860 0.0052
# 6 0.0006 -0.0030 -0.0064 2.9162 0.0052 11.0287
#
#
#
# Elastic Compliance Matrix: (Units=1/GPa)
#
#
# Indices 1 2 3 4 5 6 
#
# 1 0.049185 -0.004161 -0.005453 0.000041 0.018640 -0.000027
# 2 -0.004161 0.029231 -0.001029 -0.000039 0.002953 0.000016
# 3 -0.005453 -0.001029 0.007026 -0.000019 -0.001075 0.000010
# 4 0.000041 -0.000039 -0.000019 -0.082206 0.000004 0.021737
# 5 0.018640 0.002953 -0.001075 0.000004 0.037609 -0.000020
# 6 -0.000027 0.000016 0.000010 0.021737 -0.000020 0.084925
#
#
# Mechanical properties :
#
#
# Convention : Reuss Voigt Hill
#
# Bulk Modulus (GPa) = 15.58667 32.87861 24.23264
# Shear Modulus (GPa) = 29.68422 19.15421 24.41921
#
# Velocity S-wave (km/s) = 3.98117 3.19801 3.61089
# Velocity P-wave (km/s) = 5.42729 5.58496 5.50669
#
# Compressibility (1/GPa) = 0.06415739
#
# Stress axis : x y z
#
# Youngs Moduli (GPa) = 20.33147 34.21077 142.32828
#
# Poissons Ratio (x) = 0.14235 0.77606
# Poissons Ratio (y) = 0.08460 0.14640
# Poissons Ratio (z) = 0.11086 0.03519
#
# Static dielectric constant tensor:
#      x y z
#    x 1.641960 0.000000 0.010570 
#    y 0.000000 1.652780 0.000010 
#    z 0.010570 0.000010 1.703930 
# 
# From -- ./inp_files/275122.got.cif
#   From: 2010.05.17/outbox.cif.g08.bks.cpg/sg15_138_cif.got.tgz:275122.got - 2010.06.03 18:47:42.
