data_PCOD9256273
_publ_section_title
;
Structure prediction by ZEFSAII (Michael W. Deem and Ramdas Pophale) SiO2 
 PCOD9256273
Probable space group: C 2/C
;
_chemical_formula_sum "Si O2"
_cell_formula_units_Z 52
_cell_length_a 7.314663
_cell_length_b 11.892680
_cell_length_c 24.119381
_cell_angle_alpha 90.000000
_cell_angle_beta 91.549026
_cell_angle_gamma 90.000000
_cell_volume 2097.401025
_symmetry_space_group_name_H-M "C 2/C"
_symmetry_group_IT_number 15
_symmetry_cell_setting 'monoclinic'
loop_
_space_group_symop_operation_xyz
x,y,z
-x,y,1/2-z
-x,-y,-z
x,-y,1/2+z
1/2+x,1/2+y,z
1/2-x,1/2+y,1/2-z
1/2-x,1/2-y,-z
1/2+x,1/2-y,1/2+z
loop_
_atom_site_type_symbol
_atom_site_label
_atom_site_fract_x
_atom_site_fract_y
_atom_site_fract_z
Si Si1 0.577575 0.323563 0.690149
Si Si2 0.424618 0.308049 0.439765
Si Si3 0.016121 0.627815 0.976034
Si Si4 0.500000 0.690808 0.750000
Si Si5 0.818969 0.653916 0.337118
Si Si6 0.641984 0.451192 0.152810
Si Si7 0.562696 0.098593 0.647618
O O1 0.500000 0.345461 0.750000
O O2 0.395451 0.337770 0.651966
O O3 0.698292 0.421605 0.667025
O O4 0.650672 0.198235 0.684335
O O5 0.229663 0.345015 0.464717
O O6 0.534822 0.234809 0.485702
O O7 0.411769 0.218435 0.389012
O O8 0.463398 0.422621 0.405253
O O9 0.910062 0.624680 0.916902
O O10 0.000000 0.500000 0.000000
O O11 0.631956 0.783120 0.719983
O O12 0.483032 0.599315 0.799931
O O13 0.872229 0.524084 0.335582
O O14 0.842834 0.394689 0.154985
#
# Coordination Sequence:
#
# PCOD9256273 Si02
#       7
#     8   8   8   4   8   8   8
#     4  12  26  42  61  90 130 171 209 262 317 372
#     4   9  19  38  64  91 126 163 207 256 322 374
#     4  10  17  35  69  94 121 169 207 258 320 380
#     4  10  20  38  66  86 128 164 210 250 326 368
#     4  11  23  40  63  94 125 167 210 264 308 382
#     4  10  22  42  63  91 130 168 207 264 315 379
#     4  11  24  42  64  97 126 163 221 253 315 384
#
# _framework density 24.792589
#
# number of rings (size 3 to 8) (size 9 to 14) (size 15 to 20)
#    0.000    1.538    6.923    0.000    3.231    1.231 
#    2.769    0.769    0.000    4.615    0.000    0.000 
#    0.000    0.000    0.000    0.000    0.000    0.000 
#
# Total GULP energy -144926.942080 kJ/mol
# GULP energy per Si atom -5574.113157 kJ/mol
# Density = 2.473616 g / cm^3
# Si number density = 24.792589 Si / 1000 Ang^3
#
#
#
# Elastic Constant Matrix: (Units=GPa)
#
#
# Indices 1 2 3 4 5 6 
#
# 1 48.0897 26.2869 11.9816 0.0000 -14.1451 0.0000
# 2 26.2869 197.1621 35.5578 0.0000 -6.1109 0.0000
# 3 11.9816 35.5578 93.2337 0.0000 -14.2552 0.0000
# 4 0.0000 0.0000 0.0000 28.3536 0.0000 -4.9387
# 5 -14.1451 -6.1109 -14.2552 0.0000 18.4756 0.0000
# 6 0.0000 0.0000 0.0000 -4.9387 0.0000 31.0666
#
#
#
# Elastic Compliance Matrix: (Units=1/GPa)
#
#
# Indices 1 2 3 4 5 6 
#
# 1 0.028739 -0.003320 0.000872 0.000000 0.021578 0.000000
# 2 -0.003320 0.005831 -0.002144 0.000000 -0.002267 0.000000
# 3 0.000872 -0.002144 0.012953 0.000000 0.009953 0.000000
# 4 0.000000 0.000000 0.000000 0.036273 0.000000 0.005766
# 5 0.021578 -0.002267 0.009953 0.000000 0.077575 0.000000
# 6 0.000000 0.000000 0.000000 0.005766 0.000000 0.033106
#
#
# Mechanical properties :
#
#
# Convention : Reuss Voigt Hill
#
# Bulk Modulus (GPa) = 26.08294 54.01534 40.04914
# Shear Modulus (GPa) = 23.10105 33.22310 28.16208
#
# Velocity S-wave (km/s) = 3.05581 3.66463 3.37398
# Velocity P-wave (km/s) = 4.79520 6.30398 5.60063
#
# Compressibility (1/GPa) = 0.03833924
#
# Stress axis : x y z
#
# Youngs Moduli (GPa) = 34.79601 171.49722 77.20184
#
# Poissons Ratio (x) = 0.56940 -0.06733
# Poissons Ratio (y) = 0.11553 0.16551
# Poissons Ratio (z) = -0.03035 0.36767
#
# Static dielectric constant tensor:
#      x y z
#    x 2.028850 0.000000 0.046150 
#    y 0.000000 2.020620 0.000000 
#    z 0.046150 0.000000 1.990940 
# 
# From -- ./inp_files/287674.got.cif
#   From: 2010.05.17/outbox.cif.g08.bks.cpg/sg15_144_cif.got.tgz:287674.got - 2010.06.03 18:47:42.
