data_PCOD9256044
_publ_section_title
;
Structure prediction by ZEFSAII (Michael W. Deem and Ramdas Pophale) SiO2 
 PCOD9256044
Probable space group: C 2/C
;
_chemical_formula_sum "Si O2"
_cell_formula_units_Z 60
_cell_length_a 25.360005
_cell_length_b 18.918216
_cell_length_c 12.631431
_cell_angle_alpha 90.000000
_cell_angle_beta 26.437433
_cell_angle_gamma 90.000000
_cell_volume 2698.093564
_symmetry_space_group_name_H-M "C 2/C"
_symmetry_group_IT_number 15
_symmetry_cell_setting 'monoclinic'
loop_
_space_group_symop_operation_xyz
x,y,z
-x,y,1/2-z
-x,-y,-z
x,-y,1/2+z
1/2+x,1/2+y,z
1/2-x,1/2+y,1/2-z
1/2-x,1/2-y,-z
1/2+x,1/2-y,1/2+z
loop_
_atom_site_type_symbol
_atom_site_label
_atom_site_fract_x
_atom_site_fract_y
_atom_site_fract_z
Si Si1 0.394929 0.222048 0.365469
Si Si2 0.685087 0.422452 0.542938
Si Si3 0.283467 0.914336 0.147116
Si Si4 0.355933 0.797340 0.698982
Si Si5 0.455406 0.418375 0.063749
Si Si6 0.821055 0.086115 0.006891
Si Si7 0.211179 0.427923 0.912066
Si Si8 0.500000 0.178261 0.750000
O O1 0.500000 0.250538 0.250000
O O2 0.372826 0.140904 0.436700
O O3 0.411036 0.224396 0.210929
O O4 0.266894 0.258727 0.609605
O O5 0.752271 0.389298 0.322428
O O6 0.667881 0.502435 0.531169
O O7 0.754640 0.430336 0.527334
O O8 0.562077 0.387484 0.801697
O O9 0.162811 0.916030 0.294416
O O10 0.328050 0.994962 0.058818
O O11 0.450311 0.781575 0.439648
O O12 0.305905 0.878434 0.795420
O O13 0.416207 0.386944 0.248712
O O14 0.500000 0.500000 0.000000
O O15 0.818860 0.094180 0.138390
O O16 0.108527 0.371482 0.086727
#
# Coordination Sequence:
#
# PCOD9256044 Si02
#       8
#     8   8   8   8   8   8   8   4
#     4  11  25  44  69  90 121 170 217 266 314 375
#     4  10  20  33  57  94 130 158 204 252 313 378
#     4  11  21  38  57  94 130 158 208 259 313 378
#     4  10  22  49  64  89 127 164 220 256 316 377
#     4  10  17  34  55  86 129 166 198 246 314 368
#     4   9  18  36  59  82 124 164 198 255 303 373
#     4  10  20  36  57  94 123 162 202 251 325 374
#     4  10  24  42  68  88 128 168 200 268 314 380
#
# _framework density 22.237924
#
# number of rings (size 3 to 8) (size 9 to 14) (size 15 to 20)
#    0.000    1.867    4.000    0.400    2.800    0.533 
#    7.200    3.333    0.000    0.000    0.000    0.000 
#    0.000    0.000    0.000    0.000    0.000    0.000 
#
# Total GULP energy -167300.591950 kJ/mol
# GULP energy per Si atom -5576.686398 kJ/mol
# Density = 2.218731 g / cm^3
# Si number density = 22.237924 Si / 1000 Ang^3
#
#
#
# Elastic Constant Matrix: (Units=GPa)
#
#
# Indices 1 2 3 4 5 6 
#
# 1 132.5340 7.8934 90.9878 -0.0001 27.4514 0.0001
# 2 7.8934 28.1660 19.4121 0.0000 12.4960 0.0000
# 3 90.9878 19.4121 115.6940 0.0000 39.6140 0.0001
# 4 -0.0001 0.0000 0.0000 13.1565 0.0000 -3.0129
# 5 27.4514 12.4960 39.6140 0.0000 34.5687 0.0000
# 6 0.0001 0.0000 0.0001 -3.0129 0.0000 17.5835
#
#
#
# Elastic Compliance Matrix: (Units=1/GPa)
#
#
# Indices 1 2 3 4 5 6 
#
# 1 0.017066 0.004649 -0.014789 0.000000 0.001714 0.000000
# 2 0.004649 0.044222 -0.007140 0.000000 -0.011495 0.000000
# 3 -0.014789 -0.007140 0.027266 0.000000 -0.016920 0.000000
# 4 0.000000 0.000000 0.000000 0.079112 0.000000 0.013556
# 5 0.001714 -0.011495 -0.016920 0.000000 0.051111 0.000000
# 6 0.000000 0.000000 0.000000 0.013556 0.000000 0.059194
#
#
# Mechanical properties :
#
#
# Convention : Reuss Voigt Hill
#
# Bulk Modulus (GPa) = 18.52063 56.99784 37.75923
# Shear Modulus (GPa) = 15.12726 23.60179 19.36453
#
# Velocity S-wave (km/s) = 2.61098 3.26134 2.95411
# Velocity P-wave (km/s) = 4.17566 6.31414 5.35278
#
# Compressibility (1/GPa) = 0.05399385
#
# Stress axis : x y z
#
# Youngs Moduli (GPa) = 58.59577 22.61328 36.67621
#
# Poissons Ratio (x) = -0.10513 0.54239
# Poissons Ratio (y) = -0.27243 0.26188
# Poissons Ratio (z) = 0.86655 0.16147
#
# Static dielectric constant tensor:
#      x y z
#    x 1.859580 0.000000 0.075750 
#    y 0.000000 1.897540 0.000000 
#    z 0.075750 0.000000 1.933960 
# 
# From -- ./inp_files/119934.got.cif
#   From: 2010.05.17/outbox.cif.g08.bks.cpg/sg15_60_cif.got.tgz:119934.got - 2010.06.03 18:47:42.
