data_PCOD9256067
_publ_section_title
;
Structure prediction by ZEFSAII (Michael W. Deem and Ramdas Pophale) SiO2 
 PCOD9256067
Probable space group: C 2/C
;
_chemical_formula_sum "Si O2"
_cell_formula_units_Z 52
_cell_length_a 8.380281
_cell_length_b 15.359031
_cell_length_c 26.774058
_cell_angle_alpha 90.000000
_cell_angle_beta 50.559982
_cell_angle_gamma 90.000000
_cell_volume 2661.442228
_symmetry_space_group_name_H-M "C 2/C"
_symmetry_group_IT_number 15
_symmetry_cell_setting 'monoclinic'
loop_
_space_group_symop_operation_xyz
x,y,z
-x,y,1/2-z
-x,-y,-z
x,-y,1/2+z
1/2+x,1/2+y,z
1/2-x,1/2+y,1/2-z
1/2-x,1/2-y,-z
1/2+x,1/2-y,1/2+z
loop_
_atom_site_type_symbol
_atom_site_label
_atom_site_fract_x
_atom_site_fract_y
_atom_site_fract_z
Si Si1 0.543318 0.546433 0.638523
Si Si2 0.049343 0.690888 0.854113
Si Si3 0.182436 0.860622 0.587872
Si Si4 0.078663 0.125173 0.464018
Si Si5 0.000000 0.852206 0.250000
Si Si6 0.617326 0.179917 0.958016
Si Si7 0.746902 0.454926 0.393642
O O1 0.641866 0.451062 0.623453
O O2 0.504959 0.589578 0.699365
O O3 0.700262 0.610263 0.577526
O O4 0.341702 0.537876 0.644367
O O5 0.288017 0.701886 0.792379
O O6 0.040264 0.679845 0.915801
O O7 0.914833 0.775183 0.867430
O O8 0.952732 0.601918 0.852709
O O9 0.423193 0.846229 0.529967
O O10 0.063293 0.868723 0.557895
O O11 0.173447 0.219417 0.456603
O O12 0.922755 0.095969 0.538592
O O13 0.246081 0.050348 0.419096
#
# Coordination Sequence:
#
# PCOD9256067 Si02
#       7
#     8   8   8   8   4   8   8
#     4  10  23  35  54  80 117 143 191 221 276 322
#     4  10  19  37  62  78 111 147 188 221 277 325
#     4  10  17  35  59  87 107 151 174 226 279 342
#     4   9  17  30  55  86 121 136 173 209 290 346
#     4  10  24  44  52  72 104 158 196 234 258 326
#     4  10  17  34  56  87 117 147 169 220 280 346
#     4  10  18  33  54  87 111 145 173 230 270 331
#
# _framework density 19.538278999999999
#
# number of rings (size 3 to 8) (size 9 to 14) (size 15 to 20)
#    0.000    2.154    3.077    1.385    0.000    1.231 
#    0.000    7.692    0.000    0.000    0.000    0.000 
#    0.000    0.000    0.000    0.000    0.000    0.000 
#
# Total GULP energy -145103.614175 kJ/mol
# GULP energy per Si atom -5580.908238 kJ/mol
# Density = 1.949381 g / cm^3
# Si number density = 19.538279 Si / 1000 Ang^3
#
#
#
# Elastic Constant Matrix: (Units=GPa)
#
#
# Indices 1 2 3 4 5 6 
#
# 1 25.4351 10.0487 12.9972 -0.0001 -3.2108 0.0001
# 2 10.0487 74.6845 9.0451 -0.0002 -11.4875 0.0001
# 3 12.9972 9.0451 78.5519 0.0001 -13.9230 0.0000
# 4 -0.0001 -0.0002 0.0001 6.8927 0.0000 1.6614
# 5 -3.2108 -11.4875 -13.9230 0.0000 19.1184 -0.0001
# 6 0.0001 0.0001 0.0000 1.6614 -0.0001 18.5036
#
#
#
# Elastic Compliance Matrix: (Units=1/GPa)
#
#
# Indices 1 2 3 4 5 6 
#
# 1 0.044868 -0.005305 -0.006938 0.000000 -0.000705 0.000000
# 2 -0.005305 0.015382 0.000674 0.000000 0.008842 0.000000
# 3 -0.006938 0.000674 0.015691 0.000000 0.010667 0.000000
# 4 0.000000 0.000000 0.000000 0.148291 0.000000 -0.013315
# 5 -0.000705 0.008842 0.010667 0.000000 0.065268 0.000000
# 6 0.000000 0.000000 0.000000 -0.013315 0.000000 0.055239
#
#
# Mechanical properties :
#
#
# Convention : Reuss Voigt Hill
#
# Bulk Modulus (GPa) = 18.93838 26.98374 22.96106
# Shear Modulus (GPa) = 12.97088 18.67498 15.82293
#
# Velocity S-wave (km/s) = 2.57936 3.09498 2.84886
# Velocity P-wave (km/s) = 4.31101 5.15874 4.75381
#
# Compressibility (1/GPa) = 0.05280282
#
# Stress axis : x y z
#
# Youngs Moduli (GPa) = 22.28768 65.01148 63.72886
#
# Poissons Ratio (x) = 0.34489 0.44215
# Poissons Ratio (y) = 0.11824 -0.04294
# Poissons Ratio (z) = 0.15463 -0.04381
#
# Static dielectric constant tensor:
#      x y z
#    x 1.706760 0.000000 -0.006230 
#    y 0.000000 1.704690 0.000000 
#    z -0.006230 0.000000 1.660050 
# 
# From -- ./inp_files/231144.got.cif
#   From: 2010.05.17/outbox.cif.g08.bks.cpg/sg15_116_cif.got.tgz:231144.got - 2010.06.03 18:47:42.
