data_PCOD9256381
_publ_section_title
;
Structure prediction by ZEFSAII (Michael W. Deem and Ramdas Pophale) SiO2 
 PCOD9256381
Probable space group: C 2/C
;
_chemical_formula_sum "Si O2"
_cell_formula_units_Z 56
_cell_length_a 22.227779
_cell_length_b 17.480099
_cell_length_c 19.435959
_cell_angle_alpha 90.000000
_cell_angle_beta 24.939349
_cell_angle_gamma 90.000000
_cell_volume 3184.248409
_symmetry_space_group_name_H-M "C 2/C"
_symmetry_group_IT_number 15
_symmetry_cell_setting 'monoclinic'
loop_
_space_group_symop_operation_xyz
x,y,z
-x,y,1/2-z
-x,-y,-z
x,-y,1/2+z
1/2+x,1/2+y,z
1/2-x,1/2+y,1/2-z
1/2-x,1/2-y,-z
1/2+x,1/2-y,1/2+z
loop_
_atom_site_type_symbol
_atom_site_label
_atom_site_fract_x
_atom_site_fract_y
_atom_site_fract_z
Si Si1 0.925306 0.494523 0.003257
Si Si2 0.012813 0.819327 0.006010
Si Si3 0.812319 0.573236 0.807713
Si Si4 0.835847 0.909944 0.772131
Si Si5 0.446480 0.475660 0.478704
Si Si6 0.673199 0.668296 0.076466
Si Si7 0.825432 0.663258 0.655670
O O1 0.045164 0.524092 0.825753
O O2 0.795190 0.553538 0.133072
O O3 0.867274 0.407769 0.062645
O O4 0.000000 0.500000 0.000000
O O5 0.078354 0.850987 0.865791
O O6 0.079629 0.737901 0.953829
O O7 0.054308 0.884818 0.018206
O O8 0.842009 0.818167 0.177944
O O9 0.847670 0.634642 0.711240
O O10 0.700943 0.514770 0.887850
O O11 0.738223 0.617045 0.947404
O O12 0.790770 0.870037 0.888225
O O13 0.936649 0.981390 0.688104
O O14 0.500000 0.500000 0.500000
O O15 0.500000 0.674454 0.250000
O O16 0.750000 0.750000 0.000000
#
# Coordination Sequence:
#
# PCOD9256381 Si02
#       7
#     8   8   8   8   8   8   8
#     4  10  22  37  58  83 112 151 197 244 292 348
#     4  11  21  32  55  83 115 146 185 237 300 340
#     4  11  22  38  57  81 118 154 201 232 281 349
#     4  11  21  39  59  77 118 162 194 233 283 343
#     4  10  17  37  57  75 108 154 191 241 286 342
#     4  12  26  41  59  87 122 163 202 234 278 344
#     4  11  21  34  52  86 115 145 183 240 295 345
#
# _framework density 17.586568
#
# number of rings (size 3 to 8) (size 9 to 14) (size 15 to 20)
#    0.000    1.143    5.714    3.429    8.000    0.000 
#    0.000    0.000    0.000    0.000    0.000    6.000 
#    0.000    0.000    0.000    0.000    0.000    0.000 
#
# Total GULP energy -156165.817328 kJ/mol
# GULP energy per Si atom -5577.350619 kJ/mol
# Density = 1.754654 g / cm^3
# Si number density = 17.586568 Si / 1000 Ang^3
#
#
#
# Elastic Constant Matrix: (Units=GPa)
#
#
# Indices 1 2 3 4 5 6 
#
# 1 38.6118 41.3602 31.3460 0.0004 -2.7865 -0.0004
# 2 41.3602 145.5543 75.5933 -0.0012 -2.5492 0.0006
# 3 31.3460 75.5933 131.4598 -0.0001 -12.5311 -0.0001
# 4 0.0004 -0.0012 -0.0001 44.3391 0.0005 -5.2234
# 5 -2.7865 -2.5492 -12.5311 0.0005 31.7607 -0.0002
# 6 -0.0004 0.0006 -0.0001 -5.2234 -0.0002 25.1016
#
#
#
# Elastic Compliance Matrix: (Units=1/GPa)
#
#
# Indices 1 2 3 4 5 6 
#
# 1 0.038791 -0.008917 -0.004017 -0.000001 0.001103 0.000001
# 2 -0.008917 0.011914 -0.004892 0.000000 -0.001756 0.000000
# 3 -0.004017 -0.004892 0.011749 0.000000 0.003890 0.000000
# 4 -0.000001 0.000000 0.000000 0.023120 0.000000 0.004811
# 5 0.001103 -0.001756 0.003890 0.000000 0.032976 0.000000
# 6 0.000001 0.000000 0.000000 0.004811 0.000000 0.040839
#
#
# Mechanical properties :
#
#
# Convention : Reuss Voigt Hill
#
# Bulk Modulus (GPa) = 37.31107 68.02499 52.66803
# Shear Modulus (GPa) = 24.51264 31.39536 27.95400
#
# Velocity S-wave (km/s) = 3.73745 4.22973 3.99119
# Velocity P-wave (km/s) = 6.31557 7.91317 7.15907
#
# Compressibility (1/GPa) = 0.02680169
#
# Stress axis : x y z
#
# Youngs Moduli (GPa) = 25.77887 83.93367 85.11653
#
# Poissons Ratio (x) = 0.74847 0.34189
# Poissons Ratio (y) = 0.22988 0.41640
# Poissons Ratio (z) = 0.10355 0.41061
#
# Static dielectric constant tensor:
#      x y z
#    x 1.592830 0.000000 -0.001560 
#    y 0.000000 1.629470 0.000000 
#    z -0.001560 0.000000 1.666370 
# 
# From -- ./inp_files/255903.got.cif
#   From: 2010.05.17/outbox.cif.g08.bks.cpg/sg15_128_cif.got.tgz:255903.got - 2010.06.03 18:47:42.
