data_PCOD9256511
_publ_section_title
;
Structure prediction by ZEFSAII (Michael W. Deem and Ramdas Pophale) SiO2 
 PCOD9256511
Probable space group: C 2/C
;
_chemical_formula_sum "Si O2"
_cell_formula_units_Z 32
_cell_length_a 7.398845
_cell_length_b 34.384960
_cell_length_c 5.295736
_cell_angle_alpha 90.000000
_cell_angle_beta 118.298707
_cell_angle_gamma 90.000000
_cell_volume 1186.266447
_symmetry_space_group_name_H-M "C 2/C"
_symmetry_group_IT_number 15
_symmetry_cell_setting 'monoclinic'
loop_
_space_group_symop_operation_xyz
x,y,z
-x,y,1/2-z
-x,-y,-z
x,-y,1/2+z
1/2+x,1/2+y,z
1/2-x,1/2+y,1/2-z
1/2-x,1/2-y,-z
1/2+x,1/2-y,1/2+z
loop_
_atom_site_type_symbol
_atom_site_label
_atom_site_fract_x
_atom_site_fract_y
_atom_site_fract_z
Si Si1 0.747835 0.980008 0.413656
Si Si2 0.131190 0.784305 0.573134
Si Si3 0.745626 0.394344 0.291879
Si Si4 0.788930 0.636544 0.322979
O O1 0.500000 0.982666 0.250000
O O2 0.789220 0.937403 0.333106
O O3 0.813530 0.988773 0.744115
O O4 0.250000 0.750000 0.500000
O O5 0.288857 0.818344 0.751964
O O6 0.000000 0.774712 0.750000
O O7 0.000000 0.800505 0.250000
O O8 0.674421 0.387524 0.528671
O O9 0.989706 0.383836 0.494848
O O10 0.689937 0.365391 0.031172
#
# Coordination Sequence:
#
# PCOD9256511 Si02
#       4
#     8   8   8   8
#     4  10  18  26  45  81 135 172 209 267 332 390
#     4  12  28  51  74 102 135 174 227 285 348 412
#     4  10  19  35  59  91 132 177 218 271 345 385
#     4  10  21  37  61  88 128 165 221 260 331 402
#
# _framework density 26.975390000000001
#
# number of rings (size 3 to 8) (size 9 to 14) (size 15 to 20)
#    0.000    1.500    2.500    3.750   10.500    0.000 
#    0.000    0.000    0.000    0.000    0.000    0.000 
#    0.000  116.000    0.000    0.000    0.000    0.000 
#
# Total GULP energy -89453.949649 kJ/mol
# GULP energy per Si atom -5590.871853 kJ/mol
# Density = 2.691399 g / cm^3
# Si number density = 26.975390 Si / 1000 Ang^3
#
#
#
# Elastic Constant Matrix: (Units=GPa)
#
#
# Indices 1 2 3 4 5 6 
#
# 1 139.5152 43.1284 29.9076 0.0000 -38.6156 0.0000
# 2 43.1284 199.6635 69.0886 0.0000 -29.0398 0.0000
# 3 29.9076 69.0886 236.6554 0.0000 -48.3331 0.0000
# 4 0.0000 0.0000 0.0000 63.6847 0.0000 -4.5979
# 5 -38.6156 -29.0398 -48.3331 0.0000 47.0345 0.0000
# 6 0.0000 0.0000 0.0000 -4.5979 0.0000 56.6276
#
#
#
# Elastic Compliance Matrix: (Units=1/GPa)
#
#
# Indices 1 2 3 4 5 6 
#
# 1 0.009553 -0.001175 0.000746 0.000000 0.007884 0.000000
# 2 -0.001175 0.005908 -0.001302 0.000000 0.001346 0.000000
# 3 0.000746 -0.001302 0.005660 0.000000 0.005625 0.000000
# 4 0.000000 0.000000 0.000000 0.015795 0.000000 0.001282
# 5 0.007884 0.001346 0.005625 0.000000 0.034346 0.000000
# 6 0.000000 0.000000 0.000000 0.001282 0.000000 0.017763
#
#
# Mechanical properties :
#
#
# Convention : Reuss Voigt Hill
#
# Bulk Modulus (GPa) = 56.62287 95.56481 76.09384
# Shear Modulus (GPa) = 50.82670 62.38332 56.60501
#
# Velocity S-wave (km/s) = 4.34543 4.81417 4.58579
# Velocity P-wave (km/s) = 6.79803 8.14894 7.50394
#
# Compressibility (1/GPa) = 0.01766071
#
# Stress axis : x y z
#
# Youngs Moduli (GPa) = 104.67630 169.25293 176.67507
#
# Poissons Ratio (x) = 0.19886 -0.13179
# Poissons Ratio (y) = 0.12299 0.22995
# Poissons Ratio (z) = -0.07809 0.22029
#
# Static dielectric constant tensor:
#      x y z
#    x 2.074980 0.000000 0.056860 
#    y 0.000000 2.026800 0.000000 
#    z 0.056860 0.000000 2.103800 
# 
# From -- ./inp_files/2703.got.cif
#   From: 2010.05.17/outbox.cif.g08.bks.cpg/sg15_2_cif.got.tgz:2703.got - 2010.06.03 18:47:42.
