data_PCOD9256455
_publ_section_title
;
Structure prediction by ZEFSAII (Michael W. Deem and Ramdas Pophale) SiO2 
 PCOD9256455
Probable space group: C 2/C
;
_chemical_formula_sum "Si O2"
_cell_formula_units_Z 56
_cell_length_a 17.360283
_cell_length_b 9.788396
_cell_length_c 18.919218
_cell_angle_alpha 90.000000
_cell_angle_beta 115.028613
_cell_angle_gamma 90.000000
_cell_volume 2913.037158
_symmetry_space_group_name_H-M "C 2/C"
_symmetry_group_IT_number 15
_symmetry_cell_setting 'monoclinic'
loop_
_space_group_symop_operation_xyz
x,y,z
-x,y,1/2-z
-x,-y,-z
x,-y,1/2+z
1/2+x,1/2+y,z
1/2-x,1/2+y,1/2-z
1/2-x,1/2-y,-z
1/2+x,1/2-y,1/2+z
loop_
_atom_site_type_symbol
_atom_site_label
_atom_site_fract_x
_atom_site_fract_y
_atom_site_fract_z
Si Si1 0.899931 0.200398 0.488377
Si Si2 0.819522 0.089930 0.159445
Si Si3 0.682147 0.970968 0.001812
Si Si4 0.034488 0.025502 0.379439
Si Si5 0.157413 0.044393 0.172752
Si Si6 0.757901 0.132610 0.902202
Si Si7 0.431562 0.779588 0.018747
O O1 0.843544 0.313739 0.504882
O O2 0.918822 0.069313 0.544412
O O3 0.859176 0.149841 0.398412
O O4 0.991185 0.268068 0.505881
O O5 0.810024 0.096927 0.239686
O O6 0.809015 0.244470 0.127124
O O7 0.908865 0.025310 0.168925
O O8 0.745210 0.005942 0.091291
O O9 0.728363 0.023297 0.948873
O O10 0.599142 0.068221 0.976733
O O11 0.036810 0.183606 0.405139
O O12 0.936074 0.983898 0.345099
O O13 0.222605 0.936816 0.164737
O O14 0.846315 0.203342 0.959210
#
# Coordination Sequence:
#
# PCOD9256455 Si02
#       7
#     8   8   8   8   8   8   8
#     4  11  22  36  63  95 117 150 209 255 286 349
#     4  11  23  37  62  86 123 160 201 238 308 361
#     4  11  22  37  63  92 119 156 200 252 298 349
#     4  11  19  41  63  86 114 162 205 241 283 364
#     4  11  23  37  61  88 123 158 197 249 303 352
#     4  11  20  41  62  84 121 160 197 247 296 359
#     4  10  17  39  61  84 114 158 199 237 291 353
#
# _framework density 19.223922000000002
#
# number of rings (size 3 to 8) (size 9 to 14) (size 15 to 20)
#    0.000    1.143    5.714    2.571    2.000    2.286 
#    0.000    0.000    0.000    0.000    0.000    0.000 
#    0.000    0.000    0.000    0.000    0.000    0.000 
#
# Total GULP energy -156182.504822 kJ/mol
# GULP energy per Si atom -5577.946601 kJ/mol
# Density = 1.918017 g / cm^3
# Si number density = 19.223922 Si / 1000 Ang^3
#
#
#
# Elastic Constant Matrix: (Units=GPa)
#
#
# Indices 1 2 3 4 5 6 
#
# 1 96.9738 28.5434 16.1717 0.0000 -11.1977 0.0000
# 2 28.5434 57.3284 9.6923 0.0000 1.5614 0.0000
# 3 16.1717 9.6923 74.6278 0.0000 -14.4443 0.0000
# 4 0.0000 0.0000 0.0000 11.0477 0.0000 -11.5213
# 5 -11.1977 1.5614 -14.4443 0.0000 20.0704 0.0000
# 6 0.0000 0.0000 0.0000 -11.5213 0.0000 34.1390
#
#
#
# Elastic Compliance Matrix: (Units=1/GPa)
#
#
# Indices 1 2 3 4 5 6 
#
# 1 0.013245 -0.006708 -0.000543 0.000000 0.007521 0.000000
# 2 -0.006708 0.021452 -0.002765 0.000000 -0.007401 0.000000
# 3 -0.000543 -0.002765 0.016103 0.000000 0.011501 0.000000
# 4 0.000000 0.000000 0.000000 0.139674 0.000000 0.047137
# 5 0.007521 -0.007401 0.011501 0.000000 0.062873 0.000000
# 6 0.000000 0.000000 0.000000 0.047137 0.000000 0.045200
#
#
# Mechanical properties :
#
#
# Convention : Reuss Voigt Hill
#
# Bulk Modulus (GPa) = 32.50161 37.52721 35.01441
# Shear Modulus (GPa) = 15.20514 24.68627 19.94571
#
# Velocity S-wave (km/s) = 2.81543 3.58738 3.22459
# Velocity P-wave (km/s) = 5.24523 6.05991 5.66723
#
# Compressibility (1/GPa) = 0.03076771
#
# Stress axis : x y z
#
# Youngs Moduli (GPa) = 75.49738 46.61534 62.10135
#
# Poissons Ratio (x) = 0.31269 0.03375
# Poissons Ratio (y) = 0.50642 0.17172
# Poissons Ratio (z) = 0.04103 0.12890
#
# Static dielectric constant tensor:
#      x y z
#    x 1.704170 0.000000 0.000440 
#    y 0.000000 1.665120 0.000000 
#    z 0.000440 0.000000 1.680480 
# 
# From -- ./inp_files/209625.got.cif
#   From: 2010.05.17/outbox.cif.g08.bks.cpg/sg15_105_cif.got.tgz:209625.got - 2010.06.03 18:47:42.
