data_PCOD9256742
_publ_section_title
;
Structure prediction by ZEFSAII (Michael W. Deem and Ramdas Pophale) SiO2 
 PCOD9256742
Probable space group: C 2/C
;
_chemical_formula_sum "Si O2"
_cell_formula_units_Z 48
_cell_length_a 12.472032
_cell_length_b 20.927806
_cell_length_c 14.963765
_cell_angle_alpha 90.000000
_cell_angle_beta 146.860244
_cell_angle_gamma 90.000000
_cell_volume 2135.194513
_symmetry_space_group_name_H-M "C 2/C"
_symmetry_group_IT_number 15
_symmetry_cell_setting 'monoclinic'
loop_
_space_group_symop_operation_xyz
x,y,z
-x,y,1/2-z
-x,-y,-z
x,-y,1/2+z
1/2+x,1/2+y,z
1/2-x,1/2+y,1/2-z
1/2-x,1/2-y,-z
1/2+x,1/2-y,1/2+z
loop_
_atom_site_type_symbol
_atom_site_label
_atom_site_fract_x
_atom_site_fract_y
_atom_site_fract_z
Si Si1 0.555766 0.676693 0.584667
Si Si2 0.585444 0.555584 0.495099
Si Si3 0.190966 0.676311 0.444478
Si Si4 0.459376 0.176259 0.971363
Si Si5 0.536597 0.007838 0.182280
Si Si6 0.763136 0.437006 0.858540
O O1 0.539753 0.627221 0.493828
O O2 0.388374 0.650989 0.536532
O O3 0.513696 0.749806 0.527678
O O4 0.772462 0.673428 0.776531
O O5 0.500000 0.500000 0.500000
O O6 0.815408 0.544639 0.672050
O O7 0.465741 0.552234 0.319841
O O8 0.250000 0.750000 0.500000
O O9 0.126227 0.649034 0.494377
O O10 0.000000 0.678723 0.250000
O O11 0.643084 0.133987 0.067497
O O12 0.500000 0.046744 0.250000
O O13 0.645604 0.040440 0.174241
O O14 0.351768 0.977704 0.001963
#
# Coordination Sequence:
#
# PCOD9256742 Si02
#       6
#     8   8   8   8   8   8
#     4  11  20  34  53  86 118 162 199 246 303 363
#     4  10  21  38  60  86 120 157 202 247 295 360
#     4  10  18  29  46  77 119 156 193 235 292 361
#     4  11  20  33  56  84 119 159 199 248 305 364
#     4  10  22  41  63  89 121 160 203 251 301 359
#     4  10  21  39  62  90 122 154 203 249 300 363
#
# _framework density 22.480385999999999
#
# number of rings (size 3 to 8) (size 9 to 14) (size 15 to 20)
#    0.000    1.667    1.667    6.500    0.000    4.000 
#    0.000    0.000    0.000    1.000    0.000    0.000 
#    0.000    0.000    0.000    0.000    0.000    0.000 
#
# Total GULP energy -133828.124879 kJ/mol
# GULP energy per Si atom -5576.171870 kJ/mol
# Density = 2.242922 g / cm^3
# Si number density = 22.480386 Si / 1000 Ang^3
#
#
#
# Elastic Constant Matrix: (Units=GPa)
#
#
# Indices 1 2 3 4 5 6 
#
# 1 48.5640 17.5073 35.4065 0.0000 -7.9763 0.0000
# 2 17.5073 72.2071 49.8372 0.0000 1.6215 0.0000
# 3 35.4065 49.8372 215.3687 0.0000 0.0389 0.0000
# 4 0.0000 0.0000 0.0000 25.3135 0.0000 6.0645
# 5 -7.9763 1.6215 0.0389 0.0000 49.6196 0.0000
# 6 0.0000 0.0000 0.0000 6.0645 0.0000 14.8618
#
#
#
# Elastic Compliance Matrix: (Units=1/GPa)
#
#
# Indices 1 2 3 4 5 6 
#
# 1 0.025033 -0.003953 -0.003201 0.000000 0.004156 0.000000
# 2 -0.003953 0.017120 -0.003311 0.000000 -0.001192 0.000000
# 3 -0.003201 -0.003311 0.005936 0.000000 -0.000411 0.000000
# 4 0.000000 0.000000 0.000000 0.043785 0.000000 -0.017867
# 5 0.004156 -0.001192 -0.000411 0.000000 0.020861 0.000000
# 6 0.000000 0.000000 0.000000 -0.017867 0.000000 0.074577
#
#
# Mechanical properties :
#
#
# Convention : Reuss Voigt Hill
#
# Bulk Modulus (GPa) = 36.82341 60.18241 48.50291
# Shear Modulus (GPa) = 23.01007 33.51824 28.26416
#
# Velocity S-wave (km/s) = 3.20279 3.86554 3.54966
# Velocity P-wave (km/s) = 5.48570 6.83757 6.19860
#
# Compressibility (1/GPa) = 0.02715664
#
# Stress axis : x y z
#
# Youngs Moduli (GPa) = 39.94708 58.41146 168.46726
#
# Poissons Ratio (x) = 0.23092 0.53933
# Poissons Ratio (y) = 0.15792 0.55788
# Poissons Ratio (z) = 0.12789 0.19343
#
# Static dielectric constant tensor:
#      x y z
#    x 1.991070 0.000000 -0.000060 
#    y 0.000000 1.843530 0.000000 
#    z -0.000060 0.000000 1.833160 
# 
# From -- ./inp_files/156832.got.cif
#   From: 2010.05.17/outbox.cif.g08.bks.cpg/sg15_79_cif.got.tgz:156832.got - 2010.06.03 18:47:42.
