data_PCOD9256275
_publ_section_title
;
Structure prediction by ZEFSAII (Michael W. Deem and Ramdas Pophale) SiO2 
 PCOD9256275
Probable space group: C 2/C
;
_chemical_formula_sum "Si O2"
_cell_formula_units_Z 64
_cell_length_a 29.705060
_cell_length_b 13.893501
_cell_length_c 24.987383
_cell_angle_alpha 90.000000
_cell_angle_beta 17.251618
_cell_angle_gamma 90.000000
_cell_volume 3058.355665
_symmetry_space_group_name_H-M "C 2/C"
_symmetry_group_IT_number 15
_symmetry_cell_setting 'monoclinic'
loop_
_space_group_symop_operation_xyz
x,y,z
-x,y,1/2-z
-x,-y,-z
x,-y,1/2+z
1/2+x,1/2+y,z
1/2-x,1/2+y,1/2-z
1/2-x,1/2-y,-z
1/2+x,1/2-y,1/2+z
loop_
_atom_site_type_symbol
_atom_site_label
_atom_site_fract_x
_atom_site_fract_y
_atom_site_fract_z
Si Si1 0.097176 0.605364 0.189114
Si Si2 0.683642 0.470665 0.139294
Si Si3 0.046393 0.811283 0.984450
Si Si4 0.210318 0.749507 0.145996
Si Si5 0.130580 0.086553 0.487576
Si Si6 0.641333 0.000597 0.463678
Si Si7 0.716205 0.353993 0.287151
Si Si8 0.098232 0.459441 0.339228
O O1 0.178380 0.687989 0.129716
O O2 0.000000 0.646329 0.250000
O O3 0.980176 0.555059 0.361665
O O4 0.212511 0.528504 0.031246
O O5 0.709860 0.360793 0.130824
O O6 0.504528 0.472528 0.332110
O O7 0.738759 0.534176 0.127295
O O8 0.920340 0.748912 0.160112
O O9 0.959668 0.839516 0.028607
O O10 0.087742 0.903736 0.973590
O O11 0.196000 0.747435 0.813787
O O12 0.355889 0.696345 0.006314
O O13 0.295672 0.041477 0.307087
O O14 0.719451 0.926733 0.332519
O O15 0.533673 0.072794 0.552036
O O16 0.774168 0.393428 0.278204
O O17 0.000000 0.500000 0.500000
#
# Coordination Sequence:
#
# PCOD9256275 Si02
#       8
#     8   8   8   8   8   8   8   8
#     4  10  20  30  46  67 100 138 177 209 239 282
#     4  10  22  30  46  71  97 136 175 216 237 278
#     4  11  20  32  53  70 101 128 171 217 255 288
#     4  11  18  31  45  65 102 135 174 208 246 267
#     4  11  20  33  51  69  98 135 173 215 246 290
#     4  10  17  36  47  65  99 136 170 207 240 294
#     4  11  20  35  52  72  93 132 173 213 258 305
#     4  10  22  35  53  68  91 131 179 204 261 304
#
# _framework density 20.926278
#
# number of rings (size 3 to 8) (size 9 to 14) (size 15 to 20)
#    0.000    1.500    6.250    1.125    5.250    1.000 
#    0.000    0.000    0.000    0.000    0.000    0.000 
#    0.000    0.000    0.000   21.375    0.500    0.000 
#
# Total GULP energy -178320.420077 kJ/mol
# GULP energy per Si atom -5572.513127 kJ/mol
# Density = 2.087865 g / cm^3
# Si number density = 20.926278 Si / 1000 Ang^3
#
#
#
# Elastic Constant Matrix: (Units=GPa)
#
#
# Indices 1 2 3 4 5 6 
#
# 1 85.0014 5.3655 4.5519 -0.0048 -23.7550 0.0015
# 2 5.3655 4.8651 -3.3629 -0.0126 -0.2034 0.0050
# 3 4.5519 -3.3629 71.3307 -0.0110 -12.9248 0.0073
# 4 -0.0048 -0.0126 -0.0110 11.0621 0.0061 -8.4919
# 5 -23.7550 -0.2034 -12.9248 0.0061 35.5840 -0.0015
# 6 0.0015 0.0050 0.0073 -8.4919 -0.0015 29.4076
#
#
#
# Elastic Compliance Matrix: (Units=1/GPa)
#
#
# Indices 1 2 3 4 5 6 
#
# 1 0.015744 -0.016862 0.000093 -0.000021 0.010448 -0.000003
# 2 -0.016862 0.231430 0.010904 0.000308 -0.005973 0.000048
# 3 0.000093 0.010904 0.015575 0.000027 0.005782 0.000002
# 4 -0.000021 0.000308 0.000027 0.116145 -0.000021 0.033538
# 5 0.010448 -0.005973 0.005782 -0.000021 0.037143 -0.000005
# 6 -0.000003 0.000048 0.000002 0.033538 -0.000005 0.043690
#
#
# Mechanical properties :
#
#
# Convention : Reuss Voigt Hill
#
# Bulk Modulus (GPa) = 3.98372 19.36737 11.67555
# Shear Modulus (GPa) = 9.00694 25.52026 17.26360
#
# Velocity S-wave (km/s) = 2.07689 3.49597 2.87535
# Velocity P-wave (km/s) = 2.76751 5.05676 4.07615
#
# Compressibility (1/GPa) = 0.25102155
#
# Stress axis : x y z
#
# Youngs Moduli (GPa) = 63.51782 4.32095 64.20559
#
# Poissons Ratio (x) = 0.07286 -0.00600
# Poissons Ratio (y) = 1.07101 -0.70013
# Poissons Ratio (z) = -0.00594 -0.04712
#
# Static dielectric constant tensor:
#      x y z
#    x 1.865240 0.000000 -0.017010 
#    y 0.000000 1.796400 0.000000 
#    z -0.017010 0.000000 1.853010 
# 
# From -- ./inp_files/283718.got.cif
#   From: 2010.05.17/outbox.cif.g08.bks.cpg/sg15_142_cif.got.tgz:283718.got - 2010.06.03 18:47:42.
