data_PCOD9256551
_publ_section_title
;
Structure prediction by ZEFSAII (Michael W. Deem and Ramdas Pophale) SiO2 
 PCOD9256551
Probable space group: C 2/C
;
_chemical_formula_sum "Si O2"
_cell_formula_units_Z 48
_cell_length_a 16.005420
_cell_length_b 8.583989
_cell_length_c 22.994947
_cell_angle_alpha 90.000000
_cell_angle_beta 143.978060
_cell_angle_gamma 90.000000
_cell_volume 1857.959013
_symmetry_space_group_name_H-M "C 2/C"
_symmetry_group_IT_number 15
_symmetry_cell_setting 'monoclinic'
loop_
_space_group_symop_operation_xyz
x,y,z
-x,y,1/2-z
-x,-y,-z
x,-y,1/2+z
1/2+x,1/2+y,z
1/2-x,1/2+y,1/2-z
1/2-x,1/2-y,-z
1/2+x,1/2-y,1/2+z
loop_
_atom_site_type_symbol
_atom_site_label
_atom_site_fract_x
_atom_site_fract_y
_atom_site_fract_z
Si Si1 0.794550 0.526415 0.784066
Si Si2 0.500000 0.151209 0.750000
Si Si3 0.778380 0.182174 0.349707
Si Si4 0.956811 0.328204 0.954363
Si Si5 0.500000 0.677851 0.750000
Si Si6 0.502056 0.566253 0.164481
Si Si7 0.786366 0.839139 0.458869
O O1 0.831172 0.700105 0.825995
O O2 0.739719 0.488120 0.688973
O O3 0.899428 0.382069 0.858926
O O4 0.659122 0.496246 0.747390
O O5 0.478468 0.269761 0.791901
O O6 0.355120 0.075385 0.644085
O O7 0.625386 0.227283 0.289747
O O8 0.906758 0.215789 0.466443
O O9 0.842657 0.267276 0.937572
O O10 0.000000 0.500000 0.000000
O O11 0.575010 0.557593 0.837111
O O12 0.420910 0.567128 0.058015
O O13 0.750000 0.750000 0.500000
#
# Coordination Sequence:
#
# PCOD9256551 Si02
#       7
#     8   4   8   8   4   8   8
#     4  10  19  36  59  87 114 155 198 247 290 354
#     4   9  16  26  42  75 118 147 172 243 294 333
#     4  10  21  38  63  85 116 155 202 242 299 352
#     4  10  20  33  54  84 118 155 194 241 295 353
#     4   9  20  36  60  83 110 157 198 239 292 369
#     4   9  16  29  52  78 111 144 197 232 286 344
#     4  10  18  27  49  81 117 150 186 243 292 340
#
# _framework density 25.834800999999999
#
# number of rings (size 3 to 8) (size 9 to 14) (size 15 to 20)
#    0.000    2.333    3.333    0.000    7.000    0.000 
#    0.000    1.667    0.000    9.000    0.000    0.000 
#    0.000    0.000    0.000    0.000    0.000    0.000 
#
# Total GULP energy -133780.379388 kJ/mol
# GULP energy per Si atom -5574.182474 kJ/mol
# Density = 2.577600 g / cm^3
# Si number density = 25.834801 Si / 1000 Ang^3
#
#
#
# Elastic Constant Matrix: (Units=GPa)
#
#
# Indices 1 2 3 4 5 6 
#
# 1 87.6532 20.0823 9.0220 0.0000 -2.2698 0.0000
# 2 20.0823 81.9343 33.5975 0.0000 -19.9684 0.0000
# 3 9.0220 33.5975 162.9317 0.0000 4.3136 0.0000
# 4 0.0000 0.0000 0.0000 14.4161 0.0000 -17.7347
# 5 -2.2698 -19.9684 4.3136 0.0000 29.5875 0.0000
# 6 0.0000 0.0000 0.0000 -17.7347 0.0000 36.8173
#
#
#
# Elastic Compliance Matrix: (Units=1/GPa)
#
#
# Indices 1 2 3 4 5 6 
#
# 1 0.012129 -0.003311 0.000046 0.000000 -0.001311 0.000000
# 2 -0.003311 0.017503 -0.003746 0.000000 0.012105 0.000000
# 3 0.000046 -0.003746 0.007001 0.000000 -0.003546 0.000000
# 4 0.000000 0.000000 0.000000 0.170260 0.000000 0.082013
# 5 -0.001311 0.012105 -0.003546 0.000000 0.042384 0.000000
# 6 0.000000 0.000000 0.000000 0.082013 0.000000 0.066667
#
#
# Mechanical properties :
#
#
# Convention : Reuss Voigt Hill
#
# Bulk Modulus (GPa) = 44.22876 50.88029 47.55453
# Shear Modulus (GPa) = 14.81472 34.15200 24.48336
#
# Velocity S-wave (km/s) = 2.39726 3.63979 3.08180
# Velocity P-wave (km/s) = 4.98191 6.11566 5.57767
#
# Compressibility (1/GPa) = 0.02260972
#
# Stress axis : x y z
#
# Youngs Moduli (GPa) = 82.45031 57.13422 142.82899
#
# Poissons Ratio (x) = 0.18917 -0.00655
# Poissons Ratio (y) = 0.27299 0.53508
# Poissons Ratio (z) = -0.00378 0.21404
#
# Static dielectric constant tensor:
#      x y z
#    x 2.511890 0.000000 0.469110 
#    y 0.000000 2.108370 0.000000 
#    z 0.469110 0.000000 2.654320 
# 
# From -- ./inp_files/152001.got.cif
#   From: 2010.05.17/outbox.cif.g08.bks.cpg/sg15_77_cif.got.tgz:152001.got - 2010.06.03 18:47:42.
