data_PCOD9256565
_publ_section_title
;
Structure prediction by ZEFSAII (Michael W. Deem and Ramdas Pophale) SiO2 
 PCOD9256565
Probable space group: C 2/C
;
_chemical_formula_sum "Si O2"
_cell_formula_units_Z 44
_cell_length_a 10.072260
_cell_length_b 32.248153
_cell_length_c 9.038294
_cell_angle_alpha 90.000000
_cell_angle_beta 28.241503
_cell_angle_gamma 90.000000
_cell_volume 1389.162020
_symmetry_space_group_name_H-M "C 2/C"
_symmetry_group_IT_number 15
_symmetry_cell_setting 'monoclinic'
loop_
_space_group_symop_operation_xyz
x,y,z
-x,y,1/2-z
-x,-y,-z
x,-y,1/2+z
1/2+x,1/2+y,z
1/2-x,1/2+y,1/2-z
1/2-x,1/2-y,-z
1/2+x,1/2-y,1/2+z
loop_
_atom_site_type_symbol
_atom_site_label
_atom_site_fract_x
_atom_site_fract_y
_atom_site_fract_z
Si Si1 0.500000 0.990455 0.250000
Si Si2 0.856135 0.224217 0.212811
Si Si3 0.169153 0.631933 0.399504
Si Si4 0.169062 0.919030 0.383128
Si Si5 0.500000 0.705034 0.750000
Si Si6 0.000000 0.650469 0.250000
Si Si7 0.500000 0.460323 0.250000
Si Si8 0.500000 0.000000 0.500000
O O1 0.234179 0.998454 0.629040
O O2 0.313154 0.026447 0.323080
O O3 0.852709 0.225415 0.035562
O O4 0.167216 0.237197 0.946835
O O5 0.764476 0.178049 0.344613
O O6 0.153757 0.629955 0.235794
O O7 0.855160 0.620132 0.748316
O O8 0.370866 0.593634 0.240376
O O9 0.133059 0.927825 0.244787
O O10 0.364820 0.958296 0.245717
O O11 0.753151 0.677597 0.567345
#
# Coordination Sequence:
#
# PCOD9256565 Si02
#       8
#     4   8   8   8   4   4   4   4
#     4  10  22  39  62  87 120 151 204 237 298 345
#     4  11  20  31  43  60  91 131 179 228 283 337
#     4  11  21  32  48  71  98 139 183 240 283 344
#     4  11  21  35  54  76 108 139 190 232 290 337
#     4  10  18  28  42  61  90 132 182 234 280 335
#     4  10  18  30  44  65  96 130 184 232 286 323
#     4  10  20  35  56  81 108 149 192 251 284 347
#     4  10  24  42  62  90 118 162 192 248 290 354
#
# _framework density 31.673772
#
# number of rings (size 3 to 8) (size 9 to 14) (size 15 to 20)
#    0.000    1.455    0.000    9.273    0.000    8.727 
#    0.000    0.000    0.000    0.000    0.000    0.000 
#    0.000    0.000    0.000   16.364    0.000    0.000 
#
# Total GULP energy -122789.317297 kJ/mol
# GULP energy per Si atom -5581.332604 kJ/mol
# Density = 3.160168 g / cm^3
# Si number density = 31.673772 Si / 1000 Ang^3
#
#
#
# Elastic Constant Matrix: (Units=GPa)
#
#
# Indices 1 2 3 4 5 6 
#
# 1 294.5961 39.7533 39.9880 0.0000 35.2499 0.0000
# 2 39.7533 196.6498 82.6206 0.0000 -14.5353 0.0000
# 3 39.9880 82.6206 200.4114 0.0000 -33.8211 0.0000
# 4 0.0000 0.0000 0.0000 78.4682 0.0000 3.6822
# 5 35.2499 -14.5353 -33.8211 0.0000 48.0110 0.0000
# 6 0.0000 0.0000 0.0000 3.6822 0.0000 26.0360
#
#
#
# Elastic Compliance Matrix: (Units=1/GPa)
#
#
# Indices 1 2 3 4 5 6 
#
# 1 0.004142 -0.000608 -0.001271 0.000000 -0.004121 0.000000
# 2 -0.000608 0.006240 -0.002335 0.000000 0.000691 0.000000
# 3 -0.001271 -0.002335 0.007087 0.000000 0.005219 0.000000
# 4 0.000000 0.000000 0.000000 0.012829 0.000000 -0.001814
# 5 -0.004121 0.000691 0.005219 0.000000 0.027739 0.000000
# 6 0.000000 0.000000 0.000000 -0.001814 0.000000 0.038665
#
#
# Mechanical properties :
#
#
# Convention : Reuss Voigt Hill
#
# Bulk Modulus (GPa) = 110.60475 112.93124 111.76799
# Shear Modulus (GPa) = 46.23489 65.78939 56.01214
#
# Velocity S-wave (km/s) = 3.82478 4.56246 4.20981
# Velocity P-wave (km/s) = 7.38248 7.96785 7.68074
#
# Compressibility (1/GPa) = 0.00904120
#
# Stress axis : x y z
#
# Youngs Moduli (GPa) = 241.42158 160.25704 141.11221
#
# Poissons Ratio (x) = 0.09740 0.17940
# Poissons Ratio (y) = 0.14673 0.32944
# Poissons Ratio (z) = 0.30693 0.37414
#
# Static dielectric constant tensor:
#      x y z
#    x 2.964630 0.000000 0.128790 
#    y 0.000000 2.410470 0.000000 
#    z 0.128790 0.000000 2.823370 
# 
# From -- ./inp_files/157530.got.cif
#   From: 2010.05.17/outbox.cif.g08.bks.cpg/sg15_79_cif.got.tgz:157530.got - 2010.06.03 18:47:42.
