data_PCOD9256090
_publ_section_title
;
Structure prediction by ZEFSAII (Michael W. Deem and Ramdas Pophale) SiO2 
 PCOD9256090
Probable space group: C 2/C
;
_chemical_formula_sum "Si O2"
_cell_formula_units_Z 48
_cell_length_a 9.955194
_cell_length_b 16.926414
_cell_length_c 13.053633
_cell_angle_alpha 90.000000
_cell_angle_beta 85.631557
_cell_angle_gamma 90.000000
_cell_volume 2193.221834
_symmetry_space_group_name_H-M "C 2/C"
_symmetry_group_IT_number 15
_symmetry_cell_setting 'monoclinic'
loop_
_space_group_symop_operation_xyz
x,y,z
-x,y,1/2-z
-x,-y,-z
x,-y,1/2+z
1/2+x,1/2+y,z
1/2-x,1/2+y,1/2-z
1/2-x,1/2-y,-z
1/2+x,1/2-y,1/2+z
loop_
_atom_site_type_symbol
_atom_site_label
_atom_site_fract_x
_atom_site_fract_y
_atom_site_fract_z
Si Si1 0.203539 0.201529 0.900457
Si Si2 0.868371 0.958111 0.808289
Si Si3 0.914451 0.407630 0.456515
Si Si4 0.705425 0.067209 0.969224
Si Si5 0.484662 0.403843 0.515220
Si Si6 0.362984 0.855144 0.696578
O O1 0.177433 0.263771 0.812867
O O2 0.071326 0.149309 0.933121
O O3 0.250000 0.250000 0.000000
O O4 0.325336 0.140612 0.882157
O O5 0.758255 0.908393 0.753094
O O6 0.000000 0.995165 0.750000
O O7 0.784490 0.023794 0.872999
O O8 0.937804 0.894930 0.881841
O O9 0.861187 0.497920 0.456684
O O10 0.884592 0.383312 0.576955
O O11 0.072210 0.392184 0.434044
O O12 0.826243 0.113481 0.017170
O O13 0.500000 0.500000 0.500000
O O14 0.500000 0.865239 0.750000
#
# Coordination Sequence:
#
# PCOD9256090 Si02
#       6
#     8   8   8   8   8   8
#     4  10  17  36  57  80 114 152 189 240 286 340
#     4  10  20  35  55  84 119 149 190 240 291 344
#     4   9  17  34  60  83 115 146 196 242 277 351
#     4   9  18  33  57  91 107 145 197 232 288 346
#     4  10  17  34  58  87 108 147 196 228 285 357
#     4  10  21  36  55  84 114 158 193 237 298 337
#
# _framework density 21.885611999999998
#
# number of rings (size 3 to 8) (size 9 to 14) (size 15 to 20)
#    0.000    2.333    6.667    0.000    2.333    0.000 
#    0.000    8.333    0.000    0.000    0.000    0.000 
#    0.000    0.000    0.000    0.000    0.000    0.000 
#
# Total GULP energy -133695.224936 kJ/mol
# GULP energy per Si atom -5570.634372 kJ/mol
# Density = 2.183580 g / cm^3
# Si number density = 21.885612 Si / 1000 Ang^3
#
#
#
# Elastic Constant Matrix: (Units=GPa)
#
#
# Indices 1 2 3 4 5 6 
#
# 1 216.3012 21.8852 25.1837 0.0000 12.4656 0.0000
# 2 21.8852 38.4420 3.2364 0.0000 6.8821 0.0000
# 3 25.1837 3.2364 32.5394 0.0000 0.6265 0.0000
# 4 0.0000 0.0000 0.0000 9.8162 0.0000 9.2805
# 5 12.4656 6.8821 0.6265 0.0000 37.1269 0.0000
# 6 0.0000 0.0000 0.0000 9.2805 0.0000 32.7702
#
#
#
# Elastic Compliance Matrix: (Units=1/GPa)
#
#
# Indices 1 2 3 4 5 6 
#
# 1 0.005407 -0.002520 -0.003910 0.000000 -0.001282 0.000000
# 2 -0.002520 0.028299 -0.000780 0.000000 -0.004387 0.000000
# 3 -0.003910 -0.000780 0.033818 0.000000 0.000887 0.000000
# 4 0.000000 0.000000 0.000000 0.139122 0.000000 -0.039400
# 5 -0.001282 -0.004387 0.000887 0.000000 0.028163 0.000000
# 6 0.000000 0.000000 0.000000 -0.039400 0.000000 0.041674
#
#
# Mechanical properties :
#
#
# Convention : Reuss Voigt Hill
#
# Bulk Modulus (GPa) = 18.83044 43.09922 30.96483
# Shear Modulus (GPa) = 16.20200 31.74115 23.97157
#
# Velocity S-wave (km/s) = 2.72380 3.81244 3.31314
# Velocity P-wave (km/s) = 4.30289 6.25422 5.36797
#
# Compressibility (1/GPa) = 0.05310551
#
# Stress axis : x y z
#
# Youngs Moduli (GPa) = 184.93818 35.33740 29.56975
#
# Poissons Ratio (x) = 0.08904 0.11561
# Poissons Ratio (y) = 0.46597 0.02307
# Poissons Ratio (z) = 0.72303 0.02757
#
# Static dielectric constant tensor:
#      x y z
#    x 1.854050 0.000000 -0.005760 
#    y 0.000000 1.893010 0.000000 
#    z -0.005760 0.000000 1.910500 
# 
# From -- ./inp_files/134870.got.cif
#   From: 2010.05.17/outbox.cif.g08.bks.cpg/sg15_68_cif.got.tgz:134870.got - 2010.06.03 18:47:42.
