data_PCOD9256532
_publ_section_title
;
Structure prediction by ZEFSAII (Michael W. Deem and Ramdas Pophale) SiO2 
 PCOD9256532
Probable space group: C 2/C
;
_chemical_formula_sum "Si O2"
_cell_formula_units_Z 60
_cell_length_a 27.985447
_cell_length_b 13.249028
_cell_length_c 12.196796
_cell_angle_alpha 90.000000
_cell_angle_beta 120.353201
_cell_angle_gamma 90.000000
_cell_volume 3902.437326
_symmetry_space_group_name_H-M "C 2/C"
_symmetry_group_IT_number 15
_symmetry_cell_setting 'monoclinic'
loop_
_space_group_symop_operation_xyz
x,y,z
-x,y,1/2-z
-x,-y,-z
x,-y,1/2+z
1/2+x,1/2+y,z
1/2-x,1/2+y,1/2-z
1/2-x,1/2-y,-z
1/2+x,1/2-y,1/2+z
loop_
_atom_site_type_symbol
_atom_site_label
_atom_site_fract_x
_atom_site_fract_y
_atom_site_fract_z
Si Si1 0.000000 0.566989 0.250000
Si Si2 0.897622 0.644949 0.257538
Si Si3 0.182032 0.824126 0.334394
Si Si4 0.161179 0.632245 0.679022
Si Si5 0.286063 0.312241 0.879688
Si Si6 0.167890 0.543328 0.913599
Si Si7 0.079675 0.527613 0.999019
Si Si8 0.741159 0.503499 0.310770
O O1 0.948196 0.631528 0.232175
O O2 0.021892 0.496912 0.374383
O O3 0.872529 0.755977 0.237809
O O4 0.850051 0.565648 0.159588
O O5 0.918273 0.604529 0.398570
O O6 0.230816 0.752658 0.341956
O O7 0.192510 0.842256 0.475502
O O8 0.190401 0.929884 0.281999
O O9 0.171231 0.738192 0.632648
O O10 0.164362 0.625182 0.813552
O O11 0.105620 0.576805 0.575150
O O12 0.211582 0.561981 0.695161
O O13 0.273470 0.404734 0.785181
O O14 0.122149 0.563201 0.953758
O O15 0.227214 0.537268 0.041139
#
# Coordination Sequence:
#
# PCOD9256532 Si02
#       8
#     4   8   8   8   8   8   8   8
#     4  10  18  28  46  70  90 114 148 188 228 274
#     4  10  18  30  46  65  90 119 151 184 225 272
#     4  10  18  30  46  63  90 123 150 183 222 259
#     4   9  17  28  43  63  90 124 153 178 216 263
#     4  10  18  29  45  65  90 123 157 182 211 259
#     4   9  16  27  42  64  95 124 147 177 218 265
#     4   9  17  29  45  67  95 120 144 180 227 273
#     4  10  18  27  42  65  91 122 155 184 213 255
#
# _framework density 15.375007
#
# number of rings (size 3 to 8) (size 9 to 14) (size 15 to 20)
#    0.000    2.400    0.000    7.600    0.000    0.533 
#    0.000    1.333    0.000    0.000    0.000    3.733 
#    0.000    5.333    0.000    0.000    0.000    0.000 
#
# Total GULP energy -167177.136573 kJ/mol
# GULP energy per Si atom -5572.571219 kJ/mol
# Density = 1.534001 g / cm^3
# Si number density = 15.375007 Si / 1000 Ang^3
#
#
#
# Elastic Constant Matrix: (Units=GPa)
#
#
# Indices 1 2 3 4 5 6 
#
# 1 36.6905 17.4751 28.4082 0.0000 -5.1445 0.0000
# 2 17.4751 60.1867 43.1755 0.0000 -2.2209 0.0000
# 3 28.4082 43.1755 98.5547 0.0000 -7.2113 0.0000
# 4 0.0000 0.0000 0.0000 14.3073 0.0000 -6.8801
# 5 -5.1445 -2.2209 -7.2113 0.0000 26.4070 0.0000
# 6 0.0000 0.0000 0.0000 -6.8801 0.0000 19.0597
#
#
#
# Elastic Compliance Matrix: (Units=1/GPa)
#
#
# Indices 1 2 3 4 5 6 
#
# 1 0.036367 -0.004534 -0.008169 0.000000 0.004473 0.000000
# 2 -0.004534 0.024815 -0.009669 0.000000 -0.001437 0.000000
# 3 -0.008169 -0.009669 0.016899 0.000000 0.002210 0.000000
# 4 0.000000 0.000000 0.000000 0.084575 0.000000 0.030530
# 5 0.004473 -0.001437 0.002210 0.000000 0.039223 0.000000
# 6 0.000000 0.000000 0.000000 0.030530 0.000000 0.063487
#
#
# Mechanical properties :
#
#
# Convention : Reuss Voigt Hill
#
# Bulk Modulus (GPa) = 29.99756 41.50551 35.75154
# Shear Modulus (GPa) = 15.56556 19.04635 17.30596
#
# Velocity S-wave (km/s) = 3.18527 3.52346 3.35862
# Velocity P-wave (km/s) = 5.75159 6.60356 6.19225
#
# Compressibility (1/GPa) = 0.03333605
#
# Stress axis : x y z
#
# Youngs Moduli (GPa) = 27.49775 40.29882 59.17472
#
# Poissons Ratio (x) = 0.18270 0.48341
# Poissons Ratio (y) = 0.12467 0.57218
# Poissons Ratio (z) = 0.22464 0.38966
#
# Static dielectric constant tensor:
#      x y z
#    x 1.524040 0.000000 -0.009060 
#    y 0.000000 1.500770 0.000000 
#    z -0.009060 0.000000 1.541180 
# 
# From -- ./inp_files/118579.got.cif
#   From: 2010.05.17/outbox.cif.g08.bks.cpg/sg15_60_cif.got.tgz:118579.got - 2010.06.03 18:47:42.
