data_PCOD9256775
_publ_section_title
;
Structure prediction by ZEFSAII (Michael W. Deem and Ramdas Pophale) SiO2 
 PCOD9256775
Probable space group: C 2/C
;
_chemical_formula_sum "Si O2"
_cell_formula_units_Z 60
_cell_length_a 30.998415
_cell_length_b 9.911038
_cell_length_c 18.423925
_cell_angle_alpha 90.000000
_cell_angle_beta 147.419085
_cell_angle_gamma 90.000000
_cell_volume 3048.025108
_symmetry_space_group_name_H-M "C 2/C"
_symmetry_group_IT_number 15
_symmetry_cell_setting 'monoclinic'
loop_
_space_group_symop_operation_xyz
x,y,z
-x,y,1/2-z
-x,-y,-z
x,-y,1/2+z
1/2+x,1/2+y,z
1/2-x,1/2+y,1/2-z
1/2-x,1/2-y,-z
1/2+x,1/2-y,1/2+z
loop_
_atom_site_type_symbol
_atom_site_label
_atom_site_fract_x
_atom_site_fract_y
_atom_site_fract_z
Si Si1 0.805458 0.818490 0.839810
Si Si2 0.648681 0.445067 0.451320
Si Si3 0.488530 0.687869 0.554798
Si Si4 0.070713 0.660695 0.295186
Si Si5 0.000000 0.857307 0.750000
Si Si6 0.519013 0.376790 0.936076
Si Si7 0.298113 0.575410 0.758246
Si Si8 0.745102 0.097944 0.523558
O O1 0.898306 0.794569 0.954756
O O2 0.760549 0.680078 0.786862
O O3 0.773365 0.920478 0.734160
O O4 0.800254 0.907445 0.905669
O O5 0.601802 0.305032 0.369458
O O6 0.580549 0.553670 0.368305
O O7 0.707548 0.485625 0.469686
O O8 0.539229 0.798565 0.670525
O O9 0.513634 0.532801 0.611806
O O10 0.489820 0.691997 0.469295
O O11 0.151080 0.570421 0.404714
O O12 0.000000 0.614893 0.250000
O O13 0.000449 0.801370 0.667323
O O14 0.613766 0.398596 0.084846
O O15 0.293808 0.599997 0.666886
O O16 0.750000 0.250000 0.500000
#
# Coordination Sequence:
#
# PCOD9256775 Si02
#       8
#     8   8   8   8   4   8   8   8
#     4  11  21  35  54  81 120 149 184 230 286 335
#     4  11  17  30  47  80 111 141 179 234 286 322
#     4  10  18  29  48  82 107 137 183 242 280 321
#     4  11  15  28  49  77 113 134 181 236 284 313
#     4  12  18  32  52  80 110 146 182 246 288 330
#     4  10  20  29  51  77 109 141 185 233 285 333
#     4  11  21  36  52  87 112 152 183 234 288 335
#     4  10  20  28  52  81 113 144 185 235 279 336
#
# _framework density 19.684878000000001
#
# number of rings (size 3 to 8) (size 9 to 14) (size 15 to 20)
#    0.000    1.333    8.667    1.600    3.733    0.000 
#    0.000    0.000    0.000    4.000    5.200    0.000 
#    0.000    0.000    0.000    0.000    0.000    0.000 
#
# Total GULP energy -167195.236855 kJ/mol
# GULP energy per Si atom -5573.174562 kJ/mol
# Density = 1.964007 g / cm^3
# Si number density = 19.684878 Si / 1000 Ang^3
#
#
#
# Elastic Constant Matrix: (Units=GPa)
#
#
# Indices 1 2 3 4 5 6 
#
# 1 116.3602 1.6039 37.5307 0.0000 -5.8394 0.0000
# 2 1.6039 3.7020 5.5313 0.0000 2.3714 0.0000
# 3 37.5307 5.5313 72.6127 0.0000 -9.5103 0.0000
# 4 0.0000 0.0000 0.0000 15.9766 0.0000 2.0201
# 5 -5.8394 2.3714 -9.5103 0.0000 48.8702 0.0000
# 6 0.0000 0.0000 0.0000 2.0201 0.0000 12.3085
#
#
#
# Elastic Compliance Matrix: (Units=1/GPa)
#
#
# Indices 1 2 3 4 5 6 
#
# 1 0.010365 0.004022 -0.005671 0.000000 -0.000060 0.000000
# 2 0.004022 0.326302 -0.029703 0.000000 -0.021134 0.000000
# 3 -0.005671 -0.029703 0.019564 0.000000 0.004571 0.000000
# 4 0.000000 0.000000 0.000000 0.063918 0.000000 -0.010490
# 5 -0.000060 -0.021134 0.004571 0.000000 0.022370 0.000000
# 6 0.000000 0.000000 0.000000 -0.010490 0.000000 0.082966
#
#
# Mechanical properties :
#
#
# Convention : Reuss Voigt Hill
#
# Bulk Modulus (GPa) = 3.40685 31.33408 17.37047
# Shear Modulus (GPa) = 7.28829 25.29832 16.29330
#
# Velocity S-wave (km/s) = 1.92627 3.58881 2.88011
# Velocity P-wave (km/s) = 2.58492 5.75544 4.46133
#
# Compressibility (1/GPa) = 0.29352604
#
# Stress axis : x y z
#
# Youngs Moduli (GPa) = 96.48042 3.06465 51.11332
#
# Poissons Ratio (x) = -0.01233 0.28989
# Poissons Ratio (y) = -0.38805 1.51822
# Poissons Ratio (z) = 0.54718 0.09103
#
# Static dielectric constant tensor:
#      x y z
#    x 1.785500 0.000000 -0.018560 
#    y 0.000000 1.680530 0.000000 
#    z -0.018560 0.000000 1.729540 
# 
# From -- ./inp_files/225020.got.cif
#   From: 2010.05.17/outbox.cif.g08.bks.cpg/sg15_113_cif.got.tgz:225020.got - 2010.06.03 18:47:42.
