data_PCOD9256050
_publ_section_title
;
Structure prediction by ZEFSAII (Michael W. Deem and Ramdas Pophale) SiO2 
 PCOD9256050
Probable space group: C 2/C
;
_chemical_formula_sum "Si O2"
_cell_formula_units_Z 48
_cell_length_a 8.665751
_cell_length_b 27.925075
_cell_length_c 10.687315
_cell_angle_alpha 90.000000
_cell_angle_beta 99.606745
_cell_angle_gamma 90.000000
_cell_volume 2549.973594
_symmetry_space_group_name_H-M "C 2/C"
_symmetry_group_IT_number 15
_symmetry_cell_setting 'monoclinic'
loop_
_space_group_symop_operation_xyz
x,y,z
-x,y,1/2-z
-x,-y,-z
x,-y,1/2+z
1/2+x,1/2+y,z
1/2-x,1/2+y,1/2-z
1/2-x,1/2-y,-z
1/2+x,1/2-y,1/2+z
loop_
_atom_site_type_symbol
_atom_site_label
_atom_site_fract_x
_atom_site_fract_y
_atom_site_fract_z
Si Si1 0.108858 0.923226 0.005159
Si Si2 0.169892 0.270137 0.302096
Si Si3 0.355219 0.318226 0.138896
Si Si4 0.825160 0.405176 0.275323
Si Si5 0.864412 0.019524 0.625227
Si Si6 0.101075 0.817306 0.965003
O O1 0.212059 0.909499 0.139521
O O2 0.945016 0.944528 0.035429
O O3 0.100662 0.873194 0.931336
O O4 0.173506 0.968065 0.937139
O O5 0.272983 0.272338 0.190597
O O6 0.136215 0.218510 0.356915
O O7 0.264801 0.301792 0.416058
O O8 0.000000 0.291173 0.250000
O O9 0.500000 0.331380 0.250000
O O10 0.233527 0.361526 0.144293
O O11 0.436517 0.309812 0.016831
O O12 0.786994 0.454145 0.342560
O O13 0.000000 0.401027 0.250000
O O14 0.000000 0.013805 0.750000
#
# Coordination Sequence:
#
# PCOD9256050 Si02
#       6
#     8   8   8   8   8   8
#     4  10  18  34  57  78 103 142 184 221 265 325
#     4  10  21  34  53  83 108 140 184 223 273 323
#     4  10  17  34  56  75 105 139 182 223 261 316
#     4  11  19  31  55  80 107 139 178 224 267 320
#     4   9  19  34  54  80 107 140 182 220 269 323
#     4  10  20  35  57  78 110 144 181 228 270 317
#
# _framework density 18.823723999999999
#
# number of rings (size 3 to 8) (size 9 to 14) (size 15 to 20)
#    0.000    2.000    5.000    1.000    0.000    2.000 
#    0.000    0.000    0.000    5.000    0.000    0.000 
#    0.000    0.000    0.000    0.000    0.000    0.000 
#
# Total GULP energy -133689.150935 kJ/mol
# GULP energy per Si atom -5570.381289 kJ/mol
# Density = 1.878088 g / cm^3
# Si number density = 18.823724 Si / 1000 Ang^3
#
#
#
# Elastic Constant Matrix: (Units=GPa)
#
#
# Indices 1 2 3 4 5 6 
#
# 1 102.6664 52.6322 18.4928 0.0000 -25.5326 0.0000
# 2 52.6322 178.5830 51.6689 0.0000 -33.5132 0.0000
# 3 18.4928 51.6689 28.3956 0.0000 -15.3447 0.0000
# 4 0.0000 0.0000 0.0000 19.3536 0.0000 -20.4204
# 5 -25.5326 -33.5132 -15.3447 0.0000 31.1649 0.0000
# 6 0.0000 0.0000 0.0000 -20.4204 0.0000 24.4193
#
#
#
# Elastic Compliance Matrix: (Units=1/GPa)
#
#
# Indices 1 2 3 4 5 6 
#
# 1 0.012937 -0.002361 0.000308 0.000000 0.008212 0.000000
# 2 -0.002361 0.012450 -0.020339 0.000000 0.001440 0.000000
# 3 0.000308 -0.020339 0.082218 0.000000 0.018863 0.000000
# 4 0.000000 0.000000 0.000000 0.439142 0.000000 0.367228
# 5 0.008212 0.001440 0.018863 0.000000 0.049651 0.000000
# 6 0.000000 0.000000 0.000000 0.367228 0.000000 0.348042
#
#
# Mechanical properties :
#
#
# Convention : Reuss Voigt Hill
#
# Bulk Modulus (GPa) = 15.91778 61.69253 38.80516
# Shear Modulus (GPa) = 4.94968 27.44430 16.19699
#
# Velocity S-wave (km/s) = 1.62333 3.82247 2.93654
# Velocity P-wave (km/s) = 3.46240 7.23372 5.67075
#
# Compressibility (1/GPa) = 0.06282284
#
# Stress axis : x y z
#
# Youngs Moduli (GPa) = 77.29490 80.31926 12.16272
#
# Poissons Ratio (x) = 0.18964 -0.00375
# Poissons Ratio (y) = 0.18250 0.24738
# Poissons Ratio (z) = -0.02384 1.63362
#
# Static dielectric constant tensor:
#      x y z
#    x 1.656430 0.000000 -0.002600 
#    y 0.000000 1.693560 0.000000 
#    z -0.002600 0.000000 1.703520 
# 
# From -- ./inp_files/80252.got.cif
#   From: 2010.05.17/outbox.cif.g08.bks.cpg/sg15_41_cif.got.tgz:80252.got - 2010.06.03 18:47:42.
