data_PCOD9256433
_publ_section_title
;
Structure prediction by ZEFSAII (Michael W. Deem and Ramdas Pophale) SiO2 
 PCOD9256433
Probable space group: C 2/C
;
_chemical_formula_sum "Si O2"
_cell_formula_units_Z 48
_cell_length_a 15.333446
_cell_length_b 9.654175
_cell_length_c 30.452590
_cell_angle_alpha 90.000000
_cell_angle_beta 152.120177
_cell_angle_gamma 90.000000
_cell_volume 2108.001488
_symmetry_space_group_name_H-M "C 2/C"
_symmetry_group_IT_number 15
_symmetry_cell_setting 'monoclinic'
loop_
_space_group_symop_operation_xyz
x,y,z
-x,y,1/2-z
-x,-y,-z
x,-y,1/2+z
1/2+x,1/2+y,z
1/2-x,1/2+y,1/2-z
1/2-x,1/2-y,-z
1/2+x,1/2-y,1/2+z
loop_
_atom_site_type_symbol
_atom_site_label
_atom_site_fract_x
_atom_site_fract_y
_atom_site_fract_z
Si Si1 0.773853 0.039368 0.810266
Si Si2 0.036283 0.648788 0.535747
Si Si3 0.718340 0.557753 0.006038
Si Si4 0.354523 0.669683 0.611371
Si Si5 0.809545 0.090494 0.920505
Si Si6 0.724906 0.787289 0.206585
O O1 0.702084 0.053306 0.828088
O O2 0.686782 0.145870 0.736952
O O3 0.994164 0.079720 0.910079
O O4 0.764893 0.879889 0.790419
O O5 0.229402 0.694326 0.598069
O O6 0.073999 0.664804 0.603948
O O7 0.000000 0.500000 0.500000
O O8 0.873302 0.751471 0.448659
O O9 0.733014 0.551199 0.959671
O O10 0.833451 0.690108 0.073629
O O11 0.764953 0.445246 0.064067
O O12 0.572344 0.651451 0.716951
O O13 0.000000 0.000000 0.000000
#
# Coordination Sequence:
#
# PCOD9256433 Si02
#       6
#     8   8   8   8   8   8
#     4  10  20  36  61  92 122 166 205 259 314 383
#     4  12  24  38  63  94 123 168 213 256 325 389
#     4   9  17  35  65  86 119 158 209 252 307 378
#     4  10  20  36  63  96 121 160 213 263 306 380
#     4  10  17  38  63  82 120 167 211 245 306 393
#     4  11  23  37  64  93 128 158 215 264 312 370
#
# _framework density 22.770381
#
# number of rings (size 3 to 8) (size 9 to 14) (size 15 to 20)
#    0.000    1.667    6.667    0.500    2.333    0.000 
#    0.000    0.833    7.333    0.000    0.000    0.000 
#    0.000    0.000    0.000    0.000    0.000    0.000 
#
# Total GULP energy -133902.341388 kJ/mol
# GULP energy per Si atom -5579.264224 kJ/mol
# Density = 2.271856 g / cm^3
# Si number density = 22.770381 Si / 1000 Ang^3
#
#
#
# Elastic Constant Matrix: (Units=GPa)
#
#
# Indices 1 2 3 4 5 6 
#
# 1 62.0225 12.3489 41.9266 0.0000 -18.5834 0.0000
# 2 12.3489 147.0960 51.1867 0.0000 -28.4233 0.0000
# 3 41.9266 51.1867 91.4407 0.0004 -36.6597 -0.0001
# 4 0.0000 0.0000 0.0004 28.0838 -0.0001 -6.3284
# 5 -18.5834 -28.4233 -36.6597 -0.0001 51.9918 0.0000
# 6 0.0000 0.0000 -0.0001 -6.3284 0.0000 25.4393
#
#
#
# Elastic Compliance Matrix: (Units=1/GPa)
#
#
# Indices 1 2 3 4 5 6 
#
# 1 0.024049 0.002368 -0.011692 0.000000 0.001646 0.000000
# 2 0.002368 0.008797 -0.005218 0.000000 0.001977 0.000000
# 3 -0.011692 -0.005218 0.022861 0.000000 0.009088 0.000000
# 4 0.000000 0.000000 0.000000 0.037722 0.000000 0.009384
# 5 0.001646 0.001977 0.009088 0.000000 0.027311 0.000000
# 6 0.000000 0.000000 0.000000 0.009384 0.000000 0.041644
#
#
# Mechanical properties :
#
#
# Convention : Reuss Voigt Hill
#
# Bulk Modulus (GPa) = 37.56146 56.83150 47.19648
# Shear Modulus (GPa) = 24.95729 34.10944 29.53337
#
# Velocity S-wave (km/s) = 3.31424 3.87457 3.60531
# Velocity P-wave (km/s) = 5.58365 6.71037 6.17277
#
# Compressibility (1/GPa) = 0.02662303
#
# Stress axis : x y z
#
# Youngs Moduli (GPa) = 41.58231 113.67404 43.74204
#
# Poissons Ratio (x) = -0.26916 0.51144
# Poissons Ratio (y) = -0.09846 0.22823
# Poissons Ratio (z) = 0.48619 0.59311
#
# Static dielectric constant tensor:
#      x y z
#    x 1.858120 0.000000 -0.070950 
#    y 0.000000 1.843300 0.000000 
#    z -0.070950 0.000000 1.863430 
# 
# From -- ./inp_files/208970.got.cif
#   From: 2010.05.17/outbox.cif.g08.bks.cpg/sg15_105_cif.got.tgz:208970.got - 2010.06.03 18:47:42.
