data_PCOD9256074
_publ_section_title
;
Structure prediction by ZEFSAII (Michael W. Deem and Ramdas Pophale) SiO2 
 PCOD9256074
Probable space group: C 2/C
;
_chemical_formula_sum "Si O2"
_cell_formula_units_Z 48
_cell_length_a 22.658530
_cell_length_b 13.676180
_cell_length_c 19.189394
_cell_angle_alpha 90.000000
_cell_angle_beta 159.175560
_cell_angle_gamma 90.000000
_cell_volume 2113.996932
_symmetry_space_group_name_H-M "C 2/C"
_symmetry_group_IT_number 15
_symmetry_cell_setting 'monoclinic'
loop_
_space_group_symop_operation_xyz
x,y,z
-x,y,1/2-z
-x,-y,-z
x,-y,1/2+z
1/2+x,1/2+y,z
1/2-x,1/2+y,1/2-z
1/2-x,1/2-y,-z
1/2+x,1/2-y,1/2+z
loop_
_atom_site_type_symbol
_atom_site_label
_atom_site_fract_x
_atom_site_fract_y
_atom_site_fract_z
Si Si1 0.704999 0.604170 0.017394
Si Si2 0.472597 0.218415 0.113733
Si Si3 0.314926 0.971561 0.267098
Si Si4 0.210560 0.100395 0.268227
Si Si5 0.485131 0.220266 0.960609
Si Si6 0.176610 0.466813 0.983959
O O1 0.771552 0.530007 0.149533
O O2 0.685954 0.546176 0.924536
O O3 0.856488 0.678227 0.167098
O O4 0.574407 0.677426 0.907239
O O5 0.343852 0.133091 0.993628
O O6 0.492104 0.223425 0.052337
O O7 0.194216 0.013693 0.193408
O O8 0.500000 0.000000 0.500000
O O9 0.338717 0.857022 0.280969
O O10 0.347750 0.173384 0.385484
O O11 0.055538 0.170955 0.109184
O O12 0.278209 0.051638 0.412734
O O13 0.000000 0.486133 0.750000
#
# Coordination Sequence:
#
# PCOD9256074 Si02
#       6
#     8   8   8   8   8   8
#     4  11  21  35  59  88 120 150 197 242 298 352
#     4  11  18  34  57  89 117 149 193 247 295 347
#     4  10  17  34  57  81 113 156 193 231 274 363
#     4  11  21  37  60  84 120 150 201 243 283 353
#     4  11  19  35  59  89 113 153 200 243 288 340
#     4  10  21  37  58  83 114 162 196 229 289 360
#
# _framework density 22.705803
#
# number of rings (size 3 to 8) (size 9 to 14) (size 15 to 20)
#    0.000    1.333    6.667    3.500    0.000    0.000 
#    0.000    5.833    0.000    4.000    0.000    0.000 
#    0.000    0.000    0.000    0.000    0.000    0.000 
#
# Total GULP energy -134254.957680 kJ/mol
# GULP energy per Si atom -5593.956570 kJ/mol
# Density = 2.265412 g / cm^3
# Si number density = 22.705803 Si / 1000 Ang^3
#
#
#
# Elastic Constant Matrix: (Units=GPa)
#
#
# Indices 1 2 3 4 5 6 
#
# 1 137.0088 32.0148 31.5679 -0.0002 -24.9690 -0.0003
# 2 32.0148 93.2835 28.9499 -0.0003 -12.8095 -0.0005
# 3 31.5679 28.9499 27.3683 0.0003 -9.8054 0.0000
# 4 -0.0002 -0.0003 0.0003 43.4637 0.0000 1.5962
# 5 -24.9690 -12.8095 -9.8054 0.0000 35.4880 -0.0002
# 6 -0.0003 -0.0005 0.0000 1.5962 -0.0002 38.2464
#
#
#
# Elastic Compliance Matrix: (Units=1/GPa)
#
#
# Indices 1 2 3 4 5 6 
#
# 1 0.010563 0.000409 -0.010989 0.000000 0.004544 0.000000
# 2 0.000409 0.016022 -0.016920 0.000000 0.001396 0.000000
# 3 -0.010989 -0.016920 0.068982 -0.000001 0.005221 0.000000
# 4 0.000000 0.000000 -0.000001 0.023043 0.000000 -0.000962
# 5 0.004544 0.001396 0.005221 0.000000 0.033322 0.000000
# 6 0.000000 0.000000 0.000000 -0.000962 0.000000 0.026186
#
#
# Mechanical properties :
#
#
# Convention : Reuss Voigt Hill
#
# Bulk Modulus (GPa) = 24.65003 49.19176 36.92089
# Shear Modulus (GPa) = 20.27246 34.44815 27.36031
#
# Velocity S-wave (km/s) = 2.99127 3.89929 3.47507
# Velocity P-wave (km/s) = 4.77599 6.47954 5.69186
#
# Compressibility (1/GPa) = 0.04056791
#
# Stress axis : x y z
#
# Youngs Moduli (GPa) = 94.66858 62.41299 14.49663
#
# Poissons Ratio (x) = -0.02552 0.15930
# Poissons Ratio (y) = -0.03871 0.24528
# Poissons Ratio (z) = 1.04029 1.05601
#
# Static dielectric constant tensor:
#      x y z
#    x 1.894170 0.000000 0.072190 
#    y 0.000000 1.845240 0.000000 
#    z 0.072190 0.000000 1.935320 
# 
# From -- ./inp_files/215478.got.cif
#   From: 2010.05.17/outbox.cif.g08.bks.cpg/sg15_108_cif.got.tgz:215478.got - 2010.06.03 18:47:42.
