data_PCOD9256547
_publ_section_title
;
Structure prediction by ZEFSAII (Michael W. Deem and Ramdas Pophale) SiO2 
 PCOD9256547
Probable space group: C 2/C
;
_chemical_formula_sum "Si O2"
_cell_formula_units_Z 56
_cell_length_a 11.049352
_cell_length_b 23.801296
_cell_length_c 13.968242
_cell_angle_alpha 90.000000
_cell_angle_beta 106.411410
_cell_angle_gamma 90.000000
_cell_volume 3523.826137
_symmetry_space_group_name_H-M "C 2/C"
_symmetry_group_IT_number 15
_symmetry_cell_setting 'monoclinic'
loop_
_space_group_symop_operation_xyz
x,y,z
-x,y,1/2-z
-x,-y,-z
x,-y,1/2+z
1/2+x,1/2+y,z
1/2-x,1/2+y,1/2-z
1/2-x,1/2-y,-z
1/2+x,1/2-y,1/2+z
loop_
_atom_site_type_symbol
_atom_site_label
_atom_site_fract_x
_atom_site_fract_y
_atom_site_fract_z
Si Si1 0.822183 0.568605 0.780381
Si Si2 0.787977 0.810479 0.469769
Si Si3 0.255000 0.016089 0.417761
Si Si4 0.575182 0.557148 0.991356
Si Si5 0.959503 0.888726 0.635054
Si Si6 0.090986 0.590114 0.910006
Si Si7 0.916357 0.141395 0.818585
O O1 0.793155 0.510455 0.825928
O O2 0.857365 0.562674 0.676913
O O3 0.699796 0.607695 0.754081
O O4 0.942137 0.595383 0.861471
O O5 0.750000 0.750000 0.500000
O O6 0.884301 0.839634 0.565043
O O7 0.665948 0.851380 0.436397
O O8 0.857261 0.815028 0.381807
O O9 0.203565 0.964887 0.472551
O O10 0.138960 0.059286 0.380436
O O11 0.366256 0.049829 0.494619
O O12 0.572609 0.591545 0.090092
O O13 0.500000 0.500000 0.000000
O O14 0.496728 0.595488 0.898439
O O15 0.000000 0.873421 0.750000
O O16 0.000000 0.164319 0.750000
#
# Coordination Sequence:
#
# PCOD9256547 Si02
#       7
#     8   8   8   8   8   8   8
#     4  10  18  30  49  71 104 138 163 196 238 305
#     4   9  19  38  55  69  98 132 167 224 261 287
#     4  10  18  27  48  70 108 137 155 195 247 292
#     4   9  17  26  43  73 107 133 156 197 247 288
#     4   9  19  29  46  77 101 124 170 205 241 303
#     4   9  20  33  45  76 101 131 179 195 235 310
#     4  10  18  31  51  80  98 127 176 213 254 298
#
# _framework density 15.891817
#
# number of rings (size 3 to 8) (size 9 to 14) (size 15 to 20)
#    0.000    2.571    1.429    3.000    6.000    0.000 
#    5.143    0.000    0.000    2.571    7.429    0.000 
#    0.000    0.000    0.000    0.000    0.000    0.000 
#
# Total GULP energy -155921.904145 kJ/mol
# GULP energy per Si atom -5568.639434 kJ/mol
# Density = 1.585565 g / cm^3
# Si number density = 15.891817 Si / 1000 Ang^3
#
#
#
# Elastic Constant Matrix: (Units=GPa)
#
#
# Indices 1 2 3 4 5 6 
#
# 1 47.7719 26.3063 33.1510 0.0000 -6.2219 0.0000
# 2 26.3063 83.7779 41.5188 0.0000 -18.3257 0.0000
# 3 33.1510 41.5188 94.9289 0.0000 -6.8383 0.0000
# 4 0.0000 0.0000 0.0000 13.5453 0.0000 -8.6317
# 5 -6.2219 -18.3257 -6.8383 0.0000 20.6344 0.0000
# 6 0.0000 0.0000 0.0000 -8.6317 0.0000 14.0693
#
#
#
# Elastic Compliance Matrix: (Units=1/GPa)
#
#
# Indices 1 2 3 4 5 6 
#
# 1 0.029411 -0.004846 -0.008014 0.000000 0.001909 0.000000
# 2 -0.004846 0.019336 -0.005771 0.000000 0.013799 0.000000
# 3 -0.008014 -0.005771 0.015688 0.000000 -0.002342 0.000000
# 4 0.000000 0.000000 0.000000 0.121218 0.000000 0.074369
# 5 0.001909 0.013799 -0.002342 0.000000 0.060517 0.000000
# 6 0.000000 0.000000 0.000000 0.074369 0.000000 0.116703
#
#
# Mechanical properties :
#
#
# Convention : Reuss Voigt Hill
#
# Bulk Modulus (GPa) = 36.79978 47.60341 42.20160
# Shear Modulus (GPa) = 12.21919 18.01664 15.11792
#
# Velocity S-wave (km/s) = 2.77591 3.37071 3.08766
# Velocity P-wave (km/s) = 5.78627 6.72076 6.27095
#
# Compressibility (1/GPa) = 0.02717407
#
# Stress axis : x y z
#
# Youngs Moduli (GPa) = 34.00066 51.71621 63.74300
#
# Poissons Ratio (x) = 0.25062 0.51083
# Poissons Ratio (y) = 0.16477 0.36784
# Poissons Ratio (z) = 0.27248 0.29844
#
# Static dielectric constant tensor:
#      x y z
#    x 1.564940 0.000000 -0.014490 
#    y 0.000000 1.505550 0.000000 
#    z -0.014490 0.000000 1.541910 
# 
# From -- ./inp_files/90409.got.cif
#   From: 2010.05.17/outbox.cif.g08.bks.cpg/sg15_46_cif.got.tgz:90409.got - 2010.06.03 18:47:42.
