data_PCOD9256346
_publ_section_title
;
Structure prediction by ZEFSAII (Michael W. Deem and Ramdas Pophale) SiO2 
 PCOD9256346
Probable space group: C 2/C
;
_chemical_formula_sum "Si O2"
_cell_formula_units_Z 56
_cell_length_a 29.602624
_cell_length_b 9.273124
_cell_length_c 17.359183
_cell_angle_alpha 90.000000
_cell_angle_beta 144.691717
_cell_angle_gamma 90.000000
_cell_volume 2754.197407
_symmetry_space_group_name_H-M "C 2/C"
_symmetry_group_IT_number 15
_symmetry_cell_setting 'monoclinic'
loop_
_space_group_symop_operation_xyz
x,y,z
-x,y,1/2-z
-x,-y,-z
x,-y,1/2+z
1/2+x,1/2+y,z
1/2-x,1/2+y,1/2-z
1/2-x,1/2-y,-z
1/2+x,1/2-y,1/2+z
loop_
_atom_site_type_symbol
_atom_site_label
_atom_site_fract_x
_atom_site_fract_y
_atom_site_fract_z
Si Si1 0.595000 0.369527 0.195993
Si Si2 0.611726 0.062196 0.191914
Si Si3 0.136433 0.851447 0.817668
Si Si4 0.377153 0.687852 0.022329
Si Si5 0.083593 0.931783 0.527974
Si Si6 0.000996 0.349473 0.104426
Si Si7 0.203645 0.713589 0.766934
O O1 0.638708 0.217481 0.257376
O O2 0.636483 0.478219 0.311781
O O3 0.595546 0.452047 0.114240
O O4 0.502921 0.362812 0.089656
O O5 0.564778 0.977111 0.193914
O O6 0.670664 0.947701 0.235865
O O7 0.550773 0.111744 0.041211
O O8 0.135176 0.807028 0.903840
O O9 0.198247 0.786344 0.844439
O O10 0.054368 0.792356 0.667940
O O11 0.440851 0.807122 0.086962
O O12 0.405278 0.530518 0.032171
O O13 0.293151 0.714438 0.866122
O O14 0.147160 0.806513 0.632963
#
# Coordination Sequence:
#
# PCOD9256346 Si02
#       7
#     8   8   8   8   8   8   8
#     4  10  17  36  62  84 111 147 203 241 289 339
#     4  10  19  37  62  87 115 151 196 249 297 340
#     4  10  21  39  61  85 116 165 198 235 294 361
#     4  12  22  36  62  87 125 154 203 243 292 355
#     4  10  20  34  58  88 109 155 198 246 281 344
#     4  10  19  34  61  88 113 149 198 249 283 344
#     4  10  24  38  59  87 124 157 195 237 306 356
#
# _framework density 20.332602999999999
#
# number of rings (size 3 to 8) (size 9 to 14) (size 15 to 20)
#    0.000    1.714    2.857    4.286    2.000    0.000 
#    0.000    0.714   22.000    0.000    0.000    0.000 
#    0.000    0.000    0.000    0.000    0.000    0.000 
#
# Total GULP energy -156116.198702 kJ/mol
# GULP energy per Si atom -5575.578525 kJ/mol
# Density = 2.028633 g / cm^3
# Si number density = 20.332603 Si / 1000 Ang^3
#
#
#
# Elastic Constant Matrix: (Units=GPa)
#
#
# Indices 1 2 3 4 5 6 
#
# 1 42.3459 -0.5115 6.7426 0.0000 1.1167 0.0000
# 2 -0.5115 107.6232 6.4870 0.0000 4.2904 0.0000
# 3 6.7426 6.4870 22.8453 0.0000 8.4643 0.0000
# 4 0.0000 0.0000 0.0000 11.2993 0.0000 -6.9851
# 5 1.1167 4.2904 8.4643 0.0000 30.6408 0.0000
# 6 0.0000 0.0000 0.0000 -6.9851 0.0000 20.3105
#
#
#
# Elastic Compliance Matrix: (Units=1/GPa)
#
#
# Indices 1 2 3 4 5 6 
#
# 1 0.024854 0.000548 -0.007940 0.000000 0.001211 0.000000
# 2 0.000548 0.009477 -0.002622 0.000000 -0.000623 0.000000
# 3 -0.007940 -0.002622 0.051933 0.000000 -0.013690 0.000000
# 4 0.000000 0.000000 0.000000 0.112397 0.000000 0.038655
# 5 0.001211 -0.000623 -0.013690 0.000000 0.036461 0.000000
# 6 0.000000 0.000000 0.000000 0.038655 0.000000 0.062530
#
#
# Mechanical properties :
#
#
# Convention : Reuss Voigt Hill
#
# Bulk Modulus (GPa) = 15.09738 22.02785 18.56261
# Shear Modulus (GPa) = 14.71636 23.12320 18.91978
#
# Velocity S-wave (km/s) = 2.69324 3.37597 3.05374
# Velocity P-wave (km/s) = 4.13675 5.10426 4.64576
#
# Compressibility (1/GPa) = 0.06623668
#
# Stress axis : x y z
#
# Youngs Moduli (GPa) = 40.23507 105.51679 19.25568
#
# Poissons Ratio (x) = -0.05787 0.15289
# Poissons Ratio (y) = -0.02207 0.05049
# Poissons Ratio (z) = 0.31946 0.27669
#
# Static dielectric constant tensor:
#      x y z
#    x 1.737220 0.000000 0.011240 
#    y 0.000000 1.786670 0.000000 
#    z 0.011240 0.000000 1.768800 
# 
# From -- ./inp_files/222089.got.cif
#   From: 2010.05.17/outbox.cif.g08.bks.cpg/sg15_112_cif.got.tgz:222089.got - 2010.06.03 18:47:42.
