data_PCOD9256264
_publ_section_title
;
Structure prediction by ZEFSAII (Michael W. Deem and Ramdas Pophale) SiO2 
 PCOD9256264
Probable space group: C 2/C
;
_chemical_formula_sum "Si O2"
_cell_formula_units_Z 52
_cell_length_a 7.167997
_cell_length_b 13.147949
_cell_length_c 25.403291
_cell_angle_alpha 90.000000
_cell_angle_beta 103.745701
_cell_angle_gamma 90.000000
_cell_volume 2325.551600
_symmetry_space_group_name_H-M "C 2/C"
_symmetry_group_IT_number 15
_symmetry_cell_setting 'monoclinic'
loop_
_space_group_symop_operation_xyz
x,y,z
-x,y,1/2-z
-x,-y,-z
x,-y,1/2+z
1/2+x,1/2+y,z
1/2-x,1/2+y,1/2-z
1/2-x,1/2-y,-z
1/2+x,1/2-y,1/2+z
loop_
_atom_site_type_symbol
_atom_site_label
_atom_site_fract_x
_atom_site_fract_y
_atom_site_fract_z
Si Si1 0.718196 0.009708 0.675124
Si Si2 0.177521 0.202024 0.338894
Si Si3 0.448949 0.000697 0.058726
Si Si4 0.500000 0.897234 0.750000
Si Si5 0.281876 0.770879 0.310772
Si Si6 0.412293 0.224084 0.101458
Si Si7 0.705176 0.302096 0.051550
O O1 0.622890 0.024294 0.610976
O O2 0.797855 0.115788 0.701236
O O3 0.860324 0.914451 0.678073
O O4 0.557796 0.968939 0.705110
O O5 0.403730 0.225385 0.344822
O O6 0.187713 0.225341 0.401397
O O7 0.004112 0.270599 0.308558
O O8 0.289422 0.914814 0.058272
O O9 0.391046 0.113737 0.073825
O O10 0.500000 0.000000 0.000000
O O11 0.323498 0.821953 0.724740
O O12 0.260571 0.750128 0.372097
O O13 0.487208 0.297239 0.059747
O O14 0.750000 0.250000 0.000000
#
# Coordination Sequence:
#
# PCOD9256264 Si02
#       7
#     8   8   8   4   8   8   8
#     4  11  24  46  67 102 135 177 230 277 339 412
#     4   9  21  40  65  92 135 168 221 275 327 404
#     4  11  18  38  71  96 136 183 215 282 343 392
#     4  12  26  46  68 102 136 172 236 284 334 406
#     4  12  24  45  71  94 136 180 223 286 344 396
#     4   9  21  39  62  98 133 170 226 274 327 406
#     4  10  17  35  65  97 136 179 214 276 338 393
#
# _framework density 22.360287
#
# number of rings (size 3 to 8) (size 9 to 14) (size 15 to 20)
#    0.923    0.615    6.154    0.000    0.000    4.308 
#    5.538    3.077    0.000    4.615    0.000    0.000 
#    0.000    0.000    0.000    0.000    0.000    0.000 
#
# Total GULP energy -144780.187562 kJ/mol
# GULP energy per Si atom -5568.468752 kJ/mol
# Density = 2.230939 g / cm^3
# Si number density = 22.360287 Si / 1000 Ang^3
#
#
#
# Elastic Constant Matrix: (Units=GPa)
#
#
# Indices 1 2 3 4 5 6 
#
# 1 49.7407 25.0323 22.7455 0.0000 -4.7432 0.0000
# 2 25.0323 136.7315 17.1116 0.0000 -13.1323 0.0000
# 3 22.7455 17.1116 106.2221 0.0000 -32.3734 0.0000
# 4 0.0000 0.0000 0.0000 14.2811 0.0000 -3.7787
# 5 -4.7432 -13.1323 -32.3734 0.0000 18.8243 0.0000
# 6 0.0000 0.0000 0.0000 -3.7787 0.0000 40.9095
#
#
#
# Elastic Compliance Matrix: (Units=1/GPa)
#
#
# Indices 1 2 3 4 5 6 
#
# 1 0.024963 -0.004581 -0.007701 0.000000 -0.010149 0.000000
# 2 -0.004581 0.008716 0.002266 0.000000 0.008823 0.000000
# 3 -0.007701 0.002266 0.022251 0.000000 0.037907 0.000000
# 4 0.000000 0.000000 0.000000 0.071777 0.000000 0.006630
# 5 -0.010149 0.008823 0.037907 0.000000 0.121912 0.000000
# 6 0.000000 0.000000 0.000000 0.006630 0.000000 0.025057
#
#
# Mechanical properties :
#
#
# Convention : Reuss Voigt Hill
#
# Bulk Modulus (GPa) = 27.85612 46.94144 37.39878
# Shear Modulus (GPa) = 16.30394 29.98998 23.14696
#
# Velocity S-wave (km/s) = 2.70320 3.66623 3.22091
# Velocity P-wave (km/s) = 4.71465 6.24183 5.53121
#
# Compressibility (1/GPa) = 0.03589875
#
# Stress axis : x y z
#
# Youngs Moduli (GPa) = 40.05871 114.72936 44.94156
#
# Poissons Ratio (x) = 0.52561 0.34608
# Poissons Ratio (y) = 0.18352 -0.10183
# Poissons Ratio (z) = 0.30848 -0.25997
#
# Static dielectric constant tensor:
#      x y z
#    x 1.874520 0.000000 0.024060 
#    y 0.000000 1.865310 0.000000 
#    z 0.024060 0.000000 1.888410 
# 
# From -- ./inp_files/287737.got.cif
#   From: 2010.05.17/outbox.cif.g08.bks.cpg/sg15_144_cif.got.tgz:287737.got - 2010.06.03 18:47:42.
