data_PCOD9256528
_publ_section_title
;
Structure prediction by ZEFSAII (Michael W. Deem and Ramdas Pophale) SiO2 
 PCOD9256528
Probable space group: C 2/C
;
_chemical_formula_sum "Si O2"
_cell_formula_units_Z 56
_cell_length_a 16.181009
_cell_length_b 26.291765
_cell_length_c 16.190722
_cell_angle_alpha 90.000000
_cell_angle_beta 154.583656
_cell_angle_gamma 90.000000
_cell_volume 2956.269231
_symmetry_space_group_name_H-M "C 2/C"
_symmetry_group_IT_number 15
_symmetry_cell_setting 'monoclinic'
loop_
_space_group_symop_operation_xyz
x,y,z
-x,y,1/2-z
-x,-y,-z
x,-y,1/2+z
1/2+x,1/2+y,z
1/2-x,1/2+y,1/2-z
1/2-x,1/2-y,-z
1/2+x,1/2-y,1/2+z
loop_
_atom_site_type_symbol
_atom_site_label
_atom_site_fract_x
_atom_site_fract_y
_atom_site_fract_z
Si Si1 0.123043 0.558949 0.934819
Si Si2 0.777669 0.540706 0.743007
Si Si3 0.751100 0.381833 0.357174
Si Si4 0.272502 0.690264 0.531114
Si Si5 0.725544 0.045937 0.467586
Si Si6 0.848754 0.933036 0.795607
Si Si7 0.832626 0.877690 0.937858
O O1 0.241843 0.513074 0.000404
O O2 0.000000 0.585969 0.750000
O O3 0.951197 0.534988 0.835533
O O4 0.271423 0.581754 0.135194
O O5 0.841283 0.583878 0.866836
O O6 0.735424 0.488278 0.753150
O O7 0.579014 0.559325 0.519240
O O8 0.830199 0.334192 0.481270
O O9 0.712649 0.421614 0.397366
O O10 0.554690 0.361919 0.138933
O O11 0.500000 0.680307 0.750000
O O12 0.250000 0.750000 0.500000
O O13 0.225680 0.659800 0.404611
O O14 0.500000 0.056275 0.250000
O O15 0.826952 0.067262 0.478208
O O16 0.774683 0.890211 0.793228
#
# Coordination Sequence:
#
# PCOD9256528 Si02
#       7
#     8   8   8   8   8   8   8
#     4  11  22  32  43  67  99 126 166 219 249 289
#     4  10  20  33  48  68  94 131 174 212 247 294
#     4   9  18  33  48  65  94 135 166 208 242 294
#     4   9  18  33  49  73 105 130 162 203 244 301
#     4  10  18  27  41  67  91 124 163 201 243 285
#     4  10  19  33  50  66  92 134 173 208 250 296
#     4   9  19  33  49  66  94 135 171 202 245 299
#
# _framework density 18.942795
#
# number of rings (size 3 to 8) (size 9 to 14) (size 15 to 20)
#    0.000    2.286    1.429    3.429    2.000    2.857 
#    5.143    0.000    0.000    0.000    0.000    0.000 
#    0.000    1.143    0.571    0.000    0.000    0.000 
#
# Total GULP energy -155954.872893 kJ/mol
# GULP energy per Si atom -5569.816889 kJ/mol
# Density = 1.889968 g / cm^3
# Si number density = 18.942795 Si / 1000 Ang^3
#
#
#
# Elastic Constant Matrix: (Units=GPa)
#
#
# Indices 1 2 3 4 5 6 
#
# 1 52.1359 30.4283 18.0252 0.0000 -24.8804 0.0000
# 2 30.4283 79.5095 13.3420 0.0000 -20.9903 0.0000
# 3 18.0252 13.3420 128.6707 -0.0001 -26.3033 0.0000
# 4 0.0000 0.0000 -0.0001 18.0567 0.0000 -3.7446
# 5 -24.8804 -20.9903 -26.3033 0.0000 37.9038 0.0000
# 6 0.0000 0.0000 0.0000 -3.7446 0.0000 14.9879
#
#
#
# Elastic Compliance Matrix: (Units=1/GPa)
#
#
# Indices 1 2 3 4 5 6 
#
# 1 0.031535 -0.007740 -0.000303 0.000000 0.016204 0.000000
# 2 -0.007740 0.016633 0.000238 0.000000 0.004295 0.000000
# 3 -0.000303 0.000238 0.009061 0.000000 0.006221 0.000000
# 4 0.000000 0.000000 0.000000 0.058407 0.000000 0.014592
# 5 0.016204 0.004295 0.006221 0.000000 0.043715 0.000000
# 6 0.000000 0.000000 0.000000 0.014592 0.000000 0.070366
#
#
# Mechanical properties :
#
#
# Convention : Reuss Voigt Hill
#
# Bulk Modulus (GPa) = 24.02706 42.65635 33.34170
# Shear Modulus (GPa) = 19.29003 27.42440 23.35721
#
# Velocity S-wave (km/s) = 3.19459 3.80906 3.51528
# Velocity P-wave (km/s) = 5.13018 6.47399 5.84086
#
# Compressibility (1/GPa) = 0.04161975
#
# Stress axis : x y z
#
# Youngs Moduli (GPa) = 31.71041 60.12024 110.36002
#
# Poissons Ratio (x) = 0.46533 0.03341
# Poissons Ratio (y) = 0.24544 -0.02623
# Poissons Ratio (z) = 0.00960 -0.01429
#
# Static dielectric constant tensor:
#      x y z
#    x 1.744810 0.000000 0.022460 
#    y 0.000000 1.642630 0.000000 
#    z 0.022460 0.000000 1.814710 
# 
# From -- ./inp_files/157469.got.cif
#   From: 2010.05.17/outbox.cif.g08.bks.cpg/sg15_79_cif.got.tgz:157469.got - 2010.06.03 18:47:42.
