data_PCOD9256935
_publ_section_title
;
Structure prediction by ZEFSAII (Michael W. Deem and Ramdas Pophale) SiO2 
 PCOD9256935
Probable space group: C 2/C
;
_chemical_formula_sum "Si O2"
_cell_formula_units_Z 64
_cell_length_a 7.020496
_cell_length_b 23.599682
_cell_length_c 16.245075
_cell_angle_alpha 90.000000
_cell_angle_beta 103.398984
_cell_angle_gamma 90.000000
_cell_volume 2618.245076
_symmetry_space_group_name_H-M "C 2/C"
_symmetry_group_IT_number 15
_symmetry_cell_setting 'monoclinic'
loop_
_space_group_symop_operation_xyz
x,y,z
-x,y,1/2-z
-x,-y,-z
x,-y,1/2+z
1/2+x,1/2+y,z
1/2-x,1/2+y,1/2-z
1/2-x,1/2-y,-z
1/2+x,1/2-y,1/2+z
loop_
_atom_site_type_symbol
_atom_site_label
_atom_site_fract_x
_atom_site_fract_y
_atom_site_fract_z
Si Si1 0.562191 0.637156 0.077477
Si Si2 0.068305 0.386464 0.070876
Si Si3 0.223381 0.674623 0.738854
Si Si4 0.650391 0.867381 0.599364
Si Si5 0.124373 0.897393 0.101610
Si Si6 0.222675 0.195674 0.236654
Si Si7 0.642261 0.992607 0.640684
Si Si8 0.199443 0.017578 0.164108
O O1 0.344314 0.659563 0.079590
O O2 0.706940 0.679118 0.139591
O O3 0.609827 0.577273 0.127863
O O4 0.534928 0.625778 0.978325
O O5 0.843558 0.390450 0.084025
O O6 0.196782 0.348579 0.144502
O O7 0.146041 0.450659 0.087506
O O8 0.036526 0.360587 0.977419
O O9 0.354648 0.635646 0.810541
O O10 0.284072 0.739612 0.751831
O O11 0.000000 0.671252 0.750000
O O12 0.649720 0.845688 0.692745
O O13 0.685875 0.934839 0.598657
O O14 0.091457 0.963682 0.114891
O O15 0.000000 0.189974 0.250000
O O16 0.776314 0.992624 0.735705
O O17 0.420265 0.985204 0.651098
#
# Coordination Sequence:
#
# PCOD9256935 Si02
#       8
#     8   8   8   8   8   8   8   8
#     4  10  19  31  47  72 101 124 148 189 241 282
#     4   9  17  29  47  69  95 125 157 192 231 274
#     4   9  16  29  46  67  95 125 158 197 230 266
#     4  10  19  31  47  72 101 124 148 189 241 282
#     4   9  17  29  47  69  95 125 157 192 231 274
#     4   9  18  29  43  67  99 125 152 191 236 278
#     4  10  18  30  49  71  93 124 161 191 225 277
#     4  10  18  30  49  71  93 124 161 191 225 277
#
# _framework density 24.443854999999999
#
# number of rings (size 3 to 8) (size 9 to 14) (size 15 to 20)
#    0.000    2.500    2.500    0.750    0.000    1.000 
#    0.000    5.000    0.000    0.000    0.000    8.750 
#    0.000    0.000    0.000    0.000    0.000    0.000 
#
# Total GULP energy -178970.346419 kJ/mol
# GULP energy per Si atom -5592.823326 kJ/mol
# Density = 2.438822 g / cm^3
# Si number density = 24.443855 Si / 1000 Ang^3
#
#
#
# Elastic Constant Matrix: (Units=GPa)
#
#
# Indices 1 2 3 4 5 6 
#
# 1 97.1575 -17.7038 10.5721 0.0000 23.3979 0.0000
# 2 -17.7038 64.1869 13.4231 0.0000 -1.3241 0.0000
# 3 10.5721 13.4231 136.5624 0.0000 7.2758 0.0000
# 4 0.0000 0.0000 0.0000 1.1930 0.0000 -8.5712
# 5 23.3979 -1.3241 7.2758 0.0000 30.5175 0.0000
# 6 0.0000 0.0000 0.0000 -8.5712 0.0000 4.6622
#
#
#
# Elastic Compliance Matrix: (Units=1/GPa)
#
#
# Indices 1 2 3 4 5 6 
#
# 1 0.013456 0.003689 -0.000874 0.000000 -0.009948 0.000000
# 2 0.003689 0.016953 -0.001864 0.000000 -0.001648 0.000000
# 3 -0.000874 -0.001864 0.007639 0.000000 -0.001232 0.000000
# 4 0.000000 0.000000 0.000000 -0.068659 0.000000 -0.126226
# 5 -0.009948 -0.001648 -0.001232 0.000000 0.040617 0.000000
# 6 0.000000 0.000000 0.000000 -0.126226 0.000000 -0.017568
#
#
# Mechanical properties :
#
#
# Convention : Reuss Voigt Hill
#
# Bulk Modulus (GPa) = 25.03213 34.49885 29.76549
# Shear Modulus (GPa) = 1297.66771 26.71555 662.19163
#
# Velocity S-wave (km/s) = 23.06576 3.30954 16.47699
# Velocity P-wave (km/s) = 26.82602 5.36174 19.34404
#
# Compressibility (1/GPa) = 0.03994866
#
# Stress axis : x y z
#
# Youngs Moduli (GPa) = 74.31848 58.98736 130.90376
#
# Poissons Ratio (x) = -0.21760 0.11444
# Poissons Ratio (y) = -0.27415 0.24402
# Poissons Ratio (z) = 0.06497 0.10996
#
# Static dielectric constant tensor:
#      x y z
#    x 2.010690 0.000000 -0.012540 
#    y 0.000000 1.851280 0.000000 
#    z -0.012540 0.000000 1.951270 
# 
# From -- ./inp_files/200160.got.cif
#   From: 2010.05.17/outbox.cif.g08.bks.cpg/sg15_101_cif.got.tgz:200160.got - 2010.06.03 18:47:42.
