data_PCOD9256251
_publ_section_title
;
Structure prediction by ZEFSAII (Michael W. Deem and Ramdas Pophale) SiO2 
 PCOD9256251
Probable space group: C 2/C
;
_chemical_formula_sum "Si O2"
_cell_formula_units_Z 48
_cell_length_a 14.614191
_cell_length_b 10.183610
_cell_length_c 23.131155
_cell_angle_alpha 90.000000
_cell_angle_beta 34.399237
_cell_angle_gamma 90.000000
_cell_volume 1944.860670
_symmetry_space_group_name_H-M "C 2/C"
_symmetry_group_IT_number 15
_symmetry_cell_setting 'monoclinic'
loop_
_space_group_symop_operation_xyz
x,y,z
-x,y,1/2-z
-x,-y,-z
x,-y,1/2+z
1/2+x,1/2+y,z
1/2-x,1/2+y,1/2-z
1/2-x,1/2-y,-z
1/2+x,1/2-y,1/2+z
loop_
_atom_site_type_symbol
_atom_site_label
_atom_site_fract_x
_atom_site_fract_y
_atom_site_fract_z
Si Si1 0.630301 0.254019 0.853008
Si Si2 0.188015 0.545028 0.169052
Si Si3 0.181110 0.765409 0.397395
Si Si4 0.937436 0.527388 0.098408
Si Si5 0.118183 0.162559 0.105314
Si Si6 0.250322 0.093434 0.492521
O O1 0.770083 0.343732 0.806635
O O2 0.521917 0.724861 0.022170
O O3 0.549750 0.290671 0.834019
O O4 0.669896 0.099527 0.832867
O O5 0.259666 0.407411 0.151576
O O6 0.271920 0.571764 0.063696
O O7 0.000000 0.536948 0.250000
O O8 0.133869 0.671204 0.370024
O O9 0.322878 0.696922 0.361363
O O10 0.081088 0.535808 0.069900
O O11 0.000000 0.500000 0.000000
O O12 0.250000 0.250000 0.000000
O O13 0.129329 0.006350 0.087988
O O14 0.250000 0.250000 0.500000
#
# Coordination Sequence:
#
# PCOD9256251 Si02
#       6
#     8   8   8   8   8   8
#     4  10  19  36  62  87 118 161 205 252 301 365
#     4  12  26  41  57  89 133 166 203 261 322 373
#     4  10  19  37  65  93 118 155 201 255 306 371
#     4  10  18  34  61  96 118 146 203 264 299 349
#     4  10  17  35  63  92 116 147 194 255 303 353
#     4  12  22  36  64  96 121 156 213 258 300 369
#
# _framework density 24.680433000000001
#
# number of rings (size 3 to 8) (size 9 to 14) (size 15 to 20)
#    0.000    1.333    8.333    2.500    2.333    0.000 
#    0.000    4.167    0.000    0.000    0.000    0.000 
#    0.000    0.000    0.000    0.000    0.000    0.000 
#
# Total GULP energy -134293.757363 kJ/mol
# GULP energy per Si atom -5595.573223 kJ/mol
# Density = 2.462426 g / cm^3
# Si number density = 24.680433 Si / 1000 Ang^3
#
#
#
# Elastic Constant Matrix: (Units=GPa)
#
#
# Indices 1 2 3 4 5 6 
#
# 1 128.6201 30.3279 -1.1544 0.0000 17.5130 0.0000
# 2 30.3279 203.9927 -6.2382 0.0000 3.6960 0.0000
# 3 -1.1544 -6.2382 50.8891 -0.0002 -0.7051 0.0000
# 4 0.0000 0.0000 -0.0002 7.4164 0.0000 -11.8291
# 5 17.5130 3.6960 -0.7051 0.0000 37.4141 0.0000
# 6 0.0000 0.0000 0.0000 -11.8291 0.0000 53.8033
#
#
#
# Elastic Compliance Matrix: (Units=1/GPa)
#
#
# Indices 1 2 3 4 5 6 
#
# 1 0.008591 -0.001207 -0.000007 0.000000 -0.003902 0.000000
# 2 -0.001207 0.005099 0.000599 0.000000 0.000072 0.000000
# 3 -0.000007 0.000599 0.019728 0.000001 0.000316 0.000000
# 4 0.000000 0.000000 0.000001 0.207654 0.000000 0.045654
# 5 -0.003902 0.000072 0.000316 0.000000 0.028553 0.000000
# 6 0.000000 0.000000 0.000000 0.045654 0.000000 0.028624
#
#
# Mechanical properties :
#
#
# Convention : Reuss Voigt Hill
#
# Bulk Modulus (GPa) = 31.06851 47.70804 39.38828
# Shear Modulus (GPa) = 16.11826 43.76454 29.94140
#
# Velocity S-wave (km/s) = 2.55831 4.21556 3.48683
# Velocity P-wave (km/s) = 4.61977 6.56254 5.67491
#
# Compressibility (1/GPa) = 0.03218693
#
# Stress axis : x y z
#
# Youngs Moduli (GPa) = 116.40608 196.13488 50.68897
#
# Poissons Ratio (x) = 0.23668 0.00036
# Poissons Ratio (y) = 0.14047 -0.03034
# Poissons Ratio (z) = 0.00083 -0.11741
#
# Static dielectric constant tensor:
#      x y z
#    x 1.884860 0.000000 0.005950 
#    y 0.000000 1.933910 0.000000 
#    z 0.005950 0.000000 2.156590 
# 
# From -- ./inp_files/295384.got.cif
#   From: 2010.05.17/outbox.cif.g08.bks.cpg/sg15_148_cif.got.tgz:295384.got - 2010.06.03 18:47:42.
