data_PCOD9256338
_publ_section_title
;
Structure prediction by ZEFSAII (Michael W. Deem and Ramdas Pophale) SiO2 
 PCOD9256338
Probable space group: C 2/C
;
_chemical_formula_sum "Si O2"
_cell_formula_units_Z 48
_cell_length_a 20.826497
_cell_length_b 8.176998
_cell_length_c 16.455834
_cell_angle_alpha 90.000000
_cell_angle_beta 44.146723
_cell_angle_gamma 90.000000
_cell_volume 1951.866007
_symmetry_space_group_name_H-M "C 2/C"
_symmetry_group_IT_number 15
_symmetry_cell_setting 'monoclinic'
loop_
_space_group_symop_operation_xyz
x,y,z
-x,y,1/2-z
-x,-y,-z
x,-y,1/2+z
1/2+x,1/2+y,z
1/2-x,1/2+y,1/2-z
1/2-x,1/2-y,-z
1/2+x,1/2-y,1/2+z
loop_
_atom_site_type_symbol
_atom_site_label
_atom_site_fract_x
_atom_site_fract_y
_atom_site_fract_z
Si Si1 0.225327 0.702426 0.930265
Si Si2 0.737819 0.056436 0.662287
Si Si3 0.113074 0.855341 0.587604
Si Si4 0.968911 0.223818 0.866852
Si Si5 0.634013 0.424091 0.305489
Si Si6 0.936560 0.249303 0.184168
O O1 0.291424 0.564917 0.835376
O O2 0.251167 0.862666 0.855094
O O3 0.250000 0.750000 0.000000
O O4 0.116888 0.672889 0.023366
O O5 0.783585 0.132461 0.539426
O O6 0.806385 0.115512 0.670410
O O7 0.632572 0.104798 0.772621
O O8 0.095340 0.806303 0.696132
O O9 0.046265 0.738322 0.594443
O O10 0.072239 0.039933 0.610980
O O11 0.000000 0.285595 0.750000
O O12 0.054784 0.199284 0.848138
O O13 0.586306 0.600866 0.356027
#
# Coordination Sequence:
#
# PCOD9256338 Si02
#       6
#     8   8   8   8   8   8
#     4  11  22  38  61  86 116 156 196 236 291 348
#     4  11  23  34  57  90 117 146 194 241 295 338
#     4   9  18  35  59  80 105 154 197 234 278 340
#     4  10  17  36  61  83 109 150 202 238 272 345
#     4  11  21  37  58  86 118 151 189 245 289 340
#     4  10  19  38  59  77 114 149 194 238 282 340
#
# _framework density 24.591851999999999
#
# number of rings (size 3 to 8) (size 9 to 14) (size 15 to 20)
#    0.000    1.667    5.000    2.500    0.000    7.333 
#    0.000    5.000    0.000    4.000    0.000    0.000 
#    0.000    0.000    0.000    0.000    0.000    0.000 
#
# Total GULP energy -134225.807219 kJ/mol
# GULP energy per Si atom -5592.741967 kJ/mol
# Density = 2.453588 g / cm^3
# Si number density = 24.591852 Si / 1000 Ang^3
#
#
#
# Elastic Constant Matrix: (Units=GPa)
#
#
# Indices 1 2 3 4 5 6 
#
# 1 80.1720 21.0415 -2.6192 0.0003 -5.7247 -0.0002
# 2 21.0415 33.4950 14.5072 0.0006 -13.2574 -0.0005
# 3 -2.6192 14.5072 53.6877 0.0003 -20.6126 -0.0003
# 4 0.0003 0.0006 0.0003 25.5658 -0.0002 -3.2905
# 5 -5.7247 -13.2574 -20.6126 -0.0002 49.4726 0.0002
# 6 -0.0002 -0.0005 -0.0003 -3.2905 0.0002 16.5139
#
#
#
# Elastic Compliance Matrix: (Units=1/GPa)
#
#
# Indices 1 2 3 4 5 6 
#
# 1 0.015620 -0.011376 0.003999 0.000000 0.000425 0.000000
# 2 -0.011376 0.043806 -0.009988 -0.000001 0.006261 0.000001
# 3 0.003999 -0.009988 0.024607 0.000000 0.008038 0.000000
# 4 0.000000 -0.000001 0.000000 0.040144 0.000000 0.007999
# 5 0.000425 0.006261 0.008038 0.000000 0.025289 0.000000
# 6 0.000000 0.000001 0.000000 0.007999 0.000000 0.062149
#
#
# Mechanical properties :
#
#
# Convention : Reuss Voigt Hill
#
# Bulk Modulus (GPa) = 20.28315 25.91263 23.09789
# Shear Modulus (GPa) = 19.02737 27.27215 23.14976
#
# Velocity S-wave (km/s) = 2.78461 3.33376 3.07149
# Velocity P-wave (km/s) = 4.31330 5.03772 4.68952
#
# Compressibility (1/GPa) = 0.04930201
#
# Stress axis : x y z
#
# Youngs Moduli (GPa) = 64.02060 22.82794 40.63958
#
# Poissons Ratio (x) = 0.25970 -0.16253
# Poissons Ratio (y) = 0.72832 0.40592
# Poissons Ratio (z) = -0.25604 0.22801
#
# Static dielectric constant tensor:
#      x y z
#    x 2.025740 0.000000 0.012560 
#    y 0.000000 1.988280 0.000000 
#    z 0.012560 0.000000 1.986180 
# 
# From -- ./inp_files/213748.got.cif
#   From: 2010.05.17/outbox.cif.g08.bks.cpg/sg15_107_cif.got.tgz:213748.got - 2010.06.03 18:47:42.
