data_PCOD9256804
_publ_section_title
;
Structure prediction by ZEFSAII (Michael W. Deem and Ramdas Pophale) SiO2 
 PCOD9256804
Probable space group: C 2/C
;
_chemical_formula_sum "Si O2"
_cell_formula_units_Z 64
_cell_length_a 12.562158
_cell_length_b 19.617451
_cell_length_c 14.682112
_cell_angle_alpha 90.000000
_cell_angle_beta 79.673968
_cell_angle_gamma 90.000000
_cell_volume 3559.621421
_symmetry_space_group_name_H-M "C 2/C"
_symmetry_group_IT_number 15
_symmetry_cell_setting 'monoclinic'
loop_
_space_group_symop_operation_xyz
x,y,z
-x,y,1/2-z
-x,-y,-z
x,-y,1/2+z
1/2+x,1/2+y,z
1/2-x,1/2+y,1/2-z
1/2-x,1/2-y,-z
1/2+x,1/2-y,1/2+z
loop_
_atom_site_type_symbol
_atom_site_label
_atom_site_fract_x
_atom_site_fract_y
_atom_site_fract_z
Si Si1 0.681553 0.893455 0.391126
Si Si2 0.387870 0.873500 0.719783
Si Si3 0.768172 0.800264 0.641497
Si Si4 0.942980 0.664950 0.937647
Si Si5 0.114680 0.535054 0.458469
Si Si6 0.677759 0.815384 0.219133
Si Si7 0.373821 0.304847 0.438789
Si Si8 0.895537 0.765420 0.107441
O O1 0.568292 0.856080 0.437537
O O2 0.678085 0.882731 0.282322
O O3 0.788485 0.856067 0.408481
O O4 0.686715 0.968488 0.432388
O O5 0.500000 0.891435 0.750000
O O6 0.284761 0.865970 0.802290
O O7 0.377844 0.924632 0.637671
O O8 0.398660 0.796870 0.678624
O O9 0.814251 0.747633 0.710025
O O10 0.669406 0.766081 0.598609
O O11 0.857132 0.809448 0.549766
O O12 0.919401 0.684884 0.837781
O O13 0.874557 0.596090 0.970385
O O14 0.906881 0.725980 0.009524
O O15 0.000000 0.500000 0.500000
O O16 0.786026 0.806013 0.142138
O O17 0.498578 0.311128 0.395794
#
# Coordination Sequence:
#
# PCOD9256804 Si02
#       8
#     8   8   8   8   8   8   8   8
#     4  10  21  34  50  77 106 143 175 213 262 311
#     4  10  18  29  51  79 107 131 171 224 264 316
#     4   9  18  29  49  80 102 134 168 211 275 307
#     4  10  19  35  52  73 111 139 168 212 267 329
#     4   9  21  34  48  73 105 142 175 207 262 317
#     4  10  20  31  51  77 108 136 171 214 266 321
#     4  10  18  32  52  76 112 133 170 222 266 312
#     4  10  19  32  52  82 105 134 171 215 273 316
#
# _framework density 17.979438999999999
#
# number of rings (size 3 to 8) (size 9 to 14) (size 15 to 20)
#    0.000    2.250    1.250    3.000    3.500    2.000 
#    0.000    0.000    0.000    0.750    3.250    0.000 
#    0.000    0.000    0.000    0.000    0.000    0.000 
#
# Total GULP energy -178172.989525 kJ/mol
# GULP energy per Si atom -5567.905923 kJ/mol
# Density = 1.793852 g / cm^3
# Si number density = 17.979439 Si / 1000 Ang^3
#
#
#
# Elastic Constant Matrix: (Units=GPa)
#
#
# Indices 1 2 3 4 5 6 
#
# 1 43.1236 13.3346 8.7126 0.0000 0.5581 0.0000
# 2 13.3346 42.8358 13.4887 0.0000 -8.6249 0.0000
# 3 8.7126 13.4887 80.6298 0.0000 2.2459 0.0000
# 4 0.0000 0.0000 0.0000 25.3510 0.0000 -11.7464
# 5 0.5581 -8.6249 2.2459 0.0000 28.2744 0.0000
# 6 0.0000 0.0000 0.0000 -11.7464 0.0000 13.5847
#
#
#
# Elastic Compliance Matrix: (Units=1/GPa)
#
#
# Indices 1 2 3 4 5 6 
#
# 1 0.026059 -0.008278 -0.001349 0.000000 -0.002932 0.000000
# 2 -0.008278 0.029149 -0.004244 0.000000 0.009392 0.000000
# 3 -0.001349 -0.004244 0.013323 0.000000 -0.002326 0.000000
# 4 0.000000 0.000000 0.000000 0.065815 0.000000 0.056909
# 5 -0.002932 0.009392 -0.002326 0.000000 0.038475 0.000000
# 6 0.000000 0.000000 0.000000 0.056909 0.000000 0.122820
#
#
# Mechanical properties :
#
#
# Convention : Reuss Voigt Hill
#
# Bulk Modulus (GPa) = 24.51574 26.40676 25.46125
# Shear Modulus (GPa) = 14.83771 22.17892 18.50832
#
# Velocity S-wave (km/s) = 2.87585 3.51603 3.21193
# Velocity P-wave (km/s) = 4.96914 5.58591 5.28653
#
# Compressibility (1/GPa) = 0.04079012
#
# Stress axis : x y z
#
# Youngs Moduli (GPa) = 38.37396 34.30636 75.05880
#
# Poissons Ratio (x) = 0.28397 0.10129
# Poissons Ratio (y) = 0.31764 0.31852
# Poissons Ratio (z) = 0.05178 0.14558
#
# Static dielectric constant tensor:
#      x y z
#    x 1.642410 0.000000 -0.049570 
#    y 0.000000 1.644270 0.000000 
#    z -0.049570 0.000000 1.726230 
# 
# From -- ./inp_files/147132.got.cif
#   From: 2010.05.17/outbox.cif.g08.bks.cpg/sg15_74_cif.got.tgz:147132.got - 2010.06.03 18:47:42.
