data_PCOD9256972
_publ_section_title
;
Structure prediction by ZEFSAII (Michael W. Deem and Ramdas Pophale) SiO2 
 PCOD9256972
Probable space group: C 2/C
;
_chemical_formula_sum "Si O2"
_cell_formula_units_Z 56
_cell_length_a 11.667711
_cell_length_b 9.771040
_cell_length_c 19.465950
_cell_angle_alpha 90.000000
_cell_angle_beta 69.625179
_cell_angle_gamma 90.000000
_cell_volume 2080.382827
_symmetry_space_group_name_H-M "C 2/C"
_symmetry_group_IT_number 15
_symmetry_cell_setting 'monoclinic'
loop_
_space_group_symop_operation_xyz
x,y,z
-x,y,1/2-z
-x,-y,-z
x,-y,1/2+z
1/2+x,1/2+y,z
1/2-x,1/2+y,1/2-z
1/2-x,1/2-y,-z
1/2+x,1/2-y,1/2+z
loop_
_atom_site_type_symbol
_atom_site_label
_atom_site_fract_x
_atom_site_fract_y
_atom_site_fract_z
Si Si1 0.866120 0.631204 0.914982
Si Si2 0.077302 0.371662 0.953155
Si Si3 0.638056 0.294720 0.708650
Si Si4 0.641672 0.420260 0.135421
Si Si5 0.639419 0.254917 0.859900
Si Si6 0.137482 0.845652 0.996631
Si Si7 0.012676 0.628938 0.168133
O O1 0.800428 0.705468 0.864601
O O2 0.889764 0.474368 0.887263
O O3 0.000617 0.703458 0.886054
O O4 0.828730 0.641238 0.002829
O O5 0.095936 0.384714 0.866414
O O6 0.984894 0.244207 0.973951
O O7 0.000000 0.500000 0.000000
O O8 0.500000 0.238666 0.750000
O O9 0.619911 0.448007 0.685244
O O10 0.691096 0.289331 0.774293
O O11 0.776025 0.363502 0.125621
O O12 0.557339 0.286220 0.163262
O O13 0.627824 0.456969 0.057886
O O14 0.648012 0.376110 0.914049
O O15 0.250000 0.750000 0.000000
O O16 0.000000 0.584559 0.250000
#
# Coordination Sequence:
#
# PCOD9256972 Si02
#       7
#     8   8   8   8   8   8   8
#     4   9  18  34  53  71  96 133 169 198 239 297
#     4   8  15  28  47  71  93 121 163 202 231 277
#     4  10  20  34  49  73 105 130 158 204 250 289
#     4  10  20  33  51  76 101 125 161 209 249 284
#     4   9  18  33  53  73  96 132 169 198 237 297
#     4   8  15  30  49  70  93 125 163 197 236 288
#     4  10  18  30  50  76 100 128 164 204 244 290
#
# _framework density 26.918123000000001
#
# number of rings (size 3 to 8) (size 9 to 14) (size 15 to 20)
#    0.000    2.857    0.000    1.714    0.000    2.286 
#    0.000   12.857    0.000    0.000    0.000   92.000 
#    0.000    0.000    0.000    0.000    0.000    0.000 
#
# Total GULP energy -156289.886736 kJ/mol
# GULP energy per Si atom -5581.781669 kJ/mol
# Density = 2.685686 g / cm^3
# Si number density = 26.918123 Si / 1000 Ang^3
#
#
#
# Elastic Constant Matrix: (Units=GPa)
#
#
# Indices 1 2 3 4 5 6 
#
# 1 47.2415 29.3353 35.6601 0.0000 13.5553 0.0000
# 2 29.3353 109.7217 57.1419 0.0000 18.6010 0.0000
# 3 35.6601 57.1419 273.6146 0.0000 45.5898 0.0000
# 4 0.0000 0.0000 0.0000 -26.0375 0.0000 -40.6734
# 5 13.5553 18.6010 45.5898 0.0000 36.1141 0.0000
# 6 0.0000 0.0000 0.0000 -40.6734 0.0000 16.6047
#
#
#
# Elastic Compliance Matrix: (Units=1/GPa)
#
#
# Indices 1 2 3 4 5 6 
#
# 1 0.027345 -0.005609 -0.001474 0.000000 -0.005515 0.000000
# 2 -0.005609 0.011688 -0.001339 0.000000 -0.002224 0.000000
# 3 -0.001474 -0.001339 0.004963 0.000000 -0.005023 0.000000
# 4 0.000000 0.000000 0.000000 -0.007958 0.000000 -0.019492
# 5 -0.005515 -0.002224 -0.005023 0.000000 0.037246 0.000000
# 6 0.000000 0.000000 0.000000 -0.019492 0.000000 0.012478
#
#
# Mechanical properties :
#
#
# Convention : Reuss Voigt Hill
#
# Bulk Modulus (GPa) = 36.82785 74.98359 55.90572
# Shear Modulus (GPa) = 44.77945 25.89897 35.33921
#
# Velocity S-wave (km/s) = 4.08308 3.10520 3.62725
# Velocity P-wave (km/s) = 5.99499 6.38537 6.19326
#
# Compressibility (1/GPa) = 0.02715336
#
# Stress axis : x y z
#
# Youngs Moduli (GPa) = 36.56916 85.55709 201.47227
#
# Poissons Ratio (x) = 0.47986 0.29691
# Poissons Ratio (y) = 0.20511 0.26985
# Poissons Ratio (z) = 0.05389 0.11460
#
# Static dielectric constant tensor:
#      x y z
#    x 2.506900 0.000000 -0.180490 
#    y 0.000000 2.118010 0.000000 
#    z -0.180490 0.000000 2.316460 
# 
# From -- ./inp_files/246982.got.cif
#   From: 2010.05.17/outbox.cif.g08.bks.cpg/sg15_124_cif.got.tgz:246982.got - 2010.06.03 18:47:42.
