data_PCOD9256718
_publ_section_title
;
Structure prediction by ZEFSAII (Michael W. Deem and Ramdas Pophale) SiO2 
 PCOD9256718
Probable space group: C 2/C
;
_chemical_formula_sum "Si O2"
_cell_formula_units_Z 64
_cell_length_a 20.849953
_cell_length_b 26.569541
_cell_length_c 9.087934
_cell_angle_alpha 90.000000
_cell_angle_beta 64.159115
_cell_angle_gamma 90.000000
_cell_volume 4531.068756
_symmetry_space_group_name_H-M "C 2/C"
_symmetry_group_IT_number 15
_symmetry_cell_setting 'monoclinic'
loop_
_space_group_symop_operation_xyz
x,y,z
-x,y,1/2-z
-x,-y,-z
x,-y,1/2+z
1/2+x,1/2+y,z
1/2-x,1/2+y,1/2-z
1/2-x,1/2-y,-z
1/2+x,1/2-y,1/2+z
loop_
_atom_site_type_symbol
_atom_site_label
_atom_site_fract_x
_atom_site_fract_y
_atom_site_fract_z
Si Si1 0.917268 0.248788 0.656673
Si Si2 0.915548 0.446592 0.159382
Si Si3 0.163084 0.646365 0.911223
Si Si4 0.791544 0.803615 0.127688
Si Si5 0.084452 0.553408 0.490478
Si Si6 0.663084 0.853635 0.762609
Si Si7 0.791544 0.196385 0.289223
Si Si8 0.082733 0.248788 0.491208
O O1 0.867178 0.208747 0.625317
O O2 0.886245 0.304594 0.656127
O O3 0.911175 0.241648 0.838825
O O4 0.000000 0.245713 0.532204
O O5 0.870852 0.401898 0.131872
O O6 0.898502 0.500000 0.101498
O O7 0.903726 0.449011 0.346274
O O8 0.000000 0.437133 0.050030
O O9 0.241038 0.659259 0.769709
O O10 0.165517 0.640037 0.084483
O O11 0.113755 0.695406 0.928617
O O12 0.750000 0.750000 0.170884
O O13 0.798345 0.819655 0.951655
O O14 0.129148 0.598102 0.373576
O O15 0.741038 0.840741 0.748215
O O16 0.867178 0.208747 0.140328
#
# Coordination Sequence:
#
# PCOD9256718 Si02
#       8
#     8   8   8   8   8   8   8   8
#     4   9  17  28  42  61  85 113 144 176 211 253
#     4  10  20  32  45  62  85 112 143 179 215 250
#     4  10  18  29  45  62  83 113 146 177 212 253
#     4   9  17  28  41  59  83 110 141 176 212 250
#     4  10  20  32  45  62  85 112 143 179 215 250
#     4  10  18  29  45  62  83 113 146 177 212 253
#     4   9  17  28  41  59  83 110 141 176 212 250
#     4   9  17  28  42  61  85 113 144 176 211 253
#
# _framework density 14.124703
#
# number of rings (size 3 to 8) (size 9 to 14) (size 15 to 20)
#    0.000    2.500    0.000    3.000    0.000    7.000 
#    0.000    0.000    0.000    0.000    0.000    0.000 
#    0.000    1.000    0.000    3.750    0.000    5.750 
#
# Total GULP energy -178409.124129 kJ/mol
# GULP energy per Si atom -5575.285129 kJ/mol
# Density = 1.409255 g / cm^3
# Si number density = 14.124703 Si / 1000 Ang^3
#
#
#
# Elastic Constant Matrix: (Units=GPa)
#
#
# Indices 1 2 3 4 5 6 
#
# 1 117.3299 60.0640 61.3597 0.0000 -4.6095 0.0000
# 2 60.0640 87.2432 62.0675 0.0000 1.4482 0.0000
# 3 61.3597 62.0675 96.6009 0.0000 -10.3740 0.0000
# 4 0.0000 0.0000 0.0000 25.4894 0.0000 -0.5378
# 5 -4.6095 1.4482 -10.3740 0.0000 20.6297 0.0000
# 6 0.0000 0.0000 0.0000 -0.5378 0.0000 26.2335
#
#
#
# Elastic Compliance Matrix: (Units=1/GPa)
#
#
# Indices 1 2 3 4 5 6 
#
# 1 0.014445 -0.006507 -0.004861 0.000000 0.001240 0.000000
# 2 -0.006507 0.025663 -0.013431 0.000000 -0.010009 0.000000
# 3 -0.004861 -0.013431 0.023313 0.000000 0.011580 0.000000
# 4 0.000000 0.000000 0.000000 0.039249 0.000000 0.000805
# 5 0.001240 -0.010009 0.011580 0.000000 0.055277 0.000000
# 6 0.000000 0.000000 0.000000 0.000805 0.000000 0.038136
#
#
# Mechanical properties :
#
#
# Convention : Reuss Voigt Hill
#
# Bulk Modulus (GPa) = 72.34387 74.23961 73.29174
# Shear Modulus (GPa) = 19.97696 22.31604 21.14650
#
# Velocity S-wave (km/s) = 3.76483 3.97915 3.87347
# Velocity P-wave (km/s) = 8.38020 8.58986 8.48568
#
# Compressibility (1/GPa) = 0.01382287
#
# Stress axis : x y z
#
# Youngs Moduli (GPa) = 69.22744 38.96618 42.89499
#
# Poissons Ratio (x) = 0.25356 0.20853
# Poissons Ratio (y) = 0.45047 0.57611
# Poissons Ratio (z) = 0.33654 0.52334
#
# Static dielectric constant tensor:
#      x y z
#    x 1.457030 0.000000 0.007590 
#    y 0.000000 1.433870 0.000000 
#    z 0.007590 0.000000 1.467520 
# 
# From -- ./inp_files/57856.got.cif
#   From: 2010.05.17/outbox.cif.g08.bks.cpg/sg15_29_cif.got.tgz:57856.got - 2010.06.03 18:47:42.
