data_PCOD9256127
_publ_section_title
;
Structure prediction by ZEFSAII (Michael W. Deem and Ramdas Pophale) SiO2 
 PCOD9256127
Probable space group: C 2/C
;
_chemical_formula_sum "Si O2"
_cell_formula_units_Z 48
_cell_length_a 9.724668
_cell_length_b 16.259307
_cell_length_c 13.820680
_cell_angle_alpha 90.000000
_cell_angle_beta 110.063295
_cell_angle_gamma 90.000000
_cell_volume 2052.660482
_symmetry_space_group_name_H-M "C 2/C"
_symmetry_group_IT_number 15
_symmetry_cell_setting 'monoclinic'
loop_
_space_group_symop_operation_xyz
x,y,z
-x,y,1/2-z
-x,-y,-z
x,-y,1/2+z
1/2+x,1/2+y,z
1/2-x,1/2+y,1/2-z
1/2-x,1/2-y,-z
1/2+x,1/2-y,1/2+z
loop_
_atom_site_type_symbol
_atom_site_label
_atom_site_fract_x
_atom_site_fract_y
_atom_site_fract_z
Si Si1 0.633417 0.416403 0.360416
Si Si2 0.834886 0.420813 0.241047
Si Si3 0.846821 0.682366 0.463899
Si Si4 0.830406 0.057839 0.980127
Si Si5 0.914274 0.806334 0.980995
Si Si6 0.837614 0.777637 0.752877
O O1 0.500000 0.407755 0.250000
O O2 0.777577 0.438108 0.334202
O O3 0.614311 0.488588 0.434318
O O4 0.649166 0.335286 0.431703
O O5 0.817049 0.320622 0.231516
O O6 0.000000 0.440102 0.250000
O O7 0.722571 0.464286 0.139836
O O8 0.750000 0.750000 0.500000
O O9 0.816572 0.598881 0.511647
O O10 0.778626 0.677621 0.341891
O O11 0.008066 0.717738 0.497513
O O12 0.953382 0.128213 0.003558
O O13 0.824283 0.804812 0.860325
O O14 0.000000 0.796402 0.750000
#
# Coordination Sequence:
#
# PCOD9256127 Si02
#       6
#     8   8   8   8   8   8
#     4  12  26  41  67 100 139 175 221 292 343 400
#     4  11  24  44  64  91 132 182 222 270 346 417
#     4  10  17  34  60  95 125 169 215 273 325 395
#     4  11  22  39  65  98 133 175 224 271 344 414
#     4  11  22  39  63 100 132 162 231 288 335 384
#     4  11  18  33  64  89 124 172 218 266 330 397
#
# _framework density 23.384287
#
# number of rings (size 3 to 8) (size 9 to 14) (size 15 to 20)
#    0.000    1.000    8.333    1.500    2.333    1.333 
#    0.000    0.000    0.000    3.000    0.000    0.000 
#    0.000    0.000    0.000    0.000    0.000    0.000 
#
# Total GULP energy -134132.286838 kJ/mol
# GULP energy per Si atom -5588.845285 kJ/mol
# Density = 2.333106 g / cm^3
# Si number density = 23.384287 Si / 1000 Ang^3
#
#
#
# Elastic Constant Matrix: (Units=GPa)
#
#
# Indices 1 2 3 4 5 6 
#
# 1 93.8284 18.6428 46.7056 0.0000 -19.6232 0.0000
# 2 18.6428 32.2955 16.5958 0.0000 -8.1964 0.0000
# 3 46.7056 16.5958 191.9143 0.0000 -7.0237 0.0000
# 4 0.0000 0.0000 0.0000 42.0836 0.0000 -8.7201
# 5 -19.6232 -8.1964 -7.0237 0.0000 27.3462 0.0000
# 6 0.0000 0.0000 0.0000 -8.7201 0.0000 21.4152
#
#
#
# Elastic Compliance Matrix: (Units=1/GPa)
#
#
# Indices 1 2 3 4 5 6 
#
# 1 0.014833 -0.004948 -0.002874 0.000000 0.008423 0.000000
# 2 -0.004948 0.036452 -0.001694 0.000000 0.006940 0.000000
# 3 -0.002874 -0.001694 0.006019 0.000000 -0.001024 0.000000
# 4 0.000000 0.000000 0.000000 0.025952 0.000000 0.010567
# 5 0.008423 0.006940 -0.001024 0.000000 0.044429 0.000000
# 6 0.000000 0.000000 0.000000 0.010567 0.000000 0.050999
#
#
# Mechanical properties :
#
#
# Convention : Reuss Voigt Hill
#
# Bulk Modulus (GPa) = 26.12838 53.54740 39.83789
# Shear Modulus (GPa) = 23.75603 33.90860 28.83232
#
# Velocity S-wave (km/s) = 3.19077 3.81210 3.51519
# Velocity P-wave (km/s) = 4.97719 6.50574 5.79211
#
# Compressibility (1/GPa) = 0.03827255
#
# Stress axis : x y z
#
# Youngs Moduli (GPa) = 67.41799 27.43319 166.13947
#
# Poissons Ratio (x) = 0.13574 0.47743
# Poissons Ratio (y) = 0.33359 0.28145
# Poissons Ratio (z) = 0.19374 0.04647
#
# Static dielectric constant tensor:
#      x y z
#    x 1.948050 0.000000 -0.034400 
#    y 0.000000 1.925350 0.000000 
#    z -0.034400 0.000000 1.877590 
# 
# From -- ./inp_files/87852.got.cif
#   From: 2010.05.17/outbox.cif.g08.bks.cpg/sg15_44_cif.got.tgz:87852.got - 2010.06.03 18:47:42.
