data_PCOD9256278
_publ_section_title
;
Structure prediction by ZEFSAII (Michael W. Deem and Ramdas Pophale) SiO2 
 PCOD9256278
Probable space group: C 2/C
;
_chemical_formula_sum "Si O2"
_cell_formula_units_Z 40
_cell_length_a 21.061158
_cell_length_b 10.384234
_cell_length_c 18.160463
_cell_angle_alpha 90.000000
_cell_angle_beta 154.048957
_cell_angle_gamma 90.000000
_cell_volume 1738.056627
_symmetry_space_group_name_H-M "C 2/C"
_symmetry_group_IT_number 15
_symmetry_cell_setting 'monoclinic'
loop_
_space_group_symop_operation_xyz
x,y,z
-x,y,1/2-z
-x,-y,-z
x,-y,1/2+z
1/2+x,1/2+y,z
1/2-x,1/2+y,1/2-z
1/2-x,1/2-y,-z
1/2+x,1/2-y,1/2+z
loop_
_atom_site_type_symbol
_atom_site_label
_atom_site_fract_x
_atom_site_fract_y
_atom_site_fract_z
Si Si1 0.024007 0.904314 0.411954
Si Si2 0.000000 0.556795 0.250000
Si Si3 0.500000 0.354810 0.750000
Si Si4 0.380498 0.340455 0.831647
Si Si5 0.816469 0.096806 0.578740
Si Si6 0.437662 0.848314 0.064268
O O1 0.093464 0.835445 0.553914
O O2 0.123736 0.895596 0.442641
O O3 0.981066 0.044648 0.401895
O O4 0.880368 0.849318 0.222360
O O5 0.850592 0.631105 0.096573
O O6 0.986920 0.470180 0.163195
O O7 0.369669 0.445706 0.644436
O O8 0.574612 0.263969 0.887337
O O9 0.436783 0.206033 0.857182
O O10 0.213750 0.365078 0.635852
#
# Coordination Sequence:
#
# PCOD9256278 Si02
#       6
#     8   4   4   8   8   8
#     4   9  20  36  52  70 110 150 174 196 266 325
#     4  11  20  28  54  88 106 129 166 225 268 310
#     4   9  16  30  48  76 106 143 160 205 268 328
#     4  11  20  34  51  78 109 145 168 213 262 316
#     4  10  17  36  53  75 103 142 176 213 252 320
#     4  11  19  30  51  80 114 133 170 213 264 316
#
# _framework density 23.014209999999999
#
# number of rings (size 3 to 8) (size 9 to 14) (size 15 to 20)
#    0.000    2.000    6.000    1.200    0.000    3.200 
#    0.000    3.000    0.000    4.800    0.000    0.000 
#    0.000    0.000    0.000    0.000    0.000    0.000 
#
# Total GULP energy -111413.025136 kJ/mol
# GULP energy per Si atom -5570.651257 kJ/mol
# Density = 2.296183 g / cm^3
# Si number density = 23.014210 Si / 1000 Ang^3
#
#
#
# Elastic Constant Matrix: (Units=GPa)
#
#
# Indices 1 2 3 4 5 6 
#
# 1 91.5234 -0.9622 66.6999 0.0000 -45.4975 -0.0001
# 2 -0.9622 26.8623 4.1345 0.0000 -20.2772 -0.0001
# 3 66.6999 4.1345 184.5706 0.0000 -30.2292 -0.0001
# 4 0.0000 0.0000 0.0000 7.1584 0.0000 7.4755
# 5 -45.4975 -20.2772 -30.2292 0.0000 57.0983 -0.0001
# 6 -0.0001 -0.0001 -0.0001 7.4755 -0.0001 1.0178
#
#
#
# Elastic Compliance Matrix: (Units=1/GPa)
#
#
# Indices 1 2 3 4 5 6 
#
# 1 0.031062 0.024736 -0.006884 0.000001 0.029891 -0.000001
# 2 0.024736 0.071236 -0.003463 0.000002 0.043174 -0.000001
# 3 -0.006884 -0.003463 0.007537 0.000000 -0.002725 0.000000
# 4 0.000001 0.000002 0.000000 -0.020944 0.000002 0.153825
# 5 0.029891 0.043174 -0.002725 0.000002 0.055221 -0.000001
# 6 -0.000001 -0.000001 0.000000 0.153825 -0.000001 -0.147299
#
#
# Mechanical properties :
#
#
# Convention : Reuss Voigt Hill
#
# Bulk Modulus (GPa) = 7.21438 49.18897 28.20168
# Shear Modulus (GPa) = 351.08373 28.59384 189.83878
#
# Velocity S-wave (km/s) = 12.36455 3.52865 9.09212
# Velocity P-wave (km/s) = 14.38695 6.16616 11.06810
#
# Compressibility (1/GPa) = 0.13861198
#
# Stress axis : x y z
#
# Youngs Moduli (GPa) = 32.19359 14.03779 132.68056
#
# Poissons Ratio (x) = -0.34723 0.91333
# Poissons Ratio (y) = -0.79633 0.45954
# Poissons Ratio (z) = 0.22161 0.04862
#
# Static dielectric constant tensor:
#      x y z
#    x 1.900310 0.000000 0.030220 
#    y 0.000000 1.992930 0.000000 
#    z 0.030220 0.000000 1.870240 
# 
# From -- ./inp_files/257726.got.cif
#   From: 2010.05.17/outbox.cif.g08.bks.cpg/sg15_129_cif.got.tgz:257726.got - 2010.06.03 18:47:42.
