data_PCOD9256277
_publ_section_title
;
Structure prediction by ZEFSAII (Michael W. Deem and Ramdas Pophale) SiO2 
 PCOD9256277
Probable space group: C 2/C
;
_chemical_formula_sum "Si O2"
_cell_formula_units_Z 32
_cell_length_a 17.666360
_cell_length_b 11.194268
_cell_length_c 8.950791
_cell_angle_alpha 90.000000
_cell_angle_beta 116.744456
_cell_angle_gamma 90.000000
_cell_volume 1580.762372
_symmetry_space_group_name_H-M "C 2/C"
_symmetry_group_IT_number 15
_symmetry_cell_setting 'monoclinic'
loop_
_space_group_symop_operation_xyz
x,y,z
-x,y,1/2-z
-x,-y,-z
x,-y,1/2+z
1/2+x,1/2+y,z
1/2-x,1/2+y,1/2-z
1/2-x,1/2-y,-z
1/2+x,1/2-y,1/2+z
loop_
_atom_site_type_symbol
_atom_site_label
_atom_site_fract_x
_atom_site_fract_y
_atom_site_fract_z
Si Si1 0.338617 0.486978 0.110614
Si Si2 0.543250 0.103330 0.129761
Si Si3 0.267615 0.125338 0.238547
Si Si4 0.887123 0.831005 0.412185
O O1 0.269063 0.553481 0.152931
O O2 0.396480 0.415031 0.276857
O O3 0.297020 0.395074 0.954850
O O4 0.384202 0.588779 0.055034
O O5 0.500000 0.121546 0.250000
O O6 0.642540 0.072454 0.236148
O O7 0.544900 0.225830 0.036284
O O8 0.500000 0.000000 0.000000
O O9 0.296694 0.259626 0.309579
#
# Coordination Sequence:
#
# PCOD9256277 Si02
#       4
#     8   8   8   8
#     4  10  17  36  51  90 107 138 187 225 295 320
#     4  10  21  38  53  80 110 146 190 219 272 332
#     4   9  19  31  59  78 114 138 181 231 276 329
#     4   9  21  31  58  78 114 145 176 236 274 329
#
# _framework density 20.243397000000002
#
# number of rings (size 3 to 8) (size 9 to 14) (size 15 to 20)
#    1.500    1.000    0.000    3.000    0.000    0.000 
#    0.000    3.750    0.000    0.000    0.000    0.000 
#    0.000    0.000    0.000    0.000    0.000    0.000 
#
# Total GULP energy -89147.245680 kJ/mol
# GULP energy per Si atom -5571.702855 kJ/mol
# Density = 2.019732 g / cm^3
# Si number density = 20.243397 Si / 1000 Ang^3
#
#
#
# Elastic Constant Matrix: (Units=GPa)
#
#
# Indices 1 2 3 4 5 6 
#
# 1 54.6721 39.6259 20.4515 0.0000 -11.4488 0.0000
# 2 39.6259 127.7770 33.0577 0.0000 -18.5857 0.0000
# 3 20.4515 33.0577 37.5649 0.0000 -19.1830 0.0000
# 4 0.0000 0.0000 0.0000 32.0190 0.0000 -2.6620
# 5 -11.4488 -18.5857 -19.1830 0.0000 15.3911 0.0000
# 6 0.0000 0.0000 0.0000 -2.6620 0.0000 29.0621
#
#
#
# Elastic Compliance Matrix: (Units=1/GPa)
#
#
# Indices 1 2 3 4 5 6 
#
# 1 0.025823 -0.005609 -0.007627 0.000000 0.002930 0.000000
# 2 -0.005609 0.011405 -0.005723 0.000000 0.002467 0.000000
# 3 -0.007627 -0.005723 0.080828 0.000000 0.088157 0.000000
# 4 0.000000 0.000000 0.000000 0.031471 0.000000 0.002883
# 5 0.002930 0.002467 0.088157 0.000000 0.180006 0.000000
# 6 0.000000 0.000000 0.000000 0.002883 0.000000 0.034673
#
#
# Mechanical properties :
#
#
# Convention : Reuss Voigt Hill
#
# Bulk Modulus (GPa) = 12.47852 45.14270 28.81061
# Shear Modulus (GPa) = 11.65946 23.75304 17.70625
#
# Velocity S-wave (km/s) = 2.40253 3.42917 2.96069
# Velocity P-wave (km/s) = 3.72476 6.16663 5.09417
#
# Compressibility (1/GPa) = 0.08013768
#
# Stress axis : x y z
#
# Youngs Moduli (GPa) = 38.72591 87.68071 12.37196
#
# Poissons Ratio (x) = 0.49178 0.09436
# Poissons Ratio (y) = 0.21720 0.07081
# Poissons Ratio (z) = 0.29535 0.50183
#
# Static dielectric constant tensor:
#      x y z
#    x 1.726790 0.000000 0.038140 
#    y 0.000000 1.737550 0.000000 
#    z 0.038140 0.000000 1.715860 
# 
# From -- ./inp_files/45670.got.cif
#   From: 2010.05.17/outbox.cif.g08.bks.cpg/sg15_23_cif.got.tgz:45670.got - 2010.06.03 18:47:42.
