data_PCOD9256403
_publ_section_title
;
Structure prediction by ZEFSAII (Michael W. Deem and Ramdas Pophale) SiO2 
 PCOD9256403
Probable space group: C 2/C
;
_chemical_formula_sum "Si O2"
_cell_formula_units_Z 44
_cell_length_a 13.363263
_cell_length_b 13.230951
_cell_length_c 13.162046
_cell_angle_alpha 90.000000
_cell_angle_beta 119.759829
_cell_angle_gamma 90.000000
_cell_volume 2020.242855
_symmetry_space_group_name_H-M "C 2/C"
_symmetry_group_IT_number 15
_symmetry_cell_setting 'monoclinic'
loop_
_space_group_symop_operation_xyz
x,y,z
-x,y,1/2-z
-x,-y,-z
x,-y,1/2+z
1/2+x,1/2+y,z
1/2-x,1/2+y,1/2-z
1/2-x,1/2-y,-z
1/2+x,1/2-y,1/2+z
loop_
_atom_site_type_symbol
_atom_site_label
_atom_site_fract_x
_atom_site_fract_y
_atom_site_fract_z
Si Si1 0.759260 0.828317 0.690430
Si Si2 0.967339 0.936227 0.082583
Si Si3 0.764452 0.595562 0.105640
Si Si4 0.132788 0.475749 0.045588
Si Si5 0.780107 0.887417 0.296721
Si Si6 0.500000 0.599891 0.250000
O O1 0.711997 0.838413 0.782634
O O2 0.735937 0.714043 0.647452
O O3 0.898245 0.843286 0.757435
O O4 0.698940 0.916673 0.595409
O O5 0.087819 0.887585 0.176036
O O6 0.857259 0.868578 0.004167
O O7 0.933188 0.023599 0.142851
O O8 0.000000 0.000000 0.000000
O O9 0.740999 0.485581 0.144586
O O10 0.850266 0.574626 0.056435
O O11 0.191336 0.402187 0.159069
O O12 0.000000 0.500000 0.000000
#
# Coordination Sequence:
#
# PCOD9256403 Si02
#       6
#     8   8   8   8   8   4
#     4  11  24  38  65  97 127 161 216 268 309 379
#     4  10  17  37  64  86 116 162 202 254 310 364
#     4  10  21  42  66  84 123 172 208 257 320 375
#     4  11  24  43  61  86 131 173 205 261 330 378
#     4  10  23  40  61  99 123 158 213 263 315 378
#     4  12  18  38  66  92 122 160 214 258 308 366
#
# _framework density 21.779558999999999
#
# number of rings (size 3 to 8) (size 9 to 14) (size 15 to 20)
#    0.000    1.455    7.273    0.000    0.000    7.273 
#    0.000    3.636    0.000    0.000    0.000    0.000 
#    0.000    0.000    0.000    0.000    0.000    0.000 
#
# Total GULP energy -122661.726851 kJ/mol
# GULP energy per Si atom -5575.533039 kJ/mol
# Density = 2.172999 g / cm^3
# Si number density = 21.779559 Si / 1000 Ang^3
#
#
#
# Elastic Constant Matrix: (Units=GPa)
#
#
# Indices 1 2 3 4 5 6 
#
# 1 100.0894 -15.9845 38.1730 0.0000 4.0483 0.0000
# 2 -15.9845 58.4628 -10.0773 0.0000 11.6653 0.0000
# 3 38.1730 -10.0773 53.6351 0.0000 -0.5911 0.0000
# 4 0.0000 0.0000 0.0000 3.9269 0.0000 5.6058
# 5 4.0483 11.6653 -0.5911 0.0000 37.1824 0.0000
# 6 0.0000 0.0000 0.0000 5.6058 0.0000 9.8191
#
#
#
# Elastic Compliance Matrix: (Units=1/GPa)
#
#
# Indices 1 2 3 4 5 6 
#
# 1 0.014201 0.002734 -0.009621 0.000000 -0.002557 0.000000
# 2 0.002734 0.019402 0.001629 0.000000 -0.006359 0.000000
# 3 -0.009621 0.001629 0.025809 0.000000 0.000947 0.000000
# 4 0.000000 0.000000 0.000000 1.376386 0.000000 -0.785790
# 5 -0.002557 -0.006359 0.000947 0.000000 0.029183 0.000000
# 6 0.000000 0.000000 0.000000 -0.785790 0.000000 0.550457
#
#
# Mechanical properties :
#
#
# Convention : Reuss Voigt Hill
#
# Bulk Modulus (GPa) = 20.45151 26.26774 23.35962
# Shear Modulus (GPa) = 2.44828 23.52409 12.98618
#
# Velocity S-wave (km/s) = 1.06139 3.29005 2.44448
# Velocity P-wave (km/s) = 3.30344 5.14971 4.32621
#
# Compressibility (1/GPa) = 0.04889614
#
# Stress axis : x y z
#
# Youngs Moduli (GPa) = 70.41937 51.54064 38.74666
#
# Poissons Ratio (x) = -0.14093 0.37279
# Poissons Ratio (y) = -0.19256 -0.06313
# Poissons Ratio (z) = 0.67752 -0.08397
#
# Static dielectric constant tensor:
#      x y z
#    x 1.547390 0.000000 0.043320 
#    y 0.000000 3.057520 0.000000 
#    z 0.043320 0.000000 1.860930 
# 
# From -- ./inp_files/143873.got.cif
#   From: 2010.05.17/outbox.cif.g08.bks.cpg/sg15_72_cif.got.tgz:143873.got - 2010.06.03 18:47:42.
