data_PCOD9256524
_publ_section_title
;
Structure prediction by ZEFSAII (Michael W. Deem and Ramdas Pophale) SiO2 
 PCOD9256524
Probable space group: C 2/C
;
_chemical_formula_sum "Si O2"
_cell_formula_units_Z 40
_cell_length_a 20.049571
_cell_length_b 20.706161
_cell_length_c 5.491123
_cell_angle_alpha 90.000000
_cell_angle_beta 63.566683
_cell_angle_gamma 90.000000
_cell_volume 2041.308606
_symmetry_space_group_name_H-M "C 2/C"
_symmetry_group_IT_number 15
_symmetry_cell_setting 'monoclinic'
loop_
_space_group_symop_operation_xyz
x,y,z
-x,y,1/2-z
-x,-y,-z
x,-y,1/2+z
1/2+x,1/2+y,z
1/2-x,1/2+y,1/2-z
1/2-x,1/2-y,-z
1/2+x,1/2-y,1/2+z
loop_
_atom_site_type_symbol
_atom_site_label
_atom_site_fract_x
_atom_site_fract_y
_atom_site_fract_z
Si Si1 0.194984 0.894418 0.302850
Si Si2 0.722445 0.634524 0.261902
Si Si3 0.846636 0.742371 0.077960
Si Si4 0.085977 0.230930 0.532927
Si Si5 0.030191 0.072597 0.956605
O O1 0.222483 0.911342 0.526883
O O2 0.180679 0.816894 0.359109
O O3 0.117612 0.928121 0.359993
O O4 0.242505 0.900293 0.981832
O O5 0.778812 0.694088 0.141413
O O6 0.639445 0.666592 0.428881
O O7 0.879404 0.730171 0.293758
O O8 0.901796 0.739292 0.756015
O O9 0.000000 0.224830 0.750000
O O10 0.000000 0.098475 0.750000
O O11 0.000000 0.107521 0.250000
O O12 0.000000 0.000000 0.000000
#
# Coordination Sequence:
#
# PCOD9256524 Si02
#       5
#     8   8   8   8   8
#     4  10  18  28  46  63  77 111 155 189 238 290
#     4  10  19  31  45  63  88 116 150 203 248 283
#     4  10  19  31  43  61  90 118 148 202 249 281
#     4  10  18  27  40  60  84 113 148 189 237 280
#     4  10  21  35  47  63  91 122 154 205 255 282
#
# _framework density 19.595272000000001
#
# number of rings (size 3 to 8) (size 9 to 14) (size 15 to 20)
#    0.000    2.000    0.000    7.800    0.000    9.600 
#    0.000    0.000    0.000    0.000    0.000    0.000 
#    0.000    0.000    0.000    0.000    0.000    0.000 
#
# Total GULP energy -111410.232565 kJ/mol
# GULP energy per Si atom -5570.511628 kJ/mol
# Density = 1.955067 g / cm^3
# Si number density = 19.595272 Si / 1000 Ang^3
#
#
#
# Elastic Constant Matrix: (Units=GPa)
#
#
# Indices 1 2 3 4 5 6 
#
# 1 82.9659 25.5352 37.6768 0.0000 27.7710 0.0000
# 2 25.5352 28.2612 6.0962 0.0000 -2.6467 0.0000
# 3 37.6768 6.0962 154.7780 0.0000 48.1296 0.0000
# 4 0.0000 0.0000 0.0000 4.3962 0.0000 -14.9861
# 5 27.7710 -2.6467 48.1296 0.0000 58.1534 0.0000
# 6 0.0000 0.0000 0.0000 -14.9861 0.0000 15.1734
#
#
#
# Elastic Compliance Matrix: (Units=1/GPa)
#
#
# Indices 1 2 3 4 5 6 
#
# 1 0.022846 -0.021350 -0.001381 0.000000 -0.010739 0.000000
# 2 -0.021350 0.056259 -0.001327 0.000000 0.013854 0.000000
# 3 -0.001381 -0.001327 0.008972 0.000000 -0.006826 0.000000
# 4 0.000000 0.000000 0.000000 -0.096109 0.000000 -0.094922
# 5 -0.010739 0.013854 -0.006826 0.000000 0.028604 0.000000
# 6 0.000000 0.000000 0.000000 -0.094922 0.000000 -0.027846
#
#
# Mechanical properties :
#
#
# Convention : Reuss Voigt Hill
#
# Bulk Modulus (GPa) = 25.02457 44.95794 34.99126
# Shear Modulus (GPa) = 92.31492 28.65773 60.48633
#
# Velocity S-wave (km/s) = 6.87118 3.82839 5.56191
# Velocity P-wave (km/s) = 8.70340 6.52190 7.69040
#
# Compressibility (1/GPa) = 0.03996072
#
# Stress axis : x y z
#
# Youngs Moduli (GPa) = 43.77138 17.77505 111.45724
#
# Poissons Ratio (x) = 0.37950 0.15393
# Poissons Ratio (y) = 0.93452 0.14788
# Poissons Ratio (z) = 0.06045 0.02358
#
# Static dielectric constant tensor:
#      x y z
#    x 1.749120 0.000000 0.079750 
#    y 0.000000 1.627220 0.000000 
#    z 0.079750 0.000000 1.853060 
# 
# From -- ./inp_files/7337.got.cif
#   From: 2010.05.17/outbox.cif.g08.bks.cpg/sg15_4_cif.got.tgz:7337.got - 2010.06.03 18:47:42.
