data_PCOD9256296
_publ_section_title
;
Structure prediction by ZEFSAII (Michael W. Deem and Ramdas Pophale) SiO2 
 PCOD9256296
Probable space group: C 2/C
;
_chemical_formula_sum "Si O2"
_cell_formula_units_Z 56
_cell_length_a 22.173435
_cell_length_b 9.437495
_cell_length_c 14.123895
_cell_angle_alpha 90.000000
_cell_angle_beta 74.539531
_cell_angle_gamma 90.000000
_cell_volume 2848.640828
_symmetry_space_group_name_H-M "C 2/C"
_symmetry_group_IT_number 15
_symmetry_cell_setting 'monoclinic'
loop_
_space_group_symop_operation_xyz
x,y,z
-x,y,1/2-z
-x,-y,-z
x,-y,1/2+z
1/2+x,1/2+y,z
1/2-x,1/2+y,1/2-z
1/2-x,1/2-y,-z
1/2+x,1/2-y,1/2+z
loop_
_atom_site_type_symbol
_atom_site_label
_atom_site_fract_x
_atom_site_fract_y
_atom_site_fract_z
Si Si1 0.568204 0.138705 0.940450
Si Si2 0.021607 0.629514 0.351646
Si Si3 0.752337 0.778562 0.887643
Si Si4 0.260690 0.167142 0.376878
Si Si5 0.649469 0.359712 0.786810
Si Si6 0.355204 0.681134 0.707450
Si Si7 0.694170 0.946229 0.468423
O O1 0.601207 0.264555 0.867164
O O2 0.623015 0.046827 0.967796
O O3 0.533852 0.032040 0.882290
O O4 0.526166 0.186698 0.047283
O O5 0.084668 0.721464 0.335092
O O6 0.000000 0.634288 0.250000
O O7 0.821780 0.771742 0.813666
O O8 0.697101 0.698350 0.853963
O O9 0.733201 0.945087 0.890773
O O10 0.750000 0.750000 0.000000
O O11 0.214118 0.113568 0.316762
O O12 0.319162 0.252468 0.311893
O O13 0.287279 0.041423 0.429772
O O14 0.215800 0.285447 0.442122
O O15 0.625521 0.518834 0.780520
#
# Coordination Sequence:
#
# PCOD9256296 Si02
#       7
#     8   8   8   8   8   8   8
#     4  10  23  43  63  88 122 165 213 259 304 368
#     4  11  24  43  67  88 116 166 223 262 305 362
#     4  11  22  35  60  96 130 161 199 249 314 383
#     4   9  19  31  61  87 124 160 192 244 308 379
#     4  10  22  39  60  92 132 162 198 256 319 367
#     4  11  21  39  61  91 125 160 205 259 307 370
#     4  10  17  36  57  89 118 158 203 242 302 368
#
# _framework density 19.658497000000001
#
# number of rings (size 3 to 8) (size 9 to 14) (size 15 to 20)
#    0.000    1.714    2.857    1.714    0.000    2.857 
#    2.571    0.714    0.000    0.000    0.000    0.000 
#    0.000    0.000    0.000    0.000    0.000    0.000 
#
# Total GULP energy -155883.163466 kJ/mol
# GULP energy per Si atom -5567.255838 kJ/mol
# Density = 1.961375 g / cm^3
# Si number density = 19.658497 Si / 1000 Ang^3
#
#
#
# Elastic Constant Matrix: (Units=GPa)
#
#
# Indices 1 2 3 4 5 6 
#
# 1 54.8601 15.9135 43.8686 0.0000 -11.2307 0.0000
# 2 15.9135 73.4266 32.5627 0.0000 -2.1370 0.0000
# 3 43.8686 32.5627 119.7176 0.0000 -7.5034 0.0000
# 4 0.0000 0.0000 0.0000 34.9701 0.0000 -4.6831
# 5 -11.2307 -2.1370 -7.5034 0.0000 28.5927 0.0000
# 6 0.0000 0.0000 0.0000 -4.6831 0.0000 25.8669
#
#
#
# Elastic Compliance Matrix: (Units=1/GPa)
#
#
# Indices 1 2 3 4 5 6 
#
# 1 0.027789 -0.001701 -0.009195 0.000000 0.008375 0.000000
# 2 -0.001701 0.015591 -0.003646 0.000000 -0.000460 0.000000
# 3 -0.009195 -0.003646 0.012679 0.000000 -0.000557 0.000000
# 4 0.000000 0.000000 0.000000 0.029306 0.000000 0.005306
# 5 0.008375 -0.000460 -0.000557 0.000000 0.038083 0.000000
# 6 0.000000 0.000000 0.000000 0.005306 0.000000 0.039620
#
#
# Mechanical properties :
#
#
# Convention : Reuss Voigt Hill
#
# Bulk Modulus (GPa) = 37.07200 48.07710 42.57455
# Shear Modulus (GPa) = 24.85759 28.26322 26.56041
#
# Velocity S-wave (km/s) = 3.55980 3.79583 3.67971
# Velocity P-wave (km/s) = 5.98290 6.61213 6.30537
#
# Compressibility (1/GPa) = 0.02697454
#
# Stress axis : x y z
#
# Youngs Moduli (GPa) = 35.98548 64.13814 78.86858
#
# Poissons Ratio (x) = 0.10910 0.72522
# Poissons Ratio (y) = 0.06121 0.28758
# Poissons Ratio (z) = 0.33090 0.23387
#
# Static dielectric constant tensor:
#      x y z
#    x 1.729270 0.000000 0.083990 
#    y 0.000000 1.731720 0.000000 
#    z 0.083990 0.000000 1.844390 
# 
# From -- ./inp_files/171788.got.cif
#   From: 2010.05.17/outbox.cif.g08.bks.cpg/sg15_86_cif.got.tgz:171788.got - 2010.06.03 18:47:42.
