data_PCOD9256255
_publ_section_title
;
Structure prediction by ZEFSAII (Michael W. Deem and Ramdas Pophale) SiO2 
 PCOD9256255
Probable space group: C 2/C
;
_chemical_formula_sum "Si O2"
_cell_formula_units_Z 64
_cell_length_a 29.697259
_cell_length_b 15.640653
_cell_length_c 19.292725
_cell_angle_alpha 90.000000
_cell_angle_beta 18.161296
_cell_angle_gamma 90.000000
_cell_volume 2793.135798
_symmetry_space_group_name_H-M "C 2/C"
_symmetry_group_IT_number 15
_symmetry_cell_setting 'monoclinic'
loop_
_space_group_symop_operation_xyz
x,y,z
-x,y,1/2-z
-x,-y,-z
x,-y,1/2+z
1/2+x,1/2+y,z
1/2-x,1/2+y,1/2-z
1/2-x,1/2-y,-z
1/2+x,1/2-y,1/2+z
loop_
_atom_site_type_symbol
_atom_site_label
_atom_site_fract_x
_atom_site_fract_y
_atom_site_fract_z
Si Si1 0.782036 0.920754 0.487522
Si Si2 0.836000 0.367200 0.697817
Si Si3 0.418670 0.204066 0.587929
Si Si4 0.285587 0.437353 0.329135
Si Si5 0.783032 0.454823 0.218619
Si Si6 0.971691 0.223444 0.866117
Si Si7 0.401497 0.370805 0.671435
Si Si8 0.033259 0.912597 0.776939
O O1 0.677929 0.902114 0.703009
O O2 0.724104 0.914682 0.494150
O O3 0.914911 0.854686 0.299017
O O4 0.847324 0.014185 0.405173
O O5 0.848560 0.451618 0.633272
O O6 0.974340 0.308129 0.503673
O O7 0.691245 0.314124 0.894146
O O8 0.335304 0.116938 0.695456
O O9 0.493874 0.225657 0.404417
O O10 0.332461 0.290113 0.733930
O O11 0.197095 0.421609 0.388759
O O12 0.321184 0.538928 0.278484
O O13 0.438792 0.388033 0.095046
O O14 0.610961 0.460775 0.484076
O O15 0.000000 0.266427 0.750000
O O16 0.419181 0.355843 0.727787
O O17 0.000000 0.874848 0.750000
#
# Coordination Sequence:
#
# PCOD9256255 Si02
#       8
#     8   8   8   8   8   8   8   8
#     4  10  17  36  64  86 108 144 197 238 273 325
#     4  11  23  38  58  82 120 156 186 231 279 345
#     4  12  25  36  53  88 127 148 182 228 298 346
#     4   9  18  35  62  82 108 143 201 234 268 331
#     4  11  22  37  58  82 114 158 187 227 283 343
#     4  10  21  36  58  86 117 149 185 234 282 334
#     4   9  19  34  56  86 112 142 184 246 277 324
#     4  10  17  35  64  85  98 144 205 240 266 324
#
# _framework density 22.913312999999999
#
# number of rings (size 3 to 8) (size 9 to 14) (size 15 to 20)
#    0.000    1.750    3.750    2.250    3.500    3.000 
#    0.000    0.625    0.000    0.000    0.000    0.000 
#    0.000    0.000    0.000    0.000    0.000    0.000 
#
# Total GULP energy -178785.353651 kJ/mol
# GULP energy per Si atom -5587.042302 kJ/mol
# Density = 2.286116 g / cm^3
# Si number density = 22.913313 Si / 1000 Ang^3
#
#
#
# Elastic Constant Matrix: (Units=GPa)
#
#
# Indices 1 2 3 4 5 6 
#
# 1 120.1741 12.9367 6.3595 0.0000 3.1813 0.0000
# 2 12.9367 61.8432 13.5460 0.0004 -15.5256 -0.0002
# 3 6.3595 13.5460 8.2072 0.0004 -1.6375 -0.0002
# 4 0.0000 0.0004 0.0004 16.4265 -0.0002 0.9921
# 5 3.1813 -15.5256 -1.6375 -0.0002 23.1527 0.0001
# 6 0.0000 -0.0002 -0.0002 0.9921 0.0001 25.0949
#
#
#
# Elastic Compliance Matrix: (Units=1/GPa)
#
#
# Indices 1 2 3 4 5 6 
#
# 1 0.008801 -0.001347 -0.005090 0.000000 -0.002473 0.000000
# 2 -0.001347 0.031183 -0.046877 0.000001 0.017780 0.000000
# 3 -0.005090 -0.046877 0.199847 -0.000004 -0.016600 0.000002
# 4 0.000000 0.000001 -0.000004 0.061023 0.000001 -0.002412
# 5 -0.002473 0.017780 -0.016600 0.000001 0.054280 0.000000
# 6 0.000000 0.000000 0.000002 -0.002412 0.000000 0.039944
#
#
# Mechanical properties :
#
#
# Convention : Reuss Voigt Hill
#
# Bulk Modulus (GPa) = 7.50730 28.43434 17.97082
# Shear Modulus (GPa) = 9.15573 23.42699 16.29136
#
# Velocity S-wave (km/s) = 2.00112 3.20100 2.66935
# Velocity P-wave (km/s) = 2.93646 5.10865 4.16660
#
# Compressibility (1/GPa) = 0.13320371
#
# Stress axis : x y z
#
# Youngs Moduli (GPa) = 113.62276 32.06862 5.00384
#
# Poissons Ratio (x) = 0.04319 0.02547
# Poissons Ratio (y) = 0.15304 0.23456
# Poissons Ratio (z) = 0.57833 1.50327
#
# Static dielectric constant tensor:
#      x y z
#    x 1.888970 0.000000 0.000010 
#    y 0.000000 1.842550 0.000000 
#    z 0.000010 0.000000 1.874880 
# 
# From -- ./inp_files/259437.got.cif
#   From: 2010.05.17/outbox.cif.g08.bks.cpg/sg15_130_cif.got.tgz:259437.got - 2010.06.03 18:47:42.
