data_PCOD9256474
_publ_section_title
;
Structure prediction by ZEFSAII (Michael W. Deem and Ramdas Pophale) SiO2 
 PCOD9256474
Probable space group: C 2/C
;
_chemical_formula_sum "Si O2"
_cell_formula_units_Z 52
_cell_length_a 12.321268
_cell_length_b 8.188831
_cell_length_c 28.901425
_cell_angle_alpha 90.000000
_cell_angle_beta 49.440271
_cell_angle_gamma 90.000000
_cell_volume 2215.414536
_symmetry_space_group_name_H-M "C 2/C"
_symmetry_group_IT_number 15
_symmetry_cell_setting 'monoclinic'
loop_
_space_group_symop_operation_xyz
x,y,z
-x,y,1/2-z
-x,-y,-z
x,-y,1/2+z
1/2+x,1/2+y,z
1/2-x,1/2+y,1/2-z
1/2-x,1/2-y,-z
1/2+x,1/2-y,1/2+z
loop_
_atom_site_type_symbol
_atom_site_label
_atom_site_fract_x
_atom_site_fract_y
_atom_site_fract_z
Si Si1 0.569830 0.277753 0.833271
Si Si2 0.828497 0.782793 0.788009
Si Si3 0.779614 0.982012 0.640609
Si Si4 0.000000 0.333184 0.750000
Si Si5 0.621597 0.444023 0.158433
Si Si6 0.157442 0.455714 0.974647
Si Si7 0.704079 0.909209 0.067045
O O1 0.689907 0.248638 0.761365
O O2 0.613313 0.346082 0.870853
O O3 0.490183 0.430942 0.832269
O O4 0.455138 0.136221 0.870779
O O5 0.714708 0.673292 0.847633
O O6 0.815536 0.965881 0.812824
O O7 0.000000 0.747009 0.750000
O O8 0.640499 0.940903 0.710432
O O9 0.767245 0.976667 0.589236
O O10 0.960967 0.215912 0.803460
O O11 0.740933 0.437100 0.086470
O O12 0.206884 0.262995 0.956947
O O13 0.187859 0.483336 0.020665
O O14 0.000000 0.500000 0.000000
#
# Coordination Sequence:
#
# PCOD9256474 Si02
#       7
#     8   8   8   4   8   8   8
#     4  10  21  37  69  92 131 182 220 273 352 399
#     4  10  17  41  62  86 137 181 210 276 347 397
#     4  12  23  39  66 102 137 178 223 284 352 408
#     4  12  24  38  62 104 140 164 230 292 338 414
#     4  10  21  44  64  96 139 172 232 290 332 415
#     4  10  22  44  78  92 129 198 233 272 356 410
#     4  10  22  48  67  99 140 174 236 291 324 420
#
# _framework density 23.471903999999999
#
# number of rings (size 3 to 8) (size 9 to 14) (size 15 to 20)
#    0.000    1.538    7.692    0.000    4.308    0.000 
#    5.538    7.692    0.000    0.000    0.000    0.000 
#    0.000    0.000    0.000    0.000    0.000    0.000 
#
# Total GULP energy -144954.430173 kJ/mol
# GULP energy per Si atom -5575.170391 kJ/mol
# Density = 2.341848 g / cm^3
# Si number density = 23.471904 Si / 1000 Ang^3
#
#
#
# Elastic Constant Matrix: (Units=GPa)
#
#
# Indices 1 2 3 4 5 6 
#
# 1 70.9102 12.2686 45.3361 0.0000 35.4691 0.0000
# 2 12.2686 38.6804 13.1370 0.0000 16.6497 0.0000
# 3 45.3361 13.1370 140.4176 0.0000 45.2636 0.0000
# 4 0.0000 0.0000 0.0000 29.9583 0.0000 6.7941
# 5 35.4691 16.6497 45.2636 0.0000 41.5839 0.0000
# 6 0.0000 0.0000 0.0000 6.7941 0.0000 15.0667
#
#
#
# Elastic Compliance Matrix: (Units=1/GPa)
#
#
# Indices 1 2 3 4 5 6 
#
# 1 0.024948 0.001230 -0.001774 0.000000 -0.019841 0.000000
# 2 0.001230 0.031565 0.001636 0.000000 -0.015468 0.000000
# 3 -0.001774 0.001636 0.011192 0.000000 -0.011323 0.000000
# 4 0.000000 0.000000 0.000000 0.037182 0.000000 -0.016767
# 5 -0.019841 -0.015468 -0.011323 0.000000 0.059489 0.000000
# 6 0.000000 0.000000 0.000000 -0.016767 0.000000 0.073932
#
#
# Mechanical properties :
#
#
# Convention : Reuss Voigt Hill
#
# Bulk Modulus (GPa) = 14.30866 43.49905 28.90386
# Shear Modulus (GPa) = 19.27362 29.27289 24.27326
#
# Velocity S-wave (km/s) = 2.86866 3.53533 3.21929
# Velocity P-wave (km/s) = 4.13298 5.93610 5.11463
#
# Compressibility (1/GPa) = 0.06988777
#
# Stress axis : x y z
#
# Youngs Moduli (GPa) = 40.08300 31.68038 89.35322
#
# Poissons Ratio (x) = -0.03896 0.15854
# Poissons Ratio (y) = -0.04930 -0.14617
# Poissons Ratio (z) = 0.07112 -0.05183
#
# Static dielectric constant tensor:
#      x y z
#    x 1.985030 0.000000 0.035640 
#    y 0.000000 1.974040 0.000000 
#    z 0.035640 0.000000 1.946510 
# 
# From -- ./inp_files/291476.got.cif
#   From: 2010.05.17/outbox.cif.g08.bks.cpg/sg15_146_cif.got.tgz:291476.got - 2010.06.03 18:47:42.
