data_PCOD9256995
_publ_section_title
;
Structure prediction by ZEFSAII (Michael W. Deem and Ramdas Pophale) SiO2 
 PCOD9256995
Probable space group: C 2/C
;
_chemical_formula_sum "Si O2"
_cell_formula_units_Z 52
_cell_length_a 8.518336
_cell_length_b 11.705505
_cell_length_c 19.918609
_cell_angle_alpha 90.000000
_cell_angle_beta 91.137247
_cell_angle_gamma 90.000000
_cell_volume 1985.721658
_symmetry_space_group_name_H-M "C 2/C"
_symmetry_group_IT_number 15
_symmetry_cell_setting 'monoclinic'
loop_
_space_group_symop_operation_xyz
x,y,z
-x,y,1/2-z
-x,-y,-z
x,-y,1/2+z
1/2+x,1/2+y,z
1/2-x,1/2+y,1/2-z
1/2-x,1/2-y,-z
1/2+x,1/2-y,1/2+z
loop_
_atom_site_type_symbol
_atom_site_label
_atom_site_fract_x
_atom_site_fract_y
_atom_site_fract_z
Si Si1 0.923652 0.144716 0.850215
Si Si2 0.848632 0.805135 0.622491
Si Si3 0.747659 0.626265 0.779382
Si Si4 0.659420 0.104274 0.468122
Si Si5 0.496811 0.339689 0.493240
Si Si6 0.971142 0.438007 0.388996
Si Si7 0.500000 0.678253 0.250000
O O1 0.822895 0.261480 0.859147
O O2 0.820279 0.081701 0.791885
O O3 0.096372 0.160971 0.821353
O O4 0.948323 0.096260 0.925054
O O5 0.935247 0.878746 0.681126
O O6 0.860510 0.849100 0.546869
O O7 0.950850 0.687009 0.617745
O O8 0.860419 0.545168 0.824052
O O9 0.854689 0.737610 0.766501
O O10 0.546262 0.214296 0.467342
O O11 0.841958 0.130940 0.467975
O O12 0.629559 0.057018 0.543281
O O13 0.607419 0.025737 0.406707
#
# Coordination Sequence:
#
# PCOD9256995 Si02
#       7
#     8   8   8   8   8   8   4
#     4  10  18  30  50  81 109 145 189 240 279 355
#     4   9  18  30  52  77 109 147 187 233 290 346
#     4   9  17  30  53  75 104 142 196 243 278 336
#     4   9  18  29  53  78 110 144 189 236 288 345
#     4  10  18  31  50  83 117 144 182 241 297 348
#     4   9  16  33  51  77 103 148 194 235 278 348
#     4   8  16  30  48  80  92 142 194 234 270 342
#
# _framework density 26.186955000000001
#
# number of rings (size 3 to 8) (size 9 to 14) (size 15 to 20)
#    0.000    2.769    1.538    0.462    2.154    0.000 
#    0.000    0.769    3.385   11.077    0.000    0.000 
#    0.000    0.000    0.000    0.000    0.000    0.000 
#
# Total GULP energy -145382.400964 kJ/mol
# GULP energy per Si atom -5591.630806 kJ/mol
# Density = 2.612735 g / cm^3
# Si number density = 26.186955 Si / 1000 Ang^3
#
#
#
# Elastic Constant Matrix: (Units=GPa)
#
#
# Indices 1 2 3 4 5 6 
#
# 1 124.9681 26.5543 68.8584 0.0000 13.4267 0.0000
# 2 26.5543 48.1129 35.4233 0.0000 6.3750 0.0000
# 3 68.8584 35.4233 200.8926 0.0000 24.5728 0.0000
# 4 0.0000 0.0000 0.0000 22.3109 0.0000 10.9937
# 5 13.4267 6.3750 24.5728 0.0000 57.9062 0.0000
# 6 0.0000 0.0000 0.0000 10.9937 0.0000 33.1488
#
#
#
# Elastic Compliance Matrix: (Units=1/GPa)
#
#
# Indices 1 2 3 4 5 6 
#
# 1 0.010409 -0.003544 -0.002843 0.000000 -0.000817 0.000000
# 2 -0.003544 0.025135 -0.003143 0.000000 -0.000612 0.000000
# 3 -0.002843 -0.003143 0.006733 0.000000 -0.001852 0.000000
# 4 0.000000 0.000000 0.000000 0.053577 0.000000 -0.017768
# 5 -0.000817 -0.000612 -0.001852 0.000000 0.018312 0.000000
# 6 0.000000 0.000000 0.000000 -0.017768 0.000000 0.036060
#
#
# Mechanical properties :
#
#
# Convention : Reuss Voigt Hill
#
# Bulk Modulus (GPa) = 43.06872 70.62731 56.84801
# Shear Modulus (GPa) = 28.24474 38.88234 33.56354
#
# Velocity S-wave (km/s) = 3.28774 3.85749 3.58395
# Velocity P-wave (km/s) = 5.55829 6.84611 6.23554
#
# Compressibility (1/GPa) = 0.02321871
#
# Stress axis : x y z
#
# Youngs Moduli (GPa) = 96.06697 39.78513 148.52259
#
# Poissons Ratio (x) = 0.14098 0.42228
# Poissons Ratio (y) = 0.34042 0.46675
# Poissons Ratio (z) = 0.27314 0.12503
#
# Static dielectric constant tensor:
#      x y z
#    x 2.006000 0.000000 -0.004220 
#    y 0.000000 2.149540 0.000000 
#    z -0.004220 0.000000 2.113800 
# 
# From -- ./inp_files/231271.got.cif
#   From: 2010.05.17/outbox.cif.g08.bks.cpg/sg15_116_cif.got.tgz:231271.got - 2010.06.03 18:47:42.
