data_PCOD9256746
_publ_section_title
;
Structure prediction by ZEFSAII (Michael W. Deem and Ramdas Pophale) SiO2 
 PCOD9256746
Probable space group: C 2/C
;
_chemical_formula_sum "Si O2"
_cell_formula_units_Z 48
_cell_length_a 13.042723
_cell_length_b 18.329135
_cell_length_c 10.119584
_cell_angle_alpha 90.000000
_cell_angle_beta 74.806552
_cell_angle_gamma 90.000000
_cell_volume 2334.646478
_symmetry_space_group_name_H-M "C 2/C"
_symmetry_group_IT_number 15
_symmetry_cell_setting 'monoclinic'
loop_
_space_group_symop_operation_xyz
x,y,z
-x,y,1/2-z
-x,-y,-z
x,-y,1/2+z
1/2+x,1/2+y,z
1/2-x,1/2+y,1/2-z
1/2-x,1/2-y,-z
1/2+x,1/2-y,1/2+z
loop_
_atom_site_type_symbol
_atom_site_label
_atom_site_fract_x
_atom_site_fract_y
_atom_site_fract_z
Si Si1 0.389284 0.576668 0.434524
Si Si2 0.636737 0.526916 0.333494
Si Si3 0.269097 0.700533 0.772412
Si Si4 0.792164 0.838053 0.536749
Si Si5 0.985227 0.240749 0.615676
Si Si6 0.602403 0.748684 0.122889
O O1 0.514891 0.556480 0.388982
O O2 0.341493 0.529544 0.329357
O O3 0.349588 0.546679 0.588225
O O4 0.373443 0.662164 0.407222
O O5 0.702275 0.587899 0.387341
O O6 0.239584 0.652422 0.909995
O O7 0.390326 0.686443 0.691090
O O8 0.194577 0.709439 0.670503
O O9 0.262402 0.779497 0.848721
O O10 0.910370 0.802752 0.468940
O O11 0.933604 0.280031 0.506857
O O12 0.000000 0.282374 0.750000
O O13 0.500000 0.750492 0.250000
#
# Coordination Sequence:
#
# PCOD9256746 Si02
#       6
#     8   8   8   8   8   8
#     4  10  18  29  47  69  93 140 168 193 241 300
#     4  10  18  31  46  68  99 135 168 195 242 298
#     4  10  20  30  52  70  97 139 171 202 250 294
#     4  10  18  35  49  71 106 135 164 208 250 291
#     4  10  20  31  48  73  96 132 171 201 243 294
#     4  12  18  35  49  69 106 138 164 205 251 293
#
# _framework density 20.559857000000001
#
# number of rings (size 3 to 8) (size 9 to 14) (size 15 to 20)
#    0.000    1.667    6.667    0.500    0.000    2.667 
#    3.000    0.000    0.000    0.000    0.000    0.000 
#    0.000   25.333    0.333    0.000    0.000    0.000 
#
# Total GULP energy -133681.690449 kJ/mol
# GULP energy per Si atom -5570.070435 kJ/mol
# Density = 2.051306 g / cm^3
# Si number density = 20.559857 Si / 1000 Ang^3
#
#
#
# Elastic Constant Matrix: (Units=GPa)
#
#
# Indices 1 2 3 4 5 6 
#
# 1 69.5898 17.3890 31.8151 0.0000 16.7337 0.0000
# 2 17.3890 45.9746 10.8052 0.0000 4.6731 0.0000
# 3 31.8151 10.8052 122.1513 0.0000 38.3754 0.0000
# 4 0.0000 0.0000 0.0000 17.2467 0.0000 10.0847
# 5 16.7337 4.6731 38.3754 0.0000 53.3778 0.0000
# 6 0.0000 0.0000 0.0000 10.0847 0.0000 9.5026
#
#
#
# Elastic Compliance Matrix: (Units=1/GPa)
#
#
# Indices 1 2 3 4 5 6 
#
# 1 0.017980 -0.005743 -0.003310 0.000000 -0.002755 0.000000
# 2 -0.005743 0.024067 -0.000693 0.000000 0.000192 0.000000
# 3 -0.003310 -0.000693 0.011322 0.000000 -0.007042 0.000000
# 4 0.000000 0.000000 0.000000 0.152808 0.000000 -0.162169
# 5 -0.002755 0.000192 -0.007042 0.000000 0.024644 0.000000
# 6 0.000000 0.000000 0.000000 -0.162169 0.000000 0.277338
#
#
# Mechanical properties :
#
#
# Convention : Reuss Voigt Hill
#
# Bulk Modulus (GPa) = 29.51830 39.74824 34.63327
# Shear Modulus (GPa) = 9.27741 27.87251 18.57496
#
# Velocity S-wave (km/s) = 2.12654 3.68595 3.00902
# Velocity P-wave (km/s) = 4.51863 6.12289 5.38088
#
# Compressibility (1/GPa) = 0.03387729
#
# Stress axis : x y z
#
# Youngs Moduli (GPa) = 55.61597 41.55115 88.32223
#
# Poissons Ratio (x) = 0.23862 0.29233
# Poissons Ratio (y) = 0.31940 0.06124
# Poissons Ratio (z) = 0.18408 0.02881
#
# Static dielectric constant tensor:
#      x y z
#    x 1.813610 0.000000 0.043330 
#    y 0.000000 1.737020 0.000000 
#    z 0.043330 0.000000 1.869900 
# 
# From -- ./inp_files/88407.got.cif
#   From: 2010.05.17/outbox.cif.g08.bks.cpg/sg15_45_cif.got.tgz:88407.got - 2010.06.03 18:47:42.
