data_PCOD9256268
_publ_section_title
;
Structure prediction by ZEFSAII (Michael W. Deem and Ramdas Pophale) SiO2 
 PCOD9256268
Probable space group: C 2/C
;
_chemical_formula_sum "Si O2"
_cell_formula_units_Z 64
_cell_length_a 15.589431
_cell_length_b 12.197920
_cell_length_c 23.681757
_cell_angle_alpha 90.000000
_cell_angle_beta 134.857663
_cell_angle_gamma 90.000000
_cell_volume 3192.208042
_symmetry_space_group_name_H-M "C 2/C"
_symmetry_group_IT_number 15
_symmetry_cell_setting 'monoclinic'
loop_
_space_group_symop_operation_xyz
x,y,z
-x,y,1/2-z
-x,-y,-z
x,-y,1/2+z
1/2+x,1/2+y,z
1/2-x,1/2+y,1/2-z
1/2-x,1/2-y,-z
1/2+x,1/2-y,1/2+z
loop_
_atom_site_type_symbol
_atom_site_label
_atom_site_fract_x
_atom_site_fract_y
_atom_site_fract_z
Si Si1 0.517295 0.405409 0.431374
Si Si2 0.269861 0.855912 0.611590
Si Si3 0.052533 0.350763 0.100571
Si Si4 0.898899 0.543544 0.072100
Si Si5 0.927380 0.313082 0.922032
Si Si6 0.337546 0.392104 0.111277
Si Si7 0.870617 0.891015 0.846437
Si Si8 0.773274 0.017194 0.185568
O O1 0.639039 0.374184 0.521478
O O2 0.419670 0.314859 0.404511
O O3 0.553825 0.391664 0.382791
O O4 0.470115 0.527498 0.419391
O O5 0.362109 0.930392 0.619023
O O6 0.308957 0.730819 0.618805
O O7 0.244470 0.881884 0.664968
O O8 0.078953 0.231231 0.137114
O O9 0.174352 0.422478 0.152898
O O10 0.954866 0.424207 0.088074
O O11 0.003169 0.333499 0.014159
O O12 0.997369 0.629261 0.093550
O O13 0.779925 0.564284 0.978225
O O14 0.802987 0.377546 0.870395
O O15 0.353271 0.469523 0.172341
O O16 0.836602 0.946184 0.771950
#
# Coordination Sequence:
#
# PCOD9256268 Si02
#       8
#     8   8   8   8   8   8   8   8
#     4  11  22  36  64  94 126 152 206 257 312 350
#     4  11  20  38  65  94 125 153 209 257 301 362
#     4  11  21  40  62  91 126 163 205 253 305 373
#     4  10  17  35  66  98 113 154 208 261 294 354
#     4  11  18  37  68  96 116 159 209 261 298 362
#     4  11  18  39  67  96 114 155 211 268 293 364
#     4  12  26  39  56  91 133 170 194 256 316 376
#     4  11  23  38  64  87 124 163 213 248 319 366
#
# _framework density 20.048819000000002
#
# number of rings (size 3 to 8) (size 9 to 14) (size 15 to 20)
#    0.000    1.000    7.500    1.875    1.750    0.500 
#    0.000    6.250    2.750    0.000    0.000    0.000 
#    0.000    0.000    0.000    0.000    0.000    0.000 
#
# Total GULP energy -178837.230107 kJ/mol
# GULP energy per Si atom -5588.663441 kJ/mol
# Density = 2.000319 g / cm^3
# Si number density = 20.048819 Si / 1000 Ang^3
#
#
#
# Elastic Constant Matrix: (Units=GPa)
#
#
# Indices 1 2 3 4 5 6 
#
# 1 68.3704 39.5922 5.3169 0.0000 -19.3007 0.0000
# 2 39.5922 114.8155 5.5212 0.0000 -6.3808 0.0000
# 3 5.3169 5.5212 48.3694 0.0000 -13.2010 0.0000
# 4 0.0000 0.0000 0.0000 17.6682 0.0000 -13.5700
# 5 -19.3007 -6.3808 -13.2010 0.0000 24.9861 0.0000
# 6 0.0000 0.0000 0.0000 -13.5700 0.0000 30.2873
#
#
#
# Elastic Compliance Matrix: (Units=1/GPa)
#
#
# Indices 1 2 3 4 5 6 
#
# 1 0.023751 -0.007334 0.003181 0.000000 0.018154 0.000000
# 2 -0.007334 0.011108 -0.001442 0.000000 -0.003590 0.000000
# 3 0.003181 -0.001442 0.024607 0.000000 0.015090 0.000000
# 4 0.000000 0.000000 0.000000 0.086294 0.000000 0.038664
# 5 0.018154 -0.003590 0.015090 0.000000 0.061101 0.000000
# 6 0.000000 0.000000 0.000000 0.038664 0.000000 0.050340
#
#
# Mechanical properties :
#
#
# Convention : Reuss Voigt Hill
#
# Bulk Modulus (GPa) = 20.71366 36.93509 28.82438
# Shear Modulus (GPa) = 17.57567 26.66330 22.11949
#
# Velocity S-wave (km/s) = 2.96403 3.65076 3.32517
# Velocity P-wave (km/s) = 4.69766 6.01941 5.39913
#
# Compressibility (1/GPa) = 0.04827731
#
# Stress axis : x y z
#
# Youngs Moduli (GPa) = 42.10398 90.02132 40.63802
#
# Poissons Ratio (x) = 0.66023 -0.12927
# Poissons Ratio (y) = 0.30880 0.05859
# Poissons Ratio (z) = -0.13393 0.12978
#
# Static dielectric constant tensor:
#      x y z
#    x 1.712240 0.000000 -0.000720 
#    y 0.000000 1.694200 0.000000 
#    z -0.000720 0.000000 1.743100 
# 
# From -- ./inp_files/248647.got.cif
#   From: 2010.05.17/outbox.cif.g08.bks.cpg/sg15_125_cif.got.tgz:248647.got - 2010.06.03 18:47:42.
