data_PCOD9256034
_publ_section_title
;
Structure prediction by ZEFSAII (Michael W. Deem and Ramdas Pophale) SiO2 
 PCOD9256034
Probable space group: C 2/C
;
_chemical_formula_sum "Si O2"
_cell_formula_units_Z 64
_cell_length_a 22.989737
_cell_length_b 13.954282
_cell_length_c 17.402942
_cell_angle_alpha 90.000000
_cell_angle_beta 31.980214
_cell_angle_gamma 90.000000
_cell_volume 2956.880519
_symmetry_space_group_name_H-M "C 2/C"
_symmetry_group_IT_number 15
_symmetry_cell_setting 'monoclinic'
loop_
_space_group_symop_operation_xyz
x,y,z
-x,y,1/2-z
-x,-y,-z
x,-y,1/2+z
1/2+x,1/2+y,z
1/2-x,1/2+y,1/2-z
1/2-x,1/2-y,-z
1/2+x,1/2-y,1/2+z
loop_
_atom_site_type_symbol
_atom_site_label
_atom_site_fract_x
_atom_site_fract_y
_atom_site_fract_z
Si Si1 0.142383 0.409846 0.161794
Si Si2 0.980015 0.885868 0.021943
Si Si3 0.103864 0.384457 0.028647
Si Si4 0.121814 0.605456 0.965162
Si Si5 0.195553 0.210954 0.672990
Si Si6 0.582210 0.867654 0.728370
Si Si7 0.719188 0.585383 0.850488
Si Si8 0.777513 0.860421 0.707071
O O1 0.150057 0.381353 0.063872
O O2 0.133057 0.526622 0.176568
O O3 0.241105 0.388855 0.109147
O O4 0.026727 0.363966 0.320868
O O5 0.100955 0.842315 0.894962
O O6 0.903197 0.849447 0.177782
O O7 0.900047 0.873096 0.038117
O O8 0.000000 0.000000 0.000000
O O9 0.105127 0.494041 0.998167
O O10 0.187177 0.340181 0.874075
O O11 0.202390 0.639210 0.943483
O O12 0.188870 0.623075 0.812482
O O13 0.000173 0.647258 0.105964
O O14 0.152364 0.271661 0.650381
O O15 0.243540 0.293531 0.674964
O O16 0.500000 0.871867 0.750000
O O17 0.720481 0.470489 0.828283
#
# Coordination Sequence:
#
# PCOD9256034 Si02
#       8
#     8   8   8   8   8   8   8   8
#     4  10  17  34  54  84 112 145 184 232 290 350
#     4   9  20  39  55  79 116 148 194 240 280 336
#     4   9  19  33  54  79 114 143 177 234 287 338
#     4   9  19  33  49  75 106 147 184 227 277 331
#     4  11  21  33  55  82 109 153 193 234 285 337
#     4  11  20  33  49  81 125 147 177 236 286 343
#     4   9  18  32  58  78 104 151 194 230 276 344
#     4  10  19  33  55  82 108 145 189 239 282 334
#
# _framework density 21.644432999999999
#
# number of rings (size 3 to 8) (size 9 to 14) (size 15 to 20)
#    0.000    2.250    3.750    1.500    1.750    2.000 
#    0.000    0.625    0.000    3.000    0.000    0.000 
#    0.000    0.000    0.000    0.000    0.000    0.000 
#
# Total GULP energy -178401.991608 kJ/mol
# GULP energy per Si atom -5575.062238 kJ/mol
# Density = 2.159517 g / cm^3
# Si number density = 21.644433 Si / 1000 Ang^3
#
#
#
# Elastic Constant Matrix: (Units=GPa)
#
#
# Indices 1 2 3 4 5 6 
#
# 1 92.8742 -11.4326 0.7054 0.0000 -17.2148 0.0000
# 2 -11.4326 42.7919 4.3357 0.0000 -9.5962 0.0000
# 3 0.7054 4.3357 62.2569 0.0000 -16.3850 0.0000
# 4 0.0000 0.0000 0.0000 15.6977 0.0000 -4.2303
# 5 -17.2148 -9.5962 -16.3850 0.0000 20.0728 0.0000
# 6 0.0000 0.0000 0.0000 -4.2303 0.0000 29.1810
#
#
#
# Elastic Compliance Matrix: (Units=1/GPa)
#
#
# Indices 1 2 3 4 5 6 
#
# 1 0.015806 0.008586 0.004930 0.000000 0.021685 0.000000
# 2 0.008586 0.031012 0.004563 0.000000 0.025914 0.000000
# 3 0.004930 0.004563 0.022130 0.000000 0.024474 0.000000
# 4 0.000000 0.000000 0.000000 0.066294 0.000000 0.009611
# 5 0.021685 0.025914 0.024474 0.000000 0.100782 0.000000
# 6 0.000000 0.000000 0.000000 0.009611 0.000000 0.035662
#
#
# Mechanical properties :
#
#
# Convention : Reuss Voigt Hill
#
# Bulk Modulus (GPa) = 9.51412 20.57111 15.04261
# Shear Modulus (GPa) = 18.48002 26.61126 22.54564
#
# Velocity S-wave (km/s) = 2.92516 3.51019 3.23094
# Velocity P-wave (km/s) = 3.97667 5.09444 4.56986
#
# Compressibility (1/GPa) = 0.10510690
#
# Stress axis : x y z
#
# Youngs Moduli (GPa) = 63.26647 32.24571 45.18763
#
# Poissons Ratio (x) = -0.27687 -0.22278
# Poissons Ratio (y) = -0.54322 -0.20620
# Poissons Ratio (z) = -0.31191 -0.14714
#
# Static dielectric constant tensor:
#      x y z
#    x 1.804140 0.000000 0.016050 
#    y 0.000000 1.854340 0.000000 
#    z 0.016050 0.000000 1.862480 
# 
# From -- ./inp_files/219693.got.cif
#   From: 2010.05.17/outbox.cif.g08.bks.cpg/sg15_110_cif.got.tgz:219693.got - 2010.06.03 18:47:42.
