data_PCOD9256574
_publ_section_title
;
Structure prediction by ZEFSAII (Michael W. Deem and Ramdas Pophale) SiO2 
 PCOD9256574
Probable space group: C 2/C
;
_chemical_formula_sum "Si O2"
_cell_formula_units_Z 56
_cell_length_a 27.662765
_cell_length_b 14.228347
_cell_length_c 8.606095
_cell_angle_alpha 90.000000
_cell_angle_beta 110.427603
_cell_angle_gamma 90.000000
_cell_volume 3174.304428
_symmetry_space_group_name_H-M "C 2/C"
_symmetry_group_IT_number 15
_symmetry_cell_setting 'monoclinic'
loop_
_space_group_symop_operation_xyz
x,y,z
-x,y,1/2-z
-x,-y,-z
x,-y,1/2+z
1/2+x,1/2+y,z
1/2-x,1/2+y,1/2-z
1/2-x,1/2-y,-z
1/2+x,1/2-y,1/2+z
loop_
_atom_site_type_symbol
_atom_site_label
_atom_site_fract_x
_atom_site_fract_y
_atom_site_fract_z
Si Si1 0.700714 0.624497 0.846250
Si Si2 0.696336 0.226560 0.581918
Si Si3 0.004336 0.606150 0.941833
Si Si4 0.722519 0.457102 0.070304
Si Si5 0.106914 0.614760 0.643795
Si Si6 0.384542 0.097075 0.474713
Si Si7 0.230094 0.622430 0.173547
O O1 0.762688 0.647336 0.925571
O O2 0.691052 0.608066 0.653892
O O3 0.677724 0.711074 0.915423
O O4 0.689993 0.528052 0.926139
O O5 0.649716 0.182692 0.622438
O O6 0.731627 0.296775 0.724469
O O7 0.951849 0.651349 0.947843
O O8 0.000000 0.604354 0.750000
O O9 0.000000 0.500000 0.000000
O O10 0.062745 0.639852 0.038243
O O11 0.755062 0.527368 0.216656
O O12 0.758003 0.397986 0.993849
O O13 0.114581 0.512564 0.573998
O O14 0.112976 0.602810 0.835702
O O15 0.329952 0.140768 0.366420
#
# Coordination Sequence:
#
# PCOD9256574 Si02
#       7
#     8   8   8   8   8   8   8
#     4   9  18  30  42  59  82 117 152 180 218 263
#     4  10  20  29  40  63  92 118 145 184 229 263
#     4   8  16  29  44  62  82 112 156 186 205 242
#     4   9  17  30  44  58  84 123 155 177 209 265
#     4  10  19  31  45  63  89 120 151 187 221 252
#     4  10  18  29  46  63  85 123 159 181 207 258
#     4  10  18  28  43  64  89 121 152 180 220 264
#
# _framework density 17.641660000000002
#
# number of rings (size 3 to 8) (size 9 to 14) (size 15 to 20)
#    0.000    2.571    0.000    3.429    0.000    4.571 
#    0.000    0.000    0.000    0.000    0.000    0.000 
#    0.000    0.000    0.000  351.000    0.000    0.143 
#
# Total GULP energy -156012.974987 kJ/mol
# GULP energy per Si atom -5571.891964 kJ/mol
# Density = 1.760151 g / cm^3
# Si number density = 17.641660 Si / 1000 Ang^3
#
#
#
# Elastic Constant Matrix: (Units=GPa)
#
#
# Indices 1 2 3 4 5 6 
#
# 1 134.7390 43.4795 40.6095 0.0000 -0.7108 0.0000
# 2 43.4795 58.7735 25.9954 0.0000 -4.9721 0.0000
# 3 40.6095 25.9954 55.9659 0.0000 -12.6041 0.0000
# 4 0.0000 0.0000 0.0000 19.2713 0.0000 0.1523
# 5 -0.7108 -4.9721 -12.6041 0.0000 25.1918 0.0000
# 6 0.0000 0.0000 0.0000 0.1523 0.0000 20.1158
#
#
#
# Elastic Compliance Matrix: (Units=1/GPa)
#
#
# Indices 1 2 3 4 5 6 
#
# 1 0.011179 -0.005818 -0.006308 0.000000 -0.003989 0.000000
# 2 -0.005818 0.024457 -0.006862 0.000000 0.001230 0.000000
# 3 -0.006308 -0.006862 0.028498 0.000000 0.012726 0.000000
# 4 0.000000 0.000000 0.000000 0.051894 0.000000 -0.000393
# 5 -0.003989 0.001230 0.012726 0.000000 0.046193 0.000000
# 6 0.000000 0.000000 0.000000 -0.000393 0.000000 0.049715
#
#
# Mechanical properties :
#
#
# Convention : Reuss Voigt Hill
#
# Bulk Modulus (GPa) = 38.22590 52.18303 45.20446
# Shear Modulus (GPa) = 19.33255 22.20869 20.77062
#
# Velocity S-wave (km/s) = 3.31395 3.55192 3.43499
# Velocity P-wave (km/s) = 6.02976 6.81653 6.43518
#
# Compressibility (1/GPa) = 0.02616027
#
# Stress axis : x y z
#
# Youngs Moduli (GPa) = 89.45208 40.88768 35.08982
#
# Poissons Ratio (x) = 0.23787 0.22134
# Poissons Ratio (y) = 0.52040 0.24078
# Poissons Ratio (z) = 0.56425 0.28056
#
# Static dielectric constant tensor:
#      x y z
#    x 1.623740 0.000000 -0.003810 
#    y 0.000000 1.620230 0.000000 
#    z -0.003810 0.000000 1.675740 
# 
# From -- ./inp_files/65933.got.cif
#   From: 2010.05.17/outbox.cif.g08.bks.cpg/sg15_33_cif.got.tgz:65933.got - 2010.06.03 18:47:42.
