data_PCOD9256555
_publ_section_title
;
Structure prediction by ZEFSAII (Michael W. Deem and Ramdas Pophale) SiO2 
 PCOD9256555
Probable space group: C 2/C
;
_chemical_formula_sum "Si O2"
_cell_formula_units_Z 56
_cell_length_a 22.961624
_cell_length_b 22.897895
_cell_length_c 7.034542
_cell_angle_alpha 90.000000
_cell_angle_beta 120.851936
_cell_angle_gamma 90.000000
_cell_volume 3175.206393
_symmetry_space_group_name_H-M "C 2/C"
_symmetry_group_IT_number 15
_symmetry_cell_setting 'monoclinic'
loop_
_space_group_symop_operation_xyz
x,y,z
-x,y,1/2-z
-x,-y,-z
x,-y,1/2+z
1/2+x,1/2+y,z
1/2-x,1/2+y,1/2-z
1/2-x,1/2-y,-z
1/2+x,1/2-y,1/2+z
loop_
_atom_site_type_symbol
_atom_site_label
_atom_site_fract_x
_atom_site_fract_y
_atom_site_fract_z
Si Si1 0.364855 0.203923 0.269703
Si Si2 0.837517 0.547429 0.586884
Si Si3 0.876356 0.427264 0.720838
Si Si4 0.728402 0.833542 0.528888
Si Si5 0.515896 0.789792 0.000905
Si Si6 0.522820 0.923911 0.076259
Si Si7 0.343215 0.740708 0.345617
O O1 0.367515 0.141191 0.162682
O O2 0.315893 0.191072 0.364908
O O3 0.441401 0.220523 0.466176
O O4 0.344738 0.251010 0.076401
O O5 0.827035 0.477711 0.557815
O O6 0.862217 0.568417 0.422318
O O7 0.783905 0.598288 0.539969
O O8 0.902600 0.551544 0.836383
O O9 0.957391 0.437743 0.838766
O O10 0.701897 0.793974 0.311971
O O11 0.804993 0.817088 0.711997
O O12 0.500000 0.793210 0.750000
O O13 0.535021 0.854598 0.097663
O O14 0.581319 0.748372 0.115247
O O15 0.500000 0.941198 0.250000
#
# Coordination Sequence:
#
# PCOD9256555 Si02
#       7
#     8   8   8   8   8   8   8
#     4   9  19  33  45  66  89 117 151 190 230 272
#     4  10  18  28  39  58  85 115 153 190 215 264
#     4   9  19  26  41  60  81 117 151 183 233 247
#     4  10  20  31  46  64  88 124 155 186 233 266
#     4   9  17  27  44  64  83 114 154 190 226 262
#     4   9  16  27  38  56  84 116 148 188 219 255
#     4  10  19  31  47  65  86 120 158 189 226 272
#
# _framework density 17.636648000000001
#
# number of rings (size 3 to 8) (size 9 to 14) (size 15 to 20)
#    0.000    2.571    1.429    1.714    2.000    1.143 
#    0.000    2.143    0.000    0.000    0.000    0.000 
#    0.000    0.000    0.000   63.000    4.000   10.286 
#
# Total GULP energy -155916.972188 kJ/mol
# GULP energy per Si atom -5568.463292 kJ/mol
# Density = 1.759651 g / cm^3
# Si number density = 17.636648 Si / 1000 Ang^3
#
#
#
# Elastic Constant Matrix: (Units=GPa)
#
#
# Indices 1 2 3 4 5 6 
#
# 1 46.3631 11.3879 10.8244 0.0000 8.8806 0.0000
# 2 11.3879 63.2219 20.9298 0.0000 18.8842 0.0000
# 3 10.8244 20.9298 45.9598 0.0000 10.9764 0.0000
# 4 0.0000 0.0000 0.0000 31.9543 0.0000 7.0178
# 5 8.8806 18.8842 10.9764 0.0000 22.7451 0.0000
# 6 0.0000 0.0000 0.0000 7.0178 0.0000 20.8674
#
#
#
# Elastic Compliance Matrix: (Units=1/GPa)
#
#
# Indices 1 2 3 4 5 6 
#
# 1 0.023956 -0.001148 -0.003519 0.000000 -0.006702 0.000000
# 2 -0.001148 0.022726 -0.006420 0.000000 -0.015322 0.000000
# 3 -0.003519 -0.006420 0.027024 0.000000 -0.006338 0.000000
# 4 0.000000 0.000000 0.000000 0.033790 0.000000 -0.011364
# 5 -0.006702 -0.015322 -0.006338 0.000000 0.062362 0.000000
# 6 0.000000 0.000000 0.000000 -0.011364 0.000000 0.051743
#
#
# Mechanical properties :
#
#
# Convention : Reuss Voigt Hill
#
# Bulk Modulus (GPa) = 19.40502 26.86990 23.13746
# Shear Modulus (GPa) = 19.16059 22.60687 20.88373
#
# Velocity S-wave (km/s) = 3.29965 3.58412 3.44482
# Velocity P-wave (km/s) = 5.05405 5.69177 5.38236
#
# Compressibility (1/GPa) = 0.05153306
#
# Stress axis : x y z
#
# Youngs Moduli (GPa) = 41.74294 44.00244 37.00441
#
# Poissons Ratio (x) = 0.05053 0.13020
# Poissons Ratio (y) = 0.04794 0.23755
# Poissons Ratio (z) = 0.14687 0.28247
#
# Static dielectric constant tensor:
#      x y z
#    x 1.666980 0.000000 -0.028100 
#    y 0.000000 1.631400 0.000000 
#    z -0.028100 0.000000 1.685130 
# 
# From -- ./inp_files/50990.got.cif
#   From: 2010.05.17/outbox.cif.g08.bks.cpg/sg15_26_cif.got.tgz:50990.got - 2010.06.03 18:47:42.
