data_PCOD9256695
_publ_section_title
;
Structure prediction by ZEFSAII (Michael W. Deem and Ramdas Pophale) SiO2 
 PCOD9256695
Probable space group: C 2/C
;
_chemical_formula_sum "Si O2"
_cell_formula_units_Z 48
_cell_length_a 13.329908
_cell_length_b 21.037069
_cell_length_c 12.571833
_cell_angle_alpha 90.000000
_cell_angle_beta 143.203137
_cell_angle_gamma 90.000000
_cell_volume 2111.655811
_symmetry_space_group_name_H-M "C 2/C"
_symmetry_group_IT_number 15
_symmetry_cell_setting 'monoclinic'
loop_
_space_group_symop_operation_xyz
x,y,z
-x,y,1/2-z
-x,-y,-z
x,-y,1/2+z
1/2+x,1/2+y,z
1/2-x,1/2+y,1/2-z
1/2-x,1/2-y,-z
1/2+x,1/2-y,1/2+z
loop_
_atom_site_type_symbol
_atom_site_label
_atom_site_fract_x
_atom_site_fract_y
_atom_site_fract_z
Si Si1 0.547244 0.168176 0.953183
Si Si2 0.613320 0.395036 0.760814
Si Si3 0.698267 0.471708 0.616446
Si Si4 0.869006 0.917956 0.291699
Si Si5 0.665243 0.689720 0.588588
Si Si6 0.029458 0.440297 0.945069
O O1 0.633158 0.178804 0.758205
O O2 0.502905 0.124659 0.017568
O O3 0.709604 0.130977 0.043444
O O4 0.623748 0.236004 0.050497
O O5 0.500000 0.431544 0.750000
O O6 0.664710 0.435031 0.700926
O O7 0.479129 0.341219 0.609320
O O8 0.549677 0.444807 0.420445
O O9 0.682936 0.544719 0.640865
O O10 0.882030 0.452422 0.737445
O O11 0.869458 0.844881 0.327430
O O12 0.724780 0.936827 0.088168
O O13 0.000000 0.500000 0.000000
#
# Coordination Sequence:
#
# PCOD9256695 Si02
#       6
#     8   8   8   8   8   8
#     4  10  18  29  40  54  78 104 134 163 189 224
#     4  10  20  30  40  54  76 107 139 163 184 215
#     4   8  14  26  40  55  70  91 125 157 193 224
#     4   8  14  24  41  56  70  91 120 156 196 233
#     4  10  18  29  40  56  77 102 132 158 196 227
#     4   8  14  24  39  55  70  93 123 155 195 230
#
# _framework density 22.730976999999999
#
# number of rings (size 3 to 8) (size 9 to 14) (size 15 to 20)
#    0.000    3.000    1.667    0.000    0.000    1.333 
#    0.000    0.000    0.000    0.000    0.000    0.000 
#    0.000    0.000    0.000   24.000    8.000    0.000 
#
# Total GULP energy -133617.074730 kJ/mol
# GULP energy per Si atom -5567.378114 kJ/mol
# Density = 2.267924 g / cm^3
# Si number density = 22.730977 Si / 1000 Ang^3
#
#
#
# Elastic Constant Matrix: (Units=GPa)
#
#
# Indices 1 2 3 4 5 6 
#
# 1 81.0826 24.3118 41.4361 0.0000 25.6152 0.0000
# 2 24.3118 79.9107 18.6573 0.0000 1.3484 0.0000
# 3 41.4361 18.6573 204.8688 0.0000 42.2522 0.0000
# 4 0.0000 0.0000 0.0000 37.9116 0.0000 12.0618
# 5 25.6152 1.3484 42.2522 0.0000 36.9733 0.0000
# 6 0.0000 0.0000 0.0000 12.0618 0.0000 4.0789
#
#
#
# Elastic Compliance Matrix: (Units=1/GPa)
#
#
# Indices 1 2 3 4 5 6 
#
# 1 0.017807 -0.005034 -0.000833 0.000000 -0.011201 0.000000
# 2 -0.005034 0.014245 -0.001166 0.000000 0.004301 0.000000
# 3 -0.000833 -0.001166 0.006579 0.000000 -0.006898 0.000000
# 4 0.000000 0.000000 0.000000 0.445740 0.000000 -1.318098
# 5 -0.011201 0.004301 -0.006898 0.000000 0.042533 0.000000
# 6 0.000000 0.000000 0.000000 -1.318098 0.000000 4.142916
#
#
# Mechanical properties :
#
#
# Convention : Reuss Voigt Hill
#
# Bulk Modulus (GPa) = 40.70949 59.40805 50.05877
# Shear Modulus (GPa) = 1.06563 34.55656 17.81109
#
# Velocity S-wave (km/s) = 0.68543 3.90326 2.80225
# Velocity P-wave (km/s) = 4.30982 6.81952 5.70440
#
# Compressibility (1/GPa) = 0.02456430
#
# Stress axis : x y z
#
# Youngs Moduli (GPa) = 56.15841 70.19910 152.00968
#
# Poissons Ratio (x) = 0.35338 0.12662
# Poissons Ratio (y) = 0.28270 0.17726
# Poissons Ratio (z) = 0.04678 0.08186
#
# Static dielectric constant tensor:
#      x y z
#    x 1.719840 0.000000 -0.071100 
#    y 0.000000 1.828310 0.000000 
#    z -0.071100 0.000000 1.928930 
# 
# From -- ./inp_files/62916.got.cif
#   From: 2010.05.17/outbox.cif.g08.bks.cpg/sg15_32_cif.got.tgz:62916.got - 2010.06.03 18:47:42.
