data_PCOD9256734
_publ_section_title
;
Structure prediction by ZEFSAII (Michael W. Deem and Ramdas Pophale) SiO2 
 PCOD9256734
Probable space group: C 2/C
;
_chemical_formula_sum "Si O2"
_cell_formula_units_Z 64
_cell_length_a 29.886867
_cell_length_b 17.464951
_cell_length_c 14.457665
_cell_angle_alpha 90.000000
_cell_angle_beta 30.773871
_cell_angle_gamma 90.000000
_cell_volume 3861.178035
_symmetry_space_group_name_H-M "C 2/C"
_symmetry_group_IT_number 15
_symmetry_cell_setting 'monoclinic'
loop_
_space_group_symop_operation_xyz
x,y,z
-x,y,1/2-z
-x,-y,-z
x,-y,1/2+z
1/2+x,1/2+y,z
1/2-x,1/2+y,1/2-z
1/2-x,1/2-y,-z
1/2+x,1/2-y,1/2+z
loop_
_atom_site_type_symbol
_atom_site_label
_atom_site_fract_x
_atom_site_fract_y
_atom_site_fract_z
Si Si1 0.054969 0.702168 0.559503
Si Si2 0.239843 0.460032 0.355123
Si Si3 0.913124 0.352211 0.942890
Si Si4 0.638166 0.974702 0.722095
Si Si5 0.340009 0.321434 0.246211
Si Si6 0.837926 0.775836 0.454418
Si Si7 0.472560 0.124670 0.532803
Si Si8 0.275397 0.904232 0.753961
O O1 0.100570 0.775932 0.432165
O O2 0.134766 0.641102 0.433163
O O3 0.000000 0.714995 0.750000
O O4 0.990347 0.670270 0.594809
O O5 0.171026 0.406156 0.421403
O O6 0.191077 0.484713 0.535035
O O7 0.320259 0.406841 0.245515
O O8 0.255849 0.534855 0.265801
O O9 0.902038 0.277174 0.899556
O O10 0.000000 0.394263 0.750000
O O11 0.929110 0.334773 0.022203
O O12 0.699093 0.949328 0.698019
O O13 0.585157 0.050265 0.842540
O O14 0.568406 0.906082 0.832970
O O15 0.244863 0.280305 0.416850
O O16 0.371385 0.308357 0.296456
O O17 0.798055 0.843387 0.587302
#
# Coordination Sequence:
#
# PCOD9256734 Si02
#       8
#     8   8   8   8   8   8   8   8
#     4  10  20  33  51  73 104 138 170 200 258 314
#     4  11  19  30  52  73 103 134 171 208 252 300
#     4  11  19  28  48  78 103 129 165 211 255 296
#     4  10  18  29  45  73 109 134 162 198 249 315
#     4   9  18  32  52  72  96 138 176 208 245 303
#     4   9  18  32  50  72 102 133 173 211 248 297
#     4  10  19  29  45  75 109 135 158 202 257 308
#     4  10  19  32  50  74 103 138 168 205 250 303
#
# _framework density 16.575251999999999
#
# number of rings (size 3 to 8) (size 9 to 14) (size 15 to 20)
#    0.000    2.000    3.750    1.500    3.500    0.500 
#    0.000    0.000    2.750    3.750    0.000    2.625 
#    0.000    0.000    0.000    0.000    0.000    0.000 
#
# Total GULP energy -178362.715861 kJ/mol
# GULP energy per Si atom -5573.834871 kJ/mol
# Density = 1.653753 g / cm^3
# Si number density = 16.575252 Si / 1000 Ang^3
#
#
#
# Elastic Constant Matrix: (Units=GPa)
#
#
# Indices 1 2 3 4 5 6 
#
# 1 92.6805 36.6488 36.1938 0.0000 26.9318 0.0000
# 2 36.6488 62.3301 16.5725 0.0000 10.6640 0.0000
# 3 36.1938 16.5725 37.0708 0.0000 17.5942 0.0000
# 4 0.0000 0.0000 0.0000 13.2437 0.0000 1.2330
# 5 26.9318 10.6640 17.5942 0.0000 23.0611 0.0000
# 6 0.0000 0.0000 0.0000 1.2330 0.0000 17.0881
#
#
#
# Elastic Compliance Matrix: (Units=1/GPa)
#
#
# Indices 1 2 3 4 5 6 
#
# 1 0.022469 -0.007689 -0.012123 0.000000 -0.013435 0.000000
# 2 -0.007689 0.021017 -0.002411 0.000000 0.001100 0.000000
# 3 -0.012123 -0.002411 0.051169 0.000000 -0.023766 0.000000
# 4 0.000000 0.000000 0.000000 0.076018 0.000000 -0.005485
# 5 -0.013435 0.001100 -0.023766 0.000000 0.076677 0.000000
# 6 0.000000 0.000000 0.000000 -0.005485 0.000000 0.058916
#
#
# Mechanical properties :
#
#
# Convention : Reuss Voigt Hill
#
# Bulk Modulus (GPa) = 19.91668 41.21239 30.56454
# Shear Modulus (GPa) = 13.60732 17.52299 15.56515
#
# Velocity S-wave (km/s) = 2.86832 3.25495 3.06773
# Velocity P-wave (km/s) = 4.79705 6.24853 5.57027
#
# Compressibility (1/GPa) = 0.05020916
#
# Stress axis : x y z
#
# Youngs Moduli (GPa) = 44.50605 47.57947 19.54299
#
# Poissons Ratio (x) = 0.36585 0.23693
# Poissons Ratio (y) = 0.34222 0.04711
# Poissons Ratio (z) = 0.53956 0.11470
#
# Static dielectric constant tensor:
#      x y z
#    x 1.576470 0.000000 0.000020 
#    y 0.000000 1.570950 0.000000 
#    z 0.000020 0.000000 1.553910 
# 
# From -- ./inp_files/182750.got.cif
#   From: 2010.05.17/outbox.cif.g08.bks.cpg/sg15_92_cif.got.tgz:182750.got - 2010.06.03 18:47:42.
