data_PCOD9256733
_publ_section_title
;
Structure prediction by ZEFSAII (Michael W. Deem and Ramdas Pophale) SiO2 
 PCOD9256733
Probable space group: C 2/C
;
_chemical_formula_sum "Si O2"
_cell_formula_units_Z 64
_cell_length_a 13.567668
_cell_length_b 10.100592
_cell_length_c 19.670922
_cell_angle_alpha 90.000000
_cell_angle_beta 75.957069
_cell_angle_gamma 90.000000
_cell_volume 2615.168086
_symmetry_space_group_name_H-M "C 2/C"
_symmetry_group_IT_number 15
_symmetry_cell_setting 'monoclinic'
loop_
_space_group_symop_operation_xyz
x,y,z
-x,y,1/2-z
-x,-y,-z
x,-y,1/2+z
1/2+x,1/2+y,z
1/2-x,1/2+y,1/2-z
1/2-x,1/2-y,-z
1/2+x,1/2-y,1/2+z
loop_
_atom_site_type_symbol
_atom_site_label
_atom_site_fract_x
_atom_site_fract_y
_atom_site_fract_z
Si Si1 0.288207 0.760478 0.697776
Si Si2 0.669018 0.250580 0.913961
Si Si3 0.133926 0.535334 0.572072
Si Si4 0.445330 0.528727 0.827621
Si Si5 0.238739 0.967639 0.814108
Si Si6 0.708396 0.034048 0.406831
Si Si7 0.438472 0.233860 0.818930
Si Si8 0.404616 0.748695 0.931047
O O1 0.304477 0.873708 0.752545
O O2 0.306971 0.604015 0.709036
O O3 0.328482 0.831158 0.622557
O O4 0.168113 0.755475 0.701830
O O5 0.664308 0.357767 0.856895
O O6 0.787344 0.248923 0.921741
O O7 0.649109 0.099533 0.896489
O O8 0.602554 0.289229 0.989449
O O9 0.203676 0.514530 0.627264
O O10 0.195358 0.546343 0.490916
O O11 0.074332 0.663697 0.606683
O O12 0.066829 0.402824 0.577716
O O13 0.500000 0.579414 0.750000
O O14 0.323367 0.500051 0.861433
O O15 0.482309 0.378537 0.824858
O O16 0.466831 0.642451 0.878775
O O17 0.500000 0.157178 0.750000
#
# Coordination Sequence:
#
# PCOD9256733 Si02
#       8
#     8   8   8   8   8   8   8   8
#     4  10  20  30  48  74 103 133 162 205 254 303
#     4   8  14  26  44  64  95 123 150 200 247 294
#     4   9  18  31  52  75  97 128 167 218 257 289
#     4   9  16  25  40  64  95 128 155 193 242 293
#     4  10  18  29  45  73 101 129 162 202 259 301
#     4   9  17  31  48  73  99 125 168 210 254 296
#     4   9  19  33  47  70 100 134 170 205 250 298
#     4   8  14  25  42  68  92 120 158 196 246 291
#
# _framework density 24.472615000000001
#
# number of rings (size 3 to 8) (size 9 to 14) (size 15 to 20)
#    0.000    3.000    0.000    3.000    0.000    7.000 
#    0.000    0.000    0.000    0.000    0.000   80.500 
#    0.000    0.000    0.000    0.000    0.000    0.000 
#
# Total GULP energy -178205.689832 kJ/mol
# GULP energy per Si atom -5568.927807 kJ/mol
# Density = 2.441691 g / cm^3
# Si number density = 24.472615 Si / 1000 Ang^3
#
#
#
# Elastic Constant Matrix: (Units=GPa)
#
#
# Indices 1 2 3 4 5 6 
#
# 1 57.8446 -22.6534 15.0067 0.0000 4.0231 0.0000
# 2 -22.6534 157.3241 91.7326 0.0000 3.6246 0.0000
# 3 15.0067 91.7326 172.1997 0.0000 -8.2856 0.0000
# 4 0.0000 0.0000 0.0000 55.4938 0.0000 1.3016
# 5 4.0231 3.6246 -8.2856 0.0000 17.3834 0.0000
# 6 0.0000 0.0000 0.0000 1.3016 0.0000 -0.5923
#
#
#
# Elastic Compliance Matrix: (Units=1/GPa)
#
#
# Indices 1 2 3 4 5 6 
#
# 1 0.022285 0.007005 -0.006133 0.000000 -0.009541 0.000000
# 2 0.007005 0.011757 -0.007235 0.000000 -0.007521 0.000000
# 3 -0.006133 -0.007235 0.010580 0.000000 0.007971 0.000000
# 4 0.000000 0.000000 0.000000 0.017137 0.000000 0.037662
# 5 -0.009541 -0.007521 0.007971 0.000000 0.065101 0.000000
# 6 0.000000 0.000000 0.000000 0.037662 0.000000 -1.605694
#
#
# Mechanical properties :
#
#
# Convention : Reuss Voigt Hill
#
# Bulk Modulus (GPa) = 31.35281 61.72669 46.53975
# Shear Modulus (GPa) = -3.43530 34.67582 15.62026
#
# Velocity S-wave (km/s) = -1.18608 3.76829 2.52915
# Velocity P-wave (km/s) = 3.31112 6.64912 5.25235
#
# Compressibility (1/GPa) = 0.03189507
#
# Stress axis : x y z
#
# Youngs Moduli (GPa) = 44.87238 85.05564 94.52209
#
# Poissons Ratio (x) = -0.59578 0.57966
# Poissons Ratio (y) = -0.31431 0.68391
# Poissons Ratio (z) = 0.27518 0.61541
#
# Static dielectric constant tensor:
#      x y z
#    x 2.075270 0.000000 0.039920 
#    y 0.000000 2.043390 0.000000 
#    z 0.039920 0.000000 1.994280 
# 
# From -- ./inp_files/252254.got.cif
#   From: 2010.05.17/outbox.cif.g08.bks.cpg/sg15_127_cif.got.tgz:252254.got - 2010.06.03 18:47:42.
