data_PCOD9256715
_publ_section_title
;
Structure prediction by ZEFSAII (Michael W. Deem and Ramdas Pophale) SiO2 
 PCOD9256715
Probable space group: C 2/C
;
_chemical_formula_sum "Si O2"
_cell_formula_units_Z 52
_cell_length_a 23.114119
_cell_length_b 26.655395
_cell_length_c 8.903728
_cell_angle_alpha 90.000000
_cell_angle_beta 37.203964
_cell_angle_gamma 90.000000
_cell_volume 3316.969215
_symmetry_space_group_name_H-M "C 2/C"
_symmetry_group_IT_number 15
_symmetry_cell_setting 'monoclinic'
loop_
_space_group_symop_operation_xyz
x,y,z
-x,y,1/2-z
-x,-y,-z
x,-y,1/2+z
1/2+x,1/2+y,z
1/2-x,1/2+y,1/2-z
1/2-x,1/2-y,-z
1/2+x,1/2-y,1/2+z
loop_
_atom_site_type_symbol
_atom_site_label
_atom_site_fract_x
_atom_site_fract_y
_atom_site_fract_z
Si Si1 0.703122 0.177842 0.282605
Si Si2 0.601395 0.977766 0.345660
Si Si3 0.000000 0.396648 0.750000
Si Si4 0.903347 0.693577 0.282751
Si Si5 0.382883 0.931486 0.491587
Si Si6 0.394973 0.713527 0.017320
Si Si7 0.937334 0.249139 0.244363
O O1 0.687377 0.191005 0.139733
O O2 0.659057 0.122815 0.392900
O O3 0.641346 0.216403 0.511980
O O4 0.810725 0.181976 0.117518
O O5 0.574626 0.933551 0.515379
O O6 0.648400 0.952774 0.104846
O O7 0.500000 0.000000 0.500000
O O8 0.648000 0.025895 0.326376
O O9 0.942157 0.359881 0.758581
O O10 0.886772 0.730747 0.457591
O O11 0.987129 0.716841 0.005242
O O12 0.500000 0.927760 0.250000
O O13 0.500000 0.695559 0.750000
O O14 0.391447 0.716443 0.205512
O O15 0.000000 0.224762 0.250000
#
# Coordination Sequence:
#
# PCOD9256715 Si02
#       7
#     8   8   4   8   8   8   8
#     4  11  20  30  50  71  97 133 170 196 242 289
#     4  10  18  29  44  67 100 131 156 189 233 297
#     4  12  16  28  50  66 102 138 156 182 242 292
#     4  10  19  30  49  71 101 130 165 190 241 292
#     4  10  19  31  45  70 101 129 157 193 240 291
#     4  10  20  35  47  69  98 131 168 210 236 279
#     4   9  17  32  48  68  95 128 158 199 239 292
#
# _framework density 15.676962
#
# number of rings (size 3 to 8) (size 9 to 14) (size 15 to 20)
#    0.000    1.846    4.615    5.077    0.000    0.000 
#    0.000    0.000    0.000    0.000    0.000    1.077 
#    0.000    0.000    0.000    0.000    0.000    0.000 
#
# Total GULP energy -144853.944183 kJ/mol
# GULP energy per Si atom -5571.305545 kJ/mol
# Density = 1.564128 g / cm^3
# Si number density = 15.676962 Si / 1000 Ang^3
#
#
#
# Elastic Constant Matrix: (Units=GPa)
#
#
# Indices 1 2 3 4 5 6 
#
# 1 125.7432 27.0485 29.4994 0.0000 1.4468 0.0000
# 2 27.0485 43.1816 11.5749 0.0000 -8.4724 0.0000
# 3 29.4994 11.5749 20.9580 0.0000 0.5136 0.0000
# 4 0.0000 0.0000 0.0000 5.6003 0.0000 3.2978
# 5 1.4468 -8.4724 0.5136 0.0000 22.4466 0.0000
# 6 0.0000 0.0000 0.0000 3.2978 0.0000 18.2714
#
#
#
# Elastic Compliance Matrix: (Units=1/GPa)
#
#
# Indices 1 2 3 4 5 6 
#
# 1 0.012415 -0.004107 -0.015158 0.000000 -0.002003 0.000000
# 2 -0.004107 0.031324 -0.011822 0.000000 0.012358 0.000000
# 3 -0.015158 -0.011822 0.075707 0.000000 -0.005218 0.000000
# 4 0.000000 0.000000 0.000000 0.199798 0.000000 -0.036061
# 5 -0.002003 0.012358 -0.005218 0.000000 0.049463 0.000000
# 6 0.000000 0.000000 0.000000 -0.036061 0.000000 0.061239
#
#
# Mechanical properties :
#
#
# Convention : Reuss Voigt Hill
#
# Bulk Modulus (GPa) = 17.46040 36.23650 26.84845
# Shear Modulus (GPa) = 9.78068 17.38098 13.58083
#
# Velocity S-wave (km/s) = 2.50049 3.33332 2.94648
# Velocity P-wave (km/s) = 4.41570 6.16274 5.36086
#
# Compressibility (1/GPa) = 0.05727247
#
# Stress axis : x y z
#
# Youngs Moduli (GPa) = 80.54654 31.92418 13.20881
#
# Poissons Ratio (x) = 0.13110 0.20022
# Poissons Ratio (y) = 0.33078 0.15616
# Poissons Ratio (z) = 1.22091 0.37742
#
# Static dielectric constant tensor:
#      x y z
#    x 1.589700 0.000000 0.025560 
#    y 0.000000 1.513610 0.000000 
#    z 0.025560 0.000000 1.523630 
# 
# From -- ./inp_files/41741.got.cif
#   From: 2010.05.17/outbox.cif.g08.bks.cpg/sg15_21_cif.got.tgz:41741.got - 2010.06.03 18:47:42.
