data_PCOD9256945
_publ_section_title
;
Structure prediction by ZEFSAII (Michael W. Deem and Ramdas Pophale) SiO2 
 PCOD9256945
Probable space group: C 2/C
;
_chemical_formula_sum "Si O2"
_cell_formula_units_Z 24
_cell_length_a 24.986236
_cell_length_b 7.513447
_cell_length_c 7.811761
_cell_angle_alpha 90.000000
_cell_angle_beta 141.266620
_cell_angle_gamma 90.000000
_cell_volume 917.599650
_symmetry_space_group_name_H-M "C 2/C"
_symmetry_group_IT_number 15
_symmetry_cell_setting 'monoclinic'
loop_
_space_group_symop_operation_xyz
x,y,z
-x,y,1/2-z
-x,-y,-z
x,-y,1/2+z
1/2+x,1/2+y,z
1/2-x,1/2+y,1/2-z
1/2-x,1/2-y,-z
1/2+x,1/2-y,1/2+z
loop_
_atom_site_type_symbol
_atom_site_label
_atom_site_fract_x
_atom_site_fract_y
_atom_site_fract_z
Si Si1 0.241930 0.623103 0.141138
Si Si2 0.622837 0.100939 0.135813
Si Si3 0.575353 0.271439 0.333660
O O1 0.337173 0.615579 0.452652
O O2 0.410213 0.910754 0.517546
O O3 0.250000 0.750000 0.000000
O O4 0.200526 0.445144 0.960623
O O5 0.558007 0.207439 0.095166
O O6 0.669159 0.187930 0.090647
O O7 0.500000 0.365764 0.250000
#
# Coordination Sequence:
#
# PCOD9256945 Si02
#       3
#     8   8   8
#     4   9  18  32  50  70  93 127 160 188 231 286
#     4   9  18  32  50  69  96 127 157 189 231 283
#     4  10  18  30  49  75  97 120 156 199 233 267
#
# _framework density 26.155197999999999
#
# number of rings (size 3 to 8) (size 9 to 14) (size 15 to 20)
#    0.000    2.667    0.000    2.000    0.000    0.000 
#    0.000    1.667    0.000    0.000    0.000    0.000 
#    0.000    0.000    0.000    0.000    0.000    0.000 
#
# Total GULP energy -67018.281784 kJ/mol
# GULP energy per Si atom -5584.856815 kJ/mol
# Density = 2.609567 g / cm^3
# Si number density = 26.155198 Si / 1000 Ang^3
#
#
#
# Elastic Constant Matrix: (Units=GPa)
#
#
# Indices 1 2 3 4 5 6 
#
# 1 246.4214 12.0229 26.4721 0.0000 2.3491 0.0000
# 2 12.0229 50.5171 6.7040 0.0000 0.1440 0.0000
# 3 26.4721 6.7040 43.9921 0.0000 14.0254 0.0000
# 4 0.0000 0.0000 0.0000 31.2467 0.0000 -1.8507
# 5 2.3491 0.1440 14.0254 0.0000 43.2279 0.0000
# 6 0.0000 0.0000 0.0000 -1.8507 0.0000 19.7080
#
#
#
# Elastic Compliance Matrix: (Units=1/GPa)
#
#
# Indices 1 2 3 4 5 6 
#
# 1 0.004379 -0.000681 -0.002740 0.000000 0.000653 0.000000
# 2 -0.000681 0.020352 -0.002991 0.000000 0.000940 0.000000
# 3 -0.002740 -0.002991 0.027645 0.000000 -0.008811 0.000000
# 4 0.000000 0.000000 0.000000 0.032182 0.000000 0.003022
# 5 0.000653 0.000940 -0.008811 0.000000 0.025953 0.000000
# 6 0.000000 0.000000 0.000000 0.003022 0.000000 0.051025
#
#
# Mechanical properties :
#
#
# Convention : Reuss Voigt Hill
#
# Bulk Modulus (GPa) = 25.28314 47.92542 36.60428
# Shear Modulus (GPa) = 26.66044 38.55195 32.60620
#
# Velocity S-wave (km/s) = 3.19614 3.84340 3.53461
# Velocity P-wave (km/s) = 4.82783 6.16918 5.53926
#
# Compressibility (1/GPa) = 0.03955205
#
# Stress axis : x y z
#
# Youngs Moduli (GPa) = 228.34199 49.13627 36.17310
#
# Poissons Ratio (x) = 0.03344 0.09911
# Poissons Ratio (y) = 0.15540 0.10821
# Poissons Ratio (z) = 0.62562 0.14699
#
# Static dielectric constant tensor:
#      x y z
#    x 2.108830 0.000000 0.052250 
#    y 0.000000 2.114100 0.000000 
#    z 0.052250 0.000000 2.180340 
# 
# From -- ./inp_files/6332.got.cif
#   From: 2010.05.17/outbox.cif.g08.bks.cpg/sg15_4_cif.got.tgz:6332.got - 2010.06.03 18:47:42.
