data_PCOD9256753
_publ_section_title
;
Structure prediction by ZEFSAII (Michael W. Deem and Ramdas Pophale) SiO2 
 PCOD9256753
Probable space group: C 2/C
;
_chemical_formula_sum "Si O2"
_cell_formula_units_Z 48
_cell_length_a 23.753319
_cell_length_b 16.778617
_cell_length_c 9.240331
_cell_angle_alpha 90.000000
_cell_angle_beta 129.152299
_cell_angle_gamma 90.000000
_cell_volume 2855.835717
_symmetry_space_group_name_H-M "C 2/C"
_symmetry_group_IT_number 15
_symmetry_cell_setting 'monoclinic'
loop_
_space_group_symop_operation_xyz
x,y,z
-x,y,1/2-z
-x,-y,-z
x,-y,1/2+z
1/2+x,1/2+y,z
1/2-x,1/2+y,1/2-z
1/2-x,1/2-y,-z
1/2+x,1/2-y,1/2+z
loop_
_atom_site_type_symbol
_atom_site_label
_atom_site_fract_x
_atom_site_fract_y
_atom_site_fract_z
Si Si1 0.732391 0.164316 0.542871
Si Si2 0.665171 0.367629 0.032762
Si Si3 0.615099 0.337952 0.648069
Si Si4 0.051852 0.862767 0.100332
Si Si5 0.335297 0.446735 0.025025
Si Si6 0.079191 0.710635 0.350031
O O1 0.750000 0.250000 0.500000
O O2 0.769891 0.162648 0.760861
O O3 0.772390 0.096975 0.513772
O O4 0.645952 0.155955 0.412501
O O5 0.592987 0.361301 0.014901
O O6 0.676447 0.460586 0.015801
O O7 0.654174 0.324083 0.863028
O O8 0.534124 0.371379 0.547642
O O9 0.655743 0.401930 0.613244
O O10 0.604564 0.259482 0.533402
O O11 0.091128 0.928853 0.264102
O O12 0.067717 0.779871 0.210920
O O13 0.000000 0.674033 0.250000
#
# Coordination Sequence:
#
# PCOD9256753 Si02
#       6
#     8   8   8   8   8   8
#     4  11  19  38  56  70 102 146 172 211 267 312
#     4  11  21  29  48  79 108 134 172 216 258 300
#     4  10  18  29  47  77 107 136 177 207 240 312
#     4   9  18  31  48  70 110 147 166 195 256 317
#     4  10  20  32  48  74 105 144 175 203 255 314
#     4   9  18  35  55  74  96 137 180 210 256 314
#
# _framework density 16.807687999999999
#
# number of rings (size 3 to 8) (size 9 to 14) (size 15 to 20)
#    0.000    2.000    5.000    4.000    0.000    4.667 
#    0.000    0.000    0.000    1.000    0.000    0.000 
#    0.000    0.000    0.000    0.000    0.000    0.000 
#
# Total GULP energy -133897.080255 kJ/mol
# GULP energy per Si atom -5579.045011 kJ/mol
# Density = 1.676943 g / cm^3
# Si number density = 16.807688 Si / 1000 Ang^3
#
#
#
# Elastic Constant Matrix: (Units=GPa)
#
#
# Indices 1 2 3 4 5 6 
#
# 1 100.5222 19.1981 42.8030 0.0000 11.1803 0.0000
# 2 19.1981 23.2914 18.1828 0.0000 8.2982 0.0000
# 3 42.8030 18.1828 89.0105 0.0000 -8.9587 0.0000
# 4 0.0000 0.0000 0.0000 11.7337 0.0000 1.5447
# 5 11.1803 8.2982 -8.9587 0.0000 38.1792 0.0000
# 6 0.0000 0.0000 0.0000 1.5447 0.0000 11.0316
#
#
#
# Elastic Compliance Matrix: (Units=1/GPa)
#
#
# Indices 1 2 3 4 5 6 
#
# 1 0.014048 -0.005215 -0.006135 0.000000 -0.004420 0.000000
# 2 -0.005215 0.061371 -0.011489 0.000000 -0.014508 0.000000
# 3 -0.006135 -0.011489 0.017374 0.000000 0.008370 0.000000
# 4 0.000000 0.000000 0.000000 0.086825 0.000000 -0.012158
# 5 -0.004420 -0.014508 0.008370 0.000000 0.032604 0.000000
# 6 0.000000 0.000000 0.000000 -0.012158 0.000000 0.092351
#
#
# Mechanical properties :
#
#
# Convention : Reuss Voigt Hill
#
# Bulk Modulus (GPa) = 21.22469 41.46578 31.34523
# Shear Modulus (GPa) = 13.66285 21.03158 17.34722
#
# Velocity S-wave (km/s) = 2.85422 3.54122 3.21612
# Velocity P-wave (km/s) = 4.84948 6.43775 5.69921
#
# Compressibility (1/GPa) = 0.04711495
#
# Stress axis : x y z
#
# Youngs Moduli (GPa) = 71.18523 16.29437 57.55697
#
# Poissons Ratio (x) = 0.08498 0.35310
# Poissons Ratio (y) = 0.37125 0.66127
# Poissons Ratio (z) = 0.43670 0.18721
#
# Static dielectric constant tensor:
#      x y z
#    x 1.595460 0.000000 -0.002620 
#    y 0.000000 1.543450 0.000000 
#    z -0.002620 0.000000 1.584060 
# 
# From -- ./inp_files/48023.got.cif
#   From: 2010.05.17/outbox.cif.g08.bks.cpg/sg15_25_cif.got.tgz:48023.got - 2010.06.03 18:47:42.
