data_PCOD9256260
_publ_section_title
;
Structure prediction by ZEFSAII (Michael W. Deem and Ramdas Pophale) SiO2 
 PCOD9256260
Probable space group: C 2/C
;
_chemical_formula_sum "Si O2"
_cell_formula_units_Z 56
_cell_length_a 15.838557
_cell_length_b 9.408152
_cell_length_c 24.916859
_cell_angle_alpha 90.000000
_cell_angle_beta 46.762072
_cell_angle_gamma 90.000000
_cell_volume 2704.904400
_symmetry_space_group_name_H-M "C 2/C"
_symmetry_group_IT_number 15
_symmetry_cell_setting 'monoclinic'
loop_
_space_group_symop_operation_xyz
x,y,z
-x,y,1/2-z
-x,-y,-z
x,-y,1/2+z
1/2+x,1/2+y,z
1/2-x,1/2+y,1/2-z
1/2-x,1/2-y,-z
1/2+x,1/2-y,1/2+z
loop_
_atom_site_type_symbol
_atom_site_label
_atom_site_fract_x
_atom_site_fract_y
_atom_site_fract_z
Si Si1 0.612565 0.938188 0.920947
Si Si2 0.036120 0.577575 0.296291
Si Si3 0.873572 0.950382 0.535719
Si Si4 0.189122 0.917650 0.821303
Si Si5 0.518249 0.313875 0.387812
Si Si6 0.558203 0.838711 0.364888
Si Si7 0.822332 0.751205 0.021838
O O1 0.573472 0.800338 0.904669
O O2 0.638853 0.060816 0.867100
O O3 0.699738 0.878309 0.927518
O O4 0.500000 0.000000 0.000000
O O5 0.174802 0.564866 0.243408
O O6 0.998259 0.723609 0.342430
O O7 0.996435 0.440785 0.348475
O O8 0.000000 0.572758 0.250000
O O9 0.824420 0.874633 0.609529
O O10 0.901241 0.868107 0.468645
O O11 0.805028 0.095682 0.556080
O O12 0.000000 0.000000 0.500000
O O13 0.137389 0.788441 0.809134
O O14 0.109698 0.055912 0.843908
O O15 0.456249 0.766987 0.444649
O O16 0.750000 0.750000 0.000000
#
# Coordination Sequence:
#
# PCOD9256260 Si02
#       7
#     8   8   8   8   8   8   8
#     4   9  17  33  56  86 118 153 189 235 293 358
#     4  11  26  41  57  87 128 156 197 260 311 349
#     4  10  17  35  65  88 114 154 203 245 284 360
#     4  11  20  40  66  87 112 164 213 238 292 374
#     4  10  19  39  66  83 115 163 206 240 290 369
#     4  10  21  39  61  83 118 162 201 238 297 370
#     4  11  20  33  59  97 123 145 190 254 306 350
#
# _framework density 20.703136000000001
#
# number of rings (size 3 to 8) (size 9 to 14) (size 15 to 20)
#    0.000    1.714    5.714    1.714    2.000    0.000 
#    2.571    1.429    0.000    0.000    0.000    0.000 
#    0.000    0.000    0.000    0.000    0.000    0.000 
#
# Total GULP energy -156057.302814 kJ/mol
# GULP energy per Si atom -5573.475100 kJ/mol
# Density = 2.065601 g / cm^3
# Si number density = 20.703136 Si / 1000 Ang^3
#
#
#
# Elastic Constant Matrix: (Units=GPa)
#
#
# Indices 1 2 3 4 5 6 
#
# 1 64.9391 33.0099 2.7767 0.0000 30.0577 -0.0001
# 2 33.0099 131.5668 17.1041 0.0000 21.5002 0.0000
# 3 2.7767 17.1041 63.8215 0.0000 14.6230 0.0000
# 4 0.0000 0.0000 0.0000 24.3303 0.0000 8.1595
# 5 30.0577 21.5002 14.6230 0.0000 37.9687 0.0000
# 6 -0.0001 0.0000 0.0000 8.1595 0.0000 15.6930
#
#
#
# Elastic Compliance Matrix: (Units=1/GPa)
#
#
# Indices 1 2 3 4 5 6 
#
# 1 0.026830 -0.003937 0.004654 0.000000 -0.020803 0.000000
# 2 -0.003937 0.009048 -0.001967 0.000000 -0.001249 0.000000
# 3 0.004654 -0.001967 0.018187 0.000000 -0.009575 0.000000
# 4 0.000000 0.000000 0.000000 0.049781 0.000000 -0.025884
# 5 -0.020803 -0.001249 -0.009575 0.000000 0.047201 0.000000
# 6 0.000000 0.000000 0.000000 -0.025884 0.000000 0.077181
#
#
# Mechanical properties :
#
#
# Convention : Reuss Voigt Hill
#
# Bulk Modulus (GPa) = 19.39283 40.67876 30.03579
# Shear Modulus (GPa) = 20.16790 29.42751 24.79771
#
# Velocity S-wave (km/s) = 3.12452 3.77424 3.46464
# Velocity P-wave (km/s) = 4.73331 6.21968 5.52669
#
# Compressibility (1/GPa) = 0.05156545
#
# Stress axis : x y z
#
# Youngs Moduli (GPa) = 37.27135 110.51617 54.98333
#
# Poissons Ratio (x) = 0.43512 -0.25591
# Poissons Ratio (y) = 0.14674 0.10818
# Poissons Ratio (z) = -0.17347 0.21744
#
# Static dielectric constant tensor:
#      x y z
#    x 1.739840 0.000000 -0.001930 
#    y 0.000000 1.818070 0.000000 
#    z -0.001930 0.000000 1.851820 
# 
# From -- ./inp_files/273029.got.cif
#   From: 2010.05.17/outbox.cif.g08.bks.cpg/sg15_137_cif.got.tgz:273029.got - 2010.06.03 18:47:42.
