data_PCOD9256694
_publ_section_title
;
Structure prediction by ZEFSAII (Michael W. Deem and Ramdas Pophale) SiO2 
 PCOD9256694
Probable space group: C 2/C
;
_chemical_formula_sum "Si O2"
_cell_formula_units_Z 48
_cell_length_a 30.758475
_cell_length_b 12.817140
_cell_length_c 7.367135
_cell_angle_alpha 90.000000
_cell_angle_beta 60.785218
_cell_angle_gamma 90.000000
_cell_volume 2534.938305
_symmetry_space_group_name_H-M "C 2/C"
_symmetry_group_IT_number 15
_symmetry_cell_setting 'monoclinic'
loop_
_space_group_symop_operation_xyz
x,y,z
-x,y,1/2-z
-x,-y,-z
x,-y,1/2+z
1/2+x,1/2+y,z
1/2-x,1/2+y,1/2-z
1/2-x,1/2-y,-z
1/2+x,1/2-y,1/2+z
loop_
_atom_site_type_symbol
_atom_site_label
_atom_site_fract_x
_atom_site_fract_y
_atom_site_fract_z
Si Si1 0.215999 0.404835 0.626887
Si Si2 0.334049 0.594041 0.805723
Si Si3 0.464178 0.581047 0.178969
Si Si4 0.606551 0.584654 0.473760
Si Si5 0.190314 0.229805 0.965883
Si Si6 0.799479 0.360872 0.242387
O O1 0.275812 0.406135 0.475762
O O2 0.205098 0.331473 0.818359
O O3 0.193549 0.357700 0.487519
O O4 0.195170 0.520124 0.704220
O O5 0.367435 0.634398 0.904226
O O6 0.350451 0.476129 0.724967
O O7 0.341458 0.661425 0.608575
O O8 0.500000 0.639416 0.250000
O O9 0.426961 0.507937 0.369528
O O10 0.500000 0.500000 0.000000
O O11 0.430833 0.638106 0.093937
O O12 0.241092 0.165736 0.893573
O O13 0.171678 0.276142 0.194406
#
# Coordination Sequence:
#
# PCOD9256694 Si02
#       6
#     8   8   8   8   8   8
#     4  11  19  33  46  60  84 119 158 205 238 270
#     4  10  18  29  39  62  89 108 150 197 230 262
#     4   8  14  27  43  60  84 112 148 169 198 282
#     4   9  17  26  42  64  85 117 143 179 235 246
#     4  10  21  32  43  62  82 117 158 197 248 269
#     4  10  19  31  46  59  77 108 160 195 242 277
#
# _framework density 18.935372000000001
#
# number of rings (size 3 to 8) (size 9 to 14) (size 15 to 20)
#    0.000    2.333    1.667    4.000    0.000    0.000 
#    9.000    0.000    0.000    0.000    0.000    0.000 
#    0.000    0.000    0.000    0.000    0.000  310.000 
#
# Total GULP energy -133827.244481 kJ/mol
# GULP energy per Si atom -5576.135187 kJ/mol
# Density = 1.889227 g / cm^3
# Si number density = 18.935372 Si / 1000 Ang^3
#
#
#
# Elastic Constant Matrix: (Units=GPa)
#
#
# Indices 1 2 3 4 5 6 
#
# 1 122.9060 19.9769 28.4965 0.0000 49.3356 0.0000
# 2 19.9769 52.4100 1.9444 0.0000 13.2168 0.0000
# 3 28.4965 1.9444 60.1581 0.0000 22.2398 0.0000
# 4 0.0000 0.0000 0.0000 27.7514 0.0000 13.2657
# 5 49.3356 13.2168 22.2398 0.0000 44.6123 0.0000
# 6 0.0000 0.0000 0.0000 13.2657 0.0000 16.5916
#
#
#
# Elastic Compliance Matrix: (Units=1/GPa)
#
#
# Indices 1 2 3 4 5 6 
#
# 1 0.014847 -0.001770 -0.001348 0.000000 -0.015222 0.000000
# 2 -0.001770 0.021021 0.002130 0.000000 -0.005332 0.000000
# 3 -0.001348 0.002130 0.020687 0.000000 -0.009453 0.000000
# 4 0.000000 0.000000 0.000000 0.058327 0.000000 -0.046635
# 5 -0.015222 -0.005332 -0.009453 0.000000 0.045541 0.000000
# 6 0.000000 0.000000 0.000000 -0.046635 0.000000 0.097558
#
#
# Mechanical properties :
#
#
# Convention : Reuss Voigt Hill
#
# Bulk Modulus (GPa) = 18.32223 37.36776 27.84499
# Shear Modulus (GPa) = 17.97585 30.12813 24.05199
#
# Velocity S-wave (km/s) = 3.08446 3.99319 3.56787
# Velocity P-wave (km/s) = 4.73100 6.40609 5.63118
#
# Compressibility (1/GPa) = 0.05457852
#
# Stress axis : x y z
#
# Youngs Moduli (GPa) = 67.35359 47.57225 48.33872
#
# Poissons Ratio (x) = 0.08422 0.06517
# Poissons Ratio (y) = 0.11924 -0.10297
# Poissons Ratio (z) = 0.09080 -0.10134
#
# Static dielectric constant tensor:
#      x y z
#    x 1.716170 0.000000 0.044080 
#    y 0.000000 1.697520 0.000000 
#    z 0.044080 0.000000 1.728120 
# 
# From -- ./inp_files/68840.got.cif
#   From: 2010.05.17/outbox.cif.g08.bks.cpg/sg15_35_cif.got.tgz:68840.got - 2010.06.03 18:47:42.
