data_PCOD9256304
_publ_section_title
;
Structure prediction by ZEFSAII (Michael W. Deem and Ramdas Pophale) SiO2 
 PCOD9256304
Probable space group: C 2/C
;
_chemical_formula_sum "Si O2"
_cell_formula_units_Z 64
_cell_length_a 12.087829
_cell_length_b 29.967591
_cell_length_c 14.686267
_cell_angle_alpha 90.000000
_cell_angle_beta 144.192461
_cell_angle_gamma 90.000000
_cell_volume 3112.542036
_symmetry_space_group_name_H-M "C 2/C"
_symmetry_group_IT_number 15
_symmetry_cell_setting 'monoclinic'
loop_
_space_group_symop_operation_xyz
x,y,z
-x,y,1/2-z
-x,-y,-z
x,-y,1/2+z
1/2+x,1/2+y,z
1/2-x,1/2+y,1/2-z
1/2-x,1/2-y,-z
1/2+x,1/2-y,1/2+z
loop_
_atom_site_type_symbol
_atom_site_label
_atom_site_fract_x
_atom_site_fract_y
_atom_site_fract_z
Si Si1 0.155178 0.276002 0.146340
Si Si2 0.453212 0.508723 0.072145
Si Si3 0.561436 0.924947 0.527134
Si Si4 0.426898 0.299911 0.598197
Si Si5 0.973180 0.344316 0.134969
Si Si6 0.452305 0.774595 0.621071
Si Si7 0.537717 0.397631 0.666645
Si Si8 0.209416 0.515980 0.560372
O O1 0.365843 0.257634 0.271722
O O2 0.014178 0.237011 0.089043
O O3 0.144831 0.313720 0.216051
O O4 0.074364 0.295899 0.996979
O O5 0.409993 0.561646 0.048980
O O6 0.626419 0.495594 0.255840
O O7 0.284988 0.482542 0.008424
O O8 0.500000 0.500000 0.000000
O O9 0.550434 0.882584 0.454638
O O10 0.750985 0.914517 0.710095
O O11 0.389837 0.938359 0.477233
O O12 0.583737 0.971098 0.485197
O O13 0.500000 0.290213 0.750000
O O14 0.205440 0.310805 0.468630
O O15 0.504047 0.347598 0.613782
O O16 0.000000 0.366173 0.250000
O O17 0.500000 0.798295 0.750000
O O18 0.250000 0.750000 0.500000
O O19 0.500000 0.396084 0.750000
#
# Coordination Sequence:
#
# PCOD9256304 Si02
#       8
#     8   8   8   8   8   8   8   8
#     4  11  21  36  60  88 120 155 197 265 308 357
#     4  10  18  34  61  84 115 155 194 254 309 362
#     4  10  19  36  57  80 116 161 190 245 292 370
#     4  11  20  35  59  85 119 160 195 234 311 388
#     4  12  23  34  54  94 133 151 192 250 315 377
#     4   9  20  39  62  78 104 155 219 251 298 362
#     4  10  17  36  58  80 113 157 204 234 289 374
#     4   9  19  36  58  83 116 153 203 241 302 368
#
# _framework density 20.561972000000001
#
# number of rings (size 3 to 8) (size 9 to 14) (size 15 to 20)
#    0.000    1.750    5.000    2.250    0.000    2.000 
#    0.000    5.000   16.500    0.000    0.000    0.000 
#    0.000    0.000    0.000    0.000    0.000    0.000 
#
# Total GULP energy -178169.119257 kJ/mol
# GULP energy per Si atom -5567.784977 kJ/mol
# Density = 2.051517 g / cm^3
# Si number density = 20.561972 Si / 1000 Ang^3
#
#
#
# Elastic Constant Matrix: (Units=GPa)
#
#
# Indices 1 2 3 4 5 6 
#
# 1 137.0270 43.8891 34.2190 0.0000 -9.5263 0.0000
# 2 43.8891 54.6177 8.5145 0.0000 6.7956 0.0000
# 3 34.2190 8.5145 38.8279 0.0000 -4.0174 0.0000
# 4 0.0000 0.0000 0.0000 15.2705 0.0000 6.5429
# 5 -9.5263 6.7956 -4.0174 0.0000 37.4074 0.0000
# 6 0.0000 0.0000 0.0000 6.5429 0.0000 12.7812
#
#
#
# Elastic Compliance Matrix: (Units=1/GPa)
#
#
# Indices 1 2 3 4 5 6 
#
# 1 0.012784 -0.009403 -0.008788 0.000000 0.004020 0.000000
# 2 -0.009403 0.026463 0.001758 0.000000 -0.007013 0.000000
# 3 -0.008788 0.001758 0.033219 0.000000 0.001010 0.000000
# 4 0.000000 0.000000 0.000000 0.083885 0.000000 -0.042942
# 5 0.004020 -0.007013 0.001010 0.000000 0.029139 0.000000
# 6 0.000000 0.000000 0.000000 -0.042942 0.000000 0.100222
#
#
# Mechanical properties :
#
#
# Convention : Reuss Voigt Hill
#
# Bulk Modulus (GPa) = 25.25288 44.85752 35.05520
# Shear Modulus (GPa) = 15.07030 22.68184 18.87607
#
# Velocity S-wave (km/s) = 2.71019 3.32489 3.03315
# Velocity P-wave (km/s) = 4.70122 6.05004 5.41777
#
# Compressibility (1/GPa) = 0.03959944
#
# Stress axis : x y z
#
# Youngs Moduli (GPa) = 78.22537 37.78814 30.10337
#
# Poissons Ratio (x) = 0.35531 0.26456
# Poissons Ratio (y) = 0.73552 -0.05292
# Poissons Ratio (z) = 0.68747 -0.06642
#
# Static dielectric constant tensor:
#      x y z
#    x 1.796300 0.000000 0.028160 
#    y 0.000000 1.789640 0.000000 
#    z 0.028160 0.000000 1.826330 
# 
# From -- ./inp_files/149198.got.cif
#   From: 2010.05.17/outbox.cif.g08.bks.cpg/sg15_75_cif.got.tgz:149198.got - 2010.06.03 18:47:42.
