data_PCOD9256736
_publ_section_title
;
Structure prediction by ZEFSAII (Michael W. Deem and Ramdas Pophale) SiO2 
 PCOD9256736
Probable space group: C 2/C
;
_chemical_formula_sum "Si O2"
_cell_formula_units_Z 56
_cell_length_a 31.070302
_cell_length_b 20.019355
_cell_length_c 5.287622
_cell_angle_alpha 90.000000
_cell_angle_beta 65.356185
_cell_angle_gamma 90.000000
_cell_volume 2989.375183
_symmetry_space_group_name_H-M "C 2/C"
_symmetry_group_IT_number 15
_symmetry_cell_setting 'monoclinic'
loop_
_space_group_symop_operation_xyz
x,y,z
-x,y,1/2-z
-x,-y,-z
x,-y,1/2+z
1/2+x,1/2+y,z
1/2-x,1/2+y,1/2-z
1/2-x,1/2-y,-z
1/2+x,1/2-y,1/2+z
loop_
_atom_site_type_symbol
_atom_site_label
_atom_site_fract_x
_atom_site_fract_y
_atom_site_fract_z
Si Si1 0.735063 0.141927 0.538806
Si Si2 0.515780 0.738602 0.963577
Si Si3 0.474544 0.885004 0.064326
Si Si4 0.310918 0.897182 0.847754
Si Si5 0.326628 0.278528 0.828115
Si Si6 0.374595 0.762001 0.714917
Si Si7 0.601177 0.034852 0.535216
O O1 0.728097 0.116295 0.271166
O O2 0.704380 0.210438 0.609915
O O3 0.788825 0.162822 0.463357
O O4 0.712715 0.097679 0.818817
O O5 0.500000 0.702194 0.750000
O O6 0.569728 0.763442 0.856331
O O7 0.500000 0.699987 0.250000
O O8 0.483461 0.806081 0.039851
O O9 0.500000 0.914053 0.250000
O O10 0.420616 0.902085 0.260169
O O11 0.500000 0.910644 0.750000
O O12 0.348037 0.834204 0.781940
O O13 0.343456 0.954622 0.646669
O O14 0.351524 0.281355 0.495990
O O15 0.362869 0.269232 0.970622
O O16 0.586726 0.021070 0.278697
#
# Coordination Sequence:
#
# PCOD9256736 Si02
#       7
#     8   8   8   8   8   8   8
#     4   9  17  29  47  67  87 105 126 160 211 286
#     4  10  19  30  44  60  80 109 147 182 216 262
#     4  10  21  35  48  59  77 102 143 192 236 278
#     4  10  19  32  48  63  82 110 137 170 227 281
#     4   9  17  28  44  69  89 103 126 161 216 274
#     4  10  18  29  46  63  85 110 135 175 222 270
#     4  12  25  37  48  63  83 110 151 200 243 275
#
# _framework density 18.733011000000001
#
# number of rings (size 3 to 8) (size 9 to 14) (size 15 to 20)
#    0.000    2.000    0.000    5.143    0.000   12.000 
#    0.000    0.000    0.000    0.000    0.000    0.000 
#    0.000    0.000    0.000    0.000    0.000    0.000 
#
# Total GULP energy -155928.795176 kJ/mol
# GULP energy per Si atom -5568.885542 kJ/mol
# Density = 1.869037 g / cm^3
# Si number density = 18.733011 Si / 1000 Ang^3
#
#
#
# Elastic Constant Matrix: (Units=GPa)
#
#
# Indices 1 2 3 4 5 6 
#
# 1 74.6319 5.7289 36.5691 0.0000 16.1474 0.0000
# 2 5.7289 8.7846 21.2903 0.0000 -3.4814 0.0000
# 3 36.5691 21.2903 144.7992 0.0000 24.5346 0.0000
# 4 0.0000 0.0000 0.0000 17.8048 0.0000 -4.3240
# 5 16.1474 -3.4814 24.5346 0.0000 37.1946 0.0000
# 6 0.0000 0.0000 0.0000 -4.3240 0.0000 13.6442
#
#
#
# Elastic Compliance Matrix: (Units=1/GPa)
#
#
# Indices 1 2 3 4 5 6 
#
# 1 0.016420 -0.009881 -0.001497 0.000000 -0.007066 0.000000
# 2 -0.009881 0.247887 -0.043469 0.000000 0.056165 0.000000
# 3 -0.001497 -0.043469 0.016048 0.000000 -0.014005 0.000000
# 4 0.000000 0.000000 0.000000 0.060848 0.000000 0.019283
# 5 -0.007066 0.056165 -0.014005 0.000000 0.044448 0.000000
# 6 0.000000 0.000000 0.000000 0.019283 0.000000 0.079402
#
#
# Mechanical properties :
#
#
# Convention : Reuss Voigt Hill
#
# Bulk Modulus (GPa) = 5.85951 39.48802 22.67376
# Shear Modulus (GPa) = 7.91599 24.70389 16.30994
#
# Velocity S-wave (km/s) = 2.05788 3.63538 2.95388
# Velocity P-wave (km/s) = 2.96331 6.22466 4.87481
#
# Compressibility (1/GPa) = 0.17066284
#
# Stress axis : x y z
#
# Youngs Moduli (GPa) = 60.90232 4.03409 62.31146
#
# Poissons Ratio (x) = 0.03986 0.09327
# Poissons Ratio (y) = 0.60176 2.70860
# Poissons Ratio (z) = 0.09116 0.17536
#
# Static dielectric constant tensor:
#      x y z
#    x 1.720810 0.000000 0.032020 
#    y 0.000000 1.673910 0.000000 
#    z 0.032020 0.000000 1.734990 
# 
# From -- ./inp_files/17603.got.cif
#   From: 2010.05.17/outbox.cif.g08.bks.cpg/sg15_9_cif.got.tgz:17603.got - 2010.06.03 18:47:42.
