data_PCOD9256056
_publ_section_title
;
Structure prediction by ZEFSAII (Michael W. Deem and Ramdas Pophale) SiO2 
 PCOD9256056
Probable space group: C 2/C
;
_chemical_formula_sum "Si O2"
_cell_formula_units_Z 44
_cell_length_a 13.190144
_cell_length_b 18.668402
_cell_length_c 12.660635
_cell_angle_alpha 90.000000
_cell_angle_beta 124.598495
_cell_angle_gamma 90.000000
_cell_volume 2566.207852
_symmetry_space_group_name_H-M "C 2/C"
_symmetry_group_IT_number 15
_symmetry_cell_setting 'monoclinic'
loop_
_space_group_symop_operation_xyz
x,y,z
-x,y,1/2-z
-x,-y,-z
x,-y,1/2+z
1/2+x,1/2+y,z
1/2-x,1/2+y,1/2-z
1/2-x,1/2-y,-z
1/2+x,1/2-y,1/2+z
loop_
_atom_site_type_symbol
_atom_site_label
_atom_site_fract_x
_atom_site_fract_y
_atom_site_fract_z
Si Si1 0.000000 0.547144 0.250000
Si Si2 0.608962 0.935291 0.481347
Si Si3 0.766354 0.446227 0.728572
Si Si4 0.070563 0.679088 0.678620
Si Si5 0.461988 0.654384 0.351637
Si Si6 0.790136 0.900951 0.404744
O O1 0.044656 0.494806 0.370624
O O2 0.123278 0.584443 0.280040
O O3 0.669058 0.964830 0.622227
O O4 0.508198 0.873441 0.442546
O O5 0.717583 0.902958 0.473320
O O6 0.657461 0.391712 0.689699
O O7 0.715279 0.518638 0.644612
O O8 0.064729 0.761777 0.645671
O O9 0.206950 0.648937 0.779781
O O10 0.000000 0.672483 0.750000
O O11 0.500000 0.645670 0.250000
O O12 0.575368 0.628237 0.490807
#
# Coordination Sequence:
#
# PCOD9256056 Si02
#       6
#     4   8   8   8   8   8
#     4  10  20  34  54  84 108 138 194 230 248 318
#     4  10  17  34  56  82 105 144 183 224 271 309
#     4  11  21  34  57  80 111 148 182 223 269 314
#     4   9  19  32  54  83 113 139 173 228 277 327
#     4  11  22  33  55  85 116 143 168 221 293 333
#     4  10  20  36  51  84 119 134 182 224 268 335
#
# _framework density 17.145921999999999
#
# number of rings (size 3 to 8) (size 9 to 14) (size 15 to 20)
#    0.000    1.818    6.364    1.091    2.545    2.182 
#    0.000    0.000    0.000    1.091    2.364    0.000 
#    0.000    0.000    0.000    0.000    0.000    0.000 
#
# Total GULP energy -122638.933836 kJ/mol
# GULP energy per Si atom -5574.496993 kJ/mol
# Density = 1.710690 g / cm^3
# Si number density = 17.145922 Si / 1000 Ang^3
#
#
#
# Elastic Constant Matrix: (Units=GPa)
#
#
# Indices 1 2 3 4 5 6 
#
# 1 98.6513 41.5825 20.4766 0.0000 17.5732 0.0000
# 2 41.5825 64.3044 23.8726 0.0000 4.8965 0.0000
# 3 20.4766 23.8726 70.0863 0.0000 11.7829 0.0000
# 4 0.0000 0.0000 0.0000 21.3605 0.0000 -1.7032
# 5 17.5732 4.8965 11.7829 0.0000 20.6123 0.0000
# 6 0.0000 0.0000 0.0000 -1.7032 0.0000 24.6227
#
#
#
# Elastic Compliance Matrix: (Units=1/GPa)
#
#
# Indices 1 2 3 4 5 6 
#
# 1 0.016278 -0.009842 0.000594 0.000000 -0.011880 0.000000
# 2 -0.009842 0.023766 -0.006285 0.000000 0.006338 0.000000
# 3 0.000594 -0.006285 0.017778 0.000000 -0.009176 0.000000
# 4 0.000000 0.000000 0.000000 0.047075 0.000000 0.003256
# 5 -0.011880 0.006338 -0.009176 0.000000 0.062382 0.000000
# 6 0.000000 0.000000 0.000000 0.003256 0.000000 0.040838
#
#
# Mechanical properties :
#
#
# Convention : Reuss Voigt Hill
#
# Bulk Modulus (GPa) = 37.37590 44.98949 41.18269
# Shear Modulus (GPa) = 20.15285 23.12646 21.63965
#
# Velocity S-wave (km/s) = 3.43209 3.67659 3.55644
# Velocity P-wave (km/s) = 6.12794 6.65727 6.39808
#
# Compressibility (1/GPa) = 0.02675521
#
# Stress axis : x y z
#
# Youngs Moduli (GPa) = 61.43184 42.07657 56.24872
#
# Poissons Ratio (x) = 0.41412 -0.03340
# Poissons Ratio (y) = 0.60462 0.35354
# Poissons Ratio (z) = -0.03647 0.26446
#
# Static dielectric constant tensor:
#      x y z
#    x 1.606860 0.000000 0.005010 
#    y 0.000000 1.569390 0.000000 
#    z 0.005010 0.000000 1.588660 
# 
# From -- ./inp_files/87562.got.cif
#   From: 2010.05.17/outbox.cif.g08.bks.cpg/sg15_44_cif.got.tgz:87562.got - 2010.06.03 18:47:42.
