data_PCOD9256616
_publ_section_title
;
Structure prediction by ZEFSAII (Michael W. Deem and Ramdas Pophale) SiO2 
 PCOD9256616
Probable space group: C 2/C
;
_chemical_formula_sum "Si O2"
_cell_formula_units_Z 48
_cell_length_a 6.928194
_cell_length_b 32.117418
_cell_length_c 15.263419
_cell_angle_alpha 90.000000
_cell_angle_beta 147.282980
_cell_angle_gamma 90.000000
_cell_volume 1835.694353
_symmetry_space_group_name_H-M "C 2/C"
_symmetry_group_IT_number 15
_symmetry_cell_setting 'monoclinic'
loop_
_space_group_symop_operation_xyz
x,y,z
-x,y,1/2-z
-x,-y,-z
x,-y,1/2+z
1/2+x,1/2+y,z
1/2-x,1/2+y,1/2-z
1/2-x,1/2-y,-z
1/2+x,1/2-y,1/2+z
loop_
_atom_site_type_symbol
_atom_site_label
_atom_site_fract_x
_atom_site_fract_y
_atom_site_fract_z
Si Si1 0.359420 0.760528 0.942291
Si Si2 0.352758 0.062198 0.513536
Si Si3 0.191533 0.084120 0.055563
Si Si4 0.683812 0.150858 0.057778
Si Si5 0.137942 0.826057 0.559262
Si Si6 0.847339 0.013182 0.815864
O O1 0.000000 0.765030 0.750000
O O2 0.533644 0.806581 0.007524
O O3 0.250000 0.750000 0.000000
O O4 0.542951 0.718062 0.980987
O O5 0.677088 0.034476 0.667182
O O6 0.184312 0.080093 0.538430
O O7 0.449749 0.103244 0.497094
O O8 0.039339 0.030236 0.366647
O O9 0.500000 0.082855 0.250000
O O10 0.197033 0.132005 0.024933
O O11 0.143931 0.044606 0.972621
O O12 0.857938 0.161521 0.029009
O O13 0.000000 0.148364 0.250000
O O14 0.500000 0.818278 0.750000
O O15 0.500000 0.007411 0.750000
#
# Coordination Sequence:
#
# PCOD9256616 Si02
#       6
#     8   8   8   8   8   8
#     4   9  18  34  55  79 110 146 184 224 274 336
#     4  10  18  29  48  68  95 137 175 210 261 320
#     4   9  16  27  45  75 108 131 159 211 273 320
#     4   9  19  36  53  72 106 149 180 213 270 337
#     4   9  18  32  56  86 107 134 179 230 276 319
#     4  10  18  28  46  76 106 131 168 226 277 312
#
# _framework density 26.148145
#
# number of rings (size 3 to 8) (size 9 to 14) (size 15 to 20)
#    0.000    2.667    0.000    3.500    0.000    5.333 
#    0.000    8.333    0.000    8.000    0.000    0.000 
#    0.000    0.000    0.000    0.000    0.000    0.000 
#
# Total GULP energy -133933.355603 kJ/mol
# GULP energy per Si atom -5580.556483 kJ/mol
# Density = 2.608863 g / cm^3
# Si number density = 26.148145 Si / 1000 Ang^3
#
#
#
# Elastic Constant Matrix: (Units=GPa)
#
#
# Indices 1 2 3 4 5 6 
#
# 1 103.2967 55.0607 18.9236 0.0000 1.8286 0.0000
# 2 55.0607 331.7961 75.5988 0.0000 -5.4275 0.0000
# 3 18.9236 75.5988 78.4433 0.0000 0.9145 0.0000
# 4 0.0000 0.0000 0.0000 77.6842 0.0000 1.4307
# 5 1.8286 -5.4275 0.9145 0.0000 30.2456 0.0000
# 6 0.0000 0.0000 0.0000 1.4307 0.0000 40.5129
#
#
#
# Elastic Compliance Matrix: (Units=1/GPa)
#
#
# Indices 1 2 3 4 5 6 
#
# 1 0.010720 -0.001546 -0.001085 0.000000 -0.000893 0.000000
# 2 -0.001546 0.004105 -0.003594 0.000000 0.000939 0.000000
# 3 -0.001085 -0.003594 0.016486 0.000000 -0.001078 0.000000
# 4 0.000000 0.000000 0.000000 0.012881 0.000000 -0.000455
# 5 -0.000893 0.000939 -0.001078 0.000000 0.033318 0.000000
# 6 0.000000 0.000000 0.000000 -0.000455 0.000000 0.024700
#
#
# Mechanical properties :
#
#
# Convention : Reuss Voigt Hill
#
# Bulk Modulus (GPa) = 53.02392 90.30027 71.66210
# Shear Modulus (GPa) = 41.34083 53.95208 47.64645
#
# Velocity S-wave (km/s) = 3.98052 4.54731 4.27332
# Velocity P-wave (km/s) = 6.43804 7.88542 7.19820
#
# Compressibility (1/GPa) = 0.01885941
#
# Stress axis : x y z
#
# Youngs Moduli (GPa) = 93.28633 243.62491 60.65775
#
# Poissons Ratio (x) = 0.37669 0.06584
# Poissons Ratio (y) = 0.14424 0.21799
# Poissons Ratio (z) = 0.10126 0.87553
#
# Static dielectric constant tensor:
#      x y z
#    x 2.154210 0.000000 0.037540 
#    y 0.000000 2.156960 0.000000 
#    z 0.037540 0.000000 1.984080 
# 
# From -- ./inp_files/201312.got.cif
#   From: 2010.05.17/outbox.cif.g08.bks.cpg/sg15_101_cif.got.tgz:201312.got - 2010.06.03 18:47:42.
