data_PCOD9256587
_publ_section_title
;
Structure prediction by ZEFSAII (Michael W. Deem and Ramdas Pophale) SiO2 
 PCOD9256587
Probable space group: C 2/C
;
_chemical_formula_sum "Si O2"
_cell_formula_units_Z 56
_cell_length_a 17.172481
_cell_length_b 11.802503
_cell_length_c 13.697003
_cell_angle_alpha 90.000000
_cell_angle_beta 129.937293
_cell_angle_gamma 90.000000
_cell_volume 2128.555957
_symmetry_space_group_name_H-M "C 2/C"
_symmetry_group_IT_number 15
_symmetry_cell_setting 'monoclinic'
loop_
_space_group_symop_operation_xyz
x,y,z
-x,y,1/2-z
-x,-y,-z
x,-y,1/2+z
1/2+x,1/2+y,z
1/2-x,1/2+y,1/2-z
1/2-x,1/2-y,-z
1/2+x,1/2-y,1/2+z
loop_
_atom_site_type_symbol
_atom_site_label
_atom_site_fract_x
_atom_site_fract_y
_atom_site_fract_z
Si Si1 0.635887 0.579904 0.777418
Si Si2 0.197073 0.166996 0.166703
Si Si3 0.607249 0.965933 0.335495
Si Si4 0.519324 0.360514 0.653101
Si Si5 0.859668 0.382429 0.450898
Si Si6 0.418072 0.173571 0.337912
Si Si7 0.323317 0.547611 0.979888
O O1 0.554706 0.491577 0.670660
O O2 0.749264 0.577603 0.818822
O O3 0.586457 0.705090 0.722876
O O4 0.653612 0.522657 0.899864
O O5 0.112719 0.200834 0.177740
O O6 0.180215 0.254860 0.063221
O O7 0.308847 0.171712 0.301968
O O8 0.177113 0.048757 0.100876
O O9 0.500000 0.903641 0.250000
O O10 0.624619 0.029142 0.450965
O O11 0.594277 0.070176 0.248983
O O12 0.710583 0.901686 0.396623
O O13 0.500000 0.336641 0.750000
O O14 0.407094 0.359600 0.519272
O O15 0.979304 0.357433 0.520281
#
# Coordination Sequence:
#
# PCOD9256587 Si02
#       7
#     8   8   8   8   8   8   8
#     4   9  17  28  42  63  92 120 143 174 219 266
#     4  10  18  28  44  66  89 115 151 186 215 259
#     4   8  14  24  41  67  95 116 137 168 215 268
#     4  10  20  31  43  62  92 123 149 180 219 259
#     4   9  16  27  44  65  88 115 146 179 216 261
#     4   9  16  26  43  67  93 117 143 177 216 261
#     4   9  16  26  42  64  90 119 143 170 216 265
#
# _framework density 26.308914000000001
#
# number of rings (size 3 to 8) (size 9 to 14) (size 15 to 20)
#    0.000    2.857    0.000    2.143    0.000    7.429 
#    0.000    0.714    0.000    0.857    0.000    0.000 
#    0.000    3.429    0.000    0.000    0.000    0.000 
#
# Total GULP energy -155903.236525 kJ/mol
# GULP energy per Si atom -5567.972733 kJ/mol
# Density = 2.624903 g / cm^3
# Si number density = 26.308914 Si / 1000 Ang^3
#
#
#
# Elastic Constant Matrix: (Units=GPa)
#
#
# Indices 1 2 3 4 5 6 
#
# 1 146.7929 23.8802 65.2290 0.0000 51.1548 0.0000
# 2 23.8802 61.3861 27.2865 0.0000 13.1080 0.0000
# 3 65.2290 27.2865 81.1049 0.0000 48.7264 0.0000
# 4 0.0000 0.0000 0.0000 -0.9505 0.0000 3.3887
# 5 51.1548 13.1080 48.7264 0.0000 50.1802 0.0000
# 6 0.0000 0.0000 0.0000 3.3887 0.0000 5.6471
#
#
#
# Elastic Compliance Matrix: (Units=1/GPa)
#
#
# Indices 1 2 3 4 5 6 
#
# 1 0.011468 -0.000846 -0.004915 0.000000 -0.006697 0.000000
# 2 -0.000846 0.019409 -0.007972 0.000000 0.003534 0.000000
# 3 -0.004915 -0.007972 0.035292 0.000000 -0.027177 0.000000
# 4 0.000000 0.000000 0.000000 -0.335128 0.000000 0.201102
# 5 -0.006697 0.003534 -0.027177 0.000000 0.052222 0.000000
# 6 0.000000 0.000000 0.000000 0.201102 0.000000 0.056407
#
#
# Mechanical properties :
#
#
# Convention : Reuss Voigt Hill
#
# Bulk Modulus (GPa) = 25.83903 58.00834 41.92368
# Shear Modulus (GPa) = -41.67921 22.50123 -9.58899
#
# Velocity S-wave (km/s) = -3.98455 2.92767 -1.91120
# Velocity P-wave (km/s) = 3.36543 5.79009 3.33159
#
# Compressibility (1/GPa) = 0.03870115
#
# Stress axis : x y z
#
# Youngs Moduli (GPa) = 87.20118 51.52337 28.33501
#
# Poissons Ratio (x) = 0.04361 0.13926
# Poissons Ratio (y) = 0.07381 0.22590
# Poissons Ratio (z) = 0.42857 0.41077
#
# Static dielectric constant tensor:
#      x y z
#    x 2.196240 0.000000 0.023690 
#    y 0.000000 2.063140 0.000000 
#    z 0.023690 0.000000 2.131650 
# 
# From -- ./inp_files/162210.got.cif
#   From: 2010.05.17/outbox.cif.g08.bks.cpg/sg15_82_cif.got.tgz:162210.got - 2010.06.03 18:47:42.
