data_PCOD9256628
_publ_section_title
;
Structure prediction by ZEFSAII (Michael W. Deem and Ramdas Pophale) SiO2 
 PCOD9256628
Probable space group: C 2/C
;
_chemical_formula_sum "Si O2"
_cell_formula_units_Z 36
_cell_length_a 10.551323
_cell_length_b 35.257478
_cell_length_c 5.500030
_cell_angle_alpha 90.000000
_cell_angle_beta 51.430095
_cell_angle_gamma 90.000000
_cell_volume 1599.725928
_symmetry_space_group_name_H-M "C 2/C"
_symmetry_group_IT_number 15
_symmetry_cell_setting 'monoclinic'
loop_
_space_group_symop_operation_xyz
x,y,z
-x,y,1/2-z
-x,-y,-z
x,-y,1/2+z
1/2+x,1/2+y,z
1/2-x,1/2+y,1/2-z
1/2-x,1/2-y,-z
1/2+x,1/2-y,1/2+z
loop_
_atom_site_type_symbol
_atom_site_label
_atom_site_fract_x
_atom_site_fract_y
_atom_site_fract_z
Si Si1 0.500000 0.217838 0.250000
Si Si2 0.726492 0.674703 0.844850
Si Si3 0.500000 0.360931 0.250000
Si Si4 0.821999 0.899422 0.836948
Si Si5 0.808925 0.985998 0.761217
Si Si6 0.000000 0.765044 0.750000
O O1 0.353938 0.190576 0.502653
O O2 0.526257 0.242062 0.466188
O O3 0.567146 0.664326 0.882628
O O4 0.773119 0.635602 0.925656
O O5 0.662702 0.709152 0.086197
O O6 0.356099 0.386996 0.519910
O O7 0.000000 0.899777 0.750000
O O8 0.777014 0.943128 0.888815
O O9 0.743025 0.989824 0.566596
O O10 0.000000 0.000000 0.500000
#
# Coordination Sequence:
#
# PCOD9256628 Si02
#       6
#     4   8   4   8   8   4
#     4  12  29  42  64  90 124 156 204 258 310 362
#     4  11  24  41  62  90 120 162 206 249 306 368
#     4  10  19  36  62  83 122 156 210 238 303 346
#     4  10  19  32  56  82 120 164 194 243 299 359
#     4  10  18  28  47  81 123 149 189 241 299 336
#     4  12  24  44  66  89 118 158 204 260 309 358
#
# _framework density 22.503855000000001
#
# number of rings (size 3 to 8) (size 9 to 14) (size 15 to 20)
#    0.000    1.333    5.556    3.333    6.222    0.000 
#    0.000    0.000    0.000    0.000    0.000    1.556 
#    0.000    0.000    0.000    0.000    0.000    0.000 
#
# Total GULP energy -100270.870063 kJ/mol
# GULP energy per Si atom -5570.603892 kJ/mol
# Density = 2.245263 g / cm^3
# Si number density = 22.503855 Si / 1000 Ang^3
#
#
#
# Elastic Constant Matrix: (Units=GPa)
#
#
# Indices 1 2 3 4 5 6 
#
# 1 17.6358 15.9350 16.4293 0.0000 19.1136 0.0000
# 2 15.9350 165.0726 70.8202 0.0000 7.2532 0.0000
# 3 16.4293 70.8202 138.8856 0.0000 25.0988 0.0000
# 4 0.0000 0.0000 0.0000 17.2388 0.0000 27.7168
# 5 19.1136 7.2532 25.0988 0.0000 33.1208 0.0000
# 6 0.0000 0.0000 0.0000 27.7168 0.0000 -11.6041
#
#
#
# Elastic Compliance Matrix: (Units=1/GPa)
#
#
# Indices 1 2 3 4 5 6 
#
# 1 0.176038 -0.014714 0.005162 0.000000 -0.102279 0.000000
# 2 -0.014714 0.009049 -0.004693 0.000000 0.010066 0.000000
# 3 0.005162 -0.004693 0.010816 0.000000 -0.010148 0.000000
# 4 0.000000 0.000000 0.000000 0.011984 0.000000 0.028625
# 5 -0.102279 0.010066 -0.010148 0.000000 0.094702 0.000000
# 6 0.000000 0.000000 0.000000 0.028625 0.000000 -0.017804
#
#
# Mechanical properties :
#
#
# Convention : Reuss Voigt Hill
#
# Bulk Modulus (GPa) = 5.97321 58.66255 32.31788
# Shear Modulus (GPa) = 13.54714 22.31174 17.92944
#
# Velocity S-wave (km/s) = 2.45621 3.15217 2.82570
# Velocity P-wave (km/s) = 3.27170 6.27476 5.00383
#
# Compressibility (1/GPa) = 0.16741428
#
# Stress axis : x y z
#
# Youngs Moduli (GPa) = 5.68058 110.50403 92.45206
#
# Poissons Ratio (x) = 1.62598 -0.47726
# Poissons Ratio (y) = 0.08359 0.43387
# Poissons Ratio (z) = -0.02932 0.51859
#
# Static dielectric constant tensor:
#      x y z
#    x 1.944230 0.000000 0.007080 
#    y 0.000000 1.949130 0.000000 
#    z 0.007080 0.000000 1.979410 
# 
# From -- ./inp_files/8918.got.cif
#   From: 2010.05.17/outbox.cif.g08.bks.cpg/sg15_5_cif.got.tgz:8918.got - 2010.06.03 18:47:42.
