data_PCOD9256975
_publ_section_title
;
Structure prediction by ZEFSAII (Michael W. Deem and Ramdas Pophale) SiO2 
 PCOD9256975
Probable space group: C 2/C
;
_chemical_formula_sum "Si O2"
_cell_formula_units_Z 60
_cell_length_a 14.770751
_cell_length_b 14.826573
_cell_length_c 19.692155
_cell_angle_alpha 90.000000
_cell_angle_beta 142.546505
_cell_angle_gamma 90.000000
_cell_volume 2622.551075
_symmetry_space_group_name_H-M "C 2/C"
_symmetry_group_IT_number 15
_symmetry_cell_setting 'monoclinic'
loop_
_space_group_symop_operation_xyz
x,y,z
-x,y,1/2-z
-x,-y,-z
x,-y,1/2+z
1/2+x,1/2+y,z
1/2-x,1/2+y,1/2-z
1/2-x,1/2-y,-z
1/2+x,1/2-y,1/2+z
loop_
_atom_site_type_symbol
_atom_site_label
_atom_site_fract_x
_atom_site_fract_y
_atom_site_fract_z
Si Si1 0.889192 0.791799 0.274299
Si Si2 0.500000 0.440099 0.750000
Si Si3 0.196036 0.163058 0.928108
Si Si4 0.429056 0.089192 0.621771
Si Si5 0.643783 0.667563 0.460458
Si Si6 0.862919 0.254221 0.277618
Si Si7 0.701237 0.088297 0.109047
Si Si8 0.009238 0.411540 0.628778
O O1 0.828746 0.806722 0.163413
O O2 0.760315 0.804818 0.251763
O O3 0.034763 0.855811 0.364745
O O4 0.935908 0.685778 0.311536
O O5 0.427275 0.381996 0.646733
O O6 0.654398 0.478849 0.811161
O O7 0.250000 0.250000 0.000000
O O8 0.331239 0.094923 0.012996
O O9 0.268936 0.099952 0.563563
O O10 0.536814 0.172690 0.700114
O O11 0.385582 0.094211 0.514170
O O12 0.520721 0.997350 0.684239
O O13 0.750000 0.750000 0.500000
O O14 0.489056 0.703708 0.400332
O O15 0.776595 0.184268 0.177285
O O16 0.592920 0.069073 0.107643
#
# Coordination Sequence:
#
# PCOD9256975 Si02
#       8
#     8   4   8   8   8   8   8   8
#     4   9  18  33  52  75 100 135 171 208 258 317
#     4   8  14  26  42  64  92 128 170 208 238 292
#     4   9  18  34  54  73  96 131 171 206 256 324
#     4  10  18  30  50  76 105 134 171 222 257 294
#     4   8  15  27  44  64  94 135 166 195 244 302
#     4   9  17  31  49  72 103 138 172 206 253 319
#     4   9  17  29  47  72 103 139 172 208 261 316
#     4  10  19  31  51  79 103 130 173 223 266 302
#
# _framework density 22.878485999999999
#
# number of rings (size 3 to 8) (size 9 to 14) (size 15 to 20)
#    0.000    2.933    0.000    1.200    0.000    0.000 
#    0.000   13.333    0.000   48.000    0.000   20.533 
#    0.000    0.000    0.000    0.000    0.000    0.000 
#
# Total GULP energy -167061.698874 kJ/mol
# GULP energy per Si atom -5568.723296 kJ/mol
# Density = 2.282641 g / cm^3
# Si number density = 22.878486 Si / 1000 Ang^3
#
#
#
# Elastic Constant Matrix: (Units=GPa)
#
#
# Indices 1 2 3 4 5 6 
#
# 1 104.8101 8.0785 39.8907 0.0000 32.3059 0.0000
# 2 8.0785 68.0765 26.3671 0.0001 6.4491 0.0000
# 3 39.8907 26.3671 89.1310 0.0002 14.8765 0.0001
# 4 0.0000 0.0001 0.0002 35.5542 0.0001 6.0719
# 5 32.3059 6.4491 14.8765 0.0001 38.2531 0.0000
# 6 0.0000 0.0000 0.0001 6.0719 0.0000 -6.8846
#
#
#
# Elastic Compliance Matrix: (Units=1/GPa)
#
#
# Indices 1 2 3 4 5 6 
#
# 1 0.014680 0.001267 -0.005176 0.000000 -0.010599 0.000000
# 2 0.001267 0.016732 -0.005205 0.000000 -0.001866 0.000000
# 3 -0.005176 -0.005205 0.015185 0.000000 -0.000657 0.000000
# 4 0.000000 0.000000 0.000000 0.024444 0.000000 0.021559
# 5 -0.010599 -0.001866 -0.000657 0.000000 0.035662 0.000000
# 6 0.000000 0.000000 0.000000 0.021559 0.000000 -0.126239
#
#
# Mechanical properties :
#
#
# Convention : Reuss Voigt Hill
#
# Bulk Modulus (GPa) = 35.25008 45.63225 40.44116
# Shear Modulus (GPa) = 613.47913 25.89665 319.68789
#
# Velocity S-wave (km/s) = 16.39295 3.36805 11.83369
# Velocity P-wave (km/s) = 19.33251 5.92569 14.29790
#
# Compressibility (1/GPa) = 0.02836873
#
# Stress axis : x y z
#
# Youngs Moduli (GPa) = 68.11906 59.76629 65.85303
#
# Poissons Ratio (x) = -0.07570 0.34085
# Poissons Ratio (y) = -0.08628 0.34277
# Poissons Ratio (z) = 0.35258 0.31109
#
# Static dielectric constant tensor:
#      x y z
#    x 1.906110 0.000000 0.044260 
#    y 0.000000 1.937080 0.000000 
#    z 0.044260 0.000000 1.911270 
# 
# From -- ./inp_files/299108.got.cif
#   From: 2010.05.17/outbox.cif.g08.bks.cpg/sg15_150_cif.got.tgz:299108.got - 2010.06.03 18:47:42.
