data_PCOD9256984
_publ_section_title
;
Structure prediction by ZEFSAII (Michael W. Deem and Ramdas Pophale) SiO2 
 PCOD9256984
Probable space group: C 2/C
;
_chemical_formula_sum "Si O2"
_cell_formula_units_Z 60
_cell_length_a 12.217411
_cell_length_b 30.672941
_cell_length_c 9.054259
_cell_angle_alpha 90.000000
_cell_angle_beta 63.828452
_cell_angle_gamma 90.000000
_cell_volume 3045.166808
_symmetry_space_group_name_H-M "C 2/C"
_symmetry_group_IT_number 15
_symmetry_cell_setting 'monoclinic'
loop_
_space_group_symop_operation_xyz
x,y,z
-x,y,1/2-z
-x,-y,-z
x,-y,1/2+z
1/2+x,1/2+y,z
1/2-x,1/2+y,1/2-z
1/2-x,1/2-y,-z
1/2+x,1/2-y,1/2+z
loop_
_atom_site_type_symbol
_atom_site_label
_atom_site_fract_x
_atom_site_fract_y
_atom_site_fract_z
Si Si1 0.000000 0.336873 0.750000
Si Si2 0.165660 0.407297 0.570931
Si Si3 0.676427 0.017544 0.297846
Si Si4 0.072868 0.256837 0.513617
Si Si5 0.503428 0.063275 0.591937
Si Si6 0.424670 0.467105 0.145830
Si Si7 0.677595 0.720130 0.760412
Si Si8 0.876743 0.124018 0.737896
O O1 0.115383 0.368565 0.703564
O O2 0.042797 0.305215 0.593273
O O3 0.180585 0.451266 0.653935
O O4 0.064638 0.413810 0.503157
O O5 0.287373 0.394656 0.415941
O O6 0.635320 0.047832 0.458540
O O7 0.574237 0.980874 0.337088
O O8 0.798906 0.991553 0.250812
O O9 0.183870 0.260160 0.328557
O O10 0.129340 0.230335 0.620992
O O11 0.935164 0.238117 0.571594
O O12 0.500000 0.087522 0.750000
O O13 0.500000 0.461955 0.250000
O O14 0.399829 0.416804 0.113777
O O15 0.500000 0.500000 0.000000
O O16 0.681233 0.668447 0.786997
O O17 0.000000 0.136357 0.750000
#
# Coordination Sequence:
#
# PCOD9256984 Si02
#       8
#     4   8   8   8   8   8   8   8
#     4  10  18  30  50  78 106 144 176 228 284 342
#     4  12  21  36  54  78 108 145 192 233 280 339
#     4  11  21  37  53  74 102 143 192 231 281 326
#     4   9  17  28  47  74 116 142 172 223 291 354
#     4  11  23  34  55  75 101 140 186 241 286 327
#     4  11  25  39  55  79 112 155 197 236 277 327
#     4   9  16  28  46  74 106 151 169 217 283 348
#     4  11  20  33  53  75 107 149 187 222 274 340
#
# _framework density 19.703354000000001
#
# number of rings (size 3 to 8) (size 9 to 14) (size 15 to 20)
#    0.000    1.600    5.333    3.200    1.867    0.000 
#    0.000    0.000    0.000    0.000    0.000    0.000 
#    0.000    8.533    0.000    0.133    0.000    0.000 
#
# Total GULP energy -167128.598274 kJ/mol
# GULP energy per Si atom -5570.953276 kJ/mol
# Density = 1.965851 g / cm^3
# Si number density = 19.703354 Si / 1000 Ang^3
#
#
#
# Elastic Constant Matrix: (Units=GPa)
#
#
# Indices 1 2 3 4 5 6 
#
# 1 69.1367 24.5395 34.8330 0.0000 -30.7943 0.0000
# 2 24.5395 105.0179 32.1335 0.0000 -13.9464 0.0000
# 3 34.8330 32.1335 55.7565 0.0000 -24.8247 0.0000
# 4 0.0000 0.0000 0.0000 22.0174 0.0000 -17.8885
# 5 -30.7943 -13.9464 -24.8247 0.0000 40.7674 0.0000
# 6 0.0000 0.0000 0.0000 -17.8885 0.0000 37.7524
#
#
#
# Elastic Compliance Matrix: (Units=1/GPa)
#
#
# Indices 1 2 3 4 5 6 
#
# 1 0.025470 -0.001369 -0.009282 0.000000 0.013118 0.000000
# 2 -0.001369 0.011635 -0.006227 0.000000 -0.000846 0.000000
# 3 -0.009282 -0.006227 0.031901 0.000000 0.010285 0.000000
# 4 0.000000 0.000000 0.000000 0.073849 0.000000 0.034992
# 5 0.013118 -0.000846 0.010285 0.000000 0.040412 0.000000
# 6 0.000000 0.000000 0.000000 0.034992 0.000000 0.043069
#
#
# Mechanical properties :
#
#
# Convention : Reuss Voigt Hill
#
# Bulk Modulus (GPa) = 28.36819 45.88033 37.12426
# Shear Modulus (GPa) = 18.39306 29.33444 23.86375
#
# Velocity S-wave (km/s) = 3.05864 3.86269 3.48394
# Velocity P-wave (km/s) = 5.18677 6.57495 5.92168
#
# Compressibility (1/GPa) = 0.03525075
#
# Stress axis : x y z
#
# Youngs Moduli (GPa) = 39.26237 85.94715 31.34663
#
# Poissons Ratio (x) = 0.11769 0.29096
# Poissons Ratio (y) = 0.05376 0.19518
# Poissons Ratio (z) = 0.36443 0.53515
#
# Static dielectric constant tensor:
#      x y z
#    x 1.746020 0.000000 -0.043650 
#    y 0.000000 1.734890 0.000000 
#    z -0.043650 0.000000 1.760050 
# 
# From -- ./inp_files/35645.got.cif
#   From: 2010.05.17/outbox.cif.g08.bks.cpg/sg15_18_cif.got.tgz:35645.got - 2010.06.03 18:47:42.
