data_PCOD9256953
_publ_section_title
;
Structure prediction by ZEFSAII (Michael W. Deem and Ramdas Pophale) SiO2 
 PCOD9256953
Probable space group: C 2/C
;
_chemical_formula_sum "Si O2"
_cell_formula_units_Z 56
_cell_length_a 11.534191
_cell_length_b 19.173041
_cell_length_c 18.289782
_cell_angle_alpha 90.000000
_cell_angle_beta 44.114291
_cell_angle_gamma 90.000000
_cell_volume 2815.485176
_symmetry_space_group_name_H-M "C 2/C"
_symmetry_group_IT_number 15
_symmetry_cell_setting 'monoclinic'
loop_
_space_group_symop_operation_xyz
x,y,z
-x,y,1/2-z
-x,-y,-z
x,-y,1/2+z
1/2+x,1/2+y,z
1/2-x,1/2+y,1/2-z
1/2-x,1/2-y,-z
1/2+x,1/2-y,1/2+z
loop_
_atom_site_type_symbol
_atom_site_label
_atom_site_fract_x
_atom_site_fract_y
_atom_site_fract_z
Si Si1 0.575736 0.958472 0.357383
Si Si2 0.261536 0.335417 0.645729
Si Si3 0.500000 0.280286 0.250000
Si Si4 0.000000 0.538075 0.250000
Si Si5 0.888125 0.860431 0.734297
Si Si6 0.039933 0.394745 0.950662
Si Si7 0.682360 0.634098 0.541663
Si Si8 0.550555 0.524986 0.809811
O O1 0.493074 0.900608 0.447306
O O2 0.769288 0.942677 0.252527
O O3 0.483548 0.987352 0.327339
O O4 0.586091 0.027206 0.403532
O O5 0.154232 0.408540 0.695966
O O6 0.395586 0.331385 0.649170
O O7 0.321535 0.330566 0.535450
O O8 0.139346 0.271841 0.716378
O O9 0.422139 0.323914 0.351170
O O10 0.698884 0.853153 0.849692
O O11 0.000000 0.833940 0.750000
O O12 0.935308 0.941738 0.698437
O O13 0.870392 0.373415 0.986328
O O14 0.594843 0.558228 0.575843
O O15 0.500000 0.543534 0.750000
#
# Coordination Sequence:
#
# PCOD9256953 Si02
#       8
#     8   8   4   4   8   8   8   8
#     4  10  18  30  49  80 116 162 183 233 295 352
#     4  11  22  38  56  86 115 151 203 246 296 345
#     4  11  24  40  62  90 118 150 199 264 296 335
#     4  11  18  34  48  80 122 150 191 244 280 339
#     4  10  22  38  57  85 123 158 193 241 292 366
#     4  10  18  32  57  79 114 157 194 233 298 357
#     4  12  21  37  64  88 117 154 201 254 297 347
#     4  10  18  33  54  86 123 151 191 236 295 357
#
# _framework density 19.889999
#
# number of rings (size 3 to 8) (size 9 to 14) (size 15 to 20)
#    0.000    1.429    6.429    1.286    2.000    0.571 
#    2.571    0.000    0.000    3.429    1.857    0.000 
#    0.000    0.000    0.000    0.000    0.000    0.000 
#
# Total GULP energy -156087.594204 kJ/mol
# GULP energy per Si atom -5574.556936 kJ/mol
# Density = 1.984473 g / cm^3
# Si number density = 19.889999 Si / 1000 Ang^3
#
#
#
# Elastic Constant Matrix: (Units=GPa)
#
#
# Indices 1 2 3 4 5 6 
#
# 1 103.9990 23.5601 48.9227 0.0011 8.1420 -0.0015
# 2 23.5601 31.6124 18.2292 -0.0010 -0.1983 0.0003
# 3 48.9227 18.2292 87.0775 -0.0022 -6.0978 0.0010
# 4 0.0011 -0.0010 -0.0022 7.3771 -0.0005 8.0649
# 5 8.1420 -0.1983 -6.0978 -0.0005 21.9626 0.0016
# 6 -0.0015 0.0003 0.0010 8.0649 0.0016 -11.1220
#
#
#
# Elastic Compliance Matrix: (Units=1/GPa)
#
#
# Indices 1 2 3 4 5 6 
#
# 1 0.015516 -0.007125 -0.007784 -0.000001 -0.007978 -0.000005
# 2 -0.007125 0.039318 -0.004098 0.000002 0.001859 0.000003
# 3 -0.007784 -0.004098 0.017250 0.000001 0.007638 0.000005
# 4 -0.000001 0.000002 0.000001 0.075613 -0.000001 0.054829
# 5 -0.007978 0.001859 0.007638 -0.000001 0.050627 0.000008
# 6 -0.000005 0.000003 0.000005 0.054829 0.000008 -0.050153
#
#
# Mechanical properties :
#
#
# Convention : Reuss Voigt Hill
#
# Bulk Modulus (GPa) = 29.35155 44.90145 37.12650
# Shear Modulus (GPa) = 25.31113 12.44202 18.87658
#
# Velocity S-wave (km/s) = 3.57116 2.50380 3.08401
# Velocity P-wave (km/s) = 5.63855 5.56620 5.60249
#
# Compressibility (1/GPa) = 0.03406975
#
# Stress axis : x y z
#
# Youngs Moduli (GPa) = 64.44932 25.43370 57.97003
#
# Poissons Ratio (x) = 0.18121 0.45126
# Poissons Ratio (y) = 0.45920 0.23755
# Poissons Ratio (z) = 0.50170 0.10422
#
# Static dielectric constant tensor:
#      x y z
#    x 1.715120 0.000000 -0.008850 
#    y 0.000000 1.735270 0.000000 
#    z -0.008850 0.000000 1.762880 
# 
# From -- ./inp_files/199489.got.cif
#   From: 2010.05.17/outbox.cif.g08.bks.cpg/sg15_100_cif.got.tgz:199489.got - 2010.06.03 18:47:42.
