data_PCOD9256239
_publ_section_title
;
Structure prediction by ZEFSAII (Michael W. Deem and Ramdas Pophale) SiO2 
 PCOD9256239
Probable space group: C 2/C
;
_chemical_formula_sum "Si O2"
_cell_formula_units_Z 60
_cell_length_a 22.004774
_cell_length_b 9.956784
_cell_length_c 21.249323
_cell_angle_alpha 90.000000
_cell_angle_beta 133.950714
_cell_angle_gamma 90.000000
_cell_volume 3351.781035
_symmetry_space_group_name_H-M "C 2/C"
_symmetry_group_IT_number 15
_symmetry_cell_setting 'monoclinic'
loop_
_space_group_symop_operation_xyz
x,y,z
-x,y,1/2-z
-x,-y,-z
x,-y,1/2+z
1/2+x,1/2+y,z
1/2-x,1/2+y,1/2-z
1/2-x,1/2-y,-z
1/2+x,1/2-y,1/2+z
loop_
_atom_site_type_symbol
_atom_site_label
_atom_site_fract_x
_atom_site_fract_y
_atom_site_fract_z
Si Si1 0.500000 0.904341 0.750000
Si Si2 0.564293 0.495186 0.987721
Si Si3 0.334710 0.842105 0.820380
Si Si4 0.260165 0.421837 0.323525
Si Si5 0.521603 0.224009 0.399504
Si Si6 0.077471 0.482821 0.507652
Si Si7 0.615796 0.157578 0.810728
Si Si8 0.542043 0.242456 0.881428
O O1 0.481074 0.816171 0.675287
O O2 0.576686 0.008187 0.792204
O O3 0.548022 0.626200 0.934463
O O4 0.550087 0.368122 0.932574
O O5 0.500000 0.500000 0.000000
O O6 0.655970 0.480941 0.084575
O O7 0.285328 0.702073 0.795519
O O8 0.427065 0.805866 0.858336
O O9 0.289214 0.956452 0.746215
O O10 0.350547 0.911330 0.900000
O O11 0.202442 0.358161 0.336779
O O12 0.587542 0.127918 0.483863
O O13 0.050249 0.387107 0.431420
O O14 0.000000 0.500000 0.500000
O O15 0.610740 0.229279 0.874869
O O16 0.548355 0.233853 0.717837
#
# Coordination Sequence:
#
# PCOD9256239 Si02
#       8
#     4   8   8   8   8   8   8   8
#     4  10  18  40  64  94 116 166 216 246 298 386
#     4  12  25  41  60  96 136 159 202 267 323 363
#     4  11  24  39  61  96 126 164 213 263 320 365
#     4  12  25  42  63  96 130 164 208 272 317 369
#     4  11  21  40  67  88 125 170 207 253 311 388
#     4  10  17  35  62  88 115 161 212 245 299 376
#     4  10  21  39  71  88 123 169 219 252 299 386
#     4  10  20  41  64  93 121 166 213 250 313 371
#
# _framework density 17.900931
#
# number of rings (size 3 to 8) (size 9 to 14) (size 15 to 20)
#    0.000    1.333    6.667    1.600    3.733    1.600 
#    0.000    0.667    0.000    0.000    0.000    0.000 
#    0.000    0.000    0.000    0.000    0.000    0.000 
#
# Total GULP energy -167351.577746 kJ/mol
# GULP energy per Si atom -5578.385925 kJ/mol
# Density = 1.786019 g / cm^3
# Si number density = 17.900931 Si / 1000 Ang^3
#
#
#
# Elastic Constant Matrix: (Units=GPa)
#
#
# Indices 1 2 3 4 5 6 
#
# 1 75.2038 21.2294 37.9453 0.0000 -4.7657 0.0000
# 2 21.2294 88.5641 14.4699 0.0000 3.6070 0.0000
# 3 37.9453 14.4699 61.4790 0.0000 -3.3142 0.0000
# 4 0.0000 0.0000 0.0000 34.8553 0.0000 -7.2062
# 5 -4.7657 3.6070 -3.3142 0.0000 29.3914 0.0000
# 6 0.0000 0.0000 0.0000 -7.2062 0.0000 23.9272
#
#
#
# Elastic Compliance Matrix: (Units=1/GPa)
#
#
# Indices 1 2 3 4 5 6 
#
# 1 0.020153 -0.003031 -0.011600 0.000000 0.002332 0.000000
# 2 -0.003031 0.012290 -0.001137 0.000000 -0.002128 0.000000
# 3 -0.011600 -0.001137 0.023743 0.000000 0.000936 0.000000
# 4 0.000000 0.000000 0.000000 0.030595 0.000000 0.009214
# 5 0.002332 -0.002128 0.000936 0.000000 0.034768 0.000000
# 6 0.000000 0.000000 0.000000 0.009214 0.000000 0.044569
#
#
# Mechanical properties :
#
#
# Convention : Reuss Voigt Hill
#
# Bulk Modulus (GPa) = 40.56436 41.39289 40.97863
# Shear Modulus (GPa) = 24.28712 27.74161 26.01436
#
# Velocity S-wave (km/s) = 3.68741 3.94093 3.81628
# Velocity P-wave (km/s) = 6.39054 6.62431 6.50847
#
# Compressibility (1/GPa) = 0.02465218
#
# Stress axis : x y z
#
# Youngs Moduli (GPa) = 49.61952 81.36614 42.11731
#
# Poissons Ratio (x) = 0.24659 0.48855
# Poissons Ratio (y) = 0.15038 0.04788
# Poissons Ratio (z) = 0.57558 0.09250
#
# Static dielectric constant tensor:
#      x y z
#    x 1.613600 0.000000 -0.001610 
#    y 0.000000 1.552510 0.000000 
#    z -0.001610 0.000000 1.611810 
# 
# From -- ./inp_files/281681.got.cif
#   From: 2010.05.17/outbox.cif.g08.bks.cpg/sg15_141_cif.got.tgz:281681.got - 2010.06.03 18:47:42.
