data_PCOD9256647
_publ_section_title
;
Structure prediction by ZEFSAII (Michael W. Deem and Ramdas Pophale) SiO2 
 PCOD9256647
Probable space group: C 2/C
;
_chemical_formula_sum "Si O2"
_cell_formula_units_Z 48
_cell_length_a 8.531107
_cell_length_b 16.826277
_cell_length_c 17.693382
_cell_angle_alpha 90.000000
_cell_angle_beta 115.204762
_cell_angle_gamma 90.000000
_cell_volume 2298.015041
_symmetry_space_group_name_H-M "C 2/C"
_symmetry_group_IT_number 15
_symmetry_cell_setting 'monoclinic'
loop_
_space_group_symop_operation_xyz
x,y,z
-x,y,1/2-z
-x,-y,-z
x,-y,1/2+z
1/2+x,1/2+y,z
1/2-x,1/2+y,1/2-z
1/2-x,1/2-y,-z
1/2+x,1/2-y,1/2+z
loop_
_atom_site_type_symbol
_atom_site_label
_atom_site_fract_x
_atom_site_fract_y
_atom_site_fract_z
Si Si1 0.500000 0.301603 0.750000
Si Si2 0.725296 0.165733 0.085978
Si Si3 0.776089 0.355387 0.083049
Si Si4 0.145015 0.337364 0.180589
Si Si5 0.536155 0.451860 0.429207
Si Si6 0.000000 0.061268 0.750000
Si Si7 0.841447 0.669751 0.993309
O O1 0.628304 0.355052 0.824848
O O2 0.377158 0.241968 0.773887
O O3 0.764268 0.259819 0.083052
O O4 0.743213 0.122459 0.009189
O O5 0.527183 0.156940 0.070042
O O6 0.617226 0.387255 0.097260
O O7 0.960815 0.382806 0.154354
O O8 0.324528 0.384662 0.222825
O O9 0.124450 0.315755 0.088248
O O10 0.500000 0.500000 0.500000
O O11 0.523621 0.479648 0.338337
O O12 0.717628 0.405821 0.476054
O O13 0.750000 0.750000 0.000000
#
# Coordination Sequence:
#
# PCOD9256647 Si02
#       7
#     4   8   8   8   8   4   8
#     4  10  18  28  49  88 124 149 188 242 312 356
#     4   9  17  31  53  84 115 153 189 240 297 362
#     4   9  17  34  56  82 112 150 198 237 301 356
#     4   9  19  30  55  87 112 151 198 253 287 351
#     4  11  23  38  62  88 117 162 204 255 309 366
#     4  10  20  38  57  88 112 153 214 252 290 366
#     4  10  19  34  57  83 117 154 200 250 306 362
#
# _framework density 20.887592000000001
#
# number of rings (size 3 to 8) (size 9 to 14) (size 15 to 20)
#    0.000    2.333    1.667    3.000    2.333    0.000 
#    0.000    8.333    0.000    2.000    0.000    0.000 
#    0.000    0.000    0.000    0.000    0.000    0.000 
#
# Total GULP energy -133634.331096 kJ/mol
# GULP energy per Si atom -5568.097129 kJ/mol
# Density = 2.084005 g / cm^3
# Si number density = 20.887592 Si / 1000 Ang^3
#
#
#
# Elastic Constant Matrix: (Units=GPa)
#
#
# Indices 1 2 3 4 5 6 
#
# 1 129.9720 31.4521 60.9662 0.0000 22.4194 0.0000
# 2 31.4521 49.0015 33.9332 0.0000 -4.8593 0.0000
# 3 60.9662 33.9332 173.3028 0.0000 13.0415 0.0000
# 4 0.0000 0.0000 0.0000 8.3465 0.0000 -9.0540
# 5 22.4194 -4.8593 13.0415 0.0000 44.9226 0.0000
# 6 0.0000 0.0000 0.0000 -9.0540 0.0000 17.1256
#
#
#
# Elastic Compliance Matrix: (Units=1/GPa)
#
#
# Indices 1 2 3 4 5 6 
#
# 1 0.011243 -0.006160 -0.002327 0.000000 -0.005601 0.000000
# 2 -0.006160 0.027702 -0.003797 0.000000 0.007173 0.000000
# 3 -0.002327 -0.003797 0.007438 0.000000 -0.001409 0.000000
# 4 0.000000 0.000000 0.000000 0.280913 0.000000 0.148514
# 5 -0.005601 0.007173 -0.001409 0.000000 0.026241 0.000000
# 6 0.000000 0.000000 0.000000 0.148514 0.000000 0.136910
#
#
# Mechanical properties :
#
#
# Convention : Reuss Voigt Hill
#
# Bulk Modulus (GPa) = 45.84089 67.21991 56.53040
# Shear Modulus (GPa) = 9.57329 29.14061 19.35695
#
# Velocity S-wave (km/s) = 2.14317 3.73918 3.04751
# Velocity P-wave (km/s) = 5.30268 7.13397 6.28538
#
# Compressibility (1/GPa) = 0.02181459
#
# Stress axis : x y z
#
# Youngs Moduli (GPa) = 88.94802 36.09843 134.43676
#
# Poissons Ratio (x) = 0.22236 0.31288
# Poissons Ratio (y) = 0.54791 0.51045
# Poissons Ratio (z) = 0.20701 0.13706
#
# Static dielectric constant tensor:
#      x y z
#    x 1.841190 0.000000 -0.013280 
#    y 0.000000 1.752720 0.000000 
#    z -0.013280 0.000000 1.886080 
# 
# From -- ./inp_files/191791.got.cif
#   From: 2010.05.17/outbox.cif.g08.bks.cpg/sg15_96_cif.got.tgz:191791.got - 2010.06.03 18:47:42.
