data_PCOD9256258
_publ_section_title
;
Structure prediction by ZEFSAII (Michael W. Deem and Ramdas Pophale) SiO2 
 PCOD9256258
Probable space group: C 2/C
;
_chemical_formula_sum "Si O2"
_cell_formula_units_Z 56
_cell_length_a 13.777863
_cell_length_b 14.677029
_cell_length_c 17.986695
_cell_angle_alpha 90.000000
_cell_angle_beta 137.796117
_cell_angle_gamma 90.000000
_cell_volume 2443.388371
_symmetry_space_group_name_H-M "C 2/C"
_symmetry_group_IT_number 15
_symmetry_cell_setting 'monoclinic'
loop_
_space_group_symop_operation_xyz
x,y,z
-x,y,1/2-z
-x,-y,-z
x,-y,1/2+z
1/2+x,1/2+y,z
1/2-x,1/2+y,1/2-z
1/2-x,1/2-y,-z
1/2+x,1/2-y,1/2+z
loop_
_atom_site_type_symbol
_atom_site_label
_atom_site_fract_x
_atom_site_fract_y
_atom_site_fract_z
Si Si1 0.404202 0.834940 0.832194
Si Si2 0.639631 0.109341 0.932550
Si Si3 0.331100 0.971372 0.281881
Si Si4 0.527843 0.593223 0.555343
Si Si5 0.387578 0.307111 0.105660
Si Si6 0.312299 0.936697 0.442933
Si Si7 0.314832 0.733223 0.922043
O O1 0.476865 0.762152 0.817876
O O2 0.302664 0.782732 0.834276
O O3 0.330495 0.923465 0.754056
O O4 0.544356 0.879047 0.953865
O O5 0.472654 0.080168 0.832861
O O6 0.705002 0.159410 0.896799
O O7 0.664751 0.185351 0.009279
O O8 0.707082 0.016601 0.006422
O O9 0.188118 0.918129 0.179516
O O10 0.335822 0.975975 0.374293
O O11 0.500000 0.500000 0.500000
O O12 0.423228 0.621563 0.560792
O O13 0.537464 0.676101 0.503166
O O14 0.325920 0.370055 0.136155
O O15 0.250000 0.250000 0.000000
#
# Coordination Sequence:
#
# PCOD9256258 Si02
#       7
#     8   8   8   8   8   8   8
#     4   9  17  37  62  96 120 161 201 251 306 370
#     4  10  19  35  66  94 120 163 196 259 311 369
#     4  11  21  38  63  88 124 161 210 251 303 373
#     4  11  25  43  57  85 127 169 203 255 314 363
#     4   9  20  38  65  89 122 158 204 254 307 360
#     4  10  17  35  64  93 121 158 204 250 307 363
#     4  10  19  37  61  91 128 153 209 248 312 367
#
# _framework density 22.918991999999999
#
# number of rings (size 3 to 8) (size 9 to 14) (size 15 to 20)
#    0.000    2.000    2.857    1.714    0.000    1.143 
#    5.143    1.429    3.143    0.000    0.000    0.000 
#    0.000    0.000    0.000    0.000    0.000    0.000 
#
# Total GULP energy -156222.071499 kJ/mol
# GULP energy per Si atom -5579.359696 kJ/mol
# Density = 2.286683 g / cm^3
# Si number density = 22.918992 Si / 1000 Ang^3
#
#
#
# Elastic Constant Matrix: (Units=GPa)
#
#
# Indices 1 2 3 4 5 6 
#
# 1 140.2378 62.2907 26.1578 0.0000 2.8235 0.0000
# 2 62.2907 146.1635 32.4966 0.0000 3.5883 0.0000
# 3 26.1578 32.4966 39.7098 0.0001 2.2467 0.0000
# 4 0.0000 0.0000 0.0001 59.3374 0.0000 -7.6507
# 5 2.8235 3.5883 2.2467 0.0000 12.9444 0.0000
# 6 0.0000 0.0000 0.0000 -7.6507 0.0000 68.0967
#
#
#
# Elastic Compliance Matrix: (Units=1/GPa)
#
#
# Indices 1 2 3 4 5 6 
#
# 1 0.009176 -0.003130 -0.003453 0.000000 -0.000535 0.000000
# 2 -0.003130 0.009447 -0.005615 0.000000 -0.000962 0.000000
# 3 -0.003453 -0.005615 0.032238 0.000000 -0.003286 0.000000
# 4 0.000000 0.000000 0.000000 0.017100 0.000000 0.001921
# 5 -0.000535 -0.000962 -0.003286 0.000000 0.078207 0.000000
# 6 0.000000 0.000000 0.000000 0.001921 0.000000 0.014901
#
#
# Mechanical properties :
#
#
# Convention : Reuss Voigt Hill
#
# Bulk Modulus (GPa) = 37.78458 63.11127 50.44792
# Shear Modulus (GPa) = 25.73509 41.75344 33.74426
#
# Velocity S-wave (km/s) = 3.35456 4.27287 3.84125
# Velocity P-wave (km/s) = 5.61481 7.20692 6.46010
#
# Compressibility (1/GPa) = 0.02646582
#
# Stress axis : x y z
#
# Youngs Moduli (GPa) = 108.98402 105.84817 31.01886
#
# Poissons Ratio (x) = 0.33126 0.10710
# Poissons Ratio (y) = 0.34108 0.17418
# Poissons Ratio (z) = 0.37631 0.59438
#
# Static dielectric constant tensor:
#      x y z
#    x 1.876550 0.000000 -0.016820 
#    y 0.000000 1.931660 0.000000 
#    z -0.016820 0.000000 1.917760 
# 
# From -- ./inp_files/244574.got.cif
#   From: 2010.05.17/outbox.cif.g08.bks.cpg/sg15_123_cif.got.tgz:244574.got - 2010.06.03 18:47:42.
