data_PCOD9256815
_publ_section_title
;
Structure prediction by ZEFSAII (Michael W. Deem and Ramdas Pophale) SiO2 
 PCOD9256815
Probable space group: C 2/C
;
_chemical_formula_sum "Si O2"
_cell_formula_units_Z 60
_cell_length_a 24.311956
_cell_length_b 8.212086
_cell_length_c 27.071904
_cell_angle_alpha 90.000000
_cell_angle_beta 149.801596
_cell_angle_gamma 90.000000
_cell_volume 2718.670732
_symmetry_space_group_name_H-M "C 2/C"
_symmetry_group_IT_number 15
_symmetry_cell_setting 'monoclinic'
loop_
_space_group_symop_operation_xyz
x,y,z
-x,y,1/2-z
-x,-y,-z
x,-y,1/2+z
1/2+x,1/2+y,z
1/2-x,1/2+y,1/2-z
1/2-x,1/2-y,-z
1/2+x,1/2-y,1/2+z
loop_
_atom_site_type_symbol
_atom_site_label
_atom_site_fract_x
_atom_site_fract_y
_atom_site_fract_z
Si Si1 0.789881 0.693508 0.159963
Si Si2 0.597513 0.775947 0.166034
Si Si3 0.562147 0.236904 0.457889
Si Si4 0.000000 0.736328 0.750000
Si Si5 0.495511 0.015155 0.323221
Si Si6 0.334210 0.576951 0.190679
Si Si7 0.673357 0.232382 0.198599
Si Si8 0.896721 0.392769 0.958296
O O1 0.888624 0.590416 0.214243
O O2 0.791571 0.667980 0.220486
O O3 0.817409 0.884014 0.172678
O O4 0.669275 0.655712 0.047207
O O5 0.616249 0.623232 0.217091
O O6 0.716365 0.815908 0.235709
O O7 0.553260 0.911367 0.169294
O O8 0.500033 0.777524 0.050349
O O9 0.557368 0.161335 0.398803
O O10 0.445082 0.311909 0.381303
O O11 0.579466 0.078527 0.506957
O O12 0.949026 0.614509 0.669346
O O13 0.088614 0.845621 0.790639
O O14 0.212361 0.654528 0.095886
O O15 0.640098 0.117089 0.126990
#
# Coordination Sequence:
#
# PCOD9256815 Si02
#       8
#     8   8   8   4   8   8   8   8
#     4  10  20  35  53  82 116 143 179 227 273 329
#     4   9  18  34  54  82 115 149 187 220 258 324
#     4   9  18  34  54  80 116 153 184 221 269 326
#     4  10  20  42  64  78 102 138 184 238 286 338
#     4   9  20  37  58  80 108 145 184 230 282 326
#     4   9  20  36  57  82 108 140 182 233 282 323
#     4  10  18  29  52  81 112 151 182 212 260 314
#     4   9  17  33  55  80 111 150 189 220 262 327
#
# _framework density 22.069610000000001
#
# number of rings (size 3 to 8) (size 9 to 14) (size 15 to 20)
#    0.000    2.667    0.000    1.200    0.000    9.067 
#    0.000   20.667    0.000    0.000    0.000    0.000 
#    0.000    0.000    0.000    0.000    0.000    0.000 
#
# Total GULP energy -167141.821294 kJ/mol
# GULP energy per Si atom -5571.394043 kJ/mol
# Density = 2.201938 g / cm^3
# Si number density = 22.069610 Si / 1000 Ang^3
#
#
#
# Elastic Constant Matrix: (Units=GPa)
#
#
# Indices 1 2 3 4 5 6 
#
# 1 112.5271 39.1006 59.1265 0.0000 9.5835 0.0000
# 2 39.1006 32.6082 18.2813 0.0001 4.6974 0.0002
# 3 59.1265 18.2813 112.9045 0.0000 18.0191 0.0000
# 4 0.0000 0.0001 0.0000 31.6126 0.0000 -2.3967
# 5 9.5835 4.6974 18.0191 0.0000 23.9507 0.0000
# 6 0.0000 0.0002 0.0000 -2.3967 0.0000 20.5722
#
#
#
# Elastic Compliance Matrix: (Units=1/GPa)
#
#
# Indices 1 2 3 4 5 6 
#
# 1 0.019219 -0.019230 -0.007189 0.000000 0.001490 0.000000
# 2 -0.019230 0.053142 0.002161 0.000000 -0.004353 0.000000
# 3 -0.007189 0.002161 0.013502 0.000000 -0.007705 0.000000
# 4 0.000000 0.000000 0.000000 0.031915 0.000000 0.003718
# 5 0.001490 -0.004353 -0.007705 0.000000 0.047807 0.000000
# 6 0.000000 0.000000 0.000000 0.003718 0.000000 0.049042
#
#
# Mechanical properties :
#
#
# Convention : Reuss Voigt Hill
#
# Bulk Modulus (GPa) = 26.77663 54.56187 40.66925
# Shear Modulus (GPa) = 18.14275 24.66254 21.40265
#
# Velocity S-wave (km/s) = 2.87029 3.34651 3.11751
# Velocity P-wave (km/s) = 4.81081 6.30147 5.60591
#
# Compressibility (1/GPa) = 0.03734600
#
# Stress axis : x y z
#
# Youngs Moduli (GPa) = 52.03113 18.81759 74.06522
#
# Poissons Ratio (x) = 0.36186 0.53245
# Poissons Ratio (y) = 1.00056 -0.16003
# Poissons Ratio (z) = 0.37405 -0.04066
#
# Static dielectric constant tensor:
#      x y z
#    x 1.817810 0.000000 -0.001090 
#    y 0.000000 1.854470 0.000000 
#    z -0.001090 0.000000 1.882140 
# 
# From -- ./inp_files/302084.got.cif
#   From: 2010.05.17/outbox.cif.g08.bks.cpg/sg15_152_cif.got.tgz:302084.got - 2010.06.03 18:47:42.
