data_PCOD9256507
_publ_section_title
;
Structure prediction by ZEFSAII (Michael W. Deem and Ramdas Pophale) SiO2 
 PCOD9256507
Probable space group: C 2/C
;
_chemical_formula_sum "Si O2"
_cell_formula_units_Z 44
_cell_length_a 8.150380
_cell_length_b 13.903328
_cell_length_c 18.705205
_cell_angle_alpha 90.000000
_cell_angle_beta 127.191762
_cell_angle_gamma 90.000000
_cell_volume 1688.529221
_symmetry_space_group_name_H-M "C 2/C"
_symmetry_group_IT_number 15
_symmetry_cell_setting 'monoclinic'
loop_
_space_group_symop_operation_xyz
x,y,z
-x,y,1/2-z
-x,-y,-z
x,-y,1/2+z
1/2+x,1/2+y,z
1/2-x,1/2+y,1/2-z
1/2-x,1/2-y,-z
1/2+x,1/2-y,1/2+z
loop_
_atom_site_type_symbol
_atom_site_label
_atom_site_fract_x
_atom_site_fract_y
_atom_site_fract_z
Si Si1 0.660806 0.788236 0.580975
Si Si2 0.319119 0.801094 0.378412
Si Si3 0.516035 0.403044 0.414804
Si Si4 0.648068 0.892805 0.886913
Si Si5 0.000000 0.115854 0.250000
Si Si6 0.702023 0.030265 0.731063
O O1 0.545105 0.808813 0.475186
O O2 0.629917 0.676344 0.588063
O O3 0.503373 0.834542 0.598432
O O4 0.896233 0.817817 0.660676
O O5 0.237869 0.690446 0.358014
O O6 0.308033 0.861670 0.302463
O O7 0.159635 0.855243 0.390622
O O8 0.672795 0.434732 0.516475
O O9 0.365430 0.476687 0.337945
O O10 0.517013 0.980384 0.822708
O O11 0.815049 0.040311 0.206239
#
# Coordination Sequence:
#
# PCOD9256507 Si02
#       6
#     8   8   8   8   4   8
#     4   8  17  29  45  67 107 137 165 220 278 317
#     4   9  16  30  45  72 112 140 169 226 283 320
#     4   9  16  30  45  74 104 138 172 214 274 327
#     4   8  18  29  44  76 113 137 172 226 279 323
#     4  10  18  26  44  82  94 126 180 224 254 330
#     4  11  18  26  52  83 100 136 183 228 263 329
#
# _framework density 26.058181999999999
#
# number of rings (size 3 to 8) (size 9 to 14) (size 15 to 20)
#    0.000    2.909    1.818    2.182    2.545    2.182 
#    0.000    0.000    0.000    1.091   28.364    2.545 
#   10.909    0.364    0.000    0.000    0.000    0.000 
#
# Total GULP energy -122838.532632 kJ/mol
# GULP energy per Si atom -5583.569665 kJ/mol
# Density = 2.599887 g / cm^3
# Si number density = 26.058182 Si / 1000 Ang^3
#
#
#
# Elastic Constant Matrix: (Units=GPa)
#
#
# Indices 1 2 3 4 5 6 
#
# 1 61.6073 24.9349 22.2483 0.0000 17.1482 0.0000
# 2 24.9349 91.6669 93.9004 0.0000 14.5939 0.0000
# 3 22.2483 93.9004 164.0395 0.0000 10.5735 0.0000
# 4 0.0000 0.0000 0.0000 47.4854 0.0000 19.8867
# 5 17.1482 14.5939 10.5735 0.0000 36.7392 0.0000
# 6 0.0000 0.0000 0.0000 19.8867 0.0000 4.1234
#
#
#
# Elastic Compliance Matrix: (Units=1/GPa)
#
#
# Indices 1 2 3 4 5 6 
#
# 1 0.020105 -0.004748 0.000484 0.000000 -0.007637 0.000000
# 2 -0.004748 0.028982 -0.015637 0.000000 -0.004796 0.000000
# 3 0.000484 -0.015637 0.014872 0.000000 0.001706 0.000000
# 4 0.000000 0.000000 0.000000 -0.020650 0.000000 0.099592
# 5 -0.007637 -0.004796 0.001706 0.000000 0.032198 0.000000
# 6 0.000000 0.000000 0.000000 0.099592 0.000000 -0.237806
#
#
# Mechanical properties :
#
#
# Convention : Reuss Voigt Hill
#
# Bulk Modulus (GPa) = 41.39921 66.60899 54.00410
# Shear Modulus (GPa) = -43.68959 29.41827 -7.13566
#
# Velocity S-wave (km/s) = -4.09909 3.36362 -1.65659
# Velocity P-wave (km/s) = 2.54592 6.37984 4.13647
#
# Compressibility (1/GPa) = 0.02415505
#
# Stress axis : x y z
#
# Youngs Moduli (GPa) = 49.73939 34.50382 67.24217
#
# Poissons Ratio (x) = 0.16383 -0.03251
# Poissons Ratio (y) = 0.23618 1.05147
# Poissons Ratio (z) = -0.02405 0.53954
#
# Static dielectric constant tensor:
#      x y z
#    x 2.166760 0.000000 -0.029460 
#    y 0.000000 1.987470 0.000000 
#    z -0.029460 0.000000 2.060190 
# 
# From -- ./inp_files/142915.got.cif
#   From: 2010.05.17/outbox.cif.g08.bks.cpg/sg15_72_cif.got.tgz:142915.got - 2010.06.03 18:47:42.
