data_PCOD9256794
_publ_section_title
;
Structure prediction by ZEFSAII (Michael W. Deem and Ramdas Pophale) SiO2 
 PCOD9256794
Probable space group: C 2/C
;
_chemical_formula_sum "Si O2"
_cell_formula_units_Z 52
_cell_length_a 26.007425
_cell_length_b 17.060009
_cell_length_c 5.962304
_cell_angle_alpha 90.000000
_cell_angle_beta 94.746039
_cell_angle_gamma 90.000000
_cell_volume 2636.325737
_symmetry_space_group_name_H-M "C 2/C"
_symmetry_group_IT_number 15
_symmetry_cell_setting 'monoclinic'
loop_
_space_group_symop_operation_xyz
x,y,z
-x,y,1/2-z
-x,-y,-z
x,-y,1/2+z
1/2+x,1/2+y,z
1/2-x,1/2+y,1/2-z
1/2-x,1/2-y,-z
1/2+x,1/2-y,1/2+z
loop_
_atom_site_type_symbol
_atom_site_label
_atom_site_fract_x
_atom_site_fract_y
_atom_site_fract_z
Si Si1 0.779413 0.681988 0.632399
Si Si2 0.196831 0.930581 0.341183
Si Si3 0.144821 0.805456 0.655330
Si Si4 0.100010 0.917246 0.023733
Si Si5 0.796829 0.471791 0.935277
Si Si6 0.000000 0.924967 0.750000
Si Si7 0.453420 0.686181 0.615847
O O1 0.750000 0.750000 0.500000
O O2 0.737411 0.630312 0.746033
O O3 0.819722 0.730394 0.792697
O O4 0.802936 0.621095 0.463304
O O5 0.171942 0.874574 0.522084
O O6 0.148655 0.958025 0.165880
O O7 0.236276 0.000596 0.416827
O O8 0.094382 0.772132 0.513258
O O9 0.125423 0.852428 0.868453
O O10 0.071396 0.868927 0.205443
O O11 0.052548 0.962601 0.877947
O O12 0.816036 0.503330 0.190668
O O13 0.022739 0.869457 0.566001
O O14 0.500000 0.731931 0.750000
#
# Coordination Sequence:
#
# PCOD9256794 Si02
#       7
#     8   8   8   8   8   4   8
#     4  11  20  34  53  77 108 141 189 231 273 323
#     4  10  20  33  52  73 110 148 187 224 276 327
#     4  10  18  29  50  76 107 143 186 230 275 320
#     4   9  16  28  46  75 105 140 180 224 276 319
#     4  10  23  39  54  75 106 148 188 227 274 328
#     4   8  14  26  46  70 106 138 174 224 270 322
#     4   8  15  27  44  71 107 140 172 222 279 324
#
# _framework density 19.724419999999999
#
# number of rings (size 3 to 8) (size 9 to 14) (size 15 to 20)
#    0.000    2.462    1.538    1.385    2.154    1.231 
#    0.000    0.000    0.000    0.000    0.000    4.308 
#    4.615    7.385    0.000    4.615    0.000    0.000 
#
# Total GULP energy -144797.995507 kJ/mol
# GULP energy per Si atom -5569.153673 kJ/mol
# Density = 1.967953 g / cm^3
# Si number density = 19.724420 Si / 1000 Ang^3
#
#
#
# Elastic Constant Matrix: (Units=GPa)
#
#
# Indices 1 2 3 4 5 6 
#
# 1 99.4573 31.6948 39.8800 0.0000 24.5035 0.0000
# 2 31.6948 86.0588 29.9323 0.0000 29.8676 0.0000
# 3 39.8800 29.9323 110.5285 0.0000 12.1472 0.0000
# 4 0.0000 0.0000 0.0000 20.4292 0.0000 6.5911
# 5 24.5035 29.8676 12.1472 0.0000 42.3497 0.0000
# 6 0.0000 0.0000 0.0000 6.5911 0.0000 17.4591
#
#
#
# Elastic Compliance Matrix: (Units=1/GPa)
#
#
# Indices 1 2 3 4 5 6 
#
# 1 0.013481 -0.001744 -0.003789 0.000000 -0.005483 0.000000
# 2 -0.001744 0.016692 -0.002796 0.000000 -0.009961 0.000000
# 3 -0.003789 -0.002796 0.011063 0.000000 0.000991 0.000000
# 4 0.000000 0.000000 0.000000 0.055738 0.000000 -0.021042
# 5 -0.005483 -0.009961 0.000991 0.000000 0.033526 0.000000
# 6 0.000000 0.000000 0.000000 -0.021042 0.000000 0.065221
#
#
# Mechanical properties :
#
#
# Convention : Reuss Voigt Hill
#
# Bulk Modulus (GPa) = 40.68916 55.45097 48.07007
# Shear Modulus (GPa) = 22.66837 29.01677 25.84257
#
# Velocity S-wave (km/s) = 3.39374 3.83966 3.62357
# Velocity P-wave (km/s) = 6.00252 6.91601 6.47540
#
# Compressibility (1/GPa) = 0.02457657
#
# Stress axis : x y z
#
# Youngs Moduli (GPa) = 74.18120 59.90915 90.39198
#
# Poissons Ratio (x) = 0.10448 0.34250
# Poissons Ratio (y) = 0.12937 0.25277
# Poissons Ratio (z) = 0.28108 0.16753
#
# Static dielectric constant tensor:
#      x y z
#    x 1.711890 0.000000 0.040940 
#    y 0.000000 2.157970 0.000000 
#    z 0.040940 0.000000 1.878460 
# 
# From -- ./inp_files/17099.got.cif
#   From: 2010.05.17/outbox.cif.g08.bks.cpg/sg15_9_cif.got.tgz:17099.got - 2010.06.03 18:47:42.
