data_PCOD9256437
_publ_section_title
;
Structure prediction by ZEFSAII (Michael W. Deem and Ramdas Pophale) SiO2 
 PCOD9256437
Probable space group: C 2/C
;
_chemical_formula_sum "Si O2"
_cell_formula_units_Z 52
_cell_length_a 15.618719
_cell_length_b 27.809881
_cell_length_c 10.076042
_cell_angle_alpha 90.000000
_cell_angle_beta 141.249103
_cell_angle_gamma 90.000000
_cell_volume 2739.455313
_symmetry_space_group_name_H-M "C 2/C"
_symmetry_group_IT_number 15
_symmetry_cell_setting 'monoclinic'
loop_
_space_group_symop_operation_xyz
x,y,z
-x,y,1/2-z
-x,-y,-z
x,-y,1/2+z
1/2+x,1/2+y,z
1/2-x,1/2+y,1/2-z
1/2-x,1/2-y,-z
1/2+x,1/2-y,1/2+z
loop_
_atom_site_type_symbol
_atom_site_label
_atom_site_fract_x
_atom_site_fract_y
_atom_site_fract_z
Si Si1 0.598034 0.495718 0.243421
Si Si2 0.004482 0.293204 0.535032
Si Si3 0.500000 0.662183 0.250000
Si Si4 0.500000 0.847846 0.250000
Si Si5 0.180843 0.796368 0.194234
Si Si6 0.727867 0.591904 0.478684
Si Si7 0.500000 0.867496 0.750000
Si Si8 0.233839 0.097425 0.805904
O O1 0.500000 0.498896 0.250000
O O2 0.703253 0.540116 0.383726
O O3 0.666693 0.444198 0.309442
O O4 0.500000 0.500000 0.000000
O O5 0.841858 0.285264 0.366821
O O6 0.014181 0.315288 0.398930
O O7 0.096347 0.245922 0.659626
O O8 0.056784 0.332165 0.704655
O O9 0.601880 0.694202 0.459951
O O10 0.599215 0.626468 0.287821
O O11 0.633431 0.881302 0.393514
O O12 0.175262 0.848794 0.255826
O O13 0.724987 0.587742 0.636658
O O14 0.389239 0.898792 0.540722
#
# Coordination Sequence:
#
# PCOD9256437 Si02
#       8
#     8   8   4   4   8   8   4   8
#     4  12  23  43  70  99 129 169 220 269 324 394
#     4  11  24  40  65  93 135 168 226 262 327 390
#     4  10  17  38  64  85 133 176 196 275 330 378
#     4  12  23  41  66 106 128 172 217 277 322 392
#     4  10  22  40  61  94 130 174 214 273 320 391
#     4  11  22  42  67  97 137 165 218 272 333 381
#     4  10  22  47  62  85 133 176 207 278 328 396
#     4  10  22  45  64  90 134 174 213 277 333 385
#
# _framework density 18.981876
#
# number of rings (size 3 to 8) (size 9 to 14) (size 15 to 20)
#    0.000    1.231    6.923    1.385    2.154    5.538 
#    4.154    1.538    0.000    0.000    0.000    0.000 
#    0.000    0.000    0.000    0.000    0.000    0.000 
#
# Total GULP energy -145094.501659 kJ/mol
# GULP energy per Si atom -5580.557756 kJ/mol
# Density = 1.893867 g / cm^3
# Si number density = 18.981876 Si / 1000 Ang^3
#
#
#
# Elastic Constant Matrix: (Units=GPa)
#
#
# Indices 1 2 3 4 5 6 
#
# 1 51.9076 33.6989 14.3015 0.0000 13.9544 0.0000
# 2 33.6989 102.6396 21.1654 0.0000 18.7568 0.0000
# 3 14.3015 21.1654 84.5642 0.0000 0.8472 0.0000
# 4 0.0000 0.0000 0.0000 19.5743 0.0000 1.6746
# 5 13.9544 18.7568 0.8472 0.0000 39.1619 0.0000
# 6 0.0000 0.0000 0.0000 1.6746 0.0000 33.7453
#
#
#
# Elastic Compliance Matrix: (Units=1/GPa)
#
#
# Indices 1 2 3 4 5 6 
#
# 1 0.026083 -0.006944 -0.002614 0.000000 -0.005911 0.000000
# 2 -0.006944 0.013141 -0.002077 0.000000 -0.003775 0.000000
# 3 -0.002614 -0.002077 0.012771 0.000000 0.001650 0.000000
# 4 0.000000 0.000000 0.000000 0.051305 0.000000 -0.002546
# 5 -0.005911 -0.003775 0.001650 0.000000 0.029414 0.000000
# 6 0.000000 0.000000 0.000000 -0.002546 0.000000 0.029760
#
#
# Mechanical properties :
#
#
# Convention : Reuss Voigt Hill
#
# Bulk Modulus (GPa) = 34.81360 41.93812 38.37586
# Shear Modulus (GPa) = 25.59937 29.82600 27.71269
#
# Velocity S-wave (km/s) = 3.67634 3.96825 3.82508
# Velocity P-wave (km/s) = 6.03332 6.56793 6.30629
#
# Compressibility (1/GPa) = 0.02872441
#
# Stress axis : x y z
#
# Youngs Moduli (GPa) = 38.33984 76.09893 78.30458
#
# Poissons Ratio (x) = 0.52845 0.20467
# Poissons Ratio (y) = 0.26624 0.16262
# Poissons Ratio (z) = 0.10021 0.15804
#
# Static dielectric constant tensor:
#      x y z
#    x 1.662740 0.000000 0.008980 
#    y 0.000000 1.708740 0.000000 
#    z 0.008980 0.000000 1.685500 
# 
# From -- ./inp_files/44959.got.cif
#   From: 2010.05.17/outbox.cif.g08.bks.cpg/sg15_23_cif.got.tgz:44959.got - 2010.06.03 18:47:42.
