data_PCOD9256130
_publ_section_title
;
Structure prediction by ZEFSAII (Michael W. Deem and Ramdas Pophale) SiO2 
 PCOD9256130
Probable space group: C 2/C
;
_chemical_formula_sum "Si O2"
_cell_formula_units_Z 60
_cell_length_a 15.430550
_cell_length_b 12.098894
_cell_length_c 17.148596
_cell_angle_alpha 90.000000
_cell_angle_beta 80.285291
_cell_angle_gamma 90.000000
_cell_volume 3155.606628
_symmetry_space_group_name_H-M "C 2/C"
_symmetry_group_IT_number 15
_symmetry_cell_setting 'monoclinic'
loop_
_space_group_symop_operation_xyz
x,y,z
-x,y,1/2-z
-x,-y,-z
x,-y,1/2+z
1/2+x,1/2+y,z
1/2-x,1/2+y,1/2-z
1/2-x,1/2-y,-z
1/2+x,1/2-y,1/2+z
loop_
_atom_site_type_symbol
_atom_site_label
_atom_site_fract_x
_atom_site_fract_y
_atom_site_fract_z
Si Si1 0.619465 0.084720 0.623919
Si Si2 0.634299 0.634514 0.309741
Si Si3 0.905577 0.364444 0.800455
Si Si4 0.176440 0.100237 0.864891
Si Si5 0.776176 0.813911 0.313695
Si Si6 0.340907 0.212105 0.027100
Si Si7 0.221928 0.560964 0.323396
Si Si8 0.000000 0.729594 0.750000
O O1 0.724641 0.079582 0.619187
O O2 0.602365 0.151303 0.547091
O O3 0.574472 0.152545 0.700939
O O4 0.586059 0.959483 0.635827
O O5 0.633960 0.518156 0.353909
O O6 0.697246 0.727400 0.336251
O O7 0.684302 0.608519 0.220107
O O8 0.542223 0.690848 0.307707
O O9 0.858772 0.252481 0.836392
O O10 0.842790 0.418978 0.741560
O O11 0.000000 0.340841 0.750000
O O12 0.192998 0.165409 0.781050
O O13 0.125890 0.178833 0.932904
O O14 0.740911 0.934040 0.341896
O O15 0.316011 0.126053 0.098270
O O16 0.250000 0.250000 0.000000
#
# Coordination Sequence:
#
# PCOD9256130 Si02
#       8
#     8   8   8   8   8   8   8   4
#     4  11  20  33  60  84 111 148 201 239 280 338
#     4  10  18  31  59  86 112 148 194 238 285 336
#     4  11  20  35  60  89 117 151 195 244 287 350
#     4  10  17  36  56  82 108 152 189 233 284 346
#     4  10  17  34  61  81 114 148 196 235 285 338
#     4  10  20  35  60  85 113 152 199 240 284 349
#     4  10  19  38  60  84 115 152 197 235 292 342
#     4  12  20  34  56  92 114 144 204 250 270 354
#
# _framework density 19.013777000000001
#
# number of rings (size 3 to 8) (size 9 to 14) (size 15 to 20)
#    0.000    1.600    8.667    0.800    0.000    0.000 
#    4.800    2.000    0.000    0.000    0.000    0.000 
#    0.000    0.000    0.000    0.000    0.000    0.000 
#
# Total GULP energy -167139.256772 kJ/mol
# GULP energy per Si atom -5571.308559 kJ/mol
# Density = 1.897050 g / cm^3
# Si number density = 19.013777 Si / 1000 Ang^3
#
#
#
# Elastic Constant Matrix: (Units=GPa)
#
#
# Indices 1 2 3 4 5 6 
#
# 1 44.5779 14.0000 -16.8549 0.0000 1.3520 0.0000
# 2 14.0000 125.1553 9.2900 0.0000 -3.1923 0.0000
# 3 -16.8549 9.2900 41.8318 0.0000 -5.0718 0.0000
# 4 0.0000 0.0000 0.0000 29.0660 0.0000 9.2180
# 5 1.3520 -3.1923 -5.0718 0.0000 6.6612 0.0000
# 6 0.0000 0.0000 0.0000 9.2180 0.0000 8.0941
#
#
#
# Elastic Compliance Matrix: (Units=1/GPa)
#
#
# Indices 1 2 3 4 5 6 
#
# 1 0.028406 -0.004063 0.012574 0.000000 0.001860 0.000000
# 2 -0.004063 0.008752 -0.003275 0.000000 0.002526 0.000000
# 3 0.012574 -0.003275 0.032168 0.000000 0.020372 0.000000
# 4 0.000000 0.000000 0.000000 0.053856 0.000000 -0.061333
# 5 0.001860 0.002526 0.020372 0.000000 0.166467 0.000000
# 6 0.000000 0.000000 0.000000 -0.061333 0.000000 0.193396
#
#
# Mechanical properties :
#
#
# Convention : Reuss Voigt Hill
#
# Bulk Modulus (GPa) = 12.53167 24.93724 18.73445
# Shear Modulus (GPa) = 10.01654 22.43960 16.22807
#
# Velocity S-wave (km/s) = 2.29771 3.43910 2.92462
# Velocity P-wave (km/s) = 3.69384 5.37714 4.61292
#
# Compressibility (1/GPa) = 0.07979785
#
# Stress axis : x y z
#
# Youngs Moduli (GPa) = 35.20332 114.25820 31.08632
#
# Poissons Ratio (x) = 0.46428 -0.39086
# Poissons Ratio (y) = 0.14305 0.10180
# Poissons Ratio (z) = -0.44263 0.37416
#
# Static dielectric constant tensor:
#      x y z
#    x 1.668200 0.000000 0.026120 
#    y 0.000000 1.709880 0.000000 
#    z 0.026120 0.000000 1.685030 
# 
# From -- ./inp_files/204051.got.cif
#   From: 2010.05.17/outbox.cif.g08.bks.cpg/sg15_103_cif.got.tgz:204051.got - 2010.06.03 18:47:42.
