data_PCOD9256859
_publ_section_title
;
Structure prediction by ZEFSAII (Michael W. Deem and Ramdas Pophale) SiO2 
 PCOD9256859
Probable space group: C 2/C
;
_chemical_formula_sum "Si O2"
_cell_formula_units_Z 52
_cell_length_a 28.527094
_cell_length_b 9.650763
_cell_length_c 28.327497
_cell_angle_alpha 90.000000
_cell_angle_beta 161.568771
_cell_angle_gamma 90.000000
_cell_volume 2465.714502
_symmetry_space_group_name_H-M "C 2/C"
_symmetry_group_IT_number 15
_symmetry_cell_setting 'monoclinic'
loop_
_space_group_symop_operation_xyz
x,y,z
-x,y,1/2-z
-x,-y,-z
x,-y,1/2+z
1/2+x,1/2+y,z
1/2-x,1/2+y,1/2-z
1/2-x,1/2-y,-z
1/2+x,1/2-y,1/2+z
loop_
_atom_site_type_symbol
_atom_site_label
_atom_site_fract_x
_atom_site_fract_y
_atom_site_fract_z
Si Si1 0.536364 0.521357 0.176534
Si Si2 0.599090 0.165835 0.701358
Si Si3 0.609754 0.870340 0.102666
Si Si4 0.451979 0.397141 0.411453
Si Si5 0.273971 0.349810 0.457762
Si Si6 0.845195 0.530491 0.513182
Si Si7 0.500000 0.977356 0.250000
O O1 0.561389 0.678821 0.181799
O O2 0.495678 0.436529 0.091071
O O3 0.691712 0.472600 0.347105
O O4 0.410607 0.546569 0.095942
O O5 0.636910 0.169763 0.683153
O O6 0.733346 0.126803 0.863826
O O7 0.464153 0.062221 0.585422
O O8 0.772780 0.897656 0.238007
O O9 0.522682 0.749036 0.993054
O O10 0.500000 0.000000 0.000000
O O11 0.500000 0.500000 0.500000
O O12 0.310885 0.188120 0.498844
O O13 0.127414 0.388628 0.345949
O O14 0.919125 0.451429 0.627982
#
# Coordination Sequence:
#
# PCOD9256859 Si02
#       7
#     8   8   8   8   8   8   4
#     4  10  19  34  54  76 110 161 203 240 305 359
#     4   9  18  33  51  74 113 158 200 239 307 359
#     4  12  25  38  60  90 122 162 214 268 308 357
#     4  12  24  40  61  86 123 164 216 258 296 381
#     4   9  18  29  49  74 112 158 196 249 298 379
#     4   9  18  29  49  75 113 159 197 247 296 376
#     4  10  18  30  44  80 118 152 194 240 316 372
#
# _framework density 21.089220999999998
#
# number of rings (size 3 to 8) (size 9 to 14) (size 15 to 20)
#    0.000    1.846    1.538    4.154    4.308    0.615 
#    0.000    0.000    0.000    0.000    0.000    0.000 
#    0.000   61.538    0.000    0.000    0.000    0.000 
#
# Total GULP energy -145064.850381 kJ/mol
# GULP energy per Si atom -5579.417322 kJ/mol
# Density = 2.104122 g / cm^3
# Si number density = 21.089221 Si / 1000 Ang^3
#
#
#
# Elastic Constant Matrix: (Units=GPa)
#
#
# Indices 1 2 3 4 5 6 
#
# 1 77.8102 2.8258 25.9819 0.0005 -8.2809 -0.0002
# 2 2.8258 55.6486 27.6971 0.0023 -1.8433 0.0003
# 3 25.9819 27.6971 102.7238 0.0063 0.2791 0.0010
# 4 0.0005 0.0023 0.0063 17.1983 0.0013 3.3020
# 5 -8.2809 -1.8433 0.2791 0.0013 42.1596 -0.0001
# 6 -0.0002 0.0003 0.0010 3.3020 -0.0001 6.4159
#
#
#
# Elastic Compliance Matrix: (Units=1/GPa)
#
#
# Indices 1 2 3 4 5 6 
#
# 1 0.014461 0.001371 -0.004035 0.000001 0.002927 0.000001
# 2 0.001371 0.020923 -0.005991 -0.000001 0.001224 0.000000
# 3 -0.004035 -0.005991 0.012374 -0.000004 -0.001136 0.000000
# 4 0.000001 -0.000001 -0.000004 0.064521 -0.000002 -0.033207
# 5 0.002927 0.001224 -0.001136 -0.000002 0.024355 0.000002
# 6 0.000001 0.000000 0.000000 -0.033207 0.000002 0.172954
#
#
# Mechanical properties :
#
#
# Convention : Reuss Voigt Hill
#
# Bulk Modulus (GPa) = 32.84453 38.79913 35.82183
# Shear Modulus (GPa) = 14.83465 25.13326 19.98396
#
# Velocity S-wave (km/s) = 2.65509 3.45593 3.08164
# Velocity P-wave (km/s) = 5.00072 5.86192 5.44837
#
# Compressibility (1/GPa) = 0.03044647
#
# Stress axis : x y z
#
# Youngs Moduli (GPa) = 69.15199 47.79459 80.81453
#
# Poissons Ratio (x) = -0.06553 0.32610
# Poissons Ratio (y) = -0.09481 0.48420
# Poissons Ratio (z) = 0.27904 0.28636
#
# Static dielectric constant tensor:
#      x y z
#    x 1.798430 0.000000 0.004510 
#    y 0.000000 1.762370 0.000000 
#    z 0.004510 0.000000 1.833580 
# 
# From -- ./inp_files/320224.got.cif
#   From: 2010.05.17/outbox.cif.g08.bks.cpg/sg15_161_cif.got.tgz:320224.got - 2010.06.03 18:47:42.
