data_PCOD9256121
_publ_section_title
;
Structure prediction by ZEFSAII (Michael W. Deem and Ramdas Pophale) SiO2 
 PCOD9256121
Probable space group: C 2/C
;
_chemical_formula_sum "Si O2"
_cell_formula_units_Z 52
_cell_length_a 29.003038
_cell_length_b 14.808306
_cell_length_c 16.491017
_cell_angle_alpha 90.000000
_cell_angle_beta 18.254612
_cell_angle_gamma 90.000000
_cell_volume 2218.573773
_symmetry_space_group_name_H-M "C 2/C"
_symmetry_group_IT_number 15
_symmetry_cell_setting 'monoclinic'
loop_
_space_group_symop_operation_xyz
x,y,z
-x,y,1/2-z
-x,-y,-z
x,-y,1/2+z
1/2+x,1/2+y,z
1/2-x,1/2+y,1/2-z
1/2-x,1/2-y,-z
1/2+x,1/2-y,1/2+z
loop_
_atom_site_type_symbol
_atom_site_label
_atom_site_fract_x
_atom_site_fract_y
_atom_site_fract_z
Si Si1 0.411917 0.425929 0.265799
Si Si2 0.816471 0.251682 0.013023
Si Si3 0.000000 0.397904 0.250000
Si Si4 0.483424 0.299230 0.538249
Si Si5 0.756881 0.242908 0.676762
Si Si6 0.914832 0.093008 0.492380
Si Si7 0.171562 0.552876 0.040081
O O1 0.381950 0.339373 0.369906
O O2 0.512565 0.388830 0.024083
O O3 0.493216 0.504670 0.174990
O O4 0.265384 0.458304 0.464758
O O5 0.647336 0.256612 0.262079
O O6 0.813211 0.249701 0.115852
O O7 0.890577 0.344448 0.857176
O O8 0.865537 0.329355 0.490849
O O9 0.940489 0.470595 0.283489
O O10 0.355240 0.243142 0.711049
O O11 0.481073 0.334859 0.633607
O O12 0.841947 0.148077 0.541914
O O13 0.784865 0.062384 0.773596
#
# Coordination Sequence:
#
# PCOD9256121 Si02
#       7
#     8   8   4   8   8   8   8
#     4  10  17  34  60  87 113 145 186 237 289 336
#     4   9  21  37  60  90 114 142 189 243 287 326
#     4  12  22  38  60  82 110 156 200 228 276 346
#     4   9  17  36  59  82 115 155 192 230 276 341
#     4  10  22  38  55  82 118 154 190 233 279 335
#     4   9  19  36  59  86 113 149 192 232 281 337
#     4   9  19  35  58  84 110 149 193 231 277 343
#
# _framework density 23.438483000000002
#
# number of rings (size 3 to 8) (size 9 to 14) (size 15 to 20)
#    0.000    3.077    0.000    5.538    0.000    5.538 
#    0.000   12.308    0.000    7.385    0.000    0.000 
#    0.000    0.000    0.000    0.000    0.000    0.000 
#
# Total GULP energy -145220.623895 kJ/mol
# GULP energy per Si atom -5585.408611 kJ/mol
# Density = 2.338514 g / cm^3
# Si number density = 23.438483 Si / 1000 Ang^3
#
#
#
# Elastic Constant Matrix: (Units=GPa)
#
#
# Indices 1 2 3 4 5 6 
#
# 1 92.5731 31.2111 45.4425 0.0000 -28.0924 0.0000
# 2 31.2111 161.8071 53.5492 0.0002 -31.9165 0.0000
# 3 45.4425 53.5492 61.9275 0.0003 -36.0862 -0.0001
# 4 0.0000 0.0002 0.0003 37.6381 -0.0001 -5.1268
# 5 -28.0924 -31.9165 -36.0862 -0.0001 38.1272 0.0001
# 6 0.0000 0.0000 -0.0001 -5.1268 0.0001 27.1986
#
#
#
# Elastic Compliance Matrix: (Units=1/GPa)
#
#
# Indices 1 2 3 4 5 6 
#
# 1 0.017094 0.001207 -0.012618 0.000000 0.001662 0.000000
# 2 0.001207 0.008745 -0.008169 0.000000 0.000478 0.000000
# 3 -0.012618 -0.008169 0.051437 0.000000 0.032548 0.000000
# 4 0.000000 0.000000 0.000000 0.027269 0.000000 0.005140
# 5 0.001662 0.000478 0.032548 0.000000 0.058659 0.000000
# 6 0.000000 0.000000 0.000000 0.005140 0.000000 0.037735
#
#
# Mechanical properties :
#
#
# Convention : Reuss Voigt Hill
#
# Bulk Modulus (GPa) = 26.23614 64.07925 45.15769
# Shear Modulus (GPa) = 19.77798 32.99978 26.38888
#
# Velocity S-wave (km/s) = 2.90802 3.75631 3.35905
# Velocity P-wave (km/s) = 4.74271 6.79793 5.86111
#
# Compressibility (1/GPa) = 0.03811536
#
# Stress axis : x y z
#
# Youngs Moduli (GPa) = 58.49994 114.34847 19.44109
#
# Poissons Ratio (x) = -0.13797 0.24532
# Poissons Ratio (y) = -0.07058 0.15881
# Poissons Ratio (z) = 0.73818 0.93409
#
# Static dielectric constant tensor:
#      x y z
#    x 1.933900 0.000000 0.026640 
#    y 0.000000 1.870050 0.000000 
#    z 0.026640 0.000000 2.027180 
# 
# From -- ./inp_files/225447.got.cif
#   From: 2010.05.17/outbox.cif.g08.bks.cpg/sg15_113_cif.got.tgz:225447.got - 2010.06.03 18:47:42.
