data_PCOD9256122
_publ_section_title
;
Structure prediction by ZEFSAII (Michael W. Deem and Ramdas Pophale) SiO2 
 PCOD9256122
Probable space group: C 2/C
;
_chemical_formula_sum "Si O2"
_cell_formula_units_Z 60
_cell_length_a 13.775658
_cell_length_b 12.655970
_cell_length_c 22.097741
_cell_angle_alpha 90.000000
_cell_angle_beta 56.414598
_cell_angle_gamma 90.000000
_cell_volume 3209.468380
_symmetry_space_group_name_H-M "C 2/C"
_symmetry_group_IT_number 15
_symmetry_cell_setting 'monoclinic'
loop_
_space_group_symop_operation_xyz
x,y,z
-x,y,1/2-z
-x,-y,-z
x,-y,1/2+z
1/2+x,1/2+y,z
1/2-x,1/2+y,1/2-z
1/2-x,1/2-y,-z
1/2+x,1/2-y,1/2+z
loop_
_atom_site_type_symbol
_atom_site_label
_atom_site_fract_x
_atom_site_fract_y
_atom_site_fract_z
Si Si1 0.920333 0.543013 0.471021
Si Si2 0.591943 0.784362 0.879373
Si Si3 0.681661 0.578569 0.192846
Si Si4 0.902906 0.665025 0.903870
Si Si5 0.000000 0.751799 0.750000
Si Si6 0.853975 0.988997 0.424061
Si Si7 0.374947 0.664983 0.508997
Si Si8 0.562108 0.627507 0.790083
O O1 0.931869 0.450021 0.418296
O O2 0.780103 0.551951 0.529899
O O3 0.000000 0.500000 0.500000
O O4 0.971640 0.652292 0.428500
O O5 0.688254 0.877560 0.850908
O O6 0.596456 0.700235 0.932943
O O7 0.617463 0.721795 0.808855
O O8 0.598525 0.671828 0.243505
O O9 0.649203 0.567140 0.132933
O O10 0.645598 0.470477 0.240160
O O11 0.764251 0.677786 0.946482
O O12 0.953340 0.684253 0.821015
O O13 0.937094 0.751398 0.942735
O O14 0.956767 0.910868 0.369873
O O15 0.889323 0.050119 0.473223
O O16 0.500000 0.664099 0.750000
#
# Coordination Sequence:
#
# PCOD9256122 Si02
#       8
#     8   8   8   8   4   8   8   8
#     4  11  21  36  59  87 120 158 201 253 300 353
#     4  12  23  38  61  92 119 154 207 254 298 360
#     4  11  19  37  63  86 115 158 201 242 297 367
#     4  10  19  32  56  90 121 147 192 252 308 343
#     4  12  18  34  62  92 114 158 200 250 304 364
#     4  10  19  39  62  84 119 160 199 243 305 363
#     4  10  17  34  60  87 118 150 193 256 297 347
#     4  10  24  44  60  82 126 172 197 239 307 375
#
# _framework density 18.694685
#
# number of rings (size 3 to 8) (size 9 to 14) (size 15 to 20)
#    0.000    1.333    7.333    0.800    0.000    2.133 
#    1.200    1.333    0.000    0.000    0.000    0.000 
#    0.000    0.000    0.000    0.000    0.000    0.000 
#
# Total GULP energy -167089.350236 kJ/mol
# GULP energy per Si atom -5569.645008 kJ/mol
# Density = 1.865214 g / cm^3
# Si number density = 18.694685 Si / 1000 Ang^3
#
#
#
# Elastic Constant Matrix: (Units=GPa)
#
#
# Indices 1 2 3 4 5 6 
#
# 1 43.6649 33.4222 17.1801 0.0000 7.6612 0.0000
# 2 33.4222 53.8671 36.2395 0.0000 12.8898 0.0000
# 3 17.1801 36.2395 91.8592 0.0000 14.4586 0.0000
# 4 0.0000 0.0000 0.0000 22.0932 0.0000 -6.4008
# 5 7.6612 12.8898 14.4586 0.0000 30.4518 0.0000
# 6 0.0000 0.0000 0.0000 -6.4008 0.0000 17.0014
#
#
#
# Elastic Compliance Matrix: (Units=1/GPa)
#
#
# Indices 1 2 3 4 5 6 
#
# 1 0.044424 -0.029877 0.003509 0.000000 -0.000196 0.000000
# 2 -0.029877 0.046593 -0.011751 0.000000 -0.006626 0.000000
# 3 0.003509 -0.011751 0.015370 0.000000 -0.003207 0.000000
# 4 0.000000 0.000000 0.000000 0.050804 0.000000 0.019127
# 5 -0.000196 -0.006626 -0.003207 0.000000 0.037216 0.000000
# 6 0.000000 0.000000 0.000000 0.019127 0.000000 0.066020
#
#
# Mechanical properties :
#
#
# Convention : Reuss Voigt Hill
#
# Bulk Modulus (GPa) = 33.16735 40.34163 36.75449
# Shear Modulus (GPa) = 14.42113 20.74589 17.58351
#
# Velocity S-wave (km/s) = 2.78043 3.33486 3.07019
# Velocity P-wave (km/s) = 5.29979 6.03775 5.68077
#
# Compressibility (1/GPa) = 0.03015014
#
# Stress axis : x y z
#
# Youngs Moduli (GPa) = 22.51032 21.46268 65.06015
#
# Poissons Ratio (x) = 0.64124 -0.22832
# Poissons Ratio (y) = 0.67254 0.76449
# Poissons Ratio (z) = -0.07900 0.25220
#
# Static dielectric constant tensor:
#      x y z
#    x 1.715780 0.000000 -0.042300 
#    y 0.000000 1.687130 0.000000 
#    z -0.042300 0.000000 1.688170 
# 
# From -- ./inp_files/243690.got.cif
#   From: 2010.05.17/outbox.cif.g08.bks.cpg/sg15_122_cif.got.tgz:243690.got - 2010.06.03 18:47:42.
