data_PCOD9256079
_publ_section_title
;
Structure prediction by ZEFSAII (Michael W. Deem and Ramdas Pophale) SiO2 
 PCOD9256079
Probable space group: C 2/C
;
_chemical_formula_sum "Si O2"
_cell_formula_units_Z 56
_cell_length_a 17.327168
_cell_length_b 11.683436
_cell_length_c 17.005450
_cell_angle_alpha 90.000000
_cell_angle_beta 116.309821
_cell_angle_gamma 90.000000
_cell_volume 3085.980801
_symmetry_space_group_name_H-M "C 2/C"
_symmetry_group_IT_number 15
_symmetry_cell_setting 'monoclinic'
loop_
_space_group_symop_operation_xyz
x,y,z
-x,y,1/2-z
-x,-y,-z
x,-y,1/2+z
1/2+x,1/2+y,z
1/2-x,1/2+y,1/2-z
1/2-x,1/2-y,-z
1/2+x,1/2-y,1/2+z
loop_
_atom_site_type_symbol
_atom_site_label
_atom_site_fract_x
_atom_site_fract_y
_atom_site_fract_z
Si Si1 0.549788 0.097048 0.848209
Si Si2 0.197262 0.224401 0.396252
Si Si3 0.665722 0.840113 0.651993
Si Si4 0.781859 0.974776 0.133063
Si Si5 0.494234 0.135866 0.983578
Si Si6 0.355244 0.873601 0.541883
Si Si7 0.895902 0.764256 0.213927
O O1 0.500000 0.053983 0.750000
O O2 0.616003 0.195154 0.855176
O O3 0.602235 0.992497 0.909573
O O4 0.488015 0.148685 0.887683
O O5 0.250000 0.250000 0.500000
O O6 0.258952 0.240367 0.348207
O O7 0.175423 0.089429 0.383270
O O8 0.585645 0.821824 0.557097
O O9 0.631547 0.811181 0.722724
O O10 0.707952 0.966849 0.656373
O O11 0.850225 0.888354 0.201538
O O12 0.731721 0.908511 0.041219
O O13 0.417466 0.179540 0.003041
O O14 0.500000 0.000000 0.000000
O O15 0.356103 0.794012 0.618123
O O16 0.000000 0.769595 0.250000
#
# Coordination Sequence:
#
# PCOD9256079 Si02
#       7
#     8   8   8   8   8   8   8
#     4  11  21  32  62 100 116 155 213 269 304 372
#     4  10  18  41  61  83 119 169 200 250 317 370
#     4  10  21  39  61  85 119 170 203 252 306 367
#     4  10  23  42  62  88 127 168 204 259 317 375
#     4  10  17  34  57  86 123 149 199 264 310 341
#     4  11  21  37  63  89 124 164 208 258 319 370
#     4  12  25  39  64  95 131 167 210 260 317 378
#
# _framework density 18.146581000000001
#
# number of rings (size 3 to 8) (size 9 to 14) (size 15 to 20)
#    0.857    0.571    7.143    0.857    2.000    2.857 
#    0.000    0.000    0.000    1.714    0.000    0.000 
#    0.000    0.000    0.000    0.000    0.000    0.000 
#
# Total GULP energy -155897.154777 kJ/mol
# GULP energy per Si atom -5567.755528 kJ/mol
# Density = 1.810528 g / cm^3
# Si number density = 18.146581 Si / 1000 Ang^3
#
#
#
# Elastic Constant Matrix: (Units=GPa)
#
#
# Indices 1 2 3 4 5 6 
#
# 1 69.5284 26.8037 38.9132 0.0000 -16.8382 0.0000
# 2 26.8037 66.1946 17.5752 0.0000 1.0680 0.0000
# 3 38.9132 17.5752 84.3697 0.0000 -13.9981 0.0000
# 4 0.0000 0.0000 0.0000 14.4828 0.0000 48.3366
# 5 -16.8382 1.0680 -13.9981 0.0000 31.1172 0.0000
# 6 0.0000 0.0000 0.0000 48.3366 0.0000 -144.1488
#
#
#
# Elastic Compliance Matrix: (Units=1/GPa)
#
#
# Indices 1 2 3 4 5 6 
#
# 1 0.024215 -0.007866 -0.007901 0.000000 0.009819 0.000000
# 2 -0.007866 0.018689 -0.001165 0.000000 -0.005422 0.000000
# 3 -0.007901 -0.001165 0.016249 0.000000 0.003074 0.000000
# 4 0.000000 0.000000 0.000000 0.032583 0.000000 0.010926
# 5 0.009819 -0.005422 0.003074 0.000000 0.039019 0.000000
# 6 0.000000 0.000000 0.000000 0.010926 0.000000 -0.003274
#
#
# Mechanical properties :
#
#
# Convention : Reuss Voigt Hill
#
# Bulk Modulus (GPa) = 39.54100 42.96411 41.25256
# Shear Modulus (GPa) = 29.45101 -10.58973 9.43064
#
# Velocity S-wave (km/s) = 4.03296 -2.41833 2.28215
# Velocity P-wave (km/s) = 6.59723 3.99121 5.45221
#
# Compressibility (1/GPa) = 0.02529020
#
# Stress axis : x y z
#
# Youngs Moduli (GPa) = 41.29719 53.50805 61.54107
#
# Poissons Ratio (x) = 0.42089 0.48622
# Poissons Ratio (y) = 0.32484 0.07168
# Poissons Ratio (z) = 0.32628 0.06232
#
# Static dielectric constant tensor:
#      x y z
#    x 1.684940 0.000000 0.001940 
#    y 0.000000 1.705950 0.000000 
#    z 0.001940 0.000000 1.668460 
# 
# From -- ./inp_files/160999.got.cif
#   From: 2010.05.17/outbox.cif.g08.bks.cpg/sg15_81_cif.got.tgz:160999.got - 2010.06.03 18:47:42.
