data_PCOD9256400
_publ_section_title
;
Structure prediction by ZEFSAII (Michael W. Deem and Ramdas Pophale) SiO2 
 PCOD9256400
Probable space group: C 2/C
;
_chemical_formula_sum "Si O2"
_cell_formula_units_Z 56
_cell_length_a 16.649269
_cell_length_b 12.252245
_cell_length_c 13.612799
_cell_angle_alpha 90.000000
_cell_angle_beta 80.023276
_cell_angle_gamma 90.000000
_cell_volume 2734.895936
_symmetry_space_group_name_H-M "C 2/C"
_symmetry_group_IT_number 15
_symmetry_cell_setting 'monoclinic'
loop_
_space_group_symop_operation_xyz
x,y,z
-x,y,1/2-z
-x,-y,-z
x,-y,1/2+z
1/2+x,1/2+y,z
1/2-x,1/2+y,1/2-z
1/2-x,1/2-y,-z
1/2+x,1/2-y,1/2+z
loop_
_atom_site_type_symbol
_atom_site_label
_atom_site_fract_x
_atom_site_fract_y
_atom_site_fract_z
Si Si1 0.646809 0.546979 0.571720
Si Si2 0.917262 0.777932 0.163883
Si Si3 0.585063 0.212388 0.108136
Si Si4 0.479253 0.474449 0.644057
Si Si5 0.264606 0.781175 0.384477
Si Si6 0.319699 0.415848 0.743234
Si Si7 0.297338 0.019980 0.397388
O O1 0.627975 0.675407 0.563572
O O2 0.563941 0.476777 0.566246
O O3 0.666811 0.514658 0.681204
O O4 0.723711 0.515436 0.491249
O O5 0.913133 0.730255 0.274298
O O6 0.955602 0.898735 0.156733
O O7 0.827160 0.788020 0.139803
O O8 0.990164 0.710611 0.095457
O O9 0.634016 0.101762 0.077691
O O10 0.500000 0.435601 0.750000
O O11 0.393999 0.413091 0.648391
O O12 0.250000 0.750000 0.500000
O O13 0.311212 0.689835 0.312305
O O14 0.314534 0.893897 0.371434
O O15 0.239569 0.432168 0.695677
#
# Coordination Sequence:
#
# PCOD9256400 Si02
#       7
#     8   8   8   8   8   8   8
#     4  10  20  38  61  92 123 151 209 267 324 380
#     4  10  17  37  63  86 117 164 210 254 320 376
#     4  10  19  37  63  92 118 154 218 271 305 379
#     4   9  16  34  62  88 113 152 203 272 308 362
#     4  12  24  40  60  90 130 172 208 265 334 395
#     4  11  21  37  60  88 125 160 210 262 315 388
#     4  12  23  36  64  93 125 168 211 262 335 387
#
# _framework density 20.476099000000001
#
# number of rings (size 3 to 8) (size 9 to 14) (size 15 to 20)
#    0.000    1.429    8.571    0.429    0.000    0.571 
#    0.000    0.714    9.429    0.000    0.000    0.000 
#    0.000    0.000    0.000    0.000    0.000    0.000 
#
# Total GULP energy -156097.055888 kJ/mol
# GULP energy per Si atom -5574.894853 kJ/mol
# Density = 2.042949 g / cm^3
# Si number density = 20.476099 Si / 1000 Ang^3
#
#
#
# Elastic Constant Matrix: (Units=GPa)
#
#
# Indices 1 2 3 4 5 6 
#
# 1 59.0281 20.8376 -2.0128 0.0000 -6.1251 0.0000
# 2 20.8376 111.1095 21.7907 0.0000 -21.4672 0.0000
# 3 -2.0128 21.7907 66.7471 0.0000 -14.4400 0.0000
# 4 0.0000 0.0000 0.0000 22.3143 0.0000 -7.1718
# 5 -6.1251 -21.4672 -14.4400 0.0000 32.4427 0.0000
# 6 0.0000 0.0000 0.0000 -7.1718 0.0000 30.7332
#
#
#
# Elastic Compliance Matrix: (Units=1/GPa)
#
#
# Indices 1 2 3 4 5 6 
#
# 1 0.018462 -0.003470 0.002154 0.000000 0.002149 0.000000
# 2 -0.003470 0.011243 -0.002553 0.000000 0.005648 0.000000
# 3 0.002154 -0.002553 0.017265 0.000000 0.006402 0.000000
# 4 0.000000 0.000000 0.000000 0.048448 0.000000 0.011306
# 5 0.002149 0.005648 0.006402 0.000000 0.037816 0.000000
# 6 0.000000 0.000000 0.000000 0.011306 0.000000 0.035176
#
#
# Mechanical properties :
#
#
# Convention : Reuss Voigt Hill
#
# Bulk Modulus (GPa) = 25.48858 35.34617 30.41737
# Shear Modulus (GPa) = 26.42344 30.18265 28.30304
#
# Velocity S-wave (km/s) = 3.59618 3.84349 3.72189
# Velocity P-wave (km/s) = 5.45146 6.08245 5.77558
#
# Compressibility (1/GPa) = 0.03923326
#
# Stress axis : x y z
#
# Youngs Moduli (GPa) = 54.16415 88.94580 57.91922
#
# Poissons Ratio (x) = 0.30863 -0.12478
# Poissons Ratio (y) = 0.18794 0.14788
# Poissons Ratio (z) = -0.11669 0.22710
#
# Static dielectric constant tensor:
#      x y z
#    x 1.823530 0.000000 0.003770 
#    y 0.000000 1.725290 0.000000 
#    z 0.003770 0.000000 1.777340 
# 
# From -- ./inp_files/160819.got.cif
#   From: 2010.05.17/outbox.cif.g08.bks.cpg/sg15_81_cif.got.tgz:160819.got - 2010.06.03 18:47:42.
