data_PCOD9256191
_publ_section_title
;
Structure prediction by ZEFSAII (Michael W. Deem and Ramdas Pophale) SiO2 
 PCOD9256191
Probable space group: C 2/C
;
_chemical_formula_sum "Si O2"
_cell_formula_units_Z 64
_cell_length_a 7.336864
_cell_length_b 21.952063
_cell_length_c 21.122873
_cell_angle_alpha 90.000000
_cell_angle_beta 64.463830
_cell_angle_gamma 90.000000
_cell_volume 3069.701667
_symmetry_space_group_name_H-M "C 2/C"
_symmetry_group_IT_number 15
_symmetry_cell_setting 'monoclinic'
loop_
_space_group_symop_operation_xyz
x,y,z
-x,y,1/2-z
-x,-y,-z
x,-y,1/2+z
1/2+x,1/2+y,z
1/2-x,1/2+y,1/2-z
1/2-x,1/2-y,-z
1/2+x,1/2-y,1/2+z
loop_
_atom_site_type_symbol
_atom_site_label
_atom_site_fract_x
_atom_site_fract_y
_atom_site_fract_z
Si Si1 0.274578 0.502782 0.271090
Si Si2 0.155960 0.907555 0.132443
Si Si3 0.210856 0.406779 0.187552
Si Si4 0.245574 0.817462 0.950207
Si Si5 0.228301 0.977682 0.530870
Si Si6 0.671706 0.364944 0.465068
Si Si7 0.555298 0.201299 0.953303
Si Si8 0.540901 0.058471 0.093408
O O1 0.500000 0.528161 0.250000
O O2 0.272351 0.441836 0.315097
O O3 0.234354 0.477346 0.207170
O O4 0.102168 0.543342 0.326666
O O5 0.314852 0.856717 0.089236
O O6 0.931034 0.881497 0.175610
O O7 0.148365 0.963945 0.082434
O O8 0.000000 0.385039 0.250000
O O9 0.782756 0.392689 0.387431
O O10 0.161254 0.764767 0.916544
O O11 0.347260 0.878739 0.910029
O O12 0.410495 0.794820 0.976226
O O13 0.044189 0.837003 0.018792
O O14 0.115616 0.917727 0.523902
O O15 0.396930 0.946618 0.551803
O O16 0.303267 0.007350 0.453700
O O17 0.826943 0.315108 0.469495
#
# Coordination Sequence:
#
# PCOD9256191 Si02
#       8
#     8   8   8   8   8   8   8   8
#     4   9  20  34  57  84 123 159 198 249 302 364
#     4  10  19  38  58  85 121 159 194 246 316 359
#     4  11  21  33  51  89 115 155 200 241 297 351
#     4  11  23  36  60  89 118 164 195 241 312 357
#     4  10  18  31  56  86 119 151 186 246 320 358
#     4  12  22  36  58  91 125 147 201 254 304 368
#     4  11  21  40  56  85 125 154 197 246 298 366
#     4  10  17  35  55  85 118 160 192 236 309 365
#
# _framework density 20.848931
#
# number of rings (size 3 to 8) (size 9 to 14) (size 15 to 20)
#    0.000    1.500    3.750    3.375    0.000    3.000 
#    0.000    0.000    0.000    0.750    0.000   32.375 
#    0.000    0.250    0.000    0.000    0.000    0.000 
#
# Total GULP energy -178211.314913 kJ/mol
# GULP energy per Si atom -5569.103591 kJ/mol
# Density = 2.080148 g / cm^3
# Si number density = 20.848931 Si / 1000 Ang^3
#
#
#
# Elastic Constant Matrix: (Units=GPa)
#
#
# Indices 1 2 3 4 5 6 
#
# 1 84.5599 33.7972 20.2299 0.0000 -7.8458 0.0000
# 2 33.7972 105.3918 42.7983 0.0000 -1.8390 0.0000
# 3 20.2299 42.7983 93.9678 0.0000 -15.1806 0.0000
# 4 0.0000 0.0000 0.0000 18.9274 0.0000 -8.1814
# 5 -7.8458 -1.8390 -15.1806 0.0000 26.4342 0.0000
# 6 0.0000 0.0000 0.0000 -8.1814 0.0000 21.9130
#
#
#
# Elastic Compliance Matrix: (Units=1/GPa)
#
#
# Indices 1 2 3 4 5 6 
#
# 1 0.013960 -0.004205 -0.000516 0.000000 0.003555 0.000000
# 2 -0.004205 0.013056 -0.005617 0.000000 -0.003566 0.000000
# 3 -0.000516 -0.005617 0.014576 0.000000 0.007827 0.000000
# 4 0.000000 0.000000 0.000000 0.063001 0.000000 0.023522
# 5 0.003555 -0.003566 0.007827 0.000000 0.043131 0.000000
# 6 0.000000 0.000000 0.000000 0.023522 0.000000 0.054417
#
#
# Mechanical properties :
#
#
# Convention : Reuss Voigt Hill
#
# Bulk Modulus (GPa) = 47.81204 53.06336 50.43770
# Shear Modulus (GPa) = 21.75916 25.92786 23.84351
#
# Velocity S-wave (km/s) = 3.23407 3.53031 3.38543
# Velocity P-wave (km/s) = 6.07685 6.49030 6.28697
#
# Compressibility (1/GPa) = 0.02091523
#
# Stress axis : x y z
#
# Youngs Moduli (GPa) = 71.63385 76.59486 68.60733
#
# Poissons Ratio (x) = 0.32209 0.03539
# Poissons Ratio (y) = 0.30123 0.38537
# Poissons Ratio (z) = 0.03695 0.43023
#
# Static dielectric constant tensor:
#      x y z
#    x 1.832810 0.000000 0.003640 
#    y 0.000000 1.818820 0.000000 
#    z 0.003640 0.000000 1.786070 
# 
# From -- ./inp_files/289976.got.cif
#   From: 2010.05.17/outbox.cif.g08.bks.cpg/sg15_145_cif.got.tgz:289976.got - 2010.06.03 18:47:42.
