data_PCOD9256172
_publ_section_title
;
Structure prediction by ZEFSAII (Michael W. Deem and Ramdas Pophale) SiO2 
 PCOD9256172
Probable space group: C 2/C
;
_chemical_formula_sum "Si O2"
_cell_formula_units_Z 40
_cell_length_a 27.182298
_cell_length_b 7.284012
_cell_length_c 7.771788
_cell_angle_alpha 90.000000
_cell_angle_beta 68.417584
_cell_angle_gamma 90.000000
_cell_volume 1430.899307
_symmetry_space_group_name_H-M "C 2/C"
_symmetry_group_IT_number 15
_symmetry_cell_setting 'monoclinic'
loop_
_space_group_symop_operation_xyz
x,y,z
-x,y,1/2-z
-x,-y,-z
x,-y,1/2+z
1/2+x,1/2+y,z
1/2-x,1/2+y,1/2-z
1/2-x,1/2-y,-z
1/2+x,1/2-y,1/2+z
loop_
_atom_site_type_symbol
_atom_site_label
_atom_site_fract_x
_atom_site_fract_y
_atom_site_fract_z
Si Si1 0.742336 0.398401 0.656221
Si Si2 0.319503 0.898650 0.849956
Si Si3 0.073171 0.296480 0.653738
Si Si4 0.872891 0.799908 0.733677
Si Si5 0.949043 0.723621 0.923963
O O1 0.750000 0.250000 0.500000
O O2 0.785697 0.334757 0.736039
O O3 0.774149 0.572423 0.547215
O O4 0.679337 0.414805 0.752326
O O5 0.366269 0.779439 0.860965
O O6 0.349974 0.089368 0.762383
O O7 0.079113 0.187044 0.466252
O O8 0.058581 0.504274 0.611143
O O9 0.045111 0.256284 0.874991
O O10 0.898745 0.816695 0.890664
O O11 0.000000 0.784720 0.750000
#
# Coordination Sequence:
#
# PCOD9256172 Si02
#       5
#     8   8   8   8   8
#     4  10  20  33  52  76 107 148 182 215 260 315
#     4  10  17  35  49  74 113 143 174 216 256 318
#     4  11  18  31  51  73 109 142 174 210 266 324
#     4  10  21  34  50  76 110 140 183 216 254 325
#     4  11  21  32  51  76 108 144 175 220 275 322
#
# _framework density 27.954447999999999
#
# number of rings (size 3 to 8) (size 9 to 14) (size 15 to 20)
#    0.000    1.600    6.000    3.000    0.000    0.800 
#    3.600    0.000    0.000    0.000    0.000    1.400 
#    0.000    0.000    0.000    0.000    0.000    0.000 
#
# Total GULP energy -111631.463141 kJ/mol
# GULP energy per Si atom -5581.573157 kJ/mol
# Density = 2.789082 g / cm^3
# Si number density = 27.954448 Si / 1000 Ang^3
#
#
#
# Elastic Constant Matrix: (Units=GPa)
#
#
# Indices 1 2 3 4 5 6 
#
# 1 79.4641 0.8498 11.2278 0.0000 -35.4757 0.0000
# 2 0.8498 39.5639 9.1235 0.0000 -6.6540 0.0000
# 3 11.2278 9.1235 171.1463 0.0000 -22.3926 0.0000
# 4 0.0000 0.0000 0.0000 34.1709 0.0000 -12.2340
# 5 -35.4757 -6.6540 -22.3926 0.0000 53.9684 0.0000
# 6 0.0000 0.0000 0.0000 -12.2340 0.0000 82.2526
#
#
#
# Elastic Compliance Matrix: (Units=1/GPa)
#
#
# Indices 1 2 3 4 5 6 
#
# 1 0.017930 0.001578 0.000325 0.000000 0.012116 0.000000
# 2 0.001578 0.026117 -0.000993 0.000000 0.003845 0.000000
# 3 0.000325 -0.000993 0.006224 0.000000 0.002674 0.000000
# 4 0.000000 0.000000 0.000000 0.030911 0.000000 0.004598
# 5 0.012116 0.003845 0.002674 0.000000 0.028077 0.000000
# 6 0.000000 0.000000 0.000000 0.004598 0.000000 0.012842
#
#
# Mechanical properties :
#
#
# Convention : Reuss Voigt Hill
#
# Bulk Modulus (GPa) = 19.19694 36.95294 28.07494
# Shear Modulus (GPa) = 36.32515 52.00992 44.16754
#
# Velocity S-wave (km/s) = 3.60869 4.31806 3.97921
# Velocity P-wave (km/s) = 4.92398 6.17321 5.58364
#
# Compressibility (1/GPa) = 0.05209164
#
# Stress axis : x y z
#
# Youngs Moduli (GPa) = 55.77113 38.28882 160.65823
#
# Poissons Ratio (x) = -0.06040 -0.05218
# Poissons Ratio (y) = -0.08799 0.15948
# Poissons Ratio (z) = -0.01811 0.03801
#
# Static dielectric constant tensor:
#      x y z
#    x 2.056290 0.000000 -0.026040 
#    y 0.000000 2.365140 0.000000 
#    z -0.026040 0.000000 2.264280 
# 
# From -- ./inp_files/60355.got.cif
#   From: 2010.05.17/outbox.cif.g08.bks.cpg/sg15_31_cif.got.tgz:60355.got - 2010.06.03 18:47:42.
