data_PCOD9256265
_publ_section_title
;
Structure prediction by ZEFSAII (Michael W. Deem and Ramdas Pophale) SiO2 
 PCOD9256265
Probable space group: C 2/C
;
_chemical_formula_sum "Si O2"
_cell_formula_units_Z 44
_cell_length_a 11.285485
_cell_length_b 13.903040
_cell_length_c 15.953212
_cell_angle_alpha 90.000000
_cell_angle_beta 50.813234
_cell_angle_gamma 90.000000
_cell_volume 1940.128627
_symmetry_space_group_name_H-M "C 2/C"
_symmetry_group_IT_number 15
_symmetry_cell_setting 'monoclinic'
loop_
_space_group_symop_operation_xyz
x,y,z
-x,y,1/2-z
-x,-y,-z
x,-y,1/2+z
1/2+x,1/2+y,z
1/2-x,1/2+y,1/2-z
1/2-x,1/2-y,-z
1/2+x,1/2-y,1/2+z
loop_
_atom_site_type_symbol
_atom_site_label
_atom_site_fract_x
_atom_site_fract_y
_atom_site_fract_z
Si Si1 0.858133 0.017757 0.251063
Si Si2 0.709468 0.859041 0.425302
Si Si3 0.557343 0.304357 0.878013
Si Si4 0.342410 0.364102 0.120825
Si Si5 0.019884 0.281940 0.646915
Si Si6 0.000000 0.320592 0.250000
O O1 0.831981 0.118704 0.216607
O O2 0.000000 0.032176 0.250000
O O3 0.738360 0.956464 0.360854
O O4 0.897048 0.948923 0.156170
O O5 0.640442 0.776051 0.396642
O O6 0.864218 0.809233 0.390451
O O7 0.597653 0.862593 0.554533
O O8 0.473567 0.246971 0.842012
O O9 0.436113 0.356768 0.992960
O O10 0.384464 0.267892 0.154964
O O11 0.160201 0.374608 0.191348
O O12 0.000000 0.318210 0.750000
#
# Coordination Sequence:
#
# PCOD9256265 Si02
#       6
#     8   8   8   8   8   4
#     4  12  21  41  68  98 129 170 227 277 321 404
#     4  10  20  36  66  98 131 169 217 276 326 387
#     4  11  24  39  67  97 132 175 223 266 339 398
#     4  11  22  39  66  97 131 177 219 274 326 395
#     4  10  17  35  65  98 129 168 214 269 333 389
#     4  12  22  42  66  88 136 178 216 270 340 396
#
# _framework density 22.678908
#
# number of rings (size 3 to 8) (size 9 to 14) (size 15 to 20)
#    0.000    1.091    6.364    1.091    0.000    0.000 
#    0.000    0.000    8.000   10.909    0.000    0.000 
#    0.000    0.000    0.000    0.000    0.000    0.000 
#
# Total GULP energy -122840.438542 kJ/mol
# GULP energy per Si atom -5583.656297 kJ/mol
# Density = 2.262729 g / cm^3
# Si number density = 22.678908 Si / 1000 Ang^3
#
#
#
# Elastic Constant Matrix: (Units=GPa)
#
#
# Indices 1 2 3 4 5 6 
#
# 1 92.2456 28.6003 30.5093 0.0000 5.0841 0.0000
# 2 28.6003 75.6051 52.9481 0.0000 11.6392 0.0000
# 3 30.5093 52.9481 117.0073 0.0000 17.3152 0.0000
# 4 0.0000 0.0000 0.0000 1.8375 0.0000 -3.7384
# 5 5.0841 11.6392 17.3152 0.0000 32.3283 0.0000
# 6 0.0000 0.0000 0.0000 -3.7384 0.0000 9.0949
#
#
#
# Elastic Compliance Matrix: (Units=1/GPa)
#
#
# Indices 1 2 3 4 5 6 
#
# 1 0.012493 -0.003595 -0.001663 0.000000 0.000220 0.000000
# 2 -0.003595 0.020581 -0.007997 0.000000 -0.002561 0.000000
# 3 -0.001663 -0.007997 0.013179 0.000000 -0.003918 0.000000
# 4 0.000000 0.000000 0.000000 3.323225 0.000000 1.365982
# 5 0.000220 -0.002561 -0.003918 0.000000 0.033919 0.000000
# 6 0.000000 0.000000 0.000000 1.365982 0.000000 0.671427
#
#
# Mechanical properties :
#
#
# Convention : Reuss Voigt Hill
#
# Bulk Modulus (GPa) = 50.65218 56.55260 53.60239
# Shear Modulus (GPa) = 1.21716 20.17215 10.69465
#
# Velocity S-wave (km/s) = 0.73339 2.98563 2.17392
# Velocity P-wave (km/s) = 4.80626 6.07253 5.47612
#
# Compressibility (1/GPa) = 0.01974249
#
# Stress axis : x y z
#
# Youngs Moduli (GPa) = 80.04325 48.58747 75.87939
#
# Poissons Ratio (x) = 0.17467 0.12621
# Poissons Ratio (y) = 0.28776 0.60681
# Poissons Ratio (z) = 0.13314 0.38856
#
# Static dielectric constant tensor:
#      x y z
#    x 1.869940 0.000000 -0.038580 
#    y 0.000000 1.827610 0.000000 
#    z -0.038580 0.000000 1.904630 
# 
# From -- ./inp_files/197630.got.cif
#   From: 2010.05.17/outbox.cif.g08.bks.cpg/sg15_99_cif.got.tgz:197630.got - 2010.06.03 18:47:42.
