data_PCOD9256787
_publ_section_title
;
Structure prediction by ZEFSAII (Michael W. Deem and Ramdas Pophale) SiO2 
 PCOD9256787
Probable space group: C 2/C
;
_chemical_formula_sum "Si O2"
_cell_formula_units_Z 48
_cell_length_a 24.211416
_cell_length_b 12.002574
_cell_length_c 24.569535
_cell_angle_alpha 90.000000
_cell_angle_beta 21.262680
_cell_angle_gamma 90.000000
_cell_volume 2589.240329
_symmetry_space_group_name_H-M "C 2/C"
_symmetry_group_IT_number 15
_symmetry_cell_setting 'monoclinic'
loop_
_space_group_symop_operation_xyz
x,y,z
-x,y,1/2-z
-x,-y,-z
x,-y,1/2+z
1/2+x,1/2+y,z
1/2-x,1/2+y,1/2-z
1/2-x,1/2-y,-z
1/2+x,1/2-y,1/2+z
loop_
_atom_site_type_symbol
_atom_site_label
_atom_site_fract_x
_atom_site_fract_y
_atom_site_fract_z
Si Si1 0.433813 0.747090 0.545070
Si Si2 0.844002 0.612329 0.733136
Si Si3 0.833971 0.079109 0.895593
Si Si4 0.687098 0.184007 0.138696
Si Si5 0.721426 0.367673 0.826237
Si Si6 0.970878 0.517132 0.838581
O O1 0.299857 0.695042 0.631276
O O2 0.534363 0.837901 0.420964
O O3 0.556296 0.655769 0.452470
O O4 0.345950 0.799459 0.677113
O O5 0.773939 0.495326 0.777758
O O6 0.933541 0.588148 0.706602
O O7 0.000000 0.028739 0.750000
O O8 0.154390 0.189648 0.652208
O O9 0.775107 0.124030 0.008233
O O10 0.708706 0.994727 0.987556
O O11 0.775001 0.173995 0.114674
O O12 0.534010 0.110421 0.285400
O O13 0.000000 0.553876 0.750000
#
# Coordination Sequence:
#
# PCOD9256787 Si02
#       6
#     8   8   8   8   8   8
#     4  10  22  38  58  83 112 149 197 229 282 328
#     4  10  21  41  59  79 112 148 187 245 281 326
#     4  10  18  29  49  82 116 148 186 217 280 343
#     4   9  18  30  50  78 118 153 176 219 276 345
#     4  10  21  35  58  85 116 149 188 226 281 338
#     4   9  19  36  55  78 111 146 183 233 286 332
#
# _framework density 18.538256000000001
#
# number of rings (size 3 to 8) (size 9 to 14) (size 15 to 20)
#    0.000    2.333    0.000    3.500    7.000    0.000 
#    0.000   10.833    0.000    0.000    0.000    0.000 
#    0.000    0.000    0.000    0.000    0.000    0.000 
#
# Total GULP energy -133903.234976 kJ/mol
# GULP energy per Si atom -5579.301457 kJ/mol
# Density = 1.849606 g / cm^3
# Si number density = 18.538256 Si / 1000 Ang^3
#
#
#
# Elastic Constant Matrix: (Units=GPa)
#
#
# Indices 1 2 3 4 5 6 
#
# 1 100.9948 28.7199 24.8547 0.0041 -16.0278 0.0009
# 2 28.7199 47.2471 15.5771 0.0009 -0.4859 -0.0007
# 3 24.8547 15.5771 95.7519 0.0081 -20.4968 0.0015
# 4 0.0041 0.0009 0.0081 15.5762 -0.0019 -0.4569
# 5 -16.0278 -0.4859 -20.4968 -0.0019 21.3036 0.0000
# 6 0.0009 -0.0007 0.0015 -0.4569 0.0000 16.4621
#
#
#
# Elastic Compliance Matrix: (Units=1/GPa)
#
#
# Indices 1 2 3 4 5 6 
#
# 1 0.013905 -0.008324 -0.000071 -0.000002 0.010204 -0.000001
# 2 -0.008324 0.027591 -0.004450 0.000002 -0.009915 0.000002
# 3 -0.000071 -0.004450 0.014046 -0.000005 0.013359 -0.000002
# 4 -0.000002 0.000002 -0.000005 0.064253 -0.000001 0.001783
# 5 0.010204 -0.009915 0.013359 -0.000001 0.067244 -0.000002
# 6 -0.000001 0.000002 -0.000002 0.001783 -0.000002 0.060795
#
#
# Mechanical properties :
#
#
# Convention : Reuss Voigt Hill
#
# Bulk Modulus (GPa) = 33.50012 42.47746 37.98879
# Shear Modulus (GPa) = 17.63827 22.32453 19.98140
#
# Velocity S-wave (km/s) = 3.08791 3.47398 3.28662
# Velocity P-wave (km/s) = 5.55190 6.24936 5.91093
#
# Compressibility (1/GPa) = 0.02985064
#
# Stress axis : x y z
#
# Youngs Moduli (GPa) = 71.91413 36.24424 71.19641
#
# Poissons Ratio (x) = 0.30171 0.00506
# Poissons Ratio (y) = 0.59863 0.31683
# Poissons Ratio (z) = 0.00511 0.16129
#
# Static dielectric constant tensor:
#      x y z
#    x 1.638130 0.000000 -0.015360 
#    y 0.000000 1.622370 0.000000 
#    z -0.015360 0.000000 1.656220 
# 
# From -- ./inp_files/302192.got.cif
#   From: 2010.05.17/outbox.cif.g08.bks.cpg/sg15_152_cif.got.tgz:302192.got - 2010.06.03 18:47:42.
