data_PCOD9256397
_publ_section_title
;
Structure prediction by ZEFSAII (Michael W. Deem and Ramdas Pophale) SiO2 
 PCOD9256397
Probable space group: C 2/C
;
_chemical_formula_sum "Si O2"
_cell_formula_units_Z 56
_cell_length_a 12.530861
_cell_length_b 8.508864
_cell_length_c 30.382948
_cell_angle_alpha 90.000000
_cell_angle_beta 133.259380
_cell_angle_gamma 90.000000
_cell_volume 2359.218357
_symmetry_space_group_name_H-M "C 2/C"
_symmetry_group_IT_number 15
_symmetry_cell_setting 'monoclinic'
loop_
_space_group_symop_operation_xyz
x,y,z
-x,y,1/2-z
-x,-y,-z
x,-y,1/2+z
1/2+x,1/2+y,z
1/2-x,1/2+y,1/2-z
1/2-x,1/2-y,-z
1/2+x,1/2-y,1/2+z
loop_
_atom_site_type_symbol
_atom_site_label
_atom_site_fract_x
_atom_site_fract_y
_atom_site_fract_z
Si Si1 0.852948 0.272264 0.403600
Si Si2 0.609755 0.937736 0.693368
Si Si3 0.107997 0.346459 0.420770
Si Si4 0.639516 0.355117 0.264952
Si Si5 0.846679 0.042855 0.934242
Si Si6 0.992812 0.195537 0.591101
Si Si7 0.315195 0.918347 0.477908
O O1 0.747192 0.321720 0.335459
O O2 0.875185 0.413556 0.444858
O O3 0.002565 0.232964 0.419023
O O4 0.777906 0.130152 0.409478
O O5 0.598903 0.810804 0.729896
O O6 0.576675 0.824495 0.642807
O O7 0.492506 0.074224 0.646509
O O8 0.767715 0.024587 0.739209
O O9 0.257456 0.325838 0.435556
O O10 0.163649 0.456273 0.477015
O O11 0.500000 0.427639 0.250000
O O12 0.881394 0.093708 0.895030
O O13 0.000000 0.000000 0.000000
O O14 0.860424 0.105657 0.577714
O O15 0.903209 0.274546 0.525506
#
# Coordination Sequence:
#
# PCOD9256397 Si02
#       7
#     8   8   8   8   8   8   8
#     4  11  23  38  62  93 122 168 213 259 321 379
#     4  10  24  45  66  92 122 167 215 269 319 382
#     4  10  22  40  61  93 128 162 213 256 317 384
#     4  11  24  47  69  92 126 168 223 271 326 380
#     4  12  21  38  59  95 132 164 205 253 316 383
#     4  10  20  36  63  90 126 162 206 256 311 380
#     4  10  17  37  62  86 125 169 203 247 313 383
#
# _framework density 23.736675999999999
#
# number of rings (size 3 to 8) (size 9 to 14) (size 15 to 20)
#    0.000    1.429    2.857    3.857    2.000    0.571 
#    5.143    0.000    0.000    0.000    0.000    0.000 
#    0.000    0.000    0.000    0.000    0.000    0.000 
#
# Total GULP energy -155905.538253 kJ/mol
# GULP energy per Si atom -5568.054938 kJ/mol
# Density = 2.368265 g / cm^3
# Si number density = 23.736676 Si / 1000 Ang^3
#
#
#
# Elastic Constant Matrix: (Units=GPa)
#
#
# Indices 1 2 3 4 5 6 
#
# 1 116.3229 8.5163 15.8918 0.0000 6.0864 0.0000
# 2 8.5163 22.8363 7.3771 0.0000 -0.6605 0.0000
# 3 15.8918 7.3771 65.3633 0.0000 -8.4690 0.0000
# 4 0.0000 0.0000 0.0000 27.9779 0.0000 -3.8759
# 5 6.0864 -0.6605 -8.4690 0.0000 34.0007 0.0000
# 6 0.0000 0.0000 0.0000 -3.8759 0.0000 30.8725
#
#
#
# Elastic Compliance Matrix: (Units=1/GPa)
#
#
# Indices 1 2 3 4 5 6 
#
# 1 0.009222 -0.002787 -0.002220 0.000000 -0.002258 0.000000
# 2 -0.002787 0.046295 -0.004512 0.000000 0.000274 0.000000
# 3 -0.002220 -0.004512 0.016935 0.000000 0.004528 0.000000
# 4 0.000000 0.000000 0.000000 0.036375 0.000000 0.004567
# 5 -0.002258 0.000274 0.004528 0.000000 0.030949 0.000000
# 6 0.000000 0.000000 0.000000 0.004567 0.000000 0.032965
#
#
# Mechanical properties :
#
#
# Convention : Reuss Voigt Hill
#
# Bulk Modulus (GPa) = 18.72188 29.78810 24.25499
# Shear Modulus (GPa) = 23.85685 30.08603 26.97144
#
# Velocity S-wave (km/s) = 3.17371 3.56405 3.37453
# Velocity P-wave (km/s) = 4.61891 5.43261 5.04220
#
# Compressibility (1/GPa) = 0.05341343
#
# Stress axis : x y z
#
# Youngs Moduli (GPa) = 108.43286 21.60063 59.05003
#
# Poissons Ratio (x) = 0.06021 0.13110
# Poissons Ratio (y) = 0.30224 0.26642
# Poissons Ratio (z) = 0.24074 0.09746
#
# Static dielectric constant tensor:
#      x y z
#    x 2.014030 0.000000 0.071330 
#    y 0.000000 1.999520 0.000000 
#    z 0.071330 0.000000 1.898940 
# 
# From -- ./inp_files/292308.got.cif
#   From: 2010.05.17/outbox.cif.g08.bks.cpg/sg15_147_cif.got.tgz:292308.got - 2010.06.03 18:47:42.
