data_PCOD9256106
_publ_section_title
;
Structure prediction by ZEFSAII (Michael W. Deem and Ramdas Pophale) SiO2 
 PCOD9256106
Probable space group: C 2/C
;
_chemical_formula_sum "Si O2"
_cell_formula_units_Z 60
_cell_length_a 11.638906
_cell_length_b 25.444303
_cell_length_c 14.467527
_cell_angle_alpha 90.000000
_cell_angle_beta 131.119123
_cell_angle_gamma 90.000000
_cell_volume 3227.678899
_symmetry_space_group_name_H-M "C 2/C"
_symmetry_group_IT_number 15
_symmetry_cell_setting 'monoclinic'
loop_
_space_group_symop_operation_xyz
x,y,z
-x,y,1/2-z
-x,-y,-z
x,-y,1/2+z
1/2+x,1/2+y,z
1/2-x,1/2+y,1/2-z
1/2-x,1/2-y,-z
1/2+x,1/2-y,1/2+z
loop_
_atom_site_type_symbol
_atom_site_label
_atom_site_fract_x
_atom_site_fract_y
_atom_site_fract_z
Si Si1 0.684192 0.500817 0.099572
Si Si2 0.500000 0.722126 0.250000
Si Si3 0.384155 0.883172 0.964189
Si Si4 0.715191 0.184234 0.911582
Si Si5 0.116747 0.587803 0.735010
Si Si6 0.119325 0.045587 0.384324
Si Si7 0.459958 0.351287 0.891219
Si Si8 0.148860 0.390852 0.765277
O O1 0.739533 0.450130 0.185857
O O2 0.781713 0.549939 0.187529
O O3 0.500000 0.500000 0.000000
O O4 0.708008 0.490898 0.002985
O O5 0.369771 0.760852 0.143158
O O6 0.577353 0.683258 0.218187
O O7 0.248395 0.925253 0.895283
O O8 0.401647 0.873702 0.865059
O O9 0.328475 0.839872 0.010715
O O10 0.534426 0.905791 0.094058
O O11 0.655533 0.144064 0.801037
O O12 0.896361 0.180576 0.992958
O O13 0.000000 0.564121 0.750000
O O14 0.000000 0.020666 0.250000
O O15 0.029467 0.092396 0.393251
O O16 0.306322 0.358588 0.867719
O O17 0.000000 0.385074 0.750000
#
# Coordination Sequence:
#
# PCOD9256106 Si02
#       8
#     8   4   8   8   8   8   8   8
#     4  12  21  37  59  83 121 166 215 249 312 380
#     4  12  20  34  70 114 120 146 202 268 352 396
#     4  10  19  37  61  83 128 156 196 268 321 354
#     4  10  19  36  65 107 123 147 196 264 351 385
#     4  10  17  34  59  86 125 151 183 264 324 361
#     4  11  18  36  60  86 117 160 200 261 332 356
#     4  11  20  37  59  87 132 163 191 263 317 380
#     4  12  26  41  57  85 124 182 230 245 292 388
#
# _framework density 18.589210000000001
#
# number of rings (size 3 to 8) (size 9 to 14) (size 15 to 20)
#    0.000    1.067    9.333    1.600    0.000    0.533 
#    2.400    0.000    0.000    3.200    0.000    0.000 
#    0.000    0.000    0.000    0.000    0.000    0.000 
#
# Total GULP energy -167060.792920 kJ/mol
# GULP energy per Si atom -5568.693097 kJ/mol
# Density = 1.854690 g / cm^3
# Si number density = 18.589210 Si / 1000 Ang^3
#
#
#
# Elastic Constant Matrix: (Units=GPa)
#
#
# Indices 1 2 3 4 5 6 
#
# 1 108.5523 16.5483 26.1697 0.0000 16.9000 0.0000
# 2 16.5483 67.0793 24.3439 0.0000 3.7688 0.0000
# 3 26.1697 24.3439 123.5040 0.0000 10.5146 0.0000
# 4 0.0000 0.0000 0.0000 36.5690 0.0000 5.0505
# 5 16.9000 3.7688 10.5146 0.0000 28.5212 0.0000
# 6 0.0000 0.0000 0.0000 5.0505 0.0000 16.1676
#
#
#
# Elastic Compliance Matrix: (Units=1/GPa)
#
#
# Indices 1 2 3 4 5 6 
#
# 1 0.010701 -0.001805 -0.001437 0.000000 -0.005573 0.000000
# 2 -0.001805 0.016388 -0.002844 0.000000 -0.000047 0.000000
# 3 -0.001437 -0.002844 0.009144 0.000000 -0.002144 0.000000
# 4 0.000000 0.000000 0.000000 0.028579 0.000000 -0.008927
# 5 -0.005573 -0.000047 -0.002144 0.000000 0.039160 0.000000
# 6 0.000000 0.000000 0.000000 -0.008927 0.000000 0.064641
#
#
# Mechanical properties :
#
#
# Convention : Reuss Voigt Hill
#
# Bulk Modulus (GPa) = 41.56066 48.13992 44.85029
# Shear Modulus (GPa) = 26.48220 31.72314 29.10267
#
# Velocity S-wave (km/s) = 3.77848 4.13550 3.96102
# Velocity P-wave (km/s) = 6.43753 6.98256 6.71558
#
# Compressibility (1/GPa) = 0.02406122
#
# Stress axis : x y z
#
# Youngs Moduli (GPa) = 93.44536 61.02124 109.35562
#
# Poissons Ratio (x) = 0.11016 0.15718
# Poissons Ratio (y) = 0.16870 0.31097
# Poissons Ratio (z) = 0.13431 0.17352
#
# Static dielectric constant tensor:
#      x y z
#    x 1.713280 0.000000 -0.025130 
#    y 0.000000 1.672120 0.000000 
#    z -0.025130 0.000000 1.780410 
# 
# From -- ./inp_files/148399.got.cif
#   From: 2010.05.17/outbox.cif.g08.bks.cpg/sg15_75_cif.got.tgz:148399.got - 2010.06.03 18:47:42.
