data_PCOD9256440
_publ_section_title
;
Structure prediction by ZEFSAII (Michael W. Deem and Ramdas Pophale) SiO2 
 PCOD9256440
Probable space group: C 2/C
;
_chemical_formula_sum "Si O2"
_cell_formula_units_Z 40
_cell_length_a 12.582187
_cell_length_b 7.785551
_cell_length_c 29.254919
_cell_angle_alpha 90.000000
_cell_angle_beta 38.294942
_cell_angle_gamma 90.000000
_cell_volume 1775.958114
_symmetry_space_group_name_H-M "C 2/C"
_symmetry_group_IT_number 15
_symmetry_cell_setting 'monoclinic'
loop_
_space_group_symop_operation_xyz
x,y,z
-x,y,1/2-z
-x,-y,-z
x,-y,1/2+z
1/2+x,1/2+y,z
1/2-x,1/2+y,1/2-z
1/2-x,1/2-y,-z
1/2+x,1/2-y,1/2+z
loop_
_atom_site_type_symbol
_atom_site_label
_atom_site_fract_x
_atom_site_fract_y
_atom_site_fract_z
Si Si1 0.447708 0.665339 0.048015
Si Si2 0.783777 0.358874 0.598212
Si Si3 0.005872 0.599278 0.103914
Si Si4 0.372452 0.514234 0.934902
Si Si5 0.097493 0.490805 0.670016
O O1 0.525010 0.631387 0.071890
O O2 0.244579 0.654977 0.116752
O O3 0.500000 0.500000 0.000000
O O4 0.543596 0.814775 0.989021
O O5 0.664609 0.464453 0.604414
O O6 0.850287 0.442803 0.622424
O O7 0.689167 0.177362 0.639206
O O8 0.026813 0.806471 0.095992
O O9 0.986941 0.529232 0.161357
O O10 0.189792 0.534902 0.022512
O O11 0.000000 0.470584 0.750000
#
# Coordination Sequence:
#
# PCOD9256440 Si02
#       5
#     8   8   8   8   8
#     4  10  17  38  65  85 121 156 194 251 301 344
#     4  11  22  41  64  94 119 157 205 251 301 363
#     4  11  21  39  62  93 125 154 197 256 304 357
#     4  11  20  37  67  96 122 149 202 260 303 354
#     4  11  24  44  60  84 127 167 200 247 303 357
#
# _framework density 22.523054999999999
#
# number of rings (size 3 to 8) (size 9 to 14) (size 15 to 20)
#    0.000    1.200    8.000    2.400    0.000    0.000 
#    3.600    1.000    0.000    0.000    0.000    0.000 
#    0.000    0.000    0.000    0.000    0.000    0.000 
#
# Total GULP energy -111941.088506 kJ/mol
# GULP energy per Si atom -5597.054425 kJ/mol
# Density = 2.247179 g / cm^3
# Si number density = 22.523055 Si / 1000 Ang^3
#
#
#
# Elastic Constant Matrix: (Units=GPa)
#
#
# Indices 1 2 3 4 5 6 
#
# 1 190.0785 16.9976 30.7857 -0.0001 50.0090 -0.0003
# 2 16.9976 49.1530 11.3713 -0.0002 4.0501 -0.0006
# 3 30.7857 11.3713 83.4214 0.0000 28.3075 -0.0001
# 4 -0.0001 -0.0002 0.0000 10.3567 0.0000 9.0361
# 5 50.0090 4.0501 28.3075 0.0000 29.2771 -0.0001
# 6 -0.0003 -0.0006 -0.0001 9.0361 -0.0001 41.7415
#
#
#
# Elastic Compliance Matrix: (Units=1/GPa)
#
#
# Indices 1 2 3 4 5 6 
#
# 1 0.010426 -0.002720 0.003629 0.000000 -0.020942 0.000000
# 2 -0.002720 0.021717 -0.003741 0.000000 0.005258 0.000000
# 3 0.003629 -0.003741 0.019476 0.000000 -0.024513 0.000000
# 4 0.000000 0.000000 0.000000 0.119039 0.000000 -0.025769
# 5 -0.020942 0.005258 -0.024513 0.000000 0.092901 0.000000
# 6 0.000000 0.000000 0.000000 -0.025769 0.000000 0.029535
#
#
# Mechanical properties :
#
#
# Convention : Reuss Voigt Hill
#
# Bulk Modulus (GPa) = 21.75946 48.99579 35.37763
# Shear Modulus (GPa) = 15.91969 33.84162 24.88065
#
# Velocity S-wave (km/s) = 2.66149 3.88046 3.32727
# Velocity P-wave (km/s) = 4.37340 6.47133 5.52289
#
# Compressibility (1/GPa) = 0.04595703
#
# Stress axis : x y z
#
# Youngs Moduli (GPa) = 95.91283 46.04634 51.34577
#
# Poissons Ratio (x) = 0.12522 -0.18635
# Poissons Ratio (y) = 0.26084 0.19208
# Poissons Ratio (z) = -0.34810 0.17226
#
# Static dielectric constant tensor:
#      x y z
#    x 1.868210 0.000000 0.013510 
#    y 0.000000 1.612980 0.000000 
#    z 0.013510 0.000000 1.789770 
# 
# From -- ./inp_files/195091.got.cif
#   From: 2010.05.17/outbox.cif.g08.bks.cpg/sg15_98_cif.got.tgz:195091.got - 2010.06.03 18:47:42.
