data_PCOD9256684
_publ_section_title
;
Structure prediction by ZEFSAII (Michael W. Deem and Ramdas Pophale) SiO2 
 PCOD9256684
Probable space group: C 2/C
;
_chemical_formula_sum "Si O2"
_cell_formula_units_Z 40
_cell_length_a 22.286924
_cell_length_b 8.568636
_cell_length_c 9.028813
_cell_angle_alpha 90.000000
_cell_angle_beta 111.972771
_cell_angle_gamma 90.000000
_cell_volume 1598.975008
_symmetry_space_group_name_H-M "C 2/C"
_symmetry_group_IT_number 15
_symmetry_cell_setting 'monoclinic'
loop_
_space_group_symop_operation_xyz
x,y,z
-x,y,1/2-z
-x,-y,-z
x,-y,1/2+z
1/2+x,1/2+y,z
1/2-x,1/2+y,1/2-z
1/2-x,1/2-y,-z
1/2+x,1/2-y,1/2+z
loop_
_atom_site_type_symbol
_atom_site_label
_atom_site_fract_x
_atom_site_fract_y
_atom_site_fract_z
Si Si1 0.202933 0.017005 0.902597
Si Si2 0.972402 0.735423 0.877604
Si Si3 0.410904 0.907053 0.819445
Si Si4 0.928552 0.867537 0.120396
Si Si5 0.227695 0.670578 0.251771
O O1 0.128131 0.018020 0.881891
O O2 0.216305 0.152163 0.792255
O O3 0.227252 0.860507 0.847222
O O4 0.242548 0.078841 0.080313
O O5 0.929756 0.583464 0.803648
O O6 0.000000 0.795672 0.750000
O O7 0.935336 0.854149 0.950420
O O8 0.032554 0.671258 0.031034
O O9 0.407053 0.801999 0.667072
O O10 0.343514 0.897339 0.841904
O O11 0.000000 0.891310 0.250000
#
# Coordination Sequence:
#
# PCOD9256684 Si02
#       5
#     8   8   8   8   8
#     4  10  23  43  63  93 125 167 207 260 310 371
#     4  10  18  28  54  90 120 157 204 258 314 358
#     4   9  18  31  52  87 126 156 197 257 317 359
#     4   9  19  38  58  84 123 163 205 259 306 365
#     4  10  23  39  64  92 128 167 206 254 312 373
#
# _framework density 25.016026
#
# number of rings (size 3 to 8) (size 9 to 14) (size 15 to 20)
#    0.000    2.400    0.000    3.000   11.200    0.800 
#    0.000    7.000    0.000    0.000    0.000    0.000 
#    0.000    0.000    0.000    0.000    0.000    0.000 
#
# Total GULP energy -112068.575927 kJ/mol
# GULP energy per Si atom -5603.428796 kJ/mol
# Density = 2.495909 g / cm^3
# Si number density = 25.016026 Si / 1000 Ang^3
#
#
#
# Elastic Constant Matrix: (Units=GPa)
#
#
# Indices 1 2 3 4 5 6 
#
# 1 171.3887 39.7808 32.2783 0.0000 -26.9118 0.0000
# 2 39.7808 56.6248 35.0388 0.0000 -20.4210 0.0000
# 3 32.2783 35.0388 70.1356 0.0000 -40.1694 0.0000
# 4 0.0000 0.0000 0.0000 19.1938 0.0000 -8.0265
# 5 -26.9118 -20.4210 -40.1694 0.0000 49.9224 0.0000
# 6 0.0000 0.0000 0.0000 -8.0265 0.0000 25.4959
#
#
#
# Elastic Compliance Matrix: (Units=1/GPa)
#
#
# Indices 1 2 3 4 5 6 
#
# 1 0.007157 -0.004308 0.000109 0.000000 0.002184 0.000000
# 2 -0.004308 0.028159 -0.012646 0.000000 -0.000979 0.000000
# 3 0.000109 -0.012646 0.032637 0.000000 0.021147 0.000000
# 4 0.000000 0.000000 0.000000 0.059999 0.000000 0.018889
# 5 0.002184 -0.000979 0.021147 0.000000 0.037824 0.000000
# 6 0.000000 0.000000 0.000000 0.018889 0.000000 0.045168
#
#
# Mechanical properties :
#
#
# Convention : Reuss Voigt Hill
#
# Bulk Modulus (GPa) = 29.18559 56.92719 43.05639
# Shear Modulus (GPa) = 19.52710 31.65916 25.59313
#
# Velocity S-wave (km/s) = 2.79692 3.56132 3.20202
# Velocity P-wave (km/s) = 4.70345 6.30209 5.56052
#
# Compressibility (1/GPa) = 0.03426348
#
# Stress axis : x y z
#
# Youngs Moduli (GPa) = 139.72431 35.51318 30.63971
#
# Poissons Ratio (x) = 0.15299 -0.00334
# Poissons Ratio (y) = 0.60193 0.38746
# Poissons Ratio (z) = -0.01524 0.44909
#
# Static dielectric constant tensor:
#      x y z
#    x 1.952160 0.000000 0.004780 
#    y 0.000000 1.976110 0.000000 
#    z 0.004780 0.000000 1.966070 
# 
# From -- ./inp_files/54186.got.cif
#   From: 2010.05.17/outbox.cif.g08.bks.cpg/sg15_28_cif.got.tgz:54186.got - 2010.06.03 18:47:42.
