data_PCOD9256315
_publ_section_title
;
Structure prediction by ZEFSAII (Michael W. Deem and Ramdas Pophale) SiO2 
 PCOD9256315
Probable space group: C 2/C
;
_chemical_formula_sum "Si O2"
_cell_formula_units_Z 44
_cell_length_a 30.775166
_cell_length_b 8.903202
_cell_length_c 16.775907
_cell_angle_alpha 90.000000
_cell_angle_beta 20.351806
_cell_angle_gamma 90.000000
_cell_volume 1598.606809
_symmetry_space_group_name_H-M "C 2/C"
_symmetry_group_IT_number 15
_symmetry_cell_setting 'monoclinic'
loop_
_space_group_symop_operation_xyz
x,y,z
-x,y,1/2-z
-x,-y,-z
x,-y,1/2+z
1/2+x,1/2+y,z
1/2-x,1/2+y,1/2-z
1/2-x,1/2-y,-z
1/2+x,1/2-y,1/2+z
loop_
_atom_site_type_symbol
_atom_site_label
_atom_site_fract_x
_atom_site_fract_y
_atom_site_fract_z
Si Si1 0.974938 0.601238 0.211094
Si Si2 0.240996 0.890242 0.631692
Si Si3 0.653912 0.810374 0.897248
Si Si4 0.356398 0.167601 0.267568
Si Si5 0.828538 0.078384 0.411600
Si Si6 0.000000 0.945620 0.750000
O O1 0.838415 0.527359 0.459152
O O2 0.973600 0.673260 0.125648
O O3 0.000000 0.689930 0.250000
O O4 0.068737 0.459707 0.049233
O O5 0.227480 0.849915 0.748962
O O6 0.139116 0.922199 0.738067
O O7 0.315484 0.747785 0.465261
O O8 0.593477 0.665276 0.041622
O O9 0.649377 0.775571 0.811907
O O10 0.250000 0.250000 0.500000
O O11 0.307812 0.996124 0.345122
O O12 0.917441 0.988737 0.319716
#
# Coordination Sequence:
#
# PCOD9256315 Si02
#       6
#     8   8   8   8   8   4
#     4   9  16  36  62  79 104 145 196 227 255 319
#     4   8  15  32  61  84  99 137 194 234 254 311
#     4  10  17  36  59  84 105 139 192 230 262 316
#     4  11  24  37  50  83 125 147 167 219 293 337
#     4   9  17  35  58  78 113 140 179 228 274 318
#     4  10  18  38  64  82 102 136 200 240 254 312
#
# _framework density 27.523966000000001
#
# number of rings (size 3 to 8) (size 9 to 14) (size 15 to 20)
#    0.000    2.545    4.545    0.545    0.000    0.000 
#   21.273    0.909    0.000    0.000    0.000    0.000 
#    0.000    0.000    0.000    0.000    0.000    0.000 
#
# Total GULP energy -122782.477118 kJ/mol
# GULP energy per Si atom -5581.021687 kJ/mol
# Density = 2.746132 g / cm^3
# Si number density = 27.523966 Si / 1000 Ang^3
#
#
#
# Elastic Constant Matrix: (Units=GPa)
#
#
# Indices 1 2 3 4 5 6 
#
# 1 371.2150 25.2892 51.5509 0.0000 22.8886 0.0000
# 2 25.2892 53.7295 10.6961 0.0000 -1.1691 0.0000
# 3 51.5509 10.6961 33.6510 0.0000 17.7056 0.0000
# 4 0.0000 0.0000 0.0000 2.9024 0.0000 -5.9239
# 5 22.8886 -1.1691 17.7056 0.0000 41.2904 0.0000
# 6 0.0000 0.0000 0.0000 -5.9239 0.0000 40.1475
#
#
#
# Elastic Compliance Matrix: (Units=1/GPa)
#
#
# Indices 1 2 3 4 5 6 
#
# 1 0.003444 -0.000564 -0.005273 0.000000 0.000336 0.000000
# 2 -0.000564 0.020549 -0.007927 0.000000 0.004293 0.000000
# 3 -0.005273 -0.007927 0.050227 0.000000 -0.018839 0.000000
# 4 0.000000 0.000000 0.000000 0.493015 0.000000 0.072747
# 5 0.000336 0.004293 -0.018839 0.000000 0.032232 0.000000
# 6 0.000000 0.000000 0.000000 0.072747 0.000000 0.035642
#
#
# Mechanical properties :
#
#
# Convention : Reuss Voigt Hill
#
# Bulk Modulus (GPa) = 21.41716 70.40755 45.91235
# Shear Modulus (GPa) = 7.37244 41.60534 24.48889
#
# Velocity S-wave (km/s) = 1.63840 3.89215 2.98607
# Velocity P-wave (km/s) = 3.37303 6.77011 5.34845
#
# Compressibility (1/GPa) = 0.04669154
#
# Stress axis : x y z
#
# Youngs Moduli (GPa) = 290.37160 48.66529 19.90957
#
# Poissons Ratio (x) = 0.02744 0.10499
# Poissons Ratio (y) = 0.16372 0.15782
# Poissons Ratio (z) = 1.53127 0.38575
#
# Static dielectric constant tensor:
#      x y z
#    x 2.365770 0.000000 -0.006740 
#    y 0.000000 2.199240 0.000000 
#    z -0.006740 0.000000 2.167860 
# 
# From -- ./inp_files/177499.got.cif
#   From: 2010.05.17/outbox.cif.g08.bks.cpg/sg15_89_cif.got.tgz:177499.got - 2010.06.03 18:47:42.
