data_PCOD9256849
_publ_section_title
;
Structure prediction by ZEFSAII (Michael W. Deem and Ramdas Pophale) SiO2 
 PCOD9256849
Probable space group: C 2/C
;
_chemical_formula_sum "Si O2"
_cell_formula_units_Z 60
_cell_length_a 16.586844
_cell_length_b 30.531341
_cell_length_c 5.426092
_cell_angle_alpha 90.000000
_cell_angle_beta 114.206952
_cell_angle_gamma 90.000000
_cell_volume 2506.254333
_symmetry_space_group_name_H-M "C 2/C"
_symmetry_group_IT_number 15
_symmetry_cell_setting 'monoclinic'
loop_
_space_group_symop_operation_xyz
x,y,z
-x,y,1/2-z
-x,-y,-z
x,-y,1/2+z
1/2+x,1/2+y,z
1/2-x,1/2+y,1/2-z
1/2-x,1/2-y,-z
1/2+x,1/2-y,1/2+z
loop_
_atom_site_type_symbol
_atom_site_label
_atom_site_fract_x
_atom_site_fract_y
_atom_site_fract_z
Si Si1 0.698063 0.973622 0.997075
Si Si2 0.500000 0.027322 0.250000
Si Si3 0.900991 0.018981 0.411622
Si Si4 0.806156 0.615218 0.818746
Si Si5 0.807493 0.744398 0.323726
Si Si6 0.118607 0.877863 0.549903
Si Si7 0.377833 0.335312 0.446672
Si Si8 0.670632 0.143473 0.155336
O O1 0.597869 0.953694 0.883779
O O2 0.704136 0.988599 0.716680
O O3 0.743765 0.930212 0.170199
O O4 0.500000 0.000000 0.500000
O O5 0.900237 0.071004 0.427762
O O6 0.859421 0.999474 0.608922
O O7 0.000000 0.000000 0.500000
O O8 0.726919 0.650853 0.681607
O O9 0.856037 0.615931 0.619131
O O10 0.863960 0.631813 0.118690
O O11 0.750000 0.750000 0.500000
O O12 0.878814 0.783438 0.410474
O O13 0.842202 0.695072 0.387331
O O14 0.750000 0.750000 0.000000
O O15 0.086490 0.861750 0.243717
O O16 0.224591 0.868988 0.684301
O O17 0.086696 0.850376 0.745031
#
# Coordination Sequence:
#
# PCOD9256849 Si02
#       8
#     8   4   8   8   8   8   8   8
#     4  10  19  32  47  64  88 124 163 201 233 269
#     4   8  16  30  48  64  80 106 152 200 226 246
#     4  10  21  37  54  70  91 125 169 220 265 299
#     4  10  18  30  43  65  98 127 160 188 231 278
#     4  12  16  30  48  69 100 133 160 181 236 289
#     4  10  18  32  48  69  97 124 161 202 249 290
#     4  10  19  30  46  72 101 130 152 196 235 300
#     4  10  19  30  45  70 101 130 151 192 232 298
#
# _framework density 23.940107000000001
#
# number of rings (size 3 to 8) (size 9 to 14) (size 15 to 20)
#    0.000    1.867    5.333    1.600    0.000    0.000 
#    0.000   16.000    0.000    0.000    0.000    0.000 
#    0.000   36.267    0.000    0.000    0.000    0.000 
#
# Total GULP energy -167376.452917 kJ/mol
# GULP energy per Si atom -5579.215097 kJ/mol
# Density = 2.388562 g / cm^3
# Si number density = 23.940107 Si / 1000 Ang^3
#
#
#
# Elastic Constant Matrix: (Units=GPa)
#
#
# Indices 1 2 3 4 5 6 
#
# 1 24.0325 -1.8948 24.8564 0.0000 -12.9194 0.0000
# 2 -1.8948 176.3279 51.7539 0.0000 -15.1190 0.0000
# 3 24.8564 51.7539 192.6999 0.0000 -61.4295 0.0000
# 4 0.0000 0.0000 0.0000 34.2789 0.0000 -17.7114
# 5 -12.9194 -15.1190 -61.4295 0.0000 46.9026 0.0000
# 6 0.0000 0.0000 0.0000 -17.7114 0.0000 17.7752
#
#
#
# Elastic Compliance Matrix: (Units=1/GPa)
#
#
# Indices 1 2 3 4 5 6 
#
# 1 0.051317 0.002629 -0.004377 0.000000 0.009251 0.000000
# 2 0.002629 0.006294 -0.001978 0.000000 0.000163 0.000000
# 3 -0.004377 -0.001978 0.009782 0.000000 0.010968 0.000000
# 4 0.000000 0.000000 0.000000 0.060129 0.000000 0.059913
# 5 0.009251 0.000163 0.010968 0.000000 0.038287 0.000000
# 6 0.000000 0.000000 0.000000 0.059913 0.000000 0.115956
#
#
# Mechanical properties :
#
#
# Convention : Reuss Voigt Hill
#
# Bulk Modulus (GPa) = 16.68253 60.27681 38.47967
# Shear Modulus (GPa) = 16.17107 41.01434 28.59270
#
# Velocity S-wave (km/s) = 2.60182 4.14358 3.45968
# Velocity P-wave (km/s) = 4.00119 6.93723 5.66280
#
# Compressibility (1/GPa) = 0.05994296
#
# Stress axis : x y z
#
# Youngs Moduli (GPa) = 19.48662 158.88373 102.23377
#
# Poissons Ratio (x) = -0.41774 0.44743
# Poissons Ratio (y) = -0.05123 0.20217
# Poissons Ratio (z) = 0.08528 0.31420
#
# Static dielectric constant tensor:
#      x y z
#    x 2.634430 0.000000 -0.156470 
#    y 0.000000 1.928300 0.000000 
#    z -0.156470 0.000000 1.987400 
# 
# From -- ./inp_files/14411.got.cif
#   From: 2010.05.17/outbox.cif.g08.bks.cpg/sg15_8_cif.got.tgz:14411.got - 2010.06.03 18:47:42.
