data_PCOD9256298
_publ_section_title
;
Structure prediction by ZEFSAII (Michael W. Deem and Ramdas Pophale) SiO2 
 PCOD9256298
Probable space group: C 2/C
;
_chemical_formula_sum "Si O2"
_cell_formula_units_Z 56
_cell_length_a 22.348933
_cell_length_b 8.391848
_cell_length_c 20.308290
_cell_angle_alpha 90.000000
_cell_angle_beta 52.065986
_cell_angle_gamma 90.000000
_cell_volume 3004.071129
_symmetry_space_group_name_H-M "C 2/C"
_symmetry_group_IT_number 15
_symmetry_cell_setting 'monoclinic'
loop_
_space_group_symop_operation_xyz
x,y,z
-x,y,1/2-z
-x,-y,-z
x,-y,1/2+z
1/2+x,1/2+y,z
1/2-x,1/2+y,1/2-z
1/2-x,1/2-y,-z
1/2+x,1/2-y,1/2+z
loop_
_atom_site_type_symbol
_atom_site_label
_atom_site_fract_x
_atom_site_fract_y
_atom_site_fract_z
Si Si1 0.876149 0.178579 0.588378
Si Si2 0.293669 0.815292 0.315443
Si Si3 0.122155 0.017452 0.277924
Si Si4 0.899554 0.475525 0.660554
Si Si5 0.421289 0.766612 0.773948
Si Si6 0.988203 0.239112 0.404270
Si Si7 0.414709 0.913784 0.338915
O O1 0.793989 0.160439 0.611005
O O2 0.878103 0.066968 0.651115
O O3 0.885261 0.358043 0.610331
O O4 0.943979 0.150805 0.491979
O O5 0.310179 0.642659 0.273838
O O6 0.324132 0.945187 0.242278
O O7 0.350915 0.829571 0.338192
O O8 0.126549 0.883205 0.218437
O O9 0.043553 0.118400 0.327874
O O10 0.932702 0.370557 0.699111
O O11 0.956287 0.620592 0.607563
O O12 0.500000 0.705396 0.750000
O O13 0.393848 0.898428 0.845551
O O14 0.926709 0.328700 0.400099
O O15 0.500000 0.901695 0.250000
#
# Coordination Sequence:
#
# PCOD9256298 Si02
#       7
#     8   8   8   8   8   8   8
#     4  11  22  34  51  84 115 142 176 219 275 319
#     4  10  20  35  57  78 108 144 182 222 262 319
#     4  10  21  33  56  82 108 140 182 227 262 317
#     4   9  18  35  55  74 101 149 181 209 258 328
#     4   9  16  30  56  81  94 128 188 229 251 300
#     4  11  20  35  56  81 112 141 178 224 269 318
#     4  10  17  36  58  77  98 144 185 218 266 322
#
# _framework density 18.641369999999998
#
# number of rings (size 3 to 8) (size 9 to 14) (size 15 to 20)
#    0.000    2.000    5.714    1.714    2.000    0.571 
#    0.000    0.000    0.000    0.857    0.000    0.000 
#    0.000    0.000    0.000    0.000    0.000    0.000 
#
# Total GULP energy -155971.625595 kJ/mol
# GULP energy per Si atom -5570.415200 kJ/mol
# Density = 1.859894 g / cm^3
# Si number density = 18.641370 Si / 1000 Ang^3
#
#
#
# Elastic Constant Matrix: (Units=GPa)
#
#
# Indices 1 2 3 4 5 6 
#
# 1 67.8045 15.5768 2.5657 -0.0002 -9.1193 0.0001
# 2 15.5768 62.1982 -0.6335 -0.0001 -2.2087 0.0003
# 3 2.5657 -0.6335 27.3061 0.0001 -15.7760 -0.0001
# 4 -0.0002 -0.0001 0.0001 11.1565 0.0002 5.5569
# 5 -9.1193 -2.2087 -15.7760 0.0002 19.7102 -0.0001
# 6 0.0001 0.0003 -0.0001 5.5569 -0.0001 16.1111
#
#
#
# Elastic Compliance Matrix: (Units=1/GPa)
#
#
# Indices 1 2 3 4 5 6 
#
# 1 0.016957 -0.003796 0.004847 0.000000 0.011299 0.000000
# 2 -0.003796 0.017095 0.001572 0.000000 0.001418 0.000000
# 3 0.004847 0.001572 0.069945 -0.000002 0.058402 0.000002
# 4 0.000000 0.000000 -0.000002 0.108227 -0.000003 -0.037329
# 5 0.011299 0.001418 0.058402 -0.000003 0.102867 0.000002
# 6 0.000000 0.000000 0.000002 -0.037329 0.000002 0.074944
#
#
# Mechanical properties :
#
#
# Convention : Reuss Voigt Hill
#
# Bulk Modulus (GPa) = 9.15396 21.36966 15.26181
# Shear Modulus (GPa) = 11.87079 18.71554 15.29316
#
# Velocity S-wave (km/s) = 2.52622 3.17200 2.86735
# Velocity P-wave (km/s) = 3.66474 4.99038 4.37802
#
# Compressibility (1/GPa) = 0.10924236
#
# Stress axis : x y z
#
# Youngs Moduli (GPa) = 58.97397 58.49776 14.29703
#
# Poissons Ratio (x) = 0.22206 -0.06930
# Poissons Ratio (y) = 0.22387 -0.02248
# Poissons Ratio (z) = -0.28584 -0.09198
#
# Static dielectric constant tensor:
#      x y z
#    x 1.663440 0.000000 0.018420 
#    y 0.000000 1.677920 0.000000 
#    z 0.018420 0.000000 1.626410 
# 
# From -- ./inp_files/251643.got.cif
#   From: 2010.05.17/outbox.cif.g08.bks.cpg/sg15_126_cif.got.tgz:251643.got - 2010.06.03 18:47:42.
