data_PCOD9256633
_publ_section_title
;
Structure prediction by ZEFSAII (Michael W. Deem and Ramdas Pophale) SiO2 
 PCOD9256633
Probable space group: C 2/C
;
_chemical_formula_sum "Si O2"
_cell_formula_units_Z 64
_cell_length_a 15.537717
_cell_length_b 18.945745
_cell_length_c 11.773674
_cell_angle_alpha 90.000000
_cell_angle_beta 126.141675
_cell_angle_gamma 90.000000
_cell_volume 2798.893006
_symmetry_space_group_name_H-M "C 2/C"
_symmetry_group_IT_number 15
_symmetry_cell_setting 'monoclinic'
loop_
_space_group_symop_operation_xyz
x,y,z
-x,y,1/2-z
-x,-y,-z
x,-y,1/2+z
1/2+x,1/2+y,z
1/2-x,1/2+y,1/2-z
1/2-x,1/2-y,-z
1/2+x,1/2-y,1/2+z
loop_
_atom_site_type_symbol
_atom_site_label
_atom_site_fract_x
_atom_site_fract_y
_atom_site_fract_z
Si Si1 0.215399 0.168901 0.296221
Si Si2 0.395926 0.426193 0.346915
Si Si3 0.607730 0.408823 0.896629
Si Si4 0.240047 0.208344 0.812626
Si Si5 0.601082 0.778783 0.885900
Si Si6 0.887521 0.124749 0.516210
Si Si7 0.295706 0.022764 0.059717
Si Si8 0.308279 0.023189 0.329571
O O1 0.153504 0.158454 0.365071
O O2 0.247498 0.248969 0.294104
O O3 0.304704 0.107096 0.353797
O O4 0.137951 0.145767 0.132736
O O5 0.415274 0.402605 0.490229
O O6 0.332855 0.359487 0.248904
O O7 0.515903 0.430528 0.394211
O O8 0.314424 0.491645 0.275209
O O9 0.500000 0.430404 0.750000
O O10 0.706383 0.462648 0.974003
O O11 0.187476 0.267116 0.854336
O O12 0.349719 0.189302 0.961827
O O13 0.500000 0.814928 0.750000
O O14 0.574858 0.698265 0.900815
O O15 0.778756 0.091966 0.481669
O O16 0.353063 0.015780 0.979726
O O17 0.347594 0.012910 0.227613
#
# Coordination Sequence:
#
# PCOD9256633 Si02
#       8
#     8   8   8   8   8   8   8   8
#     4   9  19  34  45  67 105 141 173 208 251 303
#     4  11  20  30  49  75 102 136 174 208 254 306
#     4  10  19  29  45  69 101 142 180 201 234 311
#     4  10  21  33  49  73 103 134 170 214 255 306
#     4  10  19  33  51  73 101 132 167 205 260 320
#     4  10  18  28  48  74 106 136 162 202 252 317
#     4   9  19  27  43  71 105 138 174 195 239 312
#     4   9  19  31  46  70 102 141 171 208 251 310
#
# _framework density 22.866182999999999
#
# number of rings (size 3 to 8) (size 9 to 14) (size 15 to 20)
#    0.000    2.250    2.500    0.750    3.500    3.000 
#    0.000    0.000    0.000    0.000    0.000    0.875 
#    0.000    2.000    0.000    0.000    0.000    0.000 
#
# Total GULP energy -178259.638404 kJ/mol
# GULP energy per Si atom -5570.613700 kJ/mol
# Density = 2.281414 g / cm^3
# Si number density = 22.866183 Si / 1000 Ang^3
#
#
#
# Elastic Constant Matrix: (Units=GPa)
#
#
# Indices 1 2 3 4 5 6 
#
# 1 18.2950 2.3791 24.1010 0.0000 -20.8356 0.0000
# 2 2.3791 51.2091 0.5190 0.0000 2.0216 0.0000
# 3 24.1010 0.5190 111.4529 0.0000 -33.1143 0.0000
# 4 0.0000 0.0000 0.0000 27.6992 0.0000 -6.7116
# 5 -20.8356 2.0216 -33.1143 0.0000 39.0454 0.0000
# 6 0.0000 0.0000 0.0000 -6.7116 0.0000 16.9483
#
#
#
# Elastic Compliance Matrix: (Units=1/GPa)
#
#
# Indices 1 2 3 4 5 6 
#
# 1 0.154580 -0.009950 -0.011657 0.000000 0.073117 0.000000
# 2 -0.009950 0.020231 0.000225 0.000000 -0.006166 0.000000
# 3 -0.011657 0.000225 0.012888 0.000000 0.004698 0.000000
# 4 0.000000 0.000000 0.000000 0.039934 0.000000 0.015814
# 5 0.073117 -0.006166 0.004698 0.000000 0.068932 0.000000
# 6 0.000000 0.000000 0.000000 0.015814 0.000000 0.065266
#
#
# Mechanical properties :
#
#
# Convention : Reuss Voigt Hill
#
# Bulk Modulus (GPa) = 6.89953 26.10614 16.50284
# Shear Modulus (GPa) = 11.03982 27.00244 19.02113
#
# Velocity S-wave (km/s) = 2.19966 3.44014 2.88730
# Velocity P-wave (km/s) = 3.07819 5.21738 4.28347
#
# Compressibility (1/GPa) = 0.14493745
#
# Stress axis : x y z
#
# Youngs Moduli (GPa) = 6.46913 49.42867 77.59177
#
# Poissons Ratio (x) = 0.49181 0.90445
# Poissons Ratio (y) = 0.06437 -0.01749
# Poissons Ratio (z) = 0.07541 -0.01114
#
# Static dielectric constant tensor:
#      x y z
#    x 1.938260 0.000000 -0.060530 
#    y 0.000000 1.884750 0.000000 
#    z -0.060530 0.000000 1.944020 
# 
# From -- ./inp_files/114103.got.cif
#   From: 2010.05.17/outbox.cif.g08.bks.cpg/sg15_58_cif.got.tgz:114103.got - 2010.06.03 18:47:42.
