data_PCOD9256220
_publ_section_title
;
Structure prediction by ZEFSAII (Michael W. Deem and Ramdas Pophale) SiO2 
 PCOD9256220
Probable space group: C 2/C
;
_chemical_formula_sum "Si O2"
_cell_formula_units_Z 52
_cell_length_a 10.216445
_cell_length_b 17.541660
_cell_length_c 18.581837
_cell_angle_alpha 90.000000
_cell_angle_beta 140.559846
_cell_angle_gamma 90.000000
_cell_volume 2115.528035
_symmetry_space_group_name_H-M "C 2/C"
_symmetry_group_IT_number 15
_symmetry_cell_setting 'monoclinic'
loop_
_space_group_symop_operation_xyz
x,y,z
-x,y,1/2-z
-x,-y,-z
x,-y,1/2+z
1/2+x,1/2+y,z
1/2-x,1/2+y,1/2-z
1/2-x,1/2-y,-z
1/2+x,1/2-y,1/2+z
loop_
_atom_site_type_symbol
_atom_site_label
_atom_site_fract_x
_atom_site_fract_y
_atom_site_fract_z
Si Si1 0.034081 0.823493 0.415186
Si Si2 0.907350 0.669752 0.980250
Si Si3 0.742286 0.161764 0.015931
Si Si4 0.000000 0.911568 0.750000
Si Si5 0.627539 0.938169 0.677709
Si Si6 0.179108 0.429234 0.282422
Si Si7 0.610138 0.585850 0.086809
O O1 0.170357 0.816558 0.401356
O O2 0.828052 0.868642 0.312035
O O3 0.145514 0.874582 0.525243
O O4 0.830134 0.995431 0.381936
O O5 0.005390 0.653961 0.943898
O O6 0.977459 0.598803 0.058237
O O7 0.007346 0.744181 0.061489
O O8 0.883228 0.114033 0.018193
O O9 0.868005 0.140722 0.141384
O O10 0.750000 0.250000 0.000000
O O11 0.838510 0.960620 0.726132
O O12 0.718260 0.885693 0.780970
O O13 0.542473 0.014608 0.675421
O O14 0.000000 0.387649 0.250000
#
# Coordination Sequence:
#
# PCOD9256220 Si02
#       7
#     8   8   8   4   8   8   8
#     4  11  21  36  59  91 126 151 203 264 295 367
#     4  10  21  36  60  90 124 160 197 249 316 363
#     4  10  17  35  59  90 117 161 204 248 304 374
#     4   8  16  32  56  84 110 164 200 244 300 368
#     4   8  18  34  59  80 116 160 199 239 301 370
#     4  10  21  38  58  87 118 162 206 250 306 356
#     4   9  19  35  61  85 119 156 207 251 298 366
#
# _framework density 24.580152999999999
#
# number of rings (size 3 to 8) (size 9 to 14) (size 15 to 20)
#    0.923    1.538    1.538    1.385    0.000    0.000 
#    8.308    0.769    3.385    1.846    0.000    0.000 
#    0.000    0.000    0.000    0.000    0.000    0.000 
#
# Total GULP energy -144761.780079 kJ/mol
# GULP energy per Si atom -5567.760772 kJ/mol
# Density = 2.452421 g / cm^3
# Si number density = 24.580153 Si / 1000 Ang^3
#
#
#
# Elastic Constant Matrix: (Units=GPa)
#
#
# Indices 1 2 3 4 5 6 
#
# 1 182.7136 31.4451 5.2917 0.0000 3.4601 0.0000
# 2 31.4451 69.6159 -3.4668 0.0000 10.5003 0.0000
# 3 5.2917 -3.4668 35.7740 -0.0001 -3.1147 0.0000
# 4 0.0000 0.0000 -0.0001 10.4616 0.0000 1.7791
# 5 3.4601 10.5003 -3.1147 0.0000 21.0390 0.0000
# 6 0.0000 0.0000 0.0000 1.7791 0.0000 18.6775
#
#
#
# Elastic Compliance Matrix: (Units=1/GPa)
#
#
# Indices 1 2 3 4 5 6 
#
# 1 0.005982 -0.002795 -0.001135 0.000000 0.000243 0.000000
# 2 -0.002795 0.016865 0.001373 0.000000 -0.007754 0.000000
# 3 -0.001135 0.001373 0.028579 0.000000 0.003732 0.000000
# 4 0.000000 0.000000 0.000000 0.097162 0.000000 -0.009255
# 5 0.000243 -0.007754 0.003732 0.000000 0.051913 0.000000
# 6 0.000000 0.000000 0.000000 -0.009255 0.000000 0.054422
#
#
# Mechanical properties :
#
#
# Convention : Reuss Voigt Hill
#
# Bulk Modulus (GPa) = 21.59265 39.40482 30.49874
# Shear Modulus (GPa) = 18.15042 27.02451 22.58746
#
# Velocity S-wave (km/s) = 2.72033 3.31938 3.03468
# Velocity P-wave (km/s) = 4.32095 5.54590 4.97130
#
# Compressibility (1/GPa) = 0.04631205
#
# Stress axis : x y z
#
# Youngs Moduli (GPa) = 167.15723 59.29384 34.99065
#
# Poissons Ratio (x) = 0.16575 0.03970
# Poissons Ratio (y) = 0.46727 -0.04803
# Poissons Ratio (z) = 0.18966 -0.08140
#
# Static dielectric constant tensor:
#      x y z
#    x 2.051000 0.000000 -0.030300 
#    y 0.000000 1.976640 0.000000 
#    z -0.030300 0.000000 2.117930 
# 
# From -- ./inp_files/273976.got.cif
#   From: 2010.05.17/outbox.cif.g08.bks.cpg/sg15_137_cif.got.tgz:273976.got - 2010.06.03 18:47:42.
