data_PCOD9256908
_publ_section_title
;
Structure prediction by ZEFSAII (Michael W. Deem and Ramdas Pophale) SiO2 
 PCOD9256908
Probable space group: C 2/C
;
_chemical_formula_sum "Si O2"
_cell_formula_units_Z 48
_cell_length_a 21.297888
_cell_length_b 15.683913
_cell_length_c 7.253578
_cell_angle_alpha 90.000000
_cell_angle_beta 80.805386
_cell_angle_gamma 90.000000
_cell_volume 2391.811592
_symmetry_space_group_name_H-M "C 2/C"
_symmetry_group_IT_number 15
_symmetry_cell_setting 'monoclinic'
loop_
_space_group_symop_operation_xyz
x,y,z
-x,y,1/2-z
-x,-y,-z
x,-y,1/2+z
1/2+x,1/2+y,z
1/2-x,1/2+y,1/2-z
1/2-x,1/2-y,-z
1/2+x,1/2-y,1/2+z
loop_
_atom_site_type_symbol
_atom_site_label
_atom_site_fract_x
_atom_site_fract_y
_atom_site_fract_z
Si Si1 0.214896 0.123296 0.020035
Si Si2 0.132312 0.597980 0.125824
Si Si3 0.929260 0.432992 0.215437
Si Si4 0.345902 0.785421 0.355611
Si Si5 0.276270 0.567288 0.058799
Si Si6 0.325387 0.731624 0.951346
O O1 0.161884 0.197157 0.029377
O O2 0.226189 0.104095 0.232160
O O3 0.278948 0.164988 0.909708
O O4 0.202791 0.030311 0.944418
O O5 0.110618 0.520809 0.263065
O O6 0.203402 0.572471 0.020289
O O7 0.142993 0.695061 0.189320
O O8 0.079859 0.597421 0.989553
O O9 0.898517 0.358201 0.355158
O O10 0.000000 0.448090 0.250000
O O11 0.351981 0.753489 0.141379
O O12 0.323448 0.630155 0.924411
O O13 0.250000 0.750000 0.000000
#
# Coordination Sequence:
#
# PCOD9256908 Si02
#       6
#     8   8   8   8   8   8
#     4  10  19  30  49  71  99 125 156 193 245 291
#     4  10  19  32  46  68  96 126 161 196 229 285
#     4  11  21  33  48  67  95 133 167 194 233 279
#     4   9  19  32  45  68  98 129 157 193 235 289
#     4  10  18  30  48  72  96 127 150 194 247 289
#     4   8  17  29  46  68  96 123 155 188 241 282
#
# _framework density 20.068470999999999
#
# number of rings (size 3 to 8) (size 9 to 14) (size 15 to 20)
#    0.000    2.333    1.667    1.500    4.667    0.000 
#    0.000    0.000    0.000    0.000    0.000   11.667 
#    0.000    0.000    0.000    0.000    0.000    2.167 
#
# Total GULP energy -133727.487106 kJ/mol
# GULP energy per Si atom -5571.978629 kJ/mol
# Density = 2.002279 g / cm^3
# Si number density = 20.068471 Si / 1000 Ang^3
#
#
#
# Elastic Constant Matrix: (Units=GPa)
#
#
# Indices 1 2 3 4 5 6 
#
# 1 57.4151 35.8618 12.7929 0.0000 2.2361 0.0000
# 2 35.8618 192.2966 23.2421 0.0000 -9.1251 0.0000
# 3 12.7929 23.2421 26.0296 0.0000 7.1408 0.0000
# 4 0.0000 0.0000 0.0000 33.0967 0.0000 2.1700
# 5 2.2361 -9.1251 7.1408 0.0000 19.5804 0.0000
# 6 0.0000 0.0000 0.0000 2.1700 0.0000 20.1037
#
#
#
# Elastic Compliance Matrix: (Units=1/GPa)
#
#
# Indices 1 2 3 4 5 6 
#
# 1 0.021012 -0.003103 -0.007224 0.000000 -0.001211 0.000000
# 2 -0.003103 0.006791 -0.006116 0.000000 0.005750 0.000000
# 3 -0.007224 -0.006116 0.053319 0.000000 -0.021470 0.000000
# 4 0.000000 0.000000 0.000000 0.030430 0.000000 -0.003285
# 5 -0.001211 0.005750 -0.021470 0.000000 0.061719 0.000000
# 6 0.000000 0.000000 0.000000 -0.003285 0.000000 0.050097
#
#
# Mechanical properties :
#
#
# Convention : Reuss Voigt Hill
#
# Bulk Modulus (GPa) = 20.73129 46.61500 33.67315
# Shear Modulus (GPa) = 18.35990 28.14580 23.25285
#
# Velocity S-wave (km/s) = 3.02795 3.74904 3.40763
# Velocity P-wave (km/s) = 4.75156 6.48219 5.68314
#
# Compressibility (1/GPa) = 0.04823626
#
# Stress axis : x y z
#
# Youngs Moduli (GPa) = 47.59215 147.25293 18.75495
#
# Poissons Ratio (x) = 0.45691 0.13548
# Poissons Ratio (y) = 0.14767 0.11471
# Poissons Ratio (z) = 0.34380 0.90062
#
# Static dielectric constant tensor:
#      x y z
#    x 1.658900 0.000000 0.034570 
#    y 0.000000 1.827170 0.000000 
#    z 0.034570 0.000000 1.874240 
# 
# From -- ./inp_files/54959.got.cif
#   From: 2010.05.17/outbox.cif.g08.bks.cpg/sg15_28_cif.got.tgz:54959.got - 2010.06.03 18:47:42.
