data_PCOD9256183
_publ_section_title
;
Structure prediction by ZEFSAII (Michael W. Deem and Ramdas Pophale) SiO2 
 PCOD9256183
Probable space group: C 2/C
;
_chemical_formula_sum "Si O2"
_cell_formula_units_Z 56
_cell_length_a 28.422427
_cell_length_b 5.987784
_cell_length_c 18.178876
_cell_angle_alpha 90.000000
_cell_angle_beta 69.489601
_cell_angle_gamma 90.000000
_cell_volume 2897.693585
_symmetry_space_group_name_H-M "C 2/C"
_symmetry_group_IT_number 15
_symmetry_cell_setting 'monoclinic'
loop_
_space_group_symop_operation_xyz
x,y,z
-x,y,1/2-z
-x,-y,-z
x,-y,1/2+z
1/2+x,1/2+y,z
1/2-x,1/2+y,1/2-z
1/2-x,1/2-y,-z
1/2+x,1/2-y,1/2+z
loop_
_atom_site_type_symbol
_atom_site_label
_atom_site_fract_x
_atom_site_fract_y
_atom_site_fract_z
Si Si1 0.137737 0.658357 0.641530
Si Si2 0.928682 0.671413 0.495267
Si Si3 0.493708 0.823735 0.092937
Si Si4 0.723604 0.563356 0.064289
Si Si5 0.946475 0.991817 0.348064
Si Si6 0.177923 0.673549 0.992408
Si Si7 0.550581 0.104071 0.264245
O O1 0.185718 0.806634 0.639115
O O2 0.158064 0.492054 0.567688
O O3 0.102539 0.517020 0.715263
O O4 0.099047 0.836817 0.630216
O O5 0.959485 0.770599 0.546535
O O6 0.937733 0.806941 0.415285
O O7 0.868807 0.679176 0.537509
O O8 0.954875 0.430483 0.467311
O O9 0.507568 0.639809 0.146039
O O10 0.463326 0.032309 0.145787
O O11 0.692246 0.401557 0.026811
O O12 0.750000 0.750000 0.000000
O O13 0.770010 0.419156 0.069586
O O14 0.946619 0.853119 0.271377
O O15 0.500000 0.017669 0.250000
#
# Coordination Sequence:
#
# PCOD9256183 Si02
#       7
#     8   8   8   8   8   8   8
#     4  11  19  33  55  81 113 143 192 243 286 331
#     4  11  21  38  57  83 120 154 191 237 296 358
#     4  11  25  37  53  87 121 155 192 236 293 351
#     4   9  19  30  56  87 112 142 192 246 290 329
#     4  12  20  36  56  79 117 156 195 231 286 343
#     4  10  17  35  54  87 113 144 192 241 292 341
#     4  12  22  34  53  81 114 153 198 233 276 349
#
# _framework density 19.325714999999999
#
# number of rings (size 3 to 8) (size 9 to 14) (size 15 to 20)
#    0.000    1.143    7.143    0.429    2.000    0.000 
#    0.000    0.000    0.000    0.000   14.857    0.000 
#    0.000    0.000    0.000    0.000    0.000    0.000 
#
# Total GULP energy -155884.105149 kJ/mol
# GULP energy per Si atom -5567.289470 kJ/mol
# Density = 1.928173 g / cm^3
# Si number density = 19.325715 Si / 1000 Ang^3
#
#
#
# Elastic Constant Matrix: (Units=GPa)
#
#
# Indices 1 2 3 4 5 6 
#
# 1 126.5188 49.3357 25.8170 0.0000 -22.5365 0.0000
# 2 49.3357 75.4297 17.1785 0.0000 -6.7468 0.0000
# 3 25.8170 17.1785 41.4928 0.0000 -13.2075 0.0000
# 4 0.0000 0.0000 0.0000 27.0313 0.0000 -17.3146
# 5 -22.5365 -6.7468 -13.2075 0.0000 25.4965 0.0000
# 6 0.0000 0.0000 0.0000 -17.3146 0.0000 38.7968
#
#
#
# Elastic Compliance Matrix: (Units=1/GPa)
#
#
# Indices 1 2 3 4 5 6 
#
# 1 0.012515 -0.006930 -0.002371 0.000000 0.008000 0.000000
# 2 -0.006930 0.018491 -0.004474 0.000000 -0.003550 0.000000
# 3 -0.002371 -0.004474 0.031594 0.000000 0.013086 0.000000
# 4 0.000000 0.000000 0.000000 0.051803 0.000000 0.023119
# 5 0.008000 -0.003550 0.013086 0.000000 0.052132 0.000000
# 6 0.000000 0.000000 0.000000 0.023119 0.000000 0.036093
#
#
# Mechanical properties :
#
#
# Convention : Reuss Voigt Hill
#
# Bulk Modulus (GPa) = 28.53078 47.56708 38.04893
# Shear Modulus (GPa) = 20.67297 28.33893 24.50595
#
# Velocity S-wave (km/s) = 3.27419 3.83349 3.56483
# Velocity P-wave (km/s) = 5.39342 6.65290 6.05599
#
# Compressibility (1/GPa) = 0.03504987
#
# Stress axis : x y z
#
# Youngs Moduli (GPa) = 79.90220 54.07911 31.65199
#
# Poissons Ratio (x) = 0.37478 0.07506
# Poissons Ratio (y) = 0.55373 0.14160
# Poissons Ratio (z) = 0.18948 0.24193
#
# Static dielectric constant tensor:
#      x y z
#    x 1.720710 0.000000 -0.038650 
#    y 0.000000 1.734140 0.000000 
#    z -0.038650 0.000000 1.695380 
# 
# From -- ./inp_files/258288.got.cif
#   From: 2010.05.17/outbox.cif.g08.bks.cpg/sg15_130_cif.got.tgz:258288.got - 2010.06.03 18:47:42.
