data_PCOD9256588
_publ_section_title
;
Structure prediction by ZEFSAII (Michael W. Deem and Ramdas Pophale) SiO2 
 PCOD9256588
Probable space group: C 2/C
;
_chemical_formula_sum "Si O2"
_cell_formula_units_Z 56
_cell_length_a 23.321505
_cell_length_b 18.467676
_cell_length_c 28.211328
_cell_angle_alpha 90.000000
_cell_angle_beta 17.414793
_cell_angle_gamma 90.000000
_cell_volume 3636.473499
_symmetry_space_group_name_H-M "C 2/C"
_symmetry_group_IT_number 15
_symmetry_cell_setting 'monoclinic'
loop_
_space_group_symop_operation_xyz
x,y,z
-x,y,1/2-z
-x,-y,-z
x,-y,1/2+z
1/2+x,1/2+y,z
1/2-x,1/2+y,1/2-z
1/2-x,1/2-y,-z
1/2+x,1/2-y,1/2+z
loop_
_atom_site_type_symbol
_atom_site_label
_atom_site_fract_x
_atom_site_fract_y
_atom_site_fract_z
Si Si1 0.824780 0.327926 0.425296
Si Si2 0.799170 0.043286 0.766751
Si Si3 0.536213 0.043477 0.397980
Si Si4 0.833699 0.172494 0.670040
Si Si5 0.577437 0.086650 0.797897
Si Si6 0.424522 0.413174 0.950719
Si Si7 0.819050 0.172677 0.177298
O O1 0.750000 0.250000 0.500000
O O2 0.660811 0.372345 0.527231
O O3 0.000000 0.318775 0.250000
O O4 0.909573 0.372527 0.402562
O O5 0.863984 0.115615 0.688726
O O6 0.668713 0.999895 0.831348
O O7 0.663015 0.059176 0.918645
O O8 0.968838 0.987891 0.644995
O O9 0.653609 0.115848 0.293815
O O10 0.514841 0.988154 0.371447
O O11 0.668455 0.138426 0.766511
O O12 0.766777 0.249885 0.741712
O O13 0.022812 0.178473 0.488644
O O14 0.749157 0.072409 0.625207
O O15 0.571495 0.361332 0.863346
#
# Coordination Sequence:
#
# PCOD9256588 Si02
#       7
#     8   8   8   8   8   8   8
#     4  10  20  32  46  66  93 124 157 188 218 256
#     4   9  17  29  45  64  86 114 149 187 226 268
#     4   9  17  29  45  64  86 114 149 187 226 268
#     4  10  18  28  44  66  92 119 148 184 226 268
#     4   9  18  31  45  63  90 123 154 185 221 261
#     4   9  18  31  45  63  90 123 154 185 221 261
#     4  10  18  28  44  66  92 119 148 184 226 268
#
# _framework density 15.399535
#
# number of rings (size 3 to 8) (size 9 to 14) (size 15 to 20)
#    0.000    2.571    0.000    2.571    0.000    5.714 
#    0.000    0.000    0.000    0.000    0.000    1.000 
#    0.000    0.000    0.000    0.000    0.000    0.000 
#
# Total GULP energy -156103.072894 kJ/mol
# GULP energy per Si atom -5575.109746 kJ/mol
# Density = 1.536449 g / cm^3
# Si number density = 15.399535 Si / 1000 Ang^3
#
#
#
# Elastic Constant Matrix: (Units=GPa)
#
#
# Indices 1 2 3 4 5 6 
#
# 1 79.8589 70.0471 47.5284 -0.0024 -1.2378 -0.0056
# 2 70.0471 155.0766 89.4859 -0.0037 6.2661 0.0011
# 3 47.5284 89.4859 85.0648 -0.1028 2.1537 0.0157
# 4 -0.0024 -0.0037 -0.1028 34.5922 0.0203 4.0512
# 5 -1.2378 6.2661 2.1537 0.0203 15.9980 0.0041
# 6 -0.0056 0.0011 0.0157 4.0512 0.0041 22.3629
#
#
#
# Elastic Compliance Matrix: (Units=1/GPa)
#
#
# Indices 1 2 3 4 5 6 
#
# 1 0.021831 -0.007525 -0.004413 -0.000017 0.005231 0.000011
# 2 -0.007525 0.019279 -0.015924 -0.000044 -0.005989 0.000018
# 3 -0.004413 -0.015924 0.030930 0.000094 0.001732 -0.000039
# 4 -0.000017 -0.000044 0.000094 0.029535 -0.000033 -0.005351
# 5 0.005231 -0.005989 0.001732 -0.000033 0.065025 -0.000006
# 6 0.000011 0.000018 -0.000039 -0.005351 -0.000006 0.045686
#
#
# Mechanical properties :
#
#
# Convention : Reuss Voigt Hill
#
# Bulk Modulus (GPa) = 61.30128 81.56925 71.43526
# Shear Modulus (GPa) = 18.28487 22.11988 20.20237
#
# Velocity S-wave (km/s) = 3.44955 3.79410 3.62592
# Velocity P-wave (km/s) = 7.46723 8.50160 8.00115
#
# Compressibility (1/GPa) = 0.01631287
#
# Stress axis : x y z
#
# Youngs Moduli (GPa) = 45.80729 51.87080 32.33104
#
# Poissons Ratio (x) = 0.39035 0.14269
# Poissons Ratio (y) = 0.34472 0.51485
# Poissons Ratio (z) = 0.20217 0.82601
#
# Static dielectric constant tensor:
#      x y z
#    x 1.497610 -0.000010 0.005570 
#    y -0.000010 1.487620 0.000040 
#    z 0.005570 0.000040 1.512770 
# 
# From -- ./inp_files/56078.got.cif
#   From: 2010.05.17/outbox.cif.g08.bks.cpg/sg15_29_cif.got.tgz:56078.got - 2010.06.03 18:47:42.
