data_PCOD9256578
_publ_section_title
;
Structure prediction by ZEFSAII (Michael W. Deem and Ramdas Pophale) SiO2 
 PCOD9256578
Probable space group: C 2/C
;
_chemical_formula_sum "Si O2"
_cell_formula_units_Z 56
_cell_length_a 9.342677
_cell_length_b 22.420503
_cell_length_c 11.538406
_cell_angle_alpha 90.000000
_cell_angle_beta 95.597691
_cell_angle_gamma 90.000000
_cell_volume 2405.395767
_symmetry_space_group_name_H-M "C 2/C"
_symmetry_group_IT_number 15
_symmetry_cell_setting 'monoclinic'
loop_
_space_group_symop_operation_xyz
x,y,z
-x,y,1/2-z
-x,-y,-z
x,-y,1/2+z
1/2+x,1/2+y,z
1/2-x,1/2+y,1/2-z
1/2-x,1/2-y,-z
1/2+x,1/2-y,1/2+z
loop_
_atom_site_type_symbol
_atom_site_label
_atom_site_fract_x
_atom_site_fract_y
_atom_site_fract_z
Si Si1 0.513563 0.371403 0.014097
Si Si2 0.205871 0.620498 0.794935
Si Si3 0.472954 0.928099 0.011891
Si Si4 0.810119 0.905814 0.665000
Si Si5 0.138589 0.646463 0.348593
Si Si6 0.145966 0.783871 0.339147
Si Si7 0.622905 0.458615 0.347036
O O1 0.659379 0.374566 0.103973
O O2 0.407516 0.321561 0.054887
O O3 0.425587 0.432238 0.034364
O O4 0.576968 0.363960 0.891776
O O5 0.228061 0.681639 0.722130
O O6 0.236213 0.569171 0.701340
O O7 0.074741 0.599250 0.867032
O O8 0.335112 0.912653 0.921151
O O9 0.597902 0.890374 0.959482
O O10 0.500000 0.000000 0.000000
O O11 0.764646 0.885276 0.787464
O O12 0.872677 0.971567 0.660899
O O13 0.174300 0.715531 0.370302
O O14 0.000000 0.645517 0.250000
O O15 0.000000 0.784207 0.250000
O O16 0.500000 0.436263 0.250000
#
# Coordination Sequence:
#
# PCOD9256578 Si02
#       7
#     8   8   8   8   8   8   8
#     4   8  15  26  43  65  87 108 138 180 223 262
#     4   8  15  27  44  62  85 115 143 176 221 260
#     4  10  19  30  42  62  93 124 148 174 209 261
#     4  10  18  28  43  66  90 114 144 178 216 259
#     4   9  18  28  41  63  90 116 147 183 215 253
#     4   8  14  27  43  63  88 112 142 185 228 257
#     4   9  16  28  45  67  89 109 138 180 222 262
#
# _framework density 23.280994
#
# number of rings (size 3 to 8) (size 9 to 14) (size 15 to 20)
#    0.000    3.143    0.000    3.000    0.000    1.143 
#    0.000    5.714    0.000    0.000    0.000   13.000 
#    0.000    0.000    0.000    0.000    0.000    0.000 
#
# Total GULP energy -156222.095307 kJ/mol
# GULP energy per Si atom -5579.360547 kJ/mol
# Density = 2.322801 g / cm^3
# Si number density = 23.280994 Si / 1000 Ang^3
#
#
#
# Elastic Constant Matrix: (Units=GPa)
#
#
# Indices 1 2 3 4 5 6 
#
# 1 92.9607 22.7595 61.2584 0.0000 -18.3629 0.0000
# 2 22.7595 157.0062 92.7956 0.0000 -42.3425 0.0000
# 3 61.2584 92.7956 180.1170 0.0000 -69.2222 0.0000
# 4 0.0000 0.0000 0.0000 19.1860 0.0000 -0.6014
# 5 -18.3629 -42.3425 -69.2222 0.0000 51.4045 0.0000
# 6 0.0000 0.0000 0.0000 -0.6014 0.0000 11.2392
#
#
#
# Elastic Compliance Matrix: (Units=1/GPa)
#
#
# Indices 1 2 3 4 5 6 
#
# 1 0.014178 0.000978 -0.006362 0.000000 -0.002698 0.000000
# 2 0.000978 0.009378 -0.004272 0.000000 0.002322 0.000000
# 3 -0.006362 -0.004272 0.015941 0.000000 0.015674 0.000000
# 4 0.000000 0.000000 0.000000 0.052209 0.000000 0.002794
# 5 -0.002698 0.002322 0.015674 0.000000 0.041509 0.000000
# 6 0.000000 0.000000 0.000000 0.002794 0.000000 0.089124
#
#
# Mechanical properties :
#
#
# Convention : Reuss Voigt Hill
#
# Bulk Modulus (GPa) = 49.54607 87.07900 68.31254
# Shear Modulus (GPa) = 20.13044 33.25062 26.69053
#
# Velocity S-wave (km/s) = 2.94372 3.78329 3.38960
# Velocity P-wave (km/s) = 5.73428 7.52124 6.68771
#
# Compressibility (1/GPa) = 0.02018323
#
# Stress axis : x y z
#
# Youngs Moduli (GPa) = 70.53407 106.62743 62.73293
#
# Poissons Ratio (x) = -0.10424 0.39912
# Poissons Ratio (y) = -0.06895 0.26799
# Poissons Ratio (z) = 0.44876 0.45551
#
# Static dielectric constant tensor:
#      x y z
#    x 2.092300 0.000000 0.080830 
#    y 0.000000 1.816540 0.000000 
#    z 0.080830 0.000000 1.892320 
# 
# From -- ./inp_files/146681.got.cif
#   From: 2010.05.17/outbox.cif.g08.bks.cpg/sg15_74_cif.got.tgz:146681.got - 2010.06.03 18:47:42.
