data_PCOD9256940
_publ_section_title
;
Structure prediction by ZEFSAII (Michael W. Deem and Ramdas Pophale) SiO2 
 PCOD9256940
Probable space group: C 2/C
;
_chemical_formula_sum "Si O2"
_cell_formula_units_Z 48
_cell_length_a 20.204057
_cell_length_b 8.004016
_cell_length_c 13.949451
_cell_angle_alpha 90.000000
_cell_angle_beta 70.674478
_cell_angle_gamma 90.000000
_cell_volume 2128.708846
_symmetry_space_group_name_H-M "C 2/C"
_symmetry_group_IT_number 15
_symmetry_cell_setting 'monoclinic'
loop_
_space_group_symop_operation_xyz
x,y,z
-x,y,1/2-z
-x,-y,-z
x,-y,1/2+z
1/2+x,1/2+y,z
1/2-x,1/2+y,1/2-z
1/2-x,1/2-y,-z
1/2+x,1/2-y,1/2+z
loop_
_atom_site_type_symbol
_atom_site_label
_atom_site_fract_x
_atom_site_fract_y
_atom_site_fract_z
Si Si1 0.157863 0.072284 0.561574
Si Si2 0.819234 0.563802 0.223235
Si Si3 0.321172 0.941206 0.954008
Si Si4 0.838592 0.063112 0.720213
Si Si5 0.419477 0.239317 0.671646
Si Si6 0.579914 0.755730 0.093595
O O1 0.240403 0.026809 0.519380
O O2 0.155007 0.258820 0.520885
O O3 0.135686 0.087070 0.683144
O O4 0.112870 0.919320 0.544341
O O5 0.821573 0.568678 0.338090
O O6 0.835515 0.750657 0.179183
O O7 0.614891 0.585904 0.344141
O O8 0.872997 0.420481 0.166447
O O9 0.371636 0.089966 0.959524
O O10 0.759486 0.992685 0.762633
O O11 0.418897 0.243013 0.789497
O O12 0.499659 0.225155 0.601425
#
# Coordination Sequence:
#
# PCOD9256940 Si02
#       6
#     8   8   8   8   8   8
#     4   9  18  31  49  74  94 122 158 195 234 273
#     4  10  18  30  49  72  95 122 157 195 233 275
#     4   9  18  31  49  74  94 122 158 195 234 273
#     4  10  18  30  49  72  95 122 157 195 233 275
#     4   9  18  30  46  72  97 123 153 193 237 276
#     4   9  17  30  48  70  99 121 153 193 236 282
#
# _framework density 22.54888
#
# number of rings (size 3 to 8) (size 9 to 14) (size 15 to 20)
#    0.000    2.667    1.667    0.500    0.000    1.333 
#    0.000    6.667    0.000    2.000    0.000    0.000 
#    0.000    0.000    0.000    0.000    0.000    0.000 
#
# Total GULP energy -134127.692381 kJ/mol
# GULP energy per Si atom -5588.653849 kJ/mol
# Density = 2.249756 g / cm^3
# Si number density = 22.548880 Si / 1000 Ang^3
#
#
#
# Elastic Constant Matrix: (Units=GPa)
#
#
# Indices 1 2 3 4 5 6 
#
# 1 47.5640 54.4007 9.4192 0.0000 -11.1048 0.0000
# 2 54.4007 156.2263 34.4599 0.0000 -27.0521 0.0000
# 3 9.4192 34.4599 54.7116 0.0000 6.4136 0.0000
# 4 0.0000 0.0000 0.0000 27.6221 0.0000 -0.8127
# 5 -11.1048 -27.0521 6.4136 0.0000 37.7322 0.0000
# 6 0.0000 0.0000 0.0000 -0.8127 0.0000 25.4475
#
#
#
# Elastic Compliance Matrix: (Units=1/GPa)
#
#
# Indices 1 2 3 4 5 6 
#
# 1 0.035155 -0.012392 0.001613 0.000000 0.001188 0.000000
# 2 -0.012392 0.013595 -0.007289 0.000000 0.007339 0.000000
# 3 0.001613 -0.007289 0.023619 0.000000 -0.008766 0.000000
# 4 0.000000 0.000000 0.000000 0.036237 0.000000 0.001157
# 5 0.001188 0.007339 -0.008766 0.000000 0.033604 0.000000
# 6 0.000000 0.000000 0.000000 0.001157 0.000000 0.039334
#
#
# Mechanical properties :
#
#
# Convention : Reuss Voigt Hill
#
# Bulk Modulus (GPa) = 27.59941 50.56238 39.08090
# Shear Modulus (GPa) = 21.76221 28.84182 25.30201
#
# Velocity S-wave (km/s) = 3.11000 3.58030 3.35340
# Velocity P-wave (km/s) = 5.01622 6.28996 5.68885
#
# Compressibility (1/GPa) = 0.03623266
#
# Stress axis : x y z
#
# Youngs Moduli (GPa) = 28.44546 73.55827 42.33921
#
# Poissons Ratio (x) = 0.91152 -0.06831
# Poissons Ratio (y) = 0.35249 0.30863
# Poissons Ratio (z) = -0.04589 0.53620
#
# Static dielectric constant tensor:
#      x y z
#    x 1.809950 0.000000 0.085840 
#    y 0.000000 1.814830 0.000000 
#    z 0.085840 0.000000 1.875130 
# 
# From -- ./inp_files/251266.got.cif
#   From: 2010.05.17/outbox.cif.g08.bks.cpg/sg15_126_cif.got.tgz:251266.got - 2010.06.03 18:47:42.
