data_PCOD9256981
_publ_section_title
;
Structure prediction by ZEFSAII (Michael W. Deem and Ramdas Pophale) SiO2 
 PCOD9256981
Probable space group: C 2/C
;
_chemical_formula_sum "Si O2"
_cell_formula_units_Z 56
_cell_length_a 20.339263
_cell_length_b 7.251429
_cell_length_c 24.967430
_cell_angle_alpha 90.000000
_cell_angle_beta 139.619818
_cell_angle_gamma 90.000000
_cell_volume 2385.675892
_symmetry_space_group_name_H-M "C 2/C"
_symmetry_group_IT_number 15
_symmetry_cell_setting 'monoclinic'
loop_
_space_group_symop_operation_xyz
x,y,z
-x,y,1/2-z
-x,-y,-z
x,-y,1/2+z
1/2+x,1/2+y,z
1/2-x,1/2+y,1/2-z
1/2-x,1/2-y,-z
1/2+x,1/2-y,1/2+z
loop_
_atom_site_type_symbol
_atom_site_label
_atom_site_fract_x
_atom_site_fract_y
_atom_site_fract_z
Si Si1 0.591740 0.346959 0.778072
Si Si2 0.473216 0.215427 0.499414
Si Si3 0.783066 0.518816 0.220404
Si Si4 0.859448 0.903134 0.957506
Si Si5 0.004244 0.573431 0.636849
Si Si6 0.732133 0.091307 0.168576
Si Si7 0.801858 0.587490 0.567348
O O1 0.500000 0.448417 0.750000
O O2 0.536109 0.249643 0.693197
O O3 0.683471 0.479291 0.819577
O O4 0.639320 0.189112 0.846825
O O5 0.548866 0.259445 0.496592
O O6 0.418573 0.405898 0.482932
O O7 0.510568 0.139519 0.579688
O O8 0.381429 0.087590 0.422351
O O9 0.714322 0.637324 0.138720
O O10 0.902280 0.563659 0.293440
O O11 0.761399 0.308895 0.189508
O O12 0.750878 0.521974 0.261737
O O13 0.783850 0.950153 0.960610
O O14 0.893134 0.508423 0.586966
O O15 0.750000 0.750000 0.500000
#
# Coordination Sequence:
#
# PCOD9256981 Si02
#       7
#     8   8   8   8   8   8   8
#     4   9  17  29  47  75 105 130 175 226 278 315
#     4  10  19  31  50  78 113 140 185 224 292 334
#     4  10  20  34  55  76 109 143 189 224 281 333
#     4  10  18  31  49  77 111 147 174 229 285 347
#     4  10  18  30  50  77 104 141 179 234 275 327
#     4  10  19  36  52  81 107 142 184 232 272 343
#     4  11  17  30  49  78 111 136 183 237 276 323
#
# _framework density 23.47343
#
# number of rings (size 3 to 8) (size 9 to 14) (size 15 to 20)
#    0.000    2.000    5.714    1.714    0.000    0.571 
#    0.000    0.000    0.000    0.857    7.429    0.000 
#    0.000    0.000    0.000    0.000    0.000    0.000 
#
# Total GULP energy -156060.627121 kJ/mol
# GULP energy per Si atom -5573.593826 kJ/mol
# Density = 2.342000 g / cm^3
# Si number density = 23.473430 Si / 1000 Ang^3
#
#
#
# Elastic Constant Matrix: (Units=GPa)
#
#
# Indices 1 2 3 4 5 6 
#
# 1 171.0017 17.7365 54.6109 0.0000 27.3307 0.0000
# 2 17.7365 39.7198 7.1209 0.0000 7.2620 0.0004
# 3 54.6109 7.1209 105.8363 0.0000 9.4964 0.0000
# 4 0.0000 0.0000 0.0000 10.1375 0.0000 -5.0102
# 5 27.3307 7.2620 9.4964 0.0000 45.8317 -0.0001
# 6 0.0000 0.0004 0.0000 -5.0102 -0.0001 20.8646
#
#
#
# Elastic Compliance Matrix: (Units=1/GPa)
#
#
# Indices 1 2 3 4 5 6 
#
# 1 0.007775 -0.002186 -0.003546 0.000000 -0.003556 0.000000
# 2 -0.002186 0.026748 -0.000416 0.000000 -0.002848 -0.000001
# 3 -0.003546 -0.000416 0.011321 0.000000 -0.000165 0.000000
# 4 0.000000 0.000000 0.000000 0.111926 0.000000 0.026876
# 5 -0.003556 -0.002848 -0.000165 0.000000 0.024425 0.000000
# 6 0.000000 -0.000001 0.000000 0.026876 0.000000 0.054382
#
#
# Mechanical properties :
#
#
# Convention : Reuss Voigt Hill
#
# Bulk Modulus (GPa) = 29.80801 52.83271 41.32036
# Shear Modulus (GPa) = 19.22663 31.17274 25.19968
#
# Velocity S-wave (km/s) = 2.86506 3.64813 3.28005
# Velocity P-wave (km/s) = 4.86528 6.34834 5.65563
#
# Compressibility (1/GPa) = 0.03354803
#
# Stress axis : x y z
#
# Youngs Moduli (GPa) = 128.61179 37.38602 88.33113
#
# Poissons Ratio (x) = 0.08174 0.31321
# Poissons Ratio (y) = 0.28118 0.03675
# Poissons Ratio (z) = 0.45604 0.01555
#
# Static dielectric constant tensor:
#      x y z
#    x 2.070810 0.000000 0.069230 
#    y 0.000000 1.890700 0.000000 
#    z 0.069230 0.000000 1.900030 
# 
# From -- ./inp_files/277141.got.cif
#   From: 2010.05.17/outbox.cif.g08.bks.cpg/sg15_139_cif.got.tgz:277141.got - 2010.06.03 18:47:42.
