data_PCOD9256308
_publ_section_title
;
Structure prediction by ZEFSAII (Michael W. Deem and Ramdas Pophale) SiO2 
 PCOD9256308
Probable space group: C 2/C
;
_chemical_formula_sum "Si O2"
_cell_formula_units_Z 40
_cell_length_a 7.617303
_cell_length_b 15.298554
_cell_length_c 15.430444
_cell_angle_alpha 90.000000
_cell_angle_beta 82.272796
_cell_angle_gamma 90.000000
_cell_volume 1781.838753
_symmetry_space_group_name_H-M "C 2/C"
_symmetry_group_IT_number 15
_symmetry_cell_setting 'monoclinic'
loop_
_space_group_symop_operation_xyz
x,y,z
-x,y,1/2-z
-x,-y,-z
x,-y,1/2+z
1/2+x,1/2+y,z
1/2-x,1/2+y,1/2-z
1/2-x,1/2-y,-z
1/2+x,1/2-y,1/2+z
loop_
_atom_site_type_symbol
_atom_site_label
_atom_site_fract_x
_atom_site_fract_y
_atom_site_fract_z
Si Si1 0.783411 0.951199 0.924981
Si Si2 0.500000 0.392133 0.750000
Si Si3 0.060192 0.703872 0.491963
Si Si4 0.000000 0.138602 0.750000
Si Si5 0.372352 0.221201 0.683730
Si Si6 0.040352 0.883863 0.061250
O O1 0.863819 0.939504 0.823155
O O2 0.613191 0.888294 0.945127
O O3 0.785875 0.054274 0.947670
O O4 0.922282 0.914193 0.987666
O O5 0.390915 0.325569 0.695418
O O6 0.250000 0.750000 0.500000
O O7 0.957752 0.694532 0.588165
O O8 0.953846 0.778599 0.446400
O O9 0.824488 0.191343 0.785360
O O10 0.048076 0.094772 0.839352
O O11 0.500000 0.183738 0.750000
#
# Coordination Sequence:
#
# PCOD9256308 Si02
#       6
#     8   4   8   4   8   8
#     4  10  19  34  63  86 124 168 213 266 336 395
#     4  10  17  36  58  88 115 168 212 252 335 396
#     4  10  17  37  59  88 120 168 213 267 332 399
#     4  12  23  36  60  94 123 162 214 264 337 394
#     4  10  20  36  62  87 122 165 209 268 324 401
#     4  10  20  35  54  94 122 158 216 270 316 402
#
# _framework density 22.448720000000002
#
# number of rings (size 3 to 8) (size 9 to 14) (size 15 to 20)
#    0.600    1.200    4.000    4.200    0.000    0.800 
#    0.000    1.000    0.000    2.400    2.600    0.000 
#    0.000    0.000    0.000    0.000    0.000    0.000 
#
# Total GULP energy -111360.142398 kJ/mol
# GULP energy per Si atom -5568.007120 kJ/mol
# Density = 2.239763 g / cm^3
# Si number density = 22.448720 Si / 1000 Ang^3
#
#
#
# Elastic Constant Matrix: (Units=GPa)
#
#
# Indices 1 2 3 4 5 6 
#
# 1 100.6026 48.0488 42.7437 0.0000 -28.1267 0.0000
# 2 48.0488 137.7018 41.5919 0.0000 -14.1003 0.0000
# 3 42.7437 41.5919 172.4693 0.0000 -18.6575 0.0000
# 4 0.0000 0.0000 0.0000 -15.9073 0.0000 -5.8541
# 5 -28.1267 -14.1003 -18.6575 0.0000 35.9584 0.0000
# 6 0.0000 0.0000 0.0000 -5.8541 0.0000 35.7020
#
#
#
# Elastic Compliance Matrix: (Units=1/GPa)
#
#
# Indices 1 2 3 4 5 6 
#
# 1 0.015152 -0.003770 -0.001826 0.000000 0.009426 0.000000
# 2 -0.003770 0.008941 -0.001231 0.000000 -0.000082 0.000000
# 3 -0.001826 -0.001231 0.006718 0.000000 0.001575 0.000000
# 4 0.000000 0.000000 0.000000 -0.059287 0.000000 -0.009721
# 5 0.009426 -0.000082 0.001575 0.000000 0.035968 0.000000
# 6 0.000000 0.000000 0.000000 -0.009721 0.000000 0.026416
#
#
# Mechanical properties :
#
#
# Convention : Reuss Voigt Hill
#
# Bulk Modulus (GPa) = 58.28655 75.06028 66.67341
# Shear Modulus (GPa) = 93.84235 29.70992 61.77613
#
# Velocity S-wave (km/s) = 6.47254 3.64188 5.25153
# Velocity P-wave (km/s) = 9.04870 7.15495 8.15697
#
# Compressibility (1/GPa) = 0.01715662
#
# Stress axis : x y z
#
# Youngs Moduli (GPa) = 65.99746 111.84460 148.85717
#
# Poissons Ratio (x) = 0.42168 0.27186
# Poissons Ratio (y) = 0.24883 0.18318
# Poissons Ratio (z) = 0.12053 0.13764
#
# Static dielectric constant tensor:
#      x y z
#    x 1.882700 0.000000 -0.055410 
#    y 0.000000 1.945480 0.000000 
#    z -0.055410 0.000000 1.945920 
# 
# From -- ./inp_files/133864.got.cif
#   From: 2010.05.17/outbox.cif.g08.bks.cpg/sg15_67_cif.got.tgz:133864.got - 2010.06.03 18:47:42.
