data_PCOD9256905
_publ_section_title
;
Structure prediction by ZEFSAII (Michael W. Deem and Ramdas Pophale) SiO2 
 PCOD9256905
Probable space group: C 2/C
;
_chemical_formula_sum "Si O2"
_cell_formula_units_Z 48
_cell_length_a 10.563427
_cell_length_b 18.953680
_cell_length_c 9.262458
_cell_angle_alpha 90.000000
_cell_angle_beta 95.358660
_cell_angle_gamma 90.000000
_cell_volume 1846.385724
_symmetry_space_group_name_H-M "C 2/C"
_symmetry_group_IT_number 15
_symmetry_cell_setting 'monoclinic'
loop_
_space_group_symop_operation_xyz
x,y,z
-x,y,1/2-z
-x,-y,-z
x,-y,1/2+z
1/2+x,1/2+y,z
1/2-x,1/2+y,1/2-z
1/2-x,1/2-y,-z
1/2+x,1/2-y,1/2+z
loop_
_atom_site_type_symbol
_atom_site_label
_atom_site_fract_x
_atom_site_fract_y
_atom_site_fract_z
Si Si1 0.359845 0.312330 0.532432
Si Si2 0.605170 0.857470 0.889923
Si Si3 0.600893 0.294117 0.393910
Si Si4 0.074396 0.433342 0.448060
Si Si5 0.286032 0.569425 0.219236
Si Si6 0.715793 0.414325 0.239913
O O1 0.250000 0.250000 0.500000
O O2 0.505218 0.290603 0.518614
O O3 0.354653 0.358470 0.678134
O O4 0.336243 0.369012 0.400270
O O5 0.500000 0.860116 0.750000
O O6 0.668723 0.781085 0.889494
O O7 0.521009 0.870085 0.022436
O O8 0.706628 0.915926 0.855582
O O9 0.500000 0.293045 0.250000
O O10 0.687493 0.362128 0.370410
O O11 0.188204 0.434426 0.576193
O O12 0.139571 0.430295 0.298170
O O13 0.000000 0.500000 0.500000
O O14 0.345219 0.491525 0.241256
#
# Coordination Sequence:
#
# PCOD9256905 Si02
#       6
#     8   8   8   8   8   8
#     4  10  19  34  54  77 103 134 177 221 263 322
#     4   9  16  28  48  72  98 127 165 214 261 305
#     4   9  17  30  48  71 102 132 166 212 261 318
#     4  10  18  30  48  72 100 133 174 216 262 315
#     4  10  19  29  48  77 105 129 169 219 269 311
#     4  10  19  30  47  76 106 131 164 216 273 310
#
# _framework density 25.996735000000001
#
# number of rings (size 3 to 8) (size 9 to 14) (size 15 to 20)
#    0.000    2.333    1.667    5.000    0.000    0.667 
#    0.000    0.000    0.000    1.000    0.000    0.000 
#    0.000    0.000    0.000    0.000    0.000    0.000 
#
# Total GULP energy -133834.084915 kJ/mol
# GULP energy per Si atom -5576.420205 kJ/mol
# Density = 2.593757 g / cm^3
# Si number density = 25.996735 Si / 1000 Ang^3
#
#
#
# Elastic Constant Matrix: (Units=GPa)
#
#
# Indices 1 2 3 4 5 6 
#
# 1 54.9873 37.8790 32.0542 0.0000 -15.6966 0.0000
# 2 37.8790 216.4522 58.5396 0.0000 -35.5743 0.0000
# 3 32.0542 58.5396 109.1353 0.0000 -26.3701 0.0000
# 4 0.0000 0.0000 0.0000 36.7259 0.0000 -6.5261
# 5 -15.6966 -35.5743 -26.3701 0.0000 59.8114 0.0000
# 6 0.0000 0.0000 0.0000 -6.5261 0.0000 34.1626
#
#
#
# Elastic Compliance Matrix: (Units=1/GPa)
#
#
# Indices 1 2 3 4 5 6 
#
# 1 0.023444 -0.002325 -0.005021 0.000000 0.002556 0.000000
# 2 -0.002325 0.005898 -0.001993 0.000000 0.002019 0.000000
# 3 -0.005021 -0.001993 0.012426 0.000000 0.002975 0.000000
# 4 0.000000 0.000000 0.000000 0.028186 0.000000 0.005384
# 5 0.002556 0.002019 0.002975 0.000000 0.019903 0.000000
# 6 0.000000 0.000000 0.000000 0.005384 0.000000 0.030300
#
#
# Mechanical properties :
#
#
# Convention : Reuss Voigt Hill
#
# Bulk Modulus (GPa) = 43.30892 70.83559 57.07226
# Shear Modulus (GPa) = 34.12277 42.94677 38.53477
#
# Velocity S-wave (km/s) = 3.62688 4.06890 3.85423
# Velocity P-wave (km/s) = 5.85103 7.02720 6.46592
#
# Compressibility (1/GPa) = 0.02308993
#
# Stress axis : x y z
#
# Youngs Moduli (GPa) = 42.65465 169.56190 80.47922
#
# Poissons Ratio (x) = 0.39416 0.40411
# Poissons Ratio (y) = 0.09915 0.16038
# Poissons Ratio (z) = 0.21418 0.33790
#
# Static dielectric constant tensor:
#      x y z
#    x 4.125110 0.000000 0.075140 
#    y 0.000000 2.317780 0.000000 
#    z 0.075140 0.000000 2.156430 
# 
# From -- ./inp_files/153280.got.cif
#   From: 2010.05.17/outbox.cif.g08.bks.cpg/sg15_77_cif.got.tgz:153280.got - 2010.06.03 18:47:42.
