data_PCOD9256703
_publ_section_title
;
Structure prediction by ZEFSAII (Michael W. Deem and Ramdas Pophale) SiO2 
 PCOD9256703
Probable space group: C 2/C
;
_chemical_formula_sum "Si O2"
_cell_formula_units_Z 52
_cell_length_a 26.203209
_cell_length_b 18.085715
_cell_length_c 5.499175
_cell_angle_alpha 90.000000
_cell_angle_beta 50.996917
_cell_angle_gamma 90.000000
_cell_volume 2025.216112
_symmetry_space_group_name_H-M "C 2/C"
_symmetry_group_IT_number 15
_symmetry_cell_setting 'monoclinic'
loop_
_space_group_symop_operation_xyz
x,y,z
-x,y,1/2-z
-x,-y,-z
x,-y,1/2+z
1/2+x,1/2+y,z
1/2-x,1/2+y,1/2-z
1/2-x,1/2-y,-z
1/2+x,1/2-y,1/2+z
loop_
_atom_site_type_symbol
_atom_site_label
_atom_site_fract_x
_atom_site_fract_y
_atom_site_fract_z
Si Si1 0.711007 0.608742 0.116037
Si Si2 0.642146 0.410334 0.322570
Si Si3 0.643955 0.048084 0.812631
Si Si4 0.000000 0.181452 0.750000
Si Si5 0.500000 0.047762 0.250000
Si Si6 0.500000 0.411689 0.750000
Si Si7 0.637042 0.764810 0.338426
Si Si8 0.828318 0.260586 0.765403
O O1 0.679701 0.577789 0.458019
O O2 0.689659 0.695334 0.180155
O O3 0.680557 0.577888 0.957689
O O4 0.786953 0.590488 0.890813
O O5 0.571338 0.449136 0.536334
O O6 0.635731 0.319613 0.342148
O O7 0.644995 0.001338 0.556886
O O8 0.571326 0.086972 0.034647
O O9 0.065338 0.229728 0.553780
O O10 0.999946 0.133591 0.503468
O O11 0.500000 0.000000 0.500000
O O12 0.649986 0.801348 0.557964
O O13 0.649780 0.801361 0.041711
O O14 0.750000 0.250000 0.000000
#
# Coordination Sequence:
#
# PCOD9256703 Si02
#       8
#     8   8   8   4   4   4   8   8
#     4  10  18  30  46  70 100 119 154 195 236 282
#     4  10  19  30  47  74  92 125 159 195 239 275
#     4  10  19  32  50  74  97 123 151 193 241 284
#     4  12  16  30  48  70  96 118 158 212 238 266
#     4   8  16  30  48  70  95 115 148 188 234 277
#     4  12  16  30  48  68  99 117 160 212 234 269
#     4  10  19  30  46  72  92 121 159 192 237 276
#     4  10  18  29  43  65  95 121 151 191 235 278
#
# _framework density 25.676271
#
# number of rings (size 3 to 8) (size 9 to 14) (size 15 to 20)
#    0.000    1.846    6.154    1.385    0.000    0.000 
#    0.000    0.000    0.000    0.000    0.000   52.769 
#    0.000    0.000    0.000    0.000    0.000    0.000 
#
# Total GULP energy -145444.005482 kJ/mol
# GULP energy per Si atom -5594.000211 kJ/mol
# Density = 2.561783 g / cm^3
# Si number density = 25.676271 Si / 1000 Ang^3
#
#
#
# Elastic Constant Matrix: (Units=GPa)
#
#
# Indices 1 2 3 4 5 6 
#
# 1 183.6287 12.9891 126.1236 0.0000 13.4282 0.0000
# 2 12.9891 55.5346 24.8998 0.0000 -0.5552 0.0000
# 3 126.1236 24.8998 241.2934 0.0000 9.5608 0.0000
# 4 0.0000 0.0000 0.0000 53.1717 0.0000 27.8815
# 5 13.4282 -0.5552 9.5608 0.0000 100.6061 0.0000
# 6 0.0000 0.0000 0.0000 27.8815 0.0000 53.1560
#
#
#
# Elastic Compliance Matrix: (Units=1/GPa)
#
#
# Indices 1 2 3 4 5 6 
#
# 1 0.008547 -0.000017 -0.004437 0.000000 -0.000719 0.000000
# 2 -0.000017 0.018889 -0.001952 0.000000 0.000292 0.000000
# 3 -0.004437 -0.001952 0.006667 0.000000 -0.000052 0.000000
# 4 0.000000 0.000000 0.000000 0.025942 0.000000 -0.013607
# 5 -0.000719 0.000292 -0.000052 0.000000 0.010042 0.000000
# 6 0.000000 0.000000 0.000000 -0.013607 0.000000 0.025950
#
#
# Mechanical properties :
#
#
# Convention : Reuss Voigt Hill
#
# Bulk Modulus (GPa) = 46.96808 89.83128 68.39968
# Shear Modulus (GPa) = 43.12303 62.48305 52.80304
#
# Velocity S-wave (km/s) = 4.10260 4.93840 4.53978
# Velocity P-wave (km/s) = 6.38545 8.22065 7.36047
#
# Compressibility (1/GPa) = 0.02129105
#
# Stress axis : x y z
#
# Youngs Moduli (GPa) = 116.99480 52.94131 149.98596
#
# Poissons Ratio (x) = 0.00089 0.66556
# Poissons Ratio (y) = 0.00196 0.29277
# Poissons Ratio (z) = 0.51916 0.10334
#
# Static dielectric constant tensor:
#      x y z
#    x 2.005360 0.000000 0.027230 
#    y 0.000000 2.136270 0.000000 
#    z 0.027230 0.000000 2.000680 
# 
# From -- ./inp_files/17849.got.cif
#   From: 2010.05.17/outbox.cif.g08.bks.cpg/sg15_9_cif.got.tgz:17849.got - 2010.06.03 18:47:42.
