data_PCOD9256348
_publ_section_title
;
Structure prediction by ZEFSAII (Michael W. Deem and Ramdas Pophale) SiO2 
 PCOD9256348
Probable space group: C 2/C
;
_chemical_formula_sum "Si O2"
_cell_formula_units_Z 48
_cell_length_a 11.990288
_cell_length_b 19.913246
_cell_length_c 24.265435
_cell_angle_alpha 90.000000
_cell_angle_beta 152.982756
_cell_angle_gamma 90.000000
_cell_volume 2631.861019
_symmetry_space_group_name_H-M "C 2/C"
_symmetry_group_IT_number 15
_symmetry_cell_setting 'monoclinic'
loop_
_space_group_symop_operation_xyz
x,y,z
-x,y,1/2-z
-x,-y,-z
x,-y,1/2+z
1/2+x,1/2+y,z
1/2-x,1/2+y,1/2-z
1/2-x,1/2-y,-z
1/2+x,1/2-y,1/2+z
loop_
_atom_site_type_symbol
_atom_site_label
_atom_site_fract_x
_atom_site_fract_y
_atom_site_fract_z
Si Si1 0.372268 0.701303 0.488767
Si Si2 0.500000 0.429876 0.250000
Si Si3 0.434208 0.538138 0.390783
Si Si4 0.500000 0.129176 0.250000
Si Si5 0.184692 0.352170 0.020954
Si Si6 0.304493 0.559226 0.208105
Si Si7 0.778620 0.910750 0.387798
O O1 0.337075 0.672926 0.534852
O O2 0.412711 0.780233 0.500838
O O3 0.592570 0.660459 0.559115
O O4 0.125022 0.676839 0.349780
O O5 0.367189 0.386798 0.144667
O O6 0.294386 0.481606 0.183339
O O7 0.422361 0.552694 0.320938
O O8 0.398570 0.461976 0.396054
O O9 0.673783 0.561147 0.529910
O O10 0.208917 0.580870 0.317381
O O11 0.954553 0.401538 0.906076
O O12 0.500000 0.589864 0.250000
O O13 0.500000 0.906920 0.250000
#
# Coordination Sequence:
#
# PCOD9256348 Si02
#       7
#     8   4   8   4   8   8   8
#     4  10  22  35  65  82 117 161 190 250 297 353
#     4  10  23  38  60  87 112 164 196 246 286 341
#     4  10  19  36  60  89 118 150 195 242 308 338
#     4  10  17  36  62  87 110 150 196 252 288 347
#     4  11  21  42  56  87 120 154 208 236 290 368
#     4  10  23  38  62  87 121 158 193 249 292 348
#     4  10  21  36  58  92 117 149 192 256 299 351
#
# _framework density 18.238046000000001
#
# number of rings (size 3 to 8) (size 9 to 14) (size 15 to 20)
#    0.500    1.333    2.500    2.000    0.000    2.000 
#    3.000    0.000    0.000    3.000    0.000    0.000 
#    0.000    0.000    0.000    0.000    0.000    0.000 
#
# Total GULP energy -133709.098184 kJ/mol
# GULP energy per Si atom -5571.212424 kJ/mol
# Density = 1.819654 g / cm^3
# Si number density = 18.238046 Si / 1000 Ang^3
#
#
#
# Elastic Constant Matrix: (Units=GPa)
#
#
# Indices 1 2 3 4 5 6 
#
# 1 35.9076 12.5544 7.3865 -0.0033 -20.1056 0.0043
# 2 12.5544 128.6271 45.2804 -0.0042 -10.5634 0.0057
# 3 7.3865 45.2804 110.0433 -0.0073 -17.4450 0.0205
# 4 -0.0033 -0.0042 -0.0073 11.3851 -0.0012 7.1007
# 5 -20.1056 -10.5634 -17.4450 -0.0012 25.4317 0.0034
# 6 0.0043 0.0057 0.0205 7.1007 0.0034 9.5856
#
#
#
# Elastic Compliance Matrix: (Units=1/GPa)
#
#
# Indices 1 2 3 4 5 6 
#
# 1 0.052121 -0.003183 0.004638 0.000094 0.043065 -0.000116
# 2 -0.003183 0.009328 -0.003825 -0.000005 -0.001266 0.000008
# 3 0.004638 -0.003825 0.011982 0.000050 0.010298 -0.000066
# 4 0.000094 -0.000005 0.000050 0.163262 0.000130 -0.120940
# 5 0.043065 -0.001266 0.010298 0.000130 0.079905 -0.000165
# 6 -0.000116 0.000008 -0.000066 -0.120940 -0.000165 0.193911
#
#
# Mechanical properties :
#
#
# Convention : Reuss Voigt Hill
#
# Bulk Modulus (GPa) = 14.55792 45.00231 29.78011
# Shear Modulus (GPa) = 9.29114 23.23761 16.26438
#
# Velocity S-wave (km/s) = 2.25952 3.57337 2.98951
# Velocity P-wave (km/s) = 3.84795 6.46172 5.31792
#
# Compressibility (1/GPa) = 0.06869112
#
# Stress axis : x y z
#
# Youngs Moduli (GPa) = 19.18601 107.20745 83.45548
#
# Poissons Ratio (x) = 0.34128 -0.38710
# Poissons Ratio (y) = 0.06108 0.31923
# Poissons Ratio (z) = -0.08899 0.41009
#
# Static dielectric constant tensor:
#      x y z
#    x 1.665920 0.000000 -0.011110 
#    y 0.000000 1.642480 0.000000 
#    z -0.011110 0.000000 1.611650 
# 
# From -- ./inp_files/270885.got.cif
#   From: 2010.05.17/outbox.cif.g08.bks.cpg/sg15_136_cif.got.tgz:270885.got - 2010.06.03 18:47:42.
