data_PCOD9256770
_publ_section_title
;
Structure prediction by ZEFSAII (Michael W. Deem and Ramdas Pophale) SiO2 
 PCOD9256770
Probable space group: C 2/C
;
_chemical_formula_sum "Si O2"
_cell_formula_units_Z 56
_cell_length_a 31.083358
_cell_length_b 15.002578
_cell_length_c 5.527593
_cell_angle_alpha 90.000000
_cell_angle_beta 77.100755
_cell_angle_gamma 90.000000
_cell_volume 2512.635110
_symmetry_space_group_name_H-M "C 2/C"
_symmetry_group_IT_number 15
_symmetry_cell_setting 'monoclinic'
loop_
_space_group_symop_operation_xyz
x,y,z
-x,y,1/2-z
-x,-y,-z
x,-y,1/2+z
1/2+x,1/2+y,z
1/2-x,1/2+y,1/2-z
1/2-x,1/2-y,-z
1/2+x,1/2-y,1/2+z
loop_
_atom_site_type_symbol
_atom_site_label
_atom_site_fract_x
_atom_site_fract_y
_atom_site_fract_z
Si Si1 0.633824 0.995473 0.441033
Si Si2 0.304951 0.820328 0.127194
Si Si3 0.620989 0.550442 0.830965
Si Si4 0.489157 0.659878 0.015988
Si Si5 0.163773 0.687020 0.415704
Si Si6 0.073758 0.226519 0.068303
Si Si7 0.726132 0.552575 0.711937
O O1 0.668148 0.079105 0.400345
O O2 0.608175 0.001848 0.223528
O O3 0.661423 0.904524 0.402887
O O4 0.313423 0.773146 0.373350
O O5 0.256385 0.860196 0.172952
O O6 0.318472 0.775054 0.859069
O O7 0.610409 0.512019 0.577844
O O8 0.673565 0.566524 0.776171
O O9 0.595517 0.640858 0.916213
O O10 0.500000 0.615628 0.750000
O O11 0.500000 0.605548 0.250000
O O12 0.526910 0.737312 0.991980
O O13 0.441513 0.700372 0.138893
O O14 0.111328 0.700877 0.507688
O O15 0.736366 0.499212 0.450338
#
# Coordination Sequence:
#
# PCOD9256770 Si02
#       7
#     8   8   8   8   8   8   8
#     4   8  14  25  39  67  99 126 168 209 246 283
#     4  10  18  29  48  77 109 141 186 220 250 299
#     4  10  23  37  58  80 105 147 180 219 272 318
#     4   8  20  36  60  79 102 143 164 210 280 338
#     4  10  19  28  52  78 105 143 171 225 267 291
#     4   9  22  38  59  80 113 128 184 221 267 337
#     4  10  18  33  52  73 107 153 189 215 256 319
#
# _framework density 22.287357
#
# number of rings (size 3 to 8) (size 9 to 14) (size 15 to 20)
#    0.857    1.714    0.000    3.429    4.000    0.000 
#    0.000    4.286    0.000    0.000    0.000   36.000 
#    0.000    0.000    0.000    0.000    0.000    0.000 
#
# Total GULP energy -155888.505614 kJ/mol
# GULP energy per Si atom -5567.446629 kJ/mol
# Density = 2.223663 g / cm^3
# Si number density = 22.287357 Si / 1000 Ang^3
#
#
#
# Elastic Constant Matrix: (Units=GPa)
#
#
# Indices 1 2 3 4 5 6 
#
# 1 56.6173 12.3856 33.7241 0.0000 -15.3153 0.0000
# 2 12.3856 37.0990 16.8201 0.0000 -6.8142 0.0000
# 3 33.7241 16.8201 222.6823 0.0000 20.6858 0.0000
# 4 0.0000 0.0000 0.0000 0.8745 0.0000 7.6821
# 5 -15.3153 -6.8142 20.6858 0.0000 36.9155 0.0000
# 6 0.0000 0.0000 0.0000 7.6821 0.0000 -8.1684
#
#
#
# Elastic Compliance Matrix: (Units=1/GPa)
#
#
# Indices 1 2 3 4 5 6 
#
# 1 0.024441 -0.003918 -0.004515 0.000000 0.011947 0.000000
# 2 -0.003918 0.030194 -0.002167 0.000000 0.005162 0.000000
# 3 -0.004515 -0.002167 0.005854 0.000000 -0.005554 0.000000
# 4 0.000000 0.000000 0.000000 0.123469 0.000000 0.116118
# 5 0.011947 0.005162 -0.005554 0.000000 0.036110 0.000000
# 6 0.000000 0.000000 0.000000 0.116118 0.000000 -0.013218
#
#
# Mechanical properties :
#
#
# Convention : Reuss Voigt Hill
#
# Bulk Modulus (GPa) = 25.45308 49.13982 37.29645
# Shear Modulus (GPa) = 20.73433 22.82222 21.77827
#
# Velocity S-wave (km/s) = 3.05342 3.20347 3.12934
# Velocity P-wave (km/s) = 4.88635 5.98156 5.46148
#
# Compressibility (1/GPa) = 0.03928798
#
# Stress axis : x y z
#
# Youngs Moduli (GPa) = 40.91521 33.11969 170.82113
#
# Poissons Ratio (x) = 0.12977 0.77130
# Poissons Ratio (y) = 0.16031 0.37013
# Poissons Ratio (z) = 0.18474 0.07176
#
# Static dielectric constant tensor:
#      x y z
#    x 1.844520 0.000000 0.060240 
#    y 0.000000 1.826700 0.000000 
#    z 0.060240 0.000000 1.955180 
# 
# From -- ./inp_files/17170.got.cif
#   From: 2010.05.17/outbox.cif.g08.bks.cpg/sg15_9_cif.got.tgz:17170.got - 2010.06.03 18:47:42.
