data_PCOD9256369
_publ_section_title
;
Structure prediction by ZEFSAII (Michael W. Deem and Ramdas Pophale) SiO2 
 PCOD9256369
Probable space group: C 2/C
;
_chemical_formula_sum "Si O2"
_cell_formula_units_Z 56
_cell_length_a 16.944331
_cell_length_b 20.957695
_cell_length_c 15.467566
_cell_angle_alpha 90.000000
_cell_angle_beta 152.624042
_cell_angle_gamma 90.000000
_cell_volume 2525.716395
_symmetry_space_group_name_H-M "C 2/C"
_symmetry_group_IT_number 15
_symmetry_cell_setting 'monoclinic'
loop_
_space_group_symop_operation_xyz
x,y,z
-x,y,1/2-z
-x,-y,-z
x,-y,1/2+z
1/2+x,1/2+y,z
1/2-x,1/2+y,1/2-z
1/2-x,1/2-y,-z
1/2+x,1/2-y,1/2+z
loop_
_atom_site_type_symbol
_atom_site_label
_atom_site_fract_x
_atom_site_fract_y
_atom_site_fract_z
Si Si1 0.532967 0.100464 0.878280
Si Si2 0.427072 0.594192 0.769672
Si Si3 0.929473 0.700329 0.912375
Si Si4 0.973672 0.371426 0.625724
Si Si5 0.463555 0.340922 0.482648
Si Si6 0.877800 0.959750 0.779346
Si Si7 0.348929 0.990686 0.782583
O O1 0.500000 0.124028 0.750000
O O2 0.539121 0.157273 0.953554
O O3 0.377278 0.052091 0.750770
O O4 0.709089 0.061018 0.061139
O O5 0.500000 0.617437 0.750000
O O6 0.219981 0.600808 0.570101
O O7 0.499302 0.633429 0.920738
O O8 0.467390 0.519366 0.821120
O O9 0.736653 0.676000 0.711292
O O10 0.986587 0.683113 0.065622
O O11 0.939939 0.775053 0.906391
O O12 0.000000 0.350981 0.750000
O O13 0.106049 0.427450 0.727733
O O14 0.513554 0.396715 0.596813
O O15 0.810871 0.984412 0.808556
O O16 0.500000 0.000000 0.000000
#
# Coordination Sequence:
#
# PCOD9256369 Si02
#       7
#     8   8   8   8   8   8   8
#     4  11  22  39  69 101 129 170 214 263 322 390
#     4  11  25  40  61 103 136 163 214 268 326 386
#     4  11  24  46  65  93 127 175 222 267 317 390
#     4  11  22  39  67  99 128 172 211 262 318 388
#     4  11  26  45  67  88 128 178 218 267 331 374
#     4  11  22  41  66  96 132 175 208 265 327 384
#     4  10  17  36  66  92 130 164 217 250 318 381
#
# _framework density 22.171928000000001
#
# number of rings (size 3 to 8) (size 9 to 14) (size 15 to 20)
#    0.000    1.143    5.714    2.571    2.000    1.714 
#    0.000    6.429    0.000    0.000    0.000    0.000 
#    0.000    0.000    0.000    0.000    0.000    0.000 
#
# Total GULP energy -156700.987090 kJ/mol
# GULP energy per Si atom -5596.463825 kJ/mol
# Density = 2.212146 g / cm^3
# Si number density = 22.171928 Si / 1000 Ang^3
#
#
#
# Elastic Constant Matrix: (Units=GPa)
#
#
# Indices 1 2 3 4 5 6 
#
# 1 50.2908 -11.3576 3.9767 0.0000 -8.1075 0.0000
# 2 -11.3576 89.6417 1.1909 0.0000 6.7112 0.0000
# 3 3.9767 1.1909 58.6353 0.0000 -10.0958 0.0000
# 4 0.0000 0.0000 0.0000 29.7420 0.0000 6.5711
# 5 -8.1075 6.7112 -10.0958 0.0000 31.2462 0.0000
# 6 0.0000 0.0000 0.0000 6.5711 0.0000 9.9637
#
#
#
# Elastic Compliance Matrix: (Units=1/GPa)
#
#
# Indices 1 2 3 4 5 6 
#
# 1 0.021238 0.002341 -0.000663 0.000000 0.004794 0.000000
# 2 0.002341 0.011622 -0.000762 0.000000 -0.002135 0.000000
# 3 -0.000663 -0.000762 0.018122 0.000000 0.005847 0.000000
# 4 0.000000 0.000000 0.000000 0.039357 0.000000 -0.025956
# 5 0.004794 -0.002135 0.005847 0.000000 0.035596 0.000000
# 6 0.000000 0.000000 0.000000 -0.025956 0.000000 0.117482
#
#
# Mechanical properties :
#
#
# Convention : Reuss Voigt Hill
#
# Bulk Modulus (GPa) = 18.93451 20.68754 19.81103
# Shear Modulus (GPa) = 19.29090 27.84091 23.56591
#
# Velocity S-wave (km/s) = 2.95288 3.54741 3.26371
# Velocity P-wave (km/s) = 4.49270 5.11171 4.81217
#
# Compressibility (1/GPa) = 0.05281361
#
# Stress axis : x y z
#
# Youngs Moduli (GPa) = 47.08491 86.04307 55.18237
#
# Poissons Ratio (x) = -0.20141 0.03656
# Poissons Ratio (y) = -0.11022 0.04207
# Poissons Ratio (z) = 0.03120 0.06560
#
# Static dielectric constant tensor:
#      x y z
#    x 1.821760 0.000000 0.050450 
#    y 0.000000 1.807240 0.000000 
#    z 0.050450 0.000000 1.871040 
# 
# From -- ./inp_files/163839.got.cif
#   From: 2010.05.17/outbox.cif.g08.bks.cpg/sg15_82_cif.got.tgz:163839.got - 2010.06.03 18:47:42.
