data_PCOD9256459
_publ_section_title
;
Structure prediction by ZEFSAII (Michael W. Deem and Ramdas Pophale) SiO2 
 PCOD9256459
Probable space group: C 2/C
;
_chemical_formula_sum "Si O2"
_cell_formula_units_Z 44
_cell_length_a 11.819545
_cell_length_b 21.313900
_cell_length_c 8.750395
_cell_angle_alpha 90.000000
_cell_angle_beta 128.325512
_cell_angle_gamma 90.000000
_cell_volume 1729.356250
_symmetry_space_group_name_H-M "C 2/C"
_symmetry_group_IT_number 15
_symmetry_cell_setting 'monoclinic'
loop_
_space_group_symop_operation_xyz
x,y,z
-x,y,1/2-z
-x,-y,-z
x,-y,1/2+z
1/2+x,1/2+y,z
1/2-x,1/2+y,1/2-z
1/2-x,1/2-y,-z
1/2+x,1/2-y,1/2+z
loop_
_atom_site_type_symbol
_atom_site_label
_atom_site_fract_x
_atom_site_fract_y
_atom_site_fract_z
Si Si1 0.332498 0.177377 0.980470
Si Si2 0.588511 0.307097 0.518941
Si Si3 0.832075 0.192202 0.992275
Si Si4 0.154091 0.580944 0.907772
Si Si5 0.000000 0.076372 0.750000
Si Si6 0.695818 0.039035 0.608836
O O1 0.244261 0.186674 0.065135
O O2 0.236013 0.185802 0.741546
O O3 0.376103 0.104249 0.009707
O O4 0.442489 0.234601 0.057877
O O5 0.502298 0.303663 0.604502
O O6 0.528463 0.373866 0.408529
O O7 0.774984 0.131991 0.037601
O O8 0.750000 0.250000 0.000000
O O9 0.201893 0.545688 0.794563
O O10 0.000000 0.613893 0.750000
O O11 0.127763 0.526887 0.007627
O O12 0.857330 0.038982 0.673509
#
# Coordination Sequence:
#
# PCOD9256459 Si02
#       6
#     8   8   8   8   4   8
#     4   9  20  38  64  89 124 165 206 259 313 383
#     4  10  17  39  63  87 120 165 207 250 320 377
#     4  11  23  38  62  91 127 163 202 269 327 367
#     4  11  24  45  64  92 132 173 215 265 324 390
#     4  10  18  42  64  88 130 162 206 270 330 372
#     4  10  22  43  66  93 126 174 211 271 320 387
#
# _framework density 25.442993000000001
#
# number of rings (size 3 to 8) (size 9 to 14) (size 15 to 20)
#    0.000    1.818    5.455    0.545    5.091    0.727 
#   11.455    0.000    0.000    0.000    0.000    0.000 
#    0.000    0.000    0.000    0.000    0.000    0.000 
#
# Total GULP energy -122551.733714 kJ/mol
# GULP energy per Si atom -5570.533351 kJ/mol
# Density = 2.538508 g / cm^3
# Si number density = 25.442993 Si / 1000 Ang^3
#
#
#
# Elastic Constant Matrix: (Units=GPa)
#
#
# Indices 1 2 3 4 5 6 
#
# 1 159.3775 41.6112 23.6817 0.0000 -14.0641 0.0000
# 2 41.6112 141.9087 12.6744 0.0000 4.6375 0.0000
# 3 23.6817 12.6744 40.0779 0.0000 0.6009 0.0000
# 4 0.0000 0.0000 0.0000 30.6925 0.0000 3.6120
# 5 -14.0641 4.6375 0.6009 0.0000 31.9248 0.0000
# 6 0.0000 0.0000 0.0000 3.6120 0.0000 57.8505
#
#
#
# Elastic Compliance Matrix: (Units=1/GPa)
#
#
# Indices 1 2 3 4 5 6 
#
# 1 0.007730 -0.002035 -0.003981 0.000000 0.003776 0.000000
# 2 -0.002035 0.007820 -0.001241 0.000000 -0.002009 0.000000
# 3 -0.003981 -0.001241 0.027727 0.000000 -0.002095 0.000000
# 4 0.000000 0.000000 0.000000 0.032822 0.000000 -0.002049
# 5 0.003776 -0.002009 -0.002095 0.000000 0.033318 0.000000
# 6 0.000000 0.000000 0.000000 -0.002049 0.000000 0.017414
#
#
# Mechanical properties :
#
#
# Convention : Reuss Voigt Hill
#
# Bulk Modulus (GPa) = 34.76415 55.25540 45.00977
# Shear Modulus (GPa) = 33.12724 41.65333 37.39028
#
# Velocity S-wave (km/s) = 3.61226 4.05053 3.83766
# Velocity P-wave (km/s) = 5.57594 6.60607 6.11275
#
# Compressibility (1/GPa) = 0.02876527
#
# Stress axis : x y z
#
# Youngs Moduli (GPa) = 129.36036 127.88001 36.06530
#
# Poissons Ratio (x) = 0.26018 0.14358
# Poissons Ratio (y) = 0.26319 0.04474
# Poissons Ratio (z) = 0.51498 0.15865
#
# Static dielectric constant tensor:
#      x y z
#    x 2.079500 0.000000 -0.414000 
#    y 0.000000 1.943300 0.000000 
#    z -0.414000 0.000000 3.626410 
# 
# From -- ./inp_files/87960.got.cif
#   From: 2010.05.17/outbox.cif.g08.bks.cpg/sg15_44_cif.got.tgz:87960.got - 2010.06.03 18:47:42.
