data_PCOD9256554
_publ_section_title
;
Structure prediction by ZEFSAII (Michael W. Deem and Ramdas Pophale) SiO2 
 PCOD9256554
Probable space group: C 2/C
;
_chemical_formula_sum "Si O2"
_cell_formula_units_Z 48
_cell_length_a 30.083298
_cell_length_b 9.202932
_cell_length_c 15.933601
_cell_angle_alpha 90.000000
_cell_angle_beta 24.735824
_cell_angle_gamma 90.000000
_cell_volume 1845.838225
_symmetry_space_group_name_H-M "C 2/C"
_symmetry_group_IT_number 15
_symmetry_cell_setting 'monoclinic'
loop_
_space_group_symop_operation_xyz
x,y,z
-x,y,1/2-z
-x,-y,-z
x,-y,1/2+z
1/2+x,1/2+y,z
1/2-x,1/2+y,1/2-z
1/2-x,1/2-y,-z
1/2+x,1/2-y,1/2+z
loop_
_atom_site_type_symbol
_atom_site_label
_atom_site_fract_x
_atom_site_fract_y
_atom_site_fract_z
Si Si1 0.436063 0.757297 0.440917
Si Si2 0.229970 0.827359 0.398066
Si Si3 0.149313 0.304890 0.622686
Si Si4 0.869992 0.130474 0.989880
Si Si5 0.522212 0.444540 0.054635
Si Si6 0.396307 0.131317 0.747906
O O1 0.500000 0.814628 0.250000
O O2 0.318252 0.743943 0.605456
O O3 0.475883 0.595764 0.396141
O O4 0.477653 0.845322 0.450249
O O5 0.346040 0.844488 0.242378
O O6 0.165015 0.742998 0.583820
O O7 0.188850 0.995227 0.453834
O O8 0.250000 0.250000 0.500000
O O9 0.163553 0.277505 0.498865
O O10 0.127953 0.469345 0.681136
O O11 0.058878 0.188805 0.800313
O O12 0.000000 0.124728 0.750000
O O13 0.868232 0.117232 0.093761
O O14 0.500000 0.500000 0.000000
#
# Coordination Sequence:
#
# PCOD9256554 Si02
#       6
#     8   8   8   8   8   8
#     4   9  18  34  56  79 106 150 194 238 294 366
#     4   9  16  28  48  79 112 140 180 237 299 346
#     4  11  20  32  58  91 114 138 199 261 293 342
#     4   9  17  33  55  78 108 148 191 239 293 362
#     4  10  21  37  58  76 113 164 195 227 306 376
#     4  10  18  27  53  85 113 136 187 250 300 338
#
# _framework density 26.004443999999999
#
# number of rings (size 3 to 8) (size 9 to 14) (size 15 to 20)
#    0.000    2.333    1.667    7.000    2.333    6.000 
#    0.000    0.833    7.333    0.000    0.000    0.000 
#    0.000    0.000    0.000    0.000    0.000    0.000 
#
# Total GULP energy -133664.068465 kJ/mol
# GULP energy per Si atom -5569.336186 kJ/mol
# Density = 2.594526 g / cm^3
# Si number density = 26.004444 Si / 1000 Ang^3
#
#
#
# Elastic Constant Matrix: (Units=GPa)
#
#
# Indices 1 2 3 4 5 6 
#
# 1 220.7250 71.5664 62.2860 0.0000 -70.2891 0.0000
# 2 71.5664 150.1644 38.3771 0.0000 -30.3456 0.0000
# 3 62.2860 38.3771 83.6586 0.0000 -46.7164 0.0000
# 4 0.0000 0.0000 0.0000 10.9236 0.0000 -14.5492
# 5 -70.2891 -30.3456 -46.7164 0.0000 66.4446 0.0000
# 6 0.0000 0.0000 0.0000 -14.5492 0.0000 52.0413
#
#
#
# Elastic Compliance Matrix: (Units=1/GPa)
#
#
# Indices 1 2 3 4 5 6 
#
# 1 0.007482 -0.002014 -0.001219 0.000000 0.006138 0.000000
# 2 -0.002014 0.008200 -0.002240 0.000000 0.000039 0.000000
# 3 -0.001219 -0.002240 0.020740 0.000000 0.012269 0.000000
# 4 0.000000 0.000000 0.000000 0.145855 0.000000 0.040777
# 5 0.006138 0.000039 0.012269 0.000000 0.030188 0.000000
# 6 0.000000 0.000000 0.000000 0.040777 0.000000 0.030615
#
#
# Mechanical properties :
#
#
# Convention : Reuss Voigt Hill
#
# Bulk Modulus (GPa) = 39.25327 88.77856 64.01591
# Shear Modulus (GPa) = 19.04629 44.70314 31.87472
#
# Velocity S-wave (km/s) = 2.70927 4.15065 3.50486
# Velocity P-wave (km/s) = 4.99144 7.56204 6.40698
#
# Compressibility (1/GPa) = 0.02547559
#
# Stress axis : x y z
#
# Youngs Moduli (GPa) = 133.65001 121.95678 48.21601
#
# Poissons Ratio (x) = 0.24561 0.05878
# Poissons Ratio (y) = 0.26916 0.10800
# Poissons Ratio (z) = 0.16294 0.27318
#
# Static dielectric constant tensor:
#      x y z
#    x 2.310840 0.000000 0.165990 
#    y 0.000000 1.809650 0.000000 
#    z 0.165990 0.000000 2.473420 
# 
# From -- ./inp_files/258682.got.cif
#   From: 2010.05.17/outbox.cif.g08.bks.cpg/sg15_130_cif.got.tgz:258682.got - 2010.06.03 18:47:42.
