data_PCOD9256444
_publ_section_title
;
Structure prediction by ZEFSAII (Michael W. Deem and Ramdas Pophale) SiO2 
 PCOD9256444
Probable space group: C 2/C
;
_chemical_formula_sum "Si O2"
_cell_formula_units_Z 52
_cell_length_a 25.320832
_cell_length_b 20.176742
_cell_length_c 14.781448
_cell_angle_alpha 90.000000
_cell_angle_beta 162.580378
_cell_angle_gamma 90.000000
_cell_volume 2260.740671
_symmetry_space_group_name_H-M "C 2/C"
_symmetry_group_IT_number 15
_symmetry_cell_setting 'monoclinic'
loop_
_space_group_symop_operation_xyz
x,y,z
-x,y,1/2-z
-x,-y,-z
x,-y,1/2+z
1/2+x,1/2+y,z
1/2-x,1/2+y,1/2-z
1/2-x,1/2-y,-z
1/2+x,1/2-y,1/2+z
loop_
_atom_site_type_symbol
_atom_site_label
_atom_site_fract_x
_atom_site_fract_y
_atom_site_fract_z
Si Si1 0.764316 0.485753 0.953781
Si Si2 0.699221 0.313323 0.607445
Si Si3 0.249394 0.138411 0.913065
Si Si4 0.750000 0.250000 0.500000
Si Si5 0.360391 0.818780 0.399142
Si Si6 0.680255 0.576739 0.493581
Si Si7 0.820090 0.541327 0.344440
O O1 0.742844 0.563996 0.934802
O O2 0.663218 0.439838 0.859988
O O3 0.971914 0.471848 0.306135
O O4 0.725103 0.473989 0.784590
O O5 0.781656 0.280428 0.653899
O O6 0.706809 0.255362 0.695972
O O7 0.788846 0.382312 0.774583
O O8 0.500000 0.325633 0.250000
O O9 0.117456 0.184121 0.750757
O O10 0.425171 0.181550 0.236639
O O11 0.282674 0.141299 0.860123
O O12 0.308771 0.862224 0.228807
O O13 0.752419 0.509284 0.657684
O O14 0.500000 0.592923 0.250000
#
# Coordination Sequence:
#
# PCOD9256444 Si02
#       7
#     8   8   8   4   8   8   8
#     4  11  23  42  68  92 126 176 217 258 327 397
#     4  11  22  39  62  98 129 159 214 277 322 370
#     4  10  17  38  66  92 117 161 213 262 321 380
#     4  10  20  32  64 100 116 156 210 266 328 366
#     4  10  19  40  62  86 128 160 207 261 314 391
#     4  12  25  41  62  95 128 170 214 261 329 388
#     4  11  23  42  66  95 129 166 219 273 316 388
#
# _framework density 23.001311000000001
#
# number of rings (size 3 to 8) (size 9 to 14) (size 15 to 20)
#    0.000    1.231    6.154    2.769    2.154    0.615 
#    8.308    0.769    0.000    0.000    0.000    0.000 
#    0.000    0.000    0.000    0.000    0.000    0.000 
#
# Total GULP energy -144925.472392 kJ/mol
# GULP energy per Si atom -5574.056630 kJ/mol
# Density = 2.294896 g / cm^3
# Si number density = 23.001311 Si / 1000 Ang^3
#
#
#
# Elastic Constant Matrix: (Units=GPa)
#
#
# Indices 1 2 3 4 5 6 
#
# 1 108.5219 24.1550 -6.0373 0.0000 -2.8312 0.0000
# 2 24.1550 159.8272 17.7214 0.0000 -15.0600 0.0000
# 3 -6.0373 17.7214 24.9992 0.0000 7.9033 0.0000
# 4 0.0000 0.0000 0.0000 12.7835 0.0000 3.2026
# 5 -2.8312 -15.0600 7.9033 0.0000 15.0407 0.0000
# 6 0.0000 0.0000 0.0000 3.2026 0.0000 21.8426
#
#
#
# Elastic Compliance Matrix: (Units=1/GPa)
#
#
# Indices 1 2 3 4 5 6 
#
# 1 0.009941 -0.002363 0.005075 0.000000 -0.003162 0.000000
# 2 -0.002363 0.009394 -0.012067 0.000000 0.015302 0.000000
# 3 0.005075 -0.012067 0.063917 0.000000 -0.044713 0.000000
# 4 0.000000 0.000000 0.000000 0.081209 0.000000 -0.011907
# 5 -0.003162 0.015302 -0.044713 0.000000 0.104708 0.000000
# 6 0.000000 0.000000 0.000000 -0.011907 0.000000 0.047528
#
#
# Mechanical properties :
#
#
# Convention : Reuss Voigt Hill
#
# Bulk Modulus (GPa) = 15.49398 40.55850 28.02624
# Shear Modulus (GPa) = 14.00878 27.10062 20.55470
#
# Velocity S-wave (km/s) = 2.47056 3.43625 2.99261
# Velocity P-wave (km/s) = 3.85862 5.78058 4.91447
#
# Compressibility (1/GPa) = 0.06454120
#
# Stress axis : x y z
#
# Youngs Moduli (GPa) = 100.59806 106.45424 15.64534
#
# Poissons Ratio (x) = 0.25155 -0.07940
# Poissons Ratio (y) = 0.23771 0.18880
# Poissons Ratio (z) = -0.51056 1.28460
#
# Static dielectric constant tensor:
#      x y z
#    x -9.237630 0.000000 -6.245420 
#    y 0.000000 1.002170 0.000000 
#    z -6.245420 0.000000 -1.628330 
# 
# From -- ./inp_files/179045.got.cif
#   From: 2010.05.17/outbox.cif.g08.bks.cpg/sg15_90_cif.got.tgz:179045.got - 2010.06.03 18:47:42.
