data_PCOD9256556
_publ_section_title
;
Structure prediction by ZEFSAII (Michael W. Deem and Ramdas Pophale) SiO2 
 PCOD9256556
Probable space group: C 2/C
;
_chemical_formula_sum "Si O2"
_cell_formula_units_Z 44
_cell_length_a 11.341063
_cell_length_b 31.240546
_cell_length_c 5.460243
_cell_angle_alpha 90.000000
_cell_angle_beta 100.199904
_cell_angle_gamma 90.000000
_cell_volume 1903.995435
_symmetry_space_group_name_H-M "C 2/C"
_symmetry_group_IT_number 15
_symmetry_cell_setting 'monoclinic'
loop_
_space_group_symop_operation_xyz
x,y,z
-x,y,1/2-z
-x,-y,-z
x,-y,1/2+z
1/2+x,1/2+y,z
1/2-x,1/2+y,1/2-z
1/2-x,1/2-y,-z
1/2+x,1/2-y,1/2+z
loop_
_atom_site_type_symbol
_atom_site_label
_atom_site_fract_x
_atom_site_fract_y
_atom_site_fract_z
Si Si1 0.257141 0.896183 0.911149
Si Si2 0.381844 0.962146 0.593154
Si Si3 0.631674 0.783076 0.199649
Si Si4 0.655270 0.481617 0.953197
Si Si5 0.000000 0.399463 0.250000
Si Si6 0.764110 0.806334 0.754254
O O1 0.309083 0.927894 0.726922
O O2 0.172893 0.931028 0.019608
O O3 0.194057 0.855094 0.770147
O O4 0.378895 0.879080 0.090554
O O5 0.500000 0.983226 0.750000
O O6 0.440387 0.930136 0.423529
O O7 0.288250 0.996869 0.466636
O O8 0.500000 0.793256 0.250000
O O9 0.714175 0.793740 0.465576
O O10 0.643431 0.731874 0.152686
O O11 0.672526 0.804806 0.956056
O O12 0.604581 0.491882 0.664874
#
# Coordination Sequence:
#
# PCOD9256556 Si02
#       6
#     8   8   8   8   4   8
#     4  10  21  30  44  68 101 131 179 220 252 301
#     4   9  19  28  39  59  91 139 180 208 244 299
#     4  10  22  41  62  78 110 140 172 221 286 335
#     4  10  19  30  42  59  92 137 176 209 247 294
#     4  10  18  28  40  62  92 142 168 214 246 292
#     4  10  23  38  58  87 105 138 181 226 268 329
#
# _framework density 23.109297000000002
#
# number of rings (size 3 to 8) (size 9 to 14) (size 15 to 20)
#    0.000    2.182    1.818    0.545    5.091    5.091 
#    0.000    0.000    0.000    0.000    0.000    0.000 
#    0.000    5.818    0.000    0.000    0.000    4.364 
#
# Total GULP energy -122520.843016 kJ/mol
# GULP energy per Si atom -5569.129228 kJ/mol
# Density = 2.305670 g / cm^3
# Si number density = 23.109297 Si / 1000 Ang^3
#
#
#
# Elastic Constant Matrix: (Units=GPa)
#
#
# Indices 1 2 3 4 5 6 
#
# 1 24.4690 -3.3490 3.6009 0.0000 -12.8365 0.0000
# 2 -3.3490 144.5405 14.5341 0.0000 3.9443 0.0000
# 3 3.6009 14.5341 91.9562 0.0000 -7.4011 0.0000
# 4 0.0000 0.0000 0.0000 18.9509 0.0000 13.7621
# 5 -12.8365 3.9443 -7.4011 0.0000 39.0792 0.0000
# 6 0.0000 0.0000 0.0000 13.7621 0.0000 6.3061
#
#
#
# Elastic Compliance Matrix: (Units=1/GPa)
#
#
# Indices 1 2 3 4 5 6 
#
# 1 0.049501 0.000787 -0.000772 0.000000 0.016034 0.000000
# 2 0.000787 0.007076 -0.001204 0.000000 -0.000684 0.000000
# 3 -0.000772 -0.001204 0.011256 0.000000 0.002000 0.000000
# 4 0.000000 0.000000 0.000000 -0.090230 0.000000 0.196913
# 5 0.016034 -0.000684 0.002000 0.000000 0.031304 0.000000
# 6 0.000000 0.000000 0.000000 0.196913 0.000000 -0.271156
#
#
# Mechanical properties :
#
#
# Convention : Reuss Voigt Hill
#
# Bulk Modulus (GPa) = 15.27779 32.28197 23.77988
# Shear Modulus (GPa) = -21.00389 29.27921 4.13766
#
# Velocity S-wave (km/s) = -3.01806 3.56334 1.33954
# Velocity P-wave (km/s) = 2.34935 5.56142 3.56441
#
# Compressibility (1/GPa) = 0.06545450
#
# Stress axis : x y z
#
# Youngs Moduli (GPa) = 20.20165 141.31340 88.83933
#
# Poissons Ratio (x) = -0.11122 0.06861
# Poissons Ratio (y) = -0.01590 0.10699
# Poissons Ratio (z) = 0.01560 0.17019
#
# Static dielectric constant tensor:
#      x y z
#    x 1.965080 0.000000 0.017270 
#    y 0.000000 1.898660 0.000000 
#    z 0.017270 0.000000 2.065130 
# 
# From -- ./inp_files/5870.got.cif
#   From: 2010.05.17/outbox.cif.g08.bks.cpg/sg15_3_cif.got.tgz:5870.got - 2010.06.03 18:47:42.
