data_PCOD9256683
_publ_section_title
;
Structure prediction by ZEFSAII (Michael W. Deem and Ramdas Pophale) SiO2 
 PCOD9256683
Probable space group: C 2/C
;
_chemical_formula_sum "Si O2"
_cell_formula_units_Z 60
_cell_length_a 17.074672
_cell_length_b 17.177847
_cell_length_c 16.485110
_cell_angle_alpha 90.000000
_cell_angle_beta 131.317017
_cell_angle_gamma 90.000000
_cell_volume 3631.551885
_symmetry_space_group_name_H-M "C 2/C"
_symmetry_group_IT_number 15
_symmetry_cell_setting 'monoclinic'
loop_
_space_group_symop_operation_xyz
x,y,z
-x,y,1/2-z
-x,-y,-z
x,-y,1/2+z
1/2+x,1/2+y,z
1/2-x,1/2+y,1/2-z
1/2-x,1/2-y,-z
1/2+x,1/2-y,1/2+z
loop_
_atom_site_type_symbol
_atom_site_label
_atom_site_fract_x
_atom_site_fract_y
_atom_site_fract_z
Si Si1 0.104163 0.363684 0.166742
Si Si2 0.622314 0.394444 0.319920
Si Si3 0.425443 0.936344 0.598410
Si Si4 0.500000 0.920505 0.250000
Si Si5 0.743115 0.832258 0.948882
Si Si6 0.715145 0.009519 0.646355
Si Si7 0.783118 0.754943 0.225407
Si Si8 0.087256 0.363126 0.592579
O O1 0.066549 0.369610 0.233197
O O2 0.170366 0.442284 0.192163
O O3 0.183789 0.295155 0.198927
O O4 0.001937 0.358952 0.038099
O O5 0.500000 0.395977 0.250000
O O6 0.675620 0.385177 0.445421
O O7 0.668753 0.467787 0.301393
O O8 0.659332 0.320361 0.290619
O O9 0.369068 0.871975 0.614329
O O10 0.351928 0.951832 0.471657
O O11 0.530584 0.903273 0.631141
O O12 0.436858 0.017842 0.651641
O O13 0.756195 0.811848 0.863858
O O14 0.750000 0.750000 0.000000
O O15 0.679836 0.920984 0.629183
O O16 0.863195 0.717283 0.343652
#
# Coordination Sequence:
#
# PCOD9256683 Si02
#       8
#     8   8   8   4   8   8   8   8
#     4  10  21  35  51  79 109 139 174 230 262 314
#     4   9  19  31  52  77 109 145 166 208 268 317
#     4  10  18  28  54  84 100 134 171 223 268 308
#     4  12  18  32  56  76 102 132 192 224 256 296
#     4   9  18  31  46  80 116 128 169 215 257 333
#     4   9  17  35  50  78 108 135 173 213 269 309
#     4  10  22  31  51  79 110 141 172 212 270 324
#     4  11  18  34  57  76 108 140 171 216 280 307
#
# _framework density 16.521863
#
# number of rings (size 3 to 8) (size 9 to 14) (size 15 to 20)
#    0.000    2.133    2.667    4.000    5.600    0.000 
#    0.000    0.667    1.467    2.400    0.000    0.000 
#    0.000    0.000    0.000    0.000    0.000    0.000 
#
# Total GULP energy -167025.420129 kJ/mol
# GULP energy per Si atom -5567.514004 kJ/mol
# Density = 1.648426 g / cm^3
# Si number density = 16.521863 Si / 1000 Ang^3
#
#
#
# Elastic Constant Matrix: (Units=GPa)
#
#
# Indices 1 2 3 4 5 6 
#
# 1 139.4876 46.4813 44.0473 0.0000 3.3339 0.0000
# 2 46.4813 53.4524 8.1855 0.0000 7.9611 0.0000
# 3 44.0473 8.1855 36.3393 0.0000 6.7717 0.0000
# 4 0.0000 0.0000 0.0000 16.2810 0.0000 0.4186
# 5 3.3339 7.9611 6.7717 0.0000 22.9394 0.0000
# 6 0.0000 0.0000 0.0000 0.4186 0.0000 25.8750
#
#
#
# Elastic Compliance Matrix: (Units=1/GPa)
#
#
# Indices 1 2 3 4 5 6 
#
# 1 0.017878 -0.013672 -0.020096 0.000000 0.008079 0.000000
# 2 -0.013672 0.030577 0.011949 0.000000 -0.012152 0.000000
# 3 -0.020096 0.011949 0.052290 0.000000 -0.016662 0.000000
# 4 0.000000 0.000000 0.000000 0.061447 0.000000 -0.000994
# 5 0.008079 -0.012152 -0.016662 0.000000 0.051555 0.000000
# 6 0.000000 0.000000 0.000000 -0.000994 0.000000 0.038663
#
#
# Mechanical properties :
#
#
# Convention : Reuss Voigt Hill
#
# Bulk Modulus (GPa) = 17.51078 47.41194 32.46136
# Shear Modulus (GPa) = 15.86880 21.72342 18.79611
#
# Velocity S-wave (km/s) = 3.10251 3.62999 3.37657
# Velocity P-wave (km/s) = 4.84311 6.80646 5.90693
#
# Compressibility (1/GPa) = 0.05710766
#
# Stress axis : x y z
#
# Youngs Moduli (GPa) = 55.93569 32.70399 19.12411
#
# Poissons Ratio (x) = 0.44713 0.38431
# Poissons Ratio (y) = 0.76475 -0.22851
# Poissons Ratio (z) = 1.12406 -0.39078
#
# Static dielectric constant tensor:
#      x y z
#    x 1.579350 0.000000 -0.023360 
#    y 0.000000 1.563640 0.000000 
#    z -0.023360 0.000000 1.626860 
# 
# From -- ./inp_files/178713.got.cif
#   From: 2010.05.17/outbox.cif.g08.bks.cpg/sg15_90_cif.got.tgz:178713.got - 2010.06.03 18:47:42.
