data_PCOD9256842
_publ_section_title
;
Structure prediction by ZEFSAII (Michael W. Deem and Ramdas Pophale) SiO2 
 PCOD9256842
Probable space group: C 2/C
;
_chemical_formula_sum "Si O2"
_cell_formula_units_Z 48
_cell_length_a 29.522038
_cell_length_b 16.313900
_cell_length_c 12.303587
_cell_angle_alpha 90.000000
_cell_angle_beta 26.405392
_cell_angle_gamma 90.000000
_cell_volume 2635.251200
_symmetry_space_group_name_H-M "C 2/C"
_symmetry_group_IT_number 15
_symmetry_cell_setting 'monoclinic'
loop_
_space_group_symop_operation_xyz
x,y,z
-x,y,1/2-z
-x,-y,-z
x,-y,1/2+z
1/2+x,1/2+y,z
1/2-x,1/2+y,1/2-z
1/2-x,1/2-y,-z
1/2+x,1/2-y,1/2+z
loop_
_atom_site_type_symbol
_atom_site_label
_atom_site_fract_x
_atom_site_fract_y
_atom_site_fract_z
Si Si1 0.313878 0.934738 0.271587
Si Si2 0.155697 0.377782 0.046177
Si Si3 0.669116 0.431887 0.986228
Si Si4 0.000000 0.509393 0.750000
Si Si5 0.000000 0.051655 0.250000
Si Si6 0.822148 0.205254 0.431693
Si Si7 0.512726 0.401411 0.488870
O O1 0.325880 0.913105 0.372399
O O2 0.252716 0.858886 0.348404
O O3 0.242477 0.013037 0.404230
O O4 0.422025 0.954111 0.986154
O O5 0.258509 0.386876 0.754521
O O6 0.130195 0.281233 0.106314
O O7 0.068586 0.432359 0.178467
O O8 0.593283 0.492824 0.084300
O O9 0.599684 0.378192 0.216347
O O10 0.968415 0.104690 0.422612
O O11 0.750000 0.250000 0.500000
O O12 0.909918 0.149343 0.189984
O O13 0.500000 0.500000 0.500000
#
# Coordination Sequence:
#
# PCOD9256842 Si02
#       7
#     8   8   8   4   4   8   8
#     4  10  19  40  58  86 112 156 196 233 276 354
#     4  10  22  38  59  84 122 150 185 249 295 330
#     4  10  20  33  60  89 114 149 202 232 281 348
#     4  10  22  39  65  82 108 164 202 226 274 359
#     4  10  18  29  59  84 112 148 190 244 270 327
#     4  10  21  37  56  84 123 149 182 245 297 329
#     4  10  19  35  57  89 114 152 195 232 287 347
#
# _framework density 18.214582
#
# number of rings (size 3 to 8) (size 9 to 14) (size 15 to 20)
#    0.000    2.000    3.333    1.500    7.000    0.667 
#    6.000    0.000    0.000    3.000    0.000    0.000 
#    0.000    0.000    0.000    0.000    0.000    0.000 
#
# Total GULP energy -133701.150224 kJ/mol
# GULP energy per Si atom -5570.881259 kJ/mol
# Density = 1.817312 g / cm^3
# Si number density = 18.214582 Si / 1000 Ang^3
#
#
#
# Elastic Constant Matrix: (Units=GPa)
#
#
# Indices 1 2 3 4 5 6 
#
# 1 78.7893 20.8526 41.9981 0.0000 8.6658 0.0000
# 2 20.8526 88.7639 62.8588 0.0000 7.6579 0.0000
# 3 41.9981 62.8588 170.3226 0.0000 5.5345 0.0000
# 4 0.0000 0.0000 0.0000 28.2823 0.0000 -11.2990
# 5 8.6658 7.6579 5.5345 0.0000 23.2928 0.0000
# 6 0.0000 0.0000 0.0000 -11.2990 0.0000 10.7961
#
#
#
# Elastic Compliance Matrix: (Units=1/GPa)
#
#
# Indices 1 2 3 4 5 6 
#
# 1 0.015168 -0.000846 -0.003279 0.000000 -0.004586 0.000000
# 2 -0.000846 0.015623 -0.005443 0.000000 -0.003529 0.000000
# 3 -0.003279 -0.005443 0.008657 0.000000 0.000952 0.000000
# 4 0.000000 0.000000 0.000000 0.060764 0.000000 0.063595
# 5 -0.004586 -0.003529 0.000952 0.000000 0.045572 0.000000
# 6 0.000000 0.000000 0.000000 0.063595 0.000000 0.159183
#
#
# Mechanical properties :
#
#
# Convention : Reuss Voigt Hill
#
# Bulk Modulus (GPa) = 49.22680 65.47720 57.35200
# Shear Modulus (GPa) = 15.11148 26.61866 20.86507
#
# Velocity S-wave (km/s) = 2.88347 3.82696 3.38822
# Velocity P-wave (km/s) = 6.17823 7.45341 6.84558
#
# Compressibility (1/GPa) = 0.02031414
#
# Stress axis : x y z
#
# Youngs Moduli (GPa) = 65.92752 64.00743 115.50708
#
# Poissons Ratio (x) = 0.05412 0.37876
# Poissons Ratio (y) = 0.05575 0.62867
# Poissons Ratio (z) = 0.21618 0.34837
#
# Static dielectric constant tensor:
#      x y z
#    x 1.688220 0.000000 -0.011850 
#    y 0.000000 1.646100 0.000000 
#    z -0.011850 0.000000 1.648030 
# 
# From -- ./inp_files/123772.got.cif
#   From: 2010.05.17/outbox.cif.g08.bks.cpg/sg15_62_cif.got.tgz:123772.got - 2010.06.03 18:47:42.
