data_PCOD9256104
_publ_section_title
;
Structure prediction by ZEFSAII (Michael W. Deem and Ramdas Pophale) SiO2 
 PCOD9256104
Probable space group: C 2/C
;
_chemical_formula_sum "Si O2"
_cell_formula_units_Z 44
_cell_length_a 23.159545
_cell_length_b 11.584865
_cell_length_c 14.152638
_cell_angle_alpha 90.000000
_cell_angle_beta 149.254048
_cell_angle_gamma 90.000000
_cell_volume 1941.228865
_symmetry_space_group_name_H-M "C 2/C"
_symmetry_group_IT_number 15
_symmetry_cell_setting 'monoclinic'
loop_
_space_group_symop_operation_xyz
x,y,z
-x,y,1/2-z
-x,-y,-z
x,-y,1/2+z
1/2+x,1/2+y,z
1/2-x,1/2+y,1/2-z
1/2-x,1/2-y,-z
1/2+x,1/2-y,1/2+z
loop_
_atom_site_type_symbol
_atom_site_label
_atom_site_fract_x
_atom_site_fract_y
_atom_site_fract_z
Si Si1 0.852500 0.816441 0.834687
Si Si2 0.292578 0.417510 0.558852
Si Si3 0.886859 0.309407 0.913756
Si Si4 0.638085 0.935431 0.162745
Si Si5 0.843449 0.062616 0.797916
Si Si6 0.000000 0.200125 0.250000
O O1 0.791652 0.826007 0.644959
O O2 0.748838 0.815255 0.762014
O O3 0.913398 0.693061 0.925710
O O4 0.907690 0.943846 0.920177
O O5 0.192870 0.429157 0.344096
O O6 0.304073 0.533938 0.636485
O O7 0.403197 0.381391 0.656377
O O8 0.918233 0.438872 0.927625
O O9 0.902167 0.185807 0.884534
O O10 0.948664 0.282068 0.098478
O O11 0.738507 0.935081 0.224163
#
# Coordination Sequence:
#
# PCOD9256104 Si02
#       6
#     8   8   8   8   8   4
#     4   8  17  34  58  77 106 150 192 215 272 346
#     4  10  20  34  60  81 113 153 191 227 281 344
#     4  10  20  35  55  87 112 142 193 241 273 333
#     4  10  17  34  59  85 107 149 194 232 268 348
#     4   8  18  33  54  84 105 145 192 231 267 332
#     4  12  22  34  56  90 118 148 192 232 288 338
#
# _framework density 22.666053999999999
#
# number of rings (size 3 to 8) (size 9 to 14) (size 15 to 20)
#    1.091    1.455    3.636    0.545    0.000    1.455 
#    0.000    0.909    0.000    1.091    0.000    0.000 
#    0.000    0.000    0.000    0.000    0.000    0.000 
#
# Total GULP energy -122486.041333 kJ/mol
# GULP energy per Si atom -5567.547333 kJ/mol
# Density = 2.261447 g / cm^3
# Si number density = 22.666054 Si / 1000 Ang^3
#
#
#
# Elastic Constant Matrix: (Units=GPa)
#
#
# Indices 1 2 3 4 5 6 
#
# 1 57.7616 70.8033 9.0359 0.0000 -1.8959 0.0000
# 2 70.8033 276.9289 40.5472 0.0000 5.9086 0.0000
# 3 9.0359 40.5472 19.8104 0.0000 -9.0718 0.0000
# 4 0.0000 0.0000 0.0000 32.8340 0.0000 16.5303
# 5 -1.8959 5.9086 -9.0718 0.0000 27.1464 0.0000
# 6 0.0000 0.0000 0.0000 16.5303 0.0000 48.4284
#
#
#
# Elastic Compliance Matrix: (Units=1/GPa)
#
#
# Indices 1 2 3 4 5 6 
#
# 1 0.025923 -0.007708 0.006554 0.000000 0.005678 0.000000
# 2 -0.007708 0.008249 -0.017044 0.000000 -0.008030 0.000000
# 3 0.006554 -0.017044 0.099512 0.000000 0.037422 0.000000
# 4 0.000000 0.000000 0.000000 0.036776 0.000000 -0.012553
# 5 0.005678 -0.008030 0.037422 0.000000 0.051487 0.000000
# 6 0.000000 0.000000 0.000000 -0.012553 0.000000 0.024934
#
#
# Mechanical properties :
#
#
# Convention : Reuss Voigt Hill
#
# Bulk Modulus (GPa) = 10.27905 66.14153 38.21029
# Shear Modulus (GPa) = 15.83751 37.28938 26.56344
#
# Velocity S-wave (km/s) = 2.64622 4.06046 3.42709
# Velocity P-wave (km/s) = 3.72579 7.15733 5.70565
#
# Compressibility (1/GPa) = 0.09728525
#
# Stress axis : x y z
#
# Youngs Moduli (GPa) = 38.57638 121.22967 10.04909
#
# Poissons Ratio (x) = 0.93450 -0.06586
# Poissons Ratio (y) = 0.29737 0.17128
# Poissons Ratio (z) = -0.25283 2.06628
#
# Static dielectric constant tensor:
#      x y z
#    x 1.921910 0.000000 0.056330 
#    y 0.000000 1.914370 0.000000 
#    z 0.056330 0.000000 1.823600 
# 
# From -- ./inp_files/177665.got.cif
#   From: 2010.05.17/outbox.cif.g08.bks.cpg/sg15_89_cif.got.tgz:177665.got - 2010.06.03 18:47:42.
