data_PCOD9256723
_publ_section_title
;
Structure prediction by ZEFSAII (Michael W. Deem and Ramdas Pophale) SiO2 
 PCOD9256723
Probable space group: C 2/C
;
_chemical_formula_sum "Si O2"
_cell_formula_units_Z 56
_cell_length_a 26.993157
_cell_length_b 15.712216
_cell_length_c 8.823453
_cell_angle_alpha 90.000000
_cell_angle_beta 67.667767
_cell_angle_gamma 90.000000
_cell_volume 3461.541958
_symmetry_space_group_name_H-M "C 2/C"
_symmetry_group_IT_number 15
_symmetry_cell_setting 'monoclinic'
loop_
_space_group_symop_operation_xyz
x,y,z
-x,y,1/2-z
-x,-y,-z
x,-y,1/2+z
1/2+x,1/2+y,z
1/2-x,1/2+y,1/2-z
1/2-x,1/2-y,-z
1/2+x,1/2-y,1/2+z
loop_
_atom_site_type_symbol
_atom_site_label
_atom_site_fract_x
_atom_site_fract_y
_atom_site_fract_z
Si Si1 0.166729 0.748999 0.502104
Si Si2 0.553215 0.847842 0.594864
Si Si3 0.908963 0.463466 0.475805
Si Si4 0.443537 0.797394 0.251738
Si Si5 0.641148 0.151563 0.226331
Si Si6 0.257203 0.886058 0.413497
Si Si7 0.791929 0.539313 0.548672
O O1 0.107844 0.757302 0.640932
O O2 0.157428 0.714083 0.342462
O O3 0.203060 0.832396 0.461709
O O4 0.198859 0.677714 0.563030
O O5 0.500000 0.829228 0.750000
O O6 0.552651 0.806714 0.431414
O O7 0.605109 0.816891 0.628997
O O8 0.557825 0.949986 0.562094
O O9 0.932142 0.390915 0.339457
O O10 0.898433 0.418574 0.649579
O O11 0.849128 0.491862 0.499574
O O12 0.500000 0.766391 0.250000
O O13 0.694196 0.109313 0.094596
O O14 0.276183 0.919701 0.226869
O O15 0.252844 0.967723 0.528345
#
# Coordination Sequence:
#
# PCOD9256723 Si02
#       7
#     8   8   8   8   8   8   8
#     4  10  21  36  49  77 100 145 169 217 258 312
#     4  11  20  28  44  71  97 138 178 213 238 292
#     4  10  18  29  45  68 102 138 174 205 242 294
#     4  11  21  34  49  68 104 141 174 207 257 306
#     4  10  19  30  48  68 106 132 179 207 253 292
#     4  11  20  34  56  71 109 132 179 210 266 304
#     4  11  18  32  51  74  97 141 168 221 248 305
#
# _framework density 16.177761
#
# number of rings (size 3 to 8) (size 9 to 14) (size 15 to 20)
#    0.000    1.429    4.286    5.571    0.000    2.286 
#    0.000    1.429    0.000    0.000    0.000    1.000 
#    0.000    0.000    0.000    0.000    0.000    0.000 
#
# Total GULP energy -156223.795390 kJ/mol
# GULP energy per Si atom -5579.421264 kJ/mol
# Density = 1.614094 g / cm^3
# Si number density = 16.177761 Si / 1000 Ang^3
#
#
#
# Elastic Constant Matrix: (Units=GPa)
#
#
# Indices 1 2 3 4 5 6 
#
# 1 101.0332 36.4724 48.4528 0.0000 0.0207 0.0000
# 2 36.4724 41.9033 33.8519 0.0000 -1.2777 0.0000
# 3 48.4528 33.8519 104.3433 0.0000 15.7588 0.0000
# 4 0.0000 0.0000 0.0000 10.3651 0.0000 -4.3761
# 5 0.0207 -1.2777 15.7588 0.0000 30.5281 0.0000
# 6 0.0000 0.0000 0.0000 -4.3761 0.0000 14.5289
#
#
#
# Elastic Compliance Matrix: (Units=1/GPa)
#
#
# Indices 1 2 3 4 5 6 
#
# 1 0.015560 -0.010083 -0.004218 0.000000 0.001745 0.000000
# 2 -0.010083 0.040466 -0.009439 0.000000 0.006573 0.000000
# 3 -0.004218 -0.009439 0.015904 0.000000 -0.008602 0.000000
# 4 0.000000 0.000000 0.000000 0.110533 0.000000 0.033293
# 5 0.001745 0.006573 -0.008602 0.000000 0.037471 0.000000
# 6 0.000000 0.000000 0.000000 0.033293 0.000000 0.078856
#
#
# Mechanical properties :
#
#
# Convention : Reuss Voigt Hill
#
# Bulk Modulus (GPa) = 40.89853 53.87045 47.38449
# Shear Modulus (GPa) = 14.10756 19.65126 16.87941
#
# Velocity S-wave (km/s) = 2.95623 3.48905 3.23363
# Velocity P-wave (km/s) = 6.08177 7.04291 6.57992
#
# Compressibility (1/GPa) = 0.02445076
#
# Stress axis : x y z
#
# Youngs Moduli (GPa) = 64.26769 24.71193 62.87833
#
# Poissons Ratio (x) = 0.24916 0.26521
# Poissons Ratio (y) = 0.64799 0.59351
# Poissons Ratio (z) = 0.27107 0.23326
#
# Static dielectric constant tensor:
#      x y z
#    x 1.568780 0.000000 0.021620 
#    y 0.000000 1.538670 0.000000 
#    z 0.021620 0.000000 1.561650 
# 
# From -- ./inp_files/65936.got.cif
#   From: 2010.05.17/outbox.cif.g08.bks.cpg/sg15_33_cif.got.tgz:65936.got - 2010.06.03 18:47:42.
