data_PCOD9256885
_publ_section_title
;
Structure prediction by ZEFSAII (Michael W. Deem and Ramdas Pophale) SiO2 
 PCOD9256885
Probable space group: C 2/C
;
_chemical_formula_sum "Si O2"
_cell_formula_units_Z 48
_cell_length_a 13.236544
_cell_length_b 25.944118
_cell_length_c 8.443197
_cell_angle_alpha 90.000000
_cell_angle_beta 75.197196
_cell_angle_gamma 90.000000
_cell_volume 2803.250918
_symmetry_space_group_name_H-M "C 2/C"
_symmetry_group_IT_number 15
_symmetry_cell_setting 'monoclinic'
loop_
_space_group_symop_operation_xyz
x,y,z
-x,y,1/2-z
-x,-y,-z
x,-y,1/2+z
1/2+x,1/2+y,z
1/2-x,1/2+y,1/2-z
1/2-x,1/2-y,-z
1/2+x,1/2-y,1/2+z
loop_
_atom_site_type_symbol
_atom_site_label
_atom_site_fract_x
_atom_site_fract_y
_atom_site_fract_z
Si Si1 0.297743 0.127219 0.422274
Si Si2 0.377983 0.142314 0.042553
Si Si3 0.531181 0.055562 0.052452
Si Si4 0.434540 0.781420 0.018402
Si Si5 0.608445 0.322407 0.153753
Si Si6 0.226127 0.708256 0.645781
O O1 0.315254 0.128244 0.226761
O O2 0.350754 0.077728 0.486231
O O3 0.365844 0.176326 0.452365
O O4 0.181794 0.139583 0.524482
O O5 0.461194 0.096866 0.985711
O O6 0.450338 0.193716 0.029496
O O7 0.301756 0.154775 0.929834
O O8 0.500000 0.058351 0.250000
O O9 0.500000 0.000000 0.000000
O O10 0.424660 0.727153 0.936414
O O11 0.376242 0.776814 0.210359
O O12 0.500000 0.347253 0.250000
O O13 0.679163 0.300999 0.270475
O O14 0.250000 0.750000 0.500000
#
# Coordination Sequence:
#
# PCOD9256885 Si02
#       6
#     8   8   8   8   8   8
#     4   9  18  33  49  68  99 133 161 199 247 296
#     4  10  19  33  50  73 101 128 161 208 256 294
#     4   9  19  33  54  80 102 124 153 198 259 311
#     4  10  18  30  47  67  97 134 166 203 249 298
#     4  11  21  32  46  66  97 140 176 203 240 294
#     4  11  20  29  45  70  96 131 173 211 244 287
#
# _framework density 17.122976000000001
#
# number of rings (size 3 to 8) (size 9 to 14) (size 15 to 20)
#    0.000    2.000    0.000    8.000    0.000    4.000 
#    0.000    2.500    0.000    0.000    0.000   10.500 
#    0.000    0.000    0.000    0.000    0.000    0.000 
#
# Total GULP energy -133808.489743 kJ/mol
# GULP energy per Si atom -5575.353739 kJ/mol
# Density = 1.708400 g / cm^3
# Si number density = 17.122976 Si / 1000 Ang^3
#
#
#
# Elastic Constant Matrix: (Units=GPa)
#
#
# Indices 1 2 3 4 5 6 
#
# 1 87.7288 37.1039 31.8085 0.0000 -19.9139 0.0000
# 2 37.1039 83.2199 18.1117 0.0000 1.7000 0.0000
# 3 31.8085 18.1117 73.0610 0.0000 -4.1157 0.0000
# 4 0.0000 0.0000 0.0000 22.5147 0.0000 8.8411
# 5 -19.9139 1.7000 -4.1157 0.0000 26.4743 0.0000
# 6 0.0000 0.0000 0.0000 8.8411 0.0000 20.6000
#
#
#
# Elastic Compliance Matrix: (Units=1/GPa)
#
#
# Indices 1 2 3 4 5 6 
#
# 1 0.020392 -0.008083 -0.006034 0.000000 0.014920 0.000000
# 2 -0.008083 0.015952 -0.000843 0.000000 -0.007236 0.000000
# 3 -0.006034 -0.000843 0.016414 0.000000 -0.001933 0.000000
# 4 0.000000 0.000000 0.000000 0.053418 0.000000 -0.022926
# 5 0.014920 -0.007236 -0.001933 0.000000 0.049159 0.000000
# 6 0.000000 0.000000 0.000000 -0.022926 0.000000 0.058383
#
#
# Mechanical properties :
#
#
# Convention : Reuss Voigt Hill
#
# Bulk Modulus (GPa) = 43.78666 46.45087 45.11876
# Shear Modulus (GPa) = 19.90050 24.38353 22.14202
#
# Velocity S-wave (km/s) = 3.41282 3.77772 3.59990
# Velocity P-wave (km/s) = 6.41539 6.79815 6.60954
#
# Compressibility (1/GPa) = 0.02283801
#
# Stress axis : x y z
#
# Youngs Moduli (GPa) = 49.03906 62.68972 60.92322
#
# Poissons Ratio (x) = 0.50675 0.36759
# Poissons Ratio (y) = 0.39640 0.05134
# Poissons Ratio (z) = 0.29589 0.05283
#
# Static dielectric constant tensor:
#      x y z
#    x 1.612480 0.000000 -0.000460 
#    y 0.000000 1.582200 0.000000 
#    z -0.000460 0.000000 1.646500 
# 
# From -- ./inp_files/33038.got.cif
#   From: 2010.05.17/outbox.cif.g08.bks.cpg/sg15_17_cif.got.tgz:33038.got - 2010.06.03 18:47:42.
