data_PCOD9256636
_publ_section_title
;
Structure prediction by ZEFSAII (Michael W. Deem and Ramdas Pophale) SiO2 
 PCOD9256636
Probable space group: C 2/C
;
_chemical_formula_sum "Si O2"
_cell_formula_units_Z 64
_cell_length_a 22.132770
_cell_length_b 8.755676
_cell_length_c 22.249719
_cell_angle_alpha 90.000000
_cell_angle_beta 56.145893
_cell_angle_gamma 90.000000
_cell_volume 3580.700989
_symmetry_space_group_name_H-M "C 2/C"
_symmetry_group_IT_number 15
_symmetry_cell_setting 'monoclinic'
loop_
_space_group_symop_operation_xyz
x,y,z
-x,y,1/2-z
-x,-y,-z
x,-y,1/2+z
1/2+x,1/2+y,z
1/2-x,1/2+y,1/2-z
1/2-x,1/2-y,-z
1/2+x,1/2-y,1/2+z
loop_
_atom_site_type_symbol
_atom_site_label
_atom_site_fract_x
_atom_site_fract_y
_atom_site_fract_z
Si Si1 0.129532 0.503546 0.935835
Si Si2 0.484241 0.593136 0.947231
Si Si3 0.496850 0.049416 0.082845
Si Si4 0.950939 0.598742 0.720683
Si Si5 0.254376 0.838170 0.702324
Si Si6 0.599247 0.607196 0.325020
Si Si7 0.707730 0.001932 0.198472
Si Si8 0.838489 0.154641 0.073546
O O1 0.191646 0.388456 0.880558
O O2 0.166208 0.664080 0.931741
O O3 0.074095 0.521182 0.910027
O O4 0.070573 0.466753 0.019872
O O5 0.500584 0.774442 0.940182
O O6 0.536905 0.519890 0.868207
O O7 0.500000 0.500000 0.000000
O O8 0.396413 0.588012 0.993953
O O9 0.488564 0.027589 0.157738
O O10 0.936759 0.746774 0.686775
O O11 0.872010 0.533420 0.781190
O O12 0.000000 0.636750 0.750000
O O13 0.175035 0.920642 0.747191
O O14 0.238894 0.658726 0.706258
O O15 0.292141 0.884466 0.744318
O O16 0.628358 0.636584 0.376946
O O17 0.762292 0.069784 0.119232
#
# Coordination Sequence:
#
# PCOD9256636 Si02
#       8
#     8   8   8   8   8   8   8   8
#     4  10  18  30  51  80 114 129 165 230 286 322
#     4   9  19  30  52  83 112 139 165 224 294 329
#     4  10  20  32  51  81 110 141 182 217 271 336
#     4  11  22  38  54  73 112 157 191 215 249 331
#     4  10  18  28  48  77 107 133 165 231 284 320
#     4   9  18  32  49  77 107 141 182 219 273 323
#     4  10  20  31  51  79 107 138 182 219 282 327
#     4   9  17  31  50  80 111 129 164 232 284 326
#
# _framework density 17.873594000000001
#
# number of rings (size 3 to 8) (size 9 to 14) (size 15 to 20)
#    0.000    2.250    2.500    1.500    7.000    1.000 
#    0.000    0.625    0.000    9.750    0.000    0.000 
#    0.000    0.000    0.000    0.000    0.000    0.000 
#
# Total GULP energy -178135.304029 kJ/mol
# GULP energy per Si atom -5566.728251 kJ/mol
# Density = 1.783291 g / cm^3
# Si number density = 17.873594 Si / 1000 Ang^3
#
#
#
# Elastic Constant Matrix: (Units=GPa)
#
#
# Indices 1 2 3 4 5 6 
#
# 1 60.3676 18.6918 31.3771 0.0006 -13.6404 0.0016
# 2 18.6918 34.9330 26.6177 0.0013 -12.4056 0.0032
# 3 31.3771 26.6177 73.9740 0.0000 -30.2636 0.0001
# 4 0.0006 0.0013 0.0000 24.5272 -0.0002 -5.3978
# 5 -13.6404 -12.4056 -30.2636 -0.0002 22.0856 0.0001
# 6 0.0016 0.0032 0.0001 -5.3978 0.0001 10.4940
#
#
#
# Elastic Compliance Matrix: (Units=1/GPa)
#
#
# Indices 1 2 3 4 5 6 
#
# 1 0.022279 -0.006454 -0.006786 -0.000001 0.000837 -0.000002
# 2 -0.006454 0.041681 -0.009815 -0.000005 0.005977 -0.000014
# 3 -0.006786 -0.009815 0.036318 0.000002 0.040062 0.000005
# 4 -0.000001 -0.000005 0.000002 0.045976 0.000000 0.023649
# 5 0.000837 0.005977 0.040062 0.000000 0.104049 -0.000003
# 6 -0.000002 -0.000014 0.000005 0.023649 -0.000003 0.107457
#
#
# Mechanical properties :
#
#
# Convention : Reuss Voigt Hill
#
# Bulk Modulus (GPa) = 18.46058 35.84976 27.15517
# Shear Modulus (GPa) = 11.85046 17.59389 14.72218
#
# Velocity S-wave (km/s) = 2.57770 3.14084 2.87310
# Velocity P-wave (km/s) = 4.38295 5.76664 5.12173
#
# Compressibility (1/GPa) = 0.05416947
#
# Stress axis : x y z
#
# Youngs Moduli (GPa) = 44.88446 23.99191 27.53459
#
# Poissons Ratio (x) = 0.15483 0.18684
# Poissons Ratio (y) = 0.28966 0.27026
# Poissons Ratio (z) = 0.30457 0.23549
#
# Static dielectric constant tensor:
#      x y z
#    x 1.593440 0.000000 -0.041500 
#    y 0.000000 1.630910 0.000000 
#    z -0.041500 0.000000 1.666290 
# 
# From -- ./inp_files/279383.got.cif
#   From: 2010.05.17/outbox.cif.g08.bks.cpg/sg15_140_cif.got.tgz:279383.got - 2010.06.03 18:47:42.
