data_PCOD9256513
_publ_section_title
;
Structure prediction by ZEFSAII (Michael W. Deem and Ramdas Pophale) SiO2 
 PCOD9256513
Probable space group: C 2/C
;
_chemical_formula_sum "Si O2"
_cell_formula_units_Z 44
_cell_length_a 18.271579
_cell_length_b 10.386666
_cell_length_c 9.605530
_cell_angle_alpha 90.000000
_cell_angle_beta 89.604834
_cell_angle_gamma 90.000000
_cell_volume 1822.901699
_symmetry_space_group_name_H-M "C 2/C"
_symmetry_group_IT_number 15
_symmetry_cell_setting 'monoclinic'
loop_
_space_group_symop_operation_xyz
x,y,z
-x,y,1/2-z
-x,-y,-z
x,-y,1/2+z
1/2+x,1/2+y,z
1/2-x,1/2+y,1/2-z
1/2-x,1/2-y,-z
1/2+x,1/2-y,1/2+z
loop_
_atom_site_type_symbol
_atom_site_label
_atom_site_fract_x
_atom_site_fract_y
_atom_site_fract_z
Si Si1 0.214513 0.073717 0.391513
Si Si2 0.996258 0.655510 0.096638
Si Si3 0.422792 0.846719 0.325254
Si Si4 0.634795 0.435183 0.627404
Si Si5 0.000000 0.903518 0.250000
Si Si6 0.349966 0.141345 0.554313
O O1 0.202495 0.038243 0.231803
O O2 0.293886 0.062528 0.459874
O O3 0.188125 0.221306 0.411725
O O4 0.158653 0.987148 0.479283
O O5 0.000000 0.590136 0.250000
O O6 0.970672 0.800764 0.135773
O O7 0.945852 0.596613 0.975600
O O8 0.077496 0.671708 0.035520
O O9 0.500000 0.810865 0.250000
O O10 0.382050 0.714972 0.364098
O O11 0.375151 0.912694 0.204439
O O12 0.563817 0.510840 0.684572
#
# Coordination Sequence:
#
# PCOD9256513 Si02
#       6
#     8   8   8   8   4   8
#     4  10  20  32  47  69 102 141 165 193 242 299
#     4   9  17  29  47  75  97 122 163 204 247 281
#     4   9  17  28  48  74  99 131 163 196 246 292
#     4  11  19  29  48  73 105 134 160 195 245 299
#     4  10  18  26  48  76 108 120 156 208 238 294
#     4   9  18  33  47  68 103 135 167 198 238 300
#
# _framework density 24.137340999999999
#
# number of rings (size 3 to 8) (size 9 to 14) (size 15 to 20)
#    0.545    1.818    2.727    1.091    0.000    1.455 
#    0.000    1.818    0.000    7.636    0.000   16.545 
#    0.000    0.000    0.000    0.000    0.000    0.000 
#
# Total GULP energy -122973.627224 kJ/mol
# GULP energy per Si atom -5589.710328 kJ/mol
# Density = 2.408240 g / cm^3
# Si number density = 24.137341 Si / 1000 Ang^3
#
#
#
# Elastic Constant Matrix: (Units=GPa)
#
#
# Indices 1 2 3 4 5 6 
#
# 1 90.6029 3.4493 34.8261 0.0000 31.8414 0.0000
# 2 3.4493 45.0155 5.7088 0.0000 9.9564 0.0000
# 3 34.8261 5.7088 155.2749 0.0000 39.1084 0.0000
# 4 0.0000 0.0000 0.0000 15.2451 0.0000 10.3952
# 5 31.8414 9.9564 39.1084 0.0000 41.9529 0.0000
# 6 0.0000 0.0000 0.0000 10.3952 0.0000 27.2746
#
#
#
# Elastic Compliance Matrix: (Units=1/GPa)
#
#
# Indices 1 2 3 4 5 6 
#
# 1 0.015187 0.001411 -0.000615 0.000000 -0.011288 0.000000
# 2 0.001411 0.023636 0.000650 0.000000 -0.007286 0.000000
# 3 -0.000615 0.000650 0.008462 0.000000 -0.007576 0.000000
# 4 0.000000 0.000000 0.000000 0.088628 0.000000 -0.033779
# 5 -0.011288 -0.007286 -0.007576 0.000000 0.041195 0.000000
# 6 0.000000 0.000000 0.000000 -0.033779 0.000000 0.049538
#
#
# Mechanical properties :
#
#
# Convention : Reuss Voigt Hill
#
# Bulk Modulus (GPa) = 19.92989 42.09573 31.01281
# Shear Modulus (GPa) = 20.79173 33.35512 27.07343
#
# Velocity S-wave (km/s) = 2.93813 3.72141 3.35272
# Velocity P-wave (km/s) = 4.44803 5.99526 5.27864
#
# Compressibility (1/GPa) = 0.05017590
#
# Stress axis : x y z
#
# Youngs Moduli (GPa) = 65.84596 42.30922 118.17009
#
# Poissons Ratio (x) = -0.05970 0.07268
# Poissons Ratio (y) = -0.09291 -0.07676
# Poissons Ratio (z) = 0.04050 -0.02748
#
# Static dielectric constant tensor:
#      x y z
#    x 1.921510 0.000000 0.065990 
#    y 0.000000 1.907520 0.000000 
#    z 0.065990 0.000000 1.935530 
# 
# From -- ./inp_files/47068.got.cif
#   From: 2010.05.17/outbox.cif.g08.bks.cpg/sg15_24_cif.got.tgz:47068.got - 2010.06.03 18:47:42.
