data_PCOD9256846
_publ_section_title
;
Structure prediction by ZEFSAII (Michael W. Deem and Ramdas Pophale) SiO2 
 PCOD9256846
Probable space group: C 2/C
;
_chemical_formula_sum "Si O2"
_cell_formula_units_Z 52
_cell_length_a 11.848770
_cell_length_b 8.529877
_cell_length_c 18.130945
_cell_angle_alpha 90.000000
_cell_angle_beta 93.570977
_cell_angle_gamma 90.000000
_cell_volume 1828.910426
_symmetry_space_group_name_H-M "C 2/C"
_symmetry_group_IT_number 15
_symmetry_cell_setting 'monoclinic'
loop_
_space_group_symop_operation_xyz
x,y,z
-x,y,1/2-z
-x,-y,-z
x,-y,1/2+z
1/2+x,1/2+y,z
1/2-x,1/2+y,1/2-z
1/2-x,1/2-y,-z
1/2+x,1/2-y,1/2+z
loop_
_atom_site_type_symbol
_atom_site_label
_atom_site_fract_x
_atom_site_fract_y
_atom_site_fract_z
Si Si1 0.378336 0.532991 0.381155
Si Si2 0.250000 0.750000 0.500000
Si Si3 0.958104 0.263366 0.970630
Si Si4 0.782616 0.510926 0.388519
Si Si5 0.994978 0.312621 0.356504
Si Si6 0.577733 0.135632 0.346011
Si Si7 0.323197 0.747735 0.787936
O O1 0.306786 0.645015 0.432013
O O2 0.439931 0.408581 0.437770
O O3 0.462817 0.636983 0.334326
O O4 0.310852 0.422187 0.322071
O O5 0.278714 0.601845 0.558314
O O6 0.970552 0.282434 0.057325
O O7 0.851897 0.369447 0.944316
O O8 0.070802 0.338767 0.935401
O O9 0.876693 0.406715 0.351174
O O10 0.737873 0.631760 0.325020
O O11 0.074761 0.449672 0.329113
O O12 0.665386 0.227387 0.298524
O O13 0.452772 0.203385 0.318865
#
# Coordination Sequence:
#
# PCOD9256846 Si02
#       7
#     8   4   8   8   8   8   8
#     4   9  18  28  44  66  95 120 151 191 225 271
#     4  10  18  30  42  64  90 122 160 196 232 250
#     4   9  16  27  45  72  96 118 146 181 228 280
#     4   8  16  27  43  64  89 118 151 188 223 267
#     4   9  15  27  46  72  94 116 146 181 223 276
#     4   8  14  26  43  63  96 122 138 178 230 279
#     4   8  15  28  41  64  93 122 147 177 232 279
#
# _framework density 28.432229
#
# number of rings (size 3 to 8) (size 9 to 14) (size 15 to 20)
#    0.000    4.000    0.000    2.308    0.000    2.462 
#    0.000   18.462    0.000    0.000    0.000   25.846 
#    0.000    0.000    0.000    0.000    0.000    0.000 
#
# Total GULP energy -144831.217687 kJ/mol
# GULP energy per Si atom -5570.431449 kJ/mol
# Density = 2.836752 g / cm^3
# Si number density = 28.432229 Si / 1000 Ang^3
#
#
#
# Elastic Constant Matrix: (Units=GPa)
#
#
# Indices 1 2 3 4 5 6 
#
# 1 86.3836 41.1572 13.0344 0.0000 -10.3754 0.0000
# 2 41.1572 200.0845 54.1110 0.0000 -3.6106 0.0000
# 3 13.0344 54.1110 182.0180 0.0000 3.2132 0.0000
# 4 0.0000 0.0000 0.0000 1092.6316 0.0000 -843.4335
# 5 -10.3754 -3.6106 3.2132 0.0000 13.9733 0.0000
# 6 0.0000 0.0000 0.0000 -843.4335 0.0000 704.0750
#
#
#
# Elastic Compliance Matrix: (Units=1/GPa)
#
#
# Indices 1 2 3 4 5 6 
#
# 1 0.014063 -0.002605 -0.000407 0.000000 0.009863 0.000000
# 2 -0.002605 0.005962 -0.001585 0.000000 -0.000029 0.000000
# 3 -0.000407 -0.001585 0.006031 0.000000 -0.002099 0.000000
# 4 0.000000 0.000000 0.000000 0.012157 0.000000 0.014563
# 5 0.009863 -0.000029 -0.002099 0.000000 0.079363 0.000000
# 6 0.000000 0.000000 0.000000 0.014563 0.000000 0.018866
#
#
# Mechanical properties :
#
#
# Convention : Reuss Voigt Hill
#
# Bulk Modulus (GPa) = 59.30244 76.12127 67.71185
# Shear Modulus (GPa) = 33.05608 386.14822 209.60215
#
# Velocity S-wave (km/s) = 3.41343 11.66655 8.59534
# Velocity P-wave (km/s) = 6.03640 14.43291 11.06225
#
# Compressibility (1/GPa) = 0.01686271
#
# Stress axis : x y z
#
# Youngs Moduli (GPa) = 71.10706 167.73142 165.79798
#
# Poissons Ratio (x) = 0.43691 0.06745
# Poissons Ratio (y) = 0.18522 0.26285
# Poissons Ratio (z) = 0.02893 0.26591
#
# Static dielectric constant tensor:
#      x y z
#    x 2.506310 0.000000 0.147540 
#    y 0.000000 2.169010 0.000000 
#    z 0.147540 0.000000 2.392130 
# 
# From -- ./inp_files/254582.got.cif
#   From: 2010.05.17/outbox.cif.g08.bks.cpg/sg15_128_cif.got.tgz:254582.got - 2010.06.03 18:47:42.
