data_PCOD9256177
_publ_section_title
;
Structure prediction by ZEFSAII (Michael W. Deem and Ramdas Pophale) SiO2 
 PCOD9256177
Probable space group: C 2/C
;
_chemical_formula_sum "Si O2"
_cell_formula_units_Z 44
_cell_length_a 16.128567
_cell_length_b 11.910622
_cell_length_c 12.864835
_cell_angle_alpha 90.000000
_cell_angle_beta 142.478742
_cell_angle_gamma 90.000000
_cell_volume 1505.190556
_symmetry_space_group_name_H-M "C 2/C"
_symmetry_group_IT_number 15
_symmetry_cell_setting 'monoclinic'
loop_
_space_group_symop_operation_xyz
x,y,z
-x,y,1/2-z
-x,-y,-z
x,-y,1/2+z
1/2+x,1/2+y,z
1/2-x,1/2+y,1/2-z
1/2-x,1/2-y,-z
1/2+x,1/2-y,1/2+z
loop_
_atom_site_type_symbol
_atom_site_label
_atom_site_fract_x
_atom_site_fract_y
_atom_site_fract_z
Si Si1 0.195631 0.631443 0.851193
Si Si2 0.000000 0.633332 0.250000
Si Si3 0.192335 0.473612 0.566479
Si Si4 0.773977 0.625706 0.178358
Si Si5 0.479395 0.436541 0.353689
Si Si6 0.021107 0.807097 0.894617
O O1 0.215677 0.501324 0.852043
O O2 0.792580 0.619725 0.511440
O O3 0.067531 0.696241 0.676672
O O4 0.321514 0.692722 0.924766
O O5 0.878302 0.688930 0.201182
O O6 0.070497 0.551794 0.405316
O O7 0.179355 0.402850 0.658516
O O8 0.315071 0.565270 0.702554
O O9 0.608532 0.645776 0.011551
O O10 0.500000 0.439813 0.250000
O O11 0.490784 0.567045 0.405049
O O12 0.000000 0.818274 0.750000
#
# Coordination Sequence:
#
# PCOD9256177 Si02
#       6
#     8   4   8   8   8   8
#     4  10  21  32  52  80 110 140 168 213 267 320
#     4  10  20  32  46  68 104 136 172 208 260 312
#     4  11  20  34  51  73 109 146 180 213 259 322
#     4  10  21  34  51  73 107 148 180 215 256 319
#     4  10  17  35  52  73 104 145 177 218 258 310
#     4  10  18  30  49  74 106 144 162 205 273 317
#
# _framework density 29.23218
#
# number of rings (size 3 to 8) (size 9 to 14) (size 15 to 20)
#    0.000    1.818    7.273    1.636    5.091    0.000 
#    0.000    0.000    0.000    0.000    0.000    0.000 
#    0.000   53.818    0.000    0.000    0.000    0.000 
#
# Total GULP energy -122594.806560 kJ/mol
# GULP energy per Si atom -5572.491207 kJ/mol
# Density = 2.916565 g / cm^3
# Si number density = 29.232180 Si / 1000 Ang^3
#
#
#
# Elastic Constant Matrix: (Units=GPa)
#
#
# Indices 1 2 3 4 5 6 
#
# 1 109.1317 -14.3247 56.6518 0.0000 -12.9681 0.0000
# 2 -14.3247 57.1760 5.2273 0.0000 -9.0177 0.0000
# 3 56.6518 5.2273 165.9413 0.0000 36.4747 0.0000
# 4 0.0000 0.0000 0.0000 41.1063 0.0000 -4.8325
# 5 -12.9681 -9.0177 36.4747 0.0000 60.9321 0.0000
# 6 0.0000 0.0000 0.0000 -4.8325 0.0000 2.6236
#
#
#
# Elastic Compliance Matrix: (Units=1/GPa)
#
#
# Indices 1 2 3 4 5 6 
#
# 1 0.014373 0.005480 -0.006829 0.000000 0.007958 0.000000
# 2 0.005480 0.020252 -0.003943 0.000000 0.006524 0.000000
# 3 -0.006829 -0.003943 0.010282 0.000000 -0.008192 0.000000
# 4 0.000000 0.000000 0.000000 0.031051 0.000000 0.057193
# 5 0.007958 0.006524 -0.008192 0.000000 0.023975 0.000000
# 6 0.000000 0.000000 0.000000 0.057193 0.000000 0.486497
#
#
# Mechanical properties :
#
#
# Convention : Reuss Voigt Hill
#
# Bulk Modulus (GPa) = 29.13305 47.48421 38.30863
# Shear Modulus (GPa) = 8.21753 39.91205 24.06479
#
# Velocity S-wave (km/s) = 1.67846 3.69907 2.87231
# Velocity P-wave (km/s) = 3.70729 5.87565 4.91260
#
# Compressibility (1/GPa) = 0.03432527
#
# Stress axis : x y z
#
# Youngs Moduli (GPa) = 69.57422 49.37706 97.25355
#
# Poissons Ratio (x) = -0.27061 0.66412
# Poissons Ratio (y) = -0.38130 0.38347
# Poissons Ratio (z) = 0.47511 0.19469
#
# Static dielectric constant tensor:
#      x y z
#    x 2.558350 0.000000 -0.055750 
#    y 0.000000 2.331180 0.000000 
#    z -0.055750 0.000000 2.473020 
# 
# From -- ./inp_files/49374.got.cif
#   From: 2010.05.17/outbox.cif.g08.bks.cpg/sg15_25_cif.got.tgz:49374.got - 2010.06.03 18:47:42.
