data_PCOD9256162
_publ_section_title
;
Structure prediction by ZEFSAII (Michael W. Deem and Ramdas Pophale) SiO2 
 PCOD9256162
Probable space group: C 2/C
;
_chemical_formula_sum "Si O2"
_cell_formula_units_Z 64
_cell_length_a 17.116924
_cell_length_b 11.726206
_cell_length_c 20.107534
_cell_angle_alpha 90.000000
_cell_angle_beta 127.197610
_cell_angle_gamma 90.000000
_cell_volume 3214.829141
_symmetry_space_group_name_H-M "C 2/C"
_symmetry_group_IT_number 15
_symmetry_cell_setting 'monoclinic'
loop_
_space_group_symop_operation_xyz
x,y,z
-x,y,1/2-z
-x,-y,-z
x,-y,1/2+z
1/2+x,1/2+y,z
1/2-x,1/2+y,1/2-z
1/2-x,1/2-y,-z
1/2+x,1/2-y,1/2+z
loop_
_atom_site_type_symbol
_atom_site_label
_atom_site_fract_x
_atom_site_fract_y
_atom_site_fract_z
Si Si1 0.563794 0.551841 0.473109
Si Si2 0.219460 0.888473 0.599002
Si Si3 0.055201 0.385570 0.162359
Si Si4 0.924275 0.570072 0.165668
Si Si5 0.942997 0.298143 0.978956
Si Si6 0.144850 0.336371 0.011139
Si Si7 0.884023 0.872609 0.807979
Si Si8 0.701114 0.021286 0.148790
O O1 0.500000 0.500000 0.500000
O O2 0.655761 0.469503 0.517970
O O3 0.593329 0.677832 0.512264
O O4 0.488973 0.566705 0.373724
O O5 0.326130 0.944459 0.658195
O O6 0.220148 0.765386 0.564318
O O7 0.169689 0.872416 0.646419
O O8 0.091723 0.258211 0.199935
O O9 0.148823 0.453567 0.182051
O O10 0.989475 0.460775 0.177725
O O11 0.982098 0.369388 0.061868
O O12 0.000000 0.641654 0.250000
O O13 0.884067 0.624545 0.077057
O O14 0.862040 0.365217 0.896663
O O15 0.042022 0.286969 0.987250
O O16 0.183598 0.441603 0.075529
O O17 0.810887 0.940648 0.722578
#
# Coordination Sequence:
#
# PCOD9256162 Si02
#       8
#     8   8   8   8   8   8   8   8
#     4   9  18  37  58  88 124 155 200 261 314 357
#     4  11  22  41  61  93 127 168 204 264 324 382
#     4  10  19  40  58  86 131 163 203 264 322 378
#     4  12  25  39  62  92 128 165 212 257 320 387
#     4  10  17  34  66  87 115 163 210 255 313 375
#     4  11  20  41  61  87 127 168 201 259 318 384
#     4  10  21  36  63  98 121 157 221 272 308 372
#     4  11  19  34  66  93 118 162 219 259 318 375
#
# _framework density 19.907745999999999
#
# number of rings (size 3 to 8) (size 9 to 14) (size 15 to 20)
#    0.000    1.500    7.500    1.875    0.000    3.000 
#    2.250    2.500    5.500    0.000    0.000    0.000 
#    0.000    0.000    0.000    0.000    0.000    0.000 
#
# Total GULP energy -178367.864982 kJ/mol
# GULP energy per Si atom -5573.995781 kJ/mol
# Density = 1.986244 g / cm^3
# Si number density = 19.907746 Si / 1000 Ang^3
#
#
#
# Elastic Constant Matrix: (Units=GPa)
#
#
# Indices 1 2 3 4 5 6 
#
# 1 51.1178 21.2102 20.2712 0.0000 7.5809 0.0000
# 2 21.2102 79.9378 44.7337 0.0000 18.7212 0.0000
# 3 20.2712 44.7337 103.0392 0.0000 13.0182 0.0000
# 4 0.0000 0.0000 0.0000 6.3912 0.0000 8.7397
# 5 7.5809 18.7212 13.0182 0.0000 38.5655 0.0000
# 6 0.0000 0.0000 0.0000 8.7397 0.0000 8.4204
#
#
#
# Elastic Compliance Matrix: (Units=1/GPa)
#
#
# Indices 1 2 3 4 5 6 
#
# 1 0.022510 -0.004282 -0.002374 0.000000 -0.001545 0.000000
# 2 -0.004282 0.018707 -0.006516 0.000000 -0.006040 0.000000
# 3 -0.002374 -0.006516 0.013101 0.000000 -0.000793 0.000000
# 4 0.000000 0.000000 0.000000 -0.373142 0.000000 0.387294
# 5 -0.001545 -0.006040 -0.000793 0.000000 0.029433 0.000000
# 6 0.000000 0.000000 0.000000 0.387294 0.000000 -0.283223
#
#
# Mechanical properties :
#
#
# Convention : Reuss Voigt Hill
#
# Bulk Modulus (GPa) = 35.74850 45.16944 40.45897
# Shear Modulus (GPa) = -9.31195 20.53406 5.61106
#
# Velocity S-wave (km/s) = -2.16511 3.21512 1.68067
# Velocity P-wave (km/s) = 3.42721 6.04329 4.91259
#
# Compressibility (1/GPa) = 0.02797320
#
# Stress axis : x y z
#
# Youngs Moduli (GPa) = 44.42452 53.45654 76.32954
#
# Poissons Ratio (x) = 0.22892 0.18122
# Poissons Ratio (y) = 0.19024 0.49735
# Poissons Ratio (z) = 0.10547 0.34832
#
# Static dielectric constant tensor:
#      x y z
#    x 1.753210 0.000000 -0.021760 
#    y 0.000000 1.756870 0.000000 
#    z -0.021760 0.000000 1.724400 
# 
# From -- ./inp_files/248648.got.cif
#   From: 2010.05.17/outbox.cif.g08.bks.cpg/sg15_125_cif.got.tgz:248648.got - 2010.06.03 18:47:42.
