data_PCOD9256336
_publ_section_title
;
Structure prediction by ZEFSAII (Michael W. Deem and Ramdas Pophale) SiO2 
 PCOD9256336
Probable space group: C 2/C
;
_chemical_formula_sum "Si O2"
_cell_formula_units_Z 48
_cell_length_a 14.226258
_cell_length_b 24.661250
_cell_length_c 8.799777
_cell_angle_alpha 90.000000
_cell_angle_beta 138.880443
_cell_angle_gamma 90.000000
_cell_volume 2030.302039
_symmetry_space_group_name_H-M "C 2/C"
_symmetry_group_IT_number 15
_symmetry_cell_setting 'monoclinic'
loop_
_space_group_symop_operation_xyz
x,y,z
-x,y,1/2-z
-x,-y,-z
x,-y,1/2+z
1/2+x,1/2+y,z
1/2-x,1/2+y,1/2-z
1/2-x,1/2-y,-z
1/2+x,1/2-y,1/2+z
loop_
_atom_site_type_symbol
_atom_site_label
_atom_site_fract_x
_atom_site_fract_y
_atom_site_fract_z
Si Si1 0.103340 0.320612 0.036292
Si Si2 0.212719 0.963945 0.769938
Si Si3 0.357854 0.238335 0.355357
Si Si4 0.000000 0.500000 0.500000
Si Si5 0.000000 0.582984 0.250000
Si Si6 0.500000 0.681219 0.250000
Si Si7 0.204055 0.356314 0.482431
Si Si8 0.500000 0.478855 0.250000
O O1 0.225333 0.276616 0.157014
O O2 0.109371 0.341838 0.220683
O O3 0.947866 0.292497 0.838016
O O4 0.116647 0.374949 0.956757
O O5 0.309641 0.914426 0.955450
O O6 0.104855 0.948985 0.499661
O O7 0.334014 0.006750 0.867425
O O8 0.108838 0.986599 0.776161
O O9 0.468518 0.278900 0.572204
O O10 0.308742 0.193067 0.415950
O O11 0.943458 0.546327 0.316137
O O12 0.636126 0.645227 0.386310
#
# Coordination Sequence:
#
# PCOD9256336 Si02
#       8
#     8   8   8   4   4   4   8   4
#     4  11  24  42  70 105 148 192 249 297 377 458
#     4  11  25  48  75 108 142 201 250 323 385 454
#     4  11  19  41  68 103 147 187 233 305 359 450
#     4  12  28  52  76 106 154 194 256 328 386 448
#     4  12  30  48  72 110 143 203 250 320 386 448
#     4  10  17  36  61 104 134 191 230 287 358 434
#     4  11  21  38  72 104 143 195 248 297 369 463
#     4  10  25  50  73 102 153 186 260 325 388 444
#
# _framework density 23.641802999999999
#
# number of rings (size 3 to 8) (size 9 to 14) (size 15 to 20)
#    0.000    1.000    3.333    3.500    4.667    0.667 
#    9.000    0.833    0.000    0.000    0.000    0.000 
#    0.000    0.000    0.000    0.000    0.000    0.000 
#
# Total GULP energy -133675.435063 kJ/mol
# GULP energy per Si atom -5569.809794 kJ/mol
# Density = 2.358799 g / cm^3
# Si number density = 23.641803 Si / 1000 Ang^3
#
#
#
# Elastic Constant Matrix: (Units=GPa)
#
#
# Indices 1 2 3 4 5 6 
#
# 1 114.8240 34.0875 42.4309 0.0000 5.3780 0.0000
# 2 34.0875 98.9108 47.4294 0.0000 -13.3494 0.0000
# 3 42.4309 47.4294 107.5728 0.0000 2.6633 0.0000
# 4 0.0000 0.0000 0.0000 31.2156 0.0000 -18.1901
# 5 5.3780 -13.3494 2.6633 0.0000 34.1371 0.0000
# 6 0.0000 0.0000 0.0000 -18.1901 0.0000 26.6578
#
#
#
# Elastic Compliance Matrix: (Units=1/GPa)
#
#
# Indices 1 2 3 4 5 6 
#
# 1 0.010706 -0.002568 -0.003030 0.000000 -0.002454 0.000000
# 2 -0.002568 0.014542 -0.005560 0.000000 0.006525 0.000000
# 3 -0.003030 -0.005560 0.013010 0.000000 -0.002712 0.000000
# 4 0.000000 0.000000 0.000000 0.053182 0.000000 0.036289
# 5 -0.002454 0.006525 -0.002712 0.000000 0.032444 0.000000
# 6 0.000000 0.000000 0.000000 0.036289 0.000000 0.062274
#
#
# Mechanical properties :
#
#
# Convention : Reuss Voigt Hill
#
# Bulk Modulus (GPa) = 62.72912 63.24481 62.98696
# Shear Modulus (GPa) = 23.38773 31.55942 27.47358
#
# Velocity S-wave (km/s) = 3.14865 3.65759 3.41262
# Velocity P-wave (km/s) = 6.30947 6.68181 6.49831
#
# Compressibility (1/GPa) = 0.01594156
#
# Stress axis : x y z
#
# Youngs Moduli (GPa) = 93.40648 68.76620 76.86503
#
# Poissons Ratio (x) = 0.17659 0.23289
# Poissons Ratio (y) = 0.23987 0.42739
# Poissons Ratio (z) = 0.28300 0.38236
#
# Static dielectric constant tensor:
#      x y z
#    x 1.929690 0.000000 -0.062960 
#    y 0.000000 1.922590 0.000000 
#    z -0.062960 0.000000 1.971450 
# 
# From -- ./inp_files/44007.got.cif
#   From: 2010.05.17/outbox.cif.g08.bks.cpg/sg15_23_cif.got.tgz:44007.got - 2010.06.03 18:47:42.
