data_PCOD9256677
_publ_section_title
;
Structure prediction by ZEFSAII (Michael W. Deem and Ramdas Pophale) SiO2 
 PCOD9256677
Probable space group: C 2/C
;
_chemical_formula_sum "Si O2"
_cell_formula_units_Z 44
_cell_length_a 12.637600
_cell_length_b 11.691218
_cell_length_c 11.736054
_cell_angle_alpha 90.000000
_cell_angle_beta 79.675380
_cell_angle_gamma 90.000000
_cell_volume 1705.912941
_symmetry_space_group_name_H-M "C 2/C"
_symmetry_group_IT_number 15
_symmetry_cell_setting 'monoclinic'
loop_
_space_group_symop_operation_xyz
x,y,z
-x,y,1/2-z
-x,-y,-z
x,-y,1/2+z
1/2+x,1/2+y,z
1/2-x,1/2+y,1/2-z
1/2-x,1/2-y,-z
1/2+x,1/2-y,1/2+z
loop_
_atom_site_type_symbol
_atom_site_label
_atom_site_fract_x
_atom_site_fract_y
_atom_site_fract_z
Si Si1 0.870015 0.771175 0.803961
Si Si2 0.991994 0.316238 0.946143
Si Si3 0.191968 0.172086 0.420160
Si Si4 0.000000 0.851159 0.250000
Si Si5 0.106190 0.983032 0.556444
Si Si6 0.409247 0.960130 0.368385
O O1 0.796977 0.819303 0.715863
O O2 0.835627 0.640273 0.829615
O O3 0.000000 0.777418 0.750000
O O4 0.861244 0.858214 0.910496
O O5 0.926396 0.228654 0.037450
O O6 0.043020 0.234732 0.839743
O O7 0.910851 0.405483 0.899260
O O8 0.059997 0.395382 0.018146
O O9 0.250000 0.250000 0.500000
O O10 0.195912 0.043135 0.463185
O O11 0.084002 0.936440 0.171816
O O12 0.000000 0.000000 0.500000
O O13 0.500000 0.962591 0.250000
#
# Coordination Sequence:
#
# PCOD9256677 Si02
#       6
#     8   8   8   4   8   8
#     4  11  18  36  59  83 110 149 200 244 292 349
#     4  10  19  33  54  83 112 146 182 240 287 348
#     4  11  23  38  55  84 123 153 188 243 314 358
#     4  10  18  28  52  88 110 134 194 240 284 330
#     4  11  19  35  62  88 111 150 204 256 286 352
#     4  10  18  32  57  83 107 140 194 241 281 338
#
# _framework density 25.792641
#
# number of rings (size 3 to 8) (size 9 to 14) (size 15 to 20)
#    0.000    1.455    7.273    1.091    0.000    0.000 
#    3.273    0.000    0.000    1.091    0.000    0.000 
#    0.000    0.000    0.000    0.000    0.000    0.000 
#
# Total GULP energy -122619.526643 kJ/mol
# GULP energy per Si atom -5573.614847 kJ/mol
# Density = 2.573394 g / cm^3
# Si number density = 25.792641 Si / 1000 Ang^3
#
#
#
# Elastic Constant Matrix: (Units=GPa)
#
#
# Indices 1 2 3 4 5 6 
#
# 1 20.3564 -2.8535 11.7954 0.0000 7.7286 0.0000
# 2 -2.8535 172.7170 20.1536 0.0000 -14.1855 0.0000
# 3 11.7954 20.1536 124.9229 0.0000 11.4684 0.0000
# 4 0.0000 0.0000 0.0000 67.3474 0.0000 -16.7118
# 5 7.7286 -14.1855 11.4684 0.0000 22.9837 0.0000
# 6 0.0000 0.0000 0.0000 -16.7118 0.0000 20.8453
#
#
#
# Elastic Compliance Matrix: (Units=1/GPa)
#
#
# Indices 1 2 3 4 5 6 
#
# 1 0.058043 -0.000038 -0.003857 0.000000 -0.017616 0.000000
# 2 -0.000038 0.006340 -0.001446 0.000000 0.004647 0.000000
# 3 -0.003857 -0.001446 0.008976 0.000000 -0.004074 0.000000
# 4 0.000000 0.000000 0.000000 0.018536 0.000000 0.014860
# 5 -0.017616 0.004647 -0.004074 0.000000 0.054334 0.000000
# 6 0.000000 0.000000 0.000000 0.014860 0.000000 0.059886
#
#
# Mechanical properties :
#
#
# Convention : Reuss Voigt Hill
#
# Bulk Modulus (GPa) = 15.95477 41.79859 28.87668
# Shear Modulus (GPa) = 21.03593 41.49533 31.26563
#
# Velocity S-wave (km/s) = 2.85893 4.01534 3.48543
# Velocity P-wave (km/s) = 4.13488 6.14313 5.23619
#
# Compressibility (1/GPa) = 0.06267719
#
# Stress axis : x y z
#
# Youngs Moduli (GPa) = 17.22869 157.73999 111.40307
#
# Poissons Ratio (x) = 0.00597 0.42969
# Poissons Ratio (y) = 0.00065 0.16106
# Poissons Ratio (z) = 0.06645 0.22806
#
# Static dielectric constant tensor:
#      x y z
#    x 2.423210 0.000000 0.112370 
#    y 0.000000 2.041990 0.000000 
#    z 0.112370 0.000000 2.130920 
# 
# From -- ./inp_files/103901.got.cif
#   From: 2010.05.17/outbox.cif.g08.bks.cpg/sg15_52_cif.got.tgz:103901.got - 2010.06.03 18:47:42.
