data_PCOD9256537
_publ_section_title
;
Structure prediction by ZEFSAII (Michael W. Deem and Ramdas Pophale) SiO2 
 PCOD9256537
Probable space group: C 2/C
;
_chemical_formula_sum "Si O2"
_cell_formula_units_Z 48
_cell_length_a 14.147598
_cell_length_b 26.767936
_cell_length_c 14.735252
_cell_angle_alpha 90.000000
_cell_angle_beta 29.439905
_cell_angle_gamma 90.000000
_cell_volume 2742.760497
_symmetry_space_group_name_H-M "C 2/C"
_symmetry_group_IT_number 15
_symmetry_cell_setting 'monoclinic'
loop_
_space_group_symop_operation_xyz
x,y,z
-x,y,1/2-z
-x,-y,-z
x,-y,1/2+z
1/2+x,1/2+y,z
1/2-x,1/2+y,1/2-z
1/2-x,1/2-y,-z
1/2+x,1/2-y,1/2+z
loop_
_atom_site_type_symbol
_atom_site_label
_atom_site_fract_x
_atom_site_fract_y
_atom_site_fract_z
Si Si1 0.843188 0.274790 0.513940
Si Si2 0.256614 0.326146 0.144767
Si Si3 0.396614 0.431348 0.081563
Si Si4 0.978305 0.464670 0.374695
Si Si5 0.288095 0.629662 0.418290
Si Si6 0.901236 0.001331 0.233753
O O1 0.750000 0.250000 0.500000
O O2 0.869742 0.226333 0.553177
O O3 0.701807 0.321148 0.653790
O O4 0.041998 0.304892 0.341569
O O5 0.350977 0.372249 0.119640
O O6 0.242147 0.349793 0.056517
O O7 0.462632 0.453625 0.122344
O O8 0.191646 0.458074 0.233135
O O9 0.536066 0.452151 0.884755
O O10 0.868782 0.411276 0.473332
O O11 0.827259 0.499199 0.553802
O O12 0.000000 0.477440 0.250000
O O13 0.500000 0.608035 0.250000
O O14 0.000000 0.001974 0.250000
#
# Coordination Sequence:
#
# PCOD9256537 Si02
#       6
#     8   8   8   8   8   8
#     4  10  18  27  44  66 102 141 174 204 259 321
#     4  11  19  32  43  73 105 143 176 214 263 328
#     4  11  23  38  57  80 112 145 186 227 275 327
#     4  12  19  34  56  79 112 147 177 224 273 324
#     4  11  18  28  47  71 107 149 180 207 260 326
#     4  11  23  39  58  81 105 145 190 234 275 322
#
# _framework density 17.500616000000001
#
# number of rings (size 3 to 8) (size 9 to 14) (size 15 to 20)
#    0.000    1.000    5.000    6.000    0.000    0.000 
#    0.000    0.000    0.000    0.000    0.000    1.167 
#    0.000    0.000    0.000    0.000    0.000    0.000 
#
# Total GULP energy -133632.678119 kJ/mol
# GULP energy per Si atom -5568.028255 kJ/mol
# Density = 1.746078 g / cm^3
# Si number density = 17.500616 Si / 1000 Ang^3
#
#
#
# Elastic Constant Matrix: (Units=GPa)
#
#
# Indices 1 2 3 4 5 6 
#
# 1 44.1839 25.8477 19.4312 0.0092 13.3729 -0.0096
# 2 25.8477 107.2696 14.3697 0.0007 16.5534 0.0010
# 3 19.4312 14.3697 91.5123 0.0061 -1.0699 -0.0038
# 4 0.0092 0.0007 0.0061 26.8010 -0.0079 -1.9282
# 5 13.3729 16.5534 -1.0699 -0.0079 23.3120 0.0084
# 6 -0.0096 0.0010 -0.0038 -1.9282 0.0084 26.0351
#
#
#
# Elastic Compliance Matrix: (Units=1/GPa)
#
#
# Indices 1 2 3 4 5 6 
#
# 1 0.033012 -0.004627 -0.006469 -0.000013 -0.015949 0.000016
# 2 -0.004627 0.011400 -0.000872 0.000000 -0.005481 -0.000001
# 3 -0.006469 -0.000872 0.012495 0.000001 0.004904 -0.000002
# 4 -0.000013 0.000000 0.000001 0.037512 0.000020 0.002778
# 5 -0.015949 -0.005481 0.004904 0.000020 0.056162 -0.000022
# 6 0.000016 -0.000001 -0.000002 0.002778 -0.000022 0.038615
#
#
# Mechanical properties :
#
#
# Convention : Reuss Voigt Hill
#
# Bulk Modulus (GPa) = 30.32976 40.25145 35.29061
# Shear Modulus (GPa) = 22.30928 27.45077 24.88003
#
# Velocity S-wave (km/s) = 3.57427 3.96480 3.77459
# Velocity P-wave (km/s) = 5.86534 6.63397 6.26146
#
# Compressibility (1/GPa) = 0.03297091
#
# Stress axis : x y z
#
# Youngs Moduli (GPa) = 30.29242 87.72179 80.02950
#
# Poissons Ratio (x) = 0.40586 0.51775
# Poissons Ratio (y) = 0.14015 0.06976
# Poissons Ratio (z) = 0.19597 0.07647
#
# Static dielectric constant tensor:
#      x y z
#    x 1.626100 0.000000 -0.015290 
#    y 0.000000 1.701830 0.000000 
#    z -0.015290 0.000000 1.722840 
# 
# From -- ./inp_files/157059.got.cif
#   From: 2010.05.17/outbox.cif.g08.bks.cpg/sg15_79_cif.got.tgz:157059.got - 2010.06.03 18:47:42.
