data_PCOD9256134
_publ_section_title
;
Structure prediction by ZEFSAII (Michael W. Deem and Ramdas Pophale) SiO2 
 PCOD9256134
Probable space group: C 2/C
;
_chemical_formula_sum "Si O2"
_cell_formula_units_Z 56
_cell_length_a 22.043249
_cell_length_b 14.137452
_cell_length_c 8.429910
_cell_angle_alpha 90.000000
_cell_angle_beta 56.937746
_cell_angle_gamma 90.000000
_cell_volume 2201.680444
_symmetry_space_group_name_H-M "C 2/C"
_symmetry_group_IT_number 15
_symmetry_cell_setting 'monoclinic'
loop_
_space_group_symop_operation_xyz
x,y,z
-x,y,1/2-z
-x,-y,-z
x,-y,1/2+z
1/2+x,1/2+y,z
1/2-x,1/2+y,1/2-z
1/2-x,1/2-y,-z
1/2+x,1/2-y,1/2+z
loop_
_atom_site_type_symbol
_atom_site_label
_atom_site_fract_x
_atom_site_fract_y
_atom_site_fract_z
Si Si1 0.775881 0.229042 0.757534
Si Si2 0.295413 0.079643 0.110589
Si Si3 0.353326 0.884617 0.171293
Si Si4 0.428034 0.502265 0.939382
Si Si5 0.342215 0.368262 0.865028
Si Si6 0.476560 0.766674 0.102055
Si Si7 0.594886 0.643347 0.759534
O O1 0.800525 0.337474 0.733825
O O2 0.692981 0.195973 0.857427
O O3 0.802764 0.201967 0.542217
O O4 0.822768 0.170444 0.817336
O O5 0.209829 0.089016 0.192900
O O6 0.328767 0.982406 0.124894
O O7 0.330810 0.103752 0.889049
O O8 0.436324 0.850996 0.065183
O O9 0.500000 0.465042 0.750000
O O10 0.359888 0.454861 0.953607
O O11 0.426801 0.452221 0.110740
O O12 0.421960 0.611549 0.895347
O O13 0.414015 0.312872 0.713620
O O14 0.500000 0.792202 0.250000
O O15 0.544085 0.723201 0.909785
#
# Coordination Sequence:
#
# PCOD9256134 Si02
#       7
#     8   8   8   8   8   8   8
#     4  10  19  40  63  85 120 166 206 247 295 381
#     4  11  21  40  63  91 117 163 214 255 294 368
#     4  11  23  40  66  89 122 161 214 254 304 361
#     4  11  20  32  52  88 121 149 191 246 303 376
#     4  10  17  34  61  86 115 156 204 241 297 362
#     4  12  19  38  62  90 120 165 206 246 302 377
#     4  11  22  36  59  89 124 157 201 250 314 364
#
# _framework density 25.435116000000001
#
# number of rings (size 3 to 8) (size 9 to 14) (size 15 to 20)
#    0.000    1.143    7.143    2.143    0.000    0.000 
#    0.000    5.000    0.000    0.000    0.000    0.000 
#    0.000    0.000    0.000    0.000    0.000    0.000 
#
# Total GULP energy -156469.650444 kJ/mol
# GULP energy per Si atom -5588.201802 kJ/mol
# Density = 2.537722 g / cm^3
# Si number density = 25.435116 Si / 1000 Ang^3
#
#
#
# Elastic Constant Matrix: (Units=GPa)
#
#
# Indices 1 2 3 4 5 6 
#
# 1 137.9068 51.7526 14.9638 0.0000 0.6984 0.0000
# 2 51.7526 119.3800 7.1091 0.0000 17.8465 0.0000
# 3 14.9638 7.1091 61.5532 0.0000 13.2913 0.0000
# 4 0.0000 0.0000 0.0000 14.9022 0.0000 19.8206
# 5 0.6984 17.8465 13.2913 0.0000 24.4094 0.0000
# 6 0.0000 0.0000 0.0000 19.8206 0.0000 62.4200
#
#
#
# Elastic Compliance Matrix: (Units=1/GPa)
#
#
# Indices 1 2 3 4 5 6 
#
# 1 0.009211 -0.004505 -0.002689 0.000000 0.004494 0.000000
# 2 -0.004505 0.011619 0.001767 0.000000 -0.009328 0.000000
# 3 -0.002689 0.001767 0.019218 0.000000 -0.011680 0.000000
# 4 0.000000 0.000000 0.000000 0.116165 0.000000 -0.036887
# 5 0.004494 -0.009328 -0.011680 0.000000 0.054019 0.000000
# 6 0.000000 0.000000 0.000000 -0.036887 0.000000 0.027733
#
#
# Mechanical properties :
#
#
# Convention : Reuss Voigt Hill
#
# Bulk Modulus (GPa) = 34.25353 51.83234 43.04294
# Shear Modulus (GPa) = 19.33862 36.68062 28.00962
#
# Velocity S-wave (km/s) = 2.76037 3.80165 3.32206
# Velocity P-wave (km/s) = 4.86372 6.30020 5.62798
#
# Compressibility (1/GPa) = 0.02919407
#
# Stress axis : x y z
#
# Youngs Moduli (GPa) = 108.56783 86.06782 52.03515
#
# Poissons Ratio (x) = 0.38771 0.13994
# Poissons Ratio (y) = 0.48907 -0.09197
# Poissons Ratio (z) = 0.29198 -0.15212
#
# Static dielectric constant tensor:
#      x y z
#    x 2.048190 0.000000 0.016170 
#    y 0.000000 2.069430 0.000000 
#    z 0.016170 0.000000 2.135000 
# 
# From -- ./inp_files/111553.got.cif
#   From: 2010.05.17/outbox.cif.g08.bks.cpg/sg15_56_cif.got.tgz:111553.got - 2010.06.03 18:47:42.
