data_PCOD9256899
_publ_section_title
;
Structure prediction by ZEFSAII (Michael W. Deem and Ramdas Pophale) SiO2 
 PCOD9256899
Probable space group: C 2/C
;
_chemical_formula_sum "Si O2"
_cell_formula_units_Z 64
_cell_length_a 5.550960
_cell_length_b 31.713096
_cell_length_c 18.666580
_cell_angle_alpha 90.000000
_cell_angle_beta 95.807481
_cell_angle_gamma 90.000000
_cell_volume 3269.164258
_symmetry_space_group_name_H-M "C 2/C"
_symmetry_group_IT_number 15
_symmetry_cell_setting 'monoclinic'
loop_
_space_group_symop_operation_xyz
x,y,z
-x,y,1/2-z
-x,-y,-z
x,-y,1/2+z
1/2+x,1/2+y,z
1/2-x,1/2+y,1/2-z
1/2-x,1/2-y,-z
1/2+x,1/2-y,1/2+z
loop_
_atom_site_type_symbol
_atom_site_label
_atom_site_fract_x
_atom_site_fract_y
_atom_site_fract_z
Si Si1 0.187776 0.686608 0.550004
Si Si2 0.695902 0.482825 0.365501
Si Si3 0.214907 0.092742 0.981510
Si Si4 0.268844 0.942019 0.976823
Si Si5 0.771140 0.873490 0.292174
Si Si6 0.196681 0.540415 0.859553
Si Si7 0.576385 0.761344 0.560537
Si Si8 0.855501 0.713914 0.673066
O O1 0.285184 0.639479 0.550798
O O2 0.384114 0.723554 0.558204
O O3 0.046931 0.695935 0.470592
O O4 0.023259 0.695043 0.614653
O O5 0.696999 0.442239 0.418690
O O6 0.738399 0.524517 0.413072
O O7 0.422157 0.482458 0.329368
O O8 0.932736 0.473808 0.326068
O O9 0.480484 0.083709 0.023124
O O10 0.977634 0.085103 0.022905
O O11 0.290487 0.967090 0.053930
O O12 0.500000 0.871320 0.250000
O O13 0.733436 0.909484 0.350097
O O14 0.822351 0.825557 0.317276
O O15 0.000000 0.886526 0.250000
O O16 0.750000 0.750000 0.500000
O O17 0.726545 0.755343 0.637630
O O18 0.000000 0.722832 0.750000
#
# Coordination Sequence:
#
# PCOD9256899 Si02
#       8
#     8   8   8   8   8   8   8   8
#     4  10  21  36  54  80 107 157 193 229 290 349
#     4  10  18  30  48  75 106 139 177 217 268 318
#     4  10  19  28  50  71 105 145 180 214 267 335
#     4  10  19  30  46  78 107 137 176 221 266 323
#     4  11  24  36  49  77 113 149 195 232 258 329
#     4  10  18  30  48  64  98 151 170 215 260 306
#     4   9  21  37  55  73 111 145 194 239 278 352
#     4  10  22  34  55  79 108 150 190 237 285 336
#
# _framework density 19.57687
#
# number of rings (size 3 to 8) (size 9 to 14) (size 15 to 20)
#    0.000    2.000    0.000    6.000   10.500    0.000 
#    0.000    0.000    0.000    0.000    0.000    0.000 
#    0.000    7.000   24.250    0.500    0.000    0.000 
#
# Total GULP energy -178438.798752 kJ/mol
# GULP energy per Si atom -5576.212461 kJ/mol
# Density = 1.953231 g / cm^3
# Si number density = 19.576870 Si / 1000 Ang^3
#
#
#
# Elastic Constant Matrix: (Units=GPa)
#
#
# Indices 1 2 3 4 5 6 
#
# 1 139.3089 16.0437 18.5485 0.0000 -4.3676 0.0000
# 2 16.0437 46.7219 23.0681 0.0000 1.7679 0.0000
# 3 18.5485 23.0681 64.2807 0.0000 9.9942 0.0000
# 4 0.0000 0.0000 0.0000 95.8372 0.0000 11.3027
# 5 -4.3676 1.7679 9.9942 0.0000 27.7396 0.0000
# 6 0.0000 0.0000 0.0000 11.3027 0.0000 28.3719
#
#
#
# Elastic Compliance Matrix: (Units=1/GPa)
#
#
# Indices 1 2 3 4 5 6 
#
# 1 0.007699 -0.001785 -0.001893 0.000000 0.002008 0.000000
# 2 -0.001785 0.026512 -0.009208 0.000000 0.001347 0.000000
# 3 -0.001893 -0.009208 0.020512 0.000000 -0.007101 0.000000
# 4 0.000000 0.000000 0.000000 0.010949 0.000000 -0.004362
# 5 0.002008 0.001347 -0.007101 0.000000 0.038838 0.000000
# 6 0.000000 0.000000 0.000000 -0.004362 0.000000 0.036984
#
#
# Mechanical properties :
#
#
# Convention : Reuss Voigt Hill
#
# Bulk Modulus (GPa) = 34.54342 40.62579 37.58461
# Shear Modulus (GPa) = 28.26200 43.23317 35.74758
#
# Velocity S-wave (km/s) = 3.80365 4.70444 4.27782
# Velocity P-wave (km/s) = 6.08060 7.09267 6.60604
#
# Compressibility (1/GPa) = 0.02894907
#
# Stress axis : x y z
#
# Youngs Moduli (GPa) = 129.88889 37.71918 48.75257
#
# Poissons Ratio (x) = 0.06733 0.09230
# Poissons Ratio (y) = 0.23185 0.44894
# Poissons Ratio (z) = 0.24591 0.34734
#
# Static dielectric constant tensor:
#      x y z
#    x 1.835840 0.000000 0.033550 
#    y 0.000000 1.692610 0.000000 
#    z 0.033550 0.000000 1.687740 
# 
# From -- ./inp_files/186726.got.cif
#   From: 2010.05.17/outbox.cif.g08.bks.cpg/sg15_94_cif.got.tgz:186726.got - 2010.06.03 18:47:42.
