data_PCOD9256858
_publ_section_title
;
Structure prediction by ZEFSAII (Michael W. Deem and Ramdas Pophale) SiO2 
 PCOD9256858
Probable space group: C 2/C
;
_chemical_formula_sum "Si O2"
_cell_formula_units_Z 60
_cell_length_a 15.669321
_cell_length_b 20.224444
_cell_length_c 13.986657
_cell_angle_alpha 90.000000
_cell_angle_beta 47.266213
_cell_angle_gamma 90.000000
_cell_volume 3255.675434
_symmetry_space_group_name_H-M "C 2/C"
_symmetry_group_IT_number 15
_symmetry_cell_setting 'monoclinic'
loop_
_space_group_symop_operation_xyz
x,y,z
-x,y,1/2-z
-x,-y,-z
x,-y,1/2+z
1/2+x,1/2+y,z
1/2-x,1/2+y,1/2-z
1/2-x,1/2-y,-z
1/2+x,1/2-y,1/2+z
loop_
_atom_site_type_symbol
_atom_site_label
_atom_site_fract_x
_atom_site_fract_y
_atom_site_fract_z
Si Si1 0.259897 0.836669 0.156268
Si Si2 0.500000 0.247086 0.250000
Si Si3 0.686127 0.456539 0.343939
Si Si4 0.013590 0.389187 0.962436
Si Si5 0.508423 0.507208 0.136263
Si Si6 0.453930 0.982051 0.179630
Si Si7 0.302144 0.812313 0.783447
Si Si8 0.878197 0.861568 0.437495
O O1 0.208929 0.887878 0.272000
O O2 0.238891 0.761960 0.205073
O O3 0.198801 0.853501 0.100813
O O4 0.397289 0.846771 0.041769
O O5 0.603650 0.201071 0.204475
O O6 0.462820 0.298039 0.362306
O O7 0.615958 0.502403 0.321790
O O8 0.599615 0.454514 0.499941
O O9 0.813801 0.480835 0.277194
O O10 0.006575 0.446927 0.888924
O O11 0.129151 0.347947 0.853263
O O12 0.006594 0.427123 0.068394
O O13 0.500000 0.533470 0.250000
O O14 0.556535 0.431387 0.108372
O O15 0.500000 0.971052 0.250000
O O16 0.199938 0.853852 0.909425
#
# Coordination Sequence:
#
# PCOD9256858 Si02
#       8
#     8   4   8   8   8   8   8   8
#     4  10  20  35  52  82 122 147 187 234 283 353
#     4  10  18  30  44  80 118 152 186 216 288 352
#     4  10  22  36  55  83 109 156 199 225 301 338
#     4  10  22  37  58  89 111 152 197 234 301 349
#     4  11  20  35  56  79 118 150 186 242 278 352
#     4  10  23  40  61  82 116 152 199 257 282 337
#     4  11  20  31  54  83 116 150 186 230 287 360
#     4  11  19  31  52  78 114 156 179 225 290 344
#
# _framework density 18.429355000000001
#
# number of rings (size 3 to 8) (size 9 to 14) (size 15 to 20)
#    0.000    1.600    2.000    4.800    4.667    1.067 
#    0.000    0.000    0.000    4.000    0.000    0.000 
#    0.000    0.000    0.000    0.000    0.000    0.000 
#
# Total GULP energy -167534.610318 kJ/mol
# GULP energy per Si atom -5584.487011 kJ/mol
# Density = 1.838741 g / cm^3
# Si number density = 18.429355 Si / 1000 Ang^3
#
#
#
# Elastic Constant Matrix: (Units=GPa)
#
#
# Indices 1 2 3 4 5 6 
#
# 1 62.5671 31.6403 55.4956 0.0001 -0.2224 -0.0001
# 2 31.6403 56.4198 41.1077 0.0000 -5.0484 0.0000
# 3 55.4956 41.1077 141.2029 0.0001 -5.5008 -0.0001
# 4 0.0001 0.0000 0.0001 32.9100 0.0000 -5.9909
# 5 -0.2224 -5.0484 -5.5008 0.0000 25.0982 0.0001
# 6 -0.0001 0.0000 -0.0001 -5.9909 0.0001 10.5609
#
#
#
# Elastic Compliance Matrix: (Units=1/GPa)
#
#
# Indices 1 2 3 4 5 6 
#
# 1 0.028602 -0.010246 -0.008401 0.000000 -0.003649 0.000000
# 2 -0.010246 0.026411 -0.003488 0.000000 0.004457 0.000000
# 3 -0.008401 -0.003488 0.011467 0.000000 0.001737 0.000000
# 4 0.000000 0.000000 0.000000 0.033885 0.000000 0.019222
# 5 -0.003649 0.004457 0.001737 0.000000 0.041088 0.000000
# 6 0.000000 0.000000 0.000000 0.019222 0.000000 0.105594
#
#
# Mechanical properties :
#
#
# Convention : Reuss Voigt Hill
#
# Bulk Modulus (GPa) = 45.02458 57.40855 51.21656
# Shear Modulus (GPa) = 16.73807 22.51023 19.62415
#
# Velocity S-wave (km/s) = 3.01695 3.49869 3.26672
# Velocity P-wave (km/s) = 6.05144 6.89488 6.48688
#
# Compressibility (1/GPa) = 0.02221009
#
# Stress axis : x y z
#
# Youngs Moduli (GPa) = 34.96201 37.86350 87.20813
#
# Poissons Ratio (x) = 0.38795 0.73260
# Poissons Ratio (y) = 0.35822 0.30421
# Poissons Ratio (z) = 0.29370 0.13208
#
# Static dielectric constant tensor:
#      x y z
#    x 1.633050 0.000000 -0.019740 
#    y 0.000000 1.627980 0.000000 
#    z -0.019740 0.000000 1.671810 
# 
# From -- ./inp_files/163536.got.cif
#   From: 2010.05.17/outbox.cif.g08.bks.cpg/sg15_82_cif.got.tgz:163536.got - 2010.06.03 18:47:42.
