data_PCOD9256028
_publ_section_title
;
Structure prediction by ZEFSAII (Michael W. Deem and Ramdas Pophale) SiO2 
 PCOD9256028
Probable space group: C 2/C
;
_chemical_formula_sum "Si O2"
_cell_formula_units_Z 56
_cell_length_a 18.720440
_cell_length_b 11.909694
_cell_length_c 15.470231
_cell_angle_alpha 90.000000
_cell_angle_beta 113.734747
_cell_angle_gamma 90.000000
_cell_volume 3157.426259
_symmetry_space_group_name_H-M "C 2/C"
_symmetry_group_IT_number 15
_symmetry_cell_setting 'monoclinic'
loop_
_space_group_symop_operation_xyz
x,y,z
-x,y,1/2-z
-x,-y,-z
x,-y,1/2+z
1/2+x,1/2+y,z
1/2-x,1/2+y,1/2-z
1/2-x,1/2-y,-z
1/2+x,1/2-y,1/2+z
loop_
_atom_site_type_symbol
_atom_site_label
_atom_site_fract_x
_atom_site_fract_y
_atom_site_fract_z
Si Si1 0.046415 0.529904 0.684917
Si Si2 0.176444 0.265599 0.656739
Si Si3 0.606204 0.931515 0.480734
Si Si4 0.132744 0.693072 0.480309
Si Si5 0.760538 0.657342 0.131520
Si Si6 0.026847 0.740307 0.167784
Si Si7 0.699305 0.907896 0.349458
O O1 0.047210 0.393799 0.683752
O O2 0.133577 0.575642 0.741914
O O3 0.000000 0.558412 0.750000
O O4 0.987467 0.572910 0.581983
O O5 0.138691 0.355273 0.572904
O O6 0.218570 0.319426 0.759776
O O7 0.102433 0.201932 0.663935
O O8 0.239850 0.189293 0.640383
O O9 0.650931 0.894971 0.414778
O O10 0.626491 0.062918 0.504781
O O11 0.169596 0.689674 0.401091
O O12 0.188377 0.767724 0.566113
O O13 0.047554 0.745322 0.430222
O O14 0.753278 0.524094 0.118303
O O15 0.000000 0.777370 0.250000
#
# Coordination Sequence:
#
# PCOD9256028 Si02
#       7
#     8   8   8   8   8   8   8
#     4   8  15  33  58  75 107 141 177 231 273 305
#     4  12  22  30  55  82 114 144 180 220 281 330
#     4   9  20  35  56  85 107 143 180 226 282 323
#     4   9  19  36  59  76 111 141 181 231 273 316
#     4  10  20  35  53  83 107 146 182 224 273 323
#     4  10  17  34  54  82 107 139 184 237 267 311
#     4  10  20  37  52  80 120 143 176 225 270 334
#
# _framework density 17.735965
#
# number of rings (size 3 to 8) (size 9 to 14) (size 15 to 20)
#    0.000    2.286    2.857    2.143    2.000    3.429 
#    0.000    0.714    0.000    0.000    0.000    2.000 
#    0.000    0.000    0.000    0.000    0.000    0.000 
#
# Total GULP energy -156106.583669 kJ/mol
# GULP energy per Si atom -5575.235131 kJ/mol
# Density = 1.769560 g / cm^3
# Si number density = 17.735965 Si / 1000 Ang^3
#
#
#
# Elastic Constant Matrix: (Units=GPa)
#
#
# Indices 1 2 3 4 5 6 
#
# 1 89.6495 25.3556 37.3796 0.0000 4.4646 0.0000
# 2 25.3556 33.9339 38.5719 0.0000 3.8097 0.0000
# 3 37.3796 38.5719 121.6494 0.0000 3.1772 0.0000
# 4 0.0000 0.0000 0.0000 23.6434 0.0000 5.4476
# 5 4.4646 3.8097 3.1772 0.0000 30.1647 0.0000
# 6 0.0000 0.0000 0.0000 5.4476 0.0000 19.4310
#
#
#
# Elastic Compliance Matrix: (Units=1/GPa)
#
#
# Indices 1 2 3 4 5 6 
#
# 1 0.014355 -0.008823 -0.001592 0.000000 -0.000843 0.000000
# 2 -0.008823 0.052058 -0.013695 0.000000 -0.003826 0.000000
# 3 -0.001592 -0.013695 0.013036 0.000000 0.000592 0.000000
# 4 0.000000 0.000000 0.000000 0.045216 0.000000 -0.012677
# 5 -0.000843 -0.003826 0.000592 0.000000 0.033697 0.000000
# 6 0.000000 0.000000 0.000000 -0.012677 0.000000 0.055018
#
#
# Mechanical properties :
#
#
# Convention : Reuss Voigt Hill
#
# Bulk Modulus (GPa) = 32.01977 49.76078 40.89028
# Shear Modulus (GPa) = 18.38158 24.24283 21.31221
#
# Velocity S-wave (km/s) = 3.22281 3.70114 3.47023
# Velocity P-wave (km/s) = 5.65168 6.81043 6.25793
#
# Compressibility (1/GPa) = 0.03123070
#
# Stress axis : x y z
#
# Youngs Moduli (GPa) = 69.65974 19.20917 76.70820
#
# Poissons Ratio (x) = 0.16948 0.12209
# Poissons Ratio (y) = 0.61459 1.05056
# Poissons Ratio (z) = 0.11087 0.26308
#
# Static dielectric constant tensor:
#      x y z
#    x 1.651460 0.000000 -0.013500 
#    y 0.000000 1.568230 0.000000 
#    z -0.013500 0.000000 1.649230 
# 
# From -- ./inp_files/161438.got.cif
#   From: 2010.05.17/outbox.cif.g08.bks.cpg/sg15_81_cif.got.tgz:161438.got - 2010.06.03 18:47:42.
