data_PCOD9256408
_publ_section_title
;
Structure prediction by ZEFSAII (Michael W. Deem and Ramdas Pophale) SiO2 
 PCOD9256408
Probable space group: C 2/C
;
_chemical_formula_sum "Si O2"
_cell_formula_units_Z 52
_cell_length_a 15.281133
_cell_length_b 17.310831
_cell_length_c 12.514957
_cell_angle_alpha 90.000000
_cell_angle_beta 139.089566
_cell_angle_gamma 90.000000
_cell_volume 2168.021242
_symmetry_space_group_name_H-M "C 2/C"
_symmetry_group_IT_number 15
_symmetry_cell_setting 'monoclinic'
loop_
_space_group_symop_operation_xyz
x,y,z
-x,y,1/2-z
-x,-y,-z
x,-y,1/2+z
1/2+x,1/2+y,z
1/2-x,1/2+y,1/2-z
1/2-x,1/2-y,-z
1/2+x,1/2-y,1/2+z
loop_
_atom_site_type_symbol
_atom_site_label
_atom_site_fract_x
_atom_site_fract_y
_atom_site_fract_z
Si Si1 0.272801 0.355120 0.119759
Si Si2 0.122922 0.367112 0.791059
Si Si3 0.198690 0.305488 0.279908
Si Si4 0.267085 0.518909 0.895048
Si Si5 0.891304 0.327294 0.974476
Si Si6 0.356305 0.992895 0.925600
Si Si7 0.000000 0.947848 0.250000
O O1 0.241140 0.304537 0.193145
O O2 0.169650 0.426382 0.042427
O O3 0.419207 0.392131 0.255643
O O4 0.247621 0.332537 0.973239
O O5 0.147787 0.459953 0.817300
O O6 0.111140 0.342244 0.657091
O O7 0.000000 0.340401 0.750000
O O8 0.238100 0.390398 0.359925
O O9 0.281572 0.235124 0.404629
O O10 0.039353 0.300032 0.141017
O O11 0.269757 0.491101 0.773226
O O12 0.392548 0.497761 0.084383
O O13 0.860832 0.412750 0.992360
O O14 0.500000 0.000000 0.000000
#
# Coordination Sequence:
#
# PCOD9256408 Si02
#       7
#     8   8   8   8   8   8   4
#     4  10  20  36  60  87 121 155 199 252 304 359
#     4  10  18  35  62  91 112 152 208 251 283 360
#     4  11  23  39  56  86 125 167 197 250 306 376
#     4   9  20  36  61  84 120 152 205 250 303 360
#     4  11  23  36  59  92 123 162 206 243 311 364
#     4  10  17  37  66  87 106 157 223 248 277 362
#     4  10  22  36  56  96 116 152 200 264 318 350
#
# _framework density 23.985005000000001
#
# number of rings (size 3 to 8) (size 9 to 14) (size 15 to 20)
#    0.000    1.846    4.615    0.923    0.000    8.000 
#    1.385    0.000    0.000    8.308    2.000    0.000 
#    0.000    0.000    0.000    0.000    0.000    0.000 
#
# Total GULP energy -145027.223076 kJ/mol
# GULP energy per Si atom -5577.970118 kJ/mol
# Density = 2.393041 g / cm^3
# Si number density = 23.985005 Si / 1000 Ang^3
#
#
#
# Elastic Constant Matrix: (Units=GPa)
#
#
# Indices 1 2 3 4 5 6 
#
# 1 53.1046 -2.9246 7.6554 0.0000 0.4046 0.0000
# 2 -2.9246 136.4998 35.9388 0.0000 36.7770 0.0000
# 3 7.6554 35.9388 143.7237 0.0000 14.7331 0.0000
# 4 0.0000 0.0000 0.0000 27.6464 0.0000 13.4389
# 5 0.4046 36.7770 14.7331 0.0000 30.9978 0.0000
# 6 0.0000 0.0000 0.0000 13.4389 0.0000 16.8911
#
#
#
# Elastic Compliance Matrix: (Units=1/GPa)
#
#
# Indices 1 2 3 4 5 6 
#
# 1 0.019056 0.000930 -0.001166 0.000000 -0.000798 0.000000
# 2 0.000930 0.011111 -0.001551 0.000000 -0.012457 0.000000
# 3 -0.001166 -0.001551 0.007587 0.000000 -0.001751 0.000000
# 4 0.000000 0.000000 0.000000 0.058983 0.000000 -0.046928
# 5 -0.000798 -0.012457 -0.001751 0.000000 0.047883 0.000000
# 6 0.000000 0.000000 0.000000 -0.046928 0.000000 0.096540
#
#
# Mechanical properties :
#
#
# Convention : Reuss Voigt Hill
#
# Bulk Modulus (GPa) = 29.25577 46.07414 37.66495
# Shear Modulus (GPa) = 19.52162 34.61760 27.06961
#
# Velocity S-wave (km/s) = 2.85600 3.80320 3.36312
# Velocity P-wave (km/s) = 4.80621 6.20782 5.55143
#
# Compressibility (1/GPa) = 0.03418130
#
# Stress axis : x y z
#
# Youngs Moduli (GPa) = 52.47649 90.00454 131.80138
#
# Poissons Ratio (x) = -0.08374 0.15366
# Poissons Ratio (y) = -0.04882 0.20440
# Poissons Ratio (z) = 0.06118 0.13958
#
# Static dielectric constant tensor:
#      x y z
#    x 2.030310 0.000000 -0.098540 
#    y 0.000000 1.980920 0.000000 
#    z -0.098540 0.000000 1.993590 
# 
# From -- ./inp_files/215598.got.cif
#   From: 2010.05.17/outbox.cif.g08.bks.cpg/sg15_108_cif.got.tgz:215598.got - 2010.06.03 18:47:42.
