data_PCOD9256989
_publ_section_title
;
Structure prediction by ZEFSAII (Michael W. Deem and Ramdas Pophale) SiO2 
 PCOD9256989
Probable space group: C 2/C
;
_chemical_formula_sum "Si O2"
_cell_formula_units_Z 60
_cell_length_a 22.996891
_cell_length_b 18.726656
_cell_length_c 5.532661
_cell_angle_alpha 90.000000
_cell_angle_beta 91.962141
_cell_angle_gamma 90.000000
_cell_volume 2381.270355
_symmetry_space_group_name_H-M "C 2/C"
_symmetry_group_IT_number 15
_symmetry_cell_setting 'monoclinic'
loop_
_space_group_symop_operation_xyz
x,y,z
-x,y,1/2-z
-x,-y,-z
x,-y,1/2+z
1/2+x,1/2+y,z
1/2-x,1/2+y,1/2-z
1/2-x,1/2-y,-z
1/2+x,1/2-y,1/2+z
loop_
_atom_site_type_symbol
_atom_site_label
_atom_site_fract_x
_atom_site_fract_y
_atom_site_fract_z
Si Si1 0.629789 0.044366 0.792047
Si Si2 0.477791 0.228305 0.997915
Si Si3 0.258928 0.310549 0.703078
Si Si4 0.525228 0.606523 0.503172
Si Si5 0.500000 0.953843 0.250000
Si Si6 0.345648 0.238985 0.097578
Si Si7 0.655995 0.621208 0.605965
Si Si8 0.254530 0.041839 0.840546
O O1 0.688239 0.088729 0.731578
O O2 0.632565 0.986755 0.567247
O O3 0.565881 0.077719 0.758734
O O4 0.500000 0.197927 0.750000
O O5 0.500000 0.192909 0.250000
O O6 0.505006 0.309155 0.003781
O O7 0.408253 0.226149 0.995287
O O8 0.250000 0.250000 0.500000
O O9 0.194072 0.323118 0.793206
O O10 0.295504 0.373856 0.593695
O O11 0.301964 0.276568 0.905330
O O12 0.500000 0.578079 0.750000
O O13 0.594078 0.593910 0.515069
O O14 0.500000 0.578585 0.250000
O O15 0.500000 0.000000 0.500000
O O16 0.357104 0.298897 0.303608
O O17 0.691686 0.579016 0.813002
O O18 0.258139 0.987064 0.613497
#
# Coordination Sequence:
#
# PCOD9256989 Si02
#       8
#     8   8   8   8   4   8   8   8
#     4   8  14  27  44  69 102 124 163 216 268 321
#     4  10  18  30  50  79 110 141 183 234 278 326
#     4   9  20  33  53  84 115 144 178 230 290 360
#     4  10  19  31  51  81 105 140 194 243 287 340
#     4   8  12  20  42  68  94 120 148 206 268 306
#     4  10  19  34  54  86 116 142 188 239 288 355
#     4  11  21  35  59  78 116 156 191 248 304 344
#     4  10  23  38  54  80 112 153 200 244 294 354
#
# _framework density 25.196634
#
# number of rings (size 3 to 8) (size 9 to 14) (size 15 to 20)
#    0.000    2.400    2.667    1.600    3.733    0.000 
#    0.000    0.000    0.000    2.400    0.000    5.600 
#    2.000    0.000    0.000    0.000    0.000    0.533 
#
# Total GULP energy -167370.306258 kJ/mol
# GULP energy per Si atom -5579.010209 kJ/mol
# Density = 2.513929 g / cm^3
# Si number density = 25.196634 Si / 1000 Ang^3
#
#
#
# Elastic Constant Matrix: (Units=GPa)
#
#
# Indices 1 2 3 4 5 6 
#
# 1 237.8681 25.7812 53.6397 0.0000 1.0155 0.0000
# 2 25.7812 39.4858 27.2676 0.0000 -7.5104 0.0000
# 3 53.6397 27.2676 180.4444 0.0000 -2.0459 0.0000
# 4 0.0000 0.0000 0.0000 17.1441 0.0000 -5.8676
# 5 1.0155 -7.5104 -2.0459 0.0000 41.6568 0.0000
# 6 0.0000 0.0000 0.0000 -5.8676 0.0000 4.7631
#
#
#
# Elastic Compliance Matrix: (Units=1/GPa)
#
#
# Indices 1 2 3 4 5 6 
#
# 1 0.004708 -0.002478 -0.001032 0.000000 -0.000612 0.000000
# 2 -0.002478 0.030612 -0.003828 0.000000 0.005392 0.000000
# 3 -0.001032 -0.003828 0.006423 0.000000 -0.000350 0.000000
# 4 0.000000 0.000000 0.000000 0.100848 0.000000 0.124233
# 5 -0.000612 0.005392 -0.000350 0.000000 0.024976 0.000000
# 6 0.000000 0.000000 0.000000 0.124233 0.000000 0.362987
#
#
# Mechanical properties :
#
#
# Convention : Reuss Voigt Hill
#
# Bulk Modulus (GPa) = 36.94455 74.57506 55.75980
# Shear Modulus (GPa) = 9.02116 36.12012 22.57064
#
# Velocity S-wave (km/s) = 1.89422 3.79031 2.99621
# Velocity P-wave (km/s) = 4.41344 6.98690 5.84359
#
# Compressibility (1/GPa) = 0.02706759
#
# Stress axis : x y z
#
# Youngs Moduli (GPa) = 212.40958 32.66642 155.68558
#
# Poissons Ratio (x) = 0.08094 0.16067
# Poissons Ratio (y) = 0.52628 0.59601
# Poissons Ratio (z) = 0.21921 0.12506
#
# Static dielectric constant tensor:
#      x y z
#    x 1.995880 0.000000 0.011870 
#    y 0.000000 2.241130 0.000000 
#    z 0.011870 0.000000 2.039260 
# 
# From -- ./inp_files/13918.got.cif
#   From: 2010.05.17/outbox.cif.g08.bks.cpg/sg15_7_cif.got.tgz:13918.got - 2010.06.03 18:47:42.
