data_PCOD9256084
_publ_section_title
;
Structure prediction by ZEFSAII (Michael W. Deem and Ramdas Pophale) SiO2 
 PCOD9256084
Probable space group: C 2/C
;
_chemical_formula_sum "Si O2"
_cell_formula_units_Z 48
_cell_length_a 27.685269
_cell_length_b 13.796191
_cell_length_c 11.886029
_cell_angle_alpha 90.000000
_cell_angle_beta 25.472550
_cell_angle_gamma 90.000000
_cell_volume 1952.506958
_symmetry_space_group_name_H-M "C 2/C"
_symmetry_group_IT_number 15
_symmetry_cell_setting 'monoclinic'
loop_
_space_group_symop_operation_xyz
x,y,z
-x,y,1/2-z
-x,-y,-z
x,-y,1/2+z
1/2+x,1/2+y,z
1/2-x,1/2+y,1/2-z
1/2-x,1/2-y,-z
1/2+x,1/2-y,1/2+z
loop_
_atom_site_type_symbol
_atom_site_label
_atom_site_fract_x
_atom_site_fract_y
_atom_site_fract_z
Si Si1 0.906693 0.974586 0.361843
Si Si2 0.785882 0.881400 0.799946
Si Si3 0.590864 0.150915 0.310940
Si Si4 0.379524 0.042600 0.666717
Si Si5 0.863033 0.304316 0.020271
Si Si6 0.508076 0.643140 0.459283
O O1 0.805491 0.960247 0.660518
O O2 0.000000 0.931199 0.250000
O O3 0.952464 0.079153 0.228804
O O4 0.911477 0.913182 0.235542
O O5 0.787103 0.779690 0.733004
O O6 0.885414 0.863784 0.681647
O O7 0.684690 0.915482 0.089922
O O8 0.505563 0.080832 0.420637
O O9 0.667070 0.186846 0.047727
O O10 0.529638 0.247279 0.483765
O O11 0.635115 0.073045 0.306668
O O12 0.340723 0.100201 0.639197
O O13 0.000000 0.282249 0.750000
#
# Coordination Sequence:
#
# PCOD9256084 Si02
#       6
#     8   8   8   8   8   8
#     4   9  19  34  56  86 109 144 196 246 293 347
#     4  11  18  34  56  89 111 147 205 258 281 342
#     4  10  20  38  54  80 117 161 192 234 304 363
#     4  10  22  32  53  87 118 145 199 243 292 354
#     4  10  17  34  58  78 109 159 199 243 289 353
#     4  10  18  34  61  79 111 157 196 235 299 351
#
# _framework density 24.583780000000001
#
# number of rings (size 3 to 8) (size 9 to 14) (size 15 to 20)
#    0.000    2.000    5.000    1.000    0.000    1.333 
#    0.000    4.167    0.000    9.000    0.000    0.000 
#    0.000    0.000    0.000    0.000    0.000    0.000 
#
# Total GULP energy -133884.295350 kJ/mol
# GULP energy per Si atom -5578.512306 kJ/mol
# Density = 2.452783 g / cm^3
# Si number density = 24.583780 Si / 1000 Ang^3
#
#
#
# Elastic Constant Matrix: (Units=GPa)
#
#
# Indices 1 2 3 4 5 6 
#
# 1 37.0932 40.3454 22.6377 0.0000 18.7033 0.0000
# 2 40.3454 209.5999 46.1965 0.0000 32.7883 0.0000
# 3 22.6377 46.1965 73.2584 0.0000 19.8016 0.0000
# 4 0.0000 0.0000 0.0000 28.5236 0.0000 7.4975
# 5 18.7033 32.7883 19.8016 0.0000 26.7867 0.0000
# 6 0.0000 0.0000 0.0000 7.4975 0.0000 25.2950
#
#
#
# Elastic Compliance Matrix: (Units=1/GPa)
#
#
# Indices 1 2 3 4 5 6 
#
# 1 0.046582 -0.004088 -0.005471 0.000000 -0.023477 0.000000
# 2 -0.004088 0.006561 -0.001843 0.000000 -0.003814 0.000000
# 3 -0.005471 -0.001843 0.018572 0.000000 -0.007653 0.000000
# 4 0.000000 0.000000 0.000000 0.038021 0.000000 -0.011270
# 5 -0.023477 -0.003814 -0.007653 0.000000 0.064050 0.000000
# 6 0.000000 0.000000 0.000000 -0.011270 0.000000 0.042874
#
#
# Mechanical properties :
#
#
# Convention : Reuss Voigt Hill
#
# Bulk Modulus (GPa) = 20.44545 59.81228 40.12887
# Shear Modulus (GPa) = 19.54910 30.17252 24.86081
#
# Velocity S-wave (km/s) = 2.82299 3.50713 3.18350
# Velocity P-wave (km/s) = 4.35436 6.38614 5.46549
#
# Compressibility (1/GPa) = 0.04891064
#
# Stress axis : x y z
#
# Youngs Moduli (GPa) = 21.46751 152.42224 53.84566
#
# Poissons Ratio (x) = 0.62313 0.29457
# Poissons Ratio (y) = 0.08776 0.09924
# Poissons Ratio (z) = 0.11744 0.28092
#
# Static dielectric constant tensor:
#      x y z
#    x 2.061310 0.000000 -0.040790 
#    y 0.000000 2.014800 0.000000 
#    z -0.040790 0.000000 2.066780 
# 
# From -- ./inp_files/126816.got.cif
#   From: 2010.05.17/outbox.cif.g08.bks.cpg/sg15_64_cif.got.tgz:126816.got - 2010.06.03 18:47:42.
