data_PCOD9256979
_publ_section_title
;
Structure prediction by ZEFSAII (Michael W. Deem and Ramdas Pophale) SiO2 
 PCOD9256979
Probable space group: C 2/C
;
_chemical_formula_sum "Si O2"
_cell_formula_units_Z 52
_cell_length_a 13.311270
_cell_length_b 12.077915
_cell_length_c 13.915686
_cell_angle_alpha 90.000000
_cell_angle_beta 59.807341
_cell_angle_gamma 90.000000
_cell_volume 1933.749943
_symmetry_space_group_name_H-M "C 2/C"
_symmetry_group_IT_number 15
_symmetry_cell_setting 'monoclinic'
loop_
_space_group_symop_operation_xyz
x,y,z
-x,y,1/2-z
-x,-y,-z
x,-y,1/2+z
1/2+x,1/2+y,z
1/2-x,1/2+y,1/2-z
1/2-x,1/2-y,-z
1/2+x,1/2-y,1/2+z
loop_
_atom_site_type_symbol
_atom_site_label
_atom_site_fract_x
_atom_site_fract_y
_atom_site_fract_z
Si Si1 0.057151 0.562811 0.880189
Si Si2 0.316352 0.074780 0.972136
Si Si3 0.611553 0.307417 0.504466
Si Si4 0.370936 0.218550 0.329117
Si Si5 0.618803 0.291826 0.955675
Si Si6 0.801302 0.042248 0.800071
Si Si7 0.500000 0.381423 0.750000
O O1 0.090210 0.687672 0.898490
O O2 0.184891 0.520035 0.794886
O O3 0.943391 0.553375 0.869442
O O4 0.000000 0.500000 0.000000
O O5 0.343650 0.181606 0.029303
O O6 0.223409 0.116580 0.940985
O O7 0.253275 0.982027 0.066327
O O8 0.503847 0.352881 0.495645
O O9 0.571530 0.315768 0.635668
O O10 0.500000 0.172624 0.250000
O O11 0.374823 0.247812 0.439691
O O12 0.245916 0.160573 0.372396
O O13 0.352903 0.333955 0.278606
O O14 0.906655 0.957514 0.739618
#
# Coordination Sequence:
#
# PCOD9256979 Si02
#       7
#     8   8   8   8   8   8   4
#     4   8  14  28  51  77  94 137 176 208 261 325
#     4   8  15  29  50  73 100 134 168 213 263 315
#     4   9  17  32  49  77 106 134 173 220 272 323
#     4  10  19  35  54  75 103 140 182 232 271 329
#     4   9  19  34  52  77 107 136 182 227 274 321
#     4   9  16  29  52  74 101 136 181 218 259 328
#     4  10  18  30  50  76 112 138 174 224 266 338
#
# _framework density 26.890758000000002
#
# number of rings (size 3 to 8) (size 9 to 14) (size 15 to 20)
#    0.000    3.077    0.769    0.000    0.000    0.000 
#   16.615    3.077    0.000    0.000   24.000    0.000 
#    0.000    0.000    0.000    0.000    0.000    0.000 
#
# Total GULP energy -145080.621615 kJ/mol
# GULP energy per Si atom -5580.023908 kJ/mol
# Density = 2.682955 g / cm^3
# Si number density = 26.890758 Si / 1000 Ang^3
#
#
#
# Elastic Constant Matrix: (Units=GPa)
#
#
# Indices 1 2 3 4 5 6 
#
# 1 215.1112 17.2728 60.5784 0.0000 -94.7886 0.0000
# 2 17.2728 67.5839 34.6784 0.0000 -10.9989 0.0000
# 3 60.5784 34.6784 110.5475 0.0000 -31.0953 0.0000
# 4 0.0000 0.0000 0.0000 33.8700 0.0000 -5.2068
# 5 -94.7886 -10.9989 -31.0953 0.0000 60.5766 0.0000
# 6 0.0000 0.0000 0.0000 -5.2068 0.0000 14.9787
#
#
#
# Elastic Compliance Matrix: (Units=1/GPa)
#
#
# Indices 1 2 3 4 5 6 
#
# 1 0.015371 0.000976 -0.002237 0.000000 0.023081 0.000000
# 2 0.000976 0.017706 -0.005558 0.000000 0.001889 0.000000
# 3 -0.002237 -0.005558 0.012560 0.000000 0.001938 0.000000
# 4 0.000000 0.000000 0.000000 0.031191 0.000000 0.010843
# 5 0.023081 0.001889 0.001938 0.000000 0.053962 0.000000
# 6 0.000000 0.000000 0.000000 0.010843 0.000000 0.070531
#
#
# Mechanical properties :
#
#
# Convention : Reuss Voigt Hill
#
# Bulk Modulus (GPa) = 31.25041 68.70019 49.97530
# Shear Modulus (GPa) = 22.16053 40.59925 31.37989
#
# Velocity S-wave (km/s) = 2.87382 3.88981 3.41976
# Velocity P-wave (km/s) = 4.76007 6.76591 5.84961
#
# Compressibility (1/GPa) = 0.03199958
#
# Stress axis : x y z
#
# Youngs Moduli (GPa) = 65.05785 56.47733 79.61610
#
# Poissons Ratio (x) = -0.05510 0.17808
# Poissons Ratio (y) = -0.06347 0.44249
# Poissons Ratio (z) = 0.14552 0.31389
#
# Static dielectric constant tensor:
#      x y z
#    x 2.285160 0.000000 -0.051060 
#    y 0.000000 2.152710 0.000000 
#    z -0.051060 0.000000 2.111410 
# 
# From -- ./inp_files/244158.got.cif
#   From: 2010.05.17/outbox.cif.g08.bks.cpg/sg15_123_cif.got.tgz:244158.got - 2010.06.03 18:47:42.
