data_PCOD9256290
_publ_section_title
;
Structure prediction by ZEFSAII (Michael W. Deem and Ramdas Pophale) SiO2 
 PCOD9256290
Probable space group: C 2/C
;
_chemical_formula_sum "Si O2"
_cell_formula_units_Z 64
_cell_length_a 9.603400
_cell_length_b 19.597052
_cell_length_c 23.430903
_cell_angle_alpha 90.000000
_cell_angle_beta 50.363714
_cell_angle_gamma 90.000000
_cell_volume 3395.918154
_symmetry_space_group_name_H-M "C 2/C"
_symmetry_group_IT_number 15
_symmetry_cell_setting 'monoclinic'
loop_
_space_group_symop_operation_xyz
x,y,z
-x,y,1/2-z
-x,-y,-z
x,-y,1/2+z
1/2+x,1/2+y,z
1/2-x,1/2+y,1/2-z
1/2-x,1/2-y,-z
1/2+x,1/2-y,1/2+z
loop_
_atom_site_type_symbol
_atom_site_label
_atom_site_fract_x
_atom_site_fract_y
_atom_site_fract_z
Si Si1 0.044820 0.937569 0.676387
Si Si2 0.992211 0.097660 0.686839
Si Si3 0.477728 0.588747 0.067532
Si Si4 0.700158 0.152355 0.675024
Si Si5 0.035171 0.463379 0.931003
Si Si6 0.007947 0.214348 0.975554
Si Si7 0.213283 0.477465 0.088024
Si Si8 0.294686 0.844778 0.030073
O O1 0.259663 0.942315 0.621509
O O2 0.000000 0.907370 0.750000
O O3 0.983560 0.902614 0.633874
O O4 0.970248 0.015579 0.691686
O O5 0.183880 0.116397 0.607898
O O6 0.000000 0.120108 0.750000
O O7 0.833984 0.134037 0.692472
O O8 0.305384 0.543304 0.093486
O O9 0.493975 0.659993 0.030174
O O10 0.649245 0.544891 0.998947
O O11 0.500000 0.169212 0.750000
O O12 0.697559 0.083589 0.637156
O O13 0.800938 0.207414 0.607555
O O14 0.977295 0.508044 0.891996
O O15 0.902187 0.399030 0.964551
O O16 0.000000 0.500000 0.000000
O O17 0.860500 0.189326 0.967684
O O18 0.939877 0.288629 0.012026
#
# Coordination Sequence:
#
# PCOD9256290 Si02
#       8
#     8   8   8   8   8   8   8   8
#     4  11  23  36  55  85 123 154 186 243 310 351
#     4  10  20  35  57  86 118 149 188 243 302 350
#     4  10  17  36  56  83 116 150 188 237 290 344
#     4  10  21  34  57  91 120 149 194 247 295 346
#     4  12  21  34  58  89 115 148 190 243 295 348
#     4   9  20  37  64  85 112 158 203 238 280 348
#     4  10  19  30  57  86 114 146 189 238 294 346
#     4  10  19  38  62  87 111 154 205 239 281 352
#
# _framework density 18.846155
#
# number of rings (size 3 to 8) (size 9 to 14) (size 15 to 20)
#    0.000    1.750    5.000    0.000    3.500    0.000 
#    0.000    1.250    8.250    0.000    0.000    0.000 
#    0.000    0.000    0.000    0.000    0.000    0.000 
#
# Total GULP energy -178505.517444 kJ/mol
# GULP energy per Si atom -5578.297420 kJ/mol
# Density = 1.880326 g / cm^3
# Si number density = 18.846155 Si / 1000 Ang^3
#
#
#
# Elastic Constant Matrix: (Units=GPa)
#
#
# Indices 1 2 3 4 5 6 
#
# 1 84.5085 10.1675 46.5009 -0.0002 11.4546 -0.0001
# 2 10.1675 26.0291 5.7474 -0.0002 4.9347 0.0000
# 3 46.5009 5.7474 96.7708 -0.0006 9.2792 0.0001
# 4 -0.0002 -0.0002 -0.0006 5.2034 0.0002 -3.1204
# 5 11.4546 4.9347 9.2792 0.0002 40.0186 0.0001
# 6 -0.0001 0.0000 0.0001 -3.1204 0.0001 18.7026
#
#
#
# Elastic Compliance Matrix: (Units=1/GPa)
#
#
# Indices 1 2 3 4 5 6 
#
# 1 0.016900 -0.004441 -0.007615 0.000000 -0.002524 0.000000
# 2 -0.004441 0.040855 0.000071 0.000002 -0.003783 0.000000
# 3 -0.007615 0.000071 0.014094 0.000002 -0.001097 0.000000
# 4 0.000000 0.000002 0.000002 0.213549 -0.000002 0.035629
# 5 -0.002524 -0.003783 -0.001097 -0.000002 0.026432 0.000000
# 6 0.000000 0.000000 0.000000 0.035629 0.000000 0.059413
#
#
# Mechanical properties :
#
#
# Convention : Reuss Voigt Hill
#
# Bulk Modulus (GPa) = 20.88694 36.90447 28.89570
# Shear Modulus (GPa) = 12.16032 22.44441 17.30237
#
# Velocity S-wave (km/s) = 2.54292 3.45473 3.03328
# Velocity P-wave (km/s) = 4.44171 5.96137 5.25675
#
# Compressibility (1/GPa) = 0.04787681
#
# Stress axis : x y z
#
# Youngs Moduli (GPa) = 59.17247 24.47678 70.95271
#
# Poissons Ratio (x) = 0.10871 0.54030
# Poissons Ratio (y) = 0.26281 -0.00500
# Poissons Ratio (z) = 0.45060 -0.00173
#
# Static dielectric constant tensor:
#      x y z
#    x 1.657560 0.000000 -0.005560 
#    y 0.000000 1.672190 0.000000 
#    z -0.005560 0.000000 1.640580 
# 
# From -- ./inp_files/266108.got.cif
#   From: 2010.05.17/outbox.cif.g08.bks.cpg/sg15_134_cif.got.tgz:266108.got - 2010.06.03 18:47:42.
