data_PCOD9256934
_publ_section_title
;
Structure prediction by ZEFSAII (Michael W. Deem and Ramdas Pophale) SiO2 
 PCOD9256934
Probable space group: C 2/C
;
_chemical_formula_sum "Si O2"
_cell_formula_units_Z 40
_cell_length_a 9.751854
_cell_length_b 13.380754
_cell_length_c 21.200765
_cell_angle_alpha 90.000000
_cell_angle_beta 138.770579
_cell_angle_gamma 90.000000
_cell_volume 1823.285301
_symmetry_space_group_name_H-M "C 2/C"
_symmetry_group_IT_number 15
_symmetry_cell_setting 'monoclinic'
loop_
_space_group_symop_operation_xyz
x,y,z
-x,y,1/2-z
-x,-y,-z
x,-y,1/2+z
1/2+x,1/2+y,z
1/2-x,1/2+y,1/2-z
1/2-x,1/2-y,-z
1/2+x,1/2-y,1/2+z
loop_
_atom_site_type_symbol
_atom_site_label
_atom_site_fract_x
_atom_site_fract_y
_atom_site_fract_z
Si Si1 0.506557 0.113085 0.823892
Si Si2 0.125542 0.399913 0.029553
Si Si3 0.062366 0.823237 0.180222
Si Si4 0.946254 0.813614 0.476771
Si Si5 0.119275 0.389457 0.876294
O O1 0.500000 0.153701 0.750000
O O2 0.708999 0.144678 0.719186
O O3 0.725473 0.151052 0.927105
O O4 0.516891 0.993564 0.823667
O O5 0.367228 0.391395 0.133638
O O6 0.003300 0.301173 0.009883
O O7 0.134400 0.390119 0.957115
O O8 0.000000 0.500000 0.000000
O O9 0.062941 0.825030 0.103202
O O10 0.008887 0.710546 0.182414
O O11 0.145160 0.878248 0.567649
#
# Coordination Sequence:
#
# PCOD9256934 Si02
#       5
#     8   8   8   8   8
#     4  10  18  30  49  71  91 119 155 190 225 267
#     4   9  17  32  50  67  90 124 155 183 223 274
#     4   8  17  31  46  67  95 121 151 186 226 274
#     4   8  16  31  50  66  89 124 155 180 225 283
#     4   9  17  32  49  67  92 122 152 187 226 270
#
# _framework density 21.938419
#
# number of rings (size 3 to 8) (size 9 to 14) (size 15 to 20)
#    0.000    3.200    0.000    3.000    0.000    1.600 
#    0.000    8.000    0.000    0.000    0.000    0.000 
#    0.000    0.000    0.000    0.000    0.000    0.000 
#
# Total GULP energy -111621.657647 kJ/mol
# GULP energy per Si atom -5581.082882 kJ/mol
# Density = 2.188849 g / cm^3
# Si number density = 21.938419 Si / 1000 Ang^3
#
#
#
# Elastic Constant Matrix: (Units=GPa)
#
#
# Indices 1 2 3 4 5 6 
#
# 1 112.6004 58.4288 70.5489 0.0000 50.8773 0.0000
# 2 58.4288 113.0488 55.0270 0.0000 63.3196 0.0000
# 3 70.5489 55.0270 83.7384 0.0000 50.4735 0.0000
# 4 0.0000 0.0000 0.0000 25.5382 0.0000 5.3006
# 5 50.8773 63.3196 50.4735 0.0000 68.1059 0.0000
# 6 0.0000 0.0000 0.0000 5.3006 0.0000 24.7099
#
#
#
# Elastic Compliance Matrix: (Units=1/GPa)
#
#
# Indices 1 2 3 4 5 6 
#
# 1 0.019700 -0.002010 -0.013613 0.000000 -0.002758 0.000000
# 2 -0.002010 0.019158 -0.001924 0.000000 -0.014884 0.000000
# 3 -0.013613 -0.001924 0.031570 0.000000 -0.011438 0.000000
# 4 0.000000 0.000000 0.000000 0.040982 0.000000 -0.008791
# 5 -0.002758 -0.014884 -0.011438 0.000000 0.039058 0.000000
# 6 0.000000 0.000000 0.000000 -0.008791 0.000000 0.042355
#
#
# Mechanical properties :
#
#
# Convention : Reuss Voigt Hill
#
# Bulk Modulus (GPa) = 28.30343 75.26634 51.78489
# Shear Modulus (GPa) = 20.85985 32.02966 26.44476
#
# Velocity S-wave (km/s) = 3.08691 3.82511 3.47567
# Velocity P-wave (km/s) = 5.06307 7.34106 6.30578
#
# Compressibility (1/GPa) = 0.03533140
#
# Stress axis : x y z
#
# Youngs Moduli (GPa) = 50.76206 52.19775 31.67613
#
# Poissons Ratio (x) = 0.10494 0.43121
# Poissons Ratio (y) = 0.10206 0.06096
# Poissons Ratio (z) = 0.69103 0.10045
#
# Static dielectric constant tensor:
#      x y z
#    x 1.830560 0.000000 -0.031610 
#    y 0.000000 1.755870 0.000000 
#    z -0.031610 0.000000 1.900330 
# 
# From -- ./inp_files/264028.got.cif
#   From: 2010.05.17/outbox.cif.g08.bks.cpg/sg15_133_cif.got.tgz:264028.got - 2010.06.03 18:47:42.
