data_PCOD9256186
_publ_section_title
;
Structure prediction by ZEFSAII (Michael W. Deem and Ramdas Pophale) SiO2 
 PCOD9256186
Probable space group: C 2/C
;
_chemical_formula_sum "Si O2"
_cell_formula_units_Z 64
_cell_length_a 27.045647
_cell_length_b 11.612094
_cell_length_c 9.787634
_cell_angle_alpha 90.000000
_cell_angle_beta 79.412883
_cell_angle_gamma 90.000000
_cell_volume 3021.543538
_symmetry_space_group_name_H-M "C 2/C"
_symmetry_group_IT_number 15
_symmetry_cell_setting 'monoclinic'
loop_
_space_group_symop_operation_xyz
x,y,z
-x,y,1/2-z
-x,-y,-z
x,-y,1/2+z
1/2+x,1/2+y,z
1/2-x,1/2+y,1/2-z
1/2-x,1/2-y,-z
1/2+x,1/2-y,1/2+z
loop_
_atom_site_type_symbol
_atom_site_label
_atom_site_fract_x
_atom_site_fract_y
_atom_site_fract_z
Si Si1 0.453284 0.073094 0.573551
Si Si2 0.817817 0.950217 0.927040
Si Si3 0.261834 0.665429 0.868353
Si Si4 0.127791 0.249576 0.724811
Si Si5 0.914408 0.802179 0.553782
Si Si6 0.391174 0.997760 0.350587
Si Si7 0.885845 0.033060 0.647921
Si Si8 0.674198 0.208935 0.700578
O O1 0.458696 0.209853 0.548118
O O2 0.408157 0.034381 0.493252
O O3 0.500000 0.000000 0.500000
O O4 0.437693 0.049588 0.736951
O O5 0.808625 0.816424 0.900821
O O6 0.772247 0.036335 0.917186
O O7 0.862717 0.990511 0.802835
O O8 0.839423 0.972003 0.065682
O O9 0.314543 0.713462 0.785143
O O10 0.218766 0.670425 0.777705
O O11 0.250000 0.750000 0.000000
O O12 0.108310 0.211480 0.585373
O O13 0.123770 0.386227 0.723181
O O14 0.098199 0.166161 0.844801
O O15 0.870751 0.757808 0.679620
O O16 0.924529 0.935364 0.580854
O O17 0.348865 0.899507 0.368081
#
# Coordination Sequence:
#
# PCOD9256186 Si02
#       8
#     8   8   8   8   8   8   8   8
#     4  10  21  40  67  91 117 152 198 249 317 382
#     4  10  21  34  54  81 110 162 207 250 291 348
#     4  11  19  35  56  77 120 165 211 248 297 348
#     4  10  20  34  55  85 116 166 200 242 301 358
#     4   9  17  37  55  85 114 154 190 241 306 359
#     4  10  23  39  60  89 126 156 198 255 315 365
#     4  10  17  35  55  79 116 147 206 235 296 354
#     4  10  21  35  55  83 118 160 202 254 298 351
#
# _framework density 21.181228000000001
#
# number of rings (size 3 to 8) (size 9 to 14) (size 15 to 20)
#    0.000    2.000    3.750    1.125    3.500    0.000 
#    0.000    2.500    0.000    0.750    0.000    3.500 
#    0.000    0.000    0.000    0.000    0.000    0.000 
#
# Total GULP energy -178537.226225 kJ/mol
# GULP energy per Si atom -5579.288320 kJ/mol
# Density = 2.113302 g / cm^3
# Si number density = 21.181228 Si / 1000 Ang^3
#
#
#
# Elastic Constant Matrix: (Units=GPa)
#
#
# Indices 1 2 3 4 5 6 
#
# 1 27.4921 32.2949 -6.4035 0.0000 -1.6386 0.0000
# 2 32.2949 189.2530 8.5973 0.0000 5.3820 0.0000
# 3 -6.4035 8.5973 41.9857 0.0000 4.3127 0.0000
# 4 0.0000 0.0000 0.0000 28.4235 0.0000 -3.5009
# 5 -1.6386 5.3820 4.3127 0.0000 14.2575 0.0000
# 6 0.0000 0.0000 0.0000 -3.5009 0.0000 33.7252
#
#
#
# Elastic Compliance Matrix: (Units=1/GPa)
#
#
# Indices 1 2 3 4 5 6 
#
# 1 0.049361 -0.009002 0.008711 0.000000 0.006436 0.000000
# 2 -0.009002 0.007017 -0.002509 0.000000 -0.002924 0.000000
# 3 0.008711 -0.002509 0.026276 0.000000 -0.006000 0.000000
# 4 0.000000 0.000000 0.000000 0.035638 0.000000 0.003699
# 5 0.006436 -0.002924 -0.006000 0.000000 0.073797 0.000000
# 6 0.000000 0.000000 0.000000 0.003699 0.000000 0.030035
#
#
# Mechanical properties :
#
#
# Convention : Reuss Voigt Hill
#
# Bulk Modulus (GPa) = 12.97807 36.41200 24.69504
# Shear Modulus (GPa) = 19.73081 30.23071 24.98076
#
# Velocity S-wave (km/s) = 3.05540 3.78198 3.43794
# Velocity P-wave (km/s) = 4.31135 6.02488 5.23865
#
# Compressibility (1/GPa) = 0.07705305
#
# Stress axis : x y z
#
# Youngs Moduli (GPa) = 20.25887 142.50667 38.05709
#
# Poissons Ratio (x) = 1.28283 -0.33150
# Poissons Ratio (y) = 0.18237 0.09550
# Poissons Ratio (z) = -0.17647 0.35761
#
# Static dielectric constant tensor:
#      x y z
#    x 1.760820 0.000000 -0.032920 
#    y 0.000000 1.864410 0.000000 
#    z -0.032920 0.000000 1.756160 
# 
# From -- ./inp_files/69364.got.cif
#   From: 2010.05.17/outbox.cif.g08.bks.cpg/sg15_35_cif.got.tgz:69364.got - 2010.06.03 18:47:42.
