data_PCOD9256037
_publ_section_title
;
Structure prediction by ZEFSAII (Michael W. Deem and Ramdas Pophale) SiO2 
 PCOD9256037
Probable space group: C 2/C
;
_chemical_formula_sum "Si O2"
_cell_formula_units_Z 64
_cell_length_a 10.403297
_cell_length_b 20.311049
_cell_length_c 19.255006
_cell_angle_alpha 90.000000
_cell_angle_beta 48.659591
_cell_angle_gamma 90.000000
_cell_volume 3054.712814
_symmetry_space_group_name_H-M "C 2/C"
_symmetry_group_IT_number 15
_symmetry_cell_setting 'monoclinic'
loop_
_space_group_symop_operation_xyz
x,y,z
-x,y,1/2-z
-x,-y,-z
x,-y,1/2+z
1/2+x,1/2+y,z
1/2-x,1/2+y,1/2-z
1/2-x,1/2-y,-z
1/2+x,1/2-y,1/2+z
loop_
_atom_site_type_symbol
_atom_site_label
_atom_site_fract_x
_atom_site_fract_y
_atom_site_fract_z
Si Si1 0.006462 0.009501 0.164899
Si Si2 0.571027 0.285846 0.428937
Si Si3 0.108372 0.482789 0.529399
Si Si4 0.525066 0.361395 0.322036
Si Si5 0.369264 0.154507 0.507576
Si Si6 0.936373 0.746068 0.846166
Si Si7 0.034866 0.135432 0.070144
Si Si8 0.558604 0.117146 0.582442
O O1 0.951652 0.071461 0.136481
O O2 0.000000 0.026919 0.250000
O O3 0.196788 0.992280 0.067408
O O4 0.917163 0.937656 0.192033
O O5 0.633109 0.313962 0.332935
O O6 0.441326 0.225867 0.465080
O O7 0.730138 0.255302 0.414837
O O8 0.507065 0.347512 0.499038
O O9 0.074455 0.407225 0.560429
O O10 0.053202 0.539860 0.602101
O O11 0.000000 0.500000 0.500000
O O12 0.500000 0.346480 0.250000
O O13 0.334370 0.348600 0.419220
O O14 0.441074 0.134932 0.558392
O O15 0.009047 0.796484 0.876102
O O16 0.983297 0.670904 0.845369
O O17 0.000000 0.769743 0.750000
O O18 0.240137 0.126995 0.007659
#
# Coordination Sequence:
#
# PCOD9256037 Si02
#       8
#     8   8   8   8   8   8   8   8
#     4   9  18  34  52  77 109 135 174 220 258 306
#     4  11  21  35  55  77 108 140 176 216 259 322
#     4   8  16  28  53  76  96 138 178 211 245 307
#     4  10  23  36  52  78 106 141 178 215 258 308
#     4  10  17  34  55  75 101 139 178 212 249 313
#     4  11  21  32  53  81 109 137 164 223 279 310
#     4  10  18  34  54  78 107 133 174 220 263 316
#     4   9  16  32  52  76 103 130 176 215 255 308
#
# _framework density 20.951232999999998
#
# number of rings (size 3 to 8) (size 9 to 14) (size 15 to 20)
#    0.000    2.250    2.500    1.500    1.750    0.500 
#    0.000    0.000    0.000    0.750    0.000    0.000 
#    0.000    0.000    0.000    0.000    0.000    0.000 
#
# Total GULP energy -178161.316509 kJ/mol
# GULP energy per Si atom -5567.541141 kJ/mol
# Density = 2.090355 g / cm^3
# Si number density = 20.951233 Si / 1000 Ang^3
#
#
#
# Elastic Constant Matrix: (Units=GPa)
#
#
# Indices 1 2 3 4 5 6 
#
# 1 33.9619 26.7719 6.3386 0.0001 8.6209 0.0000
# 2 26.7719 129.5635 24.0901 0.0000 16.5456 0.0000
# 3 6.3386 24.0901 40.4982 0.0000 15.7610 0.0000
# 4 0.0001 0.0000 0.0000 12.5855 0.0000 7.3570
# 5 8.6209 16.5456 15.7610 0.0000 26.3315 0.0000
# 6 0.0000 0.0000 0.0000 7.3570 0.0000 15.4675
#
#
#
# Elastic Compliance Matrix: (Units=1/GPa)
#
#
# Indices 1 2 3 4 5 6 
#
# 1 0.036698 -0.006779 0.001704 0.000000 -0.008775 0.000000
# 2 -0.006779 0.010126 -0.004367 0.000000 -0.001529 0.000000
# 3 0.001704 -0.004367 0.034121 0.000000 -0.018237 0.000000
# 4 0.000000 0.000000 0.000000 0.110057 0.000000 -0.052348
# 5 -0.008775 -0.001529 -0.018237 0.000000 0.052727 0.000000
# 6 0.000000 0.000000 0.000000 -0.052348 0.000000 0.089550
#
#
# Mechanical properties :
#
#
# Convention : Reuss Voigt Hill
#
# Bulk Modulus (GPa) = 16.11341 35.38053 25.74697
# Shear Modulus (GPa) = 13.41011 20.66510 17.03761
#
# Velocity S-wave (km/s) = 2.53269 3.14402 2.85477
# Velocity P-wave (km/s) = 4.03241 5.48667 4.81476
#
# Compressibility (1/GPa) = 0.06206012
#
# Stress axis : x y z
#
# Youngs Moduli (GPa) = 27.24925 98.75216 29.30735
#
# Poissons Ratio (x) = 0.66946 -0.04993
# Poissons Ratio (y) = 0.18473 0.12800
# Poissons Ratio (z) = -0.04643 0.43129
#
# Static dielectric constant tensor:
#      x y z
#    x 1.803650 0.000000 -0.010000 
#    y 0.000000 1.835520 0.000000 
#    z -0.010000 0.000000 1.764950 
# 
# From -- ./inp_files/239784.got.cif
#   From: 2010.05.17/outbox.cif.g08.bks.cpg/sg15_120_cif.got.tgz:239784.got - 2010.06.03 18:47:42.
