data_PCOD9256372
_publ_section_title
;
Structure prediction by ZEFSAII (Michael W. Deem and Ramdas Pophale) SiO2 
 PCOD9256372
Probable space group: C 2/C
;
_chemical_formula_sum "Si O2"
_cell_formula_units_Z 44
_cell_length_a 16.427791
_cell_length_b 10.291079
_cell_length_c 13.686029
_cell_angle_alpha 90.000000
_cell_angle_beta 125.699850
_cell_angle_gamma 90.000000
_cell_volume 1878.966577
_symmetry_space_group_name_H-M "C 2/C"
_symmetry_group_IT_number 15
_symmetry_cell_setting 'monoclinic'
loop_
_space_group_symop_operation_xyz
x,y,z
-x,y,1/2-z
-x,-y,-z
x,-y,1/2+z
1/2+x,1/2+y,z
1/2-x,1/2+y,1/2-z
1/2-x,1/2-y,-z
1/2+x,1/2-y,1/2+z
loop_
_atom_site_type_symbol
_atom_site_label
_atom_site_fract_x
_atom_site_fract_y
_atom_site_fract_z
Si Si1 0.513029 0.910449 0.913558
Si Si2 0.300104 0.958588 0.051646
Si Si3 0.190917 0.797456 0.813002
Si Si4 0.907186 0.166055 0.613729
Si Si5 0.500000 0.422485 0.750000
Si Si6 0.703434 0.820931 0.815120
O O1 0.571858 0.769229 0.959103
O O2 0.399813 0.883724 0.797942
O O3 0.588948 0.989681 0.896499
O O4 0.500000 0.000000 0.000000
O O5 0.299019 0.837193 0.123273
O O6 0.247044 0.074346 0.076502
O O7 0.252186 0.905707 0.918011
O O8 0.232311 0.788560 0.733706
O O9 0.076061 0.839120 0.740489
O O10 0.819703 0.200653 0.630038
O O11 0.000000 0.211703 0.750000
O O12 0.061963 0.015258 0.867500
#
# Coordination Sequence:
#
# PCOD9256372 Si02
#       6
#     8   8   8   8   4   8
#     4  10  17  36  67  91 115 160 202 253 307 355
#     4  10  23  40  61  95 122 154 217 256 298 371
#     4  11  24  40  62  88 129 164 198 261 309 363
#     4   7  17  35  59  81 120 155 192 246 294 364
#     4  10  22  40  58  84 124 168 190 248 324 362
#     4  10  20  38  67  84 118 166 204 253 303 359
#
# _framework density 23.417128999999999
#
# number of rings (size 3 to 8) (size 9 to 14) (size 15 to 20)
#    0.545    1.818    1.818    1.636    5.091    0.000 
#    0.000    6.364    0.000    0.000    0.000    0.000 
#    0.000    0.000    0.000    0.000    0.000    0.000 
#
# Total GULP energy -122701.122471 kJ/mol
# GULP energy per Si atom -5577.323749 kJ/mol
# Density = 2.336383 g / cm^3
# Si number density = 23.417129 Si / 1000 Ang^3
#
#
#
# Elastic Constant Matrix: (Units=GPa)
#
#
# Indices 1 2 3 4 5 6 
#
# 1 137.6544 6.8435 18.5574 0.0000 -26.0925 0.0000
# 2 6.8435 60.6031 -14.6141 0.0000 -25.5290 0.0000
# 3 18.5574 -14.6141 68.4630 0.0000 -17.9735 0.0000
# 4 0.0000 0.0000 0.0000 57.6183 0.0000 62.8874
# 5 -26.0925 -25.5290 -17.9735 0.0000 32.3991 0.0000
# 6 0.0000 0.0000 0.0000 62.8874 0.0000 155.6433
#
#
#
# Elastic Compliance Matrix: (Units=1/GPa)
#
#
# Indices 1 2 3 4 5 6 
#
# 1 0.008997 0.004000 0.001340 0.000000 0.011141 0.000000
# 2 0.004000 0.039758 0.019280 0.000000 0.045245 0.000000
# 3 0.001340 0.019280 0.026488 0.000000 0.030966 0.000000
# 4 0.000000 0.000000 0.000000 0.031047 0.000000 -0.012545
# 5 0.011141 0.045245 0.030966 0.000000 0.092667 0.000000
# 6 0.000000 0.000000 0.000000 -0.012545 0.000000 0.011494
#
#
# Mechanical properties :
#
#
# Convention : Reuss Voigt Hill
#
# Bulk Modulus (GPa) = 8.03309 32.03267 20.03288
# Shear Modulus (GPa) = 24.66652 66.19438 45.43045
#
# Velocity S-wave (km/s) = 3.24906 5.32249 4.40938
# Velocity P-wave (km/s) = 4.18486 7.17500 5.87340
#
# Compressibility (1/GPa) = 0.12448508
#
# Stress axis : x y z
#
# Youngs Moduli (GPa) = 111.15021 25.15220 37.75269
#
# Poissons Ratio (x) = -0.10062 -0.05059
# Poissons Ratio (y) = -0.44465 -0.72789
# Poissons Ratio (z) = -0.14896 -0.48495
#
# Static dielectric constant tensor:
#      x y z
#    x 1.908010 0.000000 0.190170 
#    y 0.000000 1.917900 0.000000 
#    z 0.190170 0.000000 2.157090 
# 
# From -- ./inp_files/152256.got.cif
#   From: 2010.05.17/outbox.cif.g08.bks.cpg/sg15_77_cif.got.tgz:152256.got - 2010.06.03 18:47:42.
