data_PCOD9256138
_publ_section_title
;
Structure prediction by ZEFSAII (Michael W. Deem and Ramdas Pophale) SiO2 
 PCOD9256138
Probable space group: C 2/C
;
_chemical_formula_sum "Si O2"
_cell_formula_units_Z 60
_cell_length_a 19.479415
_cell_length_b 8.030742
_cell_length_c 17.352691
_cell_angle_alpha 90.000000
_cell_angle_beta 79.559796
_cell_angle_gamma 90.000000
_cell_volume 2669.612945
_symmetry_space_group_name_H-M "C 2/C"
_symmetry_group_IT_number 15
_symmetry_cell_setting 'monoclinic'
loop_
_space_group_symop_operation_xyz
x,y,z
-x,y,1/2-z
-x,-y,-z
x,-y,1/2+z
1/2+x,1/2+y,z
1/2-x,1/2+y,1/2-z
1/2-x,1/2-y,-z
1/2+x,1/2-y,1/2+z
loop_
_atom_site_type_symbol
_atom_site_label
_atom_site_fract_x
_atom_site_fract_y
_atom_site_fract_z
Si Si1 0.480831 0.185636 0.535659
Si Si2 0.347499 0.016314 0.613986
Si Si3 0.500000 0.860715 0.750000
Si Si4 0.939718 0.193435 0.613360
Si Si5 0.772068 0.556876 0.987347
Si Si6 0.408429 0.126613 0.863100
Si Si7 0.310821 0.511576 0.138208
Si Si8 0.196561 0.298111 0.237521
O O1 0.402189 0.160919 0.579719
O O2 0.497819 0.305547 0.461081
O O3 0.533465 0.215464 0.596180
O O4 0.500000 0.000000 0.500000
O O5 0.327694 0.045214 0.705947
O O6 0.387789 0.842128 0.596430
O O7 0.282340 0.017149 0.569931
O O8 0.447720 0.982299 0.807467
O O9 0.464401 0.747502 0.692467
O O10 0.892082 0.031947 0.622796
O O11 0.848338 0.552468 0.931041
O O12 0.718266 0.465470 0.941952
O O13 0.750000 0.750000 0.000000
O O14 0.364687 0.237100 0.811436
O O15 0.265700 0.352998 0.178607
O O16 0.294031 0.656273 0.201507
#
# Coordination Sequence:
#
# PCOD9256138 Si02
#       8
#     8   8   4   8   8   8   8   8
#     4  10  17  34  61  95 115 154 210 254 297 372
#     4  11  19  37  63  94 122 157 215 259 309 373
#     4  12  20  34  66  96 118 166 206 262 310 378
#     4  11  20  38  63  92 119 162 209 259 311 370
#     4  11  21  35  64  90 122 166 208 258 314 378
#     4  11  19  33  60  93 119 159 208 246 314 371
#     4  11  25  42  59  90 129 166 213 257 320 374
#     4  11  25  39  60  90 128 167 208 266 313 375
#
# _framework density 22.475169000000001
#
# number of rings (size 3 to 8) (size 9 to 14) (size 15 to 20)
#    0.000    1.067    8.000    0.800    3.733    0.533 
#    0.000    2.667    0.000    0.000    0.000    0.000 
#    0.000    0.000    0.000    0.000    0.000    0.000 
#
# Total GULP energy -167707.510107 kJ/mol
# GULP energy per Si atom -5590.250337 kJ/mol
# Density = 2.242401 g / cm^3
# Si number density = 22.475169 Si / 1000 Ang^3
#
#
#
# Elastic Constant Matrix: (Units=GPa)
#
#
# Indices 1 2 3 4 5 6 
#
# 1 69.6935 -0.2148 24.6456 0.0000 9.8718 0.0000
# 2 -0.2148 42.7879 -5.3694 0.0000 7.2064 0.0000
# 3 24.6456 -5.3694 105.2369 0.0000 28.7763 0.0000
# 4 0.0000 0.0000 0.0000 26.6739 0.0000 2.1633
# 5 9.8718 7.2064 28.7763 0.0000 63.5993 0.0000
# 6 0.0000 0.0000 0.0000 2.1633 0.0000 21.7217
#
#
#
# Elastic Compliance Matrix: (Units=1/GPa)
#
#
# Indices 1 2 3 4 5 6 
#
# 1 0.015689 -0.000212 -0.003453 0.000000 -0.000849 0.000000
# 2 -0.000212 0.024296 0.002320 0.000000 -0.003770 0.000000
# 3 -0.003453 0.002320 0.011817 0.000000 -0.005074 0.000000
# 4 0.000000 0.000000 0.000000 0.037795 0.000000 -0.003764
# 5 -0.000849 -0.003770 -0.005074 0.000000 0.018578 0.000000
# 6 0.000000 0.000000 0.000000 -0.003764 0.000000 0.046412
#
#
# Mechanical properties :
#
#
# Convention : Reuss Voigt Hill
#
# Bulk Modulus (GPa) = 20.36119 28.42679 24.39399
# Shear Modulus (GPa) = 28.79407 35.64277 32.21842
#
# Velocity S-wave (km/s) = 3.58320 3.98662 3.79028
# Velocity P-wave (km/s) = 5.11841 5.81949 5.48017
#
# Compressibility (1/GPa) = 0.04911305
#
# Stress axis : x y z
#
# Youngs Moduli (GPa) = 63.73809 41.15885 84.62585
#
# Poissons Ratio (x) = 0.00871 0.29221
# Poissons Ratio (y) = 0.01349 -0.19633
# Poissons Ratio (z) = 0.22008 -0.09549
#
# Static dielectric constant tensor:
#      x y z
#    x 1.847850 0.000000 -0.013650 
#    y 0.000000 1.856780 0.000000 
#    z -0.013650 0.000000 1.828530 
# 
# From -- ./inp_files/209584.got.cif
#   From: 2010.05.17/outbox.cif.g08.bks.cpg/sg15_105_cif.got.tgz:209584.got - 2010.06.03 18:47:42.
