data_PCOD9256453
_publ_section_title
;
Structure prediction by ZEFSAII (Michael W. Deem and Ramdas Pophale) SiO2 
 PCOD9256453
Probable space group: C 2/C
;
_chemical_formula_sum "Si O2"
_cell_formula_units_Z 56
_cell_length_a 9.865702
_cell_length_b 10.213293
_cell_length_c 27.092664
_cell_angle_alpha 90.000000
_cell_angle_beta 108.429906
_cell_angle_gamma 90.000000
_cell_volume 2589.879091
_symmetry_space_group_name_H-M "C 2/C"
_symmetry_group_IT_number 15
_symmetry_cell_setting 'monoclinic'
loop_
_space_group_symop_operation_xyz
x,y,z
-x,y,1/2-z
-x,-y,-z
x,-y,1/2+z
1/2+x,1/2+y,z
1/2-x,1/2+y,1/2-z
1/2-x,1/2-y,-z
1/2+x,1/2-y,1/2+z
loop_
_atom_site_type_symbol
_atom_site_label
_atom_site_fract_x
_atom_site_fract_y
_atom_site_fract_z
Si Si1 0.500000 0.346668 0.750000
Si Si2 0.862180 0.408406 0.976587
Si Si3 0.617182 0.602833 0.529311
Si Si4 0.309220 0.928843 0.133173
Si Si5 0.537164 0.113465 0.170594
Si Si6 0.810257 0.139553 0.138213
Si Si7 0.699303 0.104965 0.752617
Si Si8 0.500000 0.312824 0.250000
O O1 0.572625 0.409466 0.807953
O O2 0.623018 0.247022 0.744073
O O3 0.915734 0.257596 0.977087
O O4 0.755580 0.434695 0.916877
O O5 0.758086 0.414571 0.011742
O O6 0.000000 0.500000 0.000000
O O7 0.500000 0.500000 0.500000
O O8 0.658751 0.565523 0.589656
O O9 0.366541 0.782482 0.128067
O O10 0.297266 0.940878 0.190514
O O11 0.413995 0.041366 0.126339
O O12 0.665948 0.167484 0.153007
O O13 0.473292 0.220803 0.199598
O O14 0.607303 0.997614 0.211252
O O15 0.856030 0.113422 0.748137
#
# Coordination Sequence:
#
# PCOD9256453 Si02
#       8
#     4   8   8   8   8   8   8   4
#     4  10  17  39  60  86 132 164 199 257 314 382
#     4  10  22  45  70  94 128 169 220 274 323 384
#     4  10  23  44  67  96 126 164 218 270 328 383
#     4  10  19  38  65  86 123 166 204 256 318 375
#     4  12  20  39  61  86 125 170 196 252 322 368
#     4  10  21  37  66  91 123 168 208 258 317 378
#     4  11  21  38  60  91 127 162 210 250 305 386
#     4  12  23  37  56  92 128 160 211 249 300 382
#
# _framework density 21.622630000000001
#
# number of rings (size 3 to 8) (size 9 to 14) (size 15 to 20)
#    0.000    1.429    7.143    0.857    0.000    1.143 
#    7.714    0.000    0.000    0.000    0.000    0.000 
#    0.000    0.000    0.000    0.000    0.000    0.000 
#
# Total GULP energy -156244.997881 kJ/mol
# GULP energy per Si atom -5580.178496 kJ/mol
# Density = 2.157342 g / cm^3
# Si number density = 21.622630 Si / 1000 Ang^3
#
#
#
# Elastic Constant Matrix: (Units=GPa)
#
#
# Indices 1 2 3 4 5 6 
#
# 1 93.0439 27.6425 18.6031 0.0000 13.8556 0.0000
# 2 27.6425 71.6594 39.3295 0.0000 26.9631 0.0000
# 3 18.6031 39.3295 135.5120 0.0000 19.6703 0.0000
# 4 0.0000 0.0000 0.0000 31.0594 0.0000 13.0726
# 5 13.8556 26.9631 19.6703 0.0000 27.2576 0.0000
# 6 0.0000 0.0000 0.0000 13.0726 0.0000 32.2006
#
#
#
# Elastic Compliance Matrix: (Units=1/GPa)
#
#
# Indices 1 2 3 4 5 6 
#
# 1 0.012250 -0.003677 -0.000266 0.000000 -0.002397 0.000000
# 2 -0.003677 0.025066 -0.003845 0.000000 -0.020151 0.000000
# 3 -0.000266 -0.003845 0.008892 0.000000 -0.002478 0.000000
# 4 0.000000 0.000000 0.000000 0.038832 0.000000 -0.015765
# 5 -0.002397 -0.020151 -0.002478 0.000000 0.059627 0.000000
# 6 0.000000 0.000000 0.000000 -0.015765 0.000000 0.037455
#
#
# Mechanical properties :
#
#
# Convention : Reuss Voigt Hill
#
# Bulk Modulus (GPa) = 32.64735 52.37394 42.51064
# Shear Modulus (GPa) = 24.04890 32.41286 28.23088
#
# Velocity S-wave (km/s) = 3.33860 3.87592 3.61725
# Velocity P-wave (km/s) = 5.47660 6.65618 6.09499
#
# Compressibility (1/GPa) = 0.03063036
#
# Stress axis : x y z
#
# Youngs Moduli (GPa) = 81.63021 39.89478 112.46593
#
# Poissons Ratio (x) = 0.14670 0.02997
# Poissons Ratio (y) = 0.30018 0.43243
# Poissons Ratio (z) = 0.02175 0.15339
#
# Static dielectric constant tensor:
#      x y z
#    x 1.777920 0.000000 0.001780 
#    y 0.000000 1.958110 0.000000 
#    z 0.001780 0.000000 1.852040 
# 
# From -- ./inp_files/288108.got.cif
#   From: 2010.05.17/outbox.cif.g08.bks.cpg/sg15_145_cif.got.tgz:288108.got - 2010.06.03 18:47:42.
