data_PCOD9256052
_publ_section_title
;
Structure prediction by ZEFSAII (Michael W. Deem and Ramdas Pophale) SiO2 
 PCOD9256052
Probable space group: C 2/C
;
_chemical_formula_sum "Si O2"
_cell_formula_units_Z 44
_cell_length_a 10.618468
_cell_length_b 21.349196
_cell_length_c 11.157940
_cell_angle_alpha 90.000000
_cell_angle_beta 82.417012
_cell_angle_gamma 90.000000
_cell_volume 2507.336927
_symmetry_space_group_name_H-M "C 2/C"
_symmetry_group_IT_number 15
_symmetry_cell_setting 'monoclinic'
loop_
_space_group_symop_operation_xyz
x,y,z
-x,y,1/2-z
-x,-y,-z
x,-y,1/2+z
1/2+x,1/2+y,z
1/2-x,1/2+y,1/2-z
1/2-x,1/2-y,-z
1/2+x,1/2-y,1/2+z
loop_
_atom_site_type_symbol
_atom_site_label
_atom_site_fract_x
_atom_site_fract_y
_atom_site_fract_z
Si Si1 0.111638 0.532762 0.141085
Si Si2 0.500000 0.679035 0.250000
Si Si3 0.551952 0.092722 0.538135
Si Si4 0.130902 0.251983 0.679369
Si Si5 0.266527 0.122953 0.206123
Si Si6 0.401091 0.213340 0.594327
O O1 0.224637 0.569283 0.192259
O O2 0.000000 0.545894 0.250000
O O3 0.067246 0.562207 0.020280
O O4 0.111491 0.458576 0.119494
O O5 0.621174 0.638630 0.199048
O O6 0.541830 0.725057 0.351545
O O7 0.656954 0.106584 0.423612
O O8 0.494116 0.154953 0.603173
O O9 0.167890 0.314376 0.748808
O O10 0.256073 0.208107 0.660842
O O11 0.107389 0.274707 0.546676
O O12 0.000000 0.225745 0.750000
#
# Coordination Sequence:
#
# PCOD9256052 Si02
#       6
#     8   4   8   8   8   8
#     4   9  18  32  55  79 100 135 182 234 272 312
#     4  10  24  34  50  82 114 154 178 218 282 332
#     4  10  18  32  55  81 101 135 186 234 266 315
#     4  10  17  34  56  77 111 150 180 214 280 334
#     4  10  18  37  53  75 112 148 182 220 279 335
#     4  10  20  32  53  82 111 144 181 227 267 326
#
# _framework density 17.548499
#
# number of rings (size 3 to 8) (size 9 to 14) (size 15 to 20)
#    0.000    2.182    3.636    0.545    1.273    0.727 
#    0.000    0.909    0.000    0.000   21.273    0.000 
#    0.000    0.000    0.000    0.000    0.000    0.000 
#
# Total GULP energy -122585.395684 kJ/mol
# GULP energy per Si atom -5572.063440 kJ/mol
# Density = 1.750856 g / cm^3
# Si number density = 17.548499 Si / 1000 Ang^3
#
#
#
# Elastic Constant Matrix: (Units=GPa)
#
#
# Indices 1 2 3 4 5 6 
#
# 1 116.0592 38.9014 23.5148 0.0000 -20.2416 0.0000
# 2 38.9014 67.2709 3.6194 0.0000 -14.2322 0.0000
# 3 23.5148 3.6194 26.5417 0.0000 -12.8591 0.0000
# 4 0.0000 0.0000 0.0000 30.7979 0.0000 3.5836
# 5 -20.2416 -14.2322 -12.8591 0.0000 19.1296 0.0000
# 6 0.0000 0.0000 0.0000 3.5836 0.0000 17.8620
#
#
#
# Elastic Compliance Matrix: (Units=1/GPa)
#
#
# Indices 1 2 3 4 5 6 
#
# 1 0.013211 -0.006553 -0.009491 0.000000 0.002724 0.000000
# 2 -0.006553 0.021530 0.010782 0.000000 0.016332 0.000000
# 3 -0.009491 0.010782 0.064710 0.000000 0.041478 0.000000
# 4 0.000000 0.000000 0.000000 0.033246 0.000000 -0.006670
# 5 0.002724 0.016332 0.041478 0.000000 0.095190 0.000000
# 6 0.000000 0.000000 0.000000 -0.006670 0.000000 0.057323
#
#
# Mechanical properties :
#
#
# Convention : Reuss Voigt Hill
#
# Bulk Modulus (GPa) = 11.24509 37.99369 24.61939
# Shear Modulus (GPa) = 15.36692 23.14698 19.25695
#
# Velocity S-wave (km/s) = 2.96240 3.63578 3.31623
# Velocity P-wave (km/s) = 4.25712 6.27080 5.35938
#
# Compressibility (1/GPa) = 0.08892767
#
# Stress axis : x y z
#
# Youngs Moduli (GPa) = 75.69690 46.44756 15.45351
#
# Poissons Ratio (x) = 0.30435 0.14667
# Poissons Ratio (y) = 0.49601 -0.16662
# Poissons Ratio (z) = 0.71843 -0.50080
#
# Static dielectric constant tensor:
#      x y z
#    x 1.612860 0.000000 0.015230 
#    y 0.000000 1.616670 0.000000 
#    z 0.015230 0.000000 1.601290 
# 
# From -- ./inp_files/78184.got.cif
#   From: 2010.05.17/outbox.cif.g08.bks.cpg/sg15_40_cif.got.tgz:78184.got - 2010.06.03 18:47:42.
