data_PCOD9256831
_publ_section_title
;
Structure prediction by ZEFSAII (Michael W. Deem and Ramdas Pophale) SiO2 
 PCOD9256831
Probable space group: C 2/C
;
_chemical_formula_sum "Si O2"
_cell_formula_units_Z 40
_cell_length_a 10.340695
_cell_length_b 14.747781
_cell_length_c 16.595013
_cell_angle_alpha 90.000000
_cell_angle_beta 40.380964
_cell_angle_gamma 90.000000
_cell_volume 1639.607004
_symmetry_space_group_name_H-M "C 2/C"
_symmetry_group_IT_number 15
_symmetry_cell_setting 'monoclinic'
loop_
_space_group_symop_operation_xyz
x,y,z
-x,y,1/2-z
-x,-y,-z
x,-y,1/2+z
1/2+x,1/2+y,z
1/2-x,1/2+y,1/2-z
1/2-x,1/2-y,-z
1/2+x,1/2-y,1/2+z
loop_
_atom_site_type_symbol
_atom_site_label
_atom_site_fract_x
_atom_site_fract_y
_atom_site_fract_z
Si Si1 0.366205 0.006235 0.189920
Si Si2 0.040687 0.223839 0.641125
Si Si3 0.782247 0.029743 0.920917
Si Si4 0.708552 0.183578 0.682519
Si Si5 0.505161 0.416653 0.933297
O O1 0.283523 0.984433 0.139486
O O2 0.357793 0.911909 0.243694
O O3 0.234512 0.080084 0.298773
O O4 0.587797 0.041020 0.069081
O O5 0.250000 0.250000 0.500000
O O6 0.075944 0.115224 0.632904
O O7 0.000000 0.258954 0.750000
O O8 0.842564 0.237539 0.682495
O O9 0.891777 0.943508 0.905547
O O10 0.500000 0.224256 0.750000
O O11 0.874929 0.161807 0.535260
O O12 0.500000 0.500000 0.000000
#
# Coordination Sequence:
#
# PCOD9256831 Si02
#       5
#     8   8   8   8   8
#     4  10  20  31  60  94 130 162 193 259 326 387
#     4  12  26  46  66  89 128 181 224 258 308 390
#     4  11  19  36  60  91 129 162 205 254 323 383
#     4  11  21  39  63  95 128 158 210 267 334 370
#     4  10  18  29  54  91 125 152 193 256 316 378
#
# _framework density 24.396087999999999
#
# number of rings (size 3 to 8) (size 9 to 14) (size 15 to 20)
#    0.000    1.200    8.000    0.600    0.000    1.600 
#    0.000    1.000    0.000    2.400    0.000    0.000 
#    0.000    0.000    0.000    0.000    0.000    0.000 
#
# Total GULP energy -111808.393245 kJ/mol
# GULP energy per Si atom -5590.419662 kJ/mol
# Density = 2.434056 g / cm^3
# Si number density = 24.396088 Si / 1000 Ang^3
#
#
#
# Elastic Constant Matrix: (Units=GPa)
#
#
# Indices 1 2 3 4 5 6 
#
# 1 153.2609 17.0392 44.9286 -0.0005 -14.2659 0.0001
# 2 17.0392 43.5289 20.9007 -0.0015 0.5478 0.0005
# 3 44.9286 20.9007 211.1177 -0.0030 -29.7686 0.0011
# 4 -0.0005 -0.0015 -0.0030 24.8657 0.0011 -10.2376
# 5 -14.2659 0.5478 -29.7686 0.0011 45.6050 -0.0003
# 6 0.0001 0.0005 0.0011 -10.2376 -0.0003 11.8484
#
#
#
# Elastic Compliance Matrix: (Units=1/GPa)
#
#
# Indices 1 2 3 4 5 6 
#
# 1 0.007251 -0.002336 -0.001088 0.000000 0.001586 0.000000
# 2 -0.002336 0.025045 -0.002344 0.000001 -0.002561 0.000000
# 3 -0.001088 -0.002344 0.005679 0.000000 0.003395 0.000000
# 4 0.000000 0.000001 0.000000 0.062422 -0.000001 0.053936
# 5 0.001586 -0.002561 0.003395 -0.000001 0.024670 -0.000001
# 6 0.000000 0.000000 0.000000 0.053936 -0.000001 0.131003
#
#
# Mechanical properties :
#
#
# Convention : Reuss Voigt Hill
#
# Bulk Modulus (GPa) = 37.82157 63.73828 50.77992
# Shear Modulus (GPa) = 18.08849 38.13309 28.11079
#
# Velocity S-wave (km/s) = 2.72591 3.95787 3.39819
# Velocity P-wave (km/s) = 5.04423 6.86072 6.02137
#
# Compressibility (1/GPa) = 0.02643994
#
# Stress axis : x y z
#
# Youngs Moduli (GPa) = 137.90876 39.92794 176.08851
#
# Poissons Ratio (x) = 0.09327 0.19163
# Poissons Ratio (y) = 0.32214 0.41267
# Poissons Ratio (z) = 0.15008 0.09357
#
# Static dielectric constant tensor:
#      x y z
#    x 1.954650 0.000000 0.000980 
#    y 0.000000 1.917990 0.000000 
#    z 0.000980 0.000000 1.974630 
# 
# From -- ./inp_files/135758.got.cif
#   From: 2010.05.17/outbox.cif.g08.bks.cpg/sg15_68_cif.got.tgz:135758.got - 2010.06.03 18:47:42.
