data_PCOD9256376
_publ_section_title
;
Structure prediction by ZEFSAII (Michael W. Deem and Ramdas Pophale) SiO2 
 PCOD9256376
Probable space group: C 2/C
;
_chemical_formula_sum "Si O2"
_cell_formula_units_Z 56
_cell_length_a 14.271340
_cell_length_b 12.961815
_cell_length_c 12.084827
_cell_angle_alpha 90.000000
_cell_angle_beta 95.971177
_cell_angle_gamma 90.000000
_cell_volume 2223.352203
_symmetry_space_group_name_H-M "C 2/C"
_symmetry_group_IT_number 15
_symmetry_cell_setting 'monoclinic'
loop_
_space_group_symop_operation_xyz
x,y,z
-x,y,1/2-z
-x,-y,-z
x,-y,1/2+z
1/2+x,1/2+y,z
1/2-x,1/2+y,1/2-z
1/2-x,1/2-y,-z
1/2+x,1/2-y,1/2+z
loop_
_atom_site_type_symbol
_atom_site_label
_atom_site_fract_x
_atom_site_fract_y
_atom_site_fract_z
Si Si1 0.500000 0.504385 0.750000
Si Si2 0.095861 0.517232 0.942183
Si Si3 0.646239 0.202417 0.086802
Si Si4 0.308679 0.423169 0.725028
Si Si5 0.368163 0.310169 0.940783
Si Si6 0.267836 0.883682 0.394965
Si Si7 0.948341 0.892148 0.457906
Si Si8 0.500000 0.889505 0.750000
O O1 0.415307 0.434524 0.689311
O O2 0.546263 0.581698 0.670285
O O3 0.072053 0.466802 0.821730
O O4 0.125842 0.633063 0.975505
O O5 0.177579 0.449067 0.006387
O O6 0.000000 0.500000 0.000000
O O7 0.739911 0.159260 0.159470
O O8 0.645795 0.322537 0.051156
O O9 0.562244 0.175552 0.168127
O O10 0.330725 0.398366 0.854723
O O11 0.263090 0.534838 0.699068
O O12 0.338499 0.207011 0.874336
O O13 0.318624 0.327320 0.053512
O O14 0.476924 0.313469 0.980011
O O15 0.000000 0.000000 0.500000
#
# Coordination Sequence:
#
# PCOD9256376 Si02
#       8
#     4   8   8   8   8   8   8   4
#     4  12  25  46  69 100 142 190 235 295 348 426
#     4   9  18  35  59  93 141 170 222 281 361 405
#     4  10  23  40  68 104 136 182 233 295 353 415
#     4  11  24  42  70 102 144 178 237 297 352 417
#     4  11  22  39  69  96 132 183 237 286 357 411
#     4  10  22  39  64 101 133 178 236 296 342 431
#     4  12  25  44  71  95 139 185 241 291 343 426
#     4  10  17  36  69 102 136 182 223 291 356 424
#
# _framework density 25.187190999999999
#
# number of rings (size 3 to 8) (size 9 to 14) (size 15 to 20)
#    0.000    1.429    2.857    3.000    2.000    1.143 
#    0.000    1.429   12.571    0.000    0.000    0.000 
#    0.000    0.000    0.000    0.000    0.000    0.000 
#
# Total GULP energy -156197.341188 kJ/mol
# GULP energy per Si atom -5578.476471 kJ/mol
# Density = 2.512986 g / cm^3
# Si number density = 25.187191 Si / 1000 Ang^3
#
#
#
# Elastic Constant Matrix: (Units=GPa)
#
#
# Indices 1 2 3 4 5 6 
#
# 1 91.9540 30.1985 5.6553 0.0000 19.7891 0.0000
# 2 30.1985 130.1571 43.8574 0.0000 16.2911 0.0000
# 3 5.6553 43.8574 95.8482 0.0000 27.7361 0.0000
# 4 0.0000 0.0000 0.0000 13.9766 0.0000 -1.8303
# 5 19.7891 16.2911 27.7361 0.0000 42.3056 0.0000
# 6 0.0000 0.0000 0.0000 -1.8303 0.0000 33.4160
#
#
#
# Elastic Compliance Matrix: (Units=1/GPa)
#
#
# Indices 1 2 3 4 5 6 
#
# 1 0.013160 -0.003083 0.002557 0.000000 -0.006645 0.000000
# 2 -0.003083 0.009837 -0.004493 0.000000 0.000600 0.000000
# 3 0.002557 -0.004493 0.015036 0.000000 -0.009324 0.000000
# 4 0.000000 0.000000 0.000000 0.072065 0.000000 0.003947
# 5 -0.006645 0.000600 -0.009324 0.000000 0.032628 0.000000
# 6 0.000000 0.000000 0.000000 0.003947 0.000000 0.030142
#
#
# Mechanical properties :
#
#
# Convention : Reuss Voigt Hill
#
# Bulk Modulus (GPa) = 35.71924 53.04239 44.38081
# Shear Modulus (GPa) = 26.00933 33.82286 29.91610
#
# Velocity S-wave (km/s) = 3.21696 3.66848 3.45011
# Velocity P-wave (km/s) = 5.29252 6.24889 5.79048
#
# Compressibility (1/GPa) = 0.02799612
#
# Stress axis : x y z
#
# Youngs Moduli (GPa) = 75.98526 101.65437 66.50602
#
# Poissons Ratio (x) = 0.31344 -0.17008
# Poissons Ratio (y) = 0.23429 0.29880
# Poissons Ratio (z) = -0.19432 0.45672
#
# Static dielectric constant tensor:
#      x y z
#    x 2.203050 0.000000 -0.102940 
#    y 0.000000 2.055870 0.000000 
#    z -0.102940 0.000000 2.047010 
# 
# From -- ./inp_files/161463.got.cif
#   From: 2010.05.17/outbox.cif.g08.bks.cpg/sg15_81_cif.got.tgz:161463.got - 2010.06.03 18:47:42.
