data_PCOD9256577
_publ_section_title
;
Structure prediction by ZEFSAII (Michael W. Deem and Ramdas Pophale) SiO2 
 PCOD9256577
Probable space group: C 2/C
;
_chemical_formula_sum "Si O2"
_cell_formula_units_Z 60
_cell_length_a 26.624316
_cell_length_b 17.381020
_cell_length_c 8.841271
_cell_angle_alpha 90.000000
_cell_angle_beta 114.310176
_cell_angle_gamma 90.000000
_cell_volume 3728.586062
_symmetry_space_group_name_H-M "C 2/C"
_symmetry_group_IT_number 15
_symmetry_cell_setting 'monoclinic'
loop_
_space_group_symop_operation_xyz
x,y,z
-x,y,1/2-z
-x,-y,-z
x,-y,1/2+z
1/2+x,1/2+y,z
1/2-x,1/2+y,1/2-z
1/2-x,1/2-y,-z
1/2+x,1/2-y,1/2+z
loop_
_atom_site_type_symbol
_atom_site_label
_atom_site_fract_x
_atom_site_fract_y
_atom_site_fract_z
Si Si1 0.320202 0.746159 0.927122
Si Si2 0.922083 0.050744 0.400882
Si Si3 0.653994 0.401110 0.209995
Si Si4 0.191107 0.697253 0.758562
Si Si5 0.717430 0.050800 0.622605
Si Si6 0.000000 0.005372 0.250000
Si Si7 0.210671 0.394288 0.773111
Si Si8 0.662803 0.658961 0.057452
O O1 0.351564 0.669391 0.913974
O O2 0.256093 0.719005 0.847052
O O3 0.322471 0.817598 0.813346
O O4 0.332846 0.778764 0.108932
O O5 0.878635 0.116964 0.380424
O O6 0.955309 0.054500 0.286427
O O7 0.888601 0.970222 0.362794
O O8 0.967217 0.046043 0.589184
O O9 0.716141 0.436333 0.278175
O O10 0.647870 0.364454 0.368901
O O11 0.189375 0.609278 0.706132
O O12 0.165207 0.751135 0.597218
O O13 0.702511 0.076074 0.433882
O O14 0.702171 0.964115 0.646131
O O15 0.275265 0.371892 0.840524
#
# Coordination Sequence:
#
# PCOD9256577 Si02
#       8
#     8   8   8   8   8   4   8   8
#     4   9  18  29  42  63  89 116 153 193 223 261
#     4  11  20  36  48  68  90 122 156 198 240 287
#     4  10  19  30  47  64  86 121 158 190 228 280
#     4   9  18  29  42  63  89 116 153 193 223 261
#     4  10  18  28  43  65  92 122 156 190 224 263
#     4  10  24  34  48  66  92 114 154 206 252 270
#     4  10  18  28  43  65  92 122 156 190 224 263
#     4  10  19  30  47  64  86 121 158 190 228 280
#
# _framework density 16.091892000000001
#
# number of rings (size 3 to 8) (size 9 to 14) (size 15 to 20)
#    0.000    2.133    2.667    1.600    1.867    4.267 
#    0.000    0.000    0.000    0.000    0.000    0.000 
#    0.000    0.000    0.000    7.200    0.000    0.533 
#
# Total GULP energy -167260.067080 kJ/mol
# GULP energy per Si atom -5575.335569 kJ/mol
# Density = 1.605527 g / cm^3
# Si number density = 16.091892 Si / 1000 Ang^3
#
#
#
# Elastic Constant Matrix: (Units=GPa)
#
#
# Indices 1 2 3 4 5 6 
#
# 1 50.8194 14.7357 3.7237 0.0000 -13.5470 0.0000
# 2 14.7357 59.6062 5.6962 0.0000 -1.2339 0.0000
# 3 3.7237 5.6962 31.7306 0.0000 -3.6065 0.0000
# 4 0.0000 0.0000 0.0000 20.8223 0.0000 -7.1812
# 5 -13.5470 -1.2339 -3.6065 0.0000 17.1891 0.0000
# 6 0.0000 0.0000 0.0000 -7.1812 0.0000 10.1521
#
#
#
# Elastic Compliance Matrix: (Units=1/GPa)
#
#
# Indices 1 2 3 4 5 6 
#
# 1 0.027060 -0.006288 0.000334 0.000000 0.020945 0.000000
# 2 -0.006288 0.018537 -0.003075 0.000000 -0.004270 0.000000
# 3 0.000334 -0.003075 0.032816 0.000000 0.006928 0.000000
# 4 0.000000 0.000000 0.000000 0.063522 0.000000 0.044933
# 5 0.020945 -0.004270 0.006928 0.000000 0.075831 0.000000
# 6 0.000000 0.000000 0.000000 0.044933 0.000000 0.130286
#
#
# Mechanical properties :
#
#
# Convention : Reuss Voigt Hill
#
# Bulk Modulus (GPa) = 16.56903 21.16303 18.86603
# Shear Modulus (GPa) = 12.94576 17.49940 15.22258
#
# Velocity S-wave (km/s) = 2.83943 3.30125 3.07901
# Velocity P-wave (km/s) = 4.59006 5.26412 4.93860
#
# Compressibility (1/GPa) = 0.06035355
#
# Stress axis : x y z
#
# Youngs Moduli (GPa) = 36.95544 53.94688 30.47336
#
# Poissons Ratio (x) = 0.33921 -0.01018
# Poissons Ratio (y) = 0.23237 0.09371
# Poissons Ratio (z) = -0.01234 0.16589
#
# Static dielectric constant tensor:
#      x y z
#    x 1.535720 0.000000 -0.033520 
#    y 0.000000 1.528360 0.000000 
#    z -0.033520 0.000000 1.561200 
# 
# From -- ./inp_files/61549.got.cif
#   From: 2010.05.17/outbox.cif.g08.bks.cpg/sg15_31_cif.got.tgz:61549.got - 2010.06.03 18:47:42.
