data_PCOD9256687
_publ_section_title
;
Structure prediction by ZEFSAII (Michael W. Deem and Ramdas Pophale) SiO2 
 PCOD9256687
Probable space group: C 2/C
;
_chemical_formula_sum "Si O2"
_cell_formula_units_Z 52
_cell_length_a 21.229381
_cell_length_b 9.730155
_cell_length_c 30.621456
_cell_angle_alpha 90.000000
_cell_angle_beta 24.757817
_cell_angle_gamma 90.000000
_cell_volume 2648.943088
_symmetry_space_group_name_H-M "C 2/C"
_symmetry_group_IT_number 15
_symmetry_cell_setting 'monoclinic'
loop_
_space_group_symop_operation_xyz
x,y,z
-x,y,1/2-z
-x,-y,-z
x,-y,1/2+z
1/2+x,1/2+y,z
1/2-x,1/2+y,1/2-z
1/2-x,1/2-y,-z
1/2+x,1/2-y,1/2+z
loop_
_atom_site_type_symbol
_atom_site_label
_atom_site_fract_x
_atom_site_fract_y
_atom_site_fract_z
Si Si1 0.675560 0.190873 0.205232
Si Si2 0.219156 0.060606 0.543901
Si Si3 0.544425 0.713650 0.585372
Si Si4 0.494017 0.660013 0.516534
Si Si5 0.500000 0.603211 0.750000
Si Si6 0.635431 0.159189 0.600240
Si Si7 0.686786 0.131896 0.670268
O O1 0.589430 0.210060 0.305025
O O2 0.588350 0.293174 0.227069
O O3 0.673878 0.032362 0.189580
O O4 0.852095 0.228067 0.097375
O O5 0.303907 0.194519 0.509205
O O6 0.098246 0.087955 0.581749
O O7 0.119065 0.012286 0.647767
O O8 0.349977 0.978753 0.437455
O O9 0.499128 0.675140 0.565395
O O10 0.500000 0.500000 0.500000
O O11 0.335417 0.702455 0.595981
O O12 0.750000 0.250000 0.500000
O O13 0.687954 0.140796 0.617089
O O14 0.461783 0.198819 0.714973
#
# Coordination Sequence:
#
# PCOD9256687 Si02
#       7
#     8   8   8   8   4   8   8
#     4  10  18  32  57  87 117 149 191 242 299 351
#     4  10  19  33  56  88 116 144 193 248 292 344
#     4  10  19  32  59  90 115 145 189 248 301 341
#     4  10  20  34  54  85 123 152 186 232 299 362
#     4  10  18  28  56  88 120 144 178 254 308 336
#     4  11  23  39  60  82 112 160 206 240 289 357
#     4  10  22  38  58  81 112 159 202 241 289 355
#
# _framework density 19.630471
#
# number of rings (size 3 to 8) (size 9 to 14) (size 15 to 20)
#    0.000    1.846    3.077    2.769    2.154    2.462 
#    0.000    0.000    0.000    0.923    0.000    0.000 
#    0.000    0.000    0.000    0.000    0.000    0.000 
#
# Total GULP energy -144827.861511 kJ/mol
# GULP energy per Si atom -5570.302366 kJ/mol
# Density = 1.958579 g / cm^3
# Si number density = 19.630471 Si / 1000 Ang^3
#
#
#
# Elastic Constant Matrix: (Units=GPa)
#
#
# Indices 1 2 3 4 5 6 
#
# 1 104.8593 13.8807 72.5414 -0.0009 -0.3852 0.0001
# 2 13.8807 18.5563 13.0298 -0.0003 3.6561 -0.0002
# 3 72.5414 13.0298 180.3957 -0.0005 12.6615 -0.0002
# 4 -0.0009 -0.0003 -0.0005 26.2955 -0.0001 8.0443
# 5 -0.3852 3.6561 12.6615 -0.0001 42.3777 0.0001
# 6 0.0001 -0.0002 -0.0002 8.0443 0.0001 20.4421
#
#
#
# Elastic Compliance Matrix: (Units=1/GPa)
#
#
# Indices 1 2 3 4 5 6 
#
# 1 0.014221 -0.007344 -0.005354 0.000000 0.002363 0.000000
# 2 -0.007344 0.061151 -0.001112 0.000000 -0.005010 0.000001
# 3 -0.005354 -0.001112 0.007940 0.000000 -0.002325 0.000000
# 4 0.000000 0.000000 0.000000 0.043234 0.000000 -0.017013
# 5 0.002363 -0.005010 -0.002325 0.000000 0.024746 0.000000
# 6 0.000000 0.000001 0.000000 -0.017013 0.000000 0.055614
#
#
# Mechanical properties :
#
#
# Convention : Reuss Voigt Hill
#
# Bulk Modulus (GPa) = 17.95576 55.85723 36.90649
# Shear Modulus (GPa) = 19.75577 31.44704 25.60140
#
# Velocity S-wave (km/s) = 3.17580 4.00678 3.61524
# Velocity P-wave (km/s) = 4.75545 7.06554 6.02230
#
# Compressibility (1/GPa) = 0.05569245
#
# Stress axis : x y z
#
# Youngs Moduli (GPa) = 70.31663 16.35284 125.94616
#
# Poissons Ratio (x) = 0.12009 0.67433
# Poissons Ratio (y) = 0.51640 0.14006
# Poissons Ratio (z) = 0.37648 0.01819
#
# Static dielectric constant tensor:
#      x y z
#    x 1.673790 0.000000 -0.018660 
#    y 0.000000 1.883090 0.000000 
#    z -0.018660 0.000000 1.737360 
# 
# From -- ./inp_files/298857.got.cif
#   From: 2010.05.17/outbox.cif.g08.bks.cpg/sg15_150_cif.got.tgz:298857.got - 2010.06.03 18:47:42.
