data_PCOD9256360
_publ_section_title
;
Structure prediction by ZEFSAII (Michael W. Deem and Ramdas Pophale) SiO2 
 PCOD9256360
Probable space group: C 2/C
;
_chemical_formula_sum "Si O2"
_cell_formula_units_Z 48
_cell_length_a 25.848018
_cell_length_b 11.991157
_cell_length_c 14.268503
_cell_angle_alpha 90.000000
_cell_angle_beta 30.824393
_cell_angle_gamma 90.000000
_cell_volume 2266.120929
_symmetry_space_group_name_H-M "C 2/C"
_symmetry_group_IT_number 15
_symmetry_cell_setting 'monoclinic'
loop_
_space_group_symop_operation_xyz
x,y,z
-x,y,1/2-z
-x,-y,-z
x,-y,1/2+z
1/2+x,1/2+y,z
1/2-x,1/2+y,1/2-z
1/2-x,1/2-y,-z
1/2+x,1/2-y,1/2+z
loop_
_atom_site_type_symbol
_atom_site_label
_atom_site_fract_x
_atom_site_fract_y
_atom_site_fract_z
Si Si1 0.897509 0.712424 0.799100
Si Si2 0.385114 0.141692 0.033034
Si Si3 0.024331 0.403820 0.602940
Si Si4 0.206067 0.627810 0.055154
Si Si5 0.731458 0.587086 0.944632
Si Si6 0.774205 0.680023 0.684691
O O1 0.835926 0.642551 0.818945
O O2 0.015517 0.712666 0.596811
O O3 0.878355 0.651450 0.929698
O O4 0.852985 0.835496 0.876494
O O5 0.287169 0.204227 0.225008
O O6 0.416916 0.017753 0.016337
O O7 0.108116 0.306929 0.469072
O O8 0.000000 0.421123 0.750000
O O9 0.913614 0.381394 0.733567
O O10 0.265860 0.537060 0.021889
O O11 0.250000 0.750000 0.000000
O O12 0.222144 0.612699 0.918200
O O13 0.723389 0.608480 0.846719
#
# Coordination Sequence:
#
# PCOD9256360 Si02
#       6
#     8   8   8   8   8   8
#     4   9  17  34  64  92 118 153 216 271 304 350
#     4  10  17  36  64  92 116 161 213 260 304 377
#     4  10  19  39  64  87 125 168 206 255 312 375
#     4  11  24  42  59  93 136 169 203 263 330 378
#     4  10  20  38  61  94 121 163 209 265 313 372
#     4  10  24  36  61  94 121 160 221 255 309 380
#
# _framework density 21.181570000000001
#
# number of rings (size 3 to 8) (size 9 to 14) (size 15 to 20)
#    0.000    2.000    3.333    1.000    2.333    2.000 
#    0.000    2.500   11.000    0.000    0.000    0.000 
#    0.000    0.000    0.000    0.000    0.000    0.000 
#
# Total GULP energy -133957.609001 kJ/mol
# GULP energy per Si atom -5581.567042 kJ/mol
# Density = 2.113336 g / cm^3
# Si number density = 21.181570 Si / 1000 Ang^3
#
#
#
# Elastic Constant Matrix: (Units=GPa)
#
#
# Indices 1 2 3 4 5 6 
#
# 1 71.9249 41.0771 31.6824 0.0000 1.6473 0.0000
# 2 41.0771 145.3560 64.1084 0.0000 -21.5135 0.0000
# 3 31.6824 64.1084 96.4003 0.0000 -15.4983 0.0000
# 4 0.0000 0.0000 0.0000 31.4281 0.0000 -5.2814
# 5 1.6473 -21.5135 -15.4983 0.0000 44.1500 0.0000
# 6 0.0000 0.0000 0.0000 -5.2814 0.0000 26.9493
#
#
#
# Elastic Compliance Matrix: (Units=1/GPa)
#
#
# Indices 1 2 3 4 5 6 
#
# 1 0.017971 -0.003933 -0.003928 0.000000 -0.003966 0.000000
# 2 -0.003933 0.010890 -0.005376 0.000000 0.003566 0.000000
# 3 -0.003928 -0.005376 0.015730 0.000000 0.003049 0.000000
# 4 0.000000 0.000000 0.000000 0.032902 0.000000 0.006448
# 5 -0.003966 0.003566 0.003049 0.000000 0.025606 0.000000
# 6 0.000000 0.000000 0.000000 0.006448 0.000000 0.038370
#
#
# Mechanical properties :
#
#
# Convention : Reuss Voigt Hill
#
# Bulk Modulus (GPa) = 55.20047 65.26856 60.23452
# Shear Modulus (GPa) = 28.73851 32.29304 30.51578
#
# Velocity S-wave (km/s) = 3.68743 3.90883 3.79974
# Velocity P-wave (km/s) = 6.65182 7.15909 6.91011
#
# Compressibility (1/GPa) = 0.01811579
#
# Stress axis : x y z
#
# Youngs Moduli (GPa) = 55.64608 91.82704 63.57315
#
# Poissons Ratio (x) = 0.36115 0.24973
# Poissons Ratio (y) = 0.21885 0.34179
# Poissons Ratio (z) = 0.21859 0.49369
#
# Static dielectric constant tensor:
#      x y z
#    x 1.857870 0.000000 0.039890 
#    y 0.000000 1.776850 0.000000 
#    z 0.039890 0.000000 1.797980 
# 
# From -- ./inp_files/177749.got.cif
#   From: 2010.05.17/outbox.cif.g08.bks.cpg/sg15_89_cif.got.tgz:177749.got - 2010.06.03 18:47:42.
