data_PCOD9256294
_publ_section_title
;
Structure prediction by ZEFSAII (Michael W. Deem and Ramdas Pophale) SiO2 
 PCOD9256294
Probable space group: C 2/C
;
_chemical_formula_sum "Si O2"
_cell_formula_units_Z 56
_cell_length_a 8.765337
_cell_length_b 12.302362
_cell_length_c 24.308699
_cell_angle_alpha 90.000000
_cell_angle_beta 127.108745
_cell_angle_gamma 90.000000
_cell_volume 2090.475543
_symmetry_space_group_name_H-M "C 2/C"
_symmetry_group_IT_number 15
_symmetry_cell_setting 'monoclinic'
loop_
_space_group_symop_operation_xyz
x,y,z
-x,y,1/2-z
-x,-y,-z
x,-y,1/2+z
1/2+x,1/2+y,z
1/2-x,1/2+y,1/2-z
1/2-x,1/2-y,-z
1/2+x,1/2-y,1/2+z
loop_
_atom_site_type_symbol
_atom_site_label
_atom_site_fract_x
_atom_site_fract_y
_atom_site_fract_z
Si Si1 0.941807 0.638668 0.542393
Si Si2 0.615354 0.971123 0.645470
Si Si3 0.765755 0.998694 0.379137
Si Si4 0.570213 0.491273 0.198819
Si Si5 0.167522 0.770208 0.183062
Si Si6 0.030462 0.149636 0.497780
Si Si7 0.515903 0.269215 0.835958
O O1 0.970317 0.720106 0.497941
O O2 0.717536 0.614092 0.502250
O O3 0.073956 0.533791 0.579360
O O4 0.979902 0.721287 0.602334
O O5 0.445192 0.021294 0.645206
O O6 0.582375 0.843509 0.644817
O O7 0.813971 0.004607 0.718319
O O8 0.844085 0.105087 0.427793
O O9 0.772903 0.011848 0.315851
O O10 0.925578 0.912385 0.436049
O O11 0.526375 0.366254 0.172373
O O12 0.444723 0.600428 0.161034
O O13 0.329208 0.787670 0.170475
O O14 0.305986 0.747032 0.265154
#
# Coordination Sequence:
#
# PCOD9256294 Si02
#       7
#     8   8   8   8   8   8   8
#     4  10  17  36  57  80 110 146 197 240 286 349
#     4  10  21  34  56  85 115 149 185 242 311 351
#     4  10  19  34  55  85 110 139 200 247 286 344
#     4  11  20  35  59  85 115 153 194 243 297 358
#     4  10  21  36  54  84 121 149 187 235 300 365
#     4   9  19  31  57  84 105 148 191 249 284 335
#     4  10  20  35  58  83 112 156 194 233 293 360
#
# _framework density 26.788163999999998
#
# number of rings (size 3 to 8) (size 9 to 14) (size 15 to 20)
#    0.000    2.000    2.857    2.143    2.000    0.000 
#    2.571    0.000    6.286   27.429    0.000    0.000 
#    0.000    0.000    0.000    0.000    0.000    0.000 
#
# Total GULP energy -156389.059388 kJ/mol
# GULP energy per Si atom -5585.323550 kJ/mol
# Density = 2.672719 g / cm^3
# Si number density = 26.788164 Si / 1000 Ang^3
#
#
#
# Elastic Constant Matrix: (Units=GPa)
#
#
# Indices 1 2 3 4 5 6 
#
# 1 1.5265 8.0893 -2.2912 0.0000 19.3405 0.0000
# 2 8.0893 168.0755 12.7914 0.0000 11.4735 0.0000
# 3 -2.2912 12.7914 74.6968 0.0000 16.3578 0.0000
# 4 0.0000 0.0000 0.0000 53.3612 0.0000 1.6683
# 5 19.3405 11.4735 16.3578 0.0000 39.0058 0.0000
# 6 0.0000 0.0000 0.0000 1.6683 0.0000 48.5004
#
#
#
# Elastic Compliance Matrix: (Units=1/GPa)
#
#
# Indices 1 2 3 4 5 6 
#
# 1 -0.102685 0.002272 -0.016013 0.000000 0.056962 0.000000
# 2 0.002272 0.006056 -0.000364 0.000000 -0.002755 0.000000
# 3 -0.016013 -0.000364 0.012329 0.000000 0.002877 0.000000
# 4 0.000000 0.000000 0.000000 0.018760 0.000000 -0.000645
# 5 0.056962 -0.002755 0.002877 0.000000 -0.003002 0.000000
# 6 0.000000 0.000000 0.000000 -0.000645 0.000000 0.020641
#
#
# Mechanical properties :
#
#
# Convention : Reuss Voigt Hill
#
# Bulk Modulus (GPa) = -8.88818 31.27530 11.19356
# Shear Modulus (GPa) = -87.41955 43.22075 -22.09940
#
# Velocity S-wave (km/s) = -5.71878 4.02111 -2.87534
# Velocity P-wave (km/s) = 6.85063 5.76710 2.61454
#
# Compressibility (1/GPa) = -0.11250902
#
# Stress axis : x y z
#
# Youngs Moduli (GPa) = -9.73854 165.12156 81.11179
#
# Poissons Ratio (x) = -0.37521 1.29883
# Poissons Ratio (y) = 0.02213 0.02952
# Poissons Ratio (z) = -0.15594 0.06010
#
# Static dielectric constant tensor:
#      x y z
#    x 2.107100 0.000000 -0.025250 
#    y 0.000000 2.278570 0.000000 
#    z -0.025250 0.000000 2.100530 
# 
# From -- ./inp_files/291969.got.cif
#   From: 2010.05.17/outbox.cif.g08.bks.cpg/sg15_146_cif.got.tgz:291969.got - 2010.06.03 18:47:42.
