data_PCOD9256783
_publ_section_title
;
Structure prediction by ZEFSAII (Michael W. Deem and Ramdas Pophale) SiO2 
 PCOD9256783
Probable space group: C 2/C
;
_chemical_formula_sum "Si O2"
_cell_formula_units_Z 64
_cell_length_a 21.273867
_cell_length_b 27.776151
_cell_length_c 5.264004
_cell_angle_alpha 90.000000
_cell_angle_beta 91.619072
_cell_angle_gamma 90.000000
_cell_volume 3109.290464
_symmetry_space_group_name_H-M "C 2/C"
_symmetry_group_IT_number 15
_symmetry_cell_setting 'monoclinic'
loop_
_space_group_symop_operation_xyz
x,y,z
-x,y,1/2-z
-x,-y,-z
x,-y,1/2+z
1/2+x,1/2+y,z
1/2-x,1/2+y,1/2-z
1/2-x,1/2-y,-z
1/2+x,1/2-y,1/2+z
loop_
_atom_site_type_symbol
_atom_site_label
_atom_site_fract_x
_atom_site_fract_y
_atom_site_fract_z
Si Si1 0.920591 0.373429 0.370348
Si Si2 0.539016 0.294481 0.011688
Si Si3 0.276131 0.027915 0.115386
Si Si4 0.579839 0.814869 0.607276
Si Si5 0.223434 0.373220 0.127296
Si Si6 0.318474 0.312314 0.407496
Si Si7 0.928647 0.474038 0.599512
Si Si8 0.210423 0.714177 0.255809
O O1 0.925651 0.335458 0.606732
O O2 0.846983 0.386449 0.292488
O O3 0.946759 0.422740 0.485896
O O4 0.943872 0.351784 0.107445
O O5 0.500000 0.312327 0.250000
O O6 0.549699 0.237091 0.056355
O O7 0.608805 0.317267 0.017182
O O8 0.500000 0.301644 0.750000
O O9 0.257329 0.082894 0.054013
O O10 0.352228 0.026838 0.115133
O O11 0.255212 0.993471 0.881652
O O12 0.654494 0.806260 0.571703
O O13 0.279980 0.359657 0.322409
O O14 0.211415 0.322944 0.983885
O O15 0.277606 0.289643 0.630478
O O16 0.311820 0.268771 0.198993
O O17 0.946159 0.486148 0.890278
#
# Coordination Sequence:
#
# PCOD9256783 Si02
#       8
#     8   8   8   8   8   8   8   8
#     4  10  18  29  49  76 103 136 176 214 255 308
#     4  11  25  41  55  73 105 144 176 216 261 310
#     4   9  19  30  44  67 105 150 180 205 249 318
#     4  10  19  34  52  74 103 134 179 217 254 306
#     4  10  19  29  52  75 112 141 183 218 267 313
#     4  10  20  34  54  77 109 141 184 220 264 320
#     4   9  16  26  40  64 103 141 166 198 251 313
#     4   9  19  31  51  82 107 140 174 223 269 311
#
# _framework density 20.583473000000001
#
# number of rings (size 3 to 8) (size 9 to 14) (size 15 to 20)
#    0.000    2.250    1.250    1.875    3.500    3.000 
#    0.000    0.000    0.000    0.000    0.000    0.000 
#    0.000   38.000    0.000    7.500    0.000    5.500 
#
# Total GULP energy -178656.666530 kJ/mol
# GULP energy per Si atom -5583.020829 kJ/mol
# Density = 2.053662 g / cm^3
# Si number density = 20.583473 Si / 1000 Ang^3
#
#
#
# Elastic Constant Matrix: (Units=GPa)
#
#
# Indices 1 2 3 4 5 6 
#
# 1 116.7421 9.6891 49.6480 0.0000 18.8435 0.0000
# 2 9.6891 51.4747 27.0262 0.0000 22.9731 0.0000
# 3 49.6480 27.0262 115.8620 0.0000 19.9845 0.0000
# 4 0.0000 0.0000 0.0000 -26.0842 0.0000 35.9888
# 5 18.8435 22.9731 19.9845 0.0000 30.7299 0.0000
# 6 0.0000 0.0000 0.0000 35.9888 0.0000 4.8951
#
#
#
# Elastic Compliance Matrix: (Units=1/GPa)
#
#
# Indices 1 2 3 4 5 6 
#
# 1 0.011205 0.002996 -0.004425 0.000000 -0.006233 0.000000
# 2 0.002996 0.031214 -0.004757 0.000000 -0.022079 0.000000
# 3 -0.004425 -0.004757 0.011889 0.000000 -0.001462 0.000000
# 4 0.000000 0.000000 0.000000 -0.003440 0.000000 0.025293
# 5 -0.006233 -0.022079 -0.001462 0.000000 0.053820 0.000000
# 6 0.000000 0.000000 0.000000 0.025293 0.000000 0.018332
#
#
# Mechanical properties :
#
#
# Convention : Reuss Voigt Hill
#
# Bulk Modulus (GPa) = 23.84538 50.75617 37.30078
# Shear Modulus (GPa) = 33.47351 15.08918 24.28134
#
# Velocity S-wave (km/s) = 4.03703 2.71047 3.43833
# Velocity P-wave (km/s) = 5.77408 5.87433 5.82442
#
# Compressibility (1/GPa) = 0.04193684
#
# Stress axis : x y z
#
# Youngs Moduli (GPa) = 89.24326 32.03647 84.11125
#
# Poissons Ratio (x) = -0.09598 0.37222
# Poissons Ratio (y) = -0.26738 0.40009
# Poissons Ratio (z) = 0.39493 0.15239
#
# Static dielectric constant tensor:
#      x y z
#    x 1.829980 0.000000 0.018170 
#    y 0.000000 1.747830 0.000000 
#    z 0.018170 0.000000 1.816970 
# 
# From -- ./inp_files/14665.got.cif
#   From: 2010.05.17/outbox.cif.g08.bks.cpg/sg15_8_cif.got.tgz:14665.got - 2010.06.03 18:47:42.
