data_PCOD9256929
_publ_section_title
;
Structure prediction by ZEFSAII (Michael W. Deem and Ramdas Pophale) SiO2 
 PCOD9256929
Probable space group: C 2/C
;
_chemical_formula_sum "Si O2"
_cell_formula_units_Z 52
_cell_length_a 5.799088
_cell_length_b 20.615564
_cell_length_c 24.151429
_cell_angle_alpha 90.000000
_cell_angle_beta 123.837492
_cell_angle_gamma 90.000000
_cell_volume 2398.282175
_symmetry_space_group_name_H-M "C 2/C"
_symmetry_group_IT_number 15
_symmetry_cell_setting 'monoclinic'
loop_
_space_group_symop_operation_xyz
x,y,z
-x,y,1/2-z
-x,-y,-z
x,-y,1/2+z
1/2+x,1/2+y,z
1/2-x,1/2+y,1/2-z
1/2-x,1/2-y,-z
1/2+x,1/2-y,1/2+z
loop_
_atom_site_type_symbol
_atom_site_label
_atom_site_fract_x
_atom_site_fract_y
_atom_site_fract_z
Si Si1 0.500000 0.853227 0.750000
Si Si2 0.005045 0.211964 0.904445
Si Si3 0.403505 0.328832 0.627282
Si Si4 0.282613 0.320778 0.264072
Si Si5 0.428480 0.325736 0.966609
Si Si6 0.544646 0.921300 0.639184
Si Si7 0.672225 0.035555 0.716466
O O1 0.589395 0.892933 0.707169
O O2 0.780068 0.820576 0.811413
O O3 0.780478 0.270120 0.875254
O O4 0.959489 0.169572 0.843884
O O5 0.285254 0.254640 0.940630
O O6 0.980118 0.172449 0.957871
O O7 0.359585 0.329475 0.555492
O O8 0.303757 0.397256 0.638127
O O9 0.500000 0.290585 0.250000
O O10 0.181119 0.386485 0.220593
O O11 0.000000 0.289107 0.250000
O O12 0.211187 0.383036 0.922745
O O13 0.520080 0.997630 0.646412
O O14 0.500000 0.018897 0.750000
O O15 0.000000 0.017415 0.750000
#
# Coordination Sequence:
#
# PCOD9256929 Si02
#       7
#     4   8   8   8   8   8   8
#     4  10  18  30  48  84 122 148 192 252 306 366
#     4  10  21  40  58  81 125 165 206 247 300 374
#     4  10  20  32  52  88 120 160 199 244 314 361
#     4  10  24  42  62  91 117 165 208 255 311 367
#     4   9  21  37  58  86 119 163 205 249 304 367
#     4  10  19  33  55  88 116 152 199 255 311 363
#     4  10  20  37  62  86 117 156 202 256 316 359
#
# _framework density 21.682183999999999
#
# number of rings (size 3 to 8) (size 9 to 14) (size 15 to 20)
#    0.000    2.154    0.769    1.846    4.308    3.692 
#    5.538    0.000    0.000    7.385    0.000    0.000 
#    0.000    0.000    0.000    0.000    0.000    0.000 
#
# Total GULP energy -144786.583225 kJ/mol
# GULP energy per Si atom -5568.714739 kJ/mol
# Density = 2.163283 g / cm^3
# Si number density = 21.682184 Si / 1000 Ang^3
#
#
#
# Elastic Constant Matrix: (Units=GPa)
#
#
# Indices 1 2 3 4 5 6 
#
# 1 120.2006 9.9562 14.8230 0.0000 -22.8177 0.0000
# 2 9.9562 31.0874 8.3749 0.0000 -7.8697 0.0000
# 3 14.8230 8.3749 98.5326 0.0000 -26.7204 0.0000
# 4 0.0000 0.0000 0.0000 21.1846 0.0000 -9.7602
# 5 -22.8177 -7.8697 -26.7204 0.0000 36.2343 0.0000
# 6 0.0000 0.0000 0.0000 -9.7602 0.0000 4.1454
#
#
#
# Elastic Compliance Matrix: (Units=1/GPa)
#
#
# Indices 1 2 3 4 5 6 
#
# 1 0.009532 -0.001648 0.000296 0.000000 0.005863 0.000000
# 2 -0.001648 0.034421 -0.001165 0.000000 0.005579 0.000000
# 3 0.000296 -0.001165 0.012731 0.000000 0.009322 0.000000
# 4 0.000000 0.000000 0.000000 -0.556972 0.000000 -1.311363
# 5 0.005863 0.005579 0.009322 0.000000 0.039376 0.000000
# 6 0.000000 0.000000 0.000000 -1.311363 0.000000 -2.846311
#
#
# Mechanical properties :
#
#
# Convention : Reuss Voigt Hill
#
# Bulk Modulus (GPa) = 19.36073 35.12540 27.24307
# Shear Modulus (GPa) = -1.52208 26.75730 12.61761
#
# Velocity S-wave (km/s) = -0.83876 3.51674 2.41495
# Velocity P-wave (km/s) = 2.83032 5.72060 4.51309
#
# Compressibility (1/GPa) = 0.05165094
#
# Stress axis : x y z
#
# Youngs Moduli (GPa) = 104.90475 29.05170 78.54631
#
# Poissons Ratio (x) = 0.04789 -0.02325
# Poissons Ratio (y) = 0.17293 0.09149
# Poissons Ratio (z) = -0.03106 0.03384
#
# Static dielectric constant tensor:
#      x y z
#    x 1.891570 0.000000 0.013380 
#    y 0.000000 1.826220 0.000000 
#    z 0.013380 0.000000 1.823290 
# 
# From -- ./inp_files/227488.got.cif
#   From: 2010.05.17/outbox.cif.g08.bks.cpg/sg15_114_cif.got.tgz:227488.got - 2010.06.03 18:47:42.
