data_PCOD9256668
_publ_section_title
;
Structure prediction by ZEFSAII (Michael W. Deem and Ramdas Pophale) SiO2 
 PCOD9256668
Probable space group: C 2/C
;
_chemical_formula_sum "Si O2"
_cell_formula_units_Z 44
_cell_length_a 14.760608
_cell_length_b 13.053541
_cell_length_c 8.900992
_cell_angle_alpha 90.000000
_cell_angle_beta 85.419666
_cell_angle_gamma 90.000000
_cell_volume 1709.549930
_symmetry_space_group_name_H-M "C 2/C"
_symmetry_group_IT_number 15
_symmetry_cell_setting 'monoclinic'
loop_
_space_group_symop_operation_xyz
x,y,z
-x,y,1/2-z
-x,-y,-z
x,-y,1/2+z
1/2+x,1/2+y,z
1/2-x,1/2+y,1/2-z
1/2-x,1/2-y,-z
1/2+x,1/2-y,1/2+z
loop_
_atom_site_type_symbol
_atom_site_label
_atom_site_fract_x
_atom_site_fract_y
_atom_site_fract_z
Si Si1 0.895330 0.647807 0.208145
Si Si2 0.500000 0.681814 0.250000
Si Si3 0.319658 0.375456 0.235841
Si Si4 0.901893 0.954729 0.534812
Si Si5 0.180561 0.346496 0.482873
Si Si6 0.522649 0.130000 0.591348
O O1 0.851095 0.760811 0.189095
O O2 0.830971 0.603667 0.349199
O O3 0.000000 0.663554 0.250000
O O4 0.912111 0.589072 0.047421
O O5 0.576408 0.621058 0.331022
O O6 0.442021 0.759324 0.360876
O O7 0.376648 0.405634 0.379330
O O8 0.337787 0.454536 0.100121
O O9 0.220715 0.388479 0.322150
O O10 0.000000 0.000000 0.500000
O O11 0.250000 0.250000 0.500000
O O12 0.074881 0.335488 0.460293
O O13 0.500000 0.070811 0.750000
#
# Coordination Sequence:
#
# PCOD9256668 Si02
#       6
#     8   4   8   8   8   8
#     4   9  16  32  53  73 102 141 180 216 261 320
#     4  10  18  28  52  78 112 128 184 202 254 314
#     4  11  22  32  51  76 113 145 177 214 269 315
#     4  12  20  33  49  77 109 151 174 203 252 339
#     4   9  18  35  51  74 107 144 178 221 274 314
#     4   9  19  32  56  81 102 137 184 229 261 309
#
# _framework density 25.737767000000002
#
# number of rings (size 3 to 8) (size 9 to 14) (size 15 to 20)
#    0.545    1.455    1.818    5.455    0.000    0.000 
#    0.000    5.455    0.000    0.000    0.000   16.545 
#    0.000    0.000    0.000    0.000    0.000    0.000 
#
# Total GULP energy -122538.117105 kJ/mol
# GULP energy per Si atom -5569.914414 kJ/mol
# Density = 2.567919 g / cm^3
# Si number density = 25.737767 Si / 1000 Ang^3
#
#
#
# Elastic Constant Matrix: (Units=GPa)
#
#
# Indices 1 2 3 4 5 6 
#
# 1 60.8958 12.7125 30.0419 0.0000 -27.2760 0.0000
# 2 12.7125 65.5637 25.5306 0.0000 -7.0155 0.0000
# 3 30.0419 25.5306 169.6267 0.0000 -50.2555 0.0000
# 4 0.0000 0.0000 0.0000 36.1175 0.0000 0.8139
# 5 -27.2760 -7.0155 -50.2555 0.0000 61.8061 0.0000
# 6 0.0000 0.0000 0.0000 0.8139 0.0000 22.2276
#
#
#
# Elastic Compliance Matrix: (Units=1/GPa)
#
#
# Indices 1 2 3 4 5 6 
#
# 1 0.021171 -0.002884 -0.000849 0.000000 0.008326 0.000000
# 2 -0.002884 0.016596 -0.002379 0.000000 -0.001323 0.000000
# 3 -0.000849 -0.002379 0.008184 0.000000 0.006010 0.000000
# 4 0.000000 0.000000 0.000000 0.027710 0.000000 -0.001015
# 5 0.008326 -0.001323 0.006010 0.000000 0.024591 0.000000
# 6 0.000000 0.000000 0.000000 -0.001015 0.000000 0.045026
#
#
# Mechanical properties :
#
#
# Convention : Reuss Voigt Hill
#
# Bulk Modulus (GPa) = 29.64846 48.07291 38.86068
# Shear Modulus (GPa) = 29.98572 39.21697 34.60134
#
# Velocity S-wave (km/s) = 3.41698 3.90771 3.67056
# Velocity P-wave (km/s) = 5.20693 6.25130 5.75287
#
# Compressibility (1/GPa) = 0.03372857
#
# Stress axis : x y z
#
# Youngs Moduli (GPa) = 47.23338 60.25415 122.18379
#
# Poissons Ratio (x) = 0.17375 0.10372
# Poissons Ratio (y) = 0.13620 0.29071
# Poissons Ratio (z) = 0.04010 0.14336
#
# Static dielectric constant tensor:
#      x y z
#    x 1.875730 0.000000 0.088990 
#    y 0.000000 2.061990 0.000000 
#    z 0.088990 0.000000 2.094170 
# 
# From -- ./inp_files/47098.got.cif
#   From: 2010.05.17/outbox.cif.g08.bks.cpg/sg15_24_cif.got.tgz:47098.got - 2010.06.03 18:47:42.
