data_PCOD9256625
_publ_section_title
;
Structure prediction by ZEFSAII (Michael W. Deem and Ramdas Pophale) SiO2 
 PCOD9256625
Probable space group: C 2/C
;
_chemical_formula_sum "Si O2"
_cell_formula_units_Z 64
_cell_length_a 12.547681
_cell_length_b 23.298031
_cell_length_c 12.767584
_cell_angle_alpha 90.000000
_cell_angle_beta 88.870400
_cell_angle_gamma 90.000000
_cell_volume 3731.702411
_symmetry_space_group_name_H-M "C 2/C"
_symmetry_group_IT_number 15
_symmetry_cell_setting 'monoclinic'
loop_
_space_group_symop_operation_xyz
x,y,z
-x,y,1/2-z
-x,-y,-z
x,-y,1/2+z
1/2+x,1/2+y,z
1/2-x,1/2+y,1/2-z
1/2-x,1/2-y,-z
1/2+x,1/2-y,1/2+z
loop_
_atom_site_type_symbol
_atom_site_label
_atom_site_fract_x
_atom_site_fract_y
_atom_site_fract_z
Si Si1 0.983201 0.063817 0.036755
Si Si2 0.744338 0.951950 0.251610
Si Si3 0.263065 0.576303 0.158772
Si Si4 0.885518 0.577575 0.949225
Si Si5 0.228222 0.816964 0.491832
Si Si6 0.576426 0.627859 0.837022
Si Si7 0.132308 0.447681 0.470185
Si Si8 0.604037 0.638617 0.188052
O O1 0.010260 0.103654 0.937144
O O2 0.864518 0.068562 0.081279
O O3 0.059577 0.080854 0.132303
O O4 0.000000 0.000000 0.000000
O O5 0.659427 0.929250 0.167549
O O6 0.857075 0.923976 0.217828
O O7 0.707509 0.936808 0.368941
O O8 0.748176 0.019921 0.230053
O O9 0.300066 0.626697 0.234240
O O10 0.167059 0.581091 0.079178
O O11 0.013668 0.575051 0.947692
O O12 0.823598 0.634426 0.994244
O O13 0.859111 0.516988 0.009022
O O14 0.250000 0.750000 0.500000
O O15 0.164043 0.830701 0.386377
O O16 0.149474 0.827216 0.590510
O O17 0.500000 0.653053 0.750000
O O18 0.500000 0.662540 0.250000
#
# Coordination Sequence:
#
# PCOD9256625 Si02
#       8
#     8   8   8   8   8   8   8   8
#     4  10  18  28  47  75 112 147 167 202 271 349
#     4  10  18  28  48  73 107 143 171 207 267 334
#     4  10  19  28  47  76 110 146 173 209 268 334
#     4   9  20  35  50  74 102 140 182 223 270 326
#     4  10  21  41  60  74 102 147 192 232 268 322
#     4  10  20  31  50  80 109 133 177 226 277 327
#     4  10  19  32  50  75 111 139 173 220 276 331
#     4   9  20  34  51  78 108 134 174 215 271 325
#
# _framework density 17.150348999999999
#
# number of rings (size 3 to 8) (size 9 to 14) (size 15 to 20)
#    0.000    2.250    1.250    1.875    5.250    0.000 
#    0.000    5.625    0.000    0.000    0.000    9.625 
#    0.000    0.000    0.000    0.000    0.000    0.000 
#
# Total GULP energy -178155.390266 kJ/mol
# GULP energy per Si atom -5567.355946 kJ/mol
# Density = 1.711131 g / cm^3
# Si number density = 17.150349 Si / 1000 Ang^3
#
#
#
# Elastic Constant Matrix: (Units=GPa)
#
#
# Indices 1 2 3 4 5 6 
#
# 1 65.4970 21.1947 33.1987 0.0000 13.1899 0.0000
# 2 21.1947 59.4703 14.7968 0.0000 4.2630 0.0000
# 3 33.1987 14.7968 84.5828 0.0000 -2.3308 0.0000
# 4 0.0000 0.0000 0.0000 7.8827 0.0000 -0.8206
# 5 13.1899 4.2630 -2.3308 0.0000 26.4817 0.0000
# 6 0.0000 0.0000 0.0000 -0.8206 0.0000 12.3836
#
#
#
# Elastic Compliance Matrix: (Units=1/GPa)
#
#
# Indices 1 2 3 4 5 6 
#
# 1 0.023826 -0.005480 -0.008717 0.000000 -0.011752 0.000000
# 2 -0.005480 0.019100 -0.001203 0.000000 -0.000451 0.000000
# 3 -0.008717 -0.001203 0.015617 0.000000 0.005910 0.000000
# 4 0.000000 0.000000 0.000000 0.127742 0.000000 0.008465
# 5 -0.011752 -0.000451 0.005910 0.000000 0.044208 0.000000
# 6 0.000000 0.000000 0.000000 0.008465 0.000000 0.081313
#
#
# Mechanical properties :
#
#
# Convention : Reuss Voigt Hill
#
# Bulk Modulus (GPa) = 36.04421 38.65896 37.35158
# Shear Modulus (GPa) = 14.21042 18.70692 16.45867
#
# Velocity S-wave (km/s) = 2.88163 3.30625 3.10121
# Velocity P-wave (km/s) = 5.66868 6.09633 5.88639
#
# Compressibility (1/GPa) = 0.02774370
#
# Stress axis : x y z
#
# Youngs Moduli (GPa) = 41.97036 52.35663 64.03119
#
# Poissons Ratio (x) = 0.28692 0.55816
# Poissons Ratio (y) = 0.23001 0.07701
# Poissons Ratio (z) = 0.36585 0.06297
#
# Static dielectric constant tensor:
#      x y z
#    x 1.625790 0.000000 0.029160 
#    y 0.000000 1.566120 0.000000 
#    z 0.029160 0.000000 1.592640 
# 
# From -- ./inp_files/90815.got.cif
#   From: 2010.05.17/outbox.cif.g08.bks.cpg/sg15_46_cif.got.tgz:90815.got - 2010.06.03 18:47:42.
