data_PCOD9256442
_publ_section_title
;
Structure prediction by ZEFSAII (Michael W. Deem and Ramdas Pophale) SiO2 
 PCOD9256442
Probable space group: C 2/C
;
_chemical_formula_sum "Si O2"
_cell_formula_units_Z 40
_cell_length_a 7.635555
_cell_length_b 12.651683
_cell_length_c 25.385827
_cell_angle_alpha 90.000000
_cell_angle_beta 134.221200
_cell_angle_gamma 90.000000
_cell_volume 1757.474000
_symmetry_space_group_name_H-M "C 2/C"
_symmetry_group_IT_number 15
_symmetry_cell_setting 'monoclinic'
loop_
_space_group_symop_operation_xyz
x,y,z
-x,y,1/2-z
-x,-y,-z
x,-y,1/2+z
1/2+x,1/2+y,z
1/2-x,1/2+y,1/2-z
1/2-x,1/2-y,-z
1/2+x,1/2-y,1/2+z
loop_
_atom_site_type_symbol
_atom_site_label
_atom_site_fract_x
_atom_site_fract_y
_atom_site_fract_z
Si Si1 0.173830 0.249169 0.069993
Si Si2 0.362393 0.806985 0.900634
Si Si3 0.935983 0.962158 0.545663
Si Si4 0.630031 0.907924 0.331830
Si Si5 0.098718 0.536333 0.604809
O O1 0.423219 0.203222 0.098222
O O2 0.031652 0.157097 0.071453
O O3 0.218495 0.353416 0.113499
O O4 0.000191 0.278913 0.984068
O O5 0.165833 0.716621 0.849186
O O6 0.265341 0.926430 0.877557
O O7 0.646470 0.970850 0.482841
O O8 0.000000 0.000000 0.500000
O O9 0.098273 0.041573 0.613318
O O10 0.500000 0.929147 0.250000
O O11 0.488734 0.954658 0.352877
#
# Coordination Sequence:
#
# PCOD9256442 Si02
#       5
#     8   8   8   8   8
#     4  11  20  37  68  96 124 150 201 265 309 357
#     4  11  21  39  61  94 125 154 199 261 309 355
#     4  10  17  38  66  87 122 159 200 249 308 359
#     4  11  24  44  60  84 129 169 204 252 306 367
#     4  11  22  41  64  96 120 158 210 253 309 365
#
# _framework density 22.759941000000001
#
# number of rings (size 3 to 8) (size 9 to 14) (size 15 to 20)
#    0.000    1.200    8.000    2.400    0.000    0.000 
#    3.600    1.000    0.000    0.000    0.000    0.000 
#    0.000    0.000    0.000    0.000    0.000    0.000 
#
# Total GULP energy -111927.676275 kJ/mol
# GULP energy per Si atom -5596.383814 kJ/mol
# Density = 2.270814 g / cm^3
# Si number density = 22.759941 Si / 1000 Ang^3
#
#
#
# Elastic Constant Matrix: (Units=GPa)
#
#
# Indices 1 2 3 4 5 6 
#
# 1 53.8639 16.1237 11.9146 0.0000 -17.7079 0.0000
# 2 16.1237 183.0597 23.0573 0.0000 -11.0863 0.0000
# 3 11.9146 23.0573 98.4139 0.0000 -22.2078 0.0000
# 4 0.0000 0.0000 0.0000 8.9606 0.0000 -1.7255
# 5 -17.7079 -11.0863 -22.2078 0.0000 14.6025 0.0000
# 6 0.0000 0.0000 0.0000 -1.7255 0.0000 48.4166
#
#
#
# Elastic Compliance Matrix: (Units=1/GPa)
#
#
# Indices 1 2 3 4 5 6 
#
# 1 0.034717 -0.000822 0.008143 0.000000 0.053860 0.000000
# 2 -0.000822 0.005765 -0.000744 0.000000 0.002250 0.000000
# 3 0.008143 -0.000744 0.017433 0.000000 0.035824 0.000000
# 4 0.000000 0.000000 0.000000 0.112371 0.000000 0.004005
# 5 0.053860 0.002250 0.035824 0.000000 0.189985 0.000000
# 6 0.000000 0.000000 0.000000 0.004005 0.000000 0.020797
#
#
# Mechanical properties :
#
#
# Convention : Reuss Voigt Hill
#
# Bulk Modulus (GPa) = 14.07035 48.61432 31.34233
# Shear Modulus (GPa) = 12.76807 33.34540 23.05673
#
# Velocity S-wave (km/s) = 2.37109 3.83180 3.18628
# Velocity P-wave (km/s) = 3.70021 6.40179 5.22850
#
# Compressibility (1/GPa) = 0.07107144
#
# Stress axis : x y z
#
# Youngs Moduli (GPa) = 28.80460 173.46171 57.36128
#
# Poissons Ratio (x) = 0.14253 -0.46712
# Poissons Ratio (y) = 0.02367 0.04265
# Poissons Ratio (z) = -0.23457 0.12898
#
# Static dielectric constant tensor:
#      x y z
#    x 1.976480 0.000000 -0.021310 
#    y 0.000000 1.884320 0.000000 
#    z -0.021310 0.000000 1.791500 
# 
# From -- ./inp_files/187787.got.cif
#   From: 2010.05.17/outbox.cif.g08.bks.cpg/sg15_94_cif.got.tgz:187787.got - 2010.06.03 18:47:42.
