data_PCOD9256523
_publ_section_title
;
Structure prediction by ZEFSAII (Michael W. Deem and Ramdas Pophale) SiO2 
 PCOD9256523
Probable space group: C 2/C
;
_chemical_formula_sum "Si O2"
_cell_formula_units_Z 64
_cell_length_a 28.638500
_cell_length_b 18.349727
_cell_length_c 9.224736
_cell_angle_alpha 90.000000
_cell_angle_beta 108.790544
_cell_angle_gamma 90.000000
_cell_volume 4589.309149
_symmetry_space_group_name_H-M "C 2/C"
_symmetry_group_IT_number 15
_symmetry_cell_setting 'monoclinic'
loop_
_space_group_symop_operation_xyz
x,y,z
-x,y,1/2-z
-x,-y,-z
x,-y,1/2+z
1/2+x,1/2+y,z
1/2-x,1/2+y,1/2-z
1/2-x,1/2-y,-z
1/2+x,1/2-y,1/2+z
loop_
_atom_site_type_symbol
_atom_site_label
_atom_site_fract_x
_atom_site_fract_y
_atom_site_fract_z
Si Si1 0.645664 0.821039 0.067663
Si Si2 0.758317 0.577506 0.836400
Si Si3 0.854336 0.321039 0.776335
Si Si4 0.057127 0.423695 0.981032
Si Si5 0.299006 0.698999 0.215724
Si Si6 0.258317 0.077506 0.180235
Si Si7 0.299006 0.301001 0.382288
Si Si8 0.942873 0.576305 0.366777
O O1 0.690120 0.879096 0.133674
O O2 0.659323 0.748678 0.169037
O O3 0.644156 0.804670 0.894156
O O4 0.595168 0.860606 0.061271
O O5 0.760382 0.500000 0.760382
O O6 0.716106 0.628263 0.724279
O O7 0.750993 0.569197 0.000993
O O8 0.809880 0.379096 0.753434
O O9 0.840677 0.248678 0.850390
O O10 0.904832 0.360606 0.870935
O O11 0.061190 0.433015 0.811190
O O12 1.000000 0.406804 0.958304
O O13 0.069859 0.500000 0.069859
O O14 0.283894 0.628263 0.292067
O O15 0.250000 0.750000 0.167774
O O16 0.310173 0.681126 0.060173
#
# Coordination Sequence:
#
# PCOD9256523 Si02
#       8
#     8   8   8   8   8   8   8   8
#     4   9  17  28  41  57  79 108 138 167 201 237
#     4  10  18  27  40  58  81 107 135 166 199 237
#     4   9  17  28  41  57  79 108 138 167 201 237
#     4   9  17  28  41  58  81 108 138 171 203 234
#     4   9  17  28  41  57  77 102 133 167 201 238
#     4  10  18  27  40  58  81 107 135 166 199 237
#     4   9  17  28  41  57  77 102 133 167 201 238
#     4   9  17  28  41  58  81 108 138 171 203 234
#
# _framework density 13.945454
#
# number of rings (size 3 to 8) (size 9 to 14) (size 15 to 20)
#    0.000    2.750    0.000    2.250    0.000    5.000 
#    0.000    0.000    0.000    0.000    0.000    0.000 
#    0.000    1.000    0.000    2.750    0.000    4.000 
#
# Total GULP energy -178303.784053 kJ/mol
# GULP energy per Si atom -5571.993252 kJ/mol
# Density = 1.391371 g / cm^3
# Si number density = 13.945454 Si / 1000 Ang^3
#
#
#
# Elastic Constant Matrix: (Units=GPa)
#
#
# Indices 1 2 3 4 5 6 
#
# 1 56.2079 25.6859 30.1820 0.0000 -0.9791 0.0000
# 2 25.6859 59.9581 46.8725 0.0000 -8.0865 0.0000
# 3 30.1820 46.8725 68.7781 0.0000 -3.8186 0.0000
# 4 0.0000 0.0000 0.0000 28.6268 0.0000 -0.6778
# 5 -0.9791 -8.0865 -3.8186 0.0000 15.3794 0.0000
# 6 0.0000 0.0000 0.0000 -0.6778 0.0000 26.8508
#
#
#
# Elastic Compliance Matrix: (Units=1/GPa)
#
#
# Indices 1 2 3 4 5 6 
#
# 1 0.023910 -0.004931 -0.007292 0.000000 -0.002881 0.000000
# 2 -0.004931 0.039432 -0.023905 0.000000 0.014484 0.000000
# 3 -0.007292 -0.023905 0.033773 0.000000 -0.004648 0.000000
# 4 0.000000 0.000000 0.000000 0.034953 0.000000 0.000882
# 5 -0.002881 0.014484 -0.004648 0.000000 0.071300 0.000000
# 6 0.000000 0.000000 0.000000 0.000882 0.000000 0.037265
#
#
# Mechanical properties :
#
#
# Convention : Reuss Voigt Hill
#
# Bulk Modulus (GPa) = 40.22726 43.38056 41.80391
# Shear Modulus (GPa) = 15.56784 19.65166 17.60975
#
# Velocity S-wave (km/s) = 3.34479 3.75798 3.55739
# Velocity P-wave (km/s) = 6.62009 7.07140 6.84946
#
# Compressibility (1/GPa) = 0.02485876
#
# Stress axis : x y z
#
# Youngs Moduli (GPa) = 41.82388 25.36006 29.60973
#
# Poissons Ratio (x) = 0.12505 0.21591
# Poissons Ratio (y) = 0.20624 0.70782
# Poissons Ratio (z) = 0.30497 0.60623
#
# Static dielectric constant tensor:
#      x y z
#    x 1.452670 0.000000 -0.004260 
#    y 0.000000 1.433560 0.000000 
#    z -0.004260 0.000000 1.463840 
# 
# From -- ./inp_files/70304.got.cif
#   From: 2010.05.17/outbox.cif.g08.bks.cpg/sg15_36_cif.got.tgz:70304.got - 2010.06.03 18:47:42.
