data_PCOD9256141
_publ_section_title
;
Structure prediction by ZEFSAII (Michael W. Deem and Ramdas Pophale) SiO2 
 PCOD9256141
Probable space group: C 2/C
;
_chemical_formula_sum "Si O2"
_cell_formula_units_Z 64
_cell_length_a 15.188149
_cell_length_b 29.536072
_cell_length_c 11.631869
_cell_angle_alpha 90.000000
_cell_angle_beta 30.271374
_cell_angle_gamma 90.000000
_cell_volume 2630.392194
_symmetry_space_group_name_H-M "C 2/C"
_symmetry_group_IT_number 15
_symmetry_cell_setting 'monoclinic'
loop_
_space_group_symop_operation_xyz
x,y,z
-x,y,1/2-z
-x,-y,-z
x,-y,1/2+z
1/2+x,1/2+y,z
1/2-x,1/2+y,1/2-z
1/2-x,1/2-y,-z
1/2+x,1/2-y,1/2+z
loop_
_atom_site_type_symbol
_atom_site_label
_atom_site_fract_x
_atom_site_fract_y
_atom_site_fract_z
Si Si1 0.186276 0.799943 0.602906
Si Si2 0.932892 0.157834 0.031029
Si Si3 0.444038 0.942741 0.442242
Si Si4 0.702968 0.595848 0.501103
Si Si5 0.563018 0.418961 0.549005
Si Si6 0.400492 0.143140 0.688342
Si Si7 0.835540 0.334872 0.014236
Si Si8 0.252229 0.005595 0.307173
O O1 0.250000 0.750000 0.500000
O O2 0.153374 0.809734 0.775068
O O3 0.332392 0.830637 0.376173
O O4 0.000000 0.808103 0.750000
O O5 0.815611 0.141538 0.056181
O O6 0.963216 0.110542 0.066499
O O7 0.123797 0.176808 0.769964
O O8 0.500000 0.943235 0.250000
O O9 0.436142 0.890102 0.483114
O O10 0.273771 0.971854 0.658341
O O11 0.591669 0.971046 0.341140
O O12 0.806082 0.613813 0.496481
O O13 0.772820 0.549918 0.365112
O O14 0.500000 0.584626 0.750000
O O15 0.500000 0.413037 0.750000
O O16 0.745808 0.392406 0.340658
O O17 0.590794 0.472122 0.498703
O O18 0.406029 0.170677 0.564544
O O19 0.000000 0.316720 0.750000
#
# Coordination Sequence:
#
# PCOD9256141 Si02
#       8
#     8   8   8   8   8   8   8   8
#     4  12  24  47  75 109 135 164 217 288 351 420
#     4  10  21  41  67  97 134 172 223 274 342 405
#     4  10  23  36  53  85 131 178 226 281 329 391
#     4  10  22  36  59  97 128 173 230 275 308 388
#     4  10  17  34  62  80 124 181 214 268 335 388
#     4  10  20  40  67  89 127 176 216 265 349 400
#     4  10  20  39  67  89 128 181 223 256 323 398
#     4  10  22  34  49  87 129 176 231 274 321 370
#
# _framework density 24.330973
#
# number of rings (size 3 to 8) (size 9 to 14) (size 15 to 20)
#    0.000    1.750    3.750    1.125    1.750    7.500 
#    2.250    0.000    0.000    3.750    0.000    0.000 
#    0.000    0.000    0.000    0.000    0.000    0.000 
#
# Total GULP energy -178339.962787 kJ/mol
# GULP energy per Si atom -5573.123837 kJ/mol
# Density = 2.427559 g / cm^3
# Si number density = 24.330973 Si / 1000 Ang^3
#
#
#
# Elastic Constant Matrix: (Units=GPa)
#
#
# Indices 1 2 3 4 5 6 
#
# 1 33.8596 19.1786 33.0289 0.0004 -5.6309 0.0007
# 2 19.1786 81.7792 28.4153 0.0002 -5.1829 0.0000
# 3 33.0289 28.4153 150.9825 0.0011 9.6074 0.0016
# 4 0.0004 0.0002 0.0011 80.2461 -0.0004 29.2450
# 5 -5.6309 -5.1829 9.6074 -0.0004 41.1031 -0.0010
# 6 0.0007 0.0000 0.0016 29.2450 -0.0010 30.4786
#
#
#
# Elastic Compliance Matrix: (Units=1/GPa)
#
#
# Indices 1 2 3 4 5 6 
#
# 1 0.042808 -0.006617 -0.008567 0.000000 0.007033 0.000000
# 2 -0.006617 0.014316 -0.001324 0.000000 0.001208 0.000000
# 3 -0.008567 -0.001324 0.008965 0.000000 -0.003436 0.000000
# 4 0.000000 0.000000 0.000000 0.019163 0.000000 -0.018387
# 5 0.007033 0.001208 -0.003436 0.000000 0.026248 0.000001
# 6 0.000000 0.000000 0.000000 -0.018387 0.000001 0.050453
#
#
# Mechanical properties :
#
#
# Convention : Reuss Voigt Hill
#
# Bulk Modulus (GPa) = 30.23475 47.54075 38.88775
# Shear Modulus (GPa) = 24.27276 42.76546 33.51911
#
# Velocity S-wave (km/s) = 3.16192 4.19699 3.71567
# Velocity P-wave (km/s) = 5.07777 6.56261 5.86735
#
# Compressibility (1/GPa) = 0.03307453
#
# Stress axis : x y z
#
# Youngs Moduli (GPa) = 23.36023 69.85032 111.54318
#
# Poissons Ratio (x) = 0.46218 0.95557
# Poissons Ratio (y) = 0.15457 0.14766
# Poissons Ratio (z) = 0.20012 0.09247
#
# Static dielectric constant tensor:
#      x y z
#    x 1.637480 0.000000 -0.467730 
#    y 0.000000 1.985940 0.000000 
#    z -0.467730 0.000000 1.764570 
# 
# From -- ./inp_files/108640.got.cif
#   From: 2010.05.17/outbox.cif.g08.bks.cpg/sg15_55_cif.got.tgz:108640.got - 2010.06.03 18:47:42.
