data_PCOD9256948
_publ_section_title
;
Structure prediction by ZEFSAII (Michael W. Deem and Ramdas Pophale) SiO2 
 PCOD9256948
Probable space group: C 2/C
;
_chemical_formula_sum "Si O2"
_cell_formula_units_Z 56
_cell_length_a 25.096419
_cell_length_b 16.308215
_cell_length_c 12.781562
_cell_angle_alpha 90.000000
_cell_angle_beta 146.949907
_cell_angle_gamma 90.000000
_cell_volume 2852.955553
_symmetry_space_group_name_H-M "C 2/C"
_symmetry_group_IT_number 15
_symmetry_cell_setting 'monoclinic'
loop_
_space_group_symop_operation_xyz
x,y,z
-x,y,1/2-z
-x,-y,-z
x,-y,1/2+z
1/2+x,1/2+y,z
1/2-x,1/2+y,1/2-z
1/2-x,1/2-y,-z
1/2+x,1/2-y,1/2+z
loop_
_atom_site_type_symbol
_atom_site_label
_atom_site_fract_x
_atom_site_fract_y
_atom_site_fract_z
Si Si1 0.631994 0.432916 0.773766
Si Si2 0.980760 0.943873 0.105469
Si Si3 0.341528 0.593826 0.952934
Si Si4 0.849804 0.582461 0.556171
Si Si5 0.091965 0.734983 0.980689
Si Si6 0.487036 0.114296 0.498968
Si Si7 0.880146 0.532823 0.921883
O O1 0.573863 0.397946 0.578342
O O2 0.579380 0.518626 0.717744
O O3 0.743964 0.438546 0.925785
O O4 0.626935 0.386610 0.875470
O O5 0.000000 0.903480 0.250000
O O6 0.910549 0.022253 0.019618
O O7 0.230514 0.562874 0.773161
O O8 0.354742 0.679279 0.916764
O O9 0.846560 0.663050 0.476352
O O10 0.926717 0.599667 0.773774
O O11 0.886802 0.507993 0.545997
O O12 0.000000 0.745607 0.750000
O O13 0.058830 0.698587 0.037606
O O14 0.541103 0.102056 0.478344
O O15 0.408274 0.042103 0.389336
#
# Coordination Sequence:
#
# PCOD9256948 Si02
#       7
#     8   8   8   8   8   8   8
#     4  10  18  30  49  76 106 142 184 223 276 319
#     4   9  19  32  47  71 110 142 183 226 263 321
#     4  11  19  32  51  79 111 143 179 223 281 333
#     4  10  18  33  53  80 109 138 185 235 275 322
#     4   9  19  33  48  74 116 140 167 227 283 327
#     4   9  19  35  52  79 111 140 181 234 277 321
#     4  10  18  31  54  78 106 145 182 218 281 323
#
# _framework density 19.628767
#
# number of rings (size 3 to 8) (size 9 to 14) (size 15 to 20)
#    0.000    2.286    2.857    2.571    0.000    0.571 
#    2.571    0.000    0.000    0.000    0.000   38.000 
#    8.571    0.143    0.000    0.000    0.000    0.000 
#
# Total GULP energy -156045.662183 kJ/mol
# GULP energy per Si atom -5573.059364 kJ/mol
# Density = 1.958409 g / cm^3
# Si number density = 19.628767 Si / 1000 Ang^3
#
#
#
# Elastic Constant Matrix: (Units=GPa)
#
#
# Indices 1 2 3 4 5 6 
#
# 1 88.4187 18.9625 19.1175 0.0000 19.3265 0.0000
# 2 18.9625 47.7076 22.0931 0.0000 16.3327 0.0000
# 3 19.1175 22.0931 64.7740 0.0000 18.8585 0.0000
# 4 0.0000 0.0000 0.0000 11.8409 0.0000 1.0742
# 5 19.3265 16.3327 18.8585 0.0000 45.5801 0.0000
# 6 0.0000 0.0000 0.0000 1.0742 0.0000 23.9757
#
#
#
# Elastic Compliance Matrix: (Units=1/GPa)
#
#
# Indices 1 2 3 4 5 6 
#
# 1 0.013178 -0.003159 -0.001722 0.000000 -0.003743 0.000000
# 2 -0.003159 0.027263 -0.006722 0.000000 -0.005649 0.000000
# 3 -0.001722 -0.006722 0.019698 0.000000 -0.005011 0.000000
# 4 0.000000 0.000000 0.000000 0.084798 0.000000 -0.003799
# 5 -0.003743 -0.005649 -0.005011 0.000000 0.027624 0.000000
# 6 0.000000 0.000000 0.000000 -0.003799 0.000000 0.041879
#
#
# Mechanical properties :
#
#
# Convention : Reuss Voigt Hill
#
# Bulk Modulus (GPa) = 27.07582 35.69405 31.38493
# Shear Modulus (GPa) = 20.00337 25.66115 22.83226
#
# Velocity S-wave (km/s) = 3.19577 3.61962 3.41428
# Velocity P-wave (km/s) = 5.23843 5.97435 5.61845
#
# Compressibility (1/GPa) = 0.03693332
#
# Stress axis : x y z
#
# Youngs Moduli (GPa) = 75.88523 36.67918 50.76579
#
# Poissons Ratio (x) = 0.11586 0.08742
# Poissons Ratio (y) = 0.23971 0.34125
# Poissons Ratio (z) = 0.13068 0.24656
#
# Static dielectric constant tensor:
#      x y z
#    x 1.741410 0.000000 -0.017160 
#    y 0.000000 1.692320 0.000000 
#    z -0.017160 0.000000 1.709510 
# 
# From -- ./inp_files/178429.got.cif
#   From: 2010.05.17/outbox.cif.g08.bks.cpg/sg15_90_cif.got.tgz:178429.got - 2010.06.03 18:47:42.
