data_PCOD9256289
_publ_section_title
;
Structure prediction by ZEFSAII (Michael W. Deem and Ramdas Pophale) SiO2 
 PCOD9256289
Probable space group: C 2/C
;
_chemical_formula_sum "Si O2"
_cell_formula_units_Z 60
_cell_length_a 21.812667
_cell_length_b 9.897526
_cell_length_c 26.724188
_cell_angle_alpha 90.000000
_cell_angle_beta 34.444540
_cell_angle_gamma 90.000000
_cell_volume 3263.290037
_symmetry_space_group_name_H-M "C 2/C"
_symmetry_group_IT_number 15
_symmetry_cell_setting 'monoclinic'
loop_
_space_group_symop_operation_xyz
x,y,z
-x,y,1/2-z
-x,-y,-z
x,-y,1/2+z
1/2+x,1/2+y,z
1/2-x,1/2+y,1/2-z
1/2-x,1/2-y,-z
1/2+x,1/2-y,1/2+z
loop_
_atom_site_type_symbol
_atom_site_label
_atom_site_fract_x
_atom_site_fract_y
_atom_site_fract_z
Si Si1 0.961025 0.980166 0.176517
Si Si2 0.416308 0.935233 0.173668
Si Si3 0.633569 0.326443 0.843385
Si Si4 0.390682 0.835930 0.392590
Si Si5 0.386729 0.769083 0.667257
Si Si6 0.500000 0.381850 0.750000
Si Si7 0.833794 0.073384 0.618033
Si Si8 0.178290 0.103858 0.991705
O O1 0.931400 0.829984 0.180056
O O2 0.890311 0.081699 0.189517
O O3 0.946748 0.025077 0.243268
O O4 0.085181 0.010649 0.077917
O O5 0.427283 0.813634 0.126047
O O6 0.500276 0.906768 0.161913
O O7 0.292378 0.929471 0.278011
O O8 0.435857 0.081851 0.136858
O O9 0.759021 0.288696 0.762400
O O10 0.612937 0.429368 0.902663
O O11 0.419561 0.719724 0.332924
O O12 0.298389 0.928873 0.430745
O O13 0.344334 0.754085 0.471539
O O14 0.392893 0.688938 0.610755
O O15 0.833044 0.098181 0.559927
#
# Coordination Sequence:
#
# PCOD9256289 Si02
#       8
#     8   8   8   8   8   4   8   8
#     4  10  20  37  57  80 109 140 179 223 267 323
#     4  10  17  36  56  81 107 137 186 229 252 310
#     4   9  17  34  55  81 102 137 181 221 250 320
#     4  10  20  33  55  81 106 139 190 228 256 314
#     4   9  20  33  55  82 110 137 173 225 271 310
#     4  10  18  34  60  76 100 144 190 222 262 300
#     4   9  19  33  58  79 108 145 177 214 277 319
#     4  10  20  34  54  79 110 142 183 219 270 324
#
# _framework density 18.386351999999999
#
# number of rings (size 3 to 8) (size 9 to 14) (size 15 to 20)
#    0.000    2.400    2.667    1.600    1.867    2.133 
#    0.000    4.667    0.000    1.600    0.000    0.000 
#    0.000    0.000    0.000    0.000    0.000    0.000 
#
# Total GULP energy -167180.710921 kJ/mol
# GULP energy per Si atom -5572.690364 kJ/mol
# Density = 1.834450 g / cm^3
# Si number density = 18.386352 Si / 1000 Ang^3
#
#
#
# Elastic Constant Matrix: (Units=GPa)
#
#
# Indices 1 2 3 4 5 6 
#
# 1 137.7180 59.4882 40.3651 0.0003 18.6481 -0.0011
# 2 59.4882 123.9354 25.5440 0.0007 19.5586 -0.0030
# 3 40.3651 25.5440 47.7702 0.0000 10.1792 0.0002
# 4 0.0003 0.0007 0.0000 5.7623 0.0000 4.6523
# 5 18.6481 19.5586 10.1792 0.0000 17.7015 -0.0003
# 6 -0.0011 -0.0030 0.0002 4.6523 -0.0003 -1.8554
#
#
#
# Elastic Compliance Matrix: (Units=1/GPa)
#
#
# Indices 1 2 3 4 5 6 
#
# 1 0.011285 -0.003332 -0.006844 0.000000 -0.004271 -0.000001
# 2 -0.003332 0.011246 -0.001479 0.000004 -0.008065 -0.000006
# 3 -0.006844 -0.001479 0.029201 -0.000003 -0.007948 0.000004
# 4 0.000000 0.000004 -0.000003 0.057380 0.000000 0.143877
# 5 -0.004271 -0.008065 -0.007948 0.000000 0.074473 0.000002
# 6 -0.000001 -0.000006 0.000004 0.143877 0.000002 -0.178203
#
#
# Mechanical properties :
#
#
# Convention : Reuss Voigt Hill
#
# Bulk Modulus (GPa) = 35.18480 62.24645 48.71563
# Shear Modulus (GPa) = 131.01098 16.59010 73.80054
#
# Velocity S-wave (km/s) = 8.45039 3.00710 6.34239
# Velocity P-wave (km/s) = 10.69533 6.78123 8.95475
#
# Compressibility (1/GPa) = 0.02842136
#
# Stress axis : x y z
#
# Youngs Moduli (GPa) = 88.61561 88.92304 34.24549
#
# Poissons Ratio (x) = 0.29629 0.23436
# Poissons Ratio (y) = 0.29527 0.05066
# Poissons Ratio (z) = 0.60645 0.13155
#
# Static dielectric constant tensor:
#      x y z
#    x 1.649780 0.000000 -0.022180 
#    y 0.000000 1.641290 0.000000 
#    z -0.022180 0.000000 1.672080 
# 
# From -- ./inp_files/300506.got.cif
#   From: 2010.05.17/outbox.cif.g08.bks.cpg/sg15_151_cif.got.tgz:300506.got - 2010.06.03 18:47:42.
