data_PCOD9256678
_publ_section_title
;
Structure prediction by ZEFSAII (Michael W. Deem and Ramdas Pophale) SiO2 
 PCOD9256678
Probable space group: C 2/C
;
_chemical_formula_sum "Si O2"
_cell_formula_units_Z 64
_cell_length_a 11.470411
_cell_length_b 15.728280
_cell_length_c 19.593511
_cell_angle_alpha 90.000000
_cell_angle_beta 51.315733
_cell_angle_gamma 90.000000
_cell_volume 2759.320658
_symmetry_space_group_name_H-M "C 2/C"
_symmetry_group_IT_number 15
_symmetry_cell_setting 'monoclinic'
loop_
_space_group_symop_operation_xyz
x,y,z
-x,y,1/2-z
-x,-y,-z
x,-y,1/2+z
1/2+x,1/2+y,z
1/2-x,1/2+y,1/2-z
1/2-x,1/2-y,-z
1/2+x,1/2-y,1/2+z
loop_
_atom_site_type_symbol
_atom_site_label
_atom_site_fract_x
_atom_site_fract_y
_atom_site_fract_z
Si Si1 0.663692 0.958698 0.174022
Si Si2 0.729837 0.772922 0.363259
Si Si3 0.907093 0.100820 0.884200
Si Si4 0.204918 0.199829 0.807267
Si Si5 0.830319 0.335411 0.938830
Si Si6 0.738943 0.646603 0.996625
Si Si7 0.424120 0.173399 0.048207
Si Si8 0.540642 0.542104 0.411344
O O1 0.500000 0.990342 0.250000
O O2 0.698302 0.882541 0.213665
O O3 0.782819 0.031878 0.147392
O O4 0.689523 0.908394 0.092287
O O5 0.821452 0.860065 0.350421
O O6 0.731085 0.757760 0.283104
O O7 0.818009 0.695438 0.366638
O O8 0.564345 0.788471 0.453973
O O9 0.035742 0.168679 0.855129
O O10 0.990221 0.012145 0.862973
O O11 0.785786 0.096448 0.989935
O O12 0.189232 0.257831 0.879019
O O13 0.987344 0.357409 0.916047
O O14 0.750000 0.250000 0.000000
O O15 0.827881 0.616174 0.032347
O O16 0.750000 0.750000 0.000000
O O17 0.563106 0.624214 0.055992
O O18 0.500000 0.500000 0.500000
#
# Coordination Sequence:
#
# PCOD9256678 Si02
#       8
#     8   8   8   8   8   8   8   8
#     4  10  21  38  59  96 127 173 238 291 343 427
#     4  10  18  28  52  90 124 170 224 273 339 394
#     4   9  16  32  51  82 121 161 220 272 323 401
#     4  11  17  29  55  87 124 170 220 277 339 401
#     4   8  15  28  47  79 121 159 202 272 319 390
#     4  11  21  37  63  97 130 173 226 283 354 418
#     4  10  18  32  50  89 127 159 214 272 327 402
#     4   9  21  36  61  94 119 175 228 276 349 424
#
# _framework density 23.194113000000002
#
# number of rings (size 3 to 8) (size 9 to 14) (size 15 to 20)
#    0.000    2.500    5.000    1.125    0.000    0.000 
#    0.000    2.500    0.000    3.000   68.250    0.000 
#    0.000    0.000    0.000    0.000    0.000    0.000 
#
# Total GULP energy -178148.737233 kJ/mol
# GULP energy per Si atom -5567.148039 kJ/mol
# Density = 2.314132 g / cm^3
# Si number density = 23.194113 Si / 1000 Ang^3
#
#
#
# Elastic Constant Matrix: (Units=GPa)
#
#
# Indices 1 2 3 4 5 6 
#
# 1 136.8264 48.2811 56.3463 0.0000 -8.8394 0.0000
# 2 48.2811 68.2883 28.0176 0.0000 -2.9402 0.0000
# 3 56.3463 28.0176 87.9381 0.0001 -4.7730 0.0000
# 4 0.0000 0.0000 0.0001 14.7352 0.0000 -3.4908
# 5 -8.8394 -2.9402 -4.7730 0.0000 45.5988 0.0000
# 6 0.0000 0.0000 0.0000 -3.4908 0.0000 44.9296
#
#
#
# Elastic Compliance Matrix: (Units=1/GPa)
#
#
# Indices 1 2 3 4 5 6 
#
# 1 0.011812 -0.006003 -0.005584 0.000000 0.001318 0.000000
# 2 -0.006003 0.019910 -0.002504 0.000000 -0.000142 0.000000
# 3 -0.005584 -0.002504 0.015770 0.000000 0.000407 0.000000
# 4 0.000000 0.000000 0.000000 0.069137 0.000000 0.005372
# 5 0.001318 -0.000142 0.000407 0.000000 0.022219 0.000000
# 6 0.000000 0.000000 0.000000 0.005372 0.000000 0.022674
#
#
# Mechanical properties :
#
#
# Convention : Reuss Voigt Hill
#
# Bulk Modulus (GPa) = 51.79381 62.03808 56.91595
# Shear Modulus (GPa) = 25.49184 31.74656 28.61920
#
# Velocity S-wave (km/s) = 3.31881 3.70365 3.51650
# Velocity P-wave (km/s) = 6.08811 6.71527 6.40936
#
# Compressibility (1/GPa) = 0.01930733
#
# Stress axis : x y z
#
# Youngs Moduli (GPa) = 84.66284 50.22699 63.41305
#
# Poissons Ratio (x) = 0.30152 0.35410
# Poissons Ratio (y) = 0.50825 0.15882
# Poissons Ratio (z) = 0.47276 0.12579
#
# Static dielectric constant tensor:
#      x y z
#    x 1.919510 0.000000 0.035040 
#    y 0.000000 1.989060 0.000000 
#    z 0.035040 0.000000 1.967430 
# 
# From -- ./inp_files/240619.got.cif
#   From: 2010.05.17/outbox.cif.g08.bks.cpg/sg15_121_cif.got.tgz:240619.got - 2010.06.03 18:47:42.
