data_PCOD9256430
_publ_section_title
;
Structure prediction by ZEFSAII (Michael W. Deem and Ramdas Pophale) SiO2 
 PCOD9256430
Probable space group: C 2/C
;
_chemical_formula_sum "Si O2"
_cell_formula_units_Z 44
_cell_length_a 28.305290
_cell_length_b 10.673071
_cell_length_c 16.850247
_cell_angle_alpha 90.000000
_cell_angle_beta 152.181884
_cell_angle_gamma 90.000000
_cell_volume 2375.580354
_symmetry_space_group_name_H-M "C 2/C"
_symmetry_group_IT_number 15
_symmetry_cell_setting 'monoclinic'
loop_
_space_group_symop_operation_xyz
x,y,z
-x,y,1/2-z
-x,-y,-z
x,-y,1/2+z
1/2+x,1/2+y,z
1/2-x,1/2+y,1/2-z
1/2-x,1/2-y,-z
1/2+x,1/2-y,1/2+z
loop_
_atom_site_type_symbol
_atom_site_label
_atom_site_fract_x
_atom_site_fract_y
_atom_site_fract_z
Si Si1 0.165691 0.854349 0.860771
Si Si2 0.192904 0.429261 0.969037
Si Si3 0.281009 0.826986 0.666188
Si Si4 0.500000 0.073435 0.750000
Si Si5 0.548354 0.265998 0.962776
Si Si6 0.392957 0.512191 0.062729
O O1 0.135159 0.903652 0.902600
O O2 0.063954 0.798070 0.672068
O O3 0.250000 0.750000 0.000000
O O4 0.216609 0.969287 0.890308
O O5 0.183200 0.397388 0.860905
O O6 0.092394 0.489401 0.855884
O O7 0.224913 0.300502 0.057498
O O8 0.375152 0.789878 0.860085
O O9 0.197398 0.914982 0.583565
O O10 0.465258 0.164708 0.627452
O O11 0.589851 0.394389 0.984956
O O12 0.500000 0.451650 0.250000
#
# Coordination Sequence:
#
# PCOD9256430 Si02
#       6
#     8   8   8   4   8   8
#     4  10  17  38  62  80 119 161 198 248 303 355
#     4  10  23  42  60  87 129 164 199 256 311 367
#     4  10  24  40  60  92 127 160 206 249 317 361
#     4  12  22  40  64  92 120 162 214 254 304 358
#     4  11  21  38  64  94 116 160 214 252 297 369
#     4   9  19  38  59  83 121 161 195 246 308 364
#
# _framework density 18.521789999999999
#
# number of rings (size 3 to 8) (size 9 to 14) (size 15 to 20)
#    0.000    1.818    4.545    0.000    3.818    1.455 
#    0.000    1.818    0.000    0.000    0.000    0.000 
#    0.000    0.000    0.000    0.000    0.000    0.000 
#
# Total GULP energy -122797.063173 kJ/mol
# GULP energy per Si atom -5581.684690 kJ/mol
# Density = 1.847963 g / cm^3
# Si number density = 18.521790 Si / 1000 Ang^3
#
#
#
# Elastic Constant Matrix: (Units=GPa)
#
#
# Indices 1 2 3 4 5 6 
#
# 1 64.2484 41.9959 62.8773 0.0000 22.0452 0.0000
# 2 41.9959 101.2519 69.0712 0.0000 18.5888 0.0000
# 3 62.8773 69.0712 172.5501 0.0000 12.8866 0.0000
# 4 0.0000 0.0000 0.0000 33.6291 0.0000 -5.4979
# 5 22.0452 18.5888 12.8866 0.0000 33.4696 0.0000
# 6 0.0000 0.0000 0.0000 -5.4979 0.0000 -13.8060
#
#
#
# Elastic Compliance Matrix: (Units=1/GPa)
#
#
# Indices 1 2 3 4 5 6 
#
# 1 0.032567 -0.004622 -0.008862 0.000000 -0.015472 0.000000
# 2 -0.004622 0.015350 -0.004171 0.000000 -0.003875 0.000000
# 3 -0.008862 -0.004171 0.010384 0.000000 0.004155 0.000000
# 4 0.000000 0.000000 0.000000 0.027919 0.000000 -0.011118
# 5 -0.015472 -0.003875 0.004155 0.000000 0.040621 0.000000
# 6 0.000000 0.000000 0.000000 -0.011118 0.000000 -0.068005
#
#
# Mechanical properties :
#
#
# Convention : Reuss Voigt Hill
#
# Bulk Modulus (GPa) = 43.49392 76.21546 59.85469
# Shear Modulus (GPa) = 49.11126 21.59893 35.35510
#
# Velocity S-wave (km/s) = 5.15490 3.41858 4.37376
# Velocity P-wave (km/s) = 7.67881 7.53795 7.60871
#
# Compressibility (1/GPa) = 0.02299172
#
# Stress axis : x y z
#
# Youngs Moduli (GPa) = 30.70567 65.14599 96.30257
#
# Poissons Ratio (x) = 0.30111 0.85342
# Poissons Ratio (y) = 0.14192 0.40167
# Poissons Ratio (z) = 0.27211 0.27172
#
# Static dielectric constant tensor:
#      x y z
#    x 1.638330 0.000000 0.018400 
#    y 0.000000 1.634740 0.000000 
#    z 0.018400 0.000000 1.635400 
# 
# From -- ./inp_files/151764.got.cif
#   From: 2010.05.17/outbox.cif.g08.bks.cpg/sg15_76_cif.got.tgz:151764.got - 2010.06.03 18:47:42.
