data_PCOD9256856
_publ_section_title
;
Structure prediction by ZEFSAII (Michael W. Deem and Ramdas Pophale) SiO2 
 PCOD9256856
Probable space group: C 2/C
;
_chemical_formula_sum "Si O2"
_cell_formula_units_Z 44
_cell_length_a 12.229943
_cell_length_b 29.203742
_cell_length_c 5.509716
_cell_angle_alpha 90.000000
_cell_angle_beta 99.677428
_cell_angle_gamma 90.000000
_cell_volume 1939.847749
_symmetry_space_group_name_H-M "C 2/C"
_symmetry_group_IT_number 15
_symmetry_cell_setting 'monoclinic'
loop_
_space_group_symop_operation_xyz
x,y,z
-x,y,1/2-z
-x,-y,-z
x,-y,1/2+z
1/2+x,1/2+y,z
1/2-x,1/2+y,1/2-z
1/2-x,1/2-y,-z
1/2+x,1/2-y,1/2+z
loop_
_atom_site_type_symbol
_atom_site_label
_atom_site_fract_x
_atom_site_fract_y
_atom_site_fract_z
Si Si1 0.891786 0.043112 0.598374
Si Si2 0.890598 0.258558 0.797286
Si Si3 0.000000 0.110205 0.250000
Si Si4 0.321306 0.017438 0.505420
Si Si5 0.331838 0.801124 0.280038
Si Si6 0.277999 0.609785 0.942084
O O1 0.943694 0.076564 0.420870
O O2 0.000000 0.019104 0.750000
O O3 0.798199 0.007473 0.491554
O O4 0.833064 0.078607 0.756956
O O5 0.783840 0.226583 0.753105
O O6 0.879307 0.295017 0.570032
O O7 0.000000 0.231778 0.750000
O O8 0.894832 0.279829 0.068667
O O9 0.887036 0.133755 0.106935
O O10 0.293794 0.070930 0.442870
O O11 0.374232 0.007338 0.790451
O O12 0.302539 0.852659 0.198169
#
# Coordination Sequence:
#
# PCOD9256856 Si02
#       6
#     8   8   4   8   8   8
#     4   9  19  29  43  66 106 161 204 229 269 339
#     4  10  22  44  68  87 118 153 187 237 309 361
#     4  10  18  30  44  70 110 168 192 234 274 334
#     4  10  19  30  45  65 105 154 200 226 269 329
#     4  10  23  40  64  94 119 148 194 247 285 353
#     4  10  21  32  48  77 115 152 197 238 276 329
#
# _framework density 22.682191
#
# number of rings (size 3 to 8) (size 9 to 14) (size 15 to 20)
#    0.000    2.182    1.818    0.545    3.818    4.364 
#    6.545    0.000    0.000    0.000    0.000    0.000 
#    0.000   58.182    0.000    0.000    0.000    0.000 
#
# Total GULP energy -122597.772107 kJ/mol
# GULP energy per Si atom -5572.626005 kJ/mol
# Density = 2.263057 g / cm^3
# Si number density = 22.682191 Si / 1000 Ang^3
#
#
#
# Elastic Constant Matrix: (Units=GPa)
#
#
# Indices 1 2 3 4 5 6 
#
# 1 61.8401 2.8717 26.8191 0.0000 -24.6291 0.0000
# 2 2.8717 41.2052 3.6755 0.0000 0.4975 0.0000
# 3 26.8191 3.6755 118.1410 0.0000 -5.1467 0.0000
# 4 0.0000 0.0000 0.0000 -0.9727 0.0000 -19.0134
# 5 -24.6291 0.4975 -5.1467 0.0000 28.3863 0.0000
# 6 0.0000 0.0000 0.0000 -19.0134 0.0000 -27.3884
#
#
#
# Elastic Compliance Matrix: (Units=1/GPa)
#
#
# Indices 1 2 3 4 5 6 
#
# 1 0.027743 -0.001746 -0.005235 0.000000 0.023153 0.000000
# 2 -0.001746 0.024455 -0.000453 0.000000 -0.002026 0.000000
# 3 -0.005235 -0.000453 0.009545 0.000000 -0.002804 0.000000
# 4 0.000000 0.000000 0.000000 0.081788 0.000000 -0.056779
# 5 0.023153 -0.002026 -0.002804 0.000000 0.054844 0.000000
# 6 0.000000 0.000000 0.000000 -0.056779 0.000000 0.002905
#
#
# Mechanical properties :
#
#
# Convention : Reuss Voigt Hill
#
# Bulk Modulus (GPa) = 21.33302 31.99100 26.66201
# Shear Modulus (GPa) = 21.57287 12.52638 17.04962
#
# Velocity S-wave (km/s) = 3.08733 2.35256 2.74464
# Velocity P-wave (km/s) = 4.70472 4.63832 4.67164
#
# Compressibility (1/GPa) = 0.04687569
#
# Stress axis : x y z
#
# Youngs Moduli (GPa) = 36.04494 40.89091 104.76906
#
# Poissons Ratio (x) = 0.07140 0.54847
# Poissons Ratio (y) = 0.06294 0.04743
# Poissons Ratio (z) = 0.18870 0.01851
#
# Static dielectric constant tensor:
#      x y z
#    x 1.907250 0.000000 0.085650 
#    y 0.000000 1.803110 0.000000 
#    z 0.085650 0.000000 2.031130 
# 
# From -- ./inp_files/8046.got.cif
#   From: 2010.05.17/outbox.cif.g08.bks.cpg/sg15_5_cif.got.tgz:8046.got - 2010.06.03 18:47:42.
