data_PCOD9256331
_publ_section_title
;
Structure prediction by ZEFSAII (Michael W. Deem and Ramdas Pophale) SiO2 
 PCOD9256331
Probable space group: C 2/C
;
_chemical_formula_sum "Si O2"
_cell_formula_units_Z 56
_cell_length_a 16.137718
_cell_length_b 9.623803
_cell_length_c 14.643489
_cell_angle_alpha 90.000000
_cell_angle_beta 97.018585
_cell_angle_gamma 90.000000
_cell_volume 2257.183160
_symmetry_space_group_name_H-M "C 2/C"
_symmetry_group_IT_number 15
_symmetry_cell_setting 'monoclinic'
loop_
_space_group_symop_operation_xyz
x,y,z
-x,y,1/2-z
-x,-y,-z
x,-y,1/2+z
1/2+x,1/2+y,z
1/2-x,1/2+y,1/2-z
1/2-x,1/2-y,-z
1/2+x,1/2-y,1/2+z
loop_
_atom_site_type_symbol
_atom_site_label
_atom_site_fract_x
_atom_site_fract_y
_atom_site_fract_z
Si Si1 0.838176 0.977969 0.970351
Si Si2 0.666120 0.202807 0.066688
Si Si3 0.991969 0.628834 0.353165
Si Si4 0.158549 0.477093 0.906808
Si Si5 0.717059 0.479272 0.342010
Si Si6 0.577745 0.441278 0.697520
Si Si7 0.118893 0.376640 0.208713
O O1 0.817089 0.142743 0.962876
O O2 0.750443 0.912404 0.924495
O O3 0.914274 0.949604 0.911717
O O4 0.840363 0.947680 0.078138
O O5 0.579896 0.213897 0.109286
O O6 0.738435 0.130949 0.137317
O O7 0.650596 0.095303 0.982556
O O8 0.954128 0.470968 0.345293
O O9 0.000000 0.673429 0.250000
O O10 0.081965 0.627569 0.410966
O O11 0.143225 0.545444 0.805845
O O12 0.659156 0.479185 0.246207
O O13 0.798000 0.383190 0.341556
O O14 0.500000 0.486337 0.750000
O O15 0.590310 0.278465 0.720915
#
# Coordination Sequence:
#
# PCOD9256331 Si02
#       7
#     8   8   8   8   8   8   8
#     4  11  23  38  60  89 123 163 199 244 309 363
#     4  10  20  35  61  90 122 158 202 250 301 360
#     4   9  19  33  57  89 123 156 202 252 297 345
#     4  10  17  36  60  89 115 155 207 252 297 350
#     4  10  22  41  63  88 119 156 207 254 294 357
#     4  12  25  41  62  88 124 163 201 244 304 366
#     4  10  20  38  62  87 118 160 202 248 299 356
#
# _framework density 24.809683
#
# number of rings (size 3 to 8) (size 9 to 14) (size 15 to 20)
#    0.000    1.714    1.429    5.143    0.000    1.714 
#    0.000    1.429    0.000    0.000    0.000    0.000 
#    0.000    0.000    0.000    0.000    0.000    0.000 
#
# Total GULP energy -156658.334664 kJ/mol
# GULP energy per Si atom -5594.940524 kJ/mol
# Density = 2.475322 g / cm^3
# Si number density = 24.809683 Si / 1000 Ang^3
#
#
#
# Elastic Constant Matrix: (Units=GPa)
#
#
# Indices 1 2 3 4 5 6 
#
# 1 108.9842 14.9988 28.9883 0.0000 -38.5314 0.0000
# 2 14.9988 49.0965 -9.8655 0.0000 2.6323 0.0000
# 3 28.9883 -9.8655 86.6258 0.0000 -35.2341 0.0000
# 4 0.0000 0.0000 0.0000 14.1633 0.0000 -14.1228
# 5 -38.5314 2.6323 -35.2341 0.0000 51.6685 0.0000
# 6 0.0000 0.0000 0.0000 -14.1228 0.0000 17.5337
#
#
#
# Elastic Compliance Matrix: (Units=1/GPa)
#
#
# Indices 1 2 3 4 5 6 
#
# 1 0.013536 -0.004890 -0.001217 0.000000 0.009513 0.000000
# 2 -0.004890 0.022634 0.003130 0.000000 -0.002665 0.000000
# 3 -0.001217 0.003130 0.016431 0.000000 0.010138 0.000000
# 4 0.000000 0.000000 0.000000 0.358697 0.000000 0.288918
# 5 0.009513 -0.002665 0.010138 0.000000 0.033498 0.000000
# 6 0.000000 0.000000 0.000000 0.288918 0.000000 0.289747
#
#
# Mechanical properties :
#
#
# Convention : Reuss Voigt Hill
#
# Bulk Modulus (GPa) = 21.43767 34.77218 28.10493
# Shear Modulus (GPa) = 6.61337 30.71210 18.66273
#
# Velocity S-wave (km/s) = 1.63445 3.52221 2.74567
# Velocity P-wave (km/s) = 3.49593 5.53058 4.62649
#
# Compressibility (1/GPa) = 0.04664685
#
# Stress axis : x y z
#
# Youngs Moduli (GPa) = 73.87850 44.18202 60.86051
#
# Poissons Ratio (x) = 0.21604 0.07407
# Poissons Ratio (y) = 0.36124 -0.19049
# Poissons Ratio (z) = 0.08991 -0.13829
#
# Static dielectric constant tensor:
#      x y z
#    x 1.990560 0.000000 -0.043570 
#    y 0.000000 1.932810 0.000000 
#    z -0.043570 0.000000 1.974210 
# 
# From -- ./inp_files/152597.got.cif
#   From: 2010.05.17/outbox.cif.g08.bks.cpg/sg15_77_cif.got.tgz:152597.got - 2010.06.03 18:47:42.
