data_PCOD9256977
_publ_section_title
;
Structure prediction by ZEFSAII (Michael W. Deem and Ramdas Pophale) SiO2 
 PCOD9256977
Probable space group: C 2/C
;
_chemical_formula_sum "Si O2"
_cell_formula_units_Z 64
_cell_length_a 14.122627
_cell_length_b 31.420953
_cell_length_c 10.205914
_cell_angle_alpha 90.000000
_cell_angle_beta 141.617940
_cell_angle_gamma 90.000000
_cell_volume 2811.965973
_symmetry_space_group_name_H-M "C 2/C"
_symmetry_group_IT_number 15
_symmetry_cell_setting 'monoclinic'
loop_
_space_group_symop_operation_xyz
x,y,z
-x,y,1/2-z
-x,-y,-z
x,-y,1/2+z
1/2+x,1/2+y,z
1/2-x,1/2+y,1/2-z
1/2-x,1/2-y,-z
1/2+x,1/2-y,1/2+z
loop_
_atom_site_type_symbol
_atom_site_label
_atom_site_fract_x
_atom_site_fract_y
_atom_site_fract_z
Si Si1 0.801864 0.400833 0.319167
Si Si2 0.018476 0.250157 0.936187
Si Si3 0.238441 0.310905 0.839942
Si Si4 0.172448 0.402380 0.718651
Si Si5 0.210858 0.188927 0.673305
Si Si6 0.818036 0.295535 0.030089
Si Si7 0.684800 0.968537 0.946473
Si Si8 0.686181 0.065749 0.953186
O O1 0.724085 0.355443 0.263785
O O2 0.763846 0.437237 0.382238
O O3 0.762677 0.416471 0.130825
O O4 0.987755 0.395965 0.522754
O O5 0.114224 0.215322 0.961905
O O6 0.142767 0.281997 0.133130
O O7 0.896775 0.282986 0.746035
O O8 0.929343 0.219708 0.943821
O O9 0.237085 0.360729 0.860350
O O10 0.215474 0.306025 0.656668
O O11 0.216810 0.444926 0.844515
O O12 0.224353 0.407724 0.624934
O O13 0.231302 0.176226 0.543531
O O14 0.000000 0.298400 0.250000
O O15 0.750000 0.250000 0.000000
O O16 0.500000 0.970396 0.750000
O O17 0.738613 0.016725 0.020155
O O18 0.500000 0.065594 0.750000
#
# Coordination Sequence:
#
# PCOD9256977 Si02
#       8
#     8   8   8   8   8   8   8   8
#     4  10  18  30  50  76 108 138 176 221 264 325
#     4  10  20  31  48  69 104 142 184 220 266 314
#     4  11  19  31  46  73 103 142 180 221 266 315
#     4  10  18  30  50  76 108 138 176 221 264 325
#     4  11  19  31  46  73 103 142 180 221 266 315
#     4  12  17  25  41  66  95 136 174 215 263 311
#     4   9  18  31  50  75 107 141 170 216 279 326
#     4   9  17  30  49  79 108 135 170 219 274 325
#
# _framework density 22.759876999999999
#
# number of rings (size 3 to 8) (size 9 to 14) (size 15 to 20)
#    0.000    1.750    5.000    1.500    0.000    4.000 
#    0.000    0.000    0.000    5.250    0.000    5.250 
#    0.000    0.000    0.000    0.000    0.000    0.000 
#
# Total GULP energy -178734.729088 kJ/mol
# GULP energy per Si atom -5585.460284 kJ/mol
# Density = 2.270807 g / cm^3
# Si number density = 22.759877 Si / 1000 Ang^3
#
#
#
# Elastic Constant Matrix: (Units=GPa)
#
#
# Indices 1 2 3 4 5 6 
#
# 1 60.2554 18.9340 25.3877 0.0000 -9.0829 0.0000
# 2 18.9340 164.2758 24.8027 0.0000 -6.7487 0.0000
# 3 25.3877 24.8027 58.4436 0.0000 -10.3697 0.0000
# 4 0.0000 0.0000 0.0000 22.7525 0.0000 -9.5513
# 5 -9.0829 -6.7487 -10.3697 0.0000 30.2882 0.0000
# 6 0.0000 0.0000 0.0000 -9.5513 0.0000 17.2635
#
#
#
# Elastic Compliance Matrix: (Units=1/GPa)
#
#
# Indices 1 2 3 4 5 6 
#
# 1 0.020792 -0.001054 -0.008006 0.000000 0.003259 0.000000
# 2 -0.001054 0.006566 -0.002263 0.000000 0.000372 0.000000
# 3 -0.008006 -0.002263 0.022394 0.000000 0.004762 0.000000
# 4 0.000000 0.000000 0.000000 0.057247 0.000000 0.031673
# 5 0.003259 0.000372 0.004762 0.000000 0.035707 0.000000
# 6 0.000000 0.000000 0.000000 0.031673 0.000000 0.075449
#
#
# Mechanical properties :
#
#
# Convention : Reuss Voigt Hill
#
# Bulk Modulus (GPa) = 36.89277 46.80261 41.84769
# Shear Modulus (GPa) = 20.01322 28.31754 24.16538
#
# Velocity S-wave (km/s) = 2.96855 3.53113 3.26199
# Velocity P-wave (km/s) = 5.29098 6.10192 5.71086
#
# Compressibility (1/GPa) = 0.02710558
#
# Stress axis : x y z
#
# Youngs Moduli (GPa) = 48.09589 152.30716 44.65565
#
# Poissons Ratio (x) = 0.16048 0.35753
# Poissons Ratio (y) = 0.05068 0.10104
# Poissons Ratio (z) = 0.38508 0.34461
#
# Static dielectric constant tensor:
#      x y z
#    x 1.918170 0.000000 -0.069670 
#    y 0.000000 1.850910 0.000000 
#    z -0.069670 0.000000 1.884850 
# 
# From -- ./inp_files/101653.got.cif
#   From: 2010.05.17/outbox.cif.g08.bks.cpg/sg15_51_cif.got.tgz:101653.got - 2010.06.03 18:47:42.
