data_PCOD9256357
_publ_section_title
;
Structure prediction by ZEFSAII (Michael W. Deem and Ramdas Pophale) SiO2 
 PCOD9256357
Probable space group: C 2/C
;
_chemical_formula_sum "Si O2"
_cell_formula_units_Z 56
_cell_length_a 22.418890
_cell_length_b 22.248704
_cell_length_c 11.866134
_cell_angle_alpha 90.000000
_cell_angle_beta 28.620030
_cell_angle_gamma 90.000000
_cell_volume 2835.061366
_symmetry_space_group_name_H-M "C 2/C"
_symmetry_group_IT_number 15
_symmetry_cell_setting 'monoclinic'
loop_
_space_group_symop_operation_xyz
x,y,z
-x,y,1/2-z
-x,-y,-z
x,-y,1/2+z
1/2+x,1/2+y,z
1/2-x,1/2+y,1/2-z
1/2-x,1/2-y,-z
1/2+x,1/2-y,1/2+z
loop_
_atom_site_type_symbol
_atom_site_label
_atom_site_fract_x
_atom_site_fract_y
_atom_site_fract_z
Si Si1 0.142366 0.886991 0.978728
Si Si2 0.681823 0.952323 0.637360
Si Si3 0.763903 0.707149 0.147310
Si Si4 0.000000 0.919472 0.750000
Si Si5 0.424679 0.922300 0.131757
Si Si6 0.500000 0.120374 0.750000
Si Si7 0.798925 0.168262 0.496657
Si Si8 0.371393 0.499796 0.642604
O O1 0.231429 0.910604 0.929674
O O2 0.172143 0.819067 0.893415
O O3 0.163190 0.932586 0.838991
O O4 0.000000 0.894273 0.250000
O O5 0.760222 0.970675 0.397684
O O6 0.648930 0.015060 0.754550
O O7 0.545729 0.922556 0.851491
O O8 0.802803 0.776552 0.078094
O O9 0.883306 0.664257 0.961461
O O10 0.703541 0.694216 0.125407
O O11 0.086028 0.876635 0.682271
O O12 0.092287 0.961375 0.526300
O O13 0.474931 0.917028 0.177898
O O14 0.328574 0.868498 0.273703
O O15 0.500000 0.500000 0.500000
#
# Coordination Sequence:
#
# PCOD9256357 Si02
#       8
#     8   8   8   4   8   4   8   8
#     4  12  22  38  61  90 125 164 204 249 312 373
#     4  11  23  37  60  92 127 165 196 254 317 378
#     4  10  21  38  64  88 116 162 209 253 301 356
#     4  12  23  40  64  92 120 161 206 254 320 362
#     4  10  21  39  58  91 129 158 204 250 314 371
#     4  10  17  36  64  86 120 161 204 250 296 374
#     4  10  22  40  61  88 121 158 209 260 294 366
#     4  12  21  37  59  92 128 157 199 257 311 370
#
# _framework density 19.752659999999999
#
# number of rings (size 3 to 8) (size 9 to 14) (size 15 to 20)
#    0.000    1.143    3.571    4.714    0.000    0.000 
#    0.000    1.429    0.000    1.714    0.000    0.000 
#    0.000    0.000    0.000    0.000    0.000    0.000 
#
# Total GULP energy -156456.961543 kJ/mol
# GULP energy per Si atom -5587.748627 kJ/mol
# Density = 1.970770 g / cm^3
# Si number density = 19.752660 Si / 1000 Ang^3
#
#
#
# Elastic Constant Matrix: (Units=GPa)
#
#
# Indices 1 2 3 4 5 6 
#
# 1 32.0390 2.7148 10.2697 0.0001 -7.8513 -0.0001
# 2 2.7148 71.0768 14.0393 -0.0001 2.8245 0.0000
# 3 10.2697 14.0393 125.8843 0.0001 -2.7389 -0.0001
# 4 0.0001 -0.0001 0.0001 21.0627 -0.0001 11.2182
# 5 -7.8513 2.8245 -2.7389 -0.0001 21.0765 0.0001
# 6 -0.0001 0.0000 -0.0001 11.2182 0.0001 24.3963
#
#
#
# Elastic Compliance Matrix: (Units=1/GPa)
#
#
# Indices 1 2 3 4 5 6 
#
# 1 0.035302 -0.001383 -0.002442 0.000000 0.013019 0.000000
# 2 -0.001383 0.014538 -0.001566 0.000000 -0.002667 0.000000
# 3 -0.002442 -0.001566 0.008326 0.000000 0.000382 0.000000
# 4 0.000000 0.000000 0.000000 0.062876 0.000000 -0.028912
# 5 0.013019 -0.002667 0.000382 0.000000 0.052703 0.000000
# 6 0.000000 0.000000 0.000000 -0.028912 0.000000 0.054285
#
#
# Mechanical properties :
#
#
# Convention : Reuss Voigt Hill
#
# Bulk Modulus (GPa) = 21.10527 31.44973 26.27750
# Shear Modulus (GPa) = 19.63801 26.77218 23.20510
#
# Velocity S-wave (km/s) = 3.15651 3.68553 3.43123
# Velocity P-wave (km/s) = 4.89823 5.83671 5.38794
#
# Compressibility (1/GPa) = 0.04738154
#
# Stress axis : x y z
#
# Youngs Moduli (GPa) = 28.32670 68.78749 120.10468
#
# Poissons Ratio (x) = 0.09515 0.29335
# Poissons Ratio (y) = 0.03918 0.18814
# Poissons Ratio (z) = 0.06919 0.10775
#
# Static dielectric constant tensor:
#      x y z
#    x 1.711110 0.000000 0.009150 
#    y 0.000000 1.683870 0.000000 
#    z 0.009150 0.000000 1.712430 
# 
# From -- ./inp_files/119822.got.cif
#   From: 2010.05.17/outbox.cif.g08.bks.cpg/sg15_60_cif.got.tgz:119822.got - 2010.06.03 18:47:42.
