data_PCOD9256518
_publ_section_title
;
Structure prediction by ZEFSAII (Michael W. Deem and Ramdas Pophale) SiO2 
 PCOD9256518
Probable space group: C 2/C
;
_chemical_formula_sum "Si O2"
_cell_formula_units_Z 44
_cell_length_a 18.497530
_cell_length_b 11.232506
_cell_length_c 8.916513
_cell_angle_alpha 90.000000
_cell_angle_beta 72.065877
_cell_angle_gamma 90.000000
_cell_volume 1762.599733
_symmetry_space_group_name_H-M "C 2/C"
_symmetry_group_IT_number 15
_symmetry_cell_setting 'monoclinic'
loop_
_space_group_symop_operation_xyz
x,y,z
-x,y,1/2-z
-x,-y,-z
x,-y,1/2+z
1/2+x,1/2+y,z
1/2-x,1/2+y,1/2-z
1/2-x,1/2-y,-z
1/2+x,1/2-y,1/2+z
loop_
_atom_site_type_symbol
_atom_site_label
_atom_site_fract_x
_atom_site_fract_y
_atom_site_fract_z
Si Si1 0.088776 0.233013 0.169203
Si Si2 0.587568 0.549897 0.690191
Si Si3 0.094638 0.390617 0.417023
Si Si4 0.201632 0.592605 0.446636
Si Si5 0.000000 0.562186 0.250000
Si Si6 0.306548 0.479950 0.621340
O O1 0.087067 0.092351 0.154936
O O2 0.121646 0.279426 0.305321
O O3 0.000000 0.264903 0.250000
O O4 0.137848 0.306883 0.016781
O O5 0.500000 0.589550 0.750000
O O6 0.633874 0.553498 0.814447
O O7 0.642903 0.596836 0.526191
O O8 0.159274 0.467958 0.451157
O O9 0.039447 0.364022 0.591925
O O10 0.056460 0.479268 0.314851
O O11 0.254717 0.570520 0.557121
O O12 0.253587 0.597483 0.265732
#
# Coordination Sequence:
#
# PCOD9256518 Si02
#       6
#     8   8   8   8   4   8
#     4  11  21  36  64  96 125 159 208 248 305 362
#     4  10  23  43  70  87 114 158 215 266 300 364
#     4  11  17  32  52  86 123 167 197 234 296 370
#     4  11  20  36  60  91 126 164 197 243 312 372
#     4  10  18  26  54  78 126 174 196 230 282 374
#     4  10  22  39  63  88 117 164 205 251 313 360
#
# _framework density 24.963125999999999
#
# number of rings (size 3 to 8) (size 9 to 14) (size 15 to 20)
#    0.000    1.455    4.545    1.636    0.000    2.909 
#    0.000    0.909   30.000    0.000    0.000    0.000 
#    0.000    0.000    0.000    0.000    0.000    0.000 
#
# Total GULP energy -122886.219254 kJ/mol
# GULP energy per Si atom -5585.737239 kJ/mol
# Density = 2.490631 g / cm^3
# Si number density = 24.963126 Si / 1000 Ang^3
#
#
#
# Elastic Constant Matrix: (Units=GPa)
#
#
# Indices 1 2 3 4 5 6 
#
# 1 135.0170 -0.0788 27.7400 0.0000 -12.3509 0.0000
# 2 -0.0788 40.4264 8.6417 0.0000 -19.3093 0.0000
# 3 27.7400 8.6417 182.1518 0.0000 -21.9626 0.0000
# 4 0.0000 0.0000 0.0000 29.4718 0.0000 -5.5852
# 5 -12.3509 -19.3093 -21.9626 0.0000 46.3867 0.0000
# 6 0.0000 0.0000 0.0000 -5.5852 0.0000 26.0027
#
#
#
# Elastic Compliance Matrix: (Units=1/GPa)
#
#
# Indices 1 2 3 4 5 6 
#
# 1 0.007805 0.001243 -0.000991 0.000000 0.002126 0.000000
# 2 0.001243 0.031074 -0.000068 0.000000 0.013234 0.000000
# 3 -0.000991 -0.000068 0.005948 0.000000 0.002524 0.000000
# 4 0.000000 0.000000 0.000000 0.035370 0.000000 0.007597
# 5 0.002126 0.013234 0.002524 0.000000 0.028828 0.000000
# 6 0.000000 0.000000 0.000000 0.007597 0.000000 0.040089
#
#
# Mechanical properties :
#
#
# Convention : Reuss Voigt Hill
#
# Bulk Modulus (GPa) = 22.12622 47.80012 34.96317
# Shear Modulus (GPa) = 30.52243 41.79173 36.15708
#
# Velocity S-wave (km/s) = 3.50051 4.09606 3.80994
# Velocity P-wave (km/s) = 5.02204 6.44672 5.77845
#
# Compressibility (1/GPa) = 0.04519526
#
# Stress axis : x y z
#
# Youngs Moduli (GPa) = 128.11705 32.18093 168.11071
#
# Poissons Ratio (x) = -0.03999 0.16664
# Poissons Ratio (y) = -0.15921 0.01140
# Poissons Ratio (z) = 0.12700 0.00218
#
# Static dielectric constant tensor:
#      x y z
#    x 2.161370 0.000000 -0.053020 
#    y 0.000000 1.992380 0.000000 
#    z -0.053020 0.000000 2.015460 
# 
# From -- ./inp_files/54918.got.cif
#   From: 2010.05.17/outbox.cif.g08.bks.cpg/sg15_28_cif.got.tgz:54918.got - 2010.06.03 18:47:42.
