data_PCOD9256232
_publ_section_title
;
Structure prediction by ZEFSAII (Michael W. Deem and Ramdas Pophale) SiO2 
 PCOD9256232
Probable space group: C 2/C
;
_chemical_formula_sum "Si O2"
_cell_formula_units_Z 60
_cell_length_a 14.324618
_cell_length_b 15.723963
_cell_length_c 25.149939
_cell_angle_alpha 90.000000
_cell_angle_beta 150.172479
_cell_angle_gamma 90.000000
_cell_volume 2817.602190
_symmetry_space_group_name_H-M "C 2/C"
_symmetry_group_IT_number 15
_symmetry_cell_setting 'monoclinic'
loop_
_space_group_symop_operation_xyz
x,y,z
-x,y,1/2-z
-x,-y,-z
x,-y,1/2+z
1/2+x,1/2+y,z
1/2-x,1/2+y,1/2-z
1/2-x,1/2-y,-z
1/2+x,1/2-y,1/2+z
loop_
_atom_site_type_symbol
_atom_site_label
_atom_site_fract_x
_atom_site_fract_y
_atom_site_fract_z
Si Si1 0.723238 0.214337 0.639583
Si Si2 0.896253 0.688126 0.041287
Si Si3 0.860506 0.107021 0.402447
Si Si4 0.500000 0.578029 0.750000
Si Si5 0.692628 0.516850 0.942477
Si Si6 0.804126 0.734706 0.757111
Si Si7 0.625983 0.665825 0.437443
Si Si8 0.876214 0.932239 0.368868
O O1 0.627342 0.196458 0.534980
O O2 0.778030 0.313546 0.662412
O O3 0.884406 0.145728 0.727194
O O4 0.625590 0.209691 0.648752
O O5 0.103062 0.718305 0.159302
O O6 0.750000 0.750000 0.000000
O O7 0.843167 0.590682 0.028717
O O8 0.023746 0.135881 0.441631
O O9 0.966453 0.092489 0.509971
O O10 0.779610 0.018457 0.341753
O O11 0.638829 0.524546 0.854163
O O12 0.736734 0.419270 0.976110
O O13 0.501725 0.542622 0.879856
O O14 0.762683 0.646784 0.706863
O O15 0.955935 0.804661 0.814269
O O16 0.750000 0.750000 0.500000
#
# Coordination Sequence:
#
# PCOD9256232 Si02
#       8
#     8   8   8   4   8   8   8   8
#     4  10  18  32  54  91 126 151 198 244 311 355
#     4  11  19  34  62  97 127 154 195 260 308 361
#     4   9  19  34  62  83 117 158 200 252 306 351
#     4  10  18  32  60  88 124 160 190 254 306 362
#     4  10  20  38  58  88 128 156 200 247 308 355
#     4  11  20  37  63  87 119 169 203 247 311 364
#     4  10  24  45  58  82 124 168 204 253 295 366
#     4  10  17  35  61  87 117 158 200 252 299 363
#
# _framework density 21.294702000000001
#
# number of rings (size 3 to 8) (size 9 to 14) (size 15 to 20)
#    0.000    1.867    4.000    0.800    0.000    0.000 
#    9.600    0.000    0.000    8.000    0.000    0.000 
#    0.000    0.000    0.000    0.000    0.000    0.000 
#
# Total GULP energy -167019.372427 kJ/mol
# GULP energy per Si atom -5567.312414 kJ/mol
# Density = 2.124623 g / cm^3
# Si number density = 21.294702 Si / 1000 Ang^3
#
#
#
# Elastic Constant Matrix: (Units=GPa)
#
#
# Indices 1 2 3 4 5 6 
#
# 1 26.7618 32.2536 19.0341 0.0001 -10.6835 0.0000
# 2 32.2536 183.9965 45.5399 0.0000 -3.4640 0.0000
# 3 19.0341 45.5399 67.6942 -0.0005 1.9793 0.0001
# 4 0.0001 0.0000 -0.0005 34.2365 0.0002 0.0620
# 5 -10.6835 -3.4640 1.9793 0.0002 27.4145 0.0001
# 6 0.0000 0.0000 0.0001 0.0620 0.0001 25.7351
#
#
#
# Elastic Compliance Matrix: (Units=1/GPa)
#
#
# Indices 1 2 3 4 5 6 
#
# 1 0.067619 -0.007749 -0.014573 0.000000 0.026424 0.000000
# 2 -0.007749 0.007445 -0.002774 0.000000 -0.001879 0.000000
# 3 -0.014573 -0.002774 0.020957 0.000000 -0.007543 0.000000
# 4 0.000000 0.000000 0.000000 0.029209 0.000000 -0.000070
# 5 0.026424 -0.001879 -0.007543 0.000000 0.047082 0.000000
# 6 0.000000 0.000000 0.000000 -0.000070 0.000000 0.038858
#
#
# Mechanical properties :
#
#
# Convention : Reuss Voigt Hill
#
# Bulk Modulus (GPa) = 21.82051 52.45639 37.13845
# Shear Modulus (GPa) = 18.07423 29.58556 23.82989
#
# Velocity S-wave (km/s) = 2.91652 3.73143 3.34885
# Velocity P-wave (km/s) = 4.64872 6.57661 5.69484
#
# Compressibility (1/GPa) = 0.04582844
#
# Stress axis : x y z
#
# Youngs Moduli (GPa) = 14.78870 134.32664 47.71725
#
# Poissons Ratio (x) = 1.04090 0.69537
# Poissons Ratio (y) = 0.11460 0.13239
# Poissons Ratio (z) = 0.21551 0.37267
#
# Static dielectric constant tensor:
#      x y z
#    x 2.291640 0.000000 0.378080 
#    y 0.000000 1.779630 0.000000 
#    z 0.378080 0.000000 2.091520 
# 
# From -- ./inp_files/296712.got.cif
#   From: 2010.05.17/outbox.cif.g08.bks.cpg/sg15_149_cif.got.tgz:296712.got - 2010.06.03 18:47:42.
