data_PCOD9256461
_publ_section_title
;
Structure prediction by ZEFSAII (Michael W. Deem and Ramdas Pophale) SiO2 
 PCOD9256461
Probable space group: C 2/C
;
_chemical_formula_sum "Si O2"
_cell_formula_units_Z 32
_cell_length_a 8.687242
_cell_length_b 13.196060
_cell_length_c 13.178202
_cell_angle_alpha 90.000000
_cell_angle_beta 67.600211
_cell_angle_gamma 90.000000
_cell_volume 1396.727103
_symmetry_space_group_name_H-M "C 2/C"
_symmetry_group_IT_number 15
_symmetry_cell_setting 'monoclinic'
loop_
_space_group_symop_operation_xyz
x,y,z
-x,y,1/2-z
-x,-y,-z
x,-y,1/2+z
1/2+x,1/2+y,z
1/2-x,1/2+y,1/2-z
1/2-x,1/2-y,-z
1/2+x,1/2-y,1/2+z
loop_
_atom_site_type_symbol
_atom_site_label
_atom_site_fract_x
_atom_site_fract_y
_atom_site_fract_z
Si Si1 0.500000 0.076788 0.250000
Si Si2 0.000000 0.903215 0.750000
Si Si3 0.989372 0.576643 0.909560
Si Si4 0.326916 0.794352 0.611131
Si Si5 0.349060 0.402668 0.217459
O O1 0.587520 0.146407 0.313178
O O2 0.597475 0.992672 0.155503
O O3 0.860362 0.835168 0.835367
O O4 0.910477 0.980862 0.693988
O O5 0.174352 0.601253 0.822345
O O6 0.906788 0.671836 0.984996
O O7 0.000000 0.500000 0.000000
O O8 0.340481 0.675435 0.627967
O O9 0.500000 0.361159 0.250000
#
# Coordination Sequence:
#
# PCOD9256461 Si02
#       5
#     4   4   8   8   8
#     4  10  17  39  64  86 120 176 209 253 326 380
#     4  10  21  43  62  94 142 154 221 279 302 386
#     4  10  20  39  67  87 129 174 209 267 327 377
#     4  11  22  41  66  94 130 171 214 269 325 380
#     4  10  20  39  65  94 129 171 213 264 323 385
#
# _framework density 22.910703999999999
#
# number of rings (size 3 to 8) (size 9 to 14) (size 15 to 20)
#    0.750    1.000    6.250    0.000    0.000    2.000 
#    4.500    6.250    0.000    0.000    0.000    0.000 
#    0.000    0.000    0.000    0.000    0.000    0.000 
#
# Total GULP energy -89132.126932 kJ/mol
# GULP energy per Si atom -5570.757933 kJ/mol
# Density = 2.285856 g / cm^3
# Si number density = 22.910704 Si / 1000 Ang^3
#
#
#
# Elastic Constant Matrix: (Units=GPa)
#
#
# Indices 1 2 3 4 5 6 
#
# 1 106.3103 23.4238 47.4807 0.0000 -3.5766 0.0000
# 2 23.4238 94.5241 5.9442 0.0000 14.0614 0.0000
# 3 47.4807 5.9442 78.0248 0.0000 16.5662 0.0000
# 4 0.0000 0.0000 0.0000 53.4518 0.0000 10.6378
# 5 -3.5766 14.0614 16.5662 0.0000 43.6048 0.0000
# 6 0.0000 0.0000 0.0000 10.6378 0.0000 54.1297
#
#
#
# Elastic Compliance Matrix: (Units=1/GPa)
#
#
# Indices 1 2 3 4 5 6 
#
# 1 0.015089 -0.004053 -0.010240 0.000000 0.006435 0.000000
# 2 -0.004053 0.012201 0.002657 0.000000 -0.005276 0.000000
# 3 -0.010240 0.002657 0.020891 0.000000 -0.009633 0.000000
# 4 0.000000 0.000000 0.000000 0.019470 0.000000 -0.003826
# 5 0.006435 -0.005276 -0.009633 0.000000 0.028822 0.000000
# 6 0.000000 0.000000 0.000000 -0.003826 0.000000 0.019226
#
#
# Mechanical properties :
#
#
# Convention : Reuss Voigt Hill
#
# Bulk Modulus (GPa) = 40.14401 48.06184 44.10292
# Shear Modulus (GPa) = 33.95038 43.70464 38.82751
#
# Velocity S-wave (km/s) = 3.85367 4.37236 4.12118
# Velocity P-wave (km/s) = 6.11236 6.82008 6.47589
#
# Compressibility (1/GPa) = 0.02491032
#
# Stress axis : x y z
#
# Youngs Moduli (GPa) = 66.27300 81.95780 47.86850
#
# Poissons Ratio (x) = 0.33213 0.49016
# Poissons Ratio (y) = 0.26857 -0.12718
# Poissons Ratio (z) = 0.67862 -0.21775
#
# Static dielectric constant tensor:
#      x y z
#    x 2.003130 0.000000 0.025480 
#    y 0.000000 1.900780 0.000000 
#    z 0.025480 0.000000 1.800330 
# 
# From -- ./inp_files/75699.got.cif
#   From: 2010.05.17/outbox.cif.g08.bks.cpg/sg15_38_cif.got.tgz:75699.got - 2010.06.03 18:47:42.
