data_PCOD9256136
_publ_section_title
;
Structure prediction by ZEFSAII (Michael W. Deem and Ramdas Pophale) SiO2 
 PCOD9256136
Probable space group: C 2/C
;
_chemical_formula_sum "Si O2"
_cell_formula_units_Z 64
_cell_length_a 16.888632
_cell_length_b 9.254294
_cell_length_c 18.890363
_cell_angle_alpha 90.000000
_cell_angle_beta 93.814206
_cell_angle_gamma 90.000000
_cell_volume 2945.879931
_symmetry_space_group_name_H-M "C 2/C"
_symmetry_group_IT_number 15
_symmetry_cell_setting 'monoclinic'
loop_
_space_group_symop_operation_xyz
x,y,z
-x,y,1/2-z
-x,-y,-z
x,-y,1/2+z
1/2+x,1/2+y,z
1/2-x,1/2+y,1/2-z
1/2-x,1/2-y,-z
1/2+x,1/2-y,1/2+z
loop_
_atom_site_type_symbol
_atom_site_label
_atom_site_fract_x
_atom_site_fract_y
_atom_site_fract_z
Si Si1 0.659076 0.439494 0.610814
Si Si2 0.111531 0.565458 0.012257
Si Si3 0.274107 0.026207 0.357349
Si Si4 0.702898 0.231652 0.347497
Si Si5 0.109144 0.742944 0.476870
Si Si6 0.279191 0.192996 0.578273
Si Si7 0.418672 0.091217 0.265245
Si Si8 0.959232 0.810815 0.387307
O O1 0.711772 0.339564 0.665287
O O2 0.631838 0.338142 0.544991
O O3 0.722871 0.561549 0.594132
O O4 0.584363 0.537586 0.626851
O O5 0.187208 0.504209 0.062383
O O6 0.083102 0.700764 0.058425
O O7 0.069878 0.411159 0.996262
O O8 0.134895 0.631027 0.937228
O O9 0.232382 0.182344 0.364225
O O10 0.349922 0.021006 0.309790
O O11 0.213252 0.901165 0.334151
O O12 0.683043 0.214169 0.429424
O O13 0.632085 0.154213 0.302369
O O14 0.046224 0.828015 0.424418
O O15 0.250000 0.250000 0.500000
O O16 0.500000 0.007433 0.250000
O O17 0.452994 0.221342 0.315103
#
# Coordination Sequence:
#
# PCOD9256136 Si02
#       8
#     8   8   8   8   8   8   8   8
#     4  12  22  37  62  96 127 160 211 265 321 375
#     4  10  19  37  62  93 130 162 208 253 323 386
#     4  10  22  40  65  94 123 168 214 266 309 378
#     4  12  25  38  69  96 125 167 222 266 305 378
#     4  12  22  38  63 100 131 164 203 274 327 376
#     4  10  17  34  61  90 128 159 197 265 314 379
#     4  11  24  46  65  87 127 173 218 254 316 383
#     4  11  24  41  62  90 134 176 206 256 330 387
#
# _framework density 21.725256999999999
#
# number of rings (size 3 to 8) (size 9 to 14) (size 15 to 20)
#    0.000    1.000    7.500    2.625    1.750    0.000 
#    0.000    0.000    0.000    2.250    0.000    0.000 
#    0.000    0.000    0.000    0.000    0.000    0.000 
#
# Total GULP energy -178355.806903 kJ/mol
# GULP energy per Si atom -5573.618966 kJ/mol
# Density = 2.167581 g / cm^3
# Si number density = 21.725257 Si / 1000 Ang^3
#
#
#
# Elastic Constant Matrix: (Units=GPa)
#
#
# Indices 1 2 3 4 5 6 
#
# 1 52.1103 12.1393 15.3402 0.0000 8.5427 0.0000
# 2 12.1393 98.7405 3.0824 0.0000 -10.2155 0.0000
# 3 15.3402 3.0824 36.7439 0.0000 -6.4493 0.0000
# 4 0.0000 0.0000 0.0000 5.2185 0.0000 -0.9970
# 5 8.5427 -10.2155 -6.4493 0.0000 35.2567 0.0000
# 6 0.0000 0.0000 0.0000 -0.9970 0.0000 29.6112
#
#
#
# Elastic Compliance Matrix: (Units=1/GPa)
#
#
# Indices 1 2 3 4 5 6 
#
# 1 0.025032 -0.003670 -0.011772 0.000000 -0.009282 0.000000
# 2 -0.003670 0.010983 0.001370 0.000000 0.004322 0.000000
# 3 -0.011772 0.001370 0.033666 0.000000 0.009408 0.000000
# 4 0.000000 0.000000 0.000000 0.192866 0.000000 0.006494
# 5 -0.009282 0.004322 0.009408 0.000000 0.033586 0.000000
# 6 0.000000 0.000000 0.000000 0.006494 0.000000 0.033990
#
#
# Mechanical properties :
#
#
# Convention : Reuss Voigt Hill
#
# Bulk Modulus (GPa) = 24.07527 27.63539 25.85533
# Shear Modulus (GPa) = 13.43674 24.48612 18.96143
#
# Velocity S-wave (km/s) = 2.48963 3.36084 2.95749
# Velocity P-wave (km/s) = 4.40115 5.27337 4.85688
#
# Compressibility (1/GPa) = 0.04153639
#
# Stress axis : x y z
#
# Youngs Moduli (GPa) = 39.94855 91.04810 29.70315
#
# Poissons Ratio (x) = 0.33418 0.34967
# Poissons Ratio (y) = 0.14662 -0.04068
# Poissons Ratio (z) = 0.47027 -0.12470
#
# Static dielectric constant tensor:
#      x y z
#    x 1.929440 0.000000 -0.059340 
#    y 0.000000 1.851560 0.000000 
#    z -0.059340 0.000000 1.827690 
# 
# From -- ./inp_files/247487.got.cif
#   From: 2010.05.17/outbox.cif.g08.bks.cpg/sg15_124_cif.got.tgz:247487.got - 2010.06.03 18:47:42.
