data_PCOD9256951
_publ_section_title
;
Structure prediction by ZEFSAII (Michael W. Deem and Ramdas Pophale) SiO2 
 PCOD9256951
Probable space group: C 2/C
;
_chemical_formula_sum "Si O2"
_cell_formula_units_Z 48
_cell_length_a 22.779956
_cell_length_b 12.532696
_cell_length_c 19.386394
_cell_angle_alpha 90.000000
_cell_angle_beta 152.081061
_cell_angle_gamma 90.000000
_cell_volume 2591.469838
_symmetry_space_group_name_H-M "C 2/C"
_symmetry_group_IT_number 15
_symmetry_cell_setting 'monoclinic'
loop_
_space_group_symop_operation_xyz
x,y,z
-x,y,1/2-z
-x,-y,-z
x,-y,1/2+z
1/2+x,1/2+y,z
1/2-x,1/2+y,1/2-z
1/2-x,1/2-y,-z
1/2+x,1/2-y,1/2+z
loop_
_atom_site_type_symbol
_atom_site_label
_atom_site_fract_x
_atom_site_fract_y
_atom_site_fract_z
Si Si1 0.745094 0.687324 0.650005
Si Si2 0.156409 0.404437 0.619310
Si Si3 0.917710 0.866454 0.958603
Si Si4 0.381693 0.733501 0.174907
Si Si5 0.096076 0.368331 0.055796
Si Si6 0.498695 0.574810 0.390462
O O1 0.687025 0.805736 0.600733
O O2 0.863688 0.691165 0.722713
O O3 0.793870 0.649366 0.774097
O O4 0.635675 0.612713 0.509009
O O5 0.277089 0.407334 0.795789
O O6 0.132780 0.519398 0.559108
O O7 0.034569 0.383717 0.539324
O O8 0.914594 0.749005 0.988311
O O9 0.974568 0.866471 0.939458
O O10 0.994952 0.951220 0.083408
O O11 0.500000 0.757796 0.250000
O O12 0.405463 0.618072 0.235416
O O13 0.250000 0.750000 0.000000
#
# Coordination Sequence:
#
# PCOD9256951 Si02
#       6
#     8   8   8   8   8   8
#     4  11  19  35  50  77 117 145 185 238 279 341
#     4  10  18  30  49  77 112 151 181 226 281 345
#     4  10  20  31  53  76 116 151 179 231 283 348
#     4  12  24  36  56  79 112 151 194 239 286 337
#     4  10  19  30  50  79 114 149 184 220 287 346
#     4  11  20  34  51  79 111 151 182 224 292 340
#
# _framework density 18.522307000000001
#
# number of rings (size 3 to 8) (size 9 to 14) (size 15 to 20)
#    0.000    1.333    8.333    0.000    0.000    0.000 
#    0.000    0.000    0.000    0.000    0.000    1.167 
#   15.000    1.500    0.000    0.000    0.000    0.000 
#
# Total GULP energy -133656.443565 kJ/mol
# GULP energy per Si atom -5569.018482 kJ/mol
# Density = 1.848015 g / cm^3
# Si number density = 18.522307 Si / 1000 Ang^3
#
#
#
# Elastic Constant Matrix: (Units=GPa)
#
#
# Indices 1 2 3 4 5 6 
#
# 1 57.4788 29.3890 18.6489 0.0000 15.5428 0.0000
# 2 29.3890 99.3866 14.9894 0.0000 5.0766 0.0000
# 3 18.6489 14.9894 82.8197 0.0000 9.5442 0.0000
# 4 0.0000 0.0000 0.0000 30.1205 0.0000 0.3457
# 5 15.5428 5.0766 9.5442 0.0000 28.2804 0.0000
# 6 0.0000 0.0000 0.0000 0.3457 0.0000 12.2704
#
#
#
# Elastic Compliance Matrix: (Units=1/GPa)
#
#
# Indices 1 2 3 4 5 6 
#
# 1 0.024683 -0.006247 -0.003114 0.000000 -0.011393 0.000000
# 2 -0.006247 0.011970 -0.000944 0.000000 0.001604 0.000000
# 3 -0.003114 -0.000944 0.013245 0.000000 -0.002589 0.000000
# 4 0.000000 0.000000 0.000000 0.033211 0.000000 -0.000936
# 5 -0.011393 0.001604 -0.002589 0.000000 0.042208 0.000000
# 6 0.000000 0.000000 0.000000 -0.000936 0.000000 0.081523
#
#
# Mechanical properties :
#
#
# Convention : Reuss Voigt Hill
#
# Bulk Modulus (GPa) = 34.14634 40.63772 37.39203
# Shear Modulus (GPa) = 21.07804 25.91144 23.49474
#
# Velocity S-wave (km/s) = 3.37706 3.74429 3.56540
# Velocity P-wave (km/s) = 5.80356 6.37812 6.09761
#
# Compressibility (1/GPa) = 0.02928572
#
# Stress axis : x y z
#
# Youngs Moduli (GPa) = 40.51323 83.54502 75.50038
#
# Poissons Ratio (x) = 0.52193 0.23514
# Poissons Ratio (y) = 0.25310 0.07130
# Poissons Ratio (z) = 0.12617 0.07890
#
# Static dielectric constant tensor:
#      x y z
#    x 1.686120 0.000000 0.020870 
#    y 0.000000 1.701550 0.000000 
#    z 0.020870 0.000000 1.686570 
# 
# From -- ./inp_files/116950.got.cif
#   From: 2010.05.17/outbox.cif.g08.bks.cpg/sg15_59_cif.got.tgz:116950.got - 2010.06.03 18:47:42.
