data_PCOD9256502
_publ_section_title
;
Structure prediction by ZEFSAII (Michael W. Deem and Ramdas Pophale) SiO2 
 PCOD9256502
Probable space group: C 2/C
;
_chemical_formula_sum "Si O2"
_cell_formula_units_Z 60
_cell_length_a 12.271521
_cell_length_b 28.010335
_cell_length_c 13.878850
_cell_angle_alpha 90.000000
_cell_angle_beta 135.881213
_cell_angle_gamma 90.000000
_cell_volume 3321.023148
_symmetry_space_group_name_H-M "C 2/C"
_symmetry_group_IT_number 15
_symmetry_cell_setting 'monoclinic'
loop_
_space_group_symop_operation_xyz
x,y,z
-x,y,1/2-z
-x,-y,-z
x,-y,1/2+z
1/2+x,1/2+y,z
1/2-x,1/2+y,1/2-z
1/2-x,1/2-y,-z
1/2+x,1/2-y,1/2+z
loop_
_atom_site_type_symbol
_atom_site_label
_atom_site_fract_x
_atom_site_fract_y
_atom_site_fract_z
Si Si1 0.273193 0.570511 0.529333
Si Si2 0.756796 0.155618 0.406554
Si Si3 0.283901 0.131989 0.821400
Si Si4 0.483317 0.825066 0.892486
Si Si5 0.227102 0.039870 0.667656
Si Si6 0.500000 0.023872 0.250000
Si Si7 0.465453 0.284580 0.343715
Si Si8 0.490497 0.519772 0.141774
O O1 0.331684 0.605292 0.482275
O O2 0.285781 0.601511 0.633095
O O3 0.374395 0.523664 0.595260
O O4 0.096033 0.556167 0.387344
O O5 0.669856 0.151302 0.250500
O O6 0.623521 0.167439 0.402742
O O7 0.885297 0.195654 0.503734
O O8 0.284694 0.091353 0.740915
O O9 0.174589 0.177625 0.731876
O O10 0.448043 0.152577 0.966535
O O11 0.442475 0.769082 0.865742
O O12 0.144197 0.006108 0.695858
O O13 0.371956 0.009234 0.719697
O O14 0.097588 0.046006 0.501395
O O15 0.500000 0.282910 0.250000
O O16 0.500000 0.546952 0.250000
#
# Coordination Sequence:
#
# PCOD9256502 Si02
#       8
#     8   8   8   8   8   4   8   8
#     4  10  18  30  51  74 107 147 178 212 264 318
#     4  10  18  26  42  68 106 143 180 203 250 331
#     4  11  21  32  52  76 106 145 181 217 265 332
#     4  10  19  28  42  70 109 143 174 215 266 324
#     4  10  22  36  56  80 107 146 190 226 270 320
#     4  10  22  38  50  76 110 144 186 232 268 316
#     4  12  18  28  47  73 106 149 179 211 265 334
#     4  10  19  36  56  80 110 145 185 225 266 323
#
# _framework density 18.066721000000001
#
# number of rings (size 3 to 8) (size 9 to 14) (size 15 to 20)
#    0.000    1.600    5.333    3.600    0.000    0.533 
#    0.000    0.000    0.000    0.000    0.000    0.933 
#    0.000    0.000    0.000    0.000    0.000    0.000 
#
# Total GULP energy -167247.453508 kJ/mol
# GULP energy per Si atom -5574.915117 kJ/mol
# Density = 1.802560 g / cm^3
# Si number density = 18.066721 Si / 1000 Ang^3
#
#
#
# Elastic Constant Matrix: (Units=GPa)
#
#
# Indices 1 2 3 4 5 6 
#
# 1 41.3649 3.8753 20.2595 0.0000 -5.1011 0.0000
# 2 3.8753 78.2491 25.0641 0.0000 -12.5486 0.0000
# 3 20.2595 25.0641 81.9221 0.0000 -9.5407 0.0000
# 4 0.0000 0.0000 0.0000 35.4397 0.0000 -3.4955
# 5 -5.1011 -12.5486 -9.5407 0.0000 16.0051 0.0000
# 6 0.0000 0.0000 0.0000 -3.4955 0.0000 3.9659
#
#
#
# Elastic Compliance Matrix: (Units=1/GPa)
#
#
# Indices 1 2 3 4 5 6 
#
# 1 0.028098 0.001788 -0.006759 0.000000 0.006329 0.000000
# 2 0.001788 0.015653 -0.004014 0.000000 0.010449 0.000000
# 3 -0.006759 -0.004014 0.015570 0.000000 0.003980 0.000000
# 4 0.000000 0.000000 0.000000 0.030903 0.000000 0.027238
# 5 0.006329 0.010449 0.003980 0.000000 0.075062 0.000000
# 6 0.000000 0.000000 0.000000 0.027238 0.000000 0.276157
#
#
# Mechanical properties :
#
#
# Convention : Reuss Voigt Hill
#
# Bulk Modulus (GPa) = 24.18311 33.32596 28.75453
# Shear Modulus (GPa) = 10.56642 21.23795 15.90218
#
# Velocity S-wave (km/s) = 2.42100 3.43232 2.97002
# Velocity P-wave (km/s) = 4.60755 5.84755 5.26419
#
# Compressibility (1/GPa) = 0.04135118
#
# Stress axis : x y z
#
# Youngs Moduli (GPa) = 35.58929 63.88687 64.22675
#
# Poissons Ratio (x) = -0.11425 0.43410
# Poissons Ratio (y) = -0.06364 0.25782
# Poissons Ratio (z) = 0.24054 0.25646
#
# Static dielectric constant tensor:
#      x y z
#    x 1.630440 0.000000 -0.019440 
#    y 0.000000 1.640790 0.000000 
#    z -0.019440 0.000000 1.706780 
# 
# From -- ./inp_files/157389.got.cif
#   From: 2010.05.17/outbox.cif.g08.bks.cpg/sg15_79_cif.got.tgz:157389.got - 2010.06.03 18:47:42.
