data_PCOD9256740
_publ_section_title
;
Structure prediction by ZEFSAII (Michael W. Deem and Ramdas Pophale) SiO2 
 PCOD9256740
Probable space group: C 2/C
;
_chemical_formula_sum "Si O2"
_cell_formula_units_Z 44
_cell_length_a 22.643429
_cell_length_b 15.539242
_cell_length_c 9.116511
_cell_angle_alpha 90.000000
_cell_angle_beta 123.697379
_cell_angle_gamma 90.000000
_cell_volume 2668.783304
_symmetry_space_group_name_H-M "C 2/C"
_symmetry_group_IT_number 15
_symmetry_cell_setting 'monoclinic'
loop_
_space_group_symop_operation_xyz
x,y,z
-x,y,1/2-z
-x,-y,-z
x,-y,1/2+z
1/2+x,1/2+y,z
1/2-x,1/2+y,1/2-z
1/2-x,1/2-y,-z
1/2+x,1/2-y,1/2+z
loop_
_atom_site_type_symbol
_atom_site_label
_atom_site_fract_x
_atom_site_fract_y
_atom_site_fract_z
Si Si1 0.360591 0.274835 0.212172
Si Si2 0.273203 0.112583 0.967651
Si Si3 0.833569 0.499394 0.305923
Si Si4 0.000000 0.735806 0.250000
Si Si5 0.048414 0.368681 0.097698
Si Si6 0.395565 0.838038 0.027584
O O1 0.306954 0.353961 0.131788
O O2 0.437139 0.287483 0.243240
O O3 0.371386 0.241032 0.393344
O O4 0.322750 0.194407 0.076910
O O5 0.292654 0.075073 0.836061
O O6 0.292982 0.039381 0.112359
O O7 0.909376 0.457796 0.364751
O O8 0.845293 0.580542 0.429822
O O9 0.036724 0.676903 0.425779
O O10 0.093727 0.319666 0.286233
O O11 0.970344 0.370173 0.061129
#
# Coordination Sequence:
#
# PCOD9256740 Si02
#       6
#     8   8   8   4   8   8
#     4   9  19  35  50  73 101 142 166 211 246 305
#     4  10  20  33  51  72 108 133 174 203 255 298
#     4  11  18  31  47  73 102 139 166 206 247 304
#     4  10  18  32  56  74 102 134 172 206 256 294
#     4  10  18  29  46  77 102 135 163 200 252 307
#     4   9  19  30  46  71 108 132 168 200 251 305
#
# _framework density 16.486913999999999
#
# number of rings (size 3 to 8) (size 9 to 14) (size 15 to 20)
#    0.000    2.182    3.636    0.545    0.000    1.455 
#    0.000    2.727    0.000    1.091    0.000    0.000 
#    0.000    0.000    0.000    0.000    0.000    0.000 
#
# Total GULP energy -122500.339495 kJ/mol
# GULP energy per Si atom -5568.197250 kJ/mol
# Density = 1.644939 g / cm^3
# Si number density = 16.486914 Si / 1000 Ang^3
#
#
#
# Elastic Constant Matrix: (Units=GPa)
#
#
# Indices 1 2 3 4 5 6 
#
# 1 49.6613 23.9656 38.0479 0.0000 6.4241 0.0000
# 2 23.9656 37.9129 29.4120 0.0000 3.9423 0.0000
# 3 38.0479 29.4120 89.6556 0.0000 -1.9130 0.0000
# 4 0.0000 0.0000 0.0000 23.9896 0.0000 12.0297
# 5 6.4241 3.9423 -1.9130 0.0000 24.0742 0.0000
# 6 0.0000 0.0000 0.0000 12.0297 0.0000 25.5331
#
#
#
# Elastic Compliance Matrix: (Units=1/GPa)
#
#
# Indices 1 2 3 4 5 6 
#
# 1 0.036223 -0.013365 -0.011166 0.000000 -0.008365 0.000000
# 2 -0.013365 0.041434 -0.008003 0.000000 -0.003855 0.000000
# 3 -0.011166 -0.008003 0.018641 0.000000 0.005772 0.000000
# 4 0.000000 0.000000 0.000000 0.054580 0.000000 -0.025715
# 5 -0.008365 -0.003855 0.005772 0.000000 0.044860 0.000000
# 6 0.000000 0.000000 0.000000 -0.025715 0.000000 0.051280
#
#
# Mechanical properties :
#
#
# Convention : Reuss Voigt Hill
#
# Bulk Modulus (GPa) = 32.02112 40.00898 36.01505
# Shear Modulus (GPa) = 15.50401 20.43966 17.97183
#
# Velocity S-wave (km/s) = 3.06989 3.52483 3.30520
# Velocity P-wave (km/s) = 5.65950 6.39419 6.03803
#
# Compressibility (1/GPa) = 0.03122938
#
# Stress axis : x y z
#
# Youngs Moduli (GPa) = 27.60655 24.13479 53.64481
#
# Poissons Ratio (x) = 0.32256 0.59902
# Poissons Ratio (y) = 0.36897 0.42932
# Poissons Ratio (z) = 0.30826 0.19315
#
# Static dielectric constant tensor:
#      x y z
#    x 1.573010 0.000000 -0.008080 
#    y 0.000000 1.528520 0.000000 
#    z -0.008080 0.000000 1.590330 
# 
# From -- ./inp_files/47061.got.cif
#   From: 2010.05.17/outbox.cif.g08.bks.cpg/sg15_24_cif.got.tgz:47061.got - 2010.06.03 18:47:42.
