data_PCOD9256765
_publ_section_title
;
Structure prediction by ZEFSAII (Michael W. Deem and Ramdas Pophale) SiO2 
 PCOD9256765
Probable space group: C 2/C
;
_chemical_formula_sum "Si O2"
_cell_formula_units_Z 56
_cell_length_a 24.298769
_cell_length_b 18.499333
_cell_length_c 5.559649
_cell_angle_alpha 90.000000
_cell_angle_beta 107.903091
_cell_angle_gamma 90.000000
_cell_volume 2378.110484
_symmetry_space_group_name_H-M "C 2/C"
_symmetry_group_IT_number 15
_symmetry_cell_setting 'monoclinic'
loop_
_space_group_symop_operation_xyz
x,y,z
-x,y,1/2-z
-x,-y,-z
x,-y,1/2+z
1/2+x,1/2+y,z
1/2-x,1/2+y,1/2-z
1/2-x,1/2-y,-z
1/2+x,1/2-y,1/2+z
loop_
_atom_site_type_symbol
_atom_site_label
_atom_site_fract_x
_atom_site_fract_y
_atom_site_fract_z
Si Si1 0.383253 0.041284 0.746115
Si Si2 0.000000 0.451669 0.250000
Si Si3 0.208603 0.355298 0.524864
Si Si4 0.798052 0.772975 0.869482
Si Si5 0.611369 0.783489 0.675802
Si Si6 0.944073 0.814335 0.807987
Si Si7 0.432572 0.528884 0.419128
Si Si8 0.000000 0.296639 0.750000
O O1 0.319859 0.076054 0.637087
O O2 0.387767 0.984753 0.528361
O O3 0.440082 0.089585 0.742525
O O4 0.000000 0.500000 0.500000
O O5 0.202579 0.289263 0.331162
O O6 0.272798 0.346391 0.718091
O O7 0.161517 0.338047 0.667523
O O8 0.750000 0.750000 0.000000
O O9 0.859475 0.766818 0.080321
O O10 0.594466 0.728601 0.437963
O O11 0.556361 0.828597 0.700133
O O12 0.922997 0.885120 0.916088
O O13 0.000000 0.847130 0.750000
O O14 0.971966 0.754501 0.013721
O O15 0.500000 0.500000 0.500000
O O16 0.407342 0.496136 0.629743
#
# Coordination Sequence:
#
# PCOD9256765 Si02
#       8
#     8   4   8   8   8   8   8   4
#     4  10  22  39  66  98 135 176 216 265 324 401
#     4   8  16  36  55  84 128 173 210 244 308 380
#     4  10  21  40  64  95 121 167 224 263 331 390
#     4   9  20  39  65  87 119 161 213 277 322 392
#     4  10  21  36  56  89 124 166 211 268 328 383
#     4  10  19  31  50  76 113 153 198 255 312 372
#     4  10  18  29  48  73  99 147 205 246 292 369
#     4  10  20  34  53  82 128 161 208 262 334 382
#
# _framework density 23.548109
#
# number of rings (size 3 to 8) (size 9 to 14) (size 15 to 20)
#    0.000    2.286    1.429    1.714    6.000    0.000 
#    6.429    0.714    0.000    1.714    0.000    0.000 
#    0.000    0.000    0.000    0.000    0.000    0.000 
#
# Total GULP energy -155918.039318 kJ/mol
# GULP energy per Si atom -5568.501404 kJ/mol
# Density = 2.349451 g / cm^3
# Si number density = 23.548109 Si / 1000 Ang^3
#
#
#
# Elastic Constant Matrix: (Units=GPa)
#
#
# Indices 1 2 3 4 5 6 
#
# 1 86.7616 -1.1318 15.8960 0.0000 -4.5305 0.0000
# 2 -1.1318 39.4862 15.6354 0.0000 -6.6078 0.0000
# 3 15.8960 15.6354 132.3246 0.0000 4.8097 0.0000
# 4 0.0000 0.0000 0.0000 19.0381 0.0000 -2.2399
# 5 -4.5305 -6.6078 4.8097 0.0000 43.5693 0.0000
# 6 0.0000 0.0000 0.0000 -2.2399 0.0000 28.1714
#
#
#
# Elastic Compliance Matrix: (Units=1/GPa)
#
#
# Indices 1 2 3 4 5 6 
#
# 1 0.011927 0.001261 -0.001640 0.000000 0.001613 0.000000
# 2 0.001261 0.027567 -0.003580 0.000000 0.004707 0.000000
# 3 -0.001640 -0.003580 0.008236 0.000000 -0.001623 0.000000
# 4 0.000000 0.000000 0.000000 0.053022 0.000000 0.004216
# 5 0.001613 0.004707 -0.001623 0.000000 0.024013 0.000000
# 6 0.000000 0.000000 0.000000 0.004216 0.000000 0.035832
#
#
# Mechanical properties :
#
#
# Convention : Reuss Voigt Hill
#
# Bulk Modulus (GPa) = 25.11809 35.48574 30.30191
# Shear Modulus (GPa) = 27.50489 33.36727 30.43608
#
# Velocity S-wave (km/s) = 3.42135 3.76837 3.59904
# Velocity P-wave (km/s) = 5.12810 5.83406 5.49244
#
# Compressibility (1/GPa) = 0.03981194
#
# Stress axis : x y z
#
# Youngs Moduli (GPa) = 83.84307 36.27566 121.41502
#
# Poissons Ratio (x) = -0.04575 0.19917
# Poissons Ratio (y) = -0.10575 0.43465
# Poissons Ratio (z) = 0.13754 0.12986
#
# Static dielectric constant tensor:
#      x y z
#    x 2.039100 0.000000 0.019440 
#    y 0.000000 1.917650 0.000000 
#    z 0.019440 0.000000 2.033190 
# 
# From -- ./inp_files/16062.got.cif
#   From: 2010.05.17/outbox.cif.g08.bks.cpg/sg15_9_cif.got.tgz:16062.got - 2010.06.03 18:47:42.
