data_PCOD9256959
_publ_section_title
;
Structure prediction by ZEFSAII (Michael W. Deem and Ramdas Pophale) SiO2 
 PCOD9256959
Probable space group: C 2/C
;
_chemical_formula_sum "Si O2"
_cell_formula_units_Z 52
_cell_length_a 13.924491
_cell_length_b 25.737852
_cell_length_c 8.863971
_cell_angle_alpha 90.000000
_cell_angle_beta 114.254520
_cell_angle_gamma 90.000000
_cell_volume 2896.316565
_symmetry_space_group_name_H-M "C 2/C"
_symmetry_group_IT_number 15
_symmetry_cell_setting 'monoclinic'
loop_
_space_group_symop_operation_xyz
x,y,z
-x,y,1/2-z
-x,-y,-z
x,-y,1/2+z
1/2+x,1/2+y,z
1/2-x,1/2+y,1/2-z
1/2-x,1/2-y,-z
1/2+x,1/2-y,1/2+z
loop_
_atom_site_type_symbol
_atom_site_label
_atom_site_fract_x
_atom_site_fract_y
_atom_site_fract_z
Si Si1 0.883110 0.263604 0.646306
Si Si2 0.614420 0.538572 0.404540
Si Si3 0.615114 0.566537 0.756719
Si Si4 0.798737 0.862205 0.696037
Si Si5 0.707847 0.339850 0.467111
Si Si6 0.000000 0.212196 0.250000
Si Si7 0.841933 0.726245 0.458238
O O1 0.814245 0.306344 0.516459
O O2 0.878770 0.206184 0.574843
O O3 0.000000 0.282241 0.750000
O O4 0.831855 0.256803 0.778526
O O5 0.500000 0.541898 0.250000
O O6 0.605650 0.548040 0.577779
O O7 0.655290 0.481737 0.383582
O O8 0.682116 0.584424 0.376434
O O9 0.500000 0.579429 0.750000
O O10 0.682666 0.618515 0.823146
O O11 0.691997 0.833987 0.570125
O O12 0.901939 0.825174 0.732765
O O13 0.790148 0.868253 0.870431
O O14 0.951009 0.250952 0.092237
O O15 0.750000 0.750000 0.500000
#
# Coordination Sequence:
#
# PCOD9256959 Si02
#       7
#     8   8   8   8   8   4   8
#     4  10  20  35  54  78 111 148 185 220 269 323
#     4  11  21  35  53  78 107 141 176 221 275 327
#     4  11  22  34  55  78 107 138 179 222 271 330
#     4  10  19  33  51  75 108 140 176 220 264 318
#     4  10  21  34  53  79 108 143 181 221 267 317
#     4  10  18  30  50  72 108 144 176 212 264 310
#     4   9  20  32  49  76 106 145 178 221 262 317
#
# _framework density 17.953838999999999
#
# number of rings (size 3 to 8) (size 9 to 14) (size 15 to 20)
#    0.000    1.846    0.769    5.077    4.308    1.231 
#    0.000    0.000    0.000    0.000    2.000    3.231 
#    0.000    0.000    0.000    0.000    0.000    0.000 
#
# Total GULP energy -144918.913894 kJ/mol
# GULP energy per Si atom -5573.804381 kJ/mol
# Density = 1.791298 g / cm^3
# Si number density = 17.953839 Si / 1000 Ang^3
#
#
#
# Elastic Constant Matrix: (Units=GPa)
#
#
# Indices 1 2 3 4 5 6 
#
# 1 38.5294 23.4398 21.7417 0.0000 1.6242 0.0000
# 2 23.4398 110.8708 52.3506 0.0000 7.3906 0.0000
# 3 21.7417 52.3506 86.6064 0.0000 0.1989 0.0000
# 4 0.0000 0.0000 0.0000 33.1215 0.0000 -0.6665
# 5 1.6242 7.3906 0.1989 0.0000 31.8465 0.0000
# 6 0.0000 0.0000 0.0000 -0.6665 0.0000 17.2238
#
#
#
# Elastic Compliance Matrix: (Units=1/GPa)
#
#
# Indices 1 2 3 4 5 6 
#
# 1 0.031526 -0.004039 -0.005471 0.000000 -0.000636 0.000000
# 2 -0.004039 0.013410 -0.007085 0.000000 -0.002862 0.000000
# 3 -0.005471 -0.007085 0.017198 0.000000 0.001816 0.000000
# 4 0.000000 0.000000 0.000000 0.030215 0.000000 0.001169
# 5 -0.000636 -0.002862 0.001816 0.000000 0.032086 0.000000
# 6 0.000000 0.000000 0.000000 0.001169 0.000000 0.058104
#
#
# Mechanical properties :
#
#
# Convention : Reuss Voigt Hill
#
# Bulk Modulus (GPa) = 34.55091 47.89676 41.22384
# Shear Modulus (GPa) = 22.18495 25.67000 23.92747
#
# Velocity S-wave (km/s) = 3.51902 3.78534 3.65461
# Velocity P-wave (km/s) = 5.98309 6.77058 6.38898
#
# Compressibility (1/GPa) = 0.02894280
#
# Stress axis : x y z
#
# Youngs Moduli (GPa) = 31.72020 74.57328 58.14468
#
# Poissons Ratio (x) = 0.30122 0.31812
# Poissons Ratio (y) = 0.12813 0.41196
# Poissons Ratio (z) = 0.17355 0.52836
#
# Static dielectric constant tensor:
#      x y z
#    x 1.639970 0.000000 -0.006320 
#    y 0.000000 1.651290 0.000000 
#    z -0.006320 0.000000 1.649260 
# 
# From -- ./inp_files/43247.got.cif
#   From: 2010.05.17/outbox.cif.g08.bks.cpg/sg15_22_cif.got.tgz:43247.got - 2010.06.03 18:47:42.
