data_PCOD9256706
_publ_section_title
;
Structure prediction by ZEFSAII (Michael W. Deem and Ramdas Pophale) SiO2 
 PCOD9256706
Probable space group: C 2/C
;
_chemical_formula_sum "Si O2"
_cell_formula_units_Z 44
_cell_length_a 25.329298
_cell_length_b 12.822775
_cell_length_c 23.138842
_cell_angle_alpha 90.000000
_cell_angle_beta 16.664917
_cell_angle_gamma 90.000000
_cell_volume 2155.194830
_symmetry_space_group_name_H-M "C 2/C"
_symmetry_group_IT_number 15
_symmetry_cell_setting 'monoclinic'
loop_
_space_group_symop_operation_xyz
x,y,z
-x,y,1/2-z
-x,-y,-z
x,-y,1/2+z
1/2+x,1/2+y,z
1/2-x,1/2+y,1/2-z
1/2-x,1/2-y,-z
1/2+x,1/2-y,1/2+z
loop_
_atom_site_type_symbol
_atom_site_label
_atom_site_fract_x
_atom_site_fract_y
_atom_site_fract_z
Si Si1 0.759820 0.336095 0.572475
Si Si2 0.430806 0.844054 0.167529
Si Si3 0.185059 0.110538 0.756685
Si Si4 0.922449 0.344865 0.617866
Si Si5 0.500000 0.666665 0.250000
Si Si6 0.122080 0.020475 0.948090
O O1 0.625239 0.273925 0.757293
O O2 0.634242 0.390157 0.655097
O O3 0.920816 0.385364 0.442093
O O4 0.869236 0.244336 0.423560
O O5 0.243853 0.911163 0.363514
O O6 0.514484 0.843839 0.015415
O O7 0.405123 0.107790 0.528180
O O8 0.123592 0.229480 0.811783
O O9 0.120410 0.084063 0.889939
O O10 0.079640 0.025499 0.828368
O O11 0.746810 0.418259 0.806354
#
# Coordination Sequence:
#
# PCOD9256706 Si02
#       6
#     8   8   8   8   4   8
#     4   9  17  29  49  64  95 121 154 197 232 301
#     4  10  18  29  43  71  88 124 165 200 221 273
#     4  10  19  31  46  59  86 135 162 208 237 265
#     4  11  19  33  46  64  97 133 172 199 236 262
#     4   8  16  32  44  68  88 124 146 182 266 286
#     4  10  21  32  43  66  95 127 172 209 226 267
#
# _framework density 20.415787000000002
#
# number of rings (size 3 to 8) (size 9 to 14) (size 15 to 20)
#    0.000    2.182    1.818    4.364    0.000    0.000 
#    9.818    0.000    0.000    0.000    0.000    0.000 
#    0.000    0.000    0.000   81.818    0.364    0.000 
#
# Total GULP energy -122789.164190 kJ/mol
# GULP energy per Si atom -5581.325645 kJ/mol
# Density = 2.036932 g / cm^3
# Si number density = 20.415787 Si / 1000 Ang^3
#
#
#
# Elastic Constant Matrix: (Units=GPa)
#
#
# Indices 1 2 3 4 5 6 
#
# 1 90.8091 18.0986 36.8422 0.0115 -46.6623 0.0006
# 2 18.0986 62.1087 8.2702 0.0837 -17.2971 -0.0277
# 3 36.8422 8.2702 84.8981 0.0370 -35.5440 -0.0124
# 4 0.0115 0.0837 0.0370 34.9845 -0.0107 -14.7432
# 5 -46.6623 -17.2971 -35.5440 -0.0107 51.0045 0.0003
# 6 0.0006 -0.0277 -0.0124 -14.7432 0.0003 15.3016
#
#
#
# Elastic Compliance Matrix: (Units=1/GPa)
#
#
# Indices 1 2 3 4 5 6 
#
# 1 0.020968 -0.000953 -0.001568 0.000001 0.017767 -0.000003
# 2 -0.000953 0.017899 0.001195 -0.000047 0.006031 -0.000012
# 3 -0.001568 0.001195 0.016819 -0.000017 0.010692 -0.000001
# 4 0.000001 -0.000047 -0.000017 0.048125 -0.000017 0.046369
# 5 0.017767 0.006031 0.010692 -0.000017 0.045356 0.000002
# 6 -0.000003 -0.000012 -0.000001 0.046369 0.000002 0.110030
#
#
# Mechanical properties :
#
#
# Convention : Reuss Voigt Hill
#
# Bulk Modulus (GPa) = 18.85606 40.47088 29.66347
# Shear Modulus (GPa) = 17.88732 31.89843 24.89287
#
# Velocity S-wave (km/s) = 2.96320 3.95706 3.49563
# Velocity P-wave (km/s) = 4.57859 6.38311 5.55462
#
# Compressibility (1/GPa) = 0.05303335
#
# Stress axis : x y z
#
# Youngs Moduli (GPa) = 47.69250 55.86889 59.45624
#
# Poissons Ratio (x) = 0.05326 0.09322
# Poissons Ratio (y) = 0.04546 -0.07105
# Poissons Ratio (z) = 0.07478 -0.06676
#
# Static dielectric constant tensor:
#      x y z
#    x 1.758510 0.000000 -0.031020 
#    y 0.000000 1.778200 0.000010 
#    z -0.031020 0.000010 1.799270 
# 
# From -- ./inp_files/60498.got.cif
#   From: 2010.05.17/outbox.cif.g08.bks.cpg/sg15_31_cif.got.tgz:60498.got - 2010.06.03 18:47:42.
