data_PCOD9256642
_publ_section_title
;
Structure prediction by ZEFSAII (Michael W. Deem and Ramdas Pophale) SiO2 
 PCOD9256642
Probable space group: C 2/C
;
_chemical_formula_sum "Si O2"
_cell_formula_units_Z 48
_cell_length_a 19.162057
_cell_length_b 19.411139
_cell_length_c 5.627826
_cell_angle_alpha 90.000000
_cell_angle_beta 75.491834
_cell_angle_gamma 90.000000
_cell_volume 2026.559633
_symmetry_space_group_name_H-M "C 2/C"
_symmetry_group_IT_number 15
_symmetry_cell_setting 'monoclinic'
loop_
_space_group_symop_operation_xyz
x,y,z
-x,y,1/2-z
-x,-y,-z
x,-y,1/2+z
1/2+x,1/2+y,z
1/2-x,1/2+y,1/2-z
1/2-x,1/2-y,-z
1/2+x,1/2-y,1/2+z
loop_
_atom_site_type_symbol
_atom_site_label
_atom_site_fract_x
_atom_site_fract_y
_atom_site_fract_z
Si Si1 0.478346 0.222370 0.019658
Si Si2 0.792947 0.255269 0.211844
Si Si3 0.139954 0.612235 0.380054
Si Si4 0.105879 0.991202 0.543527
Si Si5 0.812459 0.109946 0.244809
Si Si6 0.396497 0.886707 0.094309
O O1 0.500000 0.257054 0.750000
O O2 0.471469 0.153899 0.522266
O O3 0.500000 0.258295 0.250000
O O4 0.398078 0.189220 0.091081
O O5 0.750000 0.250000 0.500000
O O6 0.840984 0.186207 0.172380
O O7 0.836184 0.326040 0.163219
O O8 0.750000 0.250000 0.000000
O O9 0.226257 0.613545 0.320855
O O10 0.111120 0.577431 0.645391
O O11 0.117480 0.579818 0.147813
O O12 0.163609 0.053406 0.467469
O O13 0.067689 0.006044 0.824297
O O14 0.150785 0.921224 0.550410
#
# Coordination Sequence:
#
# PCOD9256642 Si02
#       6
#     8   8   8   8   8   8
#     4   8  16  28  43  61  86 119 152 179 224 282
#     4  12  22  29  46  73 101 121 149 195 239 299
#     4  10  18  28  49  64  91 118 158 188 227 288
#     4   8  20  32  46  62  87 128 165 200 220 272
#     4  10  20  32  48  66  99 120 174 180 251 258
#     4  10  18  31  40  70  93 122 146 186 236 290
#
# _framework density 23.685461
#
# number of rings (size 3 to 8) (size 9 to 14) (size 15 to 20)
#    1.000    1.333    3.333    0.000    4.667    0.000 
#    0.000    0.000    0.000    0.000    0.000   31.500 
#    0.000    0.000    0.000   40.500    0.000    0.000 
#
# Total GULP energy -133644.388877 kJ/mol
# GULP energy per Si atom -5568.516203 kJ/mol
# Density = 2.363155 g / cm^3
# Si number density = 23.685461 Si / 1000 Ang^3
#
#
#
# Elastic Constant Matrix: (Units=GPa)
#
#
# Indices 1 2 3 4 5 6 
#
# 1 96.1698 -3.8473 46.4844 0.0000 2.7910 0.0000
# 2 -3.8473 81.2784 12.8174 0.0000 3.6579 0.0000
# 3 46.4844 12.8174 249.4147 0.0000 24.1700 0.0000
# 4 0.0000 0.0000 0.0000 15.4370 0.0000 23.4352
# 5 2.7910 3.6579 24.1700 0.0000 48.7448 0.0000
# 6 0.0000 0.0000 0.0000 23.4352 0.0000 64.2334
#
#
#
# Elastic Compliance Matrix: (Units=1/GPa)
#
#
# Indices 1 2 3 4 5 6 
#
# 1 0.011498 0.000878 -0.002225 0.000000 0.000379 0.000000
# 2 0.000878 0.012490 -0.000746 0.000000 -0.000618 0.000000
# 3 -0.002225 -0.000746 0.004669 0.000000 -0.002132 0.000000
# 4 0.000000 0.000000 0.000000 0.145206 0.000000 -0.052977
# 5 0.000379 -0.000618 -0.002132 0.000000 0.021597 0.000000
# 6 0.000000 0.000000 0.000000 -0.052977 0.000000 0.034897
#
#
# Mechanical properties :
#
#
# Convention : Reuss Voigt Hill
#
# Bulk Modulus (GPa) = 40.86250 59.75244 50.30747
# Shear Modulus (GPa) = 20.60172 50.44361 35.52267
#
# Velocity S-wave (km/s) = 2.95244 4.61991 3.87688
# Velocity P-wave (km/s) = 5.37700 7.33078 6.42855
#
# Compressibility (1/GPa) = 0.02447232
#
# Stress axis : x y z
#
# Youngs Moduli (GPa) = 86.97360 80.06186 214.18254
#
# Poissons Ratio (x) = -0.07030 0.47650
# Poissons Ratio (y) = -0.07637 0.15970
# Poissons Ratio (z) = 0.19349 0.05970
#
# Static dielectric constant tensor:
#      x y z
#    x 1.898640 0.000000 0.027000 
#    y 0.000000 1.814840 0.000000 
#    z 0.027000 0.000000 2.048400 
# 
# From -- ./inp_files/15973.got.cif
#   From: 2010.05.17/outbox.cif.g08.bks.cpg/sg15_8_cif.got.tgz:15973.got - 2010.06.03 18:47:42.
