data_PCOD9256669
_publ_section_title
;
Structure prediction by ZEFSAII (Michael W. Deem and Ramdas Pophale) SiO2 
 PCOD9256669
Probable space group: C 2/C
;
_chemical_formula_sum "Si O2"
_cell_formula_units_Z 44
_cell_length_a 20.107991
_cell_length_b 23.803902
_cell_length_c 14.801964
_cell_angle_alpha 90.000000
_cell_angle_beta 21.148206
_cell_angle_gamma 90.000000
_cell_volume 2556.116177
_symmetry_space_group_name_H-M "C 2/C"
_symmetry_group_IT_number 15
_symmetry_cell_setting 'monoclinic'
loop_
_space_group_symop_operation_xyz
x,y,z
-x,y,1/2-z
-x,-y,-z
x,-y,1/2+z
1/2+x,1/2+y,z
1/2-x,1/2+y,1/2-z
1/2-x,1/2-y,-z
1/2+x,1/2-y,1/2+z
loop_
_atom_site_type_symbol
_atom_site_label
_atom_site_fract_x
_atom_site_fract_y
_atom_site_fract_z
Si Si1 0.500453 0.401558 0.954525
Si Si2 0.106886 0.822987 0.256034
Si Si3 0.000000 0.269800 0.750000
Si Si4 0.000000 0.915289 0.250000
Si Si5 0.199956 0.498849 0.613289
Si Si6 0.723690 0.998656 0.367483
Si Si7 0.500000 0.592560 0.250000
O O1 0.674215 0.440680 0.764612
O O2 0.507433 0.382389 0.841183
O O3 0.473024 0.346197 0.049434
O O4 0.337072 0.447865 0.177807
O O5 0.018303 0.770256 0.314991
O O6 0.076431 0.875727 0.230041
O O7 0.320551 0.807300 0.990444
O O8 0.828893 0.953172 0.499093
O O9 0.216884 0.486710 0.484105
O O10 0.313425 0.555271 0.487252
O O11 0.984193 0.500688 0.906379
#
# Coordination Sequence:
#
# PCOD9256669 Si02
#       7
#     8   8   4   4   8   8   4
#     4  10  19  33  50  74 107 147 179 213 257 315
#     4  10  20  37  56  78 107 131 174 225 282 323
#     4   9  22  39  58  82 102 124 173 242 285 316
#     4  10  18  28  52  80 104 146 168 210 266 328
#     4   9  17  31  45  74 116 141 176 210 242 306
#     4   9  18  30  49  75 109 149 179 205 252 316
#     4   9  20  33  44  70 112 144 177 214 233 298
#
# _framework density 17.213615000000001
#
# number of rings (size 3 to 8) (size 9 to 14) (size 15 to 20)
#    0.000    2.545    1.818    0.000    5.091    0.727 
#    0.000    0.000    0.000    1.091    0.000    0.000 
#    0.000    0.000    0.000    0.000    0.000    0.000 
#
# Total GULP energy -122468.159827 kJ/mol
# GULP energy per Si atom -5566.734538 kJ/mol
# Density = 1.717444 g / cm^3
# Si number density = 17.213615 Si / 1000 Ang^3
#
#
#
# Elastic Constant Matrix: (Units=GPa)
#
#
# Indices 1 2 3 4 5 6 
#
# 1 97.8569 41.6527 49.3604 -0.0070 6.6939 0.0060
# 2 41.6527 57.9287 45.2028 0.0036 -2.3282 -0.0010
# 3 49.3604 45.2028 108.8086 -0.0019 -26.0333 0.0321
# 4 -0.0070 0.0036 -0.0019 10.5272 -0.0045 10.5247
# 5 6.6939 -2.3282 -26.0333 -0.0045 43.5490 -0.0232
# 6 0.0060 -0.0010 0.0321 10.5247 -0.0232 19.0221
#
#
#
# Elastic Compliance Matrix: (Units=1/GPa)
#
#
# Indices 1 2 3 4 5 6 
#
# 1 0.017070 -0.007769 -0.006119 0.000030 -0.006697 -0.000020
# 2 -0.007769 0.030403 -0.009839 -0.000080 -0.003062 0.000061
# 3 -0.006119 -0.009839 0.018849 0.000053 0.011682 -0.000046
# 4 0.000030 -0.000080 0.000053 0.212585 -0.000018 -0.117621
# 5 -0.006697 -0.003062 0.011682 -0.000018 0.030812 0.000030
# 6 -0.000020 0.000061 -0.000046 -0.117621 0.000030 0.117648
#
#
# Mechanical properties :
#
#
# Convention : Reuss Voigt Hill
#
# Bulk Modulus (GPa) = 52.99621 59.66955 56.33288
# Shear Modulus (GPa) = 10.39265 23.17821 16.78543
#
# Velocity S-wave (km/s) = 2.45979 3.67346 3.12609
# Velocity P-wave (km/s) = 6.23872 7.26167 6.76954
#
# Compressibility (1/GPa) = 0.01886927
#
# Stress axis : x y z
#
# Youngs Moduli (GPa) = 58.58173 32.89158 53.05440
#
# Poissons Ratio (x) = 0.25552 0.32462
# Poissons Ratio (y) = 0.45510 0.52199
# Poissons Ratio (z) = 0.35844 0.32362
#
# Static dielectric constant tensor:
#      x y z
#    x 1.749550 0.000040 0.148960 
#    y 0.000040 1.558830 0.000070 
#    z 0.148960 0.000070 1.756650 
# 
# From -- ./inp_files/31440.got.cif
#   From: 2010.05.17/outbox.cif.g08.bks.cpg/sg15_16_cif.got.tgz:31440.got - 2010.06.03 18:47:42.
