data_PCOD9256835
_publ_section_title
;
Structure prediction by ZEFSAII (Michael W. Deem and Ramdas Pophale) SiO2 
 PCOD9256835
Probable space group: C 2/C
;
_chemical_formula_sum "Si O2"
_cell_formula_units_Z 44
_cell_length_a 9.248643
_cell_length_b 15.627684
_cell_length_c 18.986122
_cell_angle_alpha 90.000000
_cell_angle_beta 137.176884
_cell_angle_gamma 90.000000
_cell_volume 1865.305577
_symmetry_space_group_name_H-M "C 2/C"
_symmetry_group_IT_number 15
_symmetry_cell_setting 'monoclinic'
loop_
_space_group_symop_operation_xyz
x,y,z
-x,y,1/2-z
-x,-y,-z
x,-y,1/2+z
1/2+x,1/2+y,z
1/2-x,1/2+y,1/2-z
1/2-x,1/2-y,-z
1/2+x,1/2-y,1/2+z
loop_
_atom_site_type_symbol
_atom_site_label
_atom_site_fract_x
_atom_site_fract_y
_atom_site_fract_z
Si Si1 0.527541 0.925440 0.339008
Si Si2 0.280867 0.725914 0.592015
Si Si3 0.627470 0.695140 0.514708
Si Si4 0.744366 0.255924 0.216863
Si Si5 0.264877 0.543771 0.640812
Si Si6 0.000000 0.110259 0.250000
O O1 0.500000 0.962093 0.250000
O O2 0.768431 0.899434 0.444608
O O3 0.395820 0.835612 0.289271
O O4 0.406899 0.971838 0.359196
O O5 0.250000 0.750000 0.500000
O O6 0.534034 0.739157 0.688215
O O7 0.204356 0.626871 0.574409
O O8 0.123888 0.786776 0.580554
O O9 0.750000 0.750000 0.500000
O O10 0.682494 0.729856 0.612622
O O11 0.871126 0.168110 0.258227
O O12 0.500000 0.573047 0.750000
O O13 0.337594 0.448403 0.645889
#
# Coordination Sequence:
#
# PCOD9256835 Si02
#       6
#     8   8   8   8   8   4
#     4  10  18  33  60  79 108 146 199 234 266 333
#     4  10  20  33  55  89 110 142 190 242 273 331
#     4  10  18  29  55  84 109 138 188 237 279 316
#     4  10  18  35  55  82 110 149 190 231 275 341
#     4  10  20  34  58  86 108 146 195 233 278 338
#     4  10  20  34  60  82 116 150 192 228 294 340
#
# _framework density 23.588629999999998
#
# number of rings (size 3 to 8) (size 9 to 14) (size 15 to 20)
#    0.545    1.455    6.364    0.000    0.000    0.000 
#    0.000    3.636    8.000    1.091    0.000    0.000 
#    0.000    0.000    0.000    0.000    0.000    0.000 
#
# Total GULP energy -122581.347468 kJ/mol
# GULP energy per Si atom -5571.879430 kJ/mol
# Density = 2.353494 g / cm^3
# Si number density = 23.588630 Si / 1000 Ang^3
#
#
#
# Elastic Constant Matrix: (Units=GPa)
#
#
# Indices 1 2 3 4 5 6 
#
# 1 173.2954 22.0807 22.1207 0.0000 23.5980 0.0000
# 2 22.0807 62.6617 6.5918 0.0000 6.2894 0.0000
# 3 22.1207 6.5918 46.2781 0.0000 14.8267 0.0000
# 4 0.0000 0.0000 0.0000 8.0134 0.0000 13.6004
# 5 23.5980 6.2894 14.8267 0.0000 51.3192 0.0000
# 6 0.0000 0.0000 0.0000 13.6004 0.0000 29.3420
#
#
#
# Elastic Compliance Matrix: (Units=1/GPa)
#
#
# Indices 1 2 3 4 5 6 
#
# 1 0.006583 -0.001872 -0.002186 0.000000 -0.002166 0.000000
# 2 -0.001872 0.016833 -0.001232 0.000000 -0.000846 0.000000
# 3 -0.002186 -0.001232 0.024749 0.000000 -0.005994 0.000000
# 4 0.000000 0.000000 0.000000 0.584972 0.000000 -0.271142
# 5 -0.002166 -0.000846 -0.005994 0.000000 0.022317 0.000000
# 6 0.000000 0.000000 0.000000 -0.271142 0.000000 0.159758
#
#
# Mechanical properties :
#
#
# Convention : Reuss Voigt Hill
#
# Bulk Modulus (GPa) = 26.60607 42.64683 34.62645
# Shear Modulus (GPa) = 5.96429 33.16438 19.56434
#
# Velocity S-wave (km/s) = 1.59184 3.75366 2.88305
# Velocity P-wave (km/s) = 3.83175 6.07497 5.07876
#
# Compressibility (1/GPa) = 0.03758541
#
# Stress axis : x y z
#
# Youngs Moduli (GPa) = 151.90510 59.40715 40.40518
#
# Poissons Ratio (x) = 0.11123 0.08833
# Poissons Ratio (y) = 0.28442 0.04976
# Poissons Ratio (z) = 0.33206 0.07317
#
# Static dielectric constant tensor:
#      x y z
#    x 1.966910 0.000000 -0.017870 
#    y 0.000000 1.905890 0.000000 
#    z -0.017870 0.000000 2.052050 
# 
# From -- ./inp_files/265077.got.cif
#   From: 2010.05.17/outbox.cif.g08.bks.cpg/sg15_133_cif.got.tgz:265077.got - 2010.06.03 18:47:42.
