data_PCOD9256243
_publ_section_title
;
Structure prediction by ZEFSAII (Michael W. Deem and Ramdas Pophale) SiO2 
 PCOD9256243
Probable space group: C 2/C
;
_chemical_formula_sum "Si O2"
_cell_formula_units_Z 64
_cell_length_a 14.051910
_cell_length_b 25.817382
_cell_length_c 12.334506
_cell_angle_alpha 90.000000
_cell_angle_beta 42.197656
_cell_angle_gamma 90.000000
_cell_volume 3005.649855
_symmetry_space_group_name_H-M "C 2/C"
_symmetry_group_IT_number 15
_symmetry_cell_setting 'monoclinic'
loop_
_space_group_symop_operation_xyz
x,y,z
-x,y,1/2-z
-x,-y,-z
x,-y,1/2+z
1/2+x,1/2+y,z
1/2-x,1/2+y,1/2-z
1/2-x,1/2-y,-z
1/2+x,1/2-y,1/2+z
loop_
_atom_site_type_symbol
_atom_site_label
_atom_site_fract_x
_atom_site_fract_y
_atom_site_fract_z
Si Si1 0.974739 0.039142 0.115125
Si Si2 0.169555 0.300212 0.618934
Si Si3 0.890180 0.141847 0.556566
Si Si4 0.766512 0.992529 0.945855
Si Si5 0.666774 0.810297 0.878228
Si Si6 0.847532 0.612730 0.918582
Si Si7 0.046860 0.757363 0.835546
Si Si8 0.333993 0.388910 0.351889
O O1 0.100532 0.023266 0.090776
O O2 0.818434 0.027844 0.286590
O O3 0.995391 0.097476 0.064398
O O4 0.000000 0.000000 0.000000
O O5 0.250000 0.250000 0.500000
O O6 0.186494 0.312255 0.732789
O O7 0.241120 0.347856 0.495803
O O8 0.000000 0.294038 0.750000
O O9 0.766161 0.132271 0.573815
O O10 0.970224 0.194696 0.461414
O O11 0.838186 0.130126 0.722747
O O12 0.764511 0.054381 0.934346
O O13 0.651707 0.950169 0.077187
O O14 0.786180 0.767992 0.809694
O O15 0.689408 0.860417 0.935248
O O16 0.511038 0.790323 0.044989
O O17 0.000000 0.630403 0.750000
O O18 0.000000 0.754093 0.750000
O O19 0.500000 0.391028 0.250000
#
# Coordination Sequence:
#
# PCOD9256243 Si02
#       8
#     8   8   8   8   8   8   8   8
#     4  10  17  35  62  93 130 169 220 278 344 391
#     4  12  28  50  74 103 140 184 233 286 347 421
#     4  11  23  39  66  98 138 175 227 288 344 413
#     4  10  21  37  62  98 131 176 229 277 338 412
#     4  12  26  46  71 100 141 178 230 288 352 418
#     4  11  26  43  65  96 141 186 229 288 352 407
#     4  12  24  41  67 104 133 175 224 281 346 420
#     4  12  23  44  73 105 138 184 235 286 350 415
#
# _framework density 21.293230999999999
#
# number of rings (size 3 to 8) (size 9 to 14) (size 15 to 20)
#    0.000    0.750    3.750    4.125    5.250    1.500 
#    0.000    0.625    0.000    0.000    0.000    0.000 
#    0.000    0.000    0.000    0.000    0.000    0.000 
#
# Total GULP energy -178523.731277 kJ/mol
# GULP energy per Si atom -5578.866602 kJ/mol
# Density = 2.124477 g / cm^3
# Si number density = 21.293231 Si / 1000 Ang^3
#
#
#
# Elastic Constant Matrix: (Units=GPa)
#
#
# Indices 1 2 3 4 5 6 
#
# 1 74.9370 24.4867 46.2702 0.0000 14.3435 0.0000
# 2 24.4867 143.4917 62.0573 0.0000 8.8683 0.0000
# 3 46.2702 62.0573 116.7213 0.0000 9.6675 0.0000
# 4 0.0000 0.0000 0.0000 26.5665 0.0000 22.2060
# 5 14.3435 8.8683 9.6675 0.0000 48.2394 0.0000
# 6 0.0000 0.0000 0.0000 22.2060 0.0000 -15.5295
#
#
#
# Elastic Compliance Matrix: (Units=1/GPa)
#
#
# Indices 1 2 3 4 5 6 
#
# 1 0.018431 0.000157 -0.007050 0.000000 -0.004096 0.000000
# 2 0.000157 0.009075 -0.004825 0.000000 -0.000748 0.000000
# 3 -0.007050 -0.004825 0.013912 0.000000 0.000196 0.000000
# 4 0.000000 0.000000 0.000000 0.017147 0.000000 0.024519
# 5 -0.004096 -0.000748 0.000196 0.000000 0.022046 0.000000
# 6 0.000000 0.000000 0.000000 0.024519 0.000000 -0.029334
#
#
# Mechanical properties :
#
#
# Convention : Reuss Voigt Hill
#
# Bulk Modulus (GPa) = 55.61695 66.75315 61.18505
# Shear Modulus (GPa) = 61.95159 25.34433 43.64796
#
# Velocity S-wave (km/s) = 5.39978 3.45375 4.53244
# Velocity P-wave (km/s) = 8.06555 6.87910 7.49584
#
# Compressibility (1/GPa) = 0.01798013
#
# Stress axis : x y z
#
# Youngs Moduli (GPa) = 54.25772 110.18839 71.88193
#
# Poissons Ratio (x) = -0.01732 0.50680
# Poissons Ratio (y) = -0.00853 0.34686
# Poissons Ratio (z) = 0.38254 0.53171
#
# Static dielectric constant tensor:
#      x y z
#    x 1.621590 0.000000 -0.056050 
#    y 0.000000 1.803370 0.000000 
#    z -0.056050 0.000000 1.749260 
# 
# From -- ./inp_files/101319.got.cif
#   From: 2010.05.17/outbox.cif.g08.bks.cpg/sg15_51_cif.got.tgz:101319.got - 2010.06.03 18:47:42.
