data_PCOD9256764
_publ_section_title
;
Structure prediction by ZEFSAII (Michael W. Deem and Ramdas Pophale) SiO2 
 PCOD9256764
Probable space group: C 2/C
;
_chemical_formula_sum "Si O2"
_cell_formula_units_Z 48
_cell_length_a 18.119215
_cell_length_b 25.062825
_cell_length_c 5.330535
_cell_angle_alpha 90.000000
_cell_angle_beta 63.305227
_cell_angle_gamma 90.000000
_cell_volume 2162.679498
_symmetry_space_group_name_H-M "C 2/C"
_symmetry_group_IT_number 15
_symmetry_cell_setting 'monoclinic'
loop_
_space_group_symop_operation_xyz
x,y,z
-x,y,1/2-z
-x,-y,-z
x,-y,1/2+z
1/2+x,1/2+y,z
1/2-x,1/2+y,1/2-z
1/2-x,1/2-y,-z
1/2+x,1/2-y,1/2+z
loop_
_atom_site_type_symbol
_atom_site_label
_atom_site_fract_x
_atom_site_fract_y
_atom_site_fract_z
Si Si1 0.833721 0.233364 0.744691
Si Si2 0.020988 0.691425 0.466594
Si Si3 0.592487 0.034004 0.658016
Si Si4 0.770705 0.035009 0.299372
Si Si5 0.907109 0.799446 0.628258
Si Si6 0.452815 0.582023 0.076817
O O1 0.887299 0.287301 0.662834
O O2 0.841203 0.209252 0.454767
O O3 0.750000 0.250000 0.000000
O O4 0.873207 0.196208 0.898401
O O5 0.000000 0.660305 0.250000
O O6 0.963959 0.745908 0.550054
O O7 0.000000 0.662816 0.750000
O O8 0.500000 0.055145 0.750000
O O9 0.680752 0.063610 0.473743
O O10 0.596552 0.987130 0.438311
O O11 0.855909 0.066949 0.209578
O O12 0.772163 0.990241 0.518102
O O13 0.954679 0.853790 0.597143
O O14 0.500000 0.559975 0.250000
O O15 0.500000 0.566642 0.750000
#
# Coordination Sequence:
#
# PCOD9256764 Si02
#       6
#     8   8   8   8   8   8
#     4  10  18  29  48  73  96 117 150 203 260 298
#     4   8  14  25  41  59  86 115 144 185 230 272
#     4   8  14  27  48  71  94 120 156 209 268 317
#     4  10  21  35  50  75 108 138 180 234 278 322
#     4  10  19  33  48  69  98 129 169 209 245 298
#     4  12  23  35  53  73 102 150 191 222 267 317
#
# _framework density 22.194687999999999
#
# number of rings (size 3 to 8) (size 9 to 14) (size 15 to 20)
#    0.000    2.333    0.000    5.500    0.000    2.000 
#    0.000    0.000    0.000    0.000    0.000   10.500 
#    0.000    0.000    0.000    0.000    0.000    0.000 
#
# Total GULP energy -133696.719279 kJ/mol
# GULP energy per Si atom -5570.696637 kJ/mol
# Density = 2.214417 g / cm^3
# Si number density = 22.194688 Si / 1000 Ang^3
#
#
#
# Elastic Constant Matrix: (Units=GPa)
#
#
# Indices 1 2 3 4 5 6 
#
# 1 106.4464 6.6147 49.0829 0.0000 -26.6882 0.0000
# 2 6.6147 42.4509 13.6844 0.0000 -7.0724 0.0000
# 3 49.0829 13.6844 185.5612 0.0000 -2.2836 0.0000
# 4 0.0000 0.0000 0.0000 -5.7840 0.0000 3.6710
# 5 -26.6882 -7.0724 -2.2836 0.0000 62.0127 0.0000
# 6 0.0000 0.0000 0.0000 3.6710 0.0000 -58.7124
#
#
#
# Elastic Compliance Matrix: (Units=1/GPa)
#
#
# Indices 1 2 3 4 5 6 
#
# 1 0.012123 -0.000027 -0.003142 0.000000 0.005099 0.000000
# 2 -0.000027 0.024587 -0.001773 0.000000 0.002727 0.000000
# 3 -0.003142 -0.001773 0.006335 0.000000 -0.001321 0.000000
# 4 0.000000 0.000000 0.000000 -0.180036 0.000000 -0.011257
# 5 0.005099 0.002727 -0.001321 0.000000 0.018582 0.000000
# 6 0.000000 0.000000 0.000000 -0.011257 0.000000 -0.017736
#
#
# Mechanical properties :
#
#
# Convention : Reuss Voigt Hill
#
# Bulk Modulus (GPa) = 30.15518 52.58028 41.36773
# Shear Modulus (GPa) = -43.39935 17.17504 -13.11215
#
# Velocity S-wave (km/s) = -4.42678 2.78481 -2.43323
# Velocity P-wave (km/s) = 3.53728 5.83799 3.28403
#
# Compressibility (1/GPa) = 0.03316179
#
# Stress axis : x y z
#
# Youngs Moduli (GPa) = 82.48660 40.67269 157.86299
#
# Poissons Ratio (x) = 0.00109 0.49600
# Poissons Ratio (y) = 0.00221 0.27982
# Poissons Ratio (z) = 0.25917 0.07209
#
# Static dielectric constant tensor:
#      x y z
#    x 1.947900 0.000000 0.007920 
#    y 0.000000 1.786080 0.000000 
#    z 0.007920 0.000000 1.896610 
# 
# From -- ./inp_files/8715.got.cif
#   From: 2010.05.17/outbox.cif.g08.bks.cpg/sg15_5_cif.got.tgz:8715.got - 2010.06.03 18:47:42.
