data_PCOD9256946
_publ_section_title
;
Structure prediction by ZEFSAII (Michael W. Deem and Ramdas Pophale) SiO2 
 PCOD9256946
Probable space group: C 2/C
;
_chemical_formula_sum "Si O2"
_cell_formula_units_Z 40
_cell_length_a 8.930451
_cell_length_b 22.888760
_cell_length_c 7.907330
_cell_angle_alpha 90.000000
_cell_angle_beta 66.703051
_cell_angle_gamma 90.000000
_cell_volume 1484.531056
_symmetry_space_group_name_H-M "C 2/C"
_symmetry_group_IT_number 15
_symmetry_cell_setting 'monoclinic'
loop_
_space_group_symop_operation_xyz
x,y,z
-x,y,1/2-z
-x,-y,-z
x,-y,1/2+z
1/2+x,1/2+y,z
1/2-x,1/2+y,1/2-z
1/2-x,1/2-y,-z
1/2+x,1/2-y,1/2+z
loop_
_atom_site_type_symbol
_atom_site_label
_atom_site_fract_x
_atom_site_fract_y
_atom_site_fract_z
Si Si1 0.947439 0.090018 0.042726
Si Si2 0.360906 0.954796 0.664956
Si Si3 0.423233 0.718078 0.964516
Si Si4 0.752533 0.419781 0.207013
Si Si5 0.506341 0.163014 0.455728
O O1 0.916158 0.159681 0.079218
O O2 0.858236 0.075494 0.907616
O O3 0.136072 0.078691 0.920883
O O4 0.835267 0.051253 0.212898
O O5 0.500000 0.946811 0.750000
O O6 0.383141 0.893104 0.557915
O O7 0.372208 0.024785 0.636499
O O8 0.500000 0.699509 0.750000
O O9 0.533557 0.770059 0.992477
O O10 0.250000 0.750000 0.000000
O O11 0.847368 0.359604 0.128969
O O12 0.500000 0.167629 0.250000
#
# Coordination Sequence:
#
# PCOD9256946 Si02
#       5
#     8   8   8   8   8
#     4  11  20  33  49  78 105 129 166 208 259 305
#     4  11  21  34  48  72 104 138 175 203 239 305
#     4  11  16  28  48  73 108 122 152 205 262 308
#     4  11  20  33  49  70 109 137 164 205 253 301
#     4  10  18  30  49  76 102 130 159 205 255 300
#
# _framework density 26.944538000000001
#
# number of rings (size 3 to 8) (size 9 to 14) (size 15 to 20)
#    0.000    1.200    8.000    2.400    0.000    0.000 
#    0.000    0.000    0.000    0.000    0.000    1.400 
#   12.000    0.000    0.000    0.000    0.000    0.000 
#
# Total GULP energy -111430.092006 kJ/mol
# GULP energy per Si atom -5571.504600 kJ/mol
# Density = 2.688321 g / cm^3
# Si number density = 26.944538 Si / 1000 Ang^3
#
#
#
# Elastic Constant Matrix: (Units=GPa)
#
#
# Indices 1 2 3 4 5 6 
#
# 1 73.3091 5.2733 10.4887 0.0000 1.7719 0.0000
# 2 5.2733 215.0257 -18.2739 0.0000 5.4735 0.0000
# 3 10.4887 -18.2739 46.7342 0.0000 -5.6719 0.0000
# 4 0.0000 0.0000 0.0000 41.0920 0.0000 -20.5931
# 5 1.7719 5.4735 -5.6719 0.0000 23.5905 0.0000
# 6 0.0000 0.0000 0.0000 -20.5931 0.0000 28.3663
#
#
#
# Elastic Compliance Matrix: (Units=1/GPa)
#
#
# Indices 1 2 3 4 5 6 
#
# 1 0.014252 -0.000614 -0.003658 0.000000 -0.001807 0.000000
# 2 -0.000614 0.004848 0.001960 0.000000 -0.000607 0.000000
# 3 -0.003658 0.001960 0.023653 0.000000 0.005507 0.000000
# 4 0.000000 0.000000 0.000000 0.038253 0.000000 0.027770
# 5 -0.001807 -0.000607 0.005507 0.000000 0.043991 0.000000
# 6 0.000000 0.000000 0.000000 0.027770 0.000000 0.055413
#
#
# Mechanical properties :
#
#
# Convention : Reuss Voigt Hill
#
# Bulk Modulus (GPa) = 26.22801 36.67169 31.44985
# Shear Modulus (GPa) = 25.28510 41.11516 33.20013
#
# Velocity S-wave (km/s) = 3.06668 3.91054 3.51403
# Velocity P-wave (km/s) = 4.72171 5.83347 5.30678
#
# Compressibility (1/GPa) = 0.03812717
#
# Stress axis : x y z
#
# Youngs Moduli (GPa) = 70.16473 206.28416 42.27741
#
# Poissons Ratio (x) = 0.12674 0.15466
# Poissons Ratio (y) = 0.04311 -0.08285
# Poissons Ratio (z) = 0.25668 -0.40426
#
# Static dielectric constant tensor:
#      x y z
#    x 2.202410 0.000000 -0.069360 
#    y 0.000000 2.139340 0.000000 
#    z -0.069360 0.000000 2.332170 
# 
# From -- ./inp_files/88269.got.cif
#   From: 2010.05.17/outbox.cif.g08.bks.cpg/sg15_45_cif.got.tgz:88269.got - 2010.06.03 18:47:42.
