data_PCOD9256986
_publ_section_title
;
Structure prediction by ZEFSAII (Michael W. Deem and Ramdas Pophale) SiO2 
 PCOD9256986
Probable space group: C 2/C
;
_chemical_formula_sum "Si O2"
_cell_formula_units_Z 60
_cell_length_a 22.861849
_cell_length_b 17.704972
_cell_length_c 13.734662
_cell_angle_alpha 90.000000
_cell_angle_beta 28.439562
_cell_angle_gamma 90.000000
_cell_volume 2647.540875
_symmetry_space_group_name_H-M "C 2/C"
_symmetry_group_IT_number 15
_symmetry_cell_setting 'monoclinic'
loop_
_space_group_symop_operation_xyz
x,y,z
-x,y,1/2-z
-x,-y,-z
x,-y,1/2+z
1/2+x,1/2+y,z
1/2-x,1/2+y,1/2-z
1/2-x,1/2-y,-z
1/2+x,1/2-y,1/2+z
loop_
_atom_site_type_symbol
_atom_site_label
_atom_site_fract_x
_atom_site_fract_y
_atom_site_fract_z
Si Si1 0.375927 0.198333 0.130298
Si Si2 0.881830 0.102407 0.359894
Si Si3 0.731450 0.429084 0.299915
Si Si4 0.000000 0.661410 0.750000
Si Si5 0.320940 0.587101 0.138656
Si Si6 0.989256 0.567065 0.095005
Si Si7 0.032445 0.142970 0.963260
Si Si8 0.320071 0.034429 0.964223
O O1 0.241033 0.161055 0.316024
O O2 0.444233 0.138343 0.099712
O O3 0.427303 0.203209 0.943101
O O4 0.396515 0.278558 0.151106
O O5 0.792321 0.130421 0.576899
O O6 0.803505 0.041840 0.415808
O O7 0.000000 0.081101 0.250000
O O8 0.933790 0.153799 0.196381
O O9 0.689668 0.510216 0.407036
O O10 0.636213 0.413519 0.352486
O O11 0.873344 0.421665 0.066697
O O12 0.088956 0.605846 0.681508
O O13 0.451744 0.608721 0.993775
O O14 0.227454 0.554229 0.358409
O O15 0.896760 0.536770 0.313450
O O16 0.000000 0.500000 0.000000
#
# Coordination Sequence:
#
# PCOD9256986 Si02
#       8
#     8   8   8   4   8   8   8   8
#     4  11  22  34  54  83 121 152 182 234 298 347
#     4   9  18  33  51  78 112 148 185 223 279 344
#     4  11  20  36  59  80 112 156 201 239 280 341
#     4  10  18  30  50  78 114 146 182 226 284 332
#     4  10  21  39  58  84 116 157 197 241 283 339
#     4  12  19  35  57  83 110 155 199 242 277 339
#     4  10  24  36  54  86 124 154 184 237 300 358
#     4  10  18  34  53  82 108 142 198 237 274 323
#
# _framework density 22.662538000000001
#
# number of rings (size 3 to 8) (size 9 to 14) (size 15 to 20)
#    0.000    1.600    4.000    1.200    4.667    0.000 
#    0.000    2.667    0.000    0.800    0.000    0.000 
#    0.000    0.000    0.000    0.000    0.000    0.000 
#
# Total GULP energy -167052.169634 kJ/mol
# GULP energy per Si atom -5568.405654 kJ/mol
# Density = 2.261096 g / cm^3
# Si number density = 22.662538 Si / 1000 Ang^3
#
#
#
# Elastic Constant Matrix: (Units=GPa)
#
#
# Indices 1 2 3 4 5 6 
#
# 1 88.1949 12.9312 14.7900 0.0000 -22.1509 0.0000
# 2 12.9312 84.9364 15.4252 0.0000 -12.8649 0.0000
# 3 14.7900 15.4252 24.4935 0.0000 -10.8039 0.0000
# 4 0.0000 0.0000 0.0000 18.8198 0.0000 -6.1936
# 5 -22.1509 -12.8649 -10.8039 0.0000 34.9246 0.0000
# 6 0.0000 0.0000 0.0000 -6.1936 0.0000 19.5312
#
#
#
# Elastic Compliance Matrix: (Units=1/GPa)
#
#
# Indices 1 2 3 4 5 6 
#
# 1 0.014052 -0.000090 -0.005224 0.000000 0.007263 0.000000
# 2 -0.000090 0.013513 -0.007278 0.000000 0.002669 0.000000
# 3 -0.005224 -0.007278 0.053177 0.000000 0.010456 0.000000
# 4 0.000000 0.000000 0.000000 0.059327 0.000000 0.018814
# 5 0.007263 0.002669 0.010456 0.000000 0.037457 0.000000
# 6 0.000000 0.000000 0.000000 0.018814 0.000000 0.057166
#
#
# Mechanical properties :
#
#
# Convention : Reuss Voigt Hill
#
# Bulk Modulus (GPa) = 17.99980 31.54639 24.77310
# Shear Modulus (GPa) = 17.95984 24.95368 21.45676
#
# Velocity S-wave (km/s) = 2.81817 3.32188 3.08034
# Velocity P-wave (km/s) = 4.30688 5.35383 4.85864
#
# Compressibility (1/GPa) = 0.05555618
#
# Stress axis : x y z
#
# Youngs Moduli (GPa) = 71.16386 74.00087 18.80495
#
# Poissons Ratio (x) = 0.00669 0.09825
# Poissons Ratio (y) = 0.00644 0.13687
# Poissons Ratio (z) = 0.37179 0.53861
#
# Static dielectric constant tensor:
#      x y z
#    x 1.890900 0.000000 0.083260 
#    y 0.000000 1.956400 0.000000 
#    z 0.083260 0.000000 1.999860 
# 
# From -- ./inp_files/174098.got.cif
#   From: 2010.05.17/outbox.cif.g08.bks.cpg/sg15_88_cif.got.tgz:174098.got - 2010.06.03 18:47:42.
