data_PCOD9256483
_publ_section_title
;
Structure prediction by ZEFSAII (Michael W. Deem and Ramdas Pophale) SiO2 
 PCOD9256483
Probable space group: C 2/C
;
_chemical_formula_sum "Si O2"
_cell_formula_units_Z 52
_cell_length_a 9.922174
_cell_length_b 26.569503
_cell_length_c 8.598359
_cell_angle_alpha 90.000000
_cell_angle_beta 90.211489
_cell_angle_gamma 90.000000
_cell_volume 2266.746140
_symmetry_space_group_name_H-M "C 2/C"
_symmetry_group_IT_number 15
_symmetry_cell_setting 'monoclinic'
loop_
_space_group_symop_operation_xyz
x,y,z
-x,y,1/2-z
-x,-y,-z
x,-y,1/2+z
1/2+x,1/2+y,z
1/2-x,1/2+y,1/2-z
1/2-x,1/2-y,-z
1/2+x,1/2-y,1/2+z
loop_
_atom_site_type_symbol
_atom_site_label
_atom_site_fract_x
_atom_site_fract_y
_atom_site_fract_z
Si Si1 0.772158 0.649599 0.268695
Si Si2 0.500000 0.718622 0.250000
Si Si3 0.226167 0.691894 0.550375
Si Si4 0.647049 0.542630 0.324891
Si Si5 0.292787 0.162061 0.617304
Si Si6 0.488930 0.718882 0.915408
Si Si7 0.147444 0.060617 0.683981
O O1 0.632668 0.682637 0.258973
O O2 0.734579 0.590774 0.275575
O O3 0.842656 0.661399 0.436623
O O4 0.832222 0.663166 0.099188
O O5 0.508832 0.745564 0.417766
O O6 0.250000 0.750000 0.500000
O O7 0.156824 0.684544 0.717255
O O8 0.386678 0.679100 0.577834
O O9 0.500000 0.548350 0.250000
O O10 0.626284 0.543775 0.507756
O O11 0.700046 0.487898 0.276698
O O12 0.252509 0.105829 0.669874
O O13 0.153331 0.192145 0.593537
O O14 0.500000 0.746927 0.750000
O O15 0.000000 0.075086 0.750000
#
# Coordination Sequence:
#
# PCOD9256483 Si02
#       7
#     8   4   8   8   8   8   8
#     4   9  17  27  39  52  74  99 130 164 194 230
#     4   8  12  22  38  48  64  94 122 152 184 214
#     4  10  19  27  41  56  72  98 130 168 202 228
#     4  10  18  24  35  55  77 103 130 167 202 219
#     4   9  18  29  42  55  73 105 131 165 199 223
#     4   8  14  25  38  52  68  90 126 155 187 227
#     4  10  18  24  35  55  77 102 129 167 199 227
#
# _framework density 22.940373000000001
#
# number of rings (size 3 to 8) (size 9 to 14) (size 15 to 20)
#    0.000    2.769    0.769    3.231    6.462    0.615 
#    0.000    0.000    0.000    0.000    0.000    0.000 
#    0.000    0.000    0.000    0.000    0.000   13.846 
#
# Total GULP energy -144828.567592 kJ/mol
# GULP energy per Si atom -5570.329523 kJ/mol
# Density = 2.288816 g / cm^3
# Si number density = 22.940373 Si / 1000 Ang^3
#
#
#
# Elastic Constant Matrix: (Units=GPa)
#
#
# Indices 1 2 3 4 5 6 
#
# 1 44.3712 9.5068 25.1349 0.0000 -8.8379 0.0000
# 2 9.5068 89.6430 77.4351 0.0000 5.5573 0.0000
# 3 25.1349 77.4351 259.7088 0.0000 -28.9185 0.0000
# 4 0.0000 0.0000 0.0000 16.2811 0.0000 -8.8048
# 5 -8.8379 5.5573 -28.9185 0.0000 18.8643 0.0000
# 6 0.0000 0.0000 0.0000 -8.8048 0.0000 13.4558
#
#
#
# Elastic Compliance Matrix: (Units=1/GPa)
#
#
# Indices 1 2 3 4 5 6 
#
# 1 0.025931 -0.003615 0.000048 0.000000 0.013287 0.000000
# 2 -0.003615 0.019125 -0.007438 0.000000 -0.018730 0.000000
# 3 0.000048 -0.007438 0.007609 0.000000 0.013878 0.000000
# 4 0.000000 0.000000 0.000000 0.095059 0.000000 0.062202
# 5 0.013287 -0.018730 0.013878 0.000000 0.086027 0.000000
# 6 0.000000 0.000000 0.000000 0.062202 0.000000 0.115019
#
#
# Mechanical properties :
#
#
# Convention : Reuss Voigt Hill
#
# Bulk Modulus (GPa) = 32.62178 68.65296 50.63737
# Shear Modulus (GPa) = 13.12339 28.49666 20.81003
#
# Velocity S-wave (km/s) = 2.39438 3.52832 3.01514
# Velocity P-wave (km/s) = 4.67923 6.82571 5.85173
#
# Compressibility (1/GPa) = 0.03065436
#
# Stress axis : x y z
#
# Youngs Moduli (GPa) = 38.56371 52.28751 131.42511
#
# Poissons Ratio (x) = 0.18901 -0.00626
# Poissons Ratio (y) = 0.13940 0.97755
# Poissons Ratio (z) = -0.00184 0.38892
#
# Static dielectric constant tensor:
#      x y z
#    x 1.989420 0.000000 0.008660 
#    y 0.000000 1.898250 0.000000 
#    z 0.008660 0.000000 1.942820 
# 
# From -- ./inp_files/49837.got.cif
#   From: 2010.05.17/outbox.cif.g08.bks.cpg/sg15_25_cif.got.tgz:49837.got - 2010.06.03 18:47:42.
