data_PCOD9256603
_publ_section_title
;
Structure prediction by ZEFSAII (Michael W. Deem and Ramdas Pophale) SiO2 
 PCOD9256603
Probable space group: C 2/C
;
_chemical_formula_sum "Si O2"
_cell_formula_units_Z 52
_cell_length_a 22.669345
_cell_length_b 25.720145
_cell_length_c 5.545485
_cell_angle_alpha 90.000000
_cell_angle_beta 74.986107
_cell_angle_gamma 90.000000
_cell_volume 3122.967517
_symmetry_space_group_name_H-M "C 2/C"
_symmetry_group_IT_number 15
_symmetry_cell_setting 'monoclinic'
loop_
_space_group_symop_operation_xyz
x,y,z
-x,y,1/2-z
-x,-y,-z
x,-y,1/2+z
1/2+x,1/2+y,z
1/2-x,1/2+y,1/2-z
1/2-x,1/2-y,-z
1/2+x,1/2-y,1/2+z
loop_
_atom_site_type_symbol
_atom_site_label
_atom_site_fract_x
_atom_site_fract_y
_atom_site_fract_z
Si Si1 0.415891 0.870031 0.223302
Si Si2 0.226354 0.776297 0.275205
Si Si3 0.731527 0.016677 0.976690
Si Si4 0.881508 0.289857 0.626603
Si Si5 0.801164 0.368745 0.017757
Si Si6 0.000000 0.673328 0.250000
Si Si7 0.591684 0.023134 0.557162
O O1 0.400789 0.814089 0.352150
O O2 0.358219 0.885411 0.122006
O O3 0.418818 0.915408 0.415900
O O4 0.474063 0.861932 0.993236
O O5 0.250000 0.750000 0.500000
O O6 0.154058 0.764261 0.350393
O O7 0.253155 0.834197 0.220378
O O8 0.250000 0.750000 0.000000
O O9 0.760419 0.989292 0.179752
O O10 0.664008 0.991423 0.999788
O O11 0.726162 0.077613 0.045437
O O12 0.942220 0.293185 0.722675
O O13 0.832482 0.331512 0.785730
O O14 0.566979 0.000515 0.333593
#
# Coordination Sequence:
#
# PCOD9256603 Si02
#       7
#     8   8   8   8   8   4   8
#     4  11  19  33  51  64  93 126 172 206 245 296
#     4  10  20  33  52  78  97 122 157 208 260 298
#     4  10  18  28  45  70  95 128 159 190 247 294
#     4  10  20  35  51  68  97 126 166 206 255 300
#     4  10  19  30  51  73  97 123 164 207 247 301
#     4  10  24  34  48  70  88 134 168 212 250 286
#     4  10  19  30  47  66  88 123 162 204 248 282
#
# _framework density 16.650829999999999
#
# number of rings (size 3 to 8) (size 9 to 14) (size 15 to 20)
#    0.000    1.846    4.615    2.308    2.154    0.000 
#    0.000    0.769    0.000    0.000    0.000    0.000 
#    0.000    0.000    0.000    1.385    0.000    0.154 
#
# Total GULP energy -144910.076771 kJ/mol
# GULP energy per Si atom -5573.464491 kJ/mol
# Density = 1.661293 g / cm^3
# Si number density = 16.650830 Si / 1000 Ang^3
#
#
#
# Elastic Constant Matrix: (Units=GPa)
#
#
# Indices 1 2 3 4 5 6 
#
# 1 38.3476 28.6540 8.4492 0.0000 -4.0578 0.0000
# 2 28.6540 61.4119 18.1511 0.0000 -18.0690 0.0000
# 3 8.4492 18.1511 88.6119 0.0000 4.3791 0.0000
# 4 0.0000 0.0000 0.0000 18.0508 0.0000 0.7473
# 5 -4.0578 -18.0690 4.3791 0.0000 21.9298 0.0000
# 6 0.0000 0.0000 0.0000 0.7473 0.0000 10.2380
#
#
#
# Elastic Compliance Matrix: (Units=1/GPa)
#
#
# Indices 1 2 3 4 5 6 
#
# 1 0.042121 -0.023570 0.001400 0.000000 -0.011906 0.000000
# 2 -0.023570 0.037504 -0.006814 0.000000 0.027901 0.000000
# 3 0.001400 -0.006814 0.012940 0.000000 -0.007939 0.000000
# 4 0.000000 0.000000 0.000000 0.055567 0.000000 -0.004056
# 5 -0.011906 0.027901 -0.007939 0.000000 0.067971 0.000000
# 6 0.000000 0.000000 0.000000 -0.004056 0.000000 0.097972
#
#
# Mechanical properties :
#
#
# Convention : Reuss Voigt Hill
#
# Bulk Modulus (GPa) = 28.90382 33.20888 31.05635
# Shear Modulus (GPa) = 13.03532 18.91818 15.97675
#
# Velocity S-wave (km/s) = 2.80100 3.37437 3.10097
# Velocity P-wave (km/s) = 5.27800 5.93038 5.61368
#
# Compressibility (1/GPa) = 0.03459751
#
# Stress axis : x y z
#
# Youngs Moduli (GPa) = 23.74124 26.66392 77.28168
#
# Poissons Ratio (x) = 0.62847 -0.10820
# Poissons Ratio (y) = 0.55958 0.52657
# Poissons Ratio (z) = -0.03324 0.18168
#
# Static dielectric constant tensor:
#      x y z
#    x 1.579730 0.000000 0.018190 
#    y 0.000000 1.584000 0.000000 
#    z 0.018190 0.000000 1.670470 
# 
# From -- ./inp_files/11217.got.cif
#   From: 2010.05.17/outbox.cif.g08.bks.cpg/sg15_6_cif.got.tgz:11217.got - 2010.06.03 18:47:42.
