data_PCOD9256380
_publ_section_title
;
Structure prediction by ZEFSAII (Michael W. Deem and Ramdas Pophale) SiO2 
 PCOD9256380
Probable space group: C 2/C
;
_chemical_formula_sum "Si O2"
_cell_formula_units_Z 56
_cell_length_a 12.643365
_cell_length_b 17.975706
_cell_length_c 14.648269
_cell_angle_alpha 90.000000
_cell_angle_beta 113.066914
_cell_angle_gamma 90.000000
_cell_volume 3062.988587
_symmetry_space_group_name_H-M "C 2/C"
_symmetry_group_IT_number 15
_symmetry_cell_setting 'monoclinic'
loop_
_space_group_symop_operation_xyz
x,y,z
-x,y,1/2-z
-x,-y,-z
x,-y,1/2+z
1/2+x,1/2+y,z
1/2-x,1/2+y,1/2-z
1/2-x,1/2-y,-z
1/2+x,1/2-y,1/2+z
loop_
_atom_site_type_symbol
_atom_site_label
_atom_site_fract_x
_atom_site_fract_y
_atom_site_fract_z
Si Si1 0.747922 0.995671 0.488803
Si Si2 0.506722 0.996765 0.141489
Si Si3 0.252505 0.560913 0.684727
Si Si4 0.577797 0.324931 0.184645
Si Si5 0.463269 0.584476 0.011116
Si Si6 0.811058 0.079313 0.325504
Si Si7 0.582709 0.155669 0.189621
O O1 0.835843 0.926730 0.508738
O O2 0.614491 0.973058 0.441225
O O3 0.776636 0.043914 0.587395
O O4 0.764591 0.047626 0.406070
O O5 0.500000 0.996292 0.250000
O O6 0.534593 0.082455 0.122000
O O7 0.616331 0.947754 0.152838
O O8 0.303739 0.636605 0.742145
O O9 0.311216 0.492523 0.759807
O O10 0.500000 0.330881 0.250000
O O11 0.535839 0.371040 0.082849
O O12 0.582307 0.239474 0.153926
O O13 0.500000 0.500000 0.000000
O O14 0.562079 0.610894 0.113890
O O15 0.713876 0.135005 0.257938
O O16 0.500000 0.159301 0.250000
#
# Coordination Sequence:
#
# PCOD9256380 Si02
#       7
#     8   8   8   8   8   8   8
#     4  11  19  33  58  82 107 138 188 227 277 327
#     4  10  17  37  56  77 110 146 179 225 284 325
#     4  11  21  31  56  85 106 141 186 232 270 325
#     4  11  20  34  52  86 113 138 187 228 272 332
#     4  10  19  34  54  80 111 146 175 230 276 319
#     4  10  19  37  54  78 118 146 180 221 289 326
#     4   9  18  34  55  74 114 154 169 225 280 332
#
# _framework density 18.282798
#
# number of rings (size 3 to 8) (size 9 to 14) (size 15 to 20)
#    0.000    1.714    7.143    2.143    0.000    0.000 
#    2.571    2.143    0.000    3.429   14.857    0.000 
#    0.000    0.000    0.000    0.000    0.000    0.000 
#
# Total GULP energy -156003.260317 kJ/mol
# GULP energy per Si atom -5571.545011 kJ/mol
# Density = 1.824119 g / cm^3
# Si number density = 18.282798 Si / 1000 Ang^3
#
#
#
# Elastic Constant Matrix: (Units=GPa)
#
#
# Indices 1 2 3 4 5 6 
#
# 1 89.7330 38.8012 26.7269 0.0000 39.5073 0.0000
# 2 38.8012 56.3732 -4.9652 0.0000 9.4114 0.0000
# 3 26.7269 -4.9652 56.5361 0.0000 11.8795 0.0000
# 4 0.0000 0.0000 0.0000 15.0765 0.0000 5.5372
# 5 39.5073 9.4114 11.8795 0.0000 36.4121 0.0000
# 6 0.0000 0.0000 0.0000 5.5372 0.0000 6.3872
#
#
#
# Elastic Compliance Matrix: (Units=1/GPa)
#
#
# Indices 1 2 3 4 5 6 
#
# 1 0.039447 -0.022974 -0.013871 0.000000 -0.032337 0.000000
# 2 -0.022974 0.032351 0.010973 0.000000 0.012986 0.000000
# 3 -0.013871 0.010973 0.024309 0.000000 0.004283 0.000000
# 4 0.000000 0.000000 0.000000 0.097313 0.000000 -0.084362
# 5 -0.032337 0.012986 0.004283 0.000000 0.057795 0.000000
# 6 0.000000 0.000000 0.000000 -0.084362 0.000000 0.229698
#
#
# Mechanical properties :
#
#
# Convention : Reuss Voigt Hill
#
# Bulk Modulus (GPa) = 22.54157 35.97423 29.25790
# Shear Modulus (GPa) = 9.13336 21.04711 15.09024
#
# Velocity S-wave (km/s) = 2.23751 3.39661 2.87606
# Velocity P-wave (km/s) = 4.36250 5.92468 5.20256
#
# Compressibility (1/GPa) = 0.04436248
#
# Stress axis : x y z
#
# Youngs Moduli (GPa) = 25.35046 30.91139 41.13697
#
# Poissons Ratio (x) = 0.71017 0.57062
# Poissons Ratio (y) = 0.58241 -0.45141
# Poissons Ratio (z) = 0.35164 -0.33920
#
# Static dielectric constant tensor:
#      x y z
#    x 1.701770 0.000000 0.020190 
#    y 0.000000 1.612730 0.000000 
#    z 0.020190 0.000000 1.661440 
# 
# From -- ./inp_files/154922.got.cif
#   From: 2010.05.17/outbox.cif.g08.bks.cpg/sg15_78_cif.got.tgz:154922.got - 2010.06.03 18:47:42.
