data_PCOD9256157
_publ_section_title
;
Structure prediction by ZEFSAII (Michael W. Deem and Ramdas Pophale) SiO2 
 PCOD9256157
Probable space group: C 2/C
;
_chemical_formula_sum "Si O2"
_cell_formula_units_Z 56
_cell_length_a 15.638219
_cell_length_b 11.202709
_cell_length_c 17.609901
_cell_angle_alpha 90.000000
_cell_angle_beta 62.294763
_cell_angle_gamma 90.000000
_cell_volume 2731.384296
_symmetry_space_group_name_H-M "C 2/C"
_symmetry_group_IT_number 15
_symmetry_cell_setting 'monoclinic'
loop_
_space_group_symop_operation_xyz
x,y,z
-x,y,1/2-z
-x,-y,-z
x,-y,1/2+z
1/2+x,1/2+y,z
1/2-x,1/2+y,1/2-z
1/2-x,1/2-y,-z
1/2+x,1/2-y,1/2+z
loop_
_atom_site_type_symbol
_atom_site_label
_atom_site_fract_x
_atom_site_fract_y
_atom_site_fract_z
Si Si1 0.735303 0.408062 0.846876
Si Si2 0.606675 0.630180 0.931538
Si Si3 0.618051 0.954611 0.598751
Si Si4 0.210622 0.880834 0.536626
Si Si5 0.592493 0.736325 0.495305
Si Si6 0.721426 0.132599 0.334344
Si Si7 0.445511 0.943169 0.095307
O O1 0.668804 0.525677 0.867194
O O2 0.842264 0.437917 0.832948
O O3 0.689861 0.331135 0.934006
O O4 0.737670 0.343364 0.765566
O O5 0.655055 0.757009 0.889008
O O6 0.622260 0.605767 0.015142
O O7 0.495328 0.645001 0.956419
O O8 0.601405 0.830394 0.560348
O O9 0.703918 0.027509 0.521165
O O10 0.520656 0.031689 0.631258
O O11 0.250000 0.750000 0.500000
O O12 0.200695 0.887739 0.631155
O O13 0.568932 0.809692 0.427604
O O14 0.653414 0.015757 0.354929
O O15 0.500000 0.000000 0.000000
#
# Coordination Sequence:
#
# PCOD9256157 Si02
#       7
#     8   8   8   8   8   8   8
#     4  11  26  35  59  93 125 149 194 254 309 345
#     4  10  21  39  61  84 117 162 202 239 291 367
#     4  10  19  38  61  88 111 161 207 234 285 369
#     4   9  17  33  60  85 112 153 202 237 282 351
#     4  11  20  40  63  85 120 161 202 238 293 367
#     4  11  20  37  59  88 122 151 193 256 303 334
#     4  10  17  34  64  84 107 155 204 233 281 350
#
# _framework density 20.502424999999999
#
# number of rings (size 3 to 8) (size 9 to 14) (size 15 to 20)
#    0.000    1.714    5.714    1.714    2.000    0.571 
#    0.000    0.714    3.143    1.714    0.000    0.000 
#    0.000    0.000    0.000    0.000    0.000    0.000 
#
# Total GULP energy -156138.465043 kJ/mol
# GULP energy per Si atom -5576.373752 kJ/mol
# Density = 2.045576 g / cm^3
# Si number density = 20.502425 Si / 1000 Ang^3
#
#
#
# Elastic Constant Matrix: (Units=GPa)
#
#
# Indices 1 2 3 4 5 6 
#
# 1 97.6045 30.3687 29.7319 0.0000 15.1774 0.0000
# 2 30.3687 55.9636 0.9101 0.0000 2.1497 0.0000
# 3 29.7319 0.9101 57.5193 0.0000 21.9170 0.0000
# 4 0.0000 0.0000 0.0000 18.9075 0.0000 -4.8110
# 5 15.1774 2.1497 21.9170 0.0000 26.6386 0.0000
# 6 0.0000 0.0000 0.0000 -4.8110 0.0000 34.1422
#
#
#
# Elastic Compliance Matrix: (Units=1/GPa)
#
#
# Indices 1 2 3 4 5 6 
#
# 1 0.015197 -0.008044 -0.006812 0.000000 -0.002405 0.000000
# 2 -0.008044 0.022188 0.003995 0.000000 -0.000495 0.000000
# 3 -0.006812 0.003995 0.028386 0.000000 -0.019796 0.000000
# 4 0.000000 0.000000 0.000000 0.054856 0.000000 0.007730
# 5 -0.002405 -0.000495 -0.019796 0.000000 0.055237 0.000000
# 6 0.000000 0.000000 0.000000 0.007730 0.000000 0.030379
#
#
# Mechanical properties :
#
#
# Convention : Reuss Voigt Hill
#
# Bulk Modulus (GPa) = 22.70097 37.01209 29.85653
# Shear Modulus (GPa) = 20.60610 25.94277 23.27444
#
# Velocity S-wave (km/s) = 3.17370 3.56104 3.37293
# Velocity P-wave (km/s) = 4.95240 5.91606 5.45554
#
# Compressibility (1/GPa) = 0.04405098
#
# Stress axis : x y z
#
# Youngs Moduli (GPa) = 65.80232 45.07019 35.22812
#
# Poissons Ratio (x) = 0.36252 0.23996
# Poissons Ratio (y) = 0.52928 -0.14074
# Poissons Ratio (z) = 0.44822 -0.18006
#
# Static dielectric constant tensor:
#      x y z
#    x 1.801290 0.000000 0.014340 
#    y 0.000000 1.777130 0.000000 
#    z 0.014340 0.000000 1.733960 
# 
# From -- ./inp_files/204112.got.cif
#   From: 2010.05.17/outbox.cif.g08.bks.cpg/sg15_103_cif.got.tgz:204112.got - 2010.06.03 18:47:42.
