data_PCOD9256915
_publ_section_title
;
Structure prediction by ZEFSAII (Michael W. Deem and Ramdas Pophale) SiO2 
 PCOD9256915
Probable space group: C 2/C
;
_chemical_formula_sum "Si O2"
_cell_formula_units_Z 48
_cell_length_a 19.392520
_cell_length_b 7.105547
_cell_length_c 26.266289
_cell_angle_alpha 90.000000
_cell_angle_beta 147.652872
_cell_angle_gamma 90.000000
_cell_volume 1936.523468
_symmetry_space_group_name_H-M "C 2/C"
_symmetry_group_IT_number 15
_symmetry_cell_setting 'monoclinic'
loop_
_space_group_symop_operation_xyz
x,y,z
-x,y,1/2-z
-x,-y,-z
x,-y,1/2+z
1/2+x,1/2+y,z
1/2-x,1/2+y,1/2-z
1/2-x,1/2-y,-z
1/2+x,1/2-y,1/2+z
loop_
_atom_site_type_symbol
_atom_site_label
_atom_site_fract_x
_atom_site_fract_y
_atom_site_fract_z
Si Si1 0.557890 0.599831 0.430581
Si Si2 0.234129 0.951059 0.458709
Si Si3 0.828650 0.807659 0.188589
Si Si4 0.850442 0.045652 0.913917
Si Si5 0.999347 0.666846 0.124126
Si Si6 0.727103 0.527699 0.242834
O O1 0.644140 0.595031 0.433494
O O2 0.641528 0.672100 0.530645
O O3 0.539871 0.368523 0.423866
O O4 0.406194 0.654452 0.338230
O O5 0.250000 0.750000 0.500000
O O6 0.174878 0.918788 0.366004
O O7 0.387753 0.987470 0.550331
O O8 0.732859 0.634347 0.122672
O O9 0.961358 0.719165 0.293079
O O10 0.778879 0.926520 0.206287
O O11 0.794910 0.090771 0.823869
O O12 0.000000 0.000000 0.000000
O O13 0.129570 0.599941 0.178501
#
# Coordination Sequence:
#
# PCOD9256915 Si02
#       6
#     8   8   8   8   8   8
#     4   9  17  32  49  71 104 129 168 208 257 309
#     4  10  18  30  48  75 107 131 153 208 272 304
#     4  10  18  31  48  74 108 128 163 212 246 305
#     4   9  16  31  48  68  98 136 166 196 247 304
#     4   9  18  30  46  75 101 135 168 199 256 306
#     4   9  19  29  45  70 106 132 167 199 251 299
#
# _framework density 24.786684999999999
#
# number of rings (size 3 to 8) (size 9 to 14) (size 15 to 20)
#    0.000    2.667    3.333    0.000    0.000    6.667 
#    0.000    0.000    0.000    0.000    0.000   18.667 
#   60.000    0.000    0.000    0.000    0.000    0.000 
#
# Total GULP energy -133625.885555 kJ/mol
# GULP energy per Si atom -5567.745231 kJ/mol
# Density = 2.473027 g / cm^3
# Si number density = 24.786685 Si / 1000 Ang^3
#
#
#
# Elastic Constant Matrix: (Units=GPa)
#
#
# Indices 1 2 3 4 5 6 
#
# 1 166.2010 24.0287 71.5740 0.0000 -10.0378 0.0000
# 2 24.0287 38.1125 20.2348 0.0002 -2.0102 -0.0003
# 3 71.5740 20.2348 154.0785 0.0000 -14.3102 0.0001
# 4 0.0000 0.0002 0.0000 35.4250 0.0000 2.5053
# 5 -10.0378 -2.0102 -14.3102 0.0000 58.9310 0.0001
# 6 0.0000 -0.0003 0.0001 2.5053 0.0001 36.2504
#
#
#
# Elastic Compliance Matrix: (Units=1/GPa)
#
#
# Indices 1 2 3 4 5 6 
#
# 1 0.007891 -0.003254 -0.003196 0.000000 0.000457 0.000000
# 2 -0.003254 0.029547 -0.002380 0.000000 -0.000124 0.000000
# 3 -0.003196 -0.002380 0.008419 0.000000 0.001419 0.000000
# 4 0.000000 0.000000 0.000000 0.028367 0.000000 -0.001961
# 5 0.000457 -0.000124 0.001419 0.000000 0.017387 0.000000
# 6 0.000000 0.000000 0.000000 -0.001961 0.000000 0.027721
#
#
# Mechanical properties :
#
#
# Convention : Reuss Voigt Hill
#
# Bulk Modulus (GPa) = 35.46519 65.56299 50.51409
# Shear Modulus (GPa) = 34.15469 42.29157 38.22313
#
# Velocity S-wave (km/s) = 3.71610 4.13512 3.93120
# Velocity P-wave (km/s) = 5.72291 7.02192 6.40543
#
# Compressibility (1/GPa) = 0.02819666
#
# Stress axis : x y z
#
# Youngs Moduli (GPa) = 126.72346 33.84439 118.77704
#
# Poissons Ratio (x) = 0.11014 0.37960
# Poissons Ratio (y) = 0.41239 0.28271
# Poissons Ratio (z) = 0.40499 0.08056
#
# Static dielectric constant tensor:
#      x y z
#    x 2.105620 0.000000 0.038560 
#    y 0.000000 2.135880 0.000000 
#    z 0.038560 0.000000 2.079890 
# 
# From -- ./inp_files/276972.got.cif
#   From: 2010.05.17/outbox.cif.g08.bks.cpg/sg15_139_cif.got.tgz:276972.got - 2010.06.03 18:47:42.
