data_PCOD9256353
_publ_section_title
;
Structure prediction by ZEFSAII (Michael W. Deem and Ramdas Pophale) SiO2 
 PCOD9256353
Probable space group: C 2/C
;
_chemical_formula_sum "Si O2"
_cell_formula_units_Z 56
_cell_length_a 13.041257
_cell_length_b 20.910098
_cell_length_c 12.795719
_cell_angle_alpha 90.000000
_cell_angle_beta 57.382344
_cell_angle_gamma 90.000000
_cell_volume 2939.002593
_symmetry_space_group_name_H-M "C 2/C"
_symmetry_group_IT_number 15
_symmetry_cell_setting 'monoclinic'
loop_
_space_group_symop_operation_xyz
x,y,z
-x,y,1/2-z
-x,-y,-z
x,-y,1/2+z
1/2+x,1/2+y,z
1/2-x,1/2+y,1/2-z
1/2-x,1/2-y,-z
1/2+x,1/2-y,1/2+z
loop_
_atom_site_type_symbol
_atom_site_label
_atom_site_fract_x
_atom_site_fract_y
_atom_site_fract_z
Si Si1 0.744679 0.749364 0.877063
Si Si2 0.809028 0.031705 0.480893
Si Si3 0.500000 0.195310 0.750000
Si Si4 0.620419 0.038188 0.215952
Si Si5 0.448783 0.909712 0.122488
Si Si6 0.000000 0.946130 0.250000
Si Si7 0.826542 0.391202 0.623282
Si Si8 0.173927 0.881717 0.321354
O O1 0.887037 0.736816 0.774402
O O2 0.693230 0.815765 0.864127
O O3 0.670285 0.689413 0.871797
O O4 0.750000 0.750000 0.000000
O O5 0.756004 0.079533 0.423070
O O6 0.836877 0.070525 0.572593
O O7 0.700132 0.984581 0.574948
O O8 0.916117 0.991520 0.368899
O O9 0.474391 0.144045 0.855478
O O10 0.500000 0.076403 0.250000
O O11 0.704800 0.076228 0.249747
O O12 0.567886 0.975553 0.305555
O O13 0.309177 0.887266 0.195514
O O14 0.533772 0.913538 0.975345
O O15 0.079752 0.902911 0.284804
#
# Coordination Sequence:
#
# PCOD9256353 Si02
#       8
#     8   8   4   8   8   4   8   8
#     4  11  21  41  62  91 120 160 206 254 294 361
#     4  11  22  41  63  94 122 158 207 260 312 364
#     4  10  18  35  64  89 118 150 200 258 304 344
#     4  11  22  35  59  94 127 152 198 260 307 363
#     4  10  17  36  63  90 118 155 197 256 313 354
#     4  12  26  43  62  89 130 174 198 246 324 384
#     4  12  22  37  65  94 123 159 203 256 314 360
#     4  10  23  41  64  88 128 166 208 253 302 373
#
# _framework density 19.054082999999999
#
# number of rings (size 3 to 8) (size 9 to 14) (size 15 to 20)
#    0.000    1.143    5.000    3.429    2.000    0.571 
#    3.857    0.000    0.000    1.714    0.000    0.000 
#    0.000    0.000    0.000    0.000    0.000    0.000 
#
# Total GULP energy -156138.528854 kJ/mol
# GULP energy per Si atom -5576.376031 kJ/mol
# Density = 1.901072 g / cm^3
# Si number density = 19.054083 Si / 1000 Ang^3
#
#
#
# Elastic Constant Matrix: (Units=GPa)
#
#
# Indices 1 2 3 4 5 6 
#
# 1 109.0645 55.1467 30.3057 0.0000 13.4806 0.0000
# 2 55.1467 102.3690 30.2947 0.0000 -3.4030 0.0000
# 3 30.3057 30.2947 43.1003 0.0000 -6.6725 0.0000
# 4 0.0000 0.0000 0.0000 18.4835 0.0000 -3.0021
# 5 13.4806 -3.4030 -6.6725 0.0000 32.2894 0.0000
# 6 0.0000 0.0000 0.0000 -3.0021 0.0000 20.1093
#
#
#
# Elastic Compliance Matrix: (Units=1/GPa)
#
#
# Indices 1 2 3 4 5 6 
#
# 1 0.015706 -0.006416 -0.007907 0.000000 -0.008867 0.000000
# 2 -0.006416 0.014963 -0.005524 0.000000 0.003114 0.000000
# 3 -0.007907 -0.005524 0.034158 0.000000 0.009777 0.000000
# 4 0.000000 0.000000 0.000000 0.055447 0.000000 0.008278
# 5 -0.008867 0.003114 0.009777 0.000000 0.037021 0.000000
# 6 0.000000 0.000000 0.000000 0.008278 0.000000 0.050964
#
#
# Mechanical properties :
#
#
# Convention : Reuss Voigt Hill
#
# Bulk Modulus (GPa) = 39.78737 54.00311 46.89524
# Shear Modulus (GPa) = 19.50619 23.42890 21.46754
#
# Velocity S-wave (km/s) = 3.20305 3.51037 3.36022
# Velocity P-wave (km/s) = 5.88268 6.69580 6.30237
#
# Compressibility (1/GPa) = 0.02513360
#
# Stress axis : x y z
#
# Youngs Moduli (GPa) = 63.67013 66.83114 29.27599
#
# Poissons Ratio (x) = 0.42877 0.23148
# Poissons Ratio (y) = 0.40849 0.16172
# Poissons Ratio (z) = 0.50342 0.36918
#
# Static dielectric constant tensor:
#      x y z
#    x 1.702220 0.000000 -0.015900 
#    y 0.000000 1.659800 0.000000 
#    z -0.015900 0.000000 1.760990 
# 
# From -- ./inp_files/89580.got.cif
#   From: 2010.05.17/outbox.cif.g08.bks.cpg/sg15_45_cif.got.tgz:89580.got - 2010.06.03 18:47:42.
