data_PCOD9256043
_publ_section_title
;
Structure prediction by ZEFSAII (Michael W. Deem and Ramdas Pophale) SiO2 
 PCOD9256043
Probable space group: C 2/C
;
_chemical_formula_sum "Si O2"
_cell_formula_units_Z 40
_cell_length_a 10.256187
_cell_length_b 16.534273
_cell_length_c 18.272378
_cell_angle_alpha 90.000000
_cell_angle_beta 135.293800
_cell_angle_gamma 90.000000
_cell_volume 2179.780102
_symmetry_space_group_name_H-M "C 2/C"
_symmetry_group_IT_number 15
_symmetry_cell_setting 'monoclinic'
loop_
_space_group_symop_operation_xyz
x,y,z
-x,y,1/2-z
-x,-y,-z
x,-y,1/2+z
1/2+x,1/2+y,z
1/2-x,1/2+y,1/2-z
1/2-x,1/2-y,-z
1/2+x,1/2-y,1/2+z
loop_
_atom_site_type_symbol
_atom_site_label
_atom_site_fract_x
_atom_site_fract_y
_atom_site_fract_z
Si Si1 0.913293 0.033491 0.294723
Si Si2 0.596449 0.435652 0.482604
Si Si3 0.016399 0.821410 0.944202
Si Si4 0.497642 0.007358 0.335676
Si Si5 0.453470 0.182937 0.648487
O O1 0.691379 0.039799 0.205601
O O2 0.000000 0.036179 0.250000
O O3 0.977854 0.951438 0.362495
O O4 0.989928 0.107614 0.373882
O O5 0.500000 0.500000 0.500000
O O6 0.583252 0.351610 0.521371
O O7 0.809302 0.460212 0.555453
O O8 0.960005 0.739946 0.879477
O O9 0.231852 0.813951 0.050811
O O10 0.500000 0.027702 0.250000
O O11 0.492173 0.910367 0.338822
O O12 0.500000 0.209036 0.750000
#
# Coordination Sequence:
#
# PCOD9256043 Si02
#       5
#     8   8   8   8   8
#     4  11  22  35  57  87 118 149 201 249 290 345
#     4  10  17  34  55  84 112 151 199 236 292 354
#     4  10  19  35  57  86 118 150 195 244 294 350
#     4  11  18  34  62  84 111 160 197 234 296 353
#     4  10  19  32  57  89 117 151 197 246 293 345
#
# _framework density 18.350474999999999
#
# number of rings (size 3 to 8) (size 9 to 14) (size 15 to 20)
#    0.000    1.600    8.000    1.800    0.000    0.800 
#    0.000    0.000    4.400    1.200    0.000    0.000 
#    0.000    0.000    0.000    0.000    0.000    0.000 
#
# Total GULP energy -111476.964838 kJ/mol
# GULP energy per Si atom -5573.848242 kJ/mol
# Density = 1.830871 g / cm^3
# Si number density = 18.350475 Si / 1000 Ang^3
#
#
#
# Elastic Constant Matrix: (Units=GPa)
#
#
# Indices 1 2 3 4 5 6 
#
# 1 111.9422 22.3894 42.2484 0.0000 15.0966 0.0000
# 2 22.3894 39.5438 11.0026 0.0000 1.5678 0.0000
# 3 42.2484 11.0026 82.9506 0.0000 22.9278 0.0000
# 4 0.0000 0.0000 0.0000 -5.7941 0.0000 7.3935
# 5 15.0966 1.5678 22.9278 0.0000 23.8830 0.0000
# 6 0.0000 0.0000 0.0000 7.3935 0.0000 13.2566
#
#
#
# Elastic Compliance Matrix: (Units=1/GPa)
#
#
# Indices 1 2 3 4 5 6 
#
# 1 0.012183 -0.005479 -0.004695 0.000000 -0.002834 0.000000
# 2 -0.005479 0.028807 -0.001994 0.000000 0.003487 0.000000
# 3 -0.004695 -0.001994 0.018859 0.000000 -0.015006 0.000000
# 4 0.000000 0.000000 0.000000 -0.100831 0.000000 0.056235
# 5 -0.002834 0.003487 -0.015006 0.000000 0.057839 0.000000
# 6 0.000000 0.000000 0.000000 0.056235 0.000000 0.044071
#
#
# Mechanical properties :
#
#
# Convention : Reuss Voigt Hill
#
# Bulk Modulus (GPa) = 28.15901 42.85746 35.50824
# Shear Modulus (GPa) = 51.49180 16.85551 34.17366
#
# Velocity S-wave (km/s) = 5.30293 3.03402 4.32009
# Velocity P-wave (km/s) = 7.27140 5.97322 6.65404
#
# Compressibility (1/GPa) = 0.03551262
#
# Stress axis : x y z
#
# Youngs Moduli (GPa) = 82.07965 34.71337 53.02575
#
# Poissons Ratio (x) = 0.19021 0.24896
# Poissons Ratio (y) = 0.44975 0.10573
# Poissons Ratio (z) = 0.38537 0.06922
#
# Static dielectric constant tensor:
#      x y z
#    x 1.611210 0.000000 -0.003580 
#    y 0.000000 1.674030 0.000000 
#    z -0.003580 0.000000 1.657890 
# 
# From -- ./inp_files/239411.got.cif
#   From: 2010.05.17/outbox.cif.g08.bks.cpg/sg15_120_cif.got.tgz:239411.got - 2010.06.03 18:47:42.
