data_PCOD9256129
_publ_section_title
;
Structure prediction by ZEFSAII (Michael W. Deem and Ramdas Pophale) SiO2 
 PCOD9256129
Probable space group: C 2/C
;
_chemical_formula_sum "Si O2"
_cell_formula_units_Z 64
_cell_length_a 23.117009
_cell_length_b 20.954575
_cell_length_c 8.913240
_cell_angle_alpha 90.000000
_cell_angle_beta 126.119962
_cell_angle_gamma 90.000000
_cell_volume 3487.720274
_symmetry_space_group_name_H-M "C 2/C"
_symmetry_group_IT_number 15
_symmetry_cell_setting 'monoclinic'
loop_
_space_group_symop_operation_xyz
x,y,z
-x,y,1/2-z
-x,-y,-z
x,-y,1/2+z
1/2+x,1/2+y,z
1/2-x,1/2+y,1/2-z
1/2-x,1/2-y,-z
1/2+x,1/2-y,1/2+z
loop_
_atom_site_type_symbol
_atom_site_label
_atom_site_fract_x
_atom_site_fract_y
_atom_site_fract_z
Si Si1 0.850090 0.783201 0.249551
Si Si2 0.146054 0.574576 0.817574
Si Si3 0.996942 0.613169 0.064637
Si Si4 0.838107 0.218936 0.365795
Si Si5 0.349147 0.070161 0.175058
Si Si6 0.993611 0.763031 0.059078
Si Si7 0.779588 0.644669 0.804543
Si Si8 0.801738 0.347708 0.841461
O O1 0.796366 0.833940 0.243126
O O2 0.830313 0.714025 0.292051
O O3 0.934920 0.793545 0.399991
O O4 0.838269 0.782806 0.050286
O O5 0.071979 0.580227 0.612521
O O6 0.154392 0.502148 0.883645
O O7 0.212672 0.591929 0.811257
O O8 0.147636 0.627159 0.950114
O O9 0.993962 0.688006 0.020342
O O10 0.000000 0.607378 0.250000
O O11 0.072821 0.583491 0.135089
O O12 0.915651 0.207363 0.413413
O O13 0.815056 0.291051 0.294680
O O14 0.775543 0.172940 0.216426
O O15 0.294220 0.092275 0.218649
O O16 0.331435 0.118705 0.014439
O O17 0.000000 0.764943 0.250000
#
# Coordination Sequence:
#
# PCOD9256129 Si02
#       8
#     8   8   8   8   8   8   8   8
#     4  10  18  34  61  81 106 144 187 232 276 336
#     4  12  26  35  52  83 115 153 186 230 275 318
#     4  11  20  37  54  77 111 153 191 217 265 336
#     4  10  17  34  61  80 109 143 184 232 282 330
#     4  12  21  40  57  75 113 157 194 219 267 337
#     4   9  16  31  57  84 103 137 182 227 270 326
#     4  11  19  37  58  78 107 148 190 228 277 325
#     4  11  22  35  55  84 110 141 192 238 271 325
#
# _framework density 18.350095
#
# number of rings (size 3 to 8) (size 9 to 14) (size 15 to 20)
#    0.000    1.250    6.250    2.625    0.000    2.500 
#    0.000    0.000    0.000    0.000    0.000    5.250 
#    0.000    0.000    0.000    0.000    0.000    0.000 
#
# Total GULP energy -178450.073628 kJ/mol
# GULP energy per Si atom -5576.564801 kJ/mol
# Density = 1.830833 g / cm^3
# Si number density = 18.350095 Si / 1000 Ang^3
#
#
#
# Elastic Constant Matrix: (Units=GPa)
#
#
# Indices 1 2 3 4 5 6 
#
# 1 95.5678 28.6323 16.1641 0.0000 35.4637 0.0000
# 2 28.6323 67.5466 28.6142 0.0000 15.3669 0.0000
# 3 16.1641 28.6142 49.6882 0.0000 13.1196 0.0000
# 4 0.0000 0.0000 0.0000 9.9024 0.0000 1.0439
# 5 35.4637 15.3669 13.1196 0.0000 29.8610 0.0000
# 6 0.0000 0.0000 0.0000 1.0439 0.0000 17.0540
#
#
#
# Elastic Compliance Matrix: (Units=1/GPa)
#
#
# Indices 1 2 3 4 5 6 
#
# 1 0.019473 -0.004031 0.001748 0.000000 -0.021820 0.000000
# 2 -0.004031 0.021344 -0.010570 0.000000 -0.001553 0.000000
# 3 0.001748 -0.010570 0.028005 0.000000 -0.008940 0.000000
# 4 0.000000 0.000000 0.000000 0.101641 0.000000 -0.006222
# 5 -0.021820 -0.001553 -0.008940 0.000000 0.064130 0.000000
# 6 0.000000 0.000000 0.000000 -0.006222 0.000000 0.059018
#
#
# Mechanical properties :
#
#
# Convention : Reuss Voigt Hill
#
# Bulk Modulus (GPa) = 23.19358 39.95817 31.57587
# Shear Modulus (GPa) = 14.98402 20.65630 17.82016
#
# Velocity S-wave (km/s) = 2.86066 3.35875 3.11966
# Velocity P-wave (km/s) = 4.85573 6.07160 5.49738
#
# Compressibility (1/GPa) = 0.04311538
#
# Stress axis : x y z
#
# Youngs Moduli (GPa) = 51.35350 46.85092 35.70830
#
# Poissons Ratio (x) = 0.18884 -0.06241
# Poissons Ratio (y) = 0.20699 0.37745
# Poissons Ratio (z) = -0.08976 0.49523
#
# Static dielectric constant tensor:
#      x y z
#    x 1.706810 0.000000 -0.016100 
#    y 0.000000 1.605830 0.000000 
#    z -0.016100 0.000000 1.676610 
# 
# From -- ./inp_files/50246.got.cif
#   From: 2010.05.17/outbox.cif.g08.bks.cpg/sg15_26_cif.got.tgz:50246.got - 2010.06.03 18:47:42.
