data_PCOD9256391
_publ_section_title
;
Structure prediction by ZEFSAII (Michael W. Deem and Ramdas Pophale) SiO2 
 PCOD9256391
Probable space group: C 2/C
;
_chemical_formula_sum "Si O2"
_cell_formula_units_Z 60
_cell_length_a 11.261260
_cell_length_b 16.552626
_cell_length_c 13.048965
_cell_angle_alpha 90.000000
_cell_angle_beta 73.094776
_cell_angle_gamma 90.000000
_cell_volume 2327.261871
_symmetry_space_group_name_H-M "C 2/C"
_symmetry_group_IT_number 15
_symmetry_cell_setting 'monoclinic'
loop_
_space_group_symop_operation_xyz
x,y,z
-x,y,1/2-z
-x,-y,-z
x,-y,1/2+z
1/2+x,1/2+y,z
1/2-x,1/2+y,1/2-z
1/2-x,1/2-y,-z
1/2+x,1/2-y,1/2+z
loop_
_atom_site_type_symbol
_atom_site_label
_atom_site_fract_x
_atom_site_fract_y
_atom_site_fract_z
Si Si1 0.309966 0.440671 0.139640
Si Si2 0.156848 0.109309 0.418025
Si Si3 0.500000 0.378595 0.250000
Si Si4 0.889482 0.812902 0.981481
Si Si5 0.921425 0.503405 0.176946
Si Si6 0.735276 0.856496 0.823696
Si Si7 0.290822 0.257717 0.342896
Si Si8 0.479885 0.833105 0.132047
O O1 0.323061 0.516210 0.057568
O O2 0.425222 0.431999 0.187906
O O3 0.189621 0.457311 0.236732
O O4 0.301260 0.354612 0.086324
O O5 0.179049 0.107758 0.289527
O O6 0.257395 0.179215 0.422893
O O7 0.018096 0.139375 0.465818
O O8 0.399300 0.321761 0.333913
O O9 0.824404 0.830954 0.890758
O O10 0.929621 0.720109 0.962164
O O11 0.861421 0.573495 0.126611
O O12 0.992391 0.428624 0.109910
O O13 0.000000 0.542081 0.250000
O O14 0.672639 0.783701 0.775694
O O15 0.158582 0.301258 0.359739
O O16 0.500000 0.818124 0.250000
#
# Coordination Sequence:
#
# PCOD9256391 Si02
#       8
#     8   8   4   8   8   8   8   8
#     4  11  24  37  61  95 125 157 209 267 304 362
#     4   8  19  36  58  89 122 166 199 242 313 373
#     4  12  24  40  56  92 128 158 204 262 314 358
#     4  11  19  36  63  97 123 155 212 261 303 362
#     4  10  22  40  62  86 123 170 207 244 310 381
#     4   9  19  35  63  88 113 165 206 242 299 369
#     4   9  19  33  60  82 113 163 203 241 298 369
#     4  10  17  37  61  88 119 165 204 241 307 376
#
# _framework density 25.781371
#
# number of rings (size 3 to 8) (size 9 to 14) (size 15 to 20)
#    0.800    1.333    2.667    0.800    4.667    0.000 
#    0.000   10.667    0.000    0.000    0.000    0.000 
#    0.000    0.000    0.000    0.000    0.000    0.000 
#
# Total GULP energy -167691.246600 kJ/mol
# GULP energy per Si atom -5589.708220 kJ/mol
# Density = 2.572269 g / cm^3
# Si number density = 25.781371 Si / 1000 Ang^3
#
#
#
# Elastic Constant Matrix: (Units=GPa)
#
#
# Indices 1 2 3 4 5 6 
#
# 1 101.2287 37.8584 21.2928 0.0000 4.9326 0.0000
# 2 37.8584 149.8053 12.6498 0.0000 2.2201 0.0000
# 3 21.2928 12.6498 50.2374 0.0000 -4.3244 0.0000
# 4 0.0000 0.0000 0.0000 24.2630 0.0000 -1.2093
# 5 4.9326 2.2201 -4.3244 0.0000 24.9777 0.0000
# 6 0.0000 0.0000 0.0000 -1.2093 0.0000 50.2636
#
#
#
# Elastic Compliance Matrix: (Units=1/GPa)
#
#
# Indices 1 2 3 4 5 6 
#
# 1 0.011973 -0.002587 -0.004677 0.000000 -0.002944 0.000000
# 2 -0.002587 0.007400 -0.000791 0.000000 -0.000284 0.000000
# 3 -0.004677 -0.000791 0.022508 0.000000 0.004891 0.000000
# 4 0.000000 0.000000 0.000000 0.041265 0.000000 0.000993
# 5 -0.002944 -0.000284 0.004891 0.000000 0.041489 0.000000
# 6 0.000000 0.000000 0.000000 0.000993 0.000000 0.019919
#
#
# Mechanical properties :
#
#
# Convention : Reuss Voigt Hill
#
# Bulk Modulus (GPa) = 38.80343 49.43039 44.11691
# Shear Modulus (GPa) = 29.54116 35.19887 32.37002
#
# Velocity S-wave (km/s) = 3.38869 3.69898 3.54723
# Velocity P-wave (km/s) = 5.51313 6.12028 5.82462
#
# Compressibility (1/GPa) = 0.02577092
#
# Stress axis : x y z
#
# Youngs Moduli (GPa) = 83.51793 135.13119 44.42876
#
# Poissons Ratio (x) = 0.34963 0.20779
# Poissons Ratio (y) = 0.21609 0.03515
# Poissons Ratio (z) = 0.39060 0.10691
#
# Static dielectric constant tensor:
#      x y z
#    x 1.968370 0.000000 -0.056070 
#    y 0.000000 2.116640 0.000000 
#    z -0.056070 0.000000 2.087310 
# 
# From -- ./inp_files/145684.got.cif
#   From: 2010.05.17/outbox.cif.g08.bks.cpg/sg15_73_cif.got.tgz:145684.got - 2010.06.03 18:47:42.
