data_PCOD9256779
_publ_section_title
;
Structure prediction by ZEFSAII (Michael W. Deem and Ramdas Pophale) SiO2 
 PCOD9256779
Probable space group: C 2/C
;
_chemical_formula_sum "Si O2"
_cell_formula_units_Z 56
_cell_length_a 17.152653
_cell_length_b 33.915574
_cell_length_c 5.267440
_cell_angle_alpha 90.000000
_cell_angle_beta 67.883862
_cell_angle_gamma 90.000000
_cell_volume 2838.828943
_symmetry_space_group_name_H-M "C 2/C"
_symmetry_group_IT_number 15
_symmetry_cell_setting 'monoclinic'
loop_
_space_group_symop_operation_xyz
x,y,z
-x,y,1/2-z
-x,-y,-z
x,-y,1/2+z
1/2+x,1/2+y,z
1/2-x,1/2+y,1/2-z
1/2-x,1/2-y,-z
1/2+x,1/2-y,1/2+z
loop_
_atom_site_type_symbol
_atom_site_label
_atom_site_fract_x
_atom_site_fract_y
_atom_site_fract_z
Si Si1 0.400267 0.312529 0.402751
Si Si2 0.054929 0.404887 0.430817
Si Si3 0.713007 0.131804 0.620999
Si Si4 0.700126 0.605517 0.481397
Si Si5 0.826726 0.017060 0.163574
Si Si6 0.191120 0.786385 0.492318
Si Si7 0.366211 0.985405 0.062503
O O1 0.500000 0.313038 0.250000
O O2 0.365143 0.357880 0.454060
O O3 0.375310 0.292936 0.700015
O O4 0.354892 0.289120 0.225583
O O5 0.115570 0.368058 0.312377
O O6 0.120689 0.440988 0.370815
O O7 0.000000 0.411450 0.250000
O O8 0.000000 0.402169 0.750000
O O9 0.729369 0.114287 0.320772
O O10 0.749767 0.175275 0.577592
O O11 0.763765 0.108140 0.778156
O O12 0.670074 0.561654 0.443970
O O13 0.864429 0.989568 0.896080
O O14 0.729412 0.002109 0.331665
O O15 0.250000 0.750000 0.500000
O O16 0.406330 0.010596 0.237860
#
# Coordination Sequence:
#
# PCOD9256779 Si02
#       7
#     8   8   8   8   8   8   8
#     4  10  21  38  64  96 124 152 191 241 294 343
#     4  12  24  35  48  69 104 144 188 240 286 333
#     4  10  20  37  56  76 106 148 193 232 281 348
#     4  10  19  35  59  80 107 148 191 237 285 350
#     4  10  18  29  49  74 100 136 188 238 283 337
#     4  10  21  39  65  93 122 155 192 234 285 354
#     4  10  19  31  45  63  91 129 179 232 280 325
#
# _framework density 19.726444000000001
#
# number of rings (size 3 to 8) (size 9 to 14) (size 15 to 20)
#    0.000    1.714    0.000    6.857    0.000    1.714 
#    0.000    2.143    0.000    0.857    0.000    0.000 
#    0.000    0.000    0.000    0.000    0.000    0.000 
#
# Total GULP energy -156136.420671 kJ/mol
# GULP energy per Si atom -5576.300738 kJ/mol
# Density = 1.968155 g / cm^3
# Si number density = 19.726444 Si / 1000 Ang^3
#
#
#
# Elastic Constant Matrix: (Units=GPa)
#
#
# Indices 1 2 3 4 5 6 
#
# 1 30.4367 10.9958 28.6384 0.0000 -6.8901 0.0000
# 2 10.9958 46.1324 24.6925 0.0000 -7.0632 0.0000
# 3 28.6384 24.6925 122.4334 0.0000 14.2820 0.0000
# 4 0.0000 0.0000 0.0000 19.9408 0.0000 4.4688
# 5 -6.8901 -7.0632 14.2820 0.0000 30.1927 0.0000
# 6 0.0000 0.0000 0.0000 4.4688 0.0000 8.5471
#
#
#
# Elastic Compliance Matrix: (Units=1/GPa)
#
#
# Indices 1 2 3 4 5 6 
#
# 1 0.050010 -0.002195 -0.013258 0.000000 0.017170 0.000000
# 2 -0.002195 0.026631 -0.005849 0.000000 0.008496 0.000000
# 3 -0.013258 -0.005849 0.013718 0.000000 -0.010883 0.000000
# 4 0.000000 0.000000 0.000000 0.056804 0.000000 -0.029700
# 5 0.017170 0.008496 -0.010883 0.000000 0.044174 0.000000
# 6 0.000000 0.000000 0.000000 -0.029700 0.000000 0.132528
#
#
# Mechanical properties :
#
#
# Convention : Reuss Voigt Hill
#
# Bulk Modulus (GPa) = 20.93983 36.40622 28.67302
# Shear Modulus (GPa) = 13.07578 20.71450 16.89514
#
# Velocity S-wave (km/s) = 2.57739 3.24402 2.92973
# Velocity P-wave (km/s) = 4.41536 5.70326 5.10013
#
# Compressibility (1/GPa) = 0.04775589
#
# Stress axis : x y z
#
# Youngs Moduli (GPa) = 19.99614 37.55004 72.89722
#
# Poissons Ratio (x) = 0.08241 0.96648
# Poissons Ratio (y) = 0.04388 0.42635
# Poissons Ratio (z) = 0.26511 0.21962
#
# Static dielectric constant tensor:
#      x y z
#    x 1.613430 0.000000 0.092170 
#    y 0.000000 1.709550 0.000000 
#    z 0.092170 0.000000 1.748040 
# 
# From -- ./inp_files/12125.got.cif
#   From: 2010.05.17/outbox.cif.g08.bks.cpg/sg15_7_cif.got.tgz:12125.got - 2010.06.03 18:47:42.
