data_PCOD9256473
_publ_section_title
;
Structure prediction by ZEFSAII (Michael W. Deem and Ramdas Pophale) SiO2 
 PCOD9256473
Probable space group: C 2/C
;
_chemical_formula_sum "Si O2"
_cell_formula_units_Z 32
_cell_length_a 27.095149
_cell_length_b 5.068364
_cell_length_c 9.357851
_cell_angle_alpha 90.000000
_cell_angle_beta 112.287997
_cell_angle_gamma 90.000000
_cell_volume 1189.085151
_symmetry_space_group_name_H-M "C 2/C"
_symmetry_group_IT_number 15
_symmetry_cell_setting 'monoclinic'
loop_
_space_group_symop_operation_xyz
x,y,z
-x,y,1/2-z
-x,-y,-z
x,-y,1/2+z
1/2+x,1/2+y,z
1/2-x,1/2+y,1/2-z
1/2-x,1/2-y,-z
1/2+x,1/2-y,1/2+z
loop_
_atom_site_type_symbol
_atom_site_label
_atom_site_fract_x
_atom_site_fract_y
_atom_site_fract_z
Si Si1 0.782856 0.720205 0.239985
Si Si2 0.870910 0.367338 0.353559
Si Si3 0.465211 0.651728 0.347356
Si Si4 0.644980 0.495041 0.396587
O O1 0.754127 0.961902 0.288002
O O2 0.838354 0.617061 0.371206
O O3 0.805824 0.829190 0.116777
O O4 0.933262 0.389206 0.389907
O O5 0.862897 0.133566 0.457494
O O6 0.845551 0.277064 0.173478
O O7 0.500000 0.733038 0.250000
O O8 0.500000 0.500000 0.500000
O O9 0.415673 0.470403 0.235699
#
# Coordination Sequence:
#
# PCOD9256473 Si02
#       4
#     8   8   8   8
#     4  12  25  50  72 109 146 200 244 313 371 429
#     4  10  23  43  73 111 148 188 251 298 362 450
#     4  10  17  40  76 106 147 193 235 296 373 432
#     4  10  23  43  73 111 150 185 254 295 366 446
#
# _framework density 26.911446000000002
#
# number of rings (size 3 to 8) (size 9 to 14) (size 15 to 20)
#    1.500    0.000    5.000    0.000    0.000    4.000 
#    0.000    2.500    0.000    0.000    0.000    0.000 
#    0.000    0.000    0.000    0.000    0.000    0.000 
#
# Total GULP energy -89202.100296 kJ/mol
# GULP energy per Si atom -5575.131268 kJ/mol
# Density = 2.685019 g / cm^3
# Si number density = 26.911446 Si / 1000 Ang^3
#
#
#
# Elastic Constant Matrix: (Units=GPa)
#
#
# Indices 1 2 3 4 5 6 
#
# 1 224.3743 16.7692 13.3887 0.0000 -12.0666 0.0000
# 2 16.7692 77.9792 -23.9809 0.0000 14.3167 0.0000
# 3 13.3887 -23.9809 74.3466 0.0000 -28.1100 0.0000
# 4 0.0000 0.0000 0.0000 1.2334 0.0000 19.0083
# 5 -12.0666 14.3167 -28.1100 0.0000 50.5235 0.0000
# 6 0.0000 0.0000 0.0000 19.0083 0.0000 -34.2621
#
#
#
# Elastic Compliance Matrix: (Units=1/GPa)
#
#
# Indices 1 2 3 4 5 6 
#
# 1 0.004678 -0.001480 -0.000936 0.000000 0.001016 0.000000
# 2 -0.001480 0.014846 0.004218 0.000000 -0.002213 0.000000
# 3 -0.000936 0.004218 0.018291 0.000000 0.008758 0.000000
# 4 0.000000 0.000000 0.000000 0.084897 0.000000 0.047100
# 5 0.001016 -0.002213 0.008758 0.000000 0.025535 0.000000
# 6 0.000000 0.000000 0.000000 0.047100 0.000000 -0.003056
#
#
# Mechanical properties :
#
#
# Convention : Reuss Voigt Hill
#
# Bulk Modulus (GPa) = 24.14324 43.22823 33.68573
# Shear Modulus (GPa) = 32.17651 28.20050 30.18851
#
# Velocity S-wave (km/s) = 3.46156 3.24064 3.35292
# Velocity P-wave (km/s) = 4.99674 5.48638 5.24727
#
# Compressibility (1/GPa) = 0.04141946
#
# Stress axis : x y z
#
# Youngs Moduli (GPa) = 213.76876 67.35865 54.67180
#
# Poissons Ratio (x) = 0.09971 0.05116
# Poissons Ratio (y) = 0.31644 -0.23062
# Poissons Ratio (z) = 0.20003 -0.28414
#
# Static dielectric constant tensor:
#      x y z
#    x 2.121530 0.000000 0.017100 
#    y 0.000000 2.166590 0.000000 
#    z 0.017100 0.000000 2.416580 
# 
# From -- ./inp_files/67983.got.cif
#   From: 2010.05.17/outbox.cif.g08.bks.cpg/sg15_34_cif.got.tgz:67983.got - 2010.06.03 18:47:42.
