data_PCOD9256216
_publ_section_title
;
Structure prediction by ZEFSAII (Michael W. Deem and Ramdas Pophale) SiO2 
 PCOD9256216
Probable space group: C 2/C
;
_chemical_formula_sum "Si O2"
_cell_formula_units_Z 56
_cell_length_a 22.512212
_cell_length_b 6.051208
_cell_length_c 18.074964
_cell_angle_alpha 90.000000
_cell_angle_beta 98.011783
_cell_angle_gamma 90.000000
_cell_volume 2438.248165
_symmetry_space_group_name_H-M "C 2/C"
_symmetry_group_IT_number 15
_symmetry_cell_setting 'monoclinic'
loop_
_space_group_symop_operation_xyz
x,y,z
-x,y,1/2-z
-x,-y,-z
x,-y,1/2+z
1/2+x,1/2+y,z
1/2-x,1/2+y,1/2-z
1/2-x,1/2-y,-z
1/2+x,1/2-y,1/2+z
loop_
_atom_site_type_symbol
_atom_site_label
_atom_site_fract_x
_atom_site_fract_y
_atom_site_fract_z
Si Si1 0.915496 0.205350 0.306031
Si Si2 0.978077 0.204030 0.857872
Si Si3 0.883138 0.428799 0.920089
Si Si4 0.781460 0.760705 0.161458
Si Si5 0.415850 0.908855 0.700442
Si Si6 0.696948 0.588078 0.682599
Si Si7 0.232796 0.498096 0.525248
O O1 0.900841 0.364820 0.372513
O O2 0.921541 0.339345 0.230417
O O3 0.856200 0.056876 0.291142
O O4 0.971733 0.056241 0.341629
O O5 0.943468 0.279026 0.926504
O O6 0.940987 0.291709 0.779397
O O7 0.041342 0.323654 0.857638
O O8 0.840501 0.497537 0.980431
O O9 0.836482 0.278338 0.866718
O O10 0.848530 0.666778 0.172906
O O11 0.736601 0.560136 0.135829
O O12 0.765431 0.817890 0.243278
O O13 0.767926 0.971729 0.109607
O O14 0.250000 0.250000 0.500000
O O15 0.250000 0.750000 0.500000
#
# Coordination Sequence:
#
# PCOD9256216 Si02
#       7
#     8   8   8   8   8   8   8
#     4  10  17  35  58  88 131 169 196 250 320 402
#     4   9  20  34  57  91 128 164 202 244 330 397
#     4  10  20  41  61  89 125 164 206 260 322 393
#     4  12  21  38  63  93 135 159 211 266 327 395
#     4  10  20  35  54  94 131 164 197 250 323 401
#     4  11  20  35  61 100 126 165 198 263 346 400
#     4  12  28  45  65  92 127 176 225 275 321 380
#
# _framework density 22.967307999999999
#
# number of rings (size 3 to 8) (size 9 to 14) (size 15 to 20)
#    0.000    1.429    5.714    2.571    2.000    5.714 
#    0.000    0.000    0.000    1.714    0.000    0.000 
#    0.000    0.000    0.000    0.000    0.000    0.000 
#
# Total GULP energy -155935.207806 kJ/mol
# GULP energy per Si atom -5569.114564 kJ/mol
# Density = 2.291503 g / cm^3
# Si number density = 22.967308 Si / 1000 Ang^3
#
#
#
# Elastic Constant Matrix: (Units=GPa)
#
#
# Indices 1 2 3 4 5 6 
#
# 1 134.1627 59.7287 12.3891 0.0000 -33.1733 0.0000
# 2 59.7287 144.6500 20.6035 0.0000 -23.7848 0.0000
# 3 12.3891 20.6035 16.0195 0.0000 -13.1139 0.0000
# 4 0.0000 0.0000 0.0000 12.2729 0.0000 -18.1650
# 5 -33.1733 -23.7848 -13.1139 0.0000 25.9816 0.0000
# 6 0.0000 0.0000 0.0000 -18.1650 0.0000 39.1549
#
#
#
# Elastic Compliance Matrix: (Units=1/GPa)
#
#
# Indices 1 2 3 4 5 6 
#
# 1 0.012481 -0.003618 0.009091 0.000000 0.017212 0.000000
# 2 -0.003618 0.009744 -0.010589 0.000000 -0.001044 0.000000
# 3 0.009091 -0.010589 0.120274 0.000000 0.062621 0.000000
# 4 0.000000 0.000000 0.000000 0.260035 0.000000 0.120637
# 5 0.017212 -0.001044 0.062621 0.000000 0.091116 0.000000
# 6 0.000000 0.000000 0.000000 0.120637 0.000000 0.081507
#
#
# Mechanical properties :
#
#
# Convention : Reuss Voigt Hill
#
# Bulk Modulus (GPa) = 7.56044 53.36386 30.46215
# Shear Modulus (GPa) = 7.94310 28.95594 18.44952
#
# Velocity S-wave (km/s) = 1.86171 3.55455 2.83732
# Velocity P-wave (km/s) = 2.81429 6.33495 4.90162
#
# Compressibility (1/GPa) = 0.13226751
#
# Stress axis : x y z
#
# Youngs Moduli (GPa) = 80.12305 102.62935 8.31432
#
# Poissons Ratio (x) = 0.37135 -0.07559
# Poissons Ratio (y) = 0.28991 0.08804
# Poissons Ratio (z) = -0.72842 1.08671
#
# Static dielectric constant tensor:
#      x y z
#    x 1.928500 0.000000 -0.104340 
#    y 0.000000 2.009020 0.000000 
#    z -0.104340 0.000000 2.094650 
# 
# From -- ./inp_files/254082.got.cif
#   From: 2010.05.17/outbox.cif.g08.bks.cpg/sg15_128_cif.got.tgz:254082.got - 2010.06.03 18:47:42.
