data_PCOD9256149
_publ_section_title
;
Structure prediction by ZEFSAII (Michael W. Deem and Ramdas Pophale) SiO2 
 PCOD9256149
Probable space group: C 2/C
;
_chemical_formula_sum "Si O2"
_cell_formula_units_Z 64
_cell_length_a 17.922527
_cell_length_b 10.369218
_cell_length_c 17.746280
_cell_angle_alpha 90.000000
_cell_angle_beta 126.148468
_cell_angle_gamma 90.000000
_cell_volume 2663.117720
_symmetry_space_group_name_H-M "C 2/C"
_symmetry_group_IT_number 15
_symmetry_cell_setting 'monoclinic'
loop_
_space_group_symop_operation_xyz
x,y,z
-x,y,1/2-z
-x,-y,-z
x,-y,1/2+z
1/2+x,1/2+y,z
1/2-x,1/2+y,1/2-z
1/2-x,1/2-y,-z
1/2+x,1/2-y,1/2+z
loop_
_atom_site_type_symbol
_atom_site_label
_atom_site_fract_x
_atom_site_fract_y
_atom_site_fract_z
Si Si1 0.507830 0.808502 0.574812
Si Si2 0.733444 0.482529 0.524371
Si Si3 0.861405 0.154695 0.935913
Si Si4 0.093408 0.689009 0.334777
Si Si5 0.607719 0.461816 0.300766
Si Si6 0.170437 0.782321 0.782676
Si Si7 0.608309 0.185282 0.902383
Si Si8 0.067381 0.578730 0.624483
O O1 0.558985 0.681890 0.575385
O O2 0.439053 0.774302 0.600461
O O3 0.452882 0.874389 0.472477
O O4 0.581705 0.924482 0.636578
O O5 0.676783 0.515440 0.566362
O O6 0.810564 0.381005 0.595197
O O7 0.669121 0.461955 0.413909
O O8 0.796987 0.604901 0.538242
O O9 0.775690 0.246539 0.863127
O O10 0.895239 0.203555 0.037776
O O11 0.000000 0.617580 0.250000
O O12 0.106084 0.808277 0.284886
O O13 0.500000 0.495235 0.250000
O O14 0.651033 0.564356 0.268015
O O15 0.109640 0.741171 0.819756
O O16 0.138946 0.681681 0.700369
O O17 0.525139 0.095994 0.880119
#
# Coordination Sequence:
#
# PCOD9256149 Si02
#       8
#     8   8   8   8   8   8   8   8
#     4  10  23  43  60 101 144 179 224 300 372 426
#     4  11  20  39  69 102 131 187 246 287 360 437
#     4  10  21  37  64 102 145 171 221 318 362 412
#     4  11  26  45  71  97 138 194 251 302 358 441
#     4  11  23  40  64 100 140 178 240 303 351 422
#     4  11  20  36  68 104 130 179 244 291 354 434
#     4  10  17  34  63 102 130 167 230 309 343 415
#     4  10  21  35  67  97 135 183 232 294 359 441
#
# _framework density 24.031981999999999
#
# number of rings (size 3 to 8) (size 9 to 14) (size 15 to 20)
#    0.000    1.500    3.750    2.250    5.250    0.000 
#    0.000    6.875    0.000    0.000    0.000    0.000 
#    0.000    0.000    0.000    0.000    0.000    0.000 
#
# Total GULP energy -178661.403954 kJ/mol
# GULP energy per Si atom -5583.168874 kJ/mol
# Density = 2.397728 g / cm^3
# Si number density = 24.031982 Si / 1000 Ang^3
#
#
#
# Elastic Constant Matrix: (Units=GPa)
#
#
# Indices 1 2 3 4 5 6 
#
# 1 49.5834 6.3955 1.6400 0.0000 -10.1958 0.0000
# 2 6.3955 75.4420 31.3739 0.0000 1.7408 0.0000
# 3 1.6400 31.3739 75.6564 0.0000 5.9308 0.0000
# 4 0.0000 0.0000 0.0000 33.8420 0.0000 11.2269
# 5 -10.1958 1.7408 5.9308 0.0000 34.0683 0.0000
# 6 0.0000 0.0000 0.0000 11.2269 0.0000 40.7755
#
#
#
# Elastic Compliance Matrix: (Units=1/GPa)
#
#
# Indices 1 2 3 4 5 6 
#
# 1 0.021790 -0.001918 -0.000198 0.000000 0.006654 0.000000
# 2 -0.001918 0.016190 -0.006653 0.000000 -0.000243 0.000000
# 3 -0.000198 -0.006653 0.016180 0.000000 -0.002536 0.000000
# 4 0.000000 0.000000 0.000000 0.032519 0.000000 -0.008954
# 5 0.006654 -0.000243 -0.002536 0.000000 0.031798 0.000000
# 6 0.000000 0.000000 0.000000 -0.008954 0.000000 0.026990
#
#
# Mechanical properties :
#
#
# Convention : Reuss Voigt Hill
#
# Bulk Modulus (GPa) = 27.30723 31.05563 29.18143
# Shear Modulus (GPa) = 28.53646 32.48866 30.51256
#
# Velocity S-wave (km/s) = 3.44966 3.68080 3.56710
# Velocity P-wave (km/s) = 5.22057 5.56912 5.39766
#
# Compressibility (1/GPa) = 0.03662033
#
# Stress axis : x y z
#
# Youngs Moduli (GPa) = 45.89211 61.76521 61.80539
#
# Poissons Ratio (x) = 0.11848 0.01227
# Poissons Ratio (y) = 0.08803 0.41121
# Poissons Ratio (z) = 0.00911 0.41094
#
# Static dielectric constant tensor:
#      x y z
#    x 1.893530 0.000000 0.013470 
#    y 0.000000 2.086670 0.000000 
#    z 0.013470 0.000000 1.997480 
# 
# From -- ./inp_files/215062.got.cif
#   From: 2010.05.17/outbox.cif.g08.bks.cpg/sg15_108_cif.got.tgz:215062.got - 2010.06.03 18:47:42.
