data_PCOD9256931
_publ_section_title
;
Structure prediction by ZEFSAII (Michael W. Deem and Ramdas Pophale) SiO2 
 PCOD9256931
Probable space group: C 2/C
;
_chemical_formula_sum "Si O2"
_cell_formula_units_Z 56
_cell_length_a 29.755759
_cell_length_b 27.067398
_cell_length_c 5.162827
_cell_angle_alpha 90.000000
_cell_angle_beta 107.712366
_cell_angle_gamma 90.000000
_cell_volume 3961.081652
_symmetry_space_group_name_H-M "C 2/C"
_symmetry_group_IT_number 15
_symmetry_cell_setting 'monoclinic'
loop_
_space_group_symop_operation_xyz
x,y,z
-x,y,1/2-z
-x,-y,-z
x,-y,1/2+z
1/2+x,1/2+y,z
1/2-x,1/2+y,1/2-z
1/2-x,1/2-y,-z
1/2+x,1/2-y,1/2+z
loop_
_atom_site_type_symbol
_atom_site_label
_atom_site_fract_x
_atom_site_fract_y
_atom_site_fract_z
Si Si1 0.560780 0.469376 0.986216
Si Si2 0.891368 0.163860 0.462314
Si Si3 0.549345 0.358306 0.936609
Si Si4 0.675340 0.723976 0.452739
Si Si5 0.761364 0.705762 0.219981
Si Si6 0.194319 0.136214 0.875561
Si Si7 0.825525 0.968887 0.351982
O O1 0.548220 0.492379 0.688737
O O2 0.541199 0.415073 0.004629
O O3 0.617743 0.463411 0.075728
O O4 0.917565 0.141046 0.260166
O O5 0.868523 0.214837 0.314171
O O6 0.845519 0.131795 0.469061
O O7 0.925780 0.166573 0.770771
O O8 0.500000 0.336267 0.750000
O O9 0.722366 0.709996 0.376015
O O10 0.687423 0.778346 0.583691
O O11 0.673640 0.682208 0.671953
O O12 0.750000 0.750000 0.000000
O O13 0.745673 0.654797 0.059489
O O14 0.195631 0.085275 0.727020
O O15 0.812380 0.993698 0.598935
#
# Coordination Sequence:
#
# PCOD9256931 Si02
#       7
#     8   8   8   8   8   8   8
#     4  10  20  32  46  56  70  93 131 178 223 264
#     4  11  20  33  49  60  79 105 128 167 218 260
#     4  12  24  35  45  59  75 100 138 175 222 264
#     4   9  16  29  48  66  87 102 127 153 213 265
#     4   8  16  26  44  73  87 103 121 157 199 269
#     4  10  18  30  49  62  87 106 133 166 215 252
#     4  10  21  29  43  60  79 106 143 169 203 255
#
# _framework density 14.137554
#
# number of rings (size 3 to 8) (size 9 to 14) (size 15 to 20)
#    0.000    2.000    2.857    1.286    8.000    0.571 
#    0.000    0.000    0.000    0.000    0.000    0.000 
#    0.000    0.000    0.000    0.000    0.000    0.000 
#
# Total GULP energy -155967.443548 kJ/mol
# GULP energy per Si atom -5570.265841 kJ/mol
# Density = 1.410538 g / cm^3
# Si number density = 14.137554 Si / 1000 Ang^3
#
#
#
# Elastic Constant Matrix: (Units=GPa)
#
#
# Indices 1 2 3 4 5 6 
#
# 1 27.6738 20.8305 21.4736 0.0000 4.5942 0.0000
# 2 20.8305 45.1850 30.0463 0.0000 20.8024 0.0000
# 3 21.4736 30.0463 92.6980 0.0000 16.7137 0.0000
# 4 0.0000 0.0000 0.0000 22.7543 0.0000 4.5816
# 5 4.5942 20.8024 16.7137 0.0000 27.8588 0.0000
# 6 0.0000 0.0000 0.0000 4.5816 0.0000 15.1335
#
#
#
# Elastic Compliance Matrix: (Units=1/GPa)
#
#
# Indices 1 2 3 4 5 6 
#
# 1 0.063585 -0.032929 -0.007399 0.000000 0.018542 0.000000
# 2 -0.032929 0.055635 -0.004366 0.000000 -0.033493 0.000000
# 3 -0.007399 -0.004366 0.014699 0.000000 -0.004338 0.000000
# 4 0.000000 0.000000 0.000000 0.046801 0.000000 -0.014169
# 5 0.018542 -0.033493 -0.004338 0.000000 0.060450 0.000000
# 6 0.000000 0.000000 0.000000 -0.014169 0.000000 0.070368
#
#
# Mechanical properties :
#
#
# Convention : Reuss Voigt Hill
#
# Bulk Modulus (GPa) = 22.45679 34.47308 28.46493
# Shear Modulus (GPa) = 12.02591 19.36308 15.69450
#
# Velocity S-wave (km/s) = 2.91973 3.70485 3.33547
# Velocity P-wave (km/s) = 5.22354 6.53745 5.91708
#
# Compressibility (1/GPa) = 0.04452997
#
# Stress axis : x y z
#
# Youngs Moduli (GPa) = 15.72700 17.97444 68.03124
#
# Poissons Ratio (x) = 0.59188 0.50338
# Poissons Ratio (y) = 0.51787 0.29702
# Poissons Ratio (z) = 0.11637 0.07848
#
# Static dielectric constant tensor:
#      x y z
#    x 1.521510 0.000000 -0.012260 
#    y 0.000000 1.490400 0.000000 
#    z -0.012260 0.000000 1.587210 
# 
# From -- ./inp_files/18659.got.cif
#   From: 2010.05.17/outbox.cif.g08.bks.cpg/sg15_10_cif.got.tgz:18659.got - 2010.06.03 18:47:42.
