data_PCOD9256374
_publ_section_title
;
Structure prediction by ZEFSAII (Michael W. Deem and Ramdas Pophale) SiO2 
 PCOD9256374
Probable space group: C 2/C
;
_chemical_formula_sum "Si O2"
_cell_formula_units_Z 40
_cell_length_a 27.343691
_cell_length_b 15.188149
_cell_length_c 5.360935
_cell_angle_alpha 90.000000
_cell_angle_beta 53.949119
_cell_angle_gamma 90.000000
_cell_volume 1800.029839
_symmetry_space_group_name_H-M "C 2/C"
_symmetry_group_IT_number 15
_symmetry_cell_setting 'monoclinic'
loop_
_space_group_symop_operation_xyz
x,y,z
-x,y,1/2-z
-x,-y,-z
x,-y,1/2+z
1/2+x,1/2+y,z
1/2-x,1/2+y,1/2-z
1/2-x,1/2-y,-z
1/2+x,1/2-y,1/2+z
loop_
_atom_site_type_symbol
_atom_site_label
_atom_site_fract_x
_atom_site_fract_y
_atom_site_fract_z
Si Si1 0.000000 0.685195 0.750000
Si Si2 0.915044 0.787325 0.630728
Si Si3 0.787651 0.266453 0.638458
Si Si4 0.312859 0.039235 0.892139
Si Si5 0.933246 0.395213 0.835409
Si Si6 0.500000 0.558748 0.750000
O O1 0.966727 0.749994 0.659484
O O2 0.051487 0.618807 0.498725
O O3 0.910031 0.704929 0.458314
O O4 0.941547 0.876436 0.437154
O O5 0.849269 0.790868 0.952340
O O6 0.750000 0.250000 0.500000
O O7 0.803136 0.369354 0.563986
O O8 0.750000 0.250000 0.000000
O O9 0.384292 0.042365 0.606447
O O10 0.289533 0.028750 0.675345
O O11 0.000000 0.408932 0.750000
O O12 0.500000 0.500000 0.500000
#
# Coordination Sequence:
#
# PCOD9256374 Si02
#       6
#     4   8   8   8   8   4
#     4  10  17  36  68  93 130 166 224 256 325 394
#     4  10  22  40  65  95 135 172 225 281 331 417
#     4  11  26  46  74  97 125 189 244 269 329 427
#     4  11  25  42  64  97 138 166 209 283 339 378
#     4   9  20  34  62  92 128 180 209 244 322 408
#     4  12  25  40  64 103 136 174 220 296 371 398
#
# _framework density 22.221852999999999
#
# number of rings (size 3 to 8) (size 9 to 14) (size 15 to 20)
#    0.000    1.600    3.000    1.800   14.000    0.800 
#    0.000    6.000    0.000    0.000    0.000    0.000 
#    0.000    0.000    0.000    0.000    0.000    0.000 
#
# Total GULP energy -111426.728220 kJ/mol
# GULP energy per Si atom -5571.336411 kJ/mol
# Density = 2.217127 g / cm^3
# Si number density = 22.221853 Si / 1000 Ang^3
#
#
#
# Elastic Constant Matrix: (Units=GPa)
#
#
# Indices 1 2 3 4 5 6 
#
# 1 40.6078 12.3436 39.5616 0.0000 3.6710 0.0000
# 2 12.3436 91.3973 57.4790 0.0000 6.9971 0.0000
# 3 39.5616 57.4790 198.1628 0.0000 9.4100 0.0000
# 4 0.0000 0.0000 0.0000 40.3026 0.0000 1.2502
# 5 3.6710 6.9971 9.4100 0.0000 40.5783 0.0000
# 6 0.0000 0.0000 0.0000 1.2502 0.0000 21.3627
#
#
#
# Elastic Compliance Matrix: (Units=1/GPa)
#
#
# Indices 1 2 3 4 5 6 
#
# 1 0.030653 -0.000280 -0.005975 0.000000 -0.001339 0.000000
# 2 -0.000280 0.013467 -0.003783 0.000000 -0.001420 0.000000
# 3 -0.005975 -0.003783 0.007361 0.000000 -0.000514 0.000000
# 4 0.000000 0.000000 0.000000 0.024857 0.000000 -0.001455
# 5 -0.001339 -0.001420 -0.000514 0.000000 0.025129 0.000000
# 6 0.000000 0.000000 0.000000 -0.001455 0.000000 0.046896
#
#
# Mechanical properties :
#
#
# Convention : Reuss Voigt Hill
#
# Bulk Modulus (GPa) = 31.84157 60.99292 46.41724
# Shear Modulus (GPa) = 27.94764 35.16762 31.55763
#
# Velocity S-wave (km/s) = 3.55020 3.98247 3.77253
# Velocity P-wave (km/s) = 5.58259 6.97521 6.31739
#
# Compressibility (1/GPa) = 0.03140549
#
# Stress axis : x y z
#
# Youngs Moduli (GPa) = 32.62339 74.25702 135.85346
#
# Poissons Ratio (x) = 0.02077 0.81171
# Poissons Ratio (y) = 0.00913 0.51392
# Poissons Ratio (z) = 0.19492 0.28091
#
# Static dielectric constant tensor:
#      x y z
#    x 1.912700 0.000000 0.073830 
#    y 0.000000 1.910240 0.000000 
#    z 0.073830 0.000000 1.962960 
# 
# From -- ./inp_files/18103.got.cif
#   From: 2010.05.17/outbox.cif.g08.bks.cpg/sg15_10_cif.got.tgz:18103.got - 2010.06.03 18:47:42.
