data_PCOD9256869
_publ_section_title
;
Structure prediction by ZEFSAII (Michael W. Deem and Ramdas Pophale) SiO2 
 PCOD9256869
Probable space group: C 2/C
;
_chemical_formula_sum "Si O2"
_cell_formula_units_Z 60
_cell_length_a 19.970297
_cell_length_b 27.942877
_cell_length_c 5.360582
_cell_angle_alpha 90.000000
_cell_angle_beta 104.241951
_cell_angle_gamma 90.000000
_cell_volume 2899.414673
_symmetry_space_group_name_H-M "C 2/C"
_symmetry_group_IT_number 15
_symmetry_cell_setting 'monoclinic'
loop_
_space_group_symop_operation_xyz
x,y,z
-x,y,1/2-z
-x,-y,-z
x,-y,1/2+z
1/2+x,1/2+y,z
1/2-x,1/2+y,1/2-z
1/2-x,1/2-y,-z
1/2+x,1/2-y,1/2+z
loop_
_atom_site_type_symbol
_atom_site_label
_atom_site_fract_x
_atom_site_fract_y
_atom_site_fract_z
Si Si1 0.729918 0.301942 0.248040
Si Si2 0.282484 0.637310 0.270317
Si Si3 0.123450 0.626304 0.139508
Si Si4 0.000000 0.207411 0.750000
Si Si5 0.069592 0.136464 0.200826
Si Si6 0.921601 0.520242 0.421333
Si Si7 0.386070 0.812094 0.380813
Si Si8 0.100148 0.764723 0.967997
O O1 0.706153 0.327569 0.481849
O O2 0.809527 0.290853 0.359187
O O3 0.679294 0.258978 0.123510
O O4 0.728661 0.336263 0.004311
O O5 0.206184 0.615090 0.250437
O O6 0.357570 0.611252 0.302257
O O7 0.081662 0.577034 0.098261
O O8 0.099046 0.658157 0.354582
O O9 0.114253 0.652572 0.863549
O O10 0.051651 0.242424 0.654905
O O11 0.955531 0.169810 0.547748
O O12 0.089780 0.178654 0.412819
O O13 0.000000 0.111768 0.250000
O O14 0.887828 0.502610 0.646086
O O15 0.000000 0.500000 0.500000
O O16 0.421944 0.766099 0.287972
#
# Coordination Sequence:
#
# PCOD9256869 Si02
#       8
#     8   8   8   4   8   8   8   8
#     4   9  17  30  47  70  97 140 187 221 272 323
#     4   9  17  31  49  75 105 135 172 239 276 302
#     4  10  21  37  56  85 109 129 168 226 287 333
#     4  10  18  30  46  58  94 142 208 232 252 304
#     4   9  18  30  46  66  99 149 201 225 256 305
#     4  10  21  40  69  88 107 135 171 204 266 358
#     4  10  21  32  52  75 111 137 170 232 283 316
#     4  10  19  30  46  66  98 146 197 229 266 313
#
# _framework density 20.693832
#
# number of rings (size 3 to 8) (size 9 to 14) (size 15 to 20)
#    0.000    2.400    1.333    1.200    1.867    0.000 
#    0.000    6.667    8.800    0.000    0.000    0.000 
#    0.000    1.067    0.000    0.000    0.000    0.000 
#
# Total GULP energy -167024.058571 kJ/mol
# GULP energy per Si atom -5567.468619 kJ/mol
# Density = 2.064673 g / cm^3
# Si number density = 20.693832 Si / 1000 Ang^3
#
#
#
# Elastic Constant Matrix: (Units=GPa)
#
#
# Indices 1 2 3 4 5 6 
#
# 1 65.5387 18.3913 -1.2315 0.0000 -5.9824 0.0000
# 2 18.3913 44.5706 16.4037 0.0000 7.2191 0.0000
# 3 -1.2315 16.4037 125.1732 0.0000 -17.8618 0.0000
# 4 0.0000 0.0000 0.0000 21.3855 0.0000 1.4751
# 5 -5.9824 7.2191 -17.8618 0.0000 22.3575 0.0000
# 6 0.0000 0.0000 0.0000 1.4751 0.0000 15.1361
#
#
#
# Elastic Compliance Matrix: (Units=1/GPa)
#
#
# Indices 1 2 3 4 5 6 
#
# 1 0.019471 -0.011085 0.003271 0.000000 0.011403 0.000000
# 2 -0.011085 0.032761 -0.007150 0.000000 -0.019257 0.000000
# 3 0.003271 -0.007150 0.010624 0.000000 0.011672 0.000000
# 4 0.000000 0.000000 0.000000 0.047077 0.000000 -0.004588
# 5 0.011403 -0.019257 0.011672 0.000000 0.063321 0.000000
# 6 0.000000 0.000000 0.000000 -0.004588 0.000000 0.066514
#
#
# Mechanical properties :
#
#
# Convention : Reuss Voigt Hill
#
# Bulk Modulus (GPa) = 30.36969 33.60106 31.98538
# Shear Modulus (GPa) = 17.81431 25.22377 21.51904
#
# Velocity S-wave (km/s) = 2.93721 3.49507 3.22821
# Velocity P-wave (km/s) = 5.11962 5.70612 5.42081
#
# Compressibility (1/GPa) = 0.03292756
#
# Stress axis : x y z
#
# Youngs Moduli (GPa) = 51.35768 30.52392 94.12970
#
# Poissons Ratio (x) = 0.33837 -0.30794
# Poissons Ratio (y) = 0.56933 0.67305
# Poissons Ratio (z) = -0.16802 0.21825
#
# Static dielectric constant tensor:
#      x y z
#    x 1.910710 0.000000 0.000560 
#    y 0.000000 1.714770 0.000000 
#    z 0.000560 0.000000 1.858120 
# 
# From -- ./inp_files/14292.got.cif
#   From: 2010.05.17/outbox.cif.g08.bks.cpg/sg15_8_cif.got.tgz:14292.got - 2010.06.03 18:47:42.
