data_PCOD9256452
_publ_section_title
;
Structure prediction by ZEFSAII (Michael W. Deem and Ramdas Pophale) SiO2 
 PCOD9256452
Probable space group: C 2/C
;
_chemical_formula_sum "Si O2"
_cell_formula_units_Z 44
_cell_length_a 9.157983
_cell_length_b 13.470305
_cell_length_c 13.582112
_cell_angle_alpha 90.000000
_cell_angle_beta 81.287964
_cell_angle_gamma 90.000000
_cell_volume 1656.168756
_symmetry_space_group_name_H-M "C 2/C"
_symmetry_group_IT_number 15
_symmetry_cell_setting 'monoclinic'
loop_
_space_group_symop_operation_xyz
x,y,z
-x,y,1/2-z
-x,-y,-z
x,-y,1/2+z
1/2+x,1/2+y,z
1/2-x,1/2+y,1/2-z
1/2-x,1/2-y,-z
1/2+x,1/2-y,1/2+z
loop_
_atom_site_type_symbol
_atom_site_label
_atom_site_fract_x
_atom_site_fract_y
_atom_site_fract_z
Si Si1 0.000000 0.356447 0.250000
Si Si2 0.202306 0.095012 0.308480
Si Si3 0.260580 0.555654 0.848555
Si Si4 0.120105 0.256717 0.595411
Si Si5 0.828908 0.961476 0.023678
Si Si6 0.434926 0.727665 0.431652
O O1 0.887398 0.413104 0.191001
O O2 0.903651 0.293631 0.339282
O O3 0.342891 0.160732 0.326357
O O4 0.070984 0.161644 0.368161
O O5 0.181027 0.048697 0.202993
O O6 0.212772 0.989715 0.363451
O O7 0.372027 0.649752 0.848734
O O8 0.229840 0.529194 0.964524
O O9 0.250000 0.250000 0.500000
O O10 0.989087 0.273883 0.530833
O O11 0.820213 0.851424 0.985586
O O12 0.000000 0.000000 0.000000
#
# Coordination Sequence:
#
# PCOD9256452 Si02
#       6
#     4   8   8   8   8   8
#     4  12  22  36  60  86 116 172 202 234 300 376
#     4  10  20  36  62  91 118 153 199 254 297 348
#     4  12  22  36  60  91 122 156 205 244 295 361
#     4  10  17  39  60  82 120 159 196 241 295 357
#     4  10  19  36  60  92 118 146 196 256 301 340
#     4  10  19  38  66  89 114 158 202 246 300 362
#
# _framework density 26.567340000000002
#
# number of rings (size 3 to 8) (size 9 to 14) (size 15 to 20)
#    0.000    1.455    9.091    1.091    0.000    2.182 
#    0.000    4.545    4.000    0.000    0.000    0.000 
#    0.000    0.000    0.000    0.000    0.000    0.000 
#
# Total GULP energy -122715.251566 kJ/mol
# GULP energy per Si atom -5577.965980 kJ/mol
# Density = 2.650687 g / cm^3
# Si number density = 26.567340 Si / 1000 Ang^3
#
#
#
# Elastic Constant Matrix: (Units=GPa)
#
#
# Indices 1 2 3 4 5 6 
#
# 1 51.9363 19.2764 29.7355 0.0000 22.7570 0.0000
# 2 19.2764 82.3012 7.9589 0.0000 10.3691 0.0000
# 3 29.7355 7.9589 97.3363 0.0000 23.2547 0.0000
# 4 0.0000 0.0000 0.0000 60.5018 0.0000 23.4986
# 5 22.7570 10.3691 23.2547 0.0000 46.9533 0.0000
# 6 0.0000 0.0000 0.0000 23.4986 0.0000 30.0789
#
#
#
# Elastic Compliance Matrix: (Units=1/GPa)
#
#
# Indices 1 2 3 4 5 6 
#
# 1 0.028898 -0.004933 -0.006055 0.000000 -0.009917 0.000000
# 2 -0.004933 0.013355 0.000622 0.000000 -0.000866 0.000000
# 3 -0.006055 0.000622 0.012935 0.000000 -0.003609 0.000000
# 4 0.000000 0.000000 0.000000 0.023728 0.000000 -0.018537
# 5 -0.009917 -0.000866 -0.003609 0.000000 0.028083 0.000000
# 6 0.000000 0.000000 0.000000 -0.018537 0.000000 0.047728
#
#
# Mechanical properties :
#
#
# Convention : Reuss Voigt Hill
#
# Bulk Modulus (GPa) = 29.02372 38.39059 33.70716
# Shear Modulus (GPa) = 26.74588 39.14701 32.94644
#
# Velocity S-wave (km/s) = 3.17633 3.84279 3.52534
# Velocity P-wave (km/s) = 4.93967 5.84560 5.41163
#
# Compressibility (1/GPa) = 0.03445458
#
# Stress axis : x y z
#
# Youngs Moduli (GPa) = 34.60466 74.87860 77.31064
#
# Poissons Ratio (x) = 0.36940 0.46814
# Poissons Ratio (y) = 0.17072 -0.04809
# Poissons Ratio (z) = 0.20954 -0.04658
#
# Static dielectric constant tensor:
#      x y z
#    x 2.197610 0.000000 -0.037730 
#    y 0.000000 2.188520 0.000000 
#    z -0.037730 0.000000 1.993020 
# 
# From -- ./inp_files/143044.got.cif
#   From: 2010.05.17/outbox.cif.g08.bks.cpg/sg15_72_cif.got.tgz:143044.got - 2010.06.03 18:47:42.
