data_PCOD9256131
_publ_section_title
;
Structure prediction by ZEFSAII (Michael W. Deem and Ramdas Pophale) SiO2 
 PCOD9256131
Probable space group: C 2/C
;
_chemical_formula_sum "Si O2"
_cell_formula_units_Z 60
_cell_length_a 18.188934
_cell_length_b 18.411531
_cell_length_c 15.319818
_cell_angle_alpha 90.000000
_cell_angle_beta 40.442504
_cell_angle_gamma 90.000000
_cell_volume 3328.008166
_symmetry_space_group_name_H-M "C 2/C"
_symmetry_group_IT_number 15
_symmetry_cell_setting 'monoclinic'
loop_
_space_group_symop_operation_xyz
x,y,z
-x,y,1/2-z
-x,-y,-z
x,-y,1/2+z
1/2+x,1/2+y,z
1/2-x,1/2+y,1/2-z
1/2-x,1/2-y,-z
1/2+x,1/2-y,1/2+z
loop_
_atom_site_type_symbol
_atom_site_label
_atom_site_fract_x
_atom_site_fract_y
_atom_site_fract_z
Si Si1 0.167695 0.272331 0.709466
Si Si2 0.150802 0.111097 0.468028
Si Si3 0.058818 0.154545 0.360037
Si Si4 0.258025 0.216612 0.087632
Si Si5 0.277946 0.158183 0.734843
Si Si6 0.500000 0.679801 0.750000
Si Si7 0.469994 0.187740 0.993375
Si Si8 0.105560 0.960275 0.455552
O O1 0.242657 0.338465 0.606982
O O2 0.245795 0.209104 0.681732
O O3 0.095176 0.232299 0.702649
O O4 0.087254 0.303213 0.859859
O O5 0.118139 0.132432 0.397964
O O6 0.051091 0.132285 0.624898
O O7 0.167908 0.024829 0.449665
O O8 0.151856 0.165151 0.202842
O O9 0.006892 0.232180 0.429356
O O10 0.961333 0.097920 0.425935
O O11 0.246344 0.285833 0.163572
O O12 0.369799 0.171740 0.015096
O O13 0.250000 0.250000 0.000000
O O14 0.412995 0.142567 0.611833
O O15 0.194285 0.088790 0.819640
O O16 0.000000 0.000000 0.500000
#
# Coordination Sequence:
#
# PCOD9256131 Si02
#       8
#     8   8   8   8   8   4   8   8
#     4  11  18  36  59  87 115 150 198 244 293 338
#     4  11  21  35  55  85 115 148 192 249 288 348
#     4  10  17  36  58  82 114 150 181 242 292 348
#     4  10  20  33  59  91 113 145 200 239 287 348
#     4  10  19  36  60  83 118 155 188 243 294 353
#     4  12  22  34  58  88 112 152 208 248 286 338
#     4  10  17  34  61  82 115 144 197 236 287 342
#     4  10  20  36  58  83 118 155 196 234 306 354
#
# _framework density 18.028803
#
# number of rings (size 3 to 8) (size 9 to 14) (size 15 to 20)
#    0.000    1.600    8.000    1.200    0.000    2.133 
#    2.400    0.667    0.000    1.600    0.000    0.000 
#    0.000    0.000    0.000    0.000    0.000    0.000 
#
# Total GULP energy -167089.982332 kJ/mol
# GULP energy per Si atom -5569.666078 kJ/mol
# Density = 1.798777 g / cm^3
# Si number density = 18.028803 Si / 1000 Ang^3
#
#
#
# Elastic Constant Matrix: (Units=GPa)
#
#
# Indices 1 2 3 4 5 6 
#
# 1 33.3673 11.0187 27.1129 0.0001 2.4475 -0.0001
# 2 11.0187 91.9163 33.1817 0.0000 -13.4448 0.0000
# 3 27.1129 33.1817 99.3136 0.0000 -20.0825 0.0000
# 4 0.0001 0.0000 0.0000 -53.5777 0.0000 -11.8632
# 5 2.4475 -13.4448 -20.0825 0.0000 29.4754 0.0000
# 6 -0.0001 0.0000 0.0000 -11.8632 0.0000 12.0493
#
#
#
# Elastic Compliance Matrix: (Units=1/GPa)
#
#
# Indices 1 2 3 4 5 6 
#
# 1 0.042951 -0.002207 -0.013817 0.000000 -0.013987 0.000000
# 2 -0.002207 0.012764 -0.002839 0.000000 0.004071 0.000000
# 3 -0.013817 -0.002839 0.017118 0.000000 0.011515 0.000000
# 4 0.000000 0.000000 0.000000 -0.015324 0.000000 -0.015087
# 5 -0.013987 0.004071 0.011515 0.000000 0.044791 0.000000
# 6 0.000000 0.000000 0.000000 -0.015087 0.000000 0.068138
#
#
# Mechanical properties :
#
#
# Convention : Reuss Voigt Hill
#
# Bulk Modulus (GPa) = 28.48317 40.80265 34.64291
# Shear Modulus (GPa) = 22.74104 7.80832 15.27468
#
# Velocity S-wave (km/s) = 3.55543 2.08337 2.91389
# Velocity P-wave (km/s) = 5.71733 5.33557 5.52974
#
# Compressibility (1/GPa) = 0.03510845
#
# Stress axis : x y z
#
# Youngs Moduli (GPa) = 23.28232 78.34288 58.41734
#
# Poissons Ratio (x) = 0.17290 0.80714
# Poissons Ratio (y) = 0.05138 0.16584
# Poissons Ratio (z) = 0.32168 0.22241
#
# Static dielectric constant tensor:
#      x y z
#    x 1.600720 0.000000 0.024740 
#    y 0.000000 1.640840 0.000000 
#    z 0.024740 0.000000 1.630100 
# 
# From -- ./inp_files/163531.got.cif
#   From: 2010.05.17/outbox.cif.g08.bks.cpg/sg15_82_cif.got.tgz:163531.got - 2010.06.03 18:47:42.
