data_PCOD9256438
_publ_section_title
;
Structure prediction by ZEFSAII (Michael W. Deem and Ramdas Pophale) SiO2 
 PCOD9256438
Probable space group: C 2/C
;
_chemical_formula_sum "Si O2"
_cell_formula_units_Z 56
_cell_length_a 19.336323
_cell_length_b 13.577971
_cell_length_c 19.638111
_cell_angle_alpha 90.000000
_cell_angle_beta 26.501291
_cell_angle_gamma 90.000000
_cell_volume 2300.676429
_symmetry_space_group_name_H-M "C 2/C"
_symmetry_group_IT_number 15
_symmetry_cell_setting 'monoclinic'
loop_
_space_group_symop_operation_xyz
x,y,z
-x,y,1/2-z
-x,-y,-z
x,-y,1/2+z
1/2+x,1/2+y,z
1/2-x,1/2+y,1/2-z
1/2-x,1/2-y,-z
1/2+x,1/2-y,1/2+z
loop_
_atom_site_type_symbol
_atom_site_label
_atom_site_fract_x
_atom_site_fract_y
_atom_site_fract_z
Si Si1 0.500000 0.718094 0.750000
Si Si2 0.363568 0.446578 0.441755
Si Si3 0.500000 0.050693 0.750000
Si Si4 0.400875 0.439455 0.144465
Si Si5 0.825761 0.610843 0.159271
Si Si6 0.057075 0.395739 0.794560
Si Si7 0.289404 0.342894 0.011319
Si Si8 0.990113 0.217073 0.462972
O O1 0.635369 0.641802 0.612660
O O2 0.522734 0.789178 0.793833
O O3 0.512058 0.438211 0.360332
O O4 0.222096 0.428577 0.617686
O O5 0.353346 0.556615 0.421183
O O6 0.380632 0.121116 0.817161
O O7 0.444339 0.975562 0.858402
O O8 0.243660 0.501858 0.292768
O O9 0.409396 0.332948 0.100979
O O10 0.500000 0.500000 0.000000
O O11 0.919345 0.604806 0.147032
O O12 0.944990 0.667657 0.005003
O O13 0.668001 0.679222 0.303372
O O14 0.402479 0.322118 0.973541
O O15 0.250000 0.250000 0.000000
#
# Coordination Sequence:
#
# PCOD9256438 Si02
#       8
#     4   8   4   8   8   8   8   8
#     4  11  24  33  62  96 128 155 204 273 308 392
#     4  11  20  40  60  88 122 166 208 253 319 376
#     4   9  22  39  62  86 120 169 206 249 312 388
#     4  10  17  38  65  83 115 165 210 251 309 377
#     4  11  22  40  68  93 122 166 215 264 310 381
#     4  10  20  40  62  91 124 162 206 255 329 379
#     4  11  24  40  62  87 125 169 210 261 312 378
#     4  11  23  41  66  95 123 165 218 262 318 374
#
# _framework density 24.340667
#
# number of rings (size 3 to 8) (size 9 to 14) (size 15 to 20)
#    0.000    1.429    5.714    2.143    2.000    1.714 
#    0.000    0.714    0.000    0.000    0.000    0.000 
#    0.000    0.000    0.000    0.000    0.000    0.000 
#
# Total GULP energy -156276.337167 kJ/mol
# GULP energy per Si atom -5581.297756 kJ/mol
# Density = 2.428527 g / cm^3
# Si number density = 24.340667 Si / 1000 Ang^3
#
#
#
# Elastic Constant Matrix: (Units=GPa)
#
#
# Indices 1 2 3 4 5 6 
#
# 1 108.8163 35.3822 21.7067 0.0000 -35.7378 -0.0001
# 2 35.3822 127.1687 17.5809 -0.0023 -8.1691 -0.0002
# 3 21.7067 17.5809 41.4928 -0.0036 -2.4960 -0.0005
# 4 0.0000 -0.0023 -0.0036 33.9192 0.0006 -3.4227
# 5 -35.7378 -8.1691 -2.4960 0.0006 21.0992 0.0003
# 6 -0.0001 -0.0002 -0.0005 -3.4227 0.0003 22.7725
#
#
#
# Elastic Compliance Matrix: (Units=1/GPa)
#
#
# Indices 1 2 3 4 5 6 
#
# 1 0.025591 -0.003162 -0.009582 -0.000002 0.040988 -0.000001
# 2 -0.003162 0.008916 -0.002254 0.000000 -0.002171 0.000000
# 3 -0.009582 -0.002254 0.029248 0.000003 -0.013643 0.000001
# 4 -0.000002 0.000000 0.000003 0.029936 -0.000004 0.004499
# 5 0.040988 -0.002171 -0.013643 -0.000004 0.114366 -0.000002
# 6 -0.000001 0.000000 0.000001 0.004499 -0.000002 0.044589
#
#
# Mechanical properties :
#
#
# Convention : Reuss Voigt Hill
#
# Bulk Modulus (GPa) = 29.62313 47.42414 38.52364
# Shear Modulus (GPa) = 17.01295 29.07872 23.04583
#
# Velocity S-wave (km/s) = 2.64664 3.46013 3.08036
# Velocity P-wave (km/s) = 4.64071 5.95727 5.33973
#
# Compressibility (1/GPa) = 0.03375740
#
# Stress axis : x y z
#
# Youngs Moduli (GPa) = 39.07637 112.16335 34.19087
#
# Poissons Ratio (x) = 0.35472 0.32762
# Poissons Ratio (y) = 0.12358 0.07706
# Poissons Ratio (z) = 0.37443 0.25279
#
# Static dielectric constant tensor:
#      x y z
#    x 1.926500 0.000000 0.010510 
#    y 0.000000 2.018120 0.000000 
#    z 0.010510 0.000000 2.100540 
# 
# From -- ./inp_files/279989.got.cif
#   From: 2010.05.17/outbox.cif.g08.bks.cpg/sg15_140_cif.got.tgz:279989.got - 2010.06.03 18:47:42.
