data_PCOD9256065
_publ_section_title
;
Structure prediction by ZEFSAII (Michael W. Deem and Ramdas Pophale) SiO2 
 PCOD9256065
Probable space group: C 2/C
;
_chemical_formula_sum "Si O2"
_cell_formula_units_Z 44
_cell_length_a 7.649769
_cell_length_b 17.370053
_cell_length_c 19.466350
_cell_angle_alpha 90.000000
_cell_angle_beta 137.958847
_cell_angle_gamma 90.000000
_cell_volume 1732.172245
_symmetry_space_group_name_H-M "C 2/C"
_symmetry_group_IT_number 15
_symmetry_cell_setting 'monoclinic'
loop_
_space_group_symop_operation_xyz
x,y,z
-x,y,1/2-z
-x,-y,-z
x,-y,1/2+z
1/2+x,1/2+y,z
1/2-x,1/2+y,1/2-z
1/2-x,1/2-y,-z
1/2+x,1/2-y,1/2+z
loop_
_atom_site_type_symbol
_atom_site_label
_atom_site_fract_x
_atom_site_fract_y
_atom_site_fract_z
Si Si1 0.973977 0.893250 0.406817
Si Si2 0.697497 0.543159 0.415599
Si Si3 0.500000 0.985539 0.250000
Si Si4 0.156182 0.415467 0.693699
Si Si5 0.362110 0.829284 0.062936
Si Si6 0.266443 0.738099 0.780134
O O1 0.842982 0.868126 0.441417
O O2 0.005397 0.812921 0.378013
O O3 0.725976 0.929052 0.294185
O O4 0.174548 0.961937 0.449506
O O5 0.786919 0.545288 0.362271
O O6 0.403349 0.574153 0.317281
O O7 0.865898 0.605601 0.505808
O O8 0.571666 0.038718 0.334827
O O9 0.125803 0.324551 0.685018
O O10 0.638098 0.800728 0.175388
O O11 0.250000 0.750000 0.000000
O O12 0.000000 0.740717 0.750000
#
# Coordination Sequence:
#
# PCOD9256065 Si02
#       6
#     8   8   4   8   8   8
#     4  10  20  35  57  83 114 152 192 238 280 341
#     4  10  19  33  57  84 113 143 194 237 287 331
#     4  10  20  36  58  80 112 146 188 238 288 334
#     4  10  19  36  57  81 110 150 190 234 287 343
#     4  11  18  31  56  90 114 151 191 237 275 342
#     4  10  17  34  56  85 111 151 192 229 280 344
#
# _framework density 25.401631999999999
#
# number of rings (size 3 to 8) (size 9 to 14) (size 15 to 20)
#    0.000    1.818    6.364    1.636    0.000    0.000 
#    0.000    4.545    0.000    1.091    0.000    0.000 
#    0.000    0.000    0.000    0.000    0.000    0.000 
#
# Total GULP energy -122608.966199 kJ/mol
# GULP energy per Si atom -5573.134827 kJ/mol
# Density = 2.534382 g / cm^3
# Si number density = 25.401632 Si / 1000 Ang^3
#
#
#
# Elastic Constant Matrix: (Units=GPa)
#
#
# Indices 1 2 3 4 5 6 
#
# 1 59.3124 39.2886 20.1184 0.0001 -29.4420 -0.0001
# 2 39.2886 199.8590 17.6681 -0.0001 -20.4004 -0.0001
# 3 20.1184 17.6681 60.0335 0.0003 -16.8437 0.0006
# 4 0.0001 -0.0001 0.0003 27.8787 0.0003 -22.2776
# 5 -29.4420 -20.4004 -16.8437 0.0003 46.0677 0.0003
# 6 -0.0001 -0.0001 0.0006 -22.2776 0.0003 18.2955
#
#
#
# Elastic Compliance Matrix: (Units=1/GPa)
#
#
# Indices 1 2 3 4 5 6 
#
# 1 0.028011 -0.003630 -0.004175 -0.000012 0.014768 -0.000014
# 2 -0.003630 0.005764 -0.000462 0.000002 0.000064 0.000003
# 3 -0.004175 -0.000462 0.019374 -0.000029 0.004211 -0.000036
# 4 -0.000012 0.000002 -0.000029 1.329392 -0.000037 1.618741
# 5 0.014768 0.000064 0.004211 -0.000037 0.032713 -0.000045
# 6 -0.000014 0.000003 -0.000036 1.618741 -0.000045 2.025728
#
#
# Mechanical properties :
#
#
# Convention : Reuss Voigt Hill
#
# Bulk Modulus (GPa) = 27.31130 52.59501 39.95316
# Shear Modulus (GPa) = 1.44104 34.59038 18.01571
#
# Velocity S-wave (km/s) = 0.75401 3.69418 2.66603
# Velocity P-wave (km/s) = 3.39605 6.24069 5.02391
#
# Compressibility (1/GPa) = 0.03661488
#
# Stress axis : x y z
#
# Youngs Moduli (GPa) = 35.69990 173.47612 51.61561
#
# Poissons Ratio (x) = 0.62971 0.21551
# Poissons Ratio (y) = 0.12959 0.02385
# Poissons Ratio (z) = 0.14906 0.08017
#
# Static dielectric constant tensor:
#      x y z
#    x 2.161050 0.000000 0.001320 
#    y 0.000000 2.036210 0.000000 
#    z 0.001320 0.000000 2.033460 
# 
# From -- ./inp_files/134293.got.cif
#   From: 2010.05.17/outbox.cif.g08.bks.cpg/sg15_68_cif.got.tgz:134293.got - 2010.06.03 18:47:42.
