data_PCOD9256335
_publ_section_title
;
Structure prediction by ZEFSAII (Michael W. Deem and Ramdas Pophale) SiO2 
 PCOD9256335
Probable space group: C 2/C
;
_chemical_formula_sum "Si O2"
_cell_formula_units_Z 56
_cell_length_a 11.372077
_cell_length_b 15.781036
_cell_length_c 15.769772
_cell_angle_alpha 90.000000
_cell_angle_beta 88.691696
_cell_angle_gamma 90.000000
_cell_volume 2829.355286
_symmetry_space_group_name_H-M "C 2/C"
_symmetry_group_IT_number 15
_symmetry_cell_setting 'monoclinic'
loop_
_space_group_symop_operation_xyz
x,y,z
-x,y,1/2-z
-x,-y,-z
x,-y,1/2+z
1/2+x,1/2+y,z
1/2-x,1/2+y,1/2-z
1/2-x,1/2-y,-z
1/2+x,1/2-y,1/2+z
loop_
_atom_site_type_symbol
_atom_site_label
_atom_site_fract_x
_atom_site_fract_y
_atom_site_fract_z
Si Si1 0.818041 0.915386 0.245212
Si Si2 0.009697 0.478468 0.597515
Si Si3 0.574104 0.847774 0.322972
Si Si4 0.250819 0.092811 0.326077
Si Si5 0.596470 0.843303 0.809226
Si Si6 0.008075 0.162302 0.872218
Si Si7 0.131162 0.788601 0.959626
O O1 0.699538 0.872148 0.280464
O O2 0.869659 0.883608 0.153673
O O3 0.912457 0.886618 0.315344
O O4 0.796984 0.014509 0.228484
O O5 0.137190 0.439763 0.620177
O O6 0.000000 0.500000 0.500000
O O7 0.987018 0.563903 0.650210
O O8 0.904234 0.410779 0.616297
O O9 0.500000 0.804533 0.250000
O O10 0.581002 0.788453 0.404782
O O11 0.293330 0.161612 0.254625
O O12 0.164766 0.137506 0.393181
O O13 0.500000 0.887161 0.750000
O O14 0.537393 0.756978 0.839279
O O15 0.954790 0.175228 0.966211
O O16 0.250000 0.750000 0.000000
#
# Coordination Sequence:
#
# PCOD9256335 Si02
#       7
#     8   8   8   8   8   8   8
#     4  11  22  42  66  96 135 173 219 269 347 395
#     4  11  21  34  62  97 128 161 218 282 329 377
#     4  12  22  43  65  98 138 174 215 285 345 386
#     4  11  23  39  66  96 129 173 220 275 328 399
#     4  10  17  36  60  93 114 161 224 262 308 384
#     4  11  23  41  69  94 130 180 223 273 322 404
#     4  12  24  41  70  99 131 176 236 273 320 403
#
# _framework density 19.792494000000001
#
# number of rings (size 3 to 8) (size 9 to 14) (size 15 to 20)
#    0.000    0.857    5.714    4.714    0.000    0.571 
#    2.571    0.714    3.143    0.000    0.000    0.000 
#    0.000    0.000    0.000    0.000    0.000    0.000 
#
# Total GULP energy -156052.769572 kJ/mol
# GULP energy per Si atom -5573.313199 kJ/mol
# Density = 1.974745 g / cm^3
# Si number density = 19.792494 Si / 1000 Ang^3
#
#
#
# Elastic Constant Matrix: (Units=GPa)
#
#
# Indices 1 2 3 4 5 6 
#
# 1 37.6397 18.1210 35.1301 0.0000 -26.7090 0.0000
# 2 18.1210 84.3914 41.0364 0.0000 -7.5558 0.0000
# 3 35.1301 41.0364 118.0992 0.0000 -34.3053 0.0000
# 4 0.0000 0.0000 0.0000 33.7835 0.0000 -3.4725
# 5 -26.7090 -7.5558 -34.3053 0.0000 46.7675 0.0000
# 6 0.0000 0.0000 0.0000 -3.4725 0.0000 27.5504
#
#
#
# Elastic Compliance Matrix: (Units=1/GPa)
#
#
# Indices 1 2 3 4 5 6 
#
# 1 0.052915 -0.005983 -0.006562 0.000000 0.024440 0.000000
# 2 -0.005983 0.015041 -0.004744 0.000000 -0.004467 0.000000
# 3 -0.006562 -0.004744 0.013669 0.000000 0.005513 0.000000
# 4 0.000000 0.000000 0.000000 0.029989 0.000000 0.003780
# 5 0.024440 -0.004467 0.005513 0.000000 0.038662 0.000000
# 6 0.000000 0.000000 0.000000 0.003780 0.000000 0.036774
#
#
# Mechanical properties :
#
#
# Convention : Reuss Voigt Hill
#
# Bulk Modulus (GPa) = 21.25542 47.63393 34.44468
# Shear Modulus (GPa) = 21.06936 31.34314 26.20625
#
# Velocity S-wave (km/s) = 3.26623 3.98375 3.64270
# Velocity P-wave (km/s) = 4.99868 6.72899 5.92731
#
# Compressibility (1/GPa) = 0.04704682
#
# Stress axis : x y z
#
# Youngs Moduli (GPa) = 18.89814 66.48355 73.15702
#
# Poissons Ratio (x) = 0.39779 0.48006
# Poissons Ratio (y) = 0.11307 0.34707
# Poissons Ratio (z) = 0.12401 0.31541
#
# Static dielectric constant tensor:
#      x y z
#    x 1.763720 0.000000 -0.007360 
#    y 0.000000 1.738050 0.000000 
#    z -0.007360 0.000000 1.744860 
# 
# From -- ./inp_files/144215.got.cif
#   From: 2010.05.17/outbox.cif.g08.bks.cpg/sg15_73_cif.got.tgz:144215.got - 2010.06.03 18:47:42.
