data_PCOD9256375
_publ_section_title
;
Structure prediction by ZEFSAII (Michael W. Deem and Ramdas Pophale) SiO2 
 PCOD9256375
Probable space group: C 2/C
;
_chemical_formula_sum "Si O2"
_cell_formula_units_Z 56
_cell_length_a 8.453491
_cell_length_b 16.205800
_cell_length_c 18.490416
_cell_angle_alpha 90.000000
_cell_angle_beta 61.398446
_cell_angle_gamma 90.000000
_cell_volume 2223.990480
_symmetry_space_group_name_H-M "C 2/C"
_symmetry_group_IT_number 15
_symmetry_cell_setting 'monoclinic'
loop_
_space_group_symop_operation_xyz
x,y,z
-x,y,1/2-z
-x,-y,-z
x,-y,1/2+z
1/2+x,1/2+y,z
1/2-x,1/2+y,1/2-z
1/2-x,1/2-y,-z
1/2+x,1/2-y,1/2+z
loop_
_atom_site_type_symbol
_atom_site_label
_atom_site_fract_x
_atom_site_fract_y
_atom_site_fract_z
Si Si1 0.611449 0.490285 0.551138
Si Si2 0.214703 0.885808 0.708335
Si Si3 0.565248 0.052471 0.095860
Si Si4 0.652114 0.697555 0.829532
Si Si5 0.092052 0.191283 0.015836
Si Si6 0.792589 0.267244 0.906360
Si Si7 0.746152 0.972347 0.189938
O O1 0.500000 0.500000 0.500000
O O2 0.801397 0.534198 0.499827
O O3 0.619769 0.392574 0.552894
O O4 0.465126 0.526910 0.636388
O O5 0.356711 0.931096 0.622213
O O6 0.258040 0.788138 0.699190
O O7 0.000000 0.895664 0.750000
O O8 0.281315 0.942274 0.761159
O O9 0.631280 0.140195 0.112493
O O10 0.627413 0.984935 0.142744
O O11 0.610520 0.680850 0.924730
O O12 0.448974 0.708808 0.843173
O O13 0.774364 0.621079 0.776779
O O14 0.250000 0.250000 0.000000
O O15 0.904621 0.230512 0.083332
O O16 0.750000 0.250000 0.000000
#
# Coordination Sequence:
#
# PCOD9256375 Si02
#       7
#     8   8   8   8   8   8   8
#     4  10  17  36  68  97 122 159 227 265 308 391
#     4  11  27  43  59  94 138 168 212 282 337 380
#     4  10  19  40  70  88 116 173 225 257 310 402
#     4  10  22  42  65  89 126 176 215 263 330 388
#     4  11  20  34  63 106 130 157 208 275 329 383
#     4   9  17  34  59  91 129 160 199 261 322 380
#     4  11  21  43  70  95 123 181 226 264 316 413
#
# _framework density 25.179966
#
# number of rings (size 3 to 8) (size 9 to 14) (size 15 to 20)
#    0.000    1.714    5.714    1.286    2.000    1.143 
#    2.571    3.571    0.000    0.000    0.000    0.000 
#    0.000    0.000    0.000    0.000    0.000    0.000 
#
# Total GULP energy -156168.453011 kJ/mol
# GULP energy per Si atom -5577.444750 kJ/mol
# Density = 2.512265 g / cm^3
# Si number density = 25.179966 Si / 1000 Ang^3
#
#
#
# Elastic Constant Matrix: (Units=GPa)
#
#
# Indices 1 2 3 4 5 6 
#
# 1 111.2797 53.7837 49.7699 0.0000 -52.3458 0.0000
# 2 53.7837 172.5926 33.6957 0.0000 -15.4807 0.0000
# 3 49.7699 33.6957 73.3741 0.0000 -27.9597 0.0000
# 4 0.0000 0.0000 0.0000 42.9221 0.0000 -0.5370
# 5 -52.3458 -15.4807 -27.9597 0.0000 55.4154 0.0000
# 6 0.0000 0.0000 0.0000 -0.5370 0.0000 29.2506
#
#
#
# Elastic Compliance Matrix: (Units=1/GPa)
#
#
# Indices 1 2 3 4 5 6 
#
# 1 0.021149 -0.003902 -0.006631 0.000000 0.015541 0.000000
# 2 -0.003902 0.007091 -0.001559 0.000000 -0.002491 0.000000
# 3 -0.006631 -0.001559 0.020167 0.000000 0.003476 0.000000
# 4 0.000000 0.000000 0.000000 0.023303 0.000000 0.000428
# 5 0.015541 -0.002491 0.003476 0.000000 0.033784 0.000000
# 6 0.000000 0.000000 0.000000 0.000428 0.000000 0.034195
#
#
# Mechanical properties :
#
#
# Convention : Reuss Voigt Hill
#
# Bulk Modulus (GPa) = 41.28387 70.19388 55.73888
# Shear Modulus (GPa) = 29.07864 40.18409 34.63136
#
# Velocity S-wave (km/s) = 3.40197 3.99917 3.71260
# Velocity P-wave (km/s) = 5.64467 7.01868 6.36884
#
# Compressibility (1/GPa) = 0.02422253
#
# Stress axis : x y z
#
# Youngs Moduli (GPa) = 47.28430 141.02801 49.58524
#
# Poissons Ratio (x) = 0.55026 0.32881
# Poissons Ratio (y) = 0.18449 0.07731
# Poissons Ratio (z) = 0.31355 0.21988
#
# Static dielectric constant tensor:
#      x y z
#    x 2.038740 0.000000 0.051590 
#    y 0.000000 1.937540 0.000000 
#    z 0.051590 0.000000 2.199440 
# 
# From -- ./inp_files/265483.got.cif
#   From: 2010.05.17/outbox.cif.g08.bks.cpg/sg15_133_cif.got.tgz:265483.got - 2010.06.03 18:47:42.
