data_PCOD9256546
_publ_section_title
;
Structure prediction by ZEFSAII (Michael W. Deem and Ramdas Pophale) SiO2 
 PCOD9256546
Probable space group: C 2/C
;
_chemical_formula_sum "Si O2"
_cell_formula_units_Z 56
_cell_length_a 20.598616
_cell_length_b 12.459234
_cell_length_c 22.848245
_cell_angle_alpha 90.000000
_cell_angle_beta 147.452692
_cell_angle_gamma 90.000000
_cell_volume 3154.722141
_symmetry_space_group_name_H-M "C 2/C"
_symmetry_group_IT_number 15
_symmetry_cell_setting 'monoclinic'
loop_
_space_group_symop_operation_xyz
x,y,z
-x,y,1/2-z
-x,-y,-z
x,-y,1/2+z
1/2+x,1/2+y,z
1/2-x,1/2+y,1/2-z
1/2-x,1/2-y,-z
1/2+x,1/2-y,1/2+z
loop_
_atom_site_type_symbol
_atom_site_label
_atom_site_fract_x
_atom_site_fract_y
_atom_site_fract_z
Si Si1 0.858971 0.899357 0.597031
Si Si2 0.960408 0.165354 0.959581
Si Si3 0.130864 0.649286 0.862428
Si Si4 0.482612 0.104023 0.527171
Si Si5 0.198678 0.084803 0.318129
Si Si6 0.682022 0.176664 0.769106
Si Si7 0.489687 0.504731 0.394971
O O1 0.884602 0.770409 0.622777
O O2 0.719139 0.909669 0.472918
O O3 0.865795 0.936615 0.668983
O O4 0.932195 0.956951 0.601290
O O5 0.814685 0.163251 0.843068
O O6 0.998026 0.286717 0.001513
O O7 0.993585 0.092153 0.040901
O O8 0.018618 0.108281 0.947534
O O9 0.000000 0.604146 0.750000
O O10 0.807258 0.646951 0.654167
O O11 0.340891 0.098512 0.436692
O O12 0.576673 0.117343 0.652670
O O13 0.500000 0.000000 0.500000
O O14 0.154479 0.196867 0.255677
O O15 0.148301 0.000520 0.233404
#
# Coordination Sequence:
#
# PCOD9256546 Si02
#       7
#     8   8   8   8   8   8   8
#     4  10  19  30  49  80 108 139 176 219 275 325
#     4  10  22  34  54  76 108 149 177 224 261 329
#     4  10  18  27  47  75 112 143 163 221 280 329
#     4  11  22  37  55  79 109 147 187 224 271 321
#     4  10  20  32  55  81 112 139 176 229 275 320
#     4  10  18  34  50  77 112 140 181 219 275 325
#     4  11  19  36  52  79 112 139 183 212 277 333
#
# _framework density 17.751166999999999
#
# number of rings (size 3 to 8) (size 9 to 14) (size 15 to 20)
#    0.000    1.714    2.857    3.857    2.000    0.000 
#    0.000    0.000    0.000    0.857    0.000    4.000 
#    0.000    0.000    0.000    0.000    0.000    0.000 
#
# Total GULP energy -155922.005276 kJ/mol
# GULP energy per Si atom -5568.643046 kJ/mol
# Density = 1.771076 g / cm^3
# Si number density = 17.751167 Si / 1000 Ang^3
#
#
#
# Elastic Constant Matrix: (Units=GPa)
#
#
# Indices 1 2 3 4 5 6 
#
# 1 94.3019 48.4721 28.1022 0.0000 -18.7224 0.0000
# 2 48.4721 68.2858 14.1274 -0.0002 -15.4860 -0.0001
# 3 28.1022 14.1274 105.5636 -0.0003 -8.8498 -0.0001
# 4 0.0000 -0.0002 -0.0003 11.0494 -0.0001 -3.3563
# 5 -18.7224 -15.4860 -8.8498 -0.0001 22.5522 0.0000
# 6 0.0000 -0.0001 -0.0001 -3.3563 0.0000 24.5890
#
#
#
# Elastic Compliance Matrix: (Units=1/GPa)
#
#
# Indices 1 2 3 4 5 6 
#
# 1 0.018420 -0.010977 -0.002879 0.000000 0.006624 0.000000
# 2 -0.010977 0.024080 0.000333 0.000001 0.007553 0.000000
# 3 -0.002879 0.000333 0.010354 0.000000 0.001902 0.000000
# 4 0.000000 0.000001 0.000000 0.094417 0.000001 0.012888
# 5 0.006624 0.007553 0.001902 0.000001 0.055773 0.000000
# 6 0.000000 0.000000 0.000000 0.012888 0.000000 0.042428
#
#
# Mechanical properties :
#
#
# Convention : Reuss Voigt Hill
#
# Bulk Modulus (GPa) = 38.74867 49.95054 44.34960
# Shear Modulus (GPa) = 17.78586 23.46808 20.62697
#
# Velocity S-wave (km/s) = 3.16880 3.63996 3.41252
# Velocity P-wave (km/s) = 5.93840 6.77245 6.36909
#
# Compressibility (1/GPa) = 0.02580734
#
# Stress axis : x y z
#
# Youngs Moduli (GPa) = 54.28953 41.52755 96.57820
#
# Poissons Ratio (x) = 0.45586 0.27806
# Poissons Ratio (y) = 0.59595 -0.03214
# Poissons Ratio (z) = 0.15631 -0.01382
#
# Static dielectric constant tensor:
#      x y z
#    x 1.642640 0.000000 0.031600 
#    y 0.000000 1.598260 0.000000 
#    z 0.031600 0.000000 1.668590 
# 
# From -- ./inp_files/280010.got.cif
#   From: 2010.05.17/outbox.cif.g08.bks.cpg/sg15_141_cif.got.tgz:280010.got - 2010.06.03 18:47:42.
