data_PCOD9256420
_publ_section_title
;
Structure prediction by ZEFSAII (Michael W. Deem and Ramdas Pophale) SiO2 
 PCOD9256420
Probable space group: C 2/C
;
_chemical_formula_sum "Si O2"
_cell_formula_units_Z 56
_cell_length_a 21.534459
_cell_length_b 23.555751
_cell_length_c 5.439673
_cell_angle_alpha 90.000000
_cell_angle_beta 91.265485
_cell_angle_gamma 90.000000
_cell_volume 2758.657437
_symmetry_space_group_name_H-M "C 2/C"
_symmetry_group_IT_number 15
_symmetry_cell_setting 'monoclinic'
loop_
_space_group_symop_operation_xyz
x,y,z
-x,y,1/2-z
-x,-y,-z
x,-y,1/2+z
1/2+x,1/2+y,z
1/2-x,1/2+y,1/2-z
1/2-x,1/2-y,-z
1/2+x,1/2-y,1/2+z
loop_
_atom_site_type_symbol
_atom_site_label
_atom_site_fract_x
_atom_site_fract_y
_atom_site_fract_z
Si Si1 0.594906 0.382095 0.899149
Si Si2 0.069016 0.228170 0.128290
Si Si3 0.000000 0.836783 0.250000
Si Si4 0.538974 0.154703 0.501406
Si Si5 0.092038 0.531490 0.397304
Si Si6 0.500000 0.463960 0.750000
Si Si7 0.216476 0.070537 0.652932
Si Si8 0.763809 0.555094 0.156617
O O1 0.606806 0.320323 0.776402
O O2 0.566595 0.430246 0.723516
O O3 0.650652 0.405273 0.065897
O O4 0.532653 0.373379 0.050562
O O5 0.085195 0.293615 0.082293
O O6 0.000000 0.230680 0.250000
O O7 0.054487 0.201269 0.864085
O O8 0.500000 0.145041 0.750000
O O9 0.569410 0.095406 0.431894
O O10 0.500000 0.172021 0.250000
O O11 0.072326 0.505495 0.132828
O O12 0.167031 0.534583 0.398229
O O13 0.500000 0.500000 0.500000
O O14 0.238567 0.090566 0.923238
O O15 0.222049 0.001979 0.677349
O O16 0.260407 0.084488 0.422114
#
# Coordination Sequence:
#
# PCOD9256420 Si02
#       8
#     8   8   4   8   8   4   8   8
#     4  11  23  36  58  83 116 168 199 263 297 366
#     4   9  19  38  59  81 120 161 210 239 299 361
#     4  10  17  38  58  78 116 157 206 238 314 354
#     4  11  24  40  64 100 126 160 200 244 291 379
#     4  12  22  41  66  92 130 164 192 240 318 367
#     4  12  27  34  46  80 122 145 186 242 322 348
#     4  10  21  34  60  80 110 147 220 240 287 349
#     4  10  20  40  56  83 111 164 202 246 293 363
#
# _framework density 20.29973
#
# number of rings (size 3 to 8) (size 9 to 14) (size 15 to 20)
#    0.000    1.429    5.714    1.286    6.000    1.714 
#    0.000    0.000    0.000    1.714    0.000    0.000 
#    0.000    0.000    0.000    0.000    0.000    0.000 
#
# Total GULP energy -155919.864909 kJ/mol
# GULP energy per Si atom -5568.566604 kJ/mol
# Density = 2.025353 g / cm^3
# Si number density = 20.299730 Si / 1000 Ang^3
#
#
#
# Elastic Constant Matrix: (Units=GPa)
#
#
# Indices 1 2 3 4 5 6 
#
# 1 24.1602 12.5224 -8.2836 0.0000 5.2359 0.0000
# 2 12.5224 90.9014 -2.4306 0.0000 2.0684 0.0000
# 3 -8.2836 -2.4306 78.8131 0.0000 10.6872 0.0000
# 4 0.0000 0.0000 0.0000 21.7106 0.0000 9.8416
# 5 5.2359 2.0684 10.6872 0.0000 18.5142 0.0000
# 6 0.0000 0.0000 0.0000 9.8416 0.0000 8.3790
#
#
#
# Elastic Compliance Matrix: (Units=1/GPa)
#
#
# Indices 1 2 3 4 5 6 
#
# 1 0.051307 -0.006449 0.007664 0.000000 -0.018213 0.000000
# 2 -0.006449 0.011862 -0.000412 0.000000 0.000736 0.000000
# 3 0.007664 -0.000412 0.014938 0.000000 -0.010744 0.000000
# 4 0.000000 0.000000 0.000000 0.098510 0.000000 -0.115705
# 5 -0.018213 0.000736 -0.010744 0.000000 0.065283 0.000000
# 6 0.000000 0.000000 0.000000 -0.115705 0.000000 0.255248
#
#
# Mechanical properties :
#
#
# Convention : Reuss Voigt Hill
#
# Bulk Modulus (GPa) = 12.54502 21.94348 17.24425
# Shear Modulus (GPa) = 9.57646 22.52519 16.05083
#
# Velocity S-wave (km/s) = 2.17434 3.33472 2.81497
# Velocity P-wave (km/s) = 3.53511 5.06561 4.36792
#
# Compressibility (1/GPa) = 0.07971292
#
# Stress axis : x y z
#
# Youngs Moduli (GPa) = 19.49034 84.30621 66.94368
#
# Poissons Ratio (x) = 0.54367 -0.51302
# Poissons Ratio (y) = 0.12569 0.02757
# Poissons Ratio (z) = -0.14936 0.03472
#
# Static dielectric constant tensor:
#      x y z
#    x 1.793480 0.000000 -0.072150 
#    y 0.000000 1.790680 0.000000 
#    z -0.072150 0.000000 2.017870 
# 
# From -- ./inp_files/16037.got.cif
#   From: 2010.05.17/outbox.cif.g08.bks.cpg/sg15_9_cif.got.tgz:16037.got - 2010.06.03 18:47:42.
