data_PCOD9256125
_publ_section_title
;
Structure prediction by ZEFSAII (Michael W. Deem and Ramdas Pophale) SiO2 
 PCOD9256125
Probable space group: C 2/C
;
_chemical_formula_sum "Si O2"
_cell_formula_units_Z 40
_cell_length_a 11.066094
_cell_length_b 24.005242
_cell_length_c 19.743365
_cell_angle_alpha 90.000000
_cell_angle_beta 159.254649
_cell_angle_gamma 90.000000
_cell_volume 1857.756383
_symmetry_space_group_name_H-M "C 2/C"
_symmetry_group_IT_number 15
_symmetry_cell_setting 'monoclinic'
loop_
_space_group_symop_operation_xyz
x,y,z
-x,y,1/2-z
-x,-y,-z
x,-y,1/2+z
1/2+x,1/2+y,z
1/2-x,1/2+y,1/2-z
1/2-x,1/2-y,-z
1/2+x,1/2-y,1/2+z
loop_
_atom_site_type_symbol
_atom_site_label
_atom_site_fract_x
_atom_site_fract_y
_atom_site_fract_z
Si Si1 0.101594 0.660336 0.115876
Si Si2 0.349984 0.031274 0.746506
Si Si3 0.081625 0.726372 0.713650
Si Si4 0.880881 0.586676 0.117487
Si Si5 0.897672 0.374099 0.035810
O O1 0.123543 0.727114 0.136361
O O2 0.497194 0.640983 0.331862
O O3 0.884372 0.629439 0.058324
O O4 0.001934 0.641004 0.988298
O O5 0.500000 0.043117 0.750000
O O6 0.551995 0.063650 0.911267
O O7 0.972281 0.055338 0.554369
O O8 0.364913 0.965019 0.764407
O O9 0.000000 0.721397 0.750000
O O10 0.750000 0.750000 0.500000
O O11 0.119193 0.665822 0.701024
O O12 0.000000 0.614393 0.250000
#
# Coordination Sequence:
#
# PCOD9256125 Si02
#       5
#     8   8   8   8   8
#     4  10  20  37  59  91 127 160 204 249 304 369
#     4  11  22  40  64  90 116 160 204 254 311 375
#     4  10  17  34  60  92 123 164 207 248 297 367
#     4  11  23  40  62  88 123 157 205 257 308 372
#     4  10  20  36  63  92 124 163 203 250 306 367
#
# _framework density 21.531348999999999
#
# number of rings (size 3 to 8) (size 9 to 14) (size 15 to 20)
#    0.000    1.600    4.000    5.400    0.000    3.200 
#    0.000    1.000    0.000    0.000    0.000    0.000 
#    0.000    0.000    0.000    0.000    0.000    0.000 
#
# Total GULP energy -111739.865953 kJ/mol
# GULP energy per Si atom -5586.993298 kJ/mol
# Density = 2.148234 g / cm^3
# Si number density = 21.531349 Si / 1000 Ang^3
#
#
#
# Elastic Constant Matrix: (Units=GPa)
#
#
# Indices 1 2 3 4 5 6 
#
# 1 136.0180 61.0758 38.3055 0.0060 -12.5361 0.0475
# 2 61.0758 83.6517 4.8747 0.0148 -13.9805 0.0293
# 3 38.3055 4.8747 46.5477 -0.2759 -9.4727 -0.0146
# 4 0.0060 0.0148 -0.2759 27.1406 0.0330 -9.5117
# 5 -12.5361 -13.9805 -9.4727 0.0330 38.6494 0.0084
# 6 0.0475 0.0293 -0.0146 -9.5117 0.0084 29.4294
#
#
#
# Elastic Compliance Matrix: (Units=1/GPa)
#
#
# Indices 1 2 3 4 5 6 
#
# 1 0.015426 -0.010878 -0.011934 -0.000139 -0.001856 -0.000064
# 2 -0.010878 0.020402 0.007998 0.000074 0.005812 0.000023
# 3 -0.011934 0.007998 0.031859 0.000364 0.006830 0.000143
# 4 -0.000139 0.000074 0.000364 0.041556 0.000032 0.013431
# 5 -0.001856 0.005812 0.006830 0.000032 0.029048 0.000003
# 6 -0.000064 0.000023 0.000143 0.013431 0.000003 0.038321
#
#
# Mechanical properties :
#
#
# Convention : Reuss Voigt Hill
#
# Bulk Modulus (GPa) = 26.27466 52.74771 39.51119
# Shear Modulus (GPa) = 22.83887 29.84130 26.34008
#
# Velocity S-wave (km/s) = 3.26041 3.72687 3.50142
# Velocity P-wave (km/s) = 5.13840 6.56283 5.89381
#
# Compressibility (1/GPa) = 0.03805948
#
# Stress axis : x y z
#
# Youngs Moduli (GPa) = 64.82475 49.01583 31.38845
#
# Poissons Ratio (x) = 0.53318 0.37459
# Poissons Ratio (y) = 0.70514 -0.25105
# Poissons Ratio (z) = 0.77362 -0.39204
#
# Static dielectric constant tensor:
#      x y z
#    x 1.761500 0.000020 0.010000 
#    y 0.000020 1.824480 -0.000260 
#    z 0.010000 -0.000260 1.836080 
# 
# From -- ./inp_files/240832.got.cif
#   From: 2010.05.17/outbox.cif.g08.bks.cpg/sg15_121_cif.got.tgz:240832.got - 2010.06.03 18:47:42.
