data_PCOD9256244
_publ_section_title
;
Structure prediction by ZEFSAII (Michael W. Deem and Ramdas Pophale) SiO2 
 PCOD9256244
Probable space group: C 2/C
;
_chemical_formula_sum "Si O2"
_cell_formula_units_Z 52
_cell_length_a 24.401559
_cell_length_b 18.369161
_cell_length_c 5.454801
_cell_angle_alpha 90.000000
_cell_angle_beta 114.865176
_cell_angle_gamma 90.000000
_cell_volume 2218.383350
_symmetry_space_group_name_H-M "C 2/C"
_symmetry_group_IT_number 15
_symmetry_cell_setting 'monoclinic'
loop_
_space_group_symop_operation_xyz
x,y,z
-x,y,1/2-z
-x,-y,-z
x,-y,1/2+z
1/2+x,1/2+y,z
1/2-x,1/2+y,1/2-z
1/2-x,1/2-y,-z
1/2+x,1/2-y,1/2+z
loop_
_atom_site_type_symbol
_atom_site_label
_atom_site_fract_x
_atom_site_fract_y
_atom_site_fract_z
Si Si1 0.212929 0.302608 0.748477
Si Si2 0.404691 0.154076 0.242489
Si Si3 0.318212 0.335794 0.606445
Si Si4 0.000000 0.546281 0.250000
Si Si5 0.560855 0.697548 0.953279
Si Si6 0.000000 0.953229 0.750000
Si Si7 0.869251 0.046248 0.928407
Si Si8 0.000000 0.703778 0.750000
O O1 0.164679 0.349669 0.809182
O O2 0.260599 0.344921 0.670178
O O3 0.180381 0.246077 0.499118
O O4 0.250000 0.250000 0.000000
O O5 0.439488 0.097763 0.133434
O O6 0.416001 0.237542 0.178498
O O7 0.447486 0.151728 0.557641
O O8 0.320227 0.391810 0.386343
O O9 0.379346 0.346821 0.877021
O O10 0.000000 0.500000 0.500000
O O11 0.500000 0.656519 0.750000
O O12 0.533386 0.743101 0.125157
O O13 0.064704 0.915798 0.908046
O O14 0.000000 0.000000 0.500000
O O15 0.864650 0.991442 0.154673
#
# Coordination Sequence:
#
# PCOD9256244 Si02
#       8
#     8   8   8   4   8   4   8   4
#     4  11  24  42  67 100 133 178 229 298 367 412
#     4  11  21  40  67  92 138 168 227 294 351 423
#     4  11  24  41  65 101 135 178 237 283 354 432
#     4  12  27  44  70 102 140 195 236 290 366 438
#     4  10  20  35  63 100 126 170 215 293 360 405
#     4   8  16  37  58  86 118 162 211 256 312 370
#     4  10  23  43  67  92 137 186 224 272 331 410
#     4  10  17  35  62  94 126 167 207 278 366 394
#
# _framework density 23.440494000000001
#
# number of rings (size 3 to 8) (size 9 to 14) (size 15 to 20)
#    0.000    1.538    5.385    0.462    2.154    0.615 
#    8.308    1.538    0.000    0.000    0.000    0.000 
#    0.000    0.000    0.000    0.000    0.000    0.000 
#
# Total GULP energy -145171.850377 kJ/mol
# GULP energy per Si atom -5583.532707 kJ/mol
# Density = 2.338714 g / cm^3
# Si number density = 23.440494 Si / 1000 Ang^3
#
#
#
# Elastic Constant Matrix: (Units=GPa)
#
#
# Indices 1 2 3 4 5 6 
#
# 1 182.7078 40.4744 24.8528 0.0000 -11.4621 0.0000
# 2 40.4744 65.5909 12.7231 0.0000 -7.8104 0.0000
# 3 24.8528 12.7231 73.1805 0.0000 -5.2194 0.0000
# 4 0.0000 0.0000 0.0000 26.9194 0.0000 -20.4060
# 5 -11.4621 -7.8104 -5.2194 0.0000 34.9936 0.0000
# 6 0.0000 0.0000 0.0000 -20.4060 0.0000 43.0142
#
#
#
# Elastic Compliance Matrix: (Units=1/GPa)
#
#
# Indices 1 2 3 4 5 6 
#
# 1 0.006550 -0.003615 -0.001517 0.000000 0.001112 0.000000
# 2 -0.003615 0.018124 -0.001738 0.000000 0.002602 0.000000
# 3 -0.001517 -0.001738 0.014574 0.000000 0.001289 0.000000
# 4 0.000000 0.000000 0.000000 0.058009 0.000000 0.027519
# 5 0.001112 0.002602 0.001289 0.000000 0.029714 0.000000
# 6 0.000000 0.000000 0.000000 0.027519 0.000000 0.036303
#
#
# Mechanical properties :
#
#
# Convention : Reuss Voigt Hill
#
# Bulk Modulus (GPa) = 39.20212 53.06443 46.13328
# Shear Modulus (GPa) = 26.95185 37.21403 32.08294
#
# Velocity S-wave (km/s) = 3.39455 3.98879 3.70360
# Velocity P-wave (km/s) = 5.66783 6.62578 6.16544
#
# Compressibility (1/GPa) = 0.02550883
#
# Stress axis : x y z
#
# Youngs Moduli (GPa) = 152.66750 55.17612 68.61561
#
# Poissons Ratio (x) = 0.19948 0.10406
# Poissons Ratio (y) = 0.55194 0.11923
# Poissons Ratio (z) = 0.23154 0.09588
#
# Static dielectric constant tensor:
#      x y z
#    x 1.976000 0.000000 0.063360 
#    y 0.000000 1.932140 0.000000 
#    z 0.063360 0.000000 2.140560 
# 
# From -- ./inp_files/15735.got.cif
#   From: 2010.05.17/outbox.cif.g08.bks.cpg/sg15_8_cif.got.tgz:15735.got - 2010.06.03 18:47:42.
