data_PCOD9256727
_publ_section_title
;
Structure prediction by ZEFSAII (Michael W. Deem and Ramdas Pophale) SiO2 
 PCOD9256727
Probable space group: C 2/C
;
_chemical_formula_sum "Si O2"
_cell_formula_units_Z 64
_cell_length_a 32.354981
_cell_length_b 13.490331
_cell_length_c 9.619431
_cell_angle_alpha 90.000000
_cell_angle_beta 75.992799
_cell_angle_gamma 90.000000
_cell_volume 4073.836965
_symmetry_space_group_name_H-M "C 2/C"
_symmetry_group_IT_number 15
_symmetry_cell_setting 'monoclinic'
loop_
_space_group_symop_operation_xyz
x,y,z
-x,y,1/2-z
-x,-y,-z
x,-y,1/2+z
1/2+x,1/2+y,z
1/2-x,1/2+y,1/2-z
1/2-x,1/2-y,-z
1/2+x,1/2-y,1/2+z
loop_
_atom_site_type_symbol
_atom_site_label
_atom_site_fract_x
_atom_site_fract_y
_atom_site_fract_z
Si Si1 0.600865 0.888168 0.612823
Si Si2 0.228543 0.897521 0.931593
Si Si3 0.315053 0.771067 0.533950
Si Si4 0.461255 0.888510 0.607703
Si Si5 0.098775 0.380341 0.105159
Si Si6 0.955098 0.618308 0.603806
Si Si7 0.229552 0.100640 0.102411
Si Si8 0.684556 0.227349 0.138887
O O1 0.560394 0.850477 0.735183
O O2 0.584781 0.883388 0.468378
O O3 0.642368 0.826650 0.617773
O O4 0.608147 0.005072 0.639513
O O5 0.219105 0.911417 0.774922
O O6 0.275413 0.847822 0.902713
O O7 0.196746 0.820541 0.032784
O O8 0.228442 0.998759 0.018358
O O9 0.358209 0.819284 0.442078
O O10 0.276733 0.851006 0.556626
O O11 0.300996 0.678549 0.451290
O O12 0.319907 0.745340 0.694000
O O13 0.424304 0.883978 0.523755
O O14 0.503564 0.840733 0.509146
O O15 0.469630 0.005552 0.628625
O O16 0.063742 0.337666 0.240398
#
# Coordination Sequence:
#
# PCOD9256727 Si02
#       8
#     8   8   8   8   8   8   8   8
#     4  10  18  29  45  69  99 133 167 202 235 281
#     4  10  21  36  53  72  97 128 161 201 244 286
#     4  10  20  34  50  72  99 130 165 199 237 285
#     4   9  16  30  42  63  95 135 165 197 240 284
#     4  10  18  29  45  69  99 133 167 202 235 281
#     4   9  18  26  44  65  95 131 169 199 236 284
#     4  10  21  36  53  72  97 128 161 201 244 286
#     4  10  20  34  50  72  99 130 165 199 237 285
#
# _framework density 15.710006
#
# number of rings (size 3 to 8) (size 9 to 14) (size 15 to 20)
#    0.000    2.250    1.250    2.250    1.750    4.000 
#    0.000    0.000    0.000    0.000    0.000    0.000 
#    0.000    6.000    0.000    0.000    0.000    0.000 
#
# Total GULP energy -178272.243213 kJ/mol
# GULP energy per Si atom -5571.007600 kJ/mol
# Density = 1.567425 g / cm^3
# Si number density = 15.710006 Si / 1000 Ang^3
#
#
#
# Elastic Constant Matrix: (Units=GPa)
#
#
# Indices 1 2 3 4 5 6 
#
# 1 52.6085 23.4582 10.9297 0.0000 -0.3797 0.0000
# 2 23.4582 72.3061 43.4699 0.0000 2.7489 0.0000
# 3 10.9297 43.4699 87.3650 0.0000 2.9397 0.0000
# 4 0.0000 0.0000 0.0000 22.1197 0.0000 0.0348
# 5 -0.3797 2.7489 2.9397 0.0000 29.0006 0.0000
# 6 0.0000 0.0000 0.0000 0.0348 0.0000 21.1408
#
#
#
# Elastic Compliance Matrix: (Units=1/GPa)
#
#
# Indices 1 2 3 4 5 6 
#
# 1 0.022330 -0.007964 0.001138 0.000000 0.000932 0.000000
# 2 -0.007964 0.022595 -0.010206 0.000000 -0.001212 0.000000
# 3 0.001138 -0.010206 0.016405 0.000000 -0.000681 0.000000
# 4 0.000000 0.000000 0.000000 0.045209 0.000000 -0.000074
# 5 0.000932 -0.001212 -0.000681 0.000000 0.034678 0.000000
# 6 0.000000 0.000000 0.000000 -0.000074 0.000000 0.047302
#
#
# Mechanical properties :
#
#
# Convention : Reuss Voigt Hill
#
# Bulk Modulus (GPa) = 36.67524 40.88835 38.78179
# Shear Modulus (GPa) = 21.58230 23.41366 22.49798
#
# Velocity S-wave (km/s) = 3.71049 3.86471 3.78839
# Velocity P-wave (km/s) = 6.46164 6.78219 6.62386
#
# Compressibility (1/GPa) = 0.02726635
#
# Stress axis : x y z
#
# Youngs Moduli (GPa) = 44.78325 44.25676 60.95766
#
# Poissons Ratio (x) = 0.35245 -0.06935
# Poissons Ratio (y) = 0.35664 0.62211
# Poissons Ratio (z) = -0.05095 0.45167
#
# Static dielectric constant tensor:
#      x y z
#    x 1.527320 0.000000 -0.004260 
#    y 0.000000 1.490860 0.000000 
#    z -0.004260 0.000000 1.561520 
# 
# From -- ./inp_files/69722.got.cif
#   From: 2010.05.17/outbox.cif.g08.bks.cpg/sg15_35_cif.got.tgz:69722.got - 2010.06.03 18:47:42.
