data_PCOD9256788
_publ_section_title
;
Structure prediction by ZEFSAII (Michael W. Deem and Ramdas Pophale) SiO2 
 PCOD9256788
Probable space group: C 2/C
;
_chemical_formula_sum "Si O2"
_cell_formula_units_Z 60
_cell_length_a 31.411046
_cell_length_b 25.492680
_cell_length_c 9.403413
_cell_angle_alpha 90.000000
_cell_angle_beta 152.453281
_cell_angle_gamma 90.000000
_cell_volume 3482.319326
_symmetry_space_group_name_H-M "C 2/C"
_symmetry_group_IT_number 15
_symmetry_cell_setting 'monoclinic'
loop_
_space_group_symop_operation_xyz
x,y,z
-x,y,1/2-z
-x,-y,-z
x,-y,1/2+z
1/2+x,1/2+y,z
1/2-x,1/2+y,1/2-z
1/2-x,1/2-y,-z
1/2+x,1/2-y,1/2+z
loop_
_atom_site_type_symbol
_atom_site_label
_atom_site_fract_x
_atom_site_fract_y
_atom_site_fract_z
Si Si1 0.858087 0.203730 0.101694
Si Si2 0.500000 0.805117 0.250000
Si Si3 0.920598 0.956614 0.629298
Si Si4 0.309489 0.331242 0.775590
Si Si5 0.818370 0.137820 0.720321
Si Si6 0.567734 0.711632 0.635048
Si Si7 0.838280 0.675190 0.458102
Si Si8 0.945300 0.072471 0.734122
O O1 0.824788 0.188545 0.160918
O O2 0.969409 0.200304 0.416505
O O3 0.811320 0.164958 0.851651
O O4 0.838420 0.262151 0.985418
O O5 0.562088 0.765031 0.527760
O O6 0.562616 0.835493 0.320714
O O7 0.841920 0.922485 0.321850
O O8 0.000000 0.964775 0.750000
O O9 0.898036 0.015241 0.615668
O O10 0.973725 0.924502 0.909138
O O11 0.205447 0.342845 0.520167
O O12 0.354959 0.287568 0.014351
O O13 0.370388 0.382023 0.998593
O O14 0.903173 0.166167 0.889492
O O15 0.732949 0.152354 0.368390
O O16 0.000000 0.074433 0.750000
#
# Coordination Sequence:
#
# PCOD9256788 Si02
#       8
#     8   4   8   8   8   8   8   8
#     4  11  19  31  44  71 101 128 163 200 243 294
#     4  10  20  36  50  66  92 126 172 216 252 272
#     4  10  19  30  48  73 103 134 168 199 229 284
#     4  11  21  30  48  71 100 134 166 195 249 301
#     4  11  18  30  52  71  94 134 174 200 237 290
#     4  10  18  29  50  68  95 135 165 197 231 290
#     4  10  22  34  49  69  92 128 167 217 247 293
#     4  10  20  32  46  72 108 138 159 193 239 293
#
# _framework density 17.229896
#
# number of rings (size 3 to 8) (size 9 to 14) (size 15 to 20)
#    0.000    1.600    2.667    6.000    1.867    0.000 
#    0.000    0.000    0.000    0.000    0.000    0.933 
#    0.000    0.000    0.000    0.000    0.000    0.000 
#
# Total GULP energy -167077.411541 kJ/mol
# GULP energy per Si atom -5569.247051 kJ/mol
# Density = 1.719068 g / cm^3
# Si number density = 17.229896 Si / 1000 Ang^3
#
#
#
# Elastic Constant Matrix: (Units=GPa)
#
#
# Indices 1 2 3 4 5 6 
#
# 1 125.3900 3.7127 29.3335 0.0000 -3.9793 0.0000
# 2 3.7127 55.8593 24.2741 0.0000 7.8442 0.0000
# 3 29.3335 24.2741 44.0994 0.0000 -2.6149 0.0000
# 4 0.0000 0.0000 0.0000 21.9761 0.0000 6.8983
# 5 -3.9793 7.8442 -2.6149 0.0000 33.4745 0.0000
# 6 0.0000 0.0000 0.0000 6.8983 0.0000 17.9763
#
#
#
# Elastic Compliance Matrix: (Units=1/GPa)
#
#
# Indices 1 2 3 4 5 6 
#
# 1 0.009782 0.002894 -0.008108 0.000000 -0.000149 0.000000
# 2 0.002894 0.025912 -0.016605 0.000000 -0.007025 0.000000
# 3 -0.008108 -0.016605 0.037557 0.000000 0.005861 0.000000
# 4 0.000000 0.000000 0.000000 0.051736 0.000000 -0.019853
# 5 -0.000149 -0.007025 0.005861 0.000000 0.031960 0.000000
# 6 0.000000 0.000000 0.000000 -0.019853 0.000000 0.063248
#
#
# Mechanical properties :
#
#
# Convention : Reuss Voigt Hill
#
# Bulk Modulus (GPa) = 33.76913 37.77660 35.77287
# Shear Modulus (GPa) = 18.26802 25.88727 22.07765
#
# Velocity S-wave (km/s) = 3.25968 3.88037 3.58349
# Velocity P-wave (km/s) = 5.81456 6.48452 6.15865
#
# Compressibility (1/GPa) = 0.02961284
#
# Stress axis : x y z
#
# Youngs Moduli (GPa) = 102.23328 38.59214 26.62626
#
# Poissons Ratio (x) = -0.11170 0.21589
# Poissons Ratio (y) = -0.29590 0.44212
# Poissons Ratio (z) = 0.82894 0.64081
#
# Static dielectric constant tensor:
#      x y z
#    x 1.733120 0.000000 -0.029590 
#    y 0.000000 1.644570 0.000000 
#    z -0.029590 0.000000 1.623970 
# 
# From -- ./inp_files/71005.got.cif
#   From: 2010.05.17/outbox.cif.g08.bks.cpg/sg15_36_cif.got.tgz:71005.got - 2010.06.03 18:47:42.
