data_PCOD9256341
_publ_section_title
;
Structure prediction by ZEFSAII (Michael W. Deem and Ramdas Pophale) SiO2 
 PCOD9256341
Probable space group: C 2/C
;
_chemical_formula_sum "Si O2"
_cell_formula_units_Z 64
_cell_length_a 23.849475
_cell_length_b 21.442933
_cell_length_c 18.160083
_cell_angle_alpha 90.000000
_cell_angle_beta 22.205330
_cell_angle_gamma 90.000000
_cell_volume 3509.850867
_symmetry_space_group_name_H-M "C 2/C"
_symmetry_group_IT_number 15
_symmetry_cell_setting 'monoclinic'
loop_
_space_group_symop_operation_xyz
x,y,z
-x,y,1/2-z
-x,-y,-z
x,-y,1/2+z
1/2+x,1/2+y,z
1/2-x,1/2+y,1/2-z
1/2-x,1/2-y,-z
1/2+x,1/2-y,1/2+z
loop_
_atom_site_type_symbol
_atom_site_label
_atom_site_fract_x
_atom_site_fract_y
_atom_site_fract_z
Si Si1 0.184999 0.996193 0.193990
Si Si2 0.938904 0.397070 0.901216
Si Si3 0.707495 0.606160 0.934652
Si Si4 0.788090 0.691580 0.702234
Si Si5 0.140135 0.122796 0.175963
Si Si6 0.117718 0.938670 0.926838
Si Si7 0.443709 0.690120 0.082275
Si Si8 0.125173 0.476998 0.789483
O O1 0.217058 0.060889 0.114479
O O2 0.165633 0.013364 0.303880
O O3 0.028410 0.967685 0.358835
O O4 0.309799 0.945096 0.035818
O O5 0.000000 0.371629 0.750000
O O6 0.052666 0.438663 0.811175
O O7 0.872806 0.343893 0.034049
O O8 0.784978 0.645690 0.776651
O O9 0.783666 0.538550 0.845828
O O10 0.709007 0.637681 0.013220
O O11 0.533272 0.603905 0.124727
O O12 0.867501 0.754557 0.630699
O O13 0.617010 0.702361 0.887132
O O14 0.136585 0.176341 0.241761
O O15 0.072878 0.874481 0.942337
O O16 0.255810 0.934007 0.812988
O O17 0.000000 0.500000 0.000000
#
# Coordination Sequence:
#
# PCOD9256341 Si02
#       8
#     8   8   8   8   8   8   8   8
#     4  10  17  36  61  88 122 156 191 238 304 366
#     4  12  25  40  60  90 126 156 195 259 309 348
#     4  10  19  36  59  91 125 153 194 239 299 364
#     4  11  23  42  62  82 115 164 207 250 296 354
#     4   9  19  35  61  91 121 157 192 240 292 370
#     4  10  19  35  64  88 115 158 202 236 294 369
#     4  10  23  39  64  85 114 160 208 248 297 348
#     4  12  21  35  62  95 124 156 195 243 304 363
#
# _framework density 18.234393000000001
#
# number of rings (size 3 to 8) (size 9 to 14) (size 15 to 20)
#    0.000    1.500    5.000    0.750    1.750    0.500 
#    0.000    0.625    0.000    0.000    0.000    0.000 
#    0.000    0.000    0.000    0.000    0.000    0.000 
#
# Total GULP energy -178634.412703 kJ/mol
# GULP energy per Si atom -5582.325397 kJ/mol
# Density = 1.819289 g / cm^3
# Si number density = 18.234393 Si / 1000 Ang^3
#
#
#
# Elastic Constant Matrix: (Units=GPa)
#
#
# Indices 1 2 3 4 5 6 
#
# 1 91.0796 33.6841 56.0945 -0.0053 7.0540 0.0017
# 2 33.6841 74.9640 35.6033 -0.0035 8.0614 0.0022
# 3 56.0945 35.6033 73.9268 0.0054 10.7517 0.0007
# 4 -0.0053 -0.0035 0.0054 14.9863 0.0014 -9.8500
# 5 7.0540 8.0614 10.7517 0.0014 34.3373 0.0002
# 6 0.0017 0.0022 0.0007 -9.8500 0.0002 25.8230
#
#
#
# Elastic Compliance Matrix: (Units=1/GPa)
#
#
# Indices 1 2 3 4 5 6 
#
# 1 0.020972 -0.002465 -0.014860 0.000015 0.000923 0.000005
# 2 -0.002465 0.017662 -0.006398 0.000007 -0.001637 0.000001
# 3 -0.014860 -0.006398 0.028520 -0.000021 -0.004376 -0.000007
# 4 0.000015 0.000007 -0.000021 0.089054 -0.000002 0.033969
# 5 0.000923 -0.001637 -0.004376 -0.000002 0.030688 -0.000001
# 6 0.000005 0.000001 -0.000007 0.033969 -0.000001 0.051682
#
#
# Mechanical properties :
#
#
# Convention : Reuss Voigt Hill
#
# Bulk Modulus (GPa) = 50.74041 54.52602 52.63322
# Shear Modulus (GPa) = 17.08864 22.66855 19.87859
#
# Velocity S-wave (km/s) = 3.06464 3.52969 3.30535
# Velocity P-wave (km/s) = 6.35687 6.82491 6.59505
#
# Compressibility (1/GPa) = 0.01970816
#
# Stress axis : x y z
#
# Youngs Moduli (GPa) = 47.68346 56.61934 35.06320
#
# Poissons Ratio (x) = 0.13957 0.52104
# Poissons Ratio (y) = 0.11754 0.22432
# Poissons Ratio (z) = 0.70858 0.36222
#
# Static dielectric constant tensor:
#      x y z
#    x 1.643000 0.000000 0.012210 
#    y 0.000000 1.604350 0.000000 
#    z 0.012210 0.000000 1.647510 
# 
# From -- ./inp_files/220234.got.cif
#   From: 2010.05.17/outbox.cif.g08.bks.cpg/sg15_111_cif.got.tgz:220234.got - 2010.06.03 18:47:42.
