data_PCOD9256077
_publ_section_title
;
Structure prediction by ZEFSAII (Michael W. Deem and Ramdas Pophale) SiO2 
 PCOD9256077
Probable space group: C 2/C
;
_chemical_formula_sum "Si O2"
_cell_formula_units_Z 64
_cell_length_a 7.631646
_cell_length_b 19.834028
_cell_length_c 21.285564
_cell_angle_alpha 90.000000
_cell_angle_beta 113.547845
_cell_angle_gamma 90.000000
_cell_volume 2953.617270
_symmetry_space_group_name_H-M "C 2/C"
_symmetry_group_IT_number 15
_symmetry_cell_setting 'monoclinic'
loop_
_space_group_symop_operation_xyz
x,y,z
-x,y,1/2-z
-x,-y,-z
x,-y,1/2+z
1/2+x,1/2+y,z
1/2-x,1/2+y,1/2-z
1/2-x,1/2-y,-z
1/2+x,1/2-y,1/2+z
loop_
_atom_site_type_symbol
_atom_site_label
_atom_site_fract_x
_atom_site_fract_y
_atom_site_fract_z
Si Si1 0.225601 0.545609 0.264133
Si Si2 0.696052 0.753957 0.235223
Si Si3 0.108429 0.591902 0.477268
Si Si4 0.016543 0.080065 0.518543
Si Si5 0.316529 0.095616 0.769393
Si Si6 0.965514 0.151251 0.378576
Si Si7 0.661852 0.849304 0.651064
Si Si8 0.568370 0.939196 0.421496
O O1 0.298941 0.469176 0.271053
O O2 0.348602 0.590018 0.329253
O O3 0.226309 0.583608 0.197767
O O4 0.000000 0.544431 0.250000
O O5 0.500000 0.752069 0.250000
O O6 0.766448 0.829961 0.239444
O O7 0.646703 0.717810 0.161983
O O8 0.837999 0.707712 0.295949
O O9 0.327239 0.597476 0.529917
O O10 0.083062 0.518123 0.441569
O O11 0.036786 0.642064 0.413276
O O12 0.975259 0.595957 0.518652
O O13 0.228803 0.086641 0.575888
O O14 0.995471 0.127208 0.453923
O O15 0.000000 0.000000 0.500000
O O16 0.500000 0.101110 0.750000
O O17 0.403139 0.074634 0.848824
O O18 0.172744 0.160363 0.376427
#
# Coordination Sequence:
#
# PCOD9256077 Si02
#       8
#     8   8   8   8   8   8   8   8
#     4  10  19  29  52  84 113 146 190 246 297 347
#     4   8  18  34  56  82 110 156 200 243 284 354
#     4  10  19  34  57  89 121 151 189 246 297 358
#     4  10  21  32  55  87 120 147 190 245 297 350
#     4  10  20  35  58  83 118 151 202 242 297 357
#     4  10  19  34  55  83 113 148 201 241 288 354
#     4  10  17  34  57  84 114 149 201 241 290 349
#     4  10  20  36  55  90 118 155 191 238 308 353
#
# _framework density 21.668347000000001
#
# number of rings (size 3 to 8) (size 9 to 14) (size 15 to 20)
#    0.000    2.250    2.500    1.875    5.250    0.000 
#    0.000    0.625    0.000    9.750   32.500    0.000 
#    0.000    0.000    0.000    0.000    0.000    0.000 
#
# Total GULP energy -178546.595167 kJ/mol
# GULP energy per Si atom -5579.581099 kJ/mol
# Density = 2.161903 g / cm^3
# Si number density = 21.668347 Si / 1000 Ang^3
#
#
#
# Elastic Constant Matrix: (Units=GPa)
#
#
# Indices 1 2 3 4 5 6 
#
# 1 50.8570 1.0988 -3.3279 0.0000 12.3662 0.0000
# 2 1.0988 99.8767 -2.1258 0.0000 -1.2396 0.0000
# 3 -3.3279 -2.1258 32.7346 0.0000 -0.2646 0.0000
# 4 0.0000 0.0000 0.0000 3.1497 0.0000 2.3384
# 5 12.3662 -1.2396 -0.2646 0.0000 21.9711 0.0000
# 6 0.0000 0.0000 0.0000 2.3384 0.0000 11.8513
#
#
#
# Elastic Compliance Matrix: (Units=1/GPa)
#
#
# Indices 1 2 3 4 5 6 
#
# 1 0.022955 -0.000366 0.002206 0.000000 -0.012914 0.000000
# 2 -0.000366 0.010039 0.000621 0.000000 0.000780 0.000000
# 3 0.002206 0.000621 0.030807 0.000000 -0.000835 0.000000
# 4 0.000000 0.000000 0.000000 0.371985 0.000000 -0.073396
# 5 -0.012914 0.000780 -0.000835 0.000000 0.052817 0.000000
# 6 0.000000 0.000000 0.000000 -0.073396 0.000000 0.098860
#
#
# Mechanical properties :
#
#
# Convention : Reuss Voigt Hill
#
# Bulk Modulus (GPa) = 14.55123 19.41761 16.98442
# Shear Modulus (GPa) = 8.25833 19.91597 14.08715
#
# Velocity S-wave (km/s) = 1.95436 3.03500 2.55252
# Velocity P-wave (km/s) = 3.43841 4.61111 4.06725
#
# Compressibility (1/GPa) = 0.06872271
#
# Stress axis : x y z
#
# Youngs Moduli (GPa) = 43.56280 99.60888 32.46066
#
# Poissons Ratio (x) = 0.03644 -0.07160
# Poissons Ratio (y) = 0.01594 -0.02016
# Poissons Ratio (z) = -0.09608 -0.06186
#
# Static dielectric constant tensor:
#      x y z
#    x 1.883040 0.000000 0.014370 
#    y 0.000000 1.811680 0.000000 
#    z 0.014370 0.000000 1.785110 
# 
# From -- ./inp_files/265938.got.cif
#   From: 2010.05.17/outbox.cif.g08.bks.cpg/sg15_133_cif.got.tgz:265938.got - 2010.06.03 18:47:42.
