data_PCOD9256756
_publ_section_title
;
Structure prediction by ZEFSAII (Michael W. Deem and Ramdas Pophale) SiO2 
 PCOD9256756
Probable space group: C 2/C
;
_chemical_formula_sum "Si O2"
_cell_formula_units_Z 64
_cell_length_a 14.145350
_cell_length_b 7.709449
_cell_length_c 23.908744
_cell_angle_alpha 90.000000
_cell_angle_beta 109.457792
_cell_angle_gamma 90.000000
_cell_volume 2458.405461
_symmetry_space_group_name_H-M "C 2/C"
_symmetry_group_IT_number 15
_symmetry_cell_setting 'monoclinic'
loop_
_space_group_symop_operation_xyz
x,y,z
-x,y,1/2-z
-x,-y,-z
x,-y,1/2+z
1/2+x,1/2+y,z
1/2-x,1/2+y,1/2-z
1/2-x,1/2-y,-z
1/2+x,1/2-y,1/2+z
loop_
_atom_site_type_symbol
_atom_site_label
_atom_site_fract_x
_atom_site_fract_y
_atom_site_fract_z
Si Si1 0.887581 0.675251 0.010324
Si Si2 0.813660 0.171423 0.307316
Si Si3 0.465669 0.250504 0.677982
Si Si4 0.779456 0.460301 0.819241
Si Si5 0.004209 0.380172 0.686157
Si Si6 0.877012 0.972631 0.923148
Si Si7 0.870904 0.337346 0.952385
Si Si8 0.924697 0.063802 0.601390
O O1 0.849982 0.479064 0.995871
O O2 0.868874 0.787207 0.950758
O O3 0.009583 0.651081 0.038943
O O4 0.852449 0.805164 0.052767
O O5 0.930074 0.221203 0.334019
O O6 0.750551 0.337234 0.313883
O O7 0.794221 0.131045 0.238891
O O8 0.809145 0.022559 0.353265
O O9 0.500000 0.265895 0.750000
O O10 0.398497 0.401804 0.636651
O O11 0.435748 0.050753 0.661085
O O12 0.883795 0.438150 0.806108
O O13 0.809927 0.392457 0.885493
O O14 0.980204 0.203216 0.651065
O O15 0.000000 0.345353 0.750000
O O16 0.849819 0.134840 0.957114
O O17 0.993348 0.000416 0.928141
#
# Coordination Sequence:
#
# PCOD9256756 Si02
#       8
#     8   8   8   8   8   8   8   8
#     4  10  19  29  46  76 104 137 168 211 264 307
#     4  10  21  31  53  74 108 137 171 211 263 310
#     4   9  20  35  51  75 104 139 177 214 255 309
#     4  11  19  34  49  77 107 138 168 215 259 311
#     4  10  20  34  51  73 104 139 177 212 254 309
#     4  10  18  31  45  74 102 136 169 210 260 308
#     4  10  18  29  48  67 106 135 166 209 261 302
#     4  10  18  29  50  71 103 133 170 210 259 301
#
# _framework density 26.033135000000001
#
# number of rings (size 3 to 8) (size 9 to 14) (size 15 to 20)
#    0.000    2.000    3.750    2.625    1.750    1.000 
#    0.000    0.000    0.000    0.000    0.000    3.500 
#    0.000   14.500    0.000    0.000    0.000    0.000 
#
# Total GULP energy -178705.219589 kJ/mol
# GULP energy per Si atom -5584.538112 kJ/mol
# Density = 2.597388 g / cm^3
# Si number density = 26.033135 Si / 1000 Ang^3
#
#
#
# Elastic Constant Matrix: (Units=GPa)
#
#
# Indices 1 2 3 4 5 6 
#
# 1 64.7907 10.5048 8.1029 0.0000 0.6876 0.0000
# 2 10.5048 110.7538 20.0765 0.0000 5.4318 0.0000
# 3 8.1029 20.0765 79.3138 0.0000 16.7580 0.0000
# 4 0.0000 0.0000 0.0000 56.8314 0.0000 -6.7161
# 5 0.6876 5.4318 16.7580 0.0000 17.7773 0.0000
# 6 0.0000 0.0000 0.0000 -6.7161 0.0000 8.7313
#
#
#
# Elastic Compliance Matrix: (Units=1/GPa)
#
#
# Indices 1 2 3 4 5 6 
#
# 1 0.015823 -0.001280 -0.001556 0.000000 0.001246 0.000000
# 2 -0.001280 0.009576 -0.002105 0.000000 -0.000892 0.000000
# 3 -0.001556 -0.002105 0.016422 0.000000 -0.014777 0.000000
# 4 0.000000 0.000000 0.000000 0.019355 0.000000 0.014888
# 5 0.001246 -0.000892 -0.014777 0.000000 0.070406 0.000000
# 6 0.000000 0.000000 0.000000 0.014888 0.000000 0.125982
#
#
# Mechanical properties :
#
#
# Convention : Reuss Voigt Hill
#
# Bulk Modulus (GPa) = 31.30817 36.91408 34.11112
# Shear Modulus (GPa) = 17.97969 31.07961 24.52965
#
# Velocity S-wave (km/s) = 2.63087 3.45896 3.07293
# Velocity P-wave (km/s) = 4.61313 5.49208 5.07168
#
# Compressibility (1/GPa) = 0.03194055
#
# Stress axis : x y z
#
# Youngs Moduli (GPa) = 63.19846 104.43101 60.89377
#
# Poissons Ratio (x) = 0.13366 0.09474
# Poissons Ratio (y) = 0.08089 0.12815
# Poissons Ratio (z) = 0.09832 0.21978
#
# Static dielectric constant tensor:
#      x y z
#    x 2.067000 0.000000 0.047930 
#    y 0.000000 2.093620 0.000000 
#    z 0.047930 0.000000 2.094090 
# 
# From -- ./inp_files/281380.got.cif
#   From: 2010.05.17/outbox.cif.g08.bks.cpg/sg15_141_cif.got.tgz:281380.got - 2010.06.03 18:47:42.
