data_PCOD9256601
_publ_section_title
;
Structure prediction by ZEFSAII (Michael W. Deem and Ramdas Pophale) SiO2 
 PCOD9256601
Probable space group: C 2/C
;
_chemical_formula_sum "Si O2"
_cell_formula_units_Z 48
_cell_length_a 22.434354
_cell_length_b 15.855319
_cell_length_c 7.969309
_cell_angle_alpha 90.000000
_cell_angle_beta 119.885666
_cell_angle_gamma 90.000000
_cell_volume 2457.757622
_symmetry_space_group_name_H-M "C 2/C"
_symmetry_group_IT_number 15
_symmetry_cell_setting 'monoclinic'
loop_
_space_group_symop_operation_xyz
x,y,z
-x,y,1/2-z
-x,-y,-z
x,-y,1/2+z
1/2+x,1/2+y,z
1/2-x,1/2+y,1/2-z
1/2-x,1/2-y,-z
1/2+x,1/2-y,1/2+z
loop_
_atom_site_type_symbol
_atom_site_label
_atom_site_fract_x
_atom_site_fract_y
_atom_site_fract_z
Si Si1 0.702686 0.322924 0.007134
Si Si2 0.104283 0.052257 0.964185
Si Si3 0.060767 0.879471 0.727094
Si Si4 0.253347 0.031746 0.360086
Si Si5 0.336715 0.698135 0.659302
Si Si6 0.301124 0.872903 0.629325
O O1 0.685110 0.315858 0.178459
O O2 0.750000 0.250000 0.000000
O O3 0.628103 0.321578 0.815108
O O4 0.739297 0.409803 0.002856
O O5 0.050788 0.088393 0.024696
O O6 0.177932 0.032725 0.162330
O O7 0.113992 0.123949 0.836119
O O8 0.080845 0.964122 0.856578
O O9 0.000000 0.839791 0.750000
O O10 0.283325 0.942926 0.464739
O O11 0.306975 0.077328 0.311380
O O12 0.354188 0.797490 0.665481
O O13 0.270181 0.679065 0.450973
#
# Coordination Sequence:
#
# PCOD9256601 Si02
#       6
#     8   8   8   8   8   8
#     4  11  20  34  52  74 108 143 184 225 273 316
#     4  10  20  35  51  74 108 148 184 215 263 324
#     4  11  22  36  55  78 109 152 185 214 264 329
#     4  10  18  31  46  71 101 145 174 219 265 327
#     4  10  19  31  47  74 103 144 177 227 265 326
#     4  10  18  28  45  67 105 137 175 214 276 313
#
# _framework density 19.529996000000001
#
# number of rings (size 3 to 8) (size 9 to 14) (size 15 to 20)
#    0.000    1.667    1.667    7.500    2.333    0.000 
#    0.000    0.000    0.000    0.000    0.000    0.000 
#    0.000    6.667    0.000    0.000    0.000    0.000 
#
# Total GULP energy -133820.316564 kJ/mol
# GULP energy per Si atom -5575.846523 kJ/mol
# Density = 1.948554 g / cm^3
# Si number density = 19.529996 Si / 1000 Ang^3
#
#
#
# Elastic Constant Matrix: (Units=GPa)
#
#
# Indices 1 2 3 4 5 6 
#
# 1 72.9396 26.5157 18.8091 0.0000 -12.7523 0.0000
# 2 26.5157 115.6340 32.2412 0.0000 -6.5507 0.0000
# 3 18.8091 32.2412 59.7295 0.0000 -26.1077 0.0000
# 4 0.0000 0.0000 0.0000 27.6674 0.0000 -8.9172
# 5 -12.7523 -6.5507 -26.1077 0.0000 28.6577 0.0000
# 6 0.0000 0.0000 0.0000 -8.9172 0.0000 26.5777
#
#
#
# Elastic Compliance Matrix: (Units=1/GPa)
#
#
# Indices 1 2 3 4 5 6 
#
# 1 0.016056 -0.003103 -0.000945 0.000000 0.005575 0.000000
# 2 -0.003103 0.011133 -0.007517 0.000000 -0.005684 0.000000
# 3 -0.000945 -0.007517 0.033504 0.000000 0.028384 0.000000
# 4 0.000000 0.000000 0.000000 0.040526 0.000000 0.013597
# 5 0.005575 -0.005684 0.028384 0.000000 0.061934 0.000000
# 6 0.000000 0.000000 0.000000 0.013597 0.000000 0.042187
#
#
# Mechanical properties :
#
#
# Convention : Reuss Voigt Hill
#
# Bulk Modulus (GPa) = 26.62061 44.82613 35.72337
# Shear Modulus (GPa) = 20.74768 27.96304 24.35536
#
# Velocity S-wave (km/s) = 3.26291 3.78802 3.53523
# Velocity P-wave (km/s) = 5.27784 6.49110 5.91566
#
# Compressibility (1/GPa) = 0.03756488
#
# Stress axis : x y z
#
# Youngs Moduli (GPa) = 62.28143 89.82047 29.84741
#
# Poissons Ratio (x) = 0.27868 0.02819
# Poissons Ratio (y) = 0.19323 0.22436
# Poissons Ratio (z) = 0.05883 0.67518
#
# Static dielectric constant tensor:
#      x y z
#    x 1.749170 0.000000 -0.020430 
#    y 0.000000 1.765980 0.000000 
#    z -0.020430 0.000000 1.781180 
# 
# From -- ./inp_files/55418.got.cif
#   From: 2010.05.17/outbox.cif.g08.bks.cpg/sg15_28_cif.got.tgz:55418.got - 2010.06.03 18:47:42.
