data_PCOD9256829
_publ_section_title
;
Structure prediction by ZEFSAII (Michael W. Deem and Ramdas Pophale) SiO2 
 PCOD9256829
Probable space group: C 2/C
;
_chemical_formula_sum "Si O2"
_cell_formula_units_Z 56
_cell_length_a 20.649981
_cell_length_b 17.110548
_cell_length_c 9.875644
_cell_angle_alpha 90.000000
_cell_angle_beta 136.637926
_cell_angle_gamma 90.000000
_cell_volume 2395.834744
_symmetry_space_group_name_H-M "C 2/C"
_symmetry_group_IT_number 15
_symmetry_cell_setting 'monoclinic'
loop_
_space_group_symop_operation_xyz
x,y,z
-x,y,1/2-z
-x,-y,-z
x,-y,1/2+z
1/2+x,1/2+y,z
1/2-x,1/2+y,1/2-z
1/2-x,1/2-y,-z
1/2+x,1/2-y,1/2+z
loop_
_atom_site_type_symbol
_atom_site_label
_atom_site_fract_x
_atom_site_fract_y
_atom_site_fract_z
Si Si1 0.970297 0.264414 0.416487
Si Si2 0.000000 0.221745 0.750000
Si Si3 0.310458 0.356712 0.054479
Si Si4 0.715911 0.149483 0.859783
Si Si5 0.876878 0.091612 0.289792
Si Si6 0.819825 0.265097 0.820623
Si Si7 0.181187 0.052397 0.679001
Si Si8 0.000000 0.931433 0.750000
O O1 0.886794 0.322812 0.252951
O O2 0.933994 0.173873 0.367829
O O3 0.990644 0.276451 0.606136
O O4 0.068508 0.273486 0.487494
O O5 0.090197 0.166860 0.862013
O O6 0.305789 0.295251 0.174109
O O7 0.303886 0.432599 0.138658
O O8 0.230983 0.340468 0.821607
O O9 0.764057 0.225570 0.860261
O O10 0.727913 0.081604 0.764391
O O11 0.777714 0.116420 0.075366
O O12 0.942635 0.038032 0.291583
O O13 0.854227 0.036991 0.383368
O O14 0.094089 0.100096 0.474930
#
# Coordination Sequence:
#
# PCOD9256829 Si02
#       8
#     8   4   8   8   8   8   8   4
#     4  11  21  34  59  87 113 156 203 252 304 363
#     4  10  18  29  54  88 112 145 198 244 300 351
#     4   9  17  32  52  84 120 148 197 247 291 357
#     4  10  21  40  56  87 118 158 201 249 312 354
#     4  11  22  36  55  86 122 160 195 248 314 379
#     4   9  18  34  55  86 117 148 200 253 293 351
#     4  10  22  35  56  82 125 164 194 245 307 373
#     4  10  20  37  54  84 126 161 190 236 316 371
#
# _framework density 23.373898000000001
#
# number of rings (size 3 to 8) (size 9 to 14) (size 15 to 20)
#    0.000    2.000    1.429    4.286    2.000    3.429 
#    0.000    0.000    0.000    0.857    3.714    0.000 
#    0.000    0.000    0.000    0.000    0.000    0.000 
#
# Total GULP energy -155985.152928 kJ/mol
# GULP energy per Si atom -5570.898319 kJ/mol
# Density = 2.332070 g / cm^3
# Si number density = 23.373898 Si / 1000 Ang^3
#
#
#
# Elastic Constant Matrix: (Units=GPa)
#
#
# Indices 1 2 3 4 5 6 
#
# 1 87.2375 26.4577 28.4292 0.0000 14.5190 0.0000
# 2 26.4577 61.5211 25.6475 0.0000 8.9798 0.0000
# 3 28.4292 25.6475 115.6773 0.0000 15.2529 0.0000
# 4 0.0000 0.0000 0.0000 29.0592 0.0000 0.1443
# 5 14.5190 8.9798 15.2529 0.0000 37.3092 0.0000
# 6 0.0000 0.0000 0.0000 0.1443 0.0000 32.8347
#
#
#
# Elastic Compliance Matrix: (Units=1/GPa)
#
#
# Indices 1 2 3 4 5 6 
#
# 1 0.014130 -0.004744 -0.001952 0.000000 -0.003559 0.000000
# 2 -0.004744 0.019792 -0.002999 0.000000 -0.001691 0.000000
# 3 -0.001952 -0.002999 0.010141 0.000000 -0.002664 0.000000
# 4 0.000000 0.000000 0.000000 0.034413 0.000000 -0.000151
# 5 -0.003559 -0.001691 -0.002664 0.000000 0.029684 0.000000
# 6 0.000000 0.000000 0.000000 -0.000151 0.000000 0.030456
#
#
# Mechanical properties :
#
#
# Convention : Reuss Voigt Hill
#
# Bulk Modulus (GPa) = 40.52939 47.27831 43.90385
# Shear Modulus (GPa) = 30.07878 32.10072 31.08975
#
# Velocity S-wave (km/s) = 3.59117 3.70990 3.65102
# Velocity P-wave (km/s) = 5.87984 6.21467 6.04957
#
# Compressibility (1/GPa) = 0.02467345
#
# Stress axis : x y z
#
# Youngs Moduli (GPa) = 70.77158 50.52571 98.61264
#
# Poissons Ratio (x) = 0.23968 0.19245
# Poissons Ratio (y) = 0.33571 0.29577
# Poissons Ratio (z) = 0.13812 0.15154
#
# Static dielectric constant tensor:
#      x y z
#    x 1.942920 0.000000 -0.061050 
#    y 0.000000 2.021110 0.000000 
#    z -0.061050 0.000000 1.963910 
# 
# From -- ./inp_files/119896.got.cif
#   From: 2010.05.17/outbox.cif.g08.bks.cpg/sg15_60_cif.got.tgz:119896.got - 2010.06.03 18:47:42.
