data_PCOD9256838
_publ_section_title
;
Structure prediction by ZEFSAII (Michael W. Deem and Ramdas Pophale) SiO2 
 PCOD9256838
Probable space group: C 2/C
;
_chemical_formula_sum "Si O2"
_cell_formula_units_Z 40
_cell_length_a 8.834530
_cell_length_b 24.129410
_cell_length_c 12.791942
_cell_angle_alpha 90.000000
_cell_angle_beta 133.137222
_cell_angle_gamma 90.000000
_cell_volume 1989.856848
_symmetry_space_group_name_H-M "C 2/C"
_symmetry_group_IT_number 15
_symmetry_cell_setting 'monoclinic'
loop_
_space_group_symop_operation_xyz
x,y,z
-x,y,1/2-z
-x,-y,-z
x,-y,1/2+z
1/2+x,1/2+y,z
1/2-x,1/2+y,1/2-z
1/2-x,1/2-y,-z
1/2+x,1/2-y,1/2+z
loop_
_atom_site_type_symbol
_atom_site_label
_atom_site_fract_x
_atom_site_fract_y
_atom_site_fract_z
Si Si1 0.196762 0.310809 0.761615
Si Si2 0.229029 0.910675 0.392957
Si Si3 0.795679 0.535136 0.722222
Si Si4 0.120254 0.922257 0.572157
Si Si5 0.144718 0.285955 0.044172
O O1 0.329257 0.365407 0.845385
O O2 0.326041 0.255666 0.847076
O O3 0.000000 0.314736 0.750000
O O4 0.914469 0.302827 0.901404
O O5 0.359372 0.941303 0.365863
O O6 0.254521 0.923893 0.527060
O O7 0.242774 0.844411 0.388434
O O8 0.000000 0.928799 0.250000
O O9 0.688848 0.474604 0.673180
O O10 0.616793 0.572143 0.580190
O O11 0.000000 0.533082 0.750000
O O12 0.250000 0.250000 0.000000
#
# Coordination Sequence:
#
# PCOD9256838 Si02
#       5
#     8   8   8   8   8
#     4  10  18  30  54  89 122 136 183 251 300 332
#     4  10  19  34  58  86 113 150 198 241 292 347
#     4  10  23  37  56  82 119 159 195 241 291 348
#     4  10  20  38  57  84 115 155 196 243 284 349
#     4  10  18  29  55  94 116 140 183 255 300 332
#
# _framework density 20.101949000000001
#
# number of rings (size 3 to 8) (size 9 to 14) (size 15 to 20)
#    0.000    2.000    4.000    2.400    2.800    0.800 
#    0.000    0.000    0.000    1.200    0.000    0.000 
#    0.000    0.000    0.000    0.000    0.000    0.000 
#
# Total GULP energy -111468.599757 kJ/mol
# GULP energy per Si atom -5573.429988 kJ/mol
# Density = 2.005620 g / cm^3
# Si number density = 20.101949 Si / 1000 Ang^3
#
#
#
# Elastic Constant Matrix: (Units=GPa)
#
#
# Indices 1 2 3 4 5 6 
#
# 1 22.7620 8.6490 8.2197 0.0000 3.5557 0.0000
# 2 8.6490 106.3171 31.2942 0.0000 -4.3916 0.0000
# 3 8.2197 31.2942 77.3964 0.0000 6.4823 0.0000
# 4 0.0000 0.0000 0.0000 43.3037 0.0000 1.6253
# 5 3.5557 -4.3916 6.4823 0.0000 18.6393 0.0000
# 6 0.0000 0.0000 0.0000 1.6253 0.0000 17.1806
#
#
#
# Elastic Compliance Matrix: (Units=1/GPa)
#
#
# Indices 1 2 3 4 5 6 
#
# 1 0.047666 -0.003374 -0.002956 0.000000 -0.008860 0.000000
# 2 -0.003374 0.011234 -0.004594 0.000000 0.004888 0.000000
# 3 -0.002956 -0.004594 0.015589 0.000000 -0.005940 0.000000
# 4 0.000000 0.000000 0.000000 0.023175 0.000000 -0.002192
# 5 -0.008860 0.004888 -0.005940 0.000000 0.058558 0.000000
# 6 0.000000 0.000000 0.000000 -0.002192 0.000000 0.058413
#
#
# Mechanical properties :
#
#
# Convention : Reuss Voigt Hill
#
# Bulk Modulus (GPa) = 18.99580 33.64459 26.32020
# Shear Modulus (GPa) = 19.68278 26.37889 23.03084
#
# Velocity S-wave (km/s) = 3.13253 3.62644 3.38849
# Velocity P-wave (km/s) = 4.74909 5.85731 5.33207
#
# Compressibility (1/GPa) = 0.05264322
#
# Stress axis : x y z
#
# Youngs Moduli (GPa) = 20.97925 89.01334 64.14657
#
# Poissons Ratio (x) = 0.30029 0.18963
# Poissons Ratio (y) = 0.07077 0.29466
# Poissons Ratio (z) = 0.06202 0.40889
#
# Static dielectric constant tensor:
#      x y z
#    x 1.827750 0.000000 -0.106770 
#    y 0.000000 1.695210 0.000000 
#    z -0.106770 0.000000 1.908970 
# 
# From -- ./inp_files/136300.got.cif
#   From: 2010.05.17/outbox.cif.g08.bks.cpg/sg15_69_cif.got.tgz:136300.got - 2010.06.03 18:47:42.
