data_PCOD9256716
_publ_section_title
;
Structure prediction by ZEFSAII (Michael W. Deem and Ramdas Pophale) SiO2 
 PCOD9256716
Probable space group: C 2/C
;
_chemical_formula_sum "Si O2"
_cell_formula_units_Z 60
_cell_length_a 30.582512
_cell_length_b 29.045313
_cell_length_c 5.495311
_cell_angle_alpha 90.000000
_cell_angle_beta 132.005237
_cell_angle_gamma 90.000000
_cell_volume 3627.264322
_symmetry_space_group_name_H-M "C 2/C"
_symmetry_group_IT_number 15
_symmetry_cell_setting 'monoclinic'
loop_
_space_group_symop_operation_xyz
x,y,z
-x,y,1/2-z
-x,-y,-z
x,-y,1/2+z
1/2+x,1/2+y,z
1/2-x,1/2+y,1/2-z
1/2-x,1/2-y,-z
1/2+x,1/2-y,1/2+z
loop_
_atom_site_type_symbol
_atom_site_label
_atom_site_fract_x
_atom_site_fract_y
_atom_site_fract_z
Si Si1 0.106145 0.317293 0.915757
Si Si2 0.699523 0.882216 0.996448
Si Si3 0.000000 0.638246 0.750000
Si Si4 0.321808 0.731580 0.484801
Si Si5 0.096451 0.614237 0.749979
Si Si6 0.224091 0.484804 0.095130
Si Si7 0.787773 0.198342 0.857660
Si Si8 0.410203 0.020126 0.991651
O O1 0.156129 0.353139 0.008542
O O2 0.044831 0.330202 0.566283
O O3 0.129521 0.267778 0.927682
O O4 0.098272 0.333061 0.164629
O O5 0.658422 0.893502 0.611842
O O6 0.719545 0.931794 0.160700
O O7 0.753422 0.847882 0.154755
O O8 0.042444 0.609381 0.733392
O O9 0.261703 0.761520 0.294787
O O10 0.329661 0.711466 0.786083
O O11 0.313904 0.696552 0.228709
O O12 0.087192 0.575320 0.512410
O O13 0.251855 0.511359 0.428278
O O14 0.158317 0.504231 0.790294
O O15 0.435201 0.999652 0.834083
#
# Coordination Sequence:
#
# PCOD9256716 Si02
#       8
#     8   8   4   8   8   8   8   8
#     4  10  21  34  52  63  86 119 146 195 241 284
#     4  10  20  29  50  68  92 118 147 190 237 272
#     4  10  24  36  46  70  82 112 162 194 248 290
#     4   9  19  32  48  67  94 112 140 178 229 285
#     4  11  21  34  50  65  88 116 153 202 244 278
#     4  10  18  29  44  67  88 117 155 185 222 269
#     4   9  19  30  45  73  93 113 141 175 228 287
#     4  10  19  33  49  64  85 111 152 191 236 283
#
# _framework density 16.541391000000001
#
# number of rings (size 3 to 8) (size 9 to 14) (size 15 to 20)
#    0.000    2.133    2.667    2.000   13.067    0.000 
#    0.000    0.667    0.000    0.000    0.000    0.000 
#    0.000    0.000    0.000    0.000    0.000    0.000 
#
# Total GULP energy -167103.932576 kJ/mol
# GULP energy per Si atom -5570.131086 kJ/mol
# Density = 1.650374 g / cm^3
# Si number density = 16.541391 Si / 1000 Ang^3
#
#
#
# Elastic Constant Matrix: (Units=GPa)
#
#
# Indices 1 2 3 4 5 6 
#
# 1 46.2358 34.2224 24.7431 0.0000 -17.9116 0.0000
# 2 34.2224 59.6027 15.8596 0.0000 0.0595 0.0000
# 3 24.7431 15.8596 36.1781 0.0000 -17.4001 0.0000
# 4 0.0000 0.0000 0.0000 3.2296 0.0000 -9.3802
# 5 -17.9116 0.0595 -17.4001 0.0000 21.1878 0.0000
# 6 0.0000 0.0000 0.0000 -9.3802 0.0000 9.4481
#
#
#
# Elastic Compliance Matrix: (Units=1/GPa)
#
#
# Indices 1 2 3 4 5 6 
#
# 1 0.088170 -0.049518 -0.004427 0.000000 0.071040 0.000000
# 2 -0.049518 0.048626 -0.012643 0.000000 -0.052380 0.000000
# 3 -0.004427 -0.012643 0.056904 0.000000 0.043025 0.000000
# 4 0.000000 0.000000 0.000000 -0.164390 0.000000 -0.163209
# 5 0.071040 -0.052380 0.043025 0.000000 0.142733 0.000000
# 6 0.000000 0.000000 0.000000 -0.163209 0.000000 -0.056194
#
#
# Mechanical properties :
#
#
# Convention : Reuss Voigt Hill
#
# Bulk Modulus (GPa) = 16.52207 32.40741 24.46474
# Shear Modulus (GPa) = 18.57367 11.25254 14.91310
#
# Velocity S-wave (km/s) = 3.35455 2.61102 3.00586
# Velocity P-wave (km/s) = 5.00140 5.35949 5.18354
#
# Compressibility (1/GPa) = 0.06052509
#
# Stress axis : x y z
#
# Youngs Moduli (GPa) = 11.34176 20.56507 17.57348
#
# Poissons Ratio (x) = 1.01834 0.07779
# Poissons Ratio (y) = 0.56162 0.22218
# Poissons Ratio (z) = 0.05021 0.26000
#
# Static dielectric constant tensor:
#      x y z
#    x 1.664020 0.000000 -0.072680 
#    y 0.000000 1.571310 0.000000 
#    z -0.072680 0.000000 1.610200 
# 
# From -- ./inp_files/14261.got.cif
#   From: 2010.05.17/outbox.cif.g08.bks.cpg/sg15_8_cif.got.tgz:14261.got - 2010.06.03 18:47:42.
