data_PCOD9256205
_publ_section_title
;
Structure prediction by ZEFSAII (Michael W. Deem and Ramdas Pophale) SiO2 
 PCOD9256205
Probable space group: C 2/C
;
_chemical_formula_sum "Si O2"
_cell_formula_units_Z 56
_cell_length_a 9.448242
_cell_length_b 16.391138
_cell_length_c 20.480623
_cell_angle_alpha 90.000000
_cell_angle_beta 98.889023
_cell_angle_gamma 90.000000
_cell_volume 3133.686901
_symmetry_space_group_name_H-M "C 2/C"
_symmetry_group_IT_number 15
_symmetry_cell_setting 'monoclinic'
loop_
_space_group_symop_operation_xyz
x,y,z
-x,y,1/2-z
-x,-y,-z
x,-y,1/2+z
1/2+x,1/2+y,z
1/2-x,1/2+y,1/2-z
1/2-x,1/2-y,-z
1/2+x,1/2-y,1/2+z
loop_
_atom_site_type_symbol
_atom_site_label
_atom_site_fract_x
_atom_site_fract_y
_atom_site_fract_z
Si Si1 0.500000 0.994979 0.250000
Si Si2 0.932611 0.220904 0.140887
Si Si3 0.221198 0.980924 0.662584
Si Si4 0.500000 0.412216 0.750000
Si Si5 0.643040 0.689163 0.907310
Si Si6 0.327600 0.147892 0.803597
Si Si7 0.678885 0.671069 0.657896
Si Si8 0.350486 0.342321 0.943023
O O1 0.619174 0.040484 0.300668
O O2 0.592970 0.934507 0.211217
O O3 0.923148 0.146650 0.191610
O O4 0.785555 0.269613 0.126729
O O5 0.050980 0.283838 0.177694
O O6 0.002054 0.191231 0.078194
O O7 0.209515 0.076107 0.643719
O O8 0.111849 0.963507 0.714772
O O9 0.182886 0.923809 0.599321
O O10 0.737477 0.638686 0.862716
O O11 0.483608 0.694147 0.867891
O O12 0.725422 0.775801 0.919663
O O13 0.638619 0.650079 0.978756
O O14 0.225158 0.176220 0.737270
#
# Coordination Sequence:
#
# PCOD9256205 Si02
#       8
#     4   8   8   4   8   8   8   8
#     4  10  19  34  56  83 112 142 180 240 289 332
#     4  10  17  36  61  76 112 151 183 216 288 347
#     4  10  22  35  56  84 117 138 186 237 288 327
#     4  10  19  34  52  83 114 146 166 240 289 328
#     4  10  22  36  61  77 115 152 195 226 271 346
#     4  10  17  35  57  85 105 143 185 229 278 332
#     4  11  20  33  61  90 103 144 196 232 273 337
#     4   9  22  42  53  80 117 157 181 230 287 326
#
# _framework density 17.870324
#
# number of rings (size 3 to 8) (size 9 to 14) (size 15 to 20)
#    0.000    2.000    4.286    0.429    4.000    2.286 
#    0.000    0.714    0.000    0.000    0.000    0.000 
#    0.000    0.000    0.000    0.000    0.000    0.000 
#
# Total GULP energy -156193.104937 kJ/mol
# GULP energy per Si atom -5578.325176 kJ/mol
# Density = 1.782965 g / cm^3
# Si number density = 17.870324 Si / 1000 Ang^3
#
#
#
# Elastic Constant Matrix: (Units=GPa)
#
#
# Indices 1 2 3 4 5 6 
#
# 1 112.5461 21.1918 38.3986 0.0000 -9.8005 0.0000
# 2 21.1918 39.9692 7.7310 0.0000 -10.9628 0.0000
# 3 38.3986 7.7310 82.0336 0.0000 -27.3743 0.0000
# 4 0.0000 0.0000 0.0000 7.4206 0.0000 3.6457
# 5 -9.8005 -10.9628 -27.3743 0.0000 20.5622 0.0000
# 6 0.0000 0.0000 0.0000 3.6457 0.0000 20.8930
#
#
#
# Elastic Compliance Matrix: (Units=1/GPa)
#
#
# Indices 1 2 3 4 5 6 
#
# 1 0.012202 -0.007295 -0.007884 0.000000 -0.008569 0.000000
# 2 -0.007295 0.034581 0.009263 0.000000 0.027291 0.000000
# 3 -0.007884 0.009263 0.027713 0.000000 0.038075 0.000000
# 4 0.000000 0.000000 0.000000 0.147396 0.000000 -0.025720
# 5 -0.008569 0.027291 0.038075 0.000000 0.109788 0.000000
# 6 0.000000 0.000000 0.000000 -0.025720 0.000000 0.052351
#
#
# Mechanical properties :
#
#
# Convention : Reuss Voigt Hill
#
# Bulk Modulus (GPa) = 15.95807 41.02131 28.48969
# Shear Modulus (GPa) = 11.99757 20.92365 16.46061
#
# Velocity S-wave (km/s) = 2.59389 3.42550 3.03828
# Velocity P-wave (km/s) = 4.23324 6.21693 5.31839
#
# Compressibility (1/GPa) = 0.06266420
#
# Stress axis : x y z
#
# Youngs Moduli (GPa) = 81.95056 28.91759 36.08434
#
# Poissons Ratio (x) = 0.21096 0.28448
# Poissons Ratio (y) = 0.59784 -0.33424
# Poissons Ratio (z) = 0.64607 -0.26786
#
# Static dielectric constant tensor:
#      x y z
#    x 1.608510 0.000000 -0.005760 
#    y 0.000000 1.615760 0.000000 
#    z -0.005760 0.000000 1.608730 
# 
# From -- ./inp_files/231612.got.cif
#   From: 2010.05.17/outbox.cif.g08.bks.cpg/sg15_116_cif.got.tgz:231612.got - 2010.06.03 18:47:42.
