data_PCOD9256893
_publ_section_title
;
Structure prediction by ZEFSAII (Michael W. Deem and Ramdas Pophale) SiO2 
 PCOD9256893
Probable space group: C 2/C
;
_chemical_formula_sum "Si O2"
_cell_formula_units_Z 64
_cell_length_a 19.868037
_cell_length_b 6.809294
_cell_length_c 20.979732
_cell_angle_alpha 90.000000
_cell_angle_beta 75.688015
_cell_angle_gamma 90.000000
_cell_volume 2750.202316
_symmetry_space_group_name_H-M "C 2/C"
_symmetry_group_IT_number 15
_symmetry_cell_setting 'monoclinic'
loop_
_space_group_symop_operation_xyz
x,y,z
-x,y,1/2-z
-x,-y,-z
x,-y,1/2+z
1/2+x,1/2+y,z
1/2-x,1/2+y,1/2-z
1/2-x,1/2-y,-z
1/2+x,1/2-y,1/2+z
loop_
_atom_site_type_symbol
_atom_site_label
_atom_site_fract_x
_atom_site_fract_y
_atom_site_fract_z
Si Si1 0.736234 0.405974 0.910849
Si Si2 0.058967 0.816026 0.784986
Si Si3 0.959491 0.289028 0.696564
Si Si4 0.316431 0.478287 0.444598
Si Si5 0.189701 0.649898 0.231128
Si Si6 0.530057 0.322457 0.061338
Si Si7 0.802378 0.896265 0.812021
Si Si8 0.576395 0.679085 0.419930
O O1 0.780237 0.226467 0.931117
O O2 0.778185 0.468808 0.837044
O O3 0.659827 0.342229 0.902579
O O4 0.715250 0.531878 0.978677
O O5 0.055367 0.734358 0.857098
O O6 0.000000 0.757381 0.750000
O O7 0.050944 0.051955 0.797944
O O8 0.131868 0.790869 0.733748
O O9 0.885612 0.388954 0.722391
O O10 0.000000 0.340541 0.750000
O O11 0.005384 0.318269 0.623298
O O12 0.399624 0.439479 0.433331
O O13 0.300828 0.620937 0.388828
O O14 0.186447 0.870254 0.203584
O O15 0.238370 0.649933 0.281459
O O16 0.464621 0.469691 0.065498
O O17 0.551834 0.218462 0.990554
#
# Coordination Sequence:
#
# PCOD9256893 Si02
#       8
#     8   8   8   8   8   8   8   8
#     4   9  16  28  44  72  98 129 165 204 255 301
#     4   9  15  25  44  69  96 121 156 206 247 286
#     4   9  16  27  44  69  94 120 161 210 250 283
#     4   9  17  28  47  72 101 125 166 217 250 294
#     4  10  19  30  50  73  98 131 162 210 252 303
#     4   9  16  26  42  71  98 121 158 211 259 290
#     4  10  18  30  47  74 100 125 165 205 253 299
#     4   9  15  24  41  68  98 126 152 199 262 303
#
# _framework density 23.271013
#
# number of rings (size 3 to 8) (size 9 to 14) (size 15 to 20)
#    0.000    2.750    1.250    3.750    0.000    0.000 
#    0.000    0.000    0.000    1.500    0.000   28.000 
#    0.000    0.000    0.000    0.000    0.000    0.000 
#
# Total GULP energy -178500.460254 kJ/mol
# GULP energy per Si atom -5578.139383 kJ/mol
# Density = 2.321805 g / cm^3
# Si number density = 23.271013 Si / 1000 Ang^3
#
#
#
# Elastic Constant Matrix: (Units=GPa)
#
#
# Indices 1 2 3 4 5 6 
#
# 1 154.0698 -0.4096 79.4765 0.0000 -1.6209 0.0000
# 2 -0.4096 61.3135 17.8146 0.0000 -8.7441 0.0000
# 3 79.4765 17.8146 277.6408 0.0000 -1.4820 0.0000
# 4 0.0000 0.0000 0.0000 15.8062 0.0000 -5.8139
# 5 -1.6209 -8.7441 -1.4820 0.0000 41.7854 0.0000
# 6 0.0000 0.0000 0.0000 -5.8139 0.0000 14.3251
#
#
#
# Elastic Compliance Matrix: (Units=1/GPa)
#
#
# Indices 1 2 3 4 5 6 
#
# 1 0.007650 0.000754 -0.002236 0.000000 0.000375 0.000000
# 2 0.000754 0.017204 -0.001301 0.000000 0.003583 0.000000
# 3 -0.002236 -0.001301 0.004324 0.000000 -0.000206 0.000000
# 4 0.000000 0.000000 0.000000 0.074368 0.000000 0.030182
# 5 0.000375 0.003583 -0.000206 0.000000 0.024689 0.000000
# 6 0.000000 0.000000 0.000000 0.030182 0.000000 0.082057
#
#
# Mechanical properties :
#
#
# Convention : Reuss Voigt Hill
#
# Bulk Modulus (GPa) = 42.34992 76.30969 59.32981
# Shear Modulus (GPa) = 22.34856 40.79285 31.57070
#
# Velocity S-wave (km/s) = 3.10233 4.19136 3.68727
# Velocity P-wave (km/s) = 5.57411 7.50242 6.60897
#
# Compressibility (1/GPa) = 0.02361279
#
# Stress axis : x y z
#
# Youngs Moduli (GPa) = 130.71712 58.12744 231.25188
#
# Poissons Ratio (x) = -0.04385 0.51715
# Poissons Ratio (y) = -0.09861 0.30078
# Poissons Ratio (z) = 0.29232 0.07560
#
# Static dielectric constant tensor:
#      x y z
#    x 1.732780 0.000000 -0.008140 
#    y 0.000000 1.960520 0.000000 
#    z -0.008140 0.000000 1.919070 
# 
# From -- ./inp_files/248143.got.cif
#   From: 2010.05.17/outbox.cif.g08.bks.cpg/sg15_125_cif.got.tgz:248143.got - 2010.06.03 18:47:42.
