data_PCOD9256955
_publ_section_title
;
Structure prediction by ZEFSAII (Michael W. Deem and Ramdas Pophale) SiO2 
 PCOD9256955
Probable space group: C 2/C
;
_chemical_formula_sum "Si O2"
_cell_formula_units_Z 60
_cell_length_a 8.737724
_cell_length_b 18.821364
_cell_length_c 28.947308
_cell_angle_alpha 90.000000
_cell_angle_beta 141.046083
_cell_angle_gamma 90.000000
_cell_volume 2992.937818
_symmetry_space_group_name_H-M "C 2/C"
_symmetry_group_IT_number 15
_symmetry_cell_setting 'monoclinic'
loop_
_space_group_symop_operation_xyz
x,y,z
-x,y,1/2-z
-x,-y,-z
x,-y,1/2+z
1/2+x,1/2+y,z
1/2-x,1/2+y,1/2-z
1/2-x,1/2-y,-z
1/2+x,1/2-y,1/2+z
loop_
_atom_site_type_symbol
_atom_site_label
_atom_site_fract_x
_atom_site_fract_y
_atom_site_fract_z
Si Si1 0.113095 0.429041 0.545044
Si Si2 0.001461 0.225477 0.198658
Si Si3 0.045479 0.305326 0.936546
Si Si4 0.260703 0.165497 0.513176
Si Si5 0.240439 0.313456 0.175324
Si Si6 0.000000 0.427872 0.750000
Si Si7 0.074353 0.941741 0.715390
Si Si8 0.280137 0.175495 0.121494
O O1 0.200865 0.378779 0.524266
O O2 0.337337 0.452372 0.629083
O O3 0.000000 0.500000 0.500000
O O4 0.931332 0.379962 0.531902
O O5 0.724417 0.223171 0.115297
O O6 0.000000 0.254490 0.250000
O O7 0.162479 0.270572 0.202341
O O8 0.096108 0.144468 0.222313
O O9 0.048565 0.320106 0.882701
O O10 0.250000 0.250000 0.000000
O O11 0.250000 0.250000 0.500000
O O12 0.492762 0.147726 0.600097
O O13 0.981041 0.152728 0.461381
O O14 0.500000 0.348796 0.250000
O O15 0.278542 0.253507 0.144544
O O16 0.190748 0.466833 0.759606
O O17 0.150457 0.378284 0.821168
O O18 0.000000 0.965266 0.750000
#
# Coordination Sequence:
#
# PCOD9256955 Si02
#       8
#     8   8   8   8   8   4   8   8
#     4  11  23  42  60  88 128 166 198 252 320 381
#     4  10  18  30  49  84 121 150 199 262 308 352
#     4  11  21  35  57  88 117 158 203 252 311 371
#     4  10  20  36  58  86 121 159 206 254 303 374
#     4  11  18  30  50  82 118 163 202 249 307 376
#     4  12  16  30  58  88 120 150 206 272 324 356
#     4  10  19  34  58  90 119 156 211 264 311 370
#     4  11  18  30  54  84 118 146 200 267 316 352
#
# _framework density 20.047191999999999
#
# number of rings (size 3 to 8) (size 9 to 14) (size 15 to 20)
#    0.000    1.333    3.333    8.000    0.000    0.000 
#    0.000    1.333    0.000    0.000    5.200    0.000 
#    0.000    0.000    0.000    0.000    0.000    0.000 
#
# Total GULP energy -167282.123183 kJ/mol
# GULP energy per Si atom -5576.070773 kJ/mol
# Density = 2.000156 g / cm^3
# Si number density = 20.047192 Si / 1000 Ang^3
#
#
#
# Elastic Constant Matrix: (Units=GPa)
#
#
# Indices 1 2 3 4 5 6 
#
# 1 107.3345 22.8424 25.8758 0.0002 6.5228 0.0001
# 2 22.8424 41.5267 25.1076 0.0003 -0.0823 0.0002
# 3 25.8758 25.1076 156.7991 0.0004 19.3761 0.0004
# 4 0.0002 0.0003 0.0004 11.5775 0.0002 3.2197
# 5 6.5228 -0.0823 19.3761 0.0002 29.6281 0.0001
# 6 0.0001 0.0002 0.0004 3.2197 0.0001 -0.2031
#
#
#
# Elastic Compliance Matrix: (Units=1/GPa)
#
#
# Indices 1 2 3 4 5 6 
#
# 1 0.010770 -0.005536 -0.000648 0.000000 -0.001963 0.000000
# 2 -0.005536 0.029775 -0.004368 -0.000001 0.004158 0.000002
# 3 -0.000648 -0.004368 0.007798 0.000000 -0.004969 0.000001
# 4 0.000000 -0.000001 0.000000 0.015972 -0.000001 0.253157
# 5 -0.001963 0.004158 -0.004969 -0.000001 0.037445 0.000001
# 6 0.000000 0.000002 0.000001 0.253157 0.000001 -0.910309
#
#
# Mechanical properties :
#
#
# Convention : Reuss Voigt Hill
#
# Bulk Modulus (GPa) = 36.71271 50.36800 43.54036
# Shear Modulus (GPa) = -6.42374 23.65613 8.61619
#
# Velocity S-wave (km/s) = -1.79200 3.43887 2.07540
# Velocity P-wave (km/s) = 3.75116 6.39899 5.24491
#
# Compressibility (1/GPa) = 0.02723852
#
# Stress axis : x y z
#
# Youngs Moduli (GPa) = 92.84658 33.58470 128.23689
#
# Poissons Ratio (x) = 0.18594 0.08314
# Poissons Ratio (y) = 0.51403 0.56014
# Poissons Ratio (z) = 0.06020 0.14670
#
# Static dielectric constant tensor:
#      x y z
#    x 1.771730 0.000020 0.023130 
#    y 0.000020 0.928320 0.000000 
#    z 0.023130 0.000000 1.777600 
# 
# From -- ./inp_files/308941.got.cif
#   From: 2010.05.17/outbox.cif.g08.bks.cpg/sg15_155_cif.got.tgz:308941.got - 2010.06.03 18:47:42.
