data_PCOD9256690
_publ_section_title
;
Structure prediction by ZEFSAII (Michael W. Deem and Ramdas Pophale) SiO2 
 PCOD9256690
Probable space group: C 2/C
;
_chemical_formula_sum "Si O2"
_cell_formula_units_Z 52
_cell_length_a 11.463118
_cell_length_b 13.798253
_cell_length_c 24.661545
_cell_angle_alpha 90.000000
_cell_angle_beta 142.182927
_cell_angle_gamma 90.000000
_cell_volume 2391.710177
_symmetry_space_group_name_H-M "C 2/C"
_symmetry_group_IT_number 15
_symmetry_cell_setting 'monoclinic'
loop_
_space_group_symop_operation_xyz
x,y,z
-x,y,1/2-z
-x,-y,-z
x,-y,1/2+z
1/2+x,1/2+y,z
1/2-x,1/2+y,1/2-z
1/2-x,1/2-y,-z
1/2+x,1/2-y,1/2+z
loop_
_atom_site_type_symbol
_atom_site_label
_atom_site_fract_x
_atom_site_fract_y
_atom_site_fract_z
Si Si1 0.790130 0.533827 0.289351
Si Si2 0.733012 0.432405 0.428080
Si Si3 0.000000 0.101159 0.750000
Si Si4 0.765896 0.511714 0.055559
Si Si5 0.883586 0.796788 0.504065
Si Si6 0.829460 0.371099 0.908091
Si Si7 0.778809 0.366273 0.669932
O O1 0.654745 0.457106 0.269523
O O2 0.774305 0.624015 0.325039
O O3 0.752419 0.568438 0.214498
O O4 0.008180 0.497473 0.372286
O O5 0.624420 0.362409 0.346498
O O6 0.680224 0.432333 0.471895
O O7 0.716707 0.544559 0.400118
O O8 0.952590 0.404266 0.506342
O O9 0.754563 0.570404 0.106759
O O10 0.667098 0.408517 0.022349
O O11 0.750000 0.750000 0.500000
O O12 0.828059 0.735133 0.431266
O O13 0.104089 0.791345 0.603238
O O14 0.000000 0.331038 0.750000
#
# Coordination Sequence:
#
# PCOD9256690 Si02
#       7
#     8   8   4   8   8   8   8
#     4   9  20  38  62  88 122 172 212 260 310 383
#     4   9  17  35  58  87 117 170 206 250 306 384
#     4  10  18  28  60  86 118 154 222 252 298 356
#     4  10  20  40  65  87 122 168 214 251 319 387
#     4  12  23  37  65  97 128 163 211 268 318 375
#     4   9  19  36  59  86 127 158 208 255 318 368
#     4  10  23  44  64  88 130 172 209 258 323 385
#
# _framework density 21.741764
#
# number of rings (size 3 to 8) (size 9 to 14) (size 15 to 20)
#    0.000    2.154    1.538    2.308    2.154    0.000 
#    1.385   11.538    0.000    0.000    0.000    0.000 
#    0.000    0.000    0.000    0.000    0.000    0.000 
#
# Total GULP energy -144958.325034 kJ/mol
# GULP energy per Si atom -5575.320194 kJ/mol
# Density = 2.169228 g / cm^3
# Si number density = 21.741764 Si / 1000 Ang^3
#
#
#
# Elastic Constant Matrix: (Units=GPa)
#
#
# Indices 1 2 3 4 5 6 
#
# 1 114.5343 19.1506 52.2412 0.0000 -7.2255 0.0000
# 2 19.1506 38.8771 20.7257 0.0000 -1.3791 0.0000
# 3 52.2412 20.7257 112.9055 0.0000 -29.5714 0.0000
# 4 0.0000 0.0000 0.0000 29.9844 0.0000 -4.1810
# 5 -7.2255 -1.3791 -29.5714 0.0000 53.7020 0.0000
# 6 0.0000 0.0000 0.0000 -4.1810 0.0000 19.1625
#
#
#
# Elastic Compliance Matrix: (Units=1/GPa)
#
#
# Indices 1 2 3 4 5 6 
#
# 1 0.011478 -0.002973 -0.005119 0.000000 -0.001351 0.000000
# 2 -0.002973 0.029575 -0.004627 0.000000 -0.002188 0.000000
# 3 -0.005119 -0.004627 0.013862 0.000000 0.006826 0.000000
# 4 0.000000 0.000000 0.000000 0.034397 0.000000 0.007505
# 5 -0.001351 -0.002188 0.006826 0.000000 0.022142 0.000000
# 6 0.000000 0.000000 0.000000 0.007505 0.000000 0.053823
#
#
# Mechanical properties :
#
#
# Convention : Reuss Voigt Hill
#
# Bulk Modulus (GPa) = 33.92242 50.06133 41.99187
# Shear Modulus (GPa) = 24.93266 32.18309 28.55787
#
# Velocity S-wave (km/s) = 3.39006 3.85157 3.62816
# Velocity P-wave (km/s) = 5.56414 6.54636 6.07513
#
# Compressibility (1/GPa) = 0.02947903
#
# Stress axis : x y z
#
# Youngs Moduli (GPa) = 87.12605 33.81194 72.13710
#
# Poissons Ratio (x) = 0.10052 0.36925
# Poissons Ratio (y) = 0.25901 0.33375
# Poissons Ratio (z) = 0.44597 0.15643
#
# Static dielectric constant tensor:
#      x y z
#    x 1.825210 0.000000 0.029280 
#    y 0.000000 1.814320 0.000000 
#    z 0.029280 0.000000 1.864450 
# 
# From -- ./inp_files/270009.got.cif
#   From: 2010.05.17/outbox.cif.g08.bks.cpg/sg15_136_cif.got.tgz:270009.got - 2010.06.03 18:47:42.
