data_PCOD9256561
_publ_section_title
;
Structure prediction by ZEFSAII (Michael W. Deem and Ramdas Pophale) SiO2 
 PCOD9256561
Probable space group: C 2/C
;
_chemical_formula_sum "Si O2"
_cell_formula_units_Z 64
_cell_length_a 20.883075
_cell_length_b 27.444586
_cell_length_c 8.514100
_cell_angle_alpha 90.000000
_cell_angle_beta 114.060643
_cell_angle_gamma 90.000000
_cell_volume 4455.691290
_symmetry_space_group_name_H-M "C 2/C"
_symmetry_group_IT_number 15
_symmetry_cell_setting 'monoclinic'
loop_
_space_group_symop_operation_xyz
x,y,z
-x,y,1/2-z
-x,-y,-z
x,-y,1/2+z
1/2+x,1/2+y,z
1/2-x,1/2+y,1/2-z
1/2-x,1/2-y,-z
1/2+x,1/2-y,1/2+z
loop_
_atom_site_type_symbol
_atom_site_label
_atom_site_fract_x
_atom_site_fract_y
_atom_site_fract_z
Si Si1 0.293304 0.703356 0.104916
Si Si2 0.921065 0.553105 0.610041
Si Si3 0.421505 0.754853 0.109358
Si Si4 0.293304 0.703356 0.481693
Si Si5 0.837910 0.352183 0.646887
Si Si6 0.421065 0.053105 0.232088
Si Si7 0.662090 0.852183 0.471067
Si Si8 0.421505 0.245147 0.233652
O O1 0.370677 0.711366 0.115394
O O2 0.296582 0.704649 0.296582
O O3 0.242701 0.658697 0.006059
O O4 0.250000 0.750000 0.000000
O O5 0.922690 0.552256 0.422690
O O6 0.899026 0.500000 0.649026
O O7 0.871174 0.597060 0.614461
O O8 0.000000 0.561929 0.750000
O O9 0.500000 0.750935 0.250000
O O10 0.386009 0.806162 0.127684
O O11 0.421879 0.755323 0.921879
O O12 0.250000 0.750000 0.500000
O O13 0.242701 0.658697 0.479343
O O14 0.370677 0.711366 0.625961
O O15 0.871174 0.402940 0.627886
O O16 0.839497 0.352081 0.839497
O O17 0.886009 0.306162 0.644334
O O18 0.500000 0.061929 0.250000
O O19 0.500000 0.249065 0.250000
#
# Coordination Sequence:
#
# PCOD9256561 Si02
#       8
#     8   8   8   8   8   8   8   8
#     4   9  16  28  42  58  79 105 133 166 201 238
#     4  10  18  29  41  57  79 105 135 169 201 233
#     4  10  18  28  41  60  82 108 137 167 199 237
#     4   9  16  28  42  58  79 105 133 166 201 238
#     4   8  16  28  42  57  78 106 137 166 199 236
#     4  10  18  29  41  57  79 105 135 169 201 233
#     4   8  16  28  42  57  78 106 137 166 199 236
#     4  10  18  28  41  60  82 108 137 167 199 237
#
# _framework density 14.363652
#
# number of rings (size 3 to 8) (size 9 to 14) (size 15 to 20)
#    0.000    2.750    0.000    5.250    0.000    0.000 
#    0.000   13.750    0.000    0.000    0.000    0.000 
#    0.000    1.000    0.000   11.500    0.000    3.500 
#
# Total GULP energy -178156.499952 kJ/mol
# GULP energy per Si atom -5567.390624 kJ/mol
# Density = 1.433096 g / cm^3
# Si number density = 14.363652 Si / 1000 Ang^3
#
#
#
# Elastic Constant Matrix: (Units=GPa)
#
#
# Indices 1 2 3 4 5 6 
#
# 1 104.6769 58.1906 31.8936 0.0000 19.9873 0.0000
# 2 58.1906 97.9393 31.3068 0.0000 19.5723 0.0000
# 3 31.8936 31.3068 57.3643 0.0000 14.4579 0.0000
# 4 0.0000 0.0000 0.0000 17.1393 0.0000 5.6415
# 5 19.9873 19.5723 14.4579 0.0000 26.6903 0.0000
# 6 0.0000 0.0000 0.0000 5.6415 0.0000 24.8883
#
#
#
# Elastic Compliance Matrix: (Units=1/GPa)
#
#
# Indices 1 2 3 4 5 6 
#
# 1 0.015467 -0.007168 -0.003582 0.000000 -0.004386 0.000000
# 2 -0.007168 0.016668 -0.003918 0.000000 -0.004732 0.000000
# 3 -0.003582 -0.003918 0.023350 0.000000 -0.007093 0.000000
# 4 0.000000 0.000000 0.000000 0.063049 0.000000 -0.014292
# 5 -0.004386 -0.004732 -0.007093 0.000000 0.048063 0.000000
# 6 0.000000 0.000000 0.000000 -0.014292 0.000000 0.043419
#
#
# Mechanical properties :
#
#
# Convention : Reuss Voigt Hill
#
# Bulk Modulus (GPa) = 38.24456 55.86252 47.05354
# Shear Modulus (GPa) = 20.15571 22.98289 21.56930
#
# Velocity S-wave (km/s) = 3.75005 4.00443 3.87933
# Velocity P-wave (km/s) = 6.74049 7.76895 7.27293
#
# Compressibility (1/GPa) = 0.02614751
#
# Stress axis : x y z
#
# Youngs Moduli (GPa) = 64.65456 59.99676 42.82657
#
# Poissons Ratio (x) = 0.43007 0.15340
# Poissons Ratio (y) = 0.46346 0.16781
# Poissons Ratio (z) = 0.23158 0.23509
#
# Static dielectric constant tensor:
#      x y z
#    x 1.484200 0.000000 -0.002490 
#    y 0.000000 1.467250 0.000000 
#    z -0.002490 0.000000 1.487620 
# 
# From -- ./inp_files/58926.got.cif
#   From: 2010.05.17/outbox.cif.g08.bks.cpg/sg15_30_cif.got.tgz:58926.got - 2010.06.03 18:47:42.
