data_PCOD9256178
_publ_section_title
;
Structure prediction by ZEFSAII (Michael W. Deem and Ramdas Pophale) SiO2 
 PCOD9256178
Probable space group: C 2/C
;
_chemical_formula_sum "Si O2"
_cell_formula_units_Z 56
_cell_length_a 22.093205
_cell_length_b 8.106349
_cell_length_c 17.757711
_cell_angle_alpha 90.000000
_cell_angle_beta 38.487475
_cell_angle_gamma 90.000000
_cell_volume 1979.252447
_symmetry_space_group_name_H-M "C 2/C"
_symmetry_group_IT_number 15
_symmetry_cell_setting 'monoclinic'
loop_
_space_group_symop_operation_xyz
x,y,z
-x,y,1/2-z
-x,-y,-z
x,-y,1/2+z
1/2+x,1/2+y,z
1/2-x,1/2+y,1/2-z
1/2-x,1/2-y,-z
1/2+x,1/2-y,1/2+z
loop_
_atom_site_type_symbol
_atom_site_label
_atom_site_fract_x
_atom_site_fract_y
_atom_site_fract_z
Si Si1 0.099695 0.811121 0.436650
Si Si2 0.389326 0.170922 0.631328
Si Si3 0.000000 0.911075 0.750000
Si Si4 0.315299 0.696519 0.344715
Si Si5 0.650083 0.993142 0.486844
Si Si6 0.319064 0.506747 0.019180
Si Si7 0.500000 0.148402 0.250000
Si Si8 0.139295 0.674903 0.245925
O O1 0.120411 0.668694 0.478685
O O2 0.139755 0.972114 0.437454
O O3 0.146251 0.793955 0.309712
O O4 0.986680 0.778065 0.534049
O O5 0.317926 0.275752 0.752180
O O6 0.363897 0.123130 0.571541
O O7 0.393564 0.998943 0.678366
O O8 0.925500 0.807293 0.769231
O O9 0.082064 0.011964 0.624461
O O10 0.259352 0.524665 0.408881
O O11 0.249217 0.849634 0.437149
O O12 0.581117 0.951954 0.623652
O O13 0.240652 0.648776 0.104090
O O14 0.560740 0.224493 0.260375
#
# Coordination Sequence:
#
# PCOD9256178 Si02
#       8
#     8   8   4   8   8   8   4   8
#     4  10  17  35  52  74 113 152 189 227 265 329
#     4  10  17  35  52  74 113 152 189 227 265 329
#     4  12  20  35  48  82 130 143 172 213 302 356
#     4  10  22  31  52  82 115 150 181 227 282 335
#     4  10  20  32  52  84 114 143 184 233 282 331
#     4  10  22  31  52  82 115 150 181 227 282 335
#     4  12  18  29  54  86 124 133 172 231 306 332
#     4  10  20  32  52  84 114 143 184 233 282 331
#
# _framework density 28.293513000000001
#
# number of rings (size 3 to 8) (size 9 to 14) (size 15 to 20)
#    0.000    1.714    4.286    2.143    0.000    8.000 
#    0.000    0.000    0.000   15.429    0.000   27.000 
#    0.000    0.571    0.000    0.000    0.000    0.000 
#
# Total GULP energy -156870.217562 kJ/mol
# GULP energy per Si atom -5602.507770 kJ/mol
# Density = 2.822912 g / cm^3
# Si number density = 28.293513 Si / 1000 Ang^3
#
#
#
# Elastic Constant Matrix: (Units=GPa)
#
#
# Indices 1 2 3 4 5 6 
#
# 1 198.3183 42.7263 77.9094 -0.0003 -0.4787 0.0001
# 2 42.7263 77.2817 35.2666 -0.0015 -2.6266 0.0010
# 3 77.9094 35.2666 224.5961 -0.0009 -0.8200 0.0005
# 4 -0.0003 -0.0015 -0.0009 24.4868 0.0002 -2.8196
# 5 -0.4787 -2.6266 -0.8200 0.0002 68.5530 0.0000
# 6 0.0001 0.0010 0.0005 -2.8196 0.0000 47.6352
#
#
#
# Elastic Compliance Matrix: (Units=1/GPa)
#
#
# Indices 1 2 3 4 5 6 
#
# 1 0.006316 -0.002687 -0.001769 0.000000 -0.000080 0.000000
# 2 -0.002687 0.015099 -0.001437 0.000001 0.000543 0.000000
# 3 -0.001769 -0.001437 0.005292 0.000000 -0.000004 0.000000
# 4 0.000000 0.000001 0.000000 0.041119 0.000000 0.002434
# 5 -0.000080 0.000543 -0.000004 0.000000 0.014607 0.000000
# 6 0.000000 0.000000 0.000000 0.002434 0.000000 0.021137
#
#
# Mechanical properties :
#
#
# Convention : Reuss Voigt Hill
#
# Bulk Modulus (GPa) = 67.02127 90.22229 78.62178
# Shear Modulus (GPa) = 41.55207 51.08792 46.32000
#
# Velocity S-wave (km/s) = 3.83640 4.25389 4.05053
# Velocity P-wave (km/s) = 6.58508 7.48897 7.05152
#
# Compressibility (1/GPa) = 0.01492064
#
# Stress axis : x y z
#
# Youngs Moduli (GPa) = 158.32144 66.22736 188.97187
#
# Poissons Ratio (x) = 0.17797 0.33436
# Poissons Ratio (y) = 0.42546 0.27151
# Poissons Ratio (z) = 0.28013 0.09515
#
# Static dielectric constant tensor:
#      x y z
#    x 2.158570 0.000000 -0.014700 
#    y 0.000000 2.317030 0.000000 
#    z -0.014700 0.000000 2.221760 
# 
# From -- ./inp_files/219089.got.cif
#   From: 2010.05.17/outbox.cif.g08.bks.cpg/sg15_110_cif.got.tgz:219089.got - 2010.06.03 18:47:42.
