data_PCOD9256075
_publ_section_title
;
Structure prediction by ZEFSAII (Michael W. Deem and Ramdas Pophale) SiO2 
 PCOD9256075
Probable space group: C 2/C
;
_chemical_formula_sum "Si O2"
_cell_formula_units_Z 56
_cell_length_a 16.242196
_cell_length_b 7.089884
_cell_length_c 31.704831
_cell_angle_alpha 90.000000
_cell_angle_beta 135.637969
_cell_angle_gamma 90.000000
_cell_volume 2552.726882
_symmetry_space_group_name_H-M "C 2/C"
_symmetry_group_IT_number 15
_symmetry_cell_setting 'monoclinic'
loop_
_space_group_symop_operation_xyz
x,y,z
-x,y,1/2-z
-x,-y,-z
x,-y,1/2+z
1/2+x,1/2+y,z
1/2-x,1/2+y,1/2-z
1/2-x,1/2-y,-z
1/2+x,1/2-y,1/2+z
loop_
_atom_site_type_symbol
_atom_site_label
_atom_site_fract_x
_atom_site_fract_y
_atom_site_fract_z
Si Si1 0.512752 0.308350 0.447345
Si Si2 0.632291 0.047605 0.297729
Si Si3 0.451907 0.420372 0.332285
Si Si4 0.661873 0.421435 0.571732
Si Si5 0.639431 0.044760 0.618449
Si Si6 0.610783 0.520465 0.813205
Si Si7 0.208058 0.454082 0.734870
O O1 0.495004 0.409719 0.396050
O O2 0.636706 0.349431 0.515444
O O3 0.420717 0.406200 0.445499
O O4 0.472349 0.091503 0.428457
O O5 0.500000 0.980844 0.250000
O O6 0.707697 0.015264 0.367286
O O7 0.624753 0.276756 0.294851
O O8 0.692820 0.973972 0.277338
O O9 0.563414 0.441293 0.342654
O O10 0.349277 0.569827 0.283211
O O11 0.376861 0.227909 0.297925
O O12 0.630242 0.242302 0.590502
O O13 0.665220 0.065834 0.677729
O O14 0.758099 0.942106 0.643681
O O15 0.500000 0.424090 0.750000
#
# Coordination Sequence:
#
# PCOD9256075 Si02
#       7
#     8   8   8   8   8   8   8
#     4  10  22  36  61  86 114 158 211 230 284 371
#     4  10  18  34  59  85 113 151 190 241 300 349
#     4  11  20  34  57  88 116 154 202 243 295 358
#     4  10  20  40  60  81 121 161 188 249 296 340
#     4  10  21  35  61  85 114 156 200 244 293 353
#     4  10  17  34  57  81 121 156 180 252 317 329
#     4  11  19  32  57  87 114 145 198 244 292 353
#
# _framework density 21.937324
#
# number of rings (size 3 to 8) (size 9 to 14) (size 15 to 20)
#    0.000    1.714    5.714    1.286    0.000    0.000 
#    0.000    5.000    3.143    1.714    0.000    0.000 
#    0.000    0.000    0.000    0.000    0.000    0.000 
#
# Total GULP energy -156100.199203 kJ/mol
# GULP energy per Si atom -5575.007114 kJ/mol
# Density = 2.188739 g / cm^3
# Si number density = 21.937324 Si / 1000 Ang^3
#
#
#
# Elastic Constant Matrix: (Units=GPa)
#
#
# Indices 1 2 3 4 5 6 
#
# 1 55.4223 -15.6559 7.2924 0.0001 -8.5807 -0.0001
# 2 -15.6559 60.4301 3.4624 0.0002 -5.5208 -0.0003
# 3 7.2924 3.4624 128.9793 0.0000 -12.6369 0.0000
# 4 0.0001 0.0002 0.0000 20.3140 0.0000 -4.8408
# 5 -8.5807 -5.5208 -12.6369 0.0000 32.3214 0.0000
# 6 -0.0001 -0.0003 0.0000 -4.8408 0.0000 13.2526
#
#
#
# Elastic Compliance Matrix: (Units=1/GPa)
#
#
# Indices 1 2 3 4 5 6 
#
# 1 0.020805 0.006004 -0.000724 0.000000 0.006266 0.000000
# 2 0.006004 0.018547 -0.000386 0.000000 0.004611 0.000000
# 3 -0.000724 -0.000386 0.008089 0.000000 0.002905 0.000000
# 4 0.000000 0.000000 0.000000 0.053921 0.000000 0.019696
# 5 0.006266 0.004611 0.002905 0.000000 0.034526 0.000000
# 6 0.000000 0.000000 0.000000 0.019696 0.000000 0.082651
#
#
# Mechanical properties :
#
#
# Convention : Reuss Voigt Hill
#
# Bulk Modulus (GPa) = 17.47340 26.11438 21.79389
# Shear Modulus (GPa) = 21.94663 29.82646 25.88655
#
# Velocity S-wave (km/s) = 3.16638 3.69130 3.43887
# Velocity P-wave (km/s) = 4.62065 5.48613 5.07188
#
# Compressibility (1/GPa) = 0.05722986
#
# Stress axis : x y z
#
# Youngs Moduli (GPa) = 48.06643 53.91753 123.62420
#
# Poissons Ratio (x) = -0.32371 0.08945
# Poissons Ratio (y) = -0.28858 0.04766
# Poissons Ratio (z) = 0.03478 0.02079
#
# Static dielectric constant tensor:
#      x y z
#    x 1.816410 0.000000 0.030030 
#    y 0.000000 1.888810 0.000000 
#    z 0.030030 0.000000 1.876560 
# 
# From -- ./inp_files/312948.got.cif
#   From: 2010.05.17/outbox.cif.g08.bks.cpg/sg15_157_cif.got.tgz:312948.got - 2010.06.03 18:47:42.
