data_PCOD9256944
_publ_section_title
;
Structure prediction by ZEFSAII (Michael W. Deem and Ramdas Pophale) SiO2 
 PCOD9256944
Probable space group: C 2/C
;
_chemical_formula_sum "Si O2"
_cell_formula_units_Z 56
_cell_length_a 25.083515
_cell_length_b 14.815565
_cell_length_c 21.231762
_cell_angle_alpha 90.000000
_cell_angle_beta 21.491895
_cell_angle_gamma 90.000000
_cell_volume 2890.760350
_symmetry_space_group_name_H-M "C 2/C"
_symmetry_group_IT_number 15
_symmetry_cell_setting 'monoclinic'
loop_
_space_group_symop_operation_xyz
x,y,z
-x,y,1/2-z
-x,-y,-z
x,-y,1/2+z
1/2+x,1/2+y,z
1/2-x,1/2+y,1/2-z
1/2-x,1/2-y,-z
1/2+x,1/2-y,1/2+z
loop_
_atom_site_type_symbol
_atom_site_label
_atom_site_fract_x
_atom_site_fract_y
_atom_site_fract_z
Si Si1 0.511803 0.343673 0.863051
Si Si2 0.741433 0.715935 0.937892
Si Si3 0.333989 0.780006 0.644873
Si Si4 0.116212 0.416386 0.449213
Si Si5 0.071640 0.580795 0.848220
Si Si6 0.033813 0.773787 0.030251
Si Si7 0.065809 0.969955 0.359655
O O1 0.668889 0.296093 0.695240
O O2 0.530625 0.449678 0.850166
O O3 0.424292 0.304572 0.899227
O O4 0.399498 0.307701 0.039226
O O5 0.828511 0.628543 0.814159
O O6 0.750000 0.750000 0.000000
O O7 0.421587 0.862165 0.518223
O O8 0.162966 0.789495 0.837244
O O9 0.392467 0.766525 0.651180
O O10 0.129964 0.415719 0.356688
O O11 0.091328 0.315137 0.502358
O O12 0.262961 0.456049 0.316806
O O13 0.977563 0.480069 0.613627
O O14 0.998585 0.873693 0.092355
O O15 0.000000 0.000000 0.500000
#
# Coordination Sequence:
#
# PCOD9256944 Si02
#       7
#     8   8   8   8   8   8   8
#     4  11  23  37  58  84 117 160 203 255 305 368
#     4  11  24  42  61  86 118 157 207 258 308 361
#     4  10  18  30  49  75 114 158 195 239 297 361
#     4  10  20  35  51  87 118 167 197 249 305 376
#     4   9  20  34  56  79 119 158 207 246 311 370
#     4  11  19  31  49  79 122 157 197 242 293 369
#     4  12  21  32  55  83 122 161 209 242 308 376
#
# _framework density 19.372064999999999
#
# number of rings (size 3 to 8) (size 9 to 14) (size 15 to 20)
#    0.000    1.429    2.857    4.714    4.000    2.286 
#    0.000    0.000    0.000    0.000    0.000    1.000 
#    0.000    0.000    0.000    0.000    0.000    0.000 
#
# Total GULP energy -155959.812102 kJ/mol
# GULP energy per Si atom -5569.993289 kJ/mol
# Density = 1.932797 g / cm^3
# Si number density = 19.372065 Si / 1000 Ang^3
#
#
#
# Elastic Constant Matrix: (Units=GPa)
#
#
# Indices 1 2 3 4 5 6 
#
# 1 61.8595 27.1033 24.0510 0.0004 -15.7884 -0.0002
# 2 27.1033 146.4718 38.6693 0.0002 -13.8316 0.0000
# 3 24.0510 38.6693 65.2340 0.0024 -11.7767 -0.0013
# 4 0.0004 0.0002 0.0024 34.2704 -0.0013 -9.1834
# 5 -15.7884 -13.8316 -11.7767 -0.0013 23.8710 0.0005
# 6 -0.0002 0.0000 -0.0013 -9.1834 0.0005 16.3895
#
#
#
# Elastic Compliance Matrix: (Units=1/GPa)
#
#
# Indices 1 2 3 4 5 6 
#
# 1 0.021615 -0.001645 -0.005033 0.000000 0.010860 0.000000
# 2 -0.001645 0.008363 -0.004032 0.000000 0.001769 0.000000
# 3 -0.005033 -0.004032 0.020366 -0.000001 0.004383 0.000001
# 4 0.000000 0.000000 -0.000001 0.034335 0.000001 0.019239
# 5 0.010860 0.001769 0.004383 0.000001 0.052262 0.000000
# 6 0.000000 0.000000 0.000001 0.019239 0.000000 0.071794
#
#
# Mechanical properties :
#
#
# Convention : Reuss Voigt Hill
#
# Bulk Modulus (GPa) = 34.57344 50.35694 42.46519
# Shear Modulus (GPa) = 20.85093 27.15562 24.00327
#
# Velocity S-wave (km/s) = 3.28432 3.74811 3.52386
# Velocity P-wave (km/s) = 5.68051 6.69195 6.20687
#
# Compressibility (1/GPa) = 0.02892393
#
# Stress axis : x y z
#
# Youngs Moduli (GPa) = 46.26344 119.57325 49.10102
#
# Poissons Ratio (x) = 0.19674 0.24715
# Poissons Ratio (y) = 0.07612 0.19795
# Poissons Ratio (z) = 0.23286 0.48206
#
# Static dielectric constant tensor:
#      x y z
#    x 1.783060 0.000000 -0.044650 
#    y 0.000000 1.747000 0.000000 
#    z -0.044650 0.000000 1.703060 
# 
# From -- ./inp_files/283609.got.cif
#   From: 2010.05.17/outbox.cif.g08.bks.cpg/sg15_142_cif.got.tgz:283609.got - 2010.06.03 18:47:42.
