data_PCOD9256321
_publ_section_title
;
Structure prediction by ZEFSAII (Michael W. Deem and Ramdas Pophale) SiO2 
 PCOD9256321
Probable space group: C 2/C
;
_chemical_formula_sum "Si O2"
_cell_formula_units_Z 64
_cell_length_a 16.105258
_cell_length_b 12.157467
_cell_length_c 25.572385
_cell_angle_alpha 90.000000
_cell_angle_beta 39.247237
_cell_angle_gamma 90.000000
_cell_volume 3167.800899
_symmetry_space_group_name_H-M "C 2/C"
_symmetry_group_IT_number 15
_symmetry_cell_setting 'monoclinic'
loop_
_space_group_symop_operation_xyz
x,y,z
-x,y,1/2-z
-x,-y,-z
x,-y,1/2+z
1/2+x,1/2+y,z
1/2-x,1/2+y,1/2-z
1/2-x,1/2-y,-z
1/2+x,1/2-y,1/2+z
loop_
_atom_site_type_symbol
_atom_site_label
_atom_site_fract_x
_atom_site_fract_y
_atom_site_fract_z
Si Si1 0.818997 0.198678 0.621868
Si Si2 0.654540 0.221772 0.596265
Si Si3 0.578012 0.525755 0.409198
Si Si4 0.769749 0.573779 0.183771
Si Si5 0.003196 0.441684 0.105056
Si Si6 0.720208 0.048738 0.927427
Si Si7 0.411233 0.761578 0.065111
Si Si8 0.973268 0.954396 0.850520
O O1 0.735234 0.199208 0.609397
O O2 0.768987 0.294473 0.684417
O O3 0.965589 0.233426 0.532251
O O4 0.826890 0.078326 0.643332
O O5 0.750000 0.250000 0.500000
O O6 0.563659 0.118986 0.625428
O O7 0.569346 0.331773 0.644848
O O8 0.500000 0.500000 0.500000
O O9 0.638642 0.646920 0.386408
O O10 0.474793 0.534084 0.412288
O O11 0.808162 0.535949 0.106359
O O12 0.624108 0.528266 0.262426
O O13 0.876536 0.519694 0.169614
O O14 0.962950 0.341640 0.085703
O O15 0.118482 0.512679 0.021740
O O16 0.690713 0.168266 0.918840
O O17 0.867240 0.032675 0.875797
#
# Coordination Sequence:
#
# PCOD9256321 Si02
#       8
#     8   8   8   8   8   8   8   8
#     4  11  20  37  59  89 127 159 197 262 308 362
#     4  12  19  34  64  92 117 151 219 256 296 361
#     4  10  23  39  59  86 128 164 203 246 319 380
#     4  11  22  37  59  92 129 157 201 262 328 361
#     4  11  19  35  64  91 121 161 206 256 302 375
#     4  11  20  35  65  92 123 154 217 260 301 363
#     4  10  17  36  59  89 118 164 199 249 301 367
#     4  12  23  38  60  96 120 159 213 265 312 372
#
# _framework density 20.203289999999999
#
# number of rings (size 3 to 8) (size 9 to 14) (size 15 to 20)
#    0.000    1.000    7.500    1.875    0.000    1.000 
#    0.000    3.750    0.000    0.000    9.750    0.000 
#    0.000    0.000    0.000    0.000    0.000    0.000 
#
# Total GULP energy -178794.266673 kJ/mol
# GULP energy per Si atom -5587.320834 kJ/mol
# Density = 2.015731 g / cm^3
# Si number density = 20.203290 Si / 1000 Ang^3
#
#
#
# Elastic Constant Matrix: (Units=GPa)
#
#
# Indices 1 2 3 4 5 6 
#
# 1 94.8090 62.3003 15.0282 0.0000 -26.5456 0.0000
# 2 62.3003 135.6798 15.5167 0.0000 -22.6379 0.0000
# 3 15.0282 15.5167 54.6927 0.0000 -26.6462 0.0000
# 4 0.0000 0.0000 0.0000 16.0296 0.0000 -9.4446
# 5 -26.5456 -22.6379 -26.6462 0.0000 31.9394 0.0000
# 6 0.0000 0.0000 0.0000 -9.4446 0.0000 39.1296
#
#
#
# Elastic Compliance Matrix: (Units=1/GPa)
#
#
# Indices 1 2 3 4 5 6 
#
# 1 0.017900 -0.006414 0.003259 0.000000 0.013049 0.000000
# 2 -0.006414 0.010682 -0.000298 0.000000 0.001991 0.000000
# 3 0.003259 -0.000298 0.031488 0.000000 0.028768 0.000000
# 4 0.000000 0.000000 0.000000 0.072727 0.000000 0.017554
# 5 0.013049 0.001991 0.028768 0.000000 0.067566 0.000000
# 6 0.000000 0.000000 0.000000 0.017554 0.000000 0.029793
#
#
# Mechanical properties :
#
#
# Convention : Reuss Voigt Hill
#
# Bulk Modulus (GPa) = 18.80978 52.31909 35.56444
# Shear Modulus (GPa) = 19.62442 30.24215 24.93329
#
# Velocity S-wave (km/s) = 3.12003 3.87317 3.51682
# Velocity P-wave (km/s) = 4.72333 6.77897 5.84227
#
# Compressibility (1/GPa) = 0.05316382
#
# Stress axis : x y z
#
# Youngs Moduli (GPa) = 55.86697 93.61578 31.75766
#
# Poissons Ratio (x) = 0.60049 -0.10350
# Poissons Ratio (y) = 0.35836 0.00946
# Poissons Ratio (z) = -0.18208 0.02787
#
# Static dielectric constant tensor:
#      x y z
#    x 1.698440 0.000000 0.022220 
#    y 0.000000 1.755760 0.000000 
#    z 0.022220 0.000000 1.767920 
# 
# From -- ./inp_files/313570.got.cif
#   From: 2010.05.17/outbox.cif.g08.bks.cpg/sg15_157_cif.got.tgz:313570.got - 2010.06.03 18:47:42.
