data_PCOD9256903
_publ_section_title
;
Structure prediction by ZEFSAII (Michael W. Deem and Ramdas Pophale) SiO2 
 PCOD9256903
Probable space group: C 2/C
;
_chemical_formula_sum "Si O2"
_cell_formula_units_Z 48
_cell_length_a 14.638108
_cell_length_b 16.298244
_cell_length_c 15.623522
_cell_angle_alpha 90.000000
_cell_angle_beta 144.924598
_cell_angle_gamma 90.000000
_cell_volume 2141.958761
_symmetry_space_group_name_H-M "C 2/C"
_symmetry_group_IT_number 15
_symmetry_cell_setting 'monoclinic'
loop_
_space_group_symop_operation_xyz
x,y,z
-x,y,1/2-z
-x,-y,-z
x,-y,1/2+z
1/2+x,1/2+y,z
1/2-x,1/2+y,1/2-z
1/2-x,1/2-y,-z
1/2+x,1/2-y,1/2+z
loop_
_atom_site_type_symbol
_atom_site_label
_atom_site_fract_x
_atom_site_fract_y
_atom_site_fract_z
Si Si1 0.836332 0.483361 0.327671
Si Si2 0.302017 0.802886 0.347448
Si Si3 0.550464 0.669675 0.957481
Si Si4 0.850616 0.642526 0.076461
Si Si5 0.993351 0.992186 0.847110
Si Si6 0.329182 0.031515 0.632384
O O1 0.828101 0.383425 0.310042
O O2 0.688999 0.524314 0.265908
O O3 0.835242 0.512237 0.229520
O O4 0.000000 0.500000 0.500000
O O5 0.392047 0.715866 0.412523
O O6 0.114080 0.790318 0.198196
O O7 0.355409 0.835550 0.481331
O O8 0.520826 0.572455 0.928588
O O9 0.691803 0.678305 0.997530
O O10 0.833700 0.543973 0.069636
O O11 0.000000 0.665044 0.250000
O O12 0.000000 0.011232 0.750000
O O13 0.148181 0.934635 0.983938
O O14 0.500000 0.076677 0.750000
#
# Coordination Sequence:
#
# PCOD9256903 Si02
#       6
#     8   8   8   8   8   8
#     4  11  21  34  50  74 106 141 175 211 251 300
#     4  11  21  32  48  72 102 135 165 203 249 305
#     4  10  19  31  46  69 100 132 164 198 247 304
#     4  10  18  30  48  71 100 136 167 202 247 302
#     4  10  20  36  54  77 106 137 169 212 258 310
#     4  10  19  33  52  75 103 139 177 212 251 299
#
# _framework density 22.409395
#
# number of rings (size 3 to 8) (size 9 to 14) (size 15 to 20)
#    0.000    1.667    0.000    9.500    0.000    2.000 
#    0.000    0.000    0.000    0.000    0.000    4.667 
#    0.000    6.667    0.000    1.000    0.000    0.000 
#
# Total GULP energy -133683.402099 kJ/mol
# GULP energy per Si atom -5570.141754 kJ/mol
# Density = 2.235839 g / cm^3
# Si number density = 22.409395 Si / 1000 Ang^3
#
#
#
# Elastic Constant Matrix: (Units=GPa)
#
#
# Indices 1 2 3 4 5 6 
#
# 1 92.9341 -7.6539 46.7046 -0.0001 29.3431 0.0000
# 2 -7.6539 23.3647 -4.0873 -0.0005 5.0061 -0.0001
# 3 46.7046 -4.0873 169.5281 -0.0002 49.6673 0.0001
# 4 -0.0001 -0.0005 -0.0002 20.6718 -0.0001 2.3227
# 5 29.3431 5.0061 49.6673 -0.0001 44.6553 0.0001
# 6 0.0000 -0.0001 0.0001 2.3227 0.0001 13.4204
#
#
#
# Elastic Compliance Matrix: (Units=1/GPa)
#
#
# Indices 1 2 3 4 5 6 
#
# 1 0.014794 0.006564 -0.001267 0.000000 -0.009048 0.000000
# 2 0.006564 0.048392 0.003280 0.000001 -0.013386 0.000000
# 3 -0.001267 0.003280 0.009183 0.000000 -0.009749 0.000000
# 4 0.000000 0.000001 0.000000 0.049334 0.000000 -0.008538
# 5 -0.009048 -0.013386 -0.009749 0.000000 0.040684 0.000000
# 6 0.000000 0.000000 0.000000 -0.008538 0.000000 0.075991
#
#
# Mechanical properties :
#
#
# Convention : Reuss Voigt Hill
#
# Bulk Modulus (GPa) = 11.17025 39.52821 25.34923
# Shear Modulus (GPa) = 19.91520 32.47374 26.19447
#
# Velocity S-wave (km/s) = 2.98434 3.81085 3.42264
# Velocity P-wave (km/s) = 4.10737 6.08612 5.19189
#
# Compressibility (1/GPa) = 0.08952350
#
# Stress axis : x y z
#
# Youngs Moduli (GPa) = 67.59322 20.66473 108.89680
#
# Poissons Ratio (x) = -0.13563 0.13793
# Poissons Ratio (y) = -0.44365 -0.35722
# Poissons Ratio (z) = 0.08561 -0.06779
#
# Static dielectric constant tensor:
#      x y z
#    x 1.875070 0.000000 0.062510 
#    y 0.000000 2.018600 0.000000 
#    z 0.062510 0.000000 1.879890 
# 
# From -- ./inp_files/156022.got.cif
#   From: 2010.05.17/outbox.cif.g08.bks.cpg/sg15_79_cif.got.tgz:156022.got - 2010.06.03 18:47:42.
