data_PCOD9256536
_publ_section_title
;
Structure prediction by ZEFSAII (Michael W. Deem and Ramdas Pophale) SiO2 
 PCOD9256536
Probable space group: C 2/C
;
_chemical_formula_sum "Si O2"
_cell_formula_units_Z 48
_cell_length_a 19.117032
_cell_length_b 11.579548
_cell_length_c 8.488307
_cell_angle_alpha 90.000000
_cell_angle_beta 90.082582
_cell_angle_gamma 90.000000
_cell_volume 1879.025621
_symmetry_space_group_name_H-M "C 2/C"
_symmetry_group_IT_number 15
_symmetry_cell_setting 'monoclinic'
loop_
_space_group_symop_operation_xyz
x,y,z
-x,y,1/2-z
-x,-y,-z
x,-y,1/2+z
1/2+x,1/2+y,z
1/2-x,1/2+y,1/2-z
1/2-x,1/2-y,-z
1/2+x,1/2-y,1/2+z
loop_
_atom_site_type_symbol
_atom_site_label
_atom_site_fract_x
_atom_site_fract_y
_atom_site_fract_z
Si Si1 0.046132 0.079838 0.612736
Si Si2 0.086486 0.309343 0.064161
Si Si3 0.926218 0.693270 0.561985
Si Si4 0.730078 0.118424 0.449189
Si Si5 0.701009 0.806308 0.630305
Si Si6 0.853589 0.103797 0.640406
O O1 0.076219 0.174255 0.496072
O O2 0.102446 0.025698 0.735820
O O3 0.000000 0.140615 0.750000
O O4 0.000000 0.000000 0.500000
O O5 0.149062 0.388310 0.998229
O O6 0.102274 0.183018 0.985704
O O7 0.090432 0.309689 0.253452
O O8 0.006211 0.344620 0.028983
O O9 0.865509 0.638191 0.456732
O O10 0.750000 0.250000 0.500000
O O11 0.734264 0.110998 0.262026
O O12 0.790542 0.049213 0.539678
O O13 0.750000 0.750000 0.500000
O O14 0.675338 0.699939 0.738932
#
# Coordination Sequence:
#
# PCOD9256536 Si02
#       6
#     8   8   8   8   8   8
#     4  11  23  33  43  57  80 114 160 201 227 255
#     4   9  16  27  42  64  83 112 145 181 224 270
#     4  10  18  27  44  60  87 116 149 191 219 267
#     4   8  15  25  42  59  82 104 137 186 221 270
#     4   9  15  24  40  63  83 109 146 177 218 274
#     4   9  17  30  43  56  81 107 145 195 223 265
#
# _framework density 25.545155000000001
#
# number of rings (size 3 to 8) (size 9 to 14) (size 15 to 20)
#    0.000    3.000    1.667    3.000    2.333    0.000 
#    0.000    0.000    0.000    0.000    0.000    0.000 
#    0.000    0.000    0.000    0.000    0.000   86.667 
#
# Total GULP energy -133835.948319 kJ/mol
# GULP energy per Si atom -5576.497847 kJ/mol
# Density = 2.548701 g / cm^3
# Si number density = 25.545155 Si / 1000 Ang^3
#
#
#
# Elastic Constant Matrix: (Units=GPa)
#
#
# Indices 1 2 3 4 5 6 
#
# 1 170.3165 18.8142 109.8348 0.0000 37.6321 0.0000
# 2 18.8142 58.9772 39.3688 0.0000 2.6148 0.0000
# 3 109.8348 39.3688 198.9154 0.0000 26.9551 0.0000
# 4 0.0000 0.0000 0.0000 29.2838 0.0000 -2.8874
# 5 37.6321 2.6148 26.9551 0.0000 85.0636 0.0000
# 6 0.0000 0.0000 0.0000 -2.8874 0.0000 3.1532
#
#
#
# Elastic Compliance Matrix: (Units=1/GPa)
#
#
# Indices 1 2 3 4 5 6 
#
# 1 0.009688 0.000410 -0.005066 0.000000 -0.002693 0.000000
# 2 0.000410 0.019589 -0.004177 0.000000 0.000540 0.000000
# 3 -0.005066 -0.004177 0.008704 0.000000 -0.000389 0.000000
# 4 0.000000 0.000000 0.000000 0.037538 0.000000 0.034374
# 5 -0.002693 0.000540 -0.000389 0.000000 0.013054 0.000000
# 6 0.000000 0.000000 0.000000 0.034374 0.000000 0.348617
#
#
# Mechanical properties :
#
#
# Convention : Reuss Voigt Hill
#
# Bulk Modulus (GPa) = 49.22108 84.91609 67.06859
# Shear Modulus (GPa) = 10.83129 40.84621 25.83875
#
# Velocity S-wave (km/s) = 2.06137 4.00306 3.18385
# Velocity P-wave (km/s) = 4.99758 7.39458 6.31092
#
# Compressibility (1/GPa) = 0.02031650
#
# Stress axis : x y z
#
# Youngs Moduli (GPa) = 103.22107 51.04922 114.89463
#
# Poissons Ratio (x) = -0.02095 0.58201
# Poissons Ratio (y) = -0.04235 0.47988
# Poissons Ratio (z) = 0.52288 0.21322
#
# Static dielectric constant tensor:
#      x y z
#    x 2.293330 0.000000 0.055080 
#    y 0.000000 2.077250 0.000000 
#    z 0.055080 0.000000 1.961360 
# 
# From -- ./inp_files/41489.got.cif
#   From: 2010.05.17/outbox.cif.g08.bks.cpg/sg15_21_cif.got.tgz:41489.got - 2010.06.03 18:47:42.
