data_PCOD9256267
_publ_section_title
;
Structure prediction by ZEFSAII (Michael W. Deem and Ramdas Pophale) SiO2 
 PCOD9256267
Probable space group: C 2/C
;
_chemical_formula_sum "Si O2"
_cell_formula_units_Z 64
_cell_length_a 8.909348
_cell_length_b 30.544379
_cell_length_c 18.275734
_cell_angle_alpha 90.000000
_cell_angle_beta 138.757814
_cell_angle_gamma 90.000000
_cell_volume 3278.670386
_symmetry_space_group_name_H-M "C 2/C"
_symmetry_group_IT_number 15
_symmetry_cell_setting 'monoclinic'
loop_
_space_group_symop_operation_xyz
x,y,z
-x,y,1/2-z
-x,-y,-z
x,-y,1/2+z
1/2+x,1/2+y,z
1/2-x,1/2+y,1/2-z
1/2-x,1/2-y,-z
1/2+x,1/2-y,1/2+z
loop_
_atom_site_type_symbol
_atom_site_label
_atom_site_fract_x
_atom_site_fract_y
_atom_site_fract_z
Si Si1 0.982044 0.949470 0.011260
Si Si2 0.839625 0.244693 0.759831
Si Si3 0.424409 0.580119 0.802484
Si Si4 0.940320 0.605606 0.648760
Si Si5 0.253384 0.369736 0.869714
Si Si6 0.516541 0.678433 0.175877
Si Si7 0.980384 0.317060 0.047194
Si Si8 0.137513 0.829989 0.432358
O O1 0.952560 0.945067 0.087514
O O2 0.211317 0.922118 0.074874
O O3 0.789172 0.920788 0.901474
O O4 0.000000 0.000000 0.000000
O O5 0.715558 0.285402 0.750883
O O6 0.636904 0.215771 0.650798
O O7 0.000000 0.257629 0.750000
O O8 0.995348 0.214683 0.869534
O O9 0.500000 0.568045 0.750000
O O10 0.487227 0.631209 0.840612
O O11 0.155012 0.574581 0.711870
O O12 0.940064 0.640690 0.583959
O O13 0.000000 0.626934 0.750000
O O14 0.416405 0.354279 0.864223
O O15 0.000000 0.361504 0.750000
O O16 0.314172 0.343013 0.966232
O O17 0.500000 0.657430 0.250000
O O18 0.270384 0.698899 0.066546
O O19 0.131760 0.327693 0.030844
#
# Coordination Sequence:
#
# PCOD9256267 Si02
#       8
#     8   8   8   8   8   8   8   8
#     4  10  23  41  63  94 129 165 206 259 325 392
#     4  10  22  39  62  91 126 163 215 268 317 369
#     4  10  17  35  66  96 122 153 206 262 318 375
#     4  10  19  34  63  95 123 154 199 260 313 373
#     4  11  24  43  65  86 123 174 213 256 330 394
#     4  12  26  41  55  87 129 173 215 262 311 382
#     4  11  20  37  62  92 122 159 211 263 316 364
#     4  10  20  38  67  92 120 163 212 267 318 384
#
# _framework density 19.520109999999999
#
# number of rings (size 3 to 8) (size 9 to 14) (size 15 to 20)
#    0.000    1.500    3.750    1.875    0.000    4.000 
#    0.000    4.375    0.000    0.000    0.000    0.000 
#    0.000    0.000    0.000    0.000    0.000    0.000 
#
# Total GULP energy -178726.065275 kJ/mol
# GULP energy per Si atom -5585.189540 kJ/mol
# Density = 1.947568 g / cm^3
# Si number density = 19.520110 Si / 1000 Ang^3
#
#
#
# Elastic Constant Matrix: (Units=GPa)
#
#
# Indices 1 2 3 4 5 6 
#
# 1 118.5526 29.4461 52.4054 0.0000 -21.8486 0.0000
# 2 29.4461 83.5788 32.1736 0.0000 -18.1289 0.0000
# 3 52.4054 32.1736 99.4303 0.0000 -3.5276 0.0000
# 4 0.0000 0.0000 0.0000 5.9470 0.0000 -0.4482
# 5 -21.8486 -18.1289 -3.5276 0.0000 44.3606 0.0000
# 6 0.0000 0.0000 0.0000 -0.4482 0.0000 15.3391
#
#
#
# Elastic Compliance Matrix: (Units=1/GPa)
#
#
# Indices 1 2 3 4 5 6 
#
# 1 0.012262 -0.000885 -0.005992 0.000000 0.005201 0.000000
# 2 -0.000885 0.015069 -0.004218 0.000000 0.005387 0.000000
# 3 -0.005992 -0.004218 0.014455 0.000000 -0.003525 0.000000
# 4 0.000000 0.000000 0.000000 0.168523 0.000000 0.004925
# 5 0.005201 0.005387 -0.003525 0.000000 0.027025 0.000000
# 6 0.000000 0.000000 0.000000 0.004925 0.000000 0.065337
#
#
# Mechanical properties :
#
#
# Convention : Reuss Voigt Hill
#
# Bulk Modulus (GPa) = 51.03260 58.84576 54.93918
# Shear Modulus (GPa) = 15.08777 25.63179 20.35978
#
# Velocity S-wave (km/s) = 2.78319 3.62760 3.23308
# Velocity P-wave (km/s) = 6.04388 6.91069 6.49177
#
# Compressibility (1/GPa) = 0.01959532
#
# Stress axis : x y z
#
# Youngs Moduli (GPa) = 81.55165 66.36179 69.17947
#
# Poissons Ratio (x) = 0.05876 0.41451
# Poissons Ratio (y) = 0.07221 0.29181
# Poissons Ratio (z) = 0.48864 0.27993
#
# Static dielectric constant tensor:
#      x y z
#    x 1.694470 0.000000 0.005540 
#    y 0.000000 1.663740 0.000000 
#    z 0.005540 0.000000 1.714460 
# 
# From -- ./inp_files/194251.got.cif
#   From: 2010.05.17/outbox.cif.g08.bks.cpg/sg15_98_cif.got.tgz:194251.got - 2010.06.03 18:47:42.
