data_PCOD9256721
_publ_section_title
;
Structure prediction by ZEFSAII (Michael W. Deem and Ramdas Pophale) SiO2 
 PCOD9256721
Probable space group: C 2/C
;
_chemical_formula_sum "Si O2"
_cell_formula_units_Z 56
_cell_length_a 30.186146
_cell_length_b 13.965276
_cell_length_c 31.435722
_cell_angle_alpha 90.000000
_cell_angle_beta 163.791957
_cell_angle_gamma 90.000000
_cell_volume 3698.969728
_symmetry_space_group_name_H-M "C 2/C"
_symmetry_group_IT_number 15
_symmetry_cell_setting 'monoclinic'
loop_
_space_group_symop_operation_xyz
x,y,z
-x,y,1/2-z
-x,-y,-z
x,-y,1/2+z
1/2+x,1/2+y,z
1/2-x,1/2+y,1/2-z
1/2-x,1/2-y,-z
1/2+x,1/2-y,1/2+z
loop_
_atom_site_type_symbol
_atom_site_label
_atom_site_fract_x
_atom_site_fract_y
_atom_site_fract_z
Si Si1 0.280654 0.142282 0.433393
Si Si2 0.363579 0.535803 0.932353
Si Si3 0.089497 0.645059 0.567660
Si Si4 0.998848 0.464193 0.067621
Si Si5 0.317036 0.356653 0.567038
Si Si6 0.545815 0.354937 0.067647
Si Si7 0.586177 0.357738 0.933434
O O1 0.384982 0.078261 0.498434
O O2 0.274624 0.102610 0.476478
O O3 0.351097 0.250013 0.499966
O O4 0.100324 0.147271 0.249979
O O5 0.178042 0.530538 0.749986
O O6 0.443335 0.606101 0.970852
O O7 0.443778 0.432805 0.999260
O O8 0.388078 0.578232 0.001536
O O9 0.001626 0.606085 0.529134
O O10 0.275811 0.646981 0.750007
O O11 0.054788 0.567197 0.499294
O O12 0.028276 0.749999 0.500006
O O13 0.500000 0.350926 0.750000
O O14 0.250000 0.250000 0.500000
O O15 0.321646 0.397403 0.523508
#
# Coordination Sequence:
#
# PCOD9256721 Si02
#       7
#     8   8   8   8   8   8   8
#     4  10  18  29  45  66  93 123 154 187 225 267
#     4  10  20  32  47  68  92 120 154 187 223 267
#     4  10  20  33  48  66  91 121 152 188 226 265
#     4  10  20  32  47  68  92 120 154 187 223 267
#     4   8  16  28  42  62  89 120 151 184 222 266
#     4  10  20  33  48  66  91 121 152 188 226 265
#     4  10  18  29  45  66  93 123 154 187 225 267
#
# _framework density 15.139351
#
# number of rings (size 3 to 8) (size 9 to 14) (size 15 to 20)
#    0.000    2.286    0.000    3.429    0.000    6.857 
#    0.000    0.000    0.000    0.000    0.000    1.000 
#    0.000    0.000    0.000    0.000    0.000    0.000 
#
# Total GULP energy -156097.580448 kJ/mol
# GULP energy per Si atom -5574.913587 kJ/mol
# Density = 1.510489 g / cm^3
# Si number density = 15.139351 Si / 1000 Ang^3
#
#
#
# Elastic Constant Matrix: (Units=GPa)
#
#
# Indices 1 2 3 4 5 6 
#
# 1 160.5201 75.4587 53.5157 -0.0027 -5.9968 -0.0004
# 2 75.4587 111.7167 43.0295 0.0039 -3.1401 -0.0015
# 3 53.5157 43.0295 50.1626 -0.0082 -4.6569 -0.0043
# 4 -0.0027 0.0039 -0.0082 26.8199 -0.0030 0.2183
# 5 -5.9968 -3.1401 -4.6569 -0.0030 22.5845 -0.0015
# 6 -0.0004 -0.0015 -0.0043 0.2183 -0.0015 24.5207
#
#
#
# Elastic Compliance Matrix: (Units=1/GPa)
#
#
# Indices 1 2 3 4 5 6 
#
# 1 0.010909 -0.004317 -0.007872 -0.000001 0.000673 -0.000001
# 2 -0.004317 0.015082 -0.008404 -0.000005 -0.000782 -0.000001
# 3 -0.007872 -0.008404 0.035928 0.000012 0.004149 0.000006
# 4 -0.000001 -0.000005 0.000012 0.037288 0.000006 -0.000332
# 5 0.000673 -0.000782 0.004149 0.000006 0.045204 0.000003
# 6 -0.000001 -0.000001 0.000006 -0.000332 0.000003 0.040785
#
#
# Mechanical properties :
#
#
# Convention : Reuss Voigt Hill
#
# Bulk Modulus (GPa) = 48.23570 74.04524 61.14047
# Shear Modulus (GPa) = 21.43209 24.81140 23.12174
#
# Velocity S-wave (km/s) = 3.76660 4.05269 3.91226
# Velocity P-wave (km/s) = 7.13069 8.42106 7.80260
#
# Compressibility (1/GPa) = 0.02073153
#
# Stress axis : x y z
#
# Youngs Moduli (GPa) = 91.66768 66.30202 27.83334
#
# Poissons Ratio (x) = 0.28625 0.21911
# Poissons Ratio (y) = 0.39577 0.23392
# Poissons Ratio (z) = 0.72163 0.55723
#
# Static dielectric constant tensor:
#      x y z
#    x 1.525570 0.000000 -0.003310 
#    y 0.000000 1.460800 0.000000 
#    z -0.003310 0.000000 1.491290 
# 
# From -- ./inp_files/303279.got.cif
#   From: 2010.05.17/outbox.cif.g08.bks.cpg/sg15_152_cif.got.tgz:303279.got - 2010.06.03 18:47:42.
