data_PCOD9256309
_publ_section_title
;
Structure prediction by ZEFSAII (Michael W. Deem and Ramdas Pophale) SiO2 
 PCOD9256309
Probable space group: C 2/C
;
_chemical_formula_sum "Si O2"
_cell_formula_units_Z 60
_cell_length_a 18.223240
_cell_length_b 9.386484
_cell_length_c 16.675656
_cell_angle_alpha 90.000000
_cell_angle_beta 84.396642
_cell_angle_gamma 90.000000
_cell_volume 2838.777108
_symmetry_space_group_name_H-M "C 2/C"
_symmetry_group_IT_number 15
_symmetry_cell_setting 'monoclinic'
loop_
_space_group_symop_operation_xyz
x,y,z
-x,y,1/2-z
-x,-y,-z
x,-y,1/2+z
1/2+x,1/2+y,z
1/2-x,1/2+y,1/2-z
1/2-x,1/2-y,-z
1/2+x,1/2-y,1/2+z
loop_
_atom_site_type_symbol
_atom_site_label
_atom_site_fract_x
_atom_site_fract_y
_atom_site_fract_z
Si Si1 0.748024 0.389511 0.695684
Si Si2 0.190213 0.319147 0.099683
Si Si3 0.633006 0.290673 0.019455
Si Si4 0.849967 0.891912 0.041229
Si Si5 0.336463 0.320342 0.296758
Si Si6 0.525312 0.180511 0.419150
Si Si7 0.500000 0.253189 0.250000
Si Si8 0.651380 0.996188 0.461878
O O1 0.685104 0.270035 0.682180
O O2 0.709127 0.537943 0.720600
O O3 0.802123 0.317128 0.754823
O O4 0.794710 0.425765 0.608240
O O5 0.274505 0.372331 0.096938
O O6 0.168490 0.195981 0.037823
O O7 0.155285 0.450817 0.054568
O O8 0.662404 0.300329 0.107153
O O9 0.549318 0.232127 0.031839
O O10 0.635920 0.445415 0.980468
O O11 0.671670 0.168806 0.962891
O O12 0.917373 0.811573 0.075483
O O13 0.423064 0.337684 0.265078
O O14 0.506246 0.160353 0.328731
O O15 0.570212 0.044153 0.443935
#
# Coordination Sequence:
#
# PCOD9256309 Si02
#       8
#     8   8   8   8   8   8   4   8
#     4  12  22  44  60  95 126 170 209 267 320 389
#     4  10  18  36  62  81 118 159 200 252 321 356
#     4  11  23  36  61 101 123 162 222 265 302 387
#     4  10  17  36  58  89 115 158 201 262 304 366
#     4  11  25  40  68  90 132 168 220 259 326 385
#     4  10  20  38  64  87 126 175 206 257 323 381
#     4  10  20  44  66  88 122 180 214 248 322 404
#     4  11  21  39  64  92 128 163 209 267 321 372
#
# _framework density 21.135861999999999
#
# number of rings (size 3 to 8) (size 9 to 14) (size 15 to 20)
#    0.000    1.333    6.667    0.800    1.867    2.133 
#    2.400    0.000    0.000    1.600    0.000    0.000 
#    0.000    0.000    0.000    0.000    0.000    0.000 
#
# Total GULP energy -167143.054179 kJ/mol
# GULP energy per Si atom -5571.435139 kJ/mol
# Density = 2.108776 g / cm^3
# Si number density = 21.135862 Si / 1000 Ang^3
#
#
#
# Elastic Constant Matrix: (Units=GPa)
#
#
# Indices 1 2 3 4 5 6 
#
# 1 106.8896 38.1675 29.7633 0.0000 9.3874 0.0000
# 2 38.1675 141.7715 35.7890 0.0000 11.6652 0.0000
# 3 29.7633 35.7890 55.0156 0.0000 20.6739 0.0000
# 4 0.0000 0.0000 0.0000 17.5834 0.0000 1.8575
# 5 9.3874 11.6652 20.6739 0.0000 27.2303 0.0000
# 6 0.0000 0.0000 0.0000 1.8575 0.0000 14.4237
#
#
#
# Elastic Compliance Matrix: (Units=1/GPa)
#
#
# Indices 1 2 3 4 5 6 
#
# 1 0.011404 -0.001797 -0.005335 0.000000 0.000888 0.000000
# 2 -0.001797 0.008734 -0.004948 0.000000 0.000635 0.000000
# 3 -0.005335 -0.004948 0.031893 0.000000 -0.020255 0.000000
# 4 0.000000 0.000000 0.000000 0.057656 0.000000 -0.007425
# 5 0.000888 0.000635 -0.020255 0.000000 0.051524 0.000000
# 6 0.000000 0.000000 0.000000 -0.007425 0.000000 0.070287
#
#
# Mechanical properties :
#
#
# Convention : Reuss Voigt Hill
#
# Bulk Modulus (GPa) = 35.87778 56.79070 46.33424
# Shear Modulus (GPa) = 18.87151 25.17792 22.02471
#
# Velocity S-wave (km/s) = 2.99133 3.45518 3.23159
# Velocity P-wave (km/s) = 5.37982 6.54564 5.99115
#
# Compressibility (1/GPa) = 0.02787240
#
# Stress axis : x y z
#
# Youngs Moduli (GPa) = 87.68509 114.49186 31.35444
#
# Poissons Ratio (x) = 0.20570 0.16727
# Poissons Ratio (y) = 0.15754 0.15515
# Poissons Ratio (z) = 0.46779 0.56654
#
# Static dielectric constant tensor:
#      x y z
#    x 1.802640 0.000000 -0.017020 
#    y 0.000000 1.798100 0.000000 
#    z -0.017020 0.000000 1.812130 
# 
# From -- ./inp_files/209588.got.cif
#   From: 2010.05.17/outbox.cif.g08.bks.cpg/sg15_105_cif.got.tgz:209588.got - 2010.06.03 18:47:42.
