data_PCOD9256402
_publ_section_title
;
Structure prediction by ZEFSAII (Michael W. Deem and Ramdas Pophale) SiO2 
 PCOD9256402
Probable space group: C 2/C
;
_chemical_formula_sum "Si O2"
_cell_formula_units_Z 60
_cell_length_a 27.044536
_cell_length_b 5.376019
_cell_length_c 17.166128
_cell_angle_alpha 90.000000
_cell_angle_beta 104.379262
_cell_angle_gamma 90.000000
_cell_volume 2417.630468
_symmetry_space_group_name_H-M "C 2/C"
_symmetry_group_IT_number 15
_symmetry_cell_setting 'monoclinic'
loop_
_space_group_symop_operation_xyz
x,y,z
-x,y,1/2-z
-x,-y,-z
x,-y,1/2+z
1/2+x,1/2+y,z
1/2-x,1/2+y,1/2-z
1/2-x,1/2-y,-z
1/2+x,1/2-y,1/2+z
loop_
_atom_site_type_symbol
_atom_site_label
_atom_site_fract_x
_atom_site_fract_y
_atom_site_fract_z
Si Si1 0.431973 0.841651 0.498972
Si Si2 0.102278 0.302732 0.758144
Si Si3 0.322810 0.345891 0.593303
Si Si4 0.000000 0.406613 0.250000
Si Si5 0.167787 0.660290 0.444880
Si Si6 0.281504 0.406738 0.752903
Si Si7 0.115207 0.795225 0.672293
Si Si8 0.555732 0.660006 0.411785
O O1 0.372843 0.857124 0.502599
O O2 0.427476 0.752541 0.409095
O O3 0.454306 0.613861 0.558239
O O4 0.451491 0.117604 0.527366
O O5 0.134620 0.311660 0.850665
O O6 0.125070 0.521037 0.712474
O O7 0.046717 0.412988 0.750357
O O8 0.098839 0.027252 0.720800
O O9 0.303027 0.584868 0.540988
O O10 0.306846 0.369899 0.677139
O O11 0.384826 0.332013 0.597008
O O12 0.302279 0.090086 0.552864
O O13 0.019605 0.234515 0.327197
O O14 0.256143 0.676910 0.747229
O O15 0.328775 0.388126 0.831398
#
# Coordination Sequence:
#
# PCOD9256402 Si02
#       8
#     8   8   8   4   8   8   8   8
#     4  10  22  41  64  90 128 171 213 245 334 391
#     4  12  23  40  67  94 125 173 221 264 302 381
#     4  10  18  37  59  88 117 160 211 243 312 364
#     4  12  24  40  68 104 122 160 244 268 300 348
#     4  10  17  37  64  84 113 167 214 248 292 376
#     4  12  23  36  63  96 126 157 209 270 314 375
#     4  12  25  45  64  95 132 172 204 261 338 385
#     4  10  22  39  66  90 124 171 212 271 300 376
#
# _framework density 24.817689000000001
#
# number of rings (size 3 to 8) (size 9 to 14) (size 15 to 20)
#    0.000    1.067    5.333    2.400    1.867    2.133 
#    0.000    4.000    0.000   19.200    0.000    0.000 
#    0.000    0.000    0.000    0.000    0.000    0.000 
#
# Total GULP energy -167762.965899 kJ/mol
# GULP energy per Si atom -5592.098863 kJ/mol
# Density = 2.476120 g / cm^3
# Si number density = 24.817689 Si / 1000 Ang^3
#
#
#
# Elastic Constant Matrix: (Units=GPa)
#
#
# Indices 1 2 3 4 5 6 
#
# 1 70.6449 22.8511 17.1749 0.0000 12.0667 0.0000
# 2 22.8511 173.2348 0.5767 0.0000 -3.2203 0.0000
# 3 17.1749 0.5767 17.7878 0.0000 6.1431 0.0000
# 4 0.0000 0.0000 0.0000 32.3936 0.0000 -5.5969
# 5 12.0667 -3.2203 6.1431 0.0000 31.8793 0.0000
# 6 0.0000 0.0000 0.0000 -5.5969 0.0000 46.1175
#
#
#
# Elastic Compliance Matrix: (Units=1/GPa)
#
#
# Indices 1 2 3 4 5 6 
#
# 1 0.020106 -0.002676 -0.017789 0.000000 -0.004453 0.000000
# 2 -0.002676 0.006142 0.001950 0.000000 0.001257 0.000000
# 3 -0.017789 0.001950 0.075995 0.000000 -0.007714 0.000000
# 4 0.000000 0.000000 0.000000 0.031531 0.000000 0.003827
# 5 -0.004453 0.001257 -0.007714 0.000000 0.034667 0.000000
# 6 0.000000 0.000000 0.000000 0.003827 0.000000 0.022148
#
#
# Mechanical properties :
#
#
# Convention : Reuss Voigt Hill
#
# Bulk Modulus (GPa) = 15.33399 38.09698 26.71548
# Shear Modulus (GPa) = 20.05157 36.81575 28.43366
#
# Velocity S-wave (km/s) = 2.84554 3.85573 3.38849
# Velocity P-wave (km/s) = 4.12167 5.93349 5.10855
#
# Compressibility (1/GPa) = 0.06521461
#
# Stress axis : x y z
#
# Youngs Moduli (GPa) = 49.73612 162.80429 13.15879
#
# Poissons Ratio (x) = 0.43562 0.23408
# Poissons Ratio (y) = 0.13308 -0.02566
# Poissons Ratio (z) = 0.88474 -0.31749
#
# Static dielectric constant tensor:
#      x y z
#    x 2.036130 0.000000 -0.027040 
#    y 0.000000 2.007630 0.000000 
#    z -0.027040 0.000000 1.988750 
# 
# From -- ./inp_files/223932.got.cif
#   From: 2010.05.17/outbox.cif.g08.bks.cpg/sg15_112_cif.got.tgz:223932.got - 2010.06.03 18:47:42.
