data_PCOD9256949
_publ_section_title
;
Structure prediction by ZEFSAII (Michael W. Deem and Ramdas Pophale) SiO2 
 PCOD9256949
Probable space group: C 2/C
;
_chemical_formula_sum "Si O2"
_cell_formula_units_Z 56
_cell_length_a 17.433003
_cell_length_b 9.724383
_cell_length_c 20.587429
_cell_angle_alpha 90.000000
_cell_angle_beta 137.597191
_cell_angle_gamma 90.000000
_cell_volume 2353.501008
_symmetry_space_group_name_H-M "C 2/C"
_symmetry_group_IT_number 15
_symmetry_cell_setting 'monoclinic'
loop_
_space_group_symop_operation_xyz
x,y,z
-x,y,1/2-z
-x,-y,-z
x,-y,1/2+z
1/2+x,1/2+y,z
1/2-x,1/2+y,1/2-z
1/2-x,1/2-y,-z
1/2+x,1/2-y,1/2+z
loop_
_atom_site_type_symbol
_atom_site_label
_atom_site_fract_x
_atom_site_fract_y
_atom_site_fract_z
Si Si1 0.752975 0.003193 0.913698
Si Si2 0.240477 0.091569 0.230439
Si Si3 0.724593 0.808172 0.077589
Si Si4 0.917373 0.592436 0.904911
Si Si5 0.928085 0.494821 0.605124
Si Si6 0.005377 0.969356 0.925878
Si Si7 0.421720 0.722525 0.793218
O O1 0.747524 0.982321 0.832667
O O2 0.768474 0.844216 0.947744
O O3 0.637716 0.054471 0.874219
O O4 0.866908 0.084883 0.003669
O O5 0.320395 0.224589 0.277343
O O6 0.303033 0.992778 0.319520
O O7 0.108860 0.112126 0.164170
O O8 0.629657 0.791452 0.076089
O O9 0.851598 0.827271 0.186254
O O10 0.671744 0.932561 0.003899
O O11 0.989834 0.596699 0.883716
O O12 0.000000 0.500000 0.000000
O O13 0.002430 0.358941 0.669765
O O14 0.989889 0.106425 0.873128
O O15 0.000000 0.000000 0.000000
#
# Coordination Sequence:
#
# PCOD9256949 Si02
#       7
#     8   8   8   8   8   8   8
#     4  10  20  33  52  79 113 142 176 223 291 333
#     4   9  19  33  51  77 106 145 185 221 270 327
#     4  10  18  30  49  76 108 142 181 218 272 332
#     4   9  18  31  48  68 108 140 182 213 259 334
#     4  10  20  34  48  79 116 145 173 224 290 348
#     4  10  19  34  52  76 112 142 183 227 270 333
#     4  10  19  31  52  76 110 142 181 226 273 326
#
# _framework density 23.794338
#
# number of rings (size 3 to 8) (size 9 to 14) (size 15 to 20)
#    0.000    2.286    2.857    0.429    0.000    5.143 
#    0.000    0.000    0.000    0.000    0.000   16.000 
#   60.000    0.000    0.000    0.000    0.000    0.000 
#
# Total GULP energy -156152.739673 kJ/mol
# GULP energy per Si atom -5576.883560 kJ/mol
# Density = 2.374018 g / cm^3
# Si number density = 23.794338 Si / 1000 Ang^3
#
#
#
# Elastic Constant Matrix: (Units=GPa)
#
#
# Indices 1 2 3 4 5 6 
#
# 1 118.4829 17.2025 22.1200 0.0000 22.3801 0.0000
# 2 17.2025 20.1720 15.0841 0.0000 0.7874 0.0000
# 3 22.1200 15.0841 140.2365 0.0000 21.5746 0.0000
# 4 0.0000 0.0000 0.0000 23.2275 0.0000 3.8819
# 5 22.3801 0.7874 21.5746 0.0000 29.5215 0.0000
# 6 0.0000 0.0000 0.0000 3.8819 0.0000 29.6867
#
#
#
# Elastic Compliance Matrix: (Units=1/GPa)
#
#
# Indices 1 2 3 4 5 6 
#
# 1 0.011429 -0.009865 0.000621 0.000000 -0.008855 0.000000
# 2 -0.009865 0.062687 -0.006850 0.000000 0.010813 0.000000
# 3 0.000621 -0.006850 0.008804 0.000000 -0.006722 0.000000
# 4 0.000000 0.000000 0.000000 0.044014 0.000000 -0.005755
# 5 -0.008855 0.010813 -0.006722 0.000000 0.045210 0.000000
# 6 0.000000 0.000000 0.000000 -0.005755 0.000000 0.034438
#
#
# Mechanical properties :
#
#
# Convention : Reuss Voigt Hill
#
# Bulk Modulus (GPa) = 19.71205 43.07832 31.39518
# Shear Modulus (GPa) = 19.55559 31.45279 25.50419
#
# Velocity S-wave (km/s) = 2.86992 3.63968 3.27748
# Velocity P-wave (km/s) = 4.39138 5.98388 5.24838
#
# Compressibility (1/GPa) = 0.05073040
#
# Stress axis : x y z
#
# Youngs Moduli (GPa) = 87.49647 15.95233 113.58677
#
# Poissons Ratio (x) = 0.15737 -0.07049
# Poissons Ratio (y) = 0.86316 0.77809
# Poissons Ratio (z) = -0.05430 0.10928
#
# Static dielectric constant tensor:
#      x y z
#    x 2.027190 0.000000 0.009880 
#    y 0.000000 1.958720 0.000000 
#    z 0.009880 0.000000 1.959880 
# 
# From -- ./inp_files/277119.got.cif
#   From: 2010.05.17/outbox.cif.g08.bks.cpg/sg15_139_cif.got.tgz:277119.got - 2010.06.03 18:47:42.
