data_PCOD9256688
_publ_section_title
;
Structure prediction by ZEFSAII (Michael W. Deem and Ramdas Pophale) SiO2 
 PCOD9256688
Probable space group: C 2/C
;
_chemical_formula_sum "Si O2"
_cell_formula_units_Z 52
_cell_length_a 12.319214
_cell_length_b 13.628706
_cell_length_c 15.710446
_cell_angle_alpha 90.000000
_cell_angle_beta 114.590887
_cell_angle_gamma 90.000000
_cell_volume 2398.470770
_symmetry_space_group_name_H-M "C 2/C"
_symmetry_group_IT_number 15
_symmetry_cell_setting 'monoclinic'
loop_
_space_group_symop_operation_xyz
x,y,z
-x,y,1/2-z
-x,-y,-z
x,-y,1/2+z
1/2+x,1/2+y,z
1/2-x,1/2+y,1/2-z
1/2-x,1/2-y,-z
1/2+x,1/2-y,1/2+z
loop_
_atom_site_type_symbol
_atom_site_label
_atom_site_fract_x
_atom_site_fract_y
_atom_site_fract_z
Si Si1 0.413742 0.663314 0.551874
Si Si2 0.210809 0.267698 0.750765
Si Si3 0.220755 0.176351 0.412794
Si Si4 0.084066 0.552266 0.960542
Si Si5 0.485097 0.731276 0.397208
Si Si6 0.500000 0.628836 0.750000
Si Si7 0.847842 0.629536 0.111565
O O1 0.488457 0.675044 0.489419
O O2 0.454873 0.592209 0.642158
O O3 0.281181 0.637356 0.476575
O O4 0.413646 0.773920 0.593851
O O5 0.218997 0.284169 0.653500
O O6 0.347888 0.259025 0.825161
O O7 0.121584 0.183081 0.754392
O O8 0.163106 0.358235 0.791061
O O9 0.250000 0.250000 0.500000
O O10 0.286351 0.075940 0.457476
O O11 0.077461 0.177346 0.364418
O O12 0.096889 0.474454 0.890327
O O13 0.028646 0.656769 0.919717
O O14 0.000000 0.500000 0.000000
#
# Coordination Sequence:
#
# PCOD9256688 Si02
#       7
#     8   8   8   8   8   4   8
#     4   9  17  34  58  88 117 166 199 248 305 375
#     4  10  21  37  61  88 120 166 207 250 307 380
#     4  10  22  39  61  85 123 165 202 248 317 374
#     4  11  21  36  64  93 123 155 207 264 311 360
#     4  10  20  39  64  87 120 165 205 252 318 375
#     4  10  18  28  58  84 118 150 218 238 288 364
#     4   9  19  35  60  88 123 154 205 255 312 357
#
# _framework density 21.680481
#
# number of rings (size 3 to 8) (size 9 to 14) (size 15 to 20)
#    0.000    2.154    1.538    3.231    2.154    0.000 
#    0.000    9.231    6.769    0.000    0.000    0.000 
#    0.000    0.000    0.000    0.000    0.000    0.000 
#
# Total GULP energy -144830.630956 kJ/mol
# GULP energy per Si atom -5570.408883 kJ/mol
# Density = 2.163114 g / cm^3
# Si number density = 21.680481 Si / 1000 Ang^3
#
#
#
# Elastic Constant Matrix: (Units=GPa)
#
#
# Indices 1 2 3 4 5 6 
#
# 1 125.7194 19.5254 20.6138 0.0000 -11.5961 0.0000
# 2 19.5254 45.7595 -2.1240 0.0000 -8.4926 0.0000
# 3 20.6138 -2.1240 103.6289 0.0000 -23.9844 0.0000
# 4 0.0000 0.0000 0.0000 13.0252 0.0000 -3.7391
# 5 -11.5961 -8.4926 -23.9844 0.0000 46.4096 0.0000
# 6 0.0000 0.0000 0.0000 -3.7391 0.0000 21.8350
#
#
#
# Elastic Compliance Matrix: (Units=1/GPa)
#
#
# Indices 1 2 3 4 5 6 
#
# 1 0.008873 -0.003742 -0.001689 0.000000 0.000659 0.000000
# 2 -0.003742 0.024440 0.002344 0.000000 0.004749 0.000000
# 3 -0.001689 0.002344 0.011399 0.000000 0.005898 0.000000
# 4 0.000000 0.000000 0.000000 0.080744 0.000000 0.013827
# 5 0.000659 0.004749 0.005898 0.000000 0.025629 0.000000
# 6 0.000000 0.000000 0.000000 0.013827 0.000000 0.048166
#
#
# Mechanical properties :
#
#
# Convention : Reuss Voigt Hill
#
# Bulk Modulus (GPa) = 25.94795 39.01536 32.48165
# Shear Modulus (GPa) = 22.90730 32.06013 27.48372
#
# Velocity S-wave (km/s) = 3.25404 3.84963 3.56430
# Velocity P-wave (km/s) = 5.11006 6.14770 5.65274
#
# Compressibility (1/GPa) = 0.03853869
#
# Stress axis : x y z
#
# Youngs Moduli (GPa) = 112.69892 40.91593 87.72769
#
# Poissons Ratio (x) = 0.15312 0.14819
# Poissons Ratio (y) = 0.42174 -0.20567
# Poissons Ratio (z) = 0.19037 -0.09593
#
# Static dielectric constant tensor:
#      x y z
#    x 1.845000 0.000000 0.060850 
#    y 0.000000 1.767790 0.000000 
#    z 0.060850 0.000000 1.855100 
# 
# From -- ./inp_files/144341.got.cif
#   From: 2010.05.17/outbox.cif.g08.bks.cpg/sg15_73_cif.got.tgz:144341.got - 2010.06.03 18:47:42.
