data_PCOD9256299
_publ_section_title
;
Structure prediction by ZEFSAII (Michael W. Deem and Ramdas Pophale) SiO2 
 PCOD9256299
Probable space group: C 2/C
;
_chemical_formula_sum "Si O2"
_cell_formula_units_Z 52
_cell_length_a 16.120478
_cell_length_b 11.273041
_cell_length_c 16.776860
_cell_angle_alpha 90.000000
_cell_angle_beta 66.367920
_cell_angle_gamma 90.000000
_cell_volume 2793.127646
_symmetry_space_group_name_H-M "C 2/C"
_symmetry_group_IT_number 15
_symmetry_cell_setting 'monoclinic'
loop_
_space_group_symop_operation_xyz
x,y,z
-x,y,1/2-z
-x,-y,-z
x,-y,1/2+z
1/2+x,1/2+y,z
1/2-x,1/2+y,1/2-z
1/2-x,1/2-y,-z
1/2+x,1/2-y,1/2+z
loop_
_atom_site_type_symbol
_atom_site_label
_atom_site_fract_x
_atom_site_fract_y
_atom_site_fract_z
Si Si1 0.050669 0.618664 0.816962
Si Si2 0.843212 0.416979 0.803183
Si Si3 0.986060 0.003449 0.346264
Si Si4 0.500000 0.726293 0.750000
Si Si5 0.654277 0.639843 0.304320
Si Si6 0.691226 0.371161 0.606447
Si Si7 0.858276 0.608286 0.935346
O O1 0.111904 0.502860 0.781084
O O2 0.112912 0.728971 0.815034
O O3 0.000000 0.637391 0.750000
O O4 0.965820 0.608621 0.909210
O O5 0.912054 0.308040 0.784117
O O6 0.742844 0.374401 0.822733
O O7 0.841748 0.499376 0.881896
O O8 0.887182 0.050713 0.406285
O O9 0.000000 0.054695 0.250000
O O10 0.070488 0.055438 0.361452
O O11 0.994620 0.863734 0.327237
O O12 0.685421 0.606678 0.202639
O O13 0.790021 0.399570 0.534982
O O14 0.667604 0.233590 0.597076
#
# Coordination Sequence:
#
# PCOD9256299 Si02
#       7
#     8   8   8   4   8   8   8
#     4  10  17  36  58  78 107 146 189 225 269 329
#     4  11  22  33  56  84 109 140 190 232 269 327
#     4   8  18  32  54  77 105 149 180 217 269 341
#     4  10  20  34  54  72 112 150 182 212 280 328
#     4  11  19  33  58  85 105 140 191 234 266 319
#     4  10  18  35  61  85 107 146 188 227 280 327
#     4  10  19  35  61  83 109 147 185 231 277 329
#
# _framework density 18.617121999999998
#
# number of rings (size 3 to 8) (size 9 to 14) (size 15 to 20)
#    0.462    1.538    6.923    0.462    2.154    0.000 
#    0.000    2.308    3.385    0.000    0.000    0.000 
#    0.000    0.000    0.000    0.000    0.000    0.000 
#
# Total GULP energy -144822.050640 kJ/mol
# GULP energy per Si atom -5570.078871 kJ/mol
# Density = 1.857475 g / cm^3
# Si number density = 18.617122 Si / 1000 Ang^3
#
#
#
# Elastic Constant Matrix: (Units=GPa)
#
#
# Indices 1 2 3 4 5 6 
#
# 1 106.2829 44.6205 10.2353 0.0000 -30.5737 0.0000
# 2 44.6205 114.6976 4.7265 0.0000 -12.7269 0.0000
# 3 10.2353 4.7265 59.0601 0.0000 -30.5205 0.0000
# 4 0.0000 0.0000 0.0000 9.3087 0.0000 -10.0593
# 5 -30.5737 -12.7269 -30.5205 0.0000 27.0280 0.0000
# 6 0.0000 0.0000 0.0000 -10.0593 0.0000 25.2863
#
#
#
# Elastic Compliance Matrix: (Units=1/GPa)
#
#
# Indices 1 2 3 4 5 6 
#
# 1 0.022921 -0.004522 0.020861 0.000000 0.047355 0.000000
# 2 -0.004522 0.010423 -0.000378 0.000000 -0.000634 0.000000
# 3 0.020861 -0.000378 0.061110 0.000000 0.092427 0.000000
# 4 0.000000 0.000000 0.000000 0.188432 0.000000 0.074961
# 5 0.047355 -0.000634 0.092427 0.000000 0.194638 0.000000
# 6 0.000000 0.000000 0.000000 0.074961 0.000000 0.069368
#
#
# Mechanical properties :
#
#
# Convention : Reuss Voigt Hill
#
# Bulk Modulus (GPa) = 7.91285 44.35615 26.13450
# Shear Modulus (GPa) = 8.97514 27.02182 17.99848
#
# Velocity S-wave (km/s) = 2.19804 3.81392 3.11267
# Velocity P-wave (km/s) = 3.27129 6.57813 5.19486
#
# Compressibility (1/GPa) = 0.12637667
#
# Stress axis : x y z
#
# Youngs Moduli (GPa) = 43.62884 95.94245 16.36387
#
# Poissons Ratio (x) = 0.43384 -0.34137
# Poissons Ratio (y) = 0.19728 0.00619
# Poissons Ratio (z) = -0.91016 0.03629
#
# Static dielectric constant tensor:
#      x y z
#    x 1.659920 0.000000 -0.002890 
#    y 0.000000 1.643250 0.000000 
#    z -0.002890 0.000000 1.686080 
# 
# From -- ./inp_files/243303.got.cif
#   From: 2010.05.17/outbox.cif.g08.bks.cpg/sg15_122_cif.got.tgz:243303.got - 2010.06.03 18:47:42.
