data_PCOD9256504
_publ_section_title
;
Structure prediction by ZEFSAII (Michael W. Deem and Ramdas Pophale) SiO2 
 PCOD9256504
Probable space group: C 2/C
;
_chemical_formula_sum "Si O2"
_cell_formula_units_Z 64
_cell_length_a 19.990206
_cell_length_b 22.275784
_cell_length_c 11.279206
_cell_angle_alpha 90.000000
_cell_angle_beta 44.553749
_cell_angle_gamma 90.000000
_cell_volume 3523.747588
_symmetry_space_group_name_H-M "C 2/C"
_symmetry_group_IT_number 15
_symmetry_cell_setting 'monoclinic'
loop_
_space_group_symop_operation_xyz
x,y,z
-x,y,1/2-z
-x,-y,-z
x,-y,1/2+z
1/2+x,1/2+y,z
1/2-x,1/2+y,1/2-z
1/2-x,1/2-y,-z
1/2+x,1/2-y,1/2+z
loop_
_atom_site_type_symbol
_atom_site_label
_atom_site_fract_x
_atom_site_fract_y
_atom_site_fract_z
Si Si1 0.910607 0.747776 0.796923
Si Si2 0.698418 0.166364 0.889513
Si Si3 0.496796 0.954021 0.382294
Si Si4 0.752974 0.777917 0.821659
Si Si5 0.794261 0.523651 0.634691
Si Si6 0.200188 0.521427 0.130479
Si Si7 0.505412 0.834380 0.515588
Si Si8 0.797734 0.335116 0.851704
O O1 0.839171 0.786698 0.805545
O O2 0.955918 0.701310 0.646756
O O3 0.000000 0.777914 0.750000
O O4 0.843247 0.715872 0.980192
O O5 0.743320 0.209595 0.733750
O O6 0.712293 0.095592 0.851826
O O7 0.584454 0.172841 0.017346
O O8 0.731969 0.184658 0.978695
O O9 0.500000 0.922700 0.250000
O O10 0.495619 0.903083 0.483441
O O11 0.402743 0.996142 0.499253
O O12 0.594086 0.992224 0.265217
O O13 0.759724 0.817303 0.693884
O O14 0.756510 0.505032 0.552545
O O15 0.749723 0.500018 0.812648
O O16 0.194983 0.593039 0.144756
O O17 0.403837 0.812157 0.688346
#
# Coordination Sequence:
#
# PCOD9256504 Si02
#       8
#     8   8   8   8   8   8   8   8
#     4  10  20  37  55  77 100 138 182 231 274 318
#     4  10  21  33  48  68 106 150 186 222 261 309
#     4  10  18  26  43  72 106 142 182 205 245 323
#     4  10  22  36  53  74 103 142 186 231 270 316
#     4  10  18  31  42  68 101 145 182 215 252 316
#     4  10  19  28  44  67 103 142 178 215 254 315
#     4  11  18  29  52  74 106 147 184 214 259 322
#     4  11  20  32  49  72 104 144 182 225 264 311
#
# _framework density 18.162481
#
# number of rings (size 3 to 8) (size 9 to 14) (size 15 to 20)
#    0.000    1.750    3.750    2.250    0.000    2.000 
#    2.250    0.000    0.000    0.000    0.000    0.000 
#    0.000    1.000    0.000    0.000    0.000    0.000 
#
# Total GULP energy -178165.727061 kJ/mol
# GULP energy per Si atom -5567.678971 kJ/mol
# Density = 1.812114 g / cm^3
# Si number density = 18.162481 Si / 1000 Ang^3
#
#
#
# Elastic Constant Matrix: (Units=GPa)
#
#
# Indices 1 2 3 4 5 6 
#
# 1 104.5799 -2.4190 27.7104 0.0000 27.4879 0.0000
# 2 -2.4190 18.2969 1.2083 0.0000 -0.0015 0.0000
# 3 27.7104 1.2083 50.2231 0.0000 21.8665 0.0000
# 4 0.0000 0.0000 0.0000 18.2953 0.0000 7.9261
# 5 27.4879 -0.0015 21.8665 0.0000 36.7111 0.0000
# 6 0.0000 0.0000 0.0000 7.9261 0.0000 25.0358
#
#
#
# Elastic Compliance Matrix: (Units=1/GPa)
#
#
# Indices 1 2 3 4 5 6 
#
# 1 0.012482 0.001905 -0.003866 0.000000 -0.007043 0.000000
# 2 0.001905 0.055062 -0.002371 0.000000 -0.000012 0.000000
# 3 -0.003866 -0.002371 0.028138 0.000000 -0.013865 0.000000
# 4 0.000000 0.000000 0.000000 0.063347 0.000000 -0.020055
# 5 -0.007043 -0.000012 -0.013865 0.000000 0.040772 0.000000
# 6 0.000000 0.000000 0.000000 -0.020055 0.000000 0.046292
#
#
# Mechanical properties :
#
#
# Convention : Reuss Voigt Hill
#
# Bulk Modulus (GPa) = 11.49177 25.12217 18.30697
# Shear Modulus (GPa) = 17.62031 25.78178 21.70104
#
# Velocity S-wave (km/s) = 3.11810 3.77172 3.46038
# Velocity P-wave (km/s) = 4.39367 5.72973 5.10559
#
# Compressibility (1/GPa) = 0.08701882
#
# Stress axis : x y z
#
# Youngs Moduli (GPa) = 80.11712 18.16118 35.53893
#
# Poissons Ratio (x) = -0.03460 0.13740
# Poissons Ratio (y) = -0.15262 0.08425
# Poissons Ratio (z) = 0.30975 0.04305
#
# Static dielectric constant tensor:
#      x y z
#    x 1.692720 0.000000 0.055430 
#    y 0.000000 1.631250 0.000000 
#    z 0.055430 0.000000 1.643420 
# 
# From -- ./inp_files/114597.got.cif
#   From: 2010.05.17/outbox.cif.g08.bks.cpg/sg15_58_cif.got.tgz:114597.got - 2010.06.03 18:47:42.
