data_PCOD9256789
_publ_section_title
;
Structure prediction by ZEFSAII (Michael W. Deem and Ramdas Pophale) SiO2 
 PCOD9256789
Probable space group: C 2/C
;
_chemical_formula_sum "Si O2"
_cell_formula_units_Z 64
_cell_length_a 25.165574
_cell_length_b 12.511524
_cell_length_c 21.894283
_cell_angle_alpha 90.000000
_cell_angle_beta 149.616145
_cell_angle_gamma 90.000000
_cell_volume 3486.732443
_symmetry_space_group_name_H-M "C 2/C"
_symmetry_group_IT_number 15
_symmetry_cell_setting 'monoclinic'
loop_
_space_group_symop_operation_xyz
x,y,z
-x,y,1/2-z
-x,-y,-z
x,-y,1/2+z
1/2+x,1/2+y,z
1/2-x,1/2+y,1/2-z
1/2-x,1/2-y,-z
1/2+x,1/2-y,1/2+z
loop_
_atom_site_type_symbol
_atom_site_label
_atom_site_fract_x
_atom_site_fract_y
_atom_site_fract_z
Si Si1 0.247550 0.772968 0.709123
Si Si2 0.717865 0.518803 0.118706
Si Si3 0.612229 0.152173 0.925928
Si Si4 0.458316 0.348067 0.581030
Si Si5 0.938468 0.339270 0.960737
Si Si6 0.880681 0.593187 0.706891
Si Si7 0.311779 0.310062 0.706070
Si Si8 0.341304 0.937318 0.359323
O O1 0.371318 0.799395 0.836134
O O2 0.213180 0.794857 0.746524
O O3 0.221475 0.651966 0.665704
O O4 0.194433 0.859312 0.612643
O O5 0.810694 0.504225 0.161337
O O6 0.766451 0.469672 0.229118
O O7 0.618401 0.447497 0.001978
O O8 0.572962 0.276145 0.891410
O O9 0.506666 0.087601 0.841147
O O10 0.636423 0.118965 0.880994
O O11 0.715565 0.146491 0.070208
O O12 0.439076 0.259327 0.508301
O O13 0.580845 0.375392 0.697398
O O14 0.883072 0.450449 0.926257
O O15 0.055289 0.374823 0.060697
O O16 0.838816 0.693853 0.704612
#
# Coordination Sequence:
#
# PCOD9256789 Si02
#       8
#     8   8   8   8   8   8   8   8
#     4  11  20  32  49  72 103 147 173 217 263 321
#     4  11  21  32  49  72 109 143 173 215 271 321
#     4  10  19  31  54  75 105 139 179 222 278 320
#     4  11  19  32  47  75 107 139 169 220 267 324
#     4  10  18  29  50  68  98 133 176 224 257 300
#     4  10  19  33  51  76 104 142 179 225 268 321
#     4  11  19  31  48  70 108 138 180 215 263 329
#     4  10  18  32  47  69  96 138 181 214 254 308
#
# _framework density 18.355294000000001
#
# number of rings (size 3 to 8) (size 9 to 14) (size 15 to 20)
#    0.000    1.500    6.250    1.125    0.000    0.500 
#    0.000    0.000    0.000    0.000    0.000    0.875 
#    0.000    0.000    1.500    0.125    0.000    9.750 
#
# Total GULP energy -178348.379472 kJ/mol
# GULP energy per Si atom -5573.386859 kJ/mol
# Density = 1.831352 g / cm^3
# Si number density = 18.355294 Si / 1000 Ang^3
#
#
#
# Elastic Constant Matrix: (Units=GPa)
#
#
# Indices 1 2 3 4 5 6 
#
# 1 54.5716 -1.6596 15.9111 0.0000 -2.7517 0.0000
# 2 -1.6596 49.5474 15.0424 0.0000 1.6342 0.0000
# 3 15.9111 15.0424 107.3878 0.0000 14.3890 0.0000
# 4 0.0000 0.0000 0.0000 20.3498 0.0000 -2.0902
# 5 -2.7517 1.6342 14.3890 0.0000 22.0716 0.0000
# 6 0.0000 0.0000 0.0000 -2.0902 0.0000 11.1624
#
#
#
# Elastic Compliance Matrix: (Units=1/GPa)
#
#
# Indices 1 2 3 4 5 6 
#
# 1 0.019725 0.001655 -0.003799 0.000000 0.004814 0.000000
# 2 0.001655 0.021221 -0.003325 0.000000 0.000803 0.000000
# 3 -0.003799 -0.003325 0.011364 0.000000 -0.007636 0.000000
# 4 0.000000 0.000000 0.000000 0.050104 0.000000 0.009382
# 5 0.004814 0.000803 -0.007636 0.000000 0.050826 0.000000
# 6 0.000000 0.000000 0.000000 0.009382 0.000000 0.091343
#
#
# Mechanical properties :
#
#
# Convention : Reuss Voigt Hill
#
# Bulk Modulus (GPa) = 24.17118 30.01051 27.09085
# Shear Modulus (GPa) = 18.56574 22.86429 20.71501
#
# Velocity S-wave (km/s) = 3.18380 3.53321 3.36305
# Velocity P-wave (km/s) = 5.16842 5.74717 5.46546
#
# Compressibility (1/GPa) = 0.04137158
#
# Stress axis : x y z
#
# Youngs Moduli (GPa) = 50.69610 47.12263 87.99758
#
# Poissons Ratio (x) = -0.07801 0.33434
# Poissons Ratio (y) = -0.08392 0.29263
# Poissons Ratio (z) = 0.19262 0.15670
#
# Static dielectric constant tensor:
#      x y z
#    x 1.684650 0.000000 0.030210 
#    y 0.000000 1.649390 0.000000 
#    z 0.030210 0.000000 1.691480 
# 
# From -- ./inp_files/283514.got.cif
#   From: 2010.05.17/outbox.cif.g08.bks.cpg/sg15_142_cif.got.tgz:283514.got - 2010.06.03 18:47:42.
