data_PCOD9256209
_publ_section_title
;
Structure prediction by ZEFSAII (Michael W. Deem and Ramdas Pophale) SiO2 
 PCOD9256209
Probable space group: C 2/C
;
_chemical_formula_sum "Si O2"
_cell_formula_units_Z 40
_cell_length_a 9.982254
_cell_length_b 10.682151
_cell_length_c 25.104492
_cell_angle_alpha 90.000000
_cell_angle_beta 135.473393
_cell_angle_gamma 90.000000
_cell_volume 1877.179057
_symmetry_space_group_name_H-M "C 2/C"
_symmetry_group_IT_number 15
_symmetry_cell_setting 'monoclinic'
loop_
_space_group_symop_operation_xyz
x,y,z
-x,y,1/2-z
-x,-y,-z
x,-y,1/2+z
1/2+x,1/2+y,z
1/2-x,1/2+y,1/2-z
1/2-x,1/2-y,-z
1/2+x,1/2-y,1/2+z
loop_
_atom_site_type_symbol
_atom_site_label
_atom_site_fract_x
_atom_site_fract_y
_atom_site_fract_z
Si Si1 0.793843 0.315436 0.793737
Si Si2 0.000000 0.609828 0.250000
Si Si3 0.691762 0.414099 0.138387
Si Si4 0.058065 0.318109 0.551576
Si Si5 0.304466 0.554316 0.590936
Si Si6 0.000000 0.986892 0.250000
O O1 0.887244 0.316759 0.763226
O O2 0.722468 0.178945 0.791401
O O3 0.938516 0.345153 0.883608
O O4 0.632367 0.419975 0.752804
O O5 0.158400 0.524093 0.324774
O O6 0.647463 0.321212 0.076325
O O7 0.485381 0.452348 0.103230
O O8 0.195894 0.420917 0.563880
O O9 0.847995 0.342092 0.470331
O O10 0.375148 0.582833 0.670887
#
# Coordination Sequence:
#
# PCOD9256209 Si02
#       6
#     8   4   8   8   8   4
#     4   9  21  36  54  86 113 147 195 230 277 344
#     4  12  21  37  56  88 120 148 193 243 278 330
#     4  10  21  34  61  78 116 154 187 231 292 334
#     4   8  20  36  58  83 113 149 196 225 288 344
#     4  10  17  35  63  82 110 155 185 239 282 336
#     4  10  17  35  58  80 112 150 187 233 284 322
#
# _framework density 21.308568999999999
#
# number of rings (size 3 to 8) (size 9 to 14) (size 15 to 20)
#    1.200    1.200    2.000    1.200    0.000    0.800 
#    0.000    1.000    0.000    6.000    0.000    0.000 
#    0.000    0.000    0.000    0.000    0.000    0.000 
#
# Total GULP energy -111479.907607 kJ/mol
# GULP energy per Si atom -5573.995380 kJ/mol
# Density = 2.126007 g / cm^3
# Si number density = 21.308569 Si / 1000 Ang^3
#
#
#
# Elastic Constant Matrix: (Units=GPa)
#
#
# Indices 1 2 3 4 5 6 
#
# 1 63.2659 14.5008 5.7641 0.0000 4.2768 0.0000
# 2 14.5008 31.9569 -1.5939 0.0000 3.9862 0.0000
# 3 5.7641 -1.5939 72.5468 0.0000 15.9531 0.0000
# 4 0.0000 0.0000 0.0000 9.5008 0.0000 7.4094
# 5 4.2768 3.9862 15.9531 0.0000 24.9819 0.0000
# 6 0.0000 0.0000 0.0000 7.4094 0.0000 26.5344
#
#
#
# Elastic Compliance Matrix: (Units=1/GPa)
#
#
# Indices 1 2 3 4 5 6 
#
# 1 0.017840 -0.008056 -0.001402 0.000000 -0.000873 0.000000
# 2 -0.008056 0.035848 0.002771 0.000000 -0.006111 0.000000
# 3 -0.001402 0.002771 0.016288 0.000000 -0.010604 0.000000
# 4 0.000000 0.000000 0.000000 0.134557 0.000000 -0.037574
# 5 -0.000873 -0.006111 -0.010604 0.000000 0.047925 0.000000
# 6 0.000000 0.000000 0.000000 -0.037574 0.000000 0.048179
#
#
# Mechanical properties :
#
#
# Convention : Reuss Voigt Hill
#
# Bulk Modulus (GPa) = 17.66724 22.79019 20.22871
# Shear Modulus (GPa) = 15.02052 22.14332 18.58192
#
# Velocity S-wave (km/s) = 2.65789 3.22712 2.95624
# Velocity P-wave (km/s) = 4.21050 4.96027 4.60068
#
# Compressibility (1/GPa) = 0.05660195
#
# Stress axis : x y z
#
# Youngs Moduli (GPa) = 56.05520 27.89550 61.39399
#
# Poissons Ratio (x) = 0.22472 0.08610
# Poissons Ratio (y) = 0.45158 -0.17015
# Poissons Ratio (z) = 0.07861 -0.07731
#
# Static dielectric constant tensor:
#      x y z
#    x 1.734170 0.000000 0.003610 
#    y 0.000000 1.852070 0.000000 
#    z 0.003610 0.000000 1.784960 
# 
# From -- ./inp_files/230458.got.cif
#   From: 2010.05.17/outbox.cif.g08.bks.cpg/sg15_116_cif.got.tgz:230458.got - 2010.06.03 18:47:42.
