data_PCOD9256708
_publ_section_title
;
Structure prediction by ZEFSAII (Michael W. Deem and Ramdas Pophale) SiO2 
 PCOD9256708
Probable space group: C 2/C
;
_chemical_formula_sum "Si O2"
_cell_formula_units_Z 64
_cell_length_a 24.631661
_cell_length_b 21.493877
_cell_length_c 7.940152
_cell_angle_alpha 90.000000
_cell_angle_beta 94.888830
_cell_angle_gamma 90.000000
_cell_volume 4188.460262
_symmetry_space_group_name_H-M "C 2/C"
_symmetry_group_IT_number 15
_symmetry_cell_setting 'monoclinic'
loop_
_space_group_symop_operation_xyz
x,y,z
-x,y,1/2-z
-x,-y,-z
x,-y,1/2+z
1/2+x,1/2+y,z
1/2-x,1/2+y,1/2-z
1/2-x,1/2-y,-z
1/2+x,1/2-y,1/2+z
loop_
_atom_site_type_symbol
_atom_site_label
_atom_site_fract_x
_atom_site_fract_y
_atom_site_fract_z
Si Si1 0.228712 0.561429 0.529529
Si Si2 0.397465 0.077014 0.326678
Si Si3 0.227212 0.579852 0.141224
Si Si4 0.111375 0.370802 0.023481
Si Si5 0.711687 0.325779 0.332769
Si Si6 0.673278 0.250692 0.629356
Si Si7 0.795089 0.803936 0.528207
Si Si8 0.561353 0.049143 0.796487
O O1 0.243089 0.575599 0.340628
O O2 0.231702 0.488463 0.563419
O O3 0.167534 0.588149 0.540698
O O4 0.269263 0.602976 0.651076
O O5 0.337096 0.095671 0.372260
O O6 0.412441 0.120584 0.171598
O O7 0.431157 0.070951 0.508821
O O8 0.399209 0.008606 0.239506
O O9 0.262667 0.633066 0.064854
O O10 0.129174 0.300900 0.069469
O O11 0.074293 0.398291 0.161924
O O12 0.679433 0.301901 0.485921
O O13 0.768662 0.286527 0.349591
O O14 0.680998 0.311659 0.151337
O O15 0.666771 0.282868 0.808763
O O16 0.750000 0.750000 0.500000
O O17 0.500000 0.026328 0.750000
#
# Coordination Sequence:
#
# PCOD9256708 Si02
#       8
#     8   8   8   8   8   8   8   8
#     4  10  18  29  44  63  91 111 157 191 235 265
#     4  11  22  33  49  64  85 115 152 193 247 283
#     4  11  19  30  45  67  87 119 154 200 231 272
#     4  10  22  33  48  68  86 116 152 201 233 284
#     4   9  17  28  43  60  84 117 140 186 224 268
#     4   9  18  32  43  62  89 113 148 181 232 273
#     4  10  20  28  44  63  88 116 146 186 233 271
#     4  12  23  36  51  67  89 117 152 202 259 289
#
# _framework density 15.280078
#
# number of rings (size 3 to 8) (size 9 to 14) (size 15 to 20)
#    0.000    1.750    3.750    1.875   10.500    0.000 
#    0.000    0.000    0.000    0.000    0.000    0.000 
#    0.000    0.000    0.000    0.000    0.000    1.250 
#
# Total GULP energy -178347.603402 kJ/mol
# GULP energy per Si atom -5573.362606 kJ/mol
# Density = 1.524530 g / cm^3
# Si number density = 15.280078 Si / 1000 Ang^3
#
#
#
# Elastic Constant Matrix: (Units=GPa)
#
#
# Indices 1 2 3 4 5 6 
#
# 1 8.9137 2.5588 7.1669 0.0000 -1.1326 0.0000
# 2 2.5588 53.4288 17.9680 0.0000 -1.1247 0.0000
# 3 7.1669 17.9680 124.9833 0.0000 1.2292 0.0000
# 4 0.0000 0.0000 0.0000 20.2128 0.0000 -2.3639
# 5 -1.1326 -1.1247 1.2292 0.0000 12.0401 0.0000
# 6 0.0000 0.0000 0.0000 -2.3639 0.0000 7.2181
#
#
#
# Elastic Compliance Matrix: (Units=1/GPa)
#
#
# Indices 1 2 3 4 5 6 
#
# 1 0.119849 -0.003305 -0.006512 0.000000 0.011630 0.000000
# 2 -0.003305 0.019813 -0.002677 0.000000 0.001813 0.000000
# 3 -0.006512 -0.002677 0.008777 0.000000 -0.001759 0.000000
# 4 0.000000 0.000000 0.000000 0.051444 0.000000 0.016848
# 5 0.011630 0.001813 -0.001759 0.000000 0.084499 0.000000
# 6 0.000000 0.000000 0.000000 0.016848 0.000000 0.144058
#
#
# Mechanical properties :
#
#
# Convention : Reuss Voigt Hill
#
# Bulk Modulus (GPa) = 8.10034 26.96812 17.53423
# Shear Modulus (GPa) = 10.10966 18.53635 14.32301
#
# Velocity S-wave (km/s) = 2.57500 3.48675 3.06496
# Velocity P-wave (km/s) = 3.76212 5.82215 4.90158
#
# Compressibility (1/GPa) = 0.12345154
#
# Stress axis : x y z
#
# Youngs Moduli (GPa) = 8.34386 50.47164 113.93964
#
# Poissons Ratio (x) = 0.16681 0.74194
# Poissons Ratio (y) = 0.02758 0.30498
# Poissons Ratio (z) = 0.05433 0.13510
#
# Static dielectric constant tensor:
#      x y z
#    x 1.477400 0.000000 -0.005810 
#    y 0.000000 1.516220 0.000000 
#    z -0.005810 0.000000 1.567790 
# 
# From -- ./inp_files/63103.got.cif
#   From: 2010.05.17/outbox.cif.g08.bks.cpg/sg15_32_cif.got.tgz:63103.got - 2010.06.03 18:47:42.
