data_PCOD9256417
_publ_section_title
;
Structure prediction by ZEFSAII (Michael W. Deem and Ramdas Pophale) SiO2 
 PCOD9256417
Probable space group: C 2/C
;
_chemical_formula_sum "Si O2"
_cell_formula_units_Z 52
_cell_length_a 7.897369
_cell_length_b 17.790203
_cell_length_c 16.531600
_cell_angle_alpha 90.000000
_cell_angle_beta 64.866447
_cell_angle_gamma 90.000000
_cell_volume 2102.715166
_symmetry_space_group_name_H-M "C 2/C"
_symmetry_group_IT_number 15
_symmetry_cell_setting 'monoclinic'
loop_
_space_group_symop_operation_xyz
x,y,z
-x,y,1/2-z
-x,-y,-z
x,-y,1/2+z
1/2+x,1/2+y,z
1/2-x,1/2+y,1/2-z
1/2-x,1/2-y,-z
1/2+x,1/2-y,1/2+z
loop_
_atom_site_type_symbol
_atom_site_label
_atom_site_fract_x
_atom_site_fract_y
_atom_site_fract_z
Si Si1 0.231743 0.580362 0.761023
Si Si2 0.788960 0.882001 0.547646
Si Si3 0.721619 0.918513 0.731618
Si Si4 0.901885 0.692031 0.118896
Si Si5 0.197059 0.838320 0.420970
Si Si6 0.602754 0.964736 0.055021
Si Si7 0.500000 0.700262 0.750000
O O1 0.319585 0.499490 0.719615
O O2 0.220518 0.626217 0.679202
O O3 0.333760 0.640299 0.797912
O O4 0.053444 0.550640 0.845754
O O5 0.803988 0.869643 0.641468
O O6 0.603275 0.840710 0.551516
O O7 0.977193 0.856967 0.467625
O O8 0.750135 0.971127 0.549526
O O9 0.500000 0.926357 0.750000
O O10 0.715933 0.875237 0.817557
O O11 0.790231 0.748907 0.084689
O O12 0.954126 0.746280 0.184664
O O13 0.293474 0.885390 0.472853
O O14 0.500000 0.000000 0.000000
#
# Coordination Sequence:
#
# PCOD9256417 Si02
#       7
#     8   8   8   8   8   8   4
#     4  11  22  41  68  94 136 176 230 286 353 413
#     4  11  21  41  70 102 134 177 234 290 349 428
#     4  10  17  37  70  91 125 181 222 267 350 418
#     4  10  20  41  68  98 134 180 231 279 356 425
#     4  11  24  40  69 105 133 180 245 288 341 427
#     4  12  26  42  66  99 142 183 229 292 357 409
#     4  10  22  34  68 104 122 170 236 280 340 428
#
# _framework density 24.729932000000002
#
# number of rings (size 3 to 8) (size 9 to 14) (size 15 to 20)
#    0.000    1.231    6.923    1.385    4.308    0.000 
#    0.000    0.769    6.769    0.000    0.000    0.000 
#    0.000    0.000    0.000    0.000    0.000    0.000 
#
# Total GULP energy -145284.581490 kJ/mol
# GULP energy per Si atom -5587.868519 kJ/mol
# Density = 2.467365 g / cm^3
# Si number density = 24.729932 Si / 1000 Ang^3
#
#
#
# Elastic Constant Matrix: (Units=GPa)
#
#
# Indices 1 2 3 4 5 6 
#
# 1 28.6631 24.9000 17.2093 0.0000 13.8419 0.0000
# 2 24.9000 169.2938 20.1953 0.0000 7.8555 0.0000
# 3 17.2093 20.1953 93.2126 0.0000 -5.7319 0.0000
# 4 0.0000 0.0000 0.0000 37.2157 0.0000 2.1915
# 5 13.8419 7.8555 -5.7319 0.0000 21.0951 0.0000
# 6 0.0000 0.0000 0.0000 2.1915 0.0000 38.0349
#
#
#
# Elastic Compliance Matrix: (Units=1/GPa)
#
#
# Indices 1 2 3 4 5 6 
#
# 1 0.074341 -0.006761 -0.015362 0.000000 -0.050436 0.000000
# 2 -0.006761 0.006829 -0.000117 0.000000 0.001862 0.000000
# 3 -0.015362 -0.000117 0.014454 0.000000 0.014051 0.000000
# 4 0.000000 0.000000 0.000000 0.026962 0.000000 -0.001553
# 5 -0.050436 0.001862 0.014051 0.000000 0.083623 0.000000
# 6 0.000000 0.000000 0.000000 -0.001553 0.000000 0.026381
#
#
# Mechanical properties :
#
#
# Convention : Reuss Voigt Hill
#
# Bulk Modulus (GPa) = 19.55258 46.19763 32.87510
# Shear Modulus (GPa) = 17.00000 34.52683 25.76341
#
# Velocity S-wave (km/s) = 2.62473 3.74057 3.23118
# Velocity P-wave (km/s) = 4.13633 6.11369 5.21950
#
# Compressibility (1/GPa) = 0.05114415
#
# Stress axis : x y z
#
# Youngs Moduli (GPa) = 13.45147 146.43661 69.18692
#
# Poissons Ratio (x) = 0.99011 1.06283
# Poissons Ratio (y) = 0.09095 0.00808
# Poissons Ratio (z) = 0.20664 0.01709
#
# Static dielectric constant tensor:
#      x y z
#    x 2.067170 0.000000 0.072800 
#    y 0.000000 1.995900 0.000000 
#    z 0.072800 0.000000 2.003440 
# 
# From -- ./inp_files/190854.got.cif
#   From: 2010.05.17/outbox.cif.g08.bks.cpg/sg15_96_cif.got.tgz:190854.got - 2010.06.03 18:47:42.
