data_PCOD9256479
_publ_section_title
;
Structure prediction by ZEFSAII (Michael W. Deem and Ramdas Pophale) SiO2 
 PCOD9256479
Probable space group: C 2/C
;
_chemical_formula_sum "Si O2"
_cell_formula_units_Z 56
_cell_length_a 9.918027
_cell_length_b 9.199878
_cell_length_c 21.884249
_cell_angle_alpha 90.000000
_cell_angle_beta 88.045273
_cell_angle_gamma 90.000000
_cell_volume 1995.658420
_symmetry_space_group_name_H-M "C 2/C"
_symmetry_group_IT_number 15
_symmetry_cell_setting 'monoclinic'
loop_
_space_group_symop_operation_xyz
x,y,z
-x,y,1/2-z
-x,-y,-z
x,-y,1/2+z
1/2+x,1/2+y,z
1/2-x,1/2+y,1/2-z
1/2-x,1/2-y,-z
1/2+x,1/2-y,1/2+z
loop_
_atom_site_type_symbol
_atom_site_label
_atom_site_fract_x
_atom_site_fract_y
_atom_site_fract_z
Si Si1 0.431265 0.508017 0.188068
Si Si2 0.557301 0.903350 0.444907
Si Si3 0.838054 0.874324 0.576993
Si Si4 0.354059 0.013458 0.761934
Si Si5 0.203557 0.217307 0.931486
Si Si6 0.058343 0.366739 0.624189
Si Si7 0.292196 0.473296 0.865293
O O1 0.500000 0.549895 0.250000
O O2 0.386017 0.640513 0.146572
O O3 0.286936 0.428503 0.204041
O O4 0.564849 0.449090 0.150637
O O5 0.706171 0.951112 0.420392
O O6 0.465517 0.960861 0.390875
O O7 0.500000 0.000000 0.500000
O O8 0.567582 0.734431 0.460562
O O9 0.684852 0.825815 0.581146
O O10 0.169537 0.954017 0.433172
O O11 0.500000 0.091070 0.750000
O O12 0.400009 0.877073 0.805123
O O13 0.295587 0.974536 0.695778
O O14 0.311253 0.308818 0.888796
O O15 0.250000 0.250000 0.000000
O O16 0.928502 0.288703 0.598670
#
# Coordination Sequence:
#
# PCOD9256479 Si02
#       7
#     8   8   8   8   8   8   8
#     4   9  22  44  72 120 155 205 263 336 418 504
#     4  11  26  48  76 113 158 216 277 341 413 491
#     4  11  27  48  79 113 159 211 271 333 418 489
#     4  10  17  45  82 116 154 215 269 338 419 506
#     4  11  26  48  77 115 155 215 273 337 408 491
#     4  10  25  49  78 113 157 213 275 335 417 504
#     4  10  23  47  78 110 167 208 276 345 411 507
#
# _framework density 28.060914
#
# number of rings (size 3 to 8) (size 9 to 14) (size 15 to 20)
#    0.000    1.714    2.857    0.000    8.000    0.571 
#    5.143    9.286    0.000    0.000    0.000    0.000 
#    0.000    0.000    0.000    0.000    0.000    0.000 
#
# Total GULP energy -156135.705248 kJ/mol
# GULP energy per Si atom -5576.275187 kJ/mol
# Density = 2.799705 g / cm^3
# Si number density = 28.060914 Si / 1000 Ang^3
#
#
#
# Elastic Constant Matrix: (Units=GPa)
#
#
# Indices 1 2 3 4 5 6 
#
# 1 240.8913 49.5980 65.5198 0.0000 -16.1110 0.0000
# 2 49.5980 174.0974 46.3725 0.0000 -6.4065 0.0000
# 3 65.5198 46.3725 140.2641 0.0000 4.8866 0.0000
# 4 0.0000 0.0000 0.0000 16.9752 0.0000 -0.0009
# 5 -16.1110 -6.4065 4.8866 0.0000 59.0655 0.0000
# 6 0.0000 0.0000 0.0000 -0.0009 0.0000 41.2301
#
#
#
# Elastic Compliance Matrix: (Units=1/GPa)
#
#
# Indices 1 2 3 4 5 6 
#
# 1 0.004989 -0.000805 -0.002115 0.000000 0.001449 0.000000
# 2 -0.000805 0.006472 -0.001786 0.000000 0.000630 0.000000
# 3 -0.002115 -0.001786 0.008760 0.000000 -0.001495 0.000000
# 4 0.000000 0.000000 0.000000 0.058909 0.000000 0.000001
# 5 0.001449 0.000630 -0.001495 0.000000 0.017518 0.000000
# 6 0.000000 0.000000 0.000000 0.000001 0.000000 0.024254
#
#
# Mechanical properties :
#
#
# Convention : Reuss Voigt Hill
#
# Bulk Modulus (GPa) = 92.50580 97.58149 95.04364
# Shear Modulus (GPa) = 37.33684 49.70499 43.52092
#
# Velocity S-wave (km/s) = 3.65165 4.21328 3.94248
# Velocity P-wave (km/s) = 7.12860 7.64979 7.39379
#
# Compressibility (1/GPa) = 0.01081013
#
# Stress axis : x y z
#
# Youngs Moduli (GPa) = 200.43948 154.51167 114.15789
#
# Poissons Ratio (x) = 0.12433 0.24143
# Poissons Ratio (y) = 0.16129 0.20386
# Poissons Ratio (z) = 0.42391 0.27592
#
# Static dielectric constant tensor:
#      x y z
#    x 2.250920 0.000000 -0.059230 
#    y 0.000000 2.333440 0.000000 
#    z -0.059230 0.000000 2.317810 
# 
# From -- ./inp_files/264202.got.cif
#   From: 2010.05.17/outbox.cif.g08.bks.cpg/sg15_133_cif.got.tgz:264202.got - 2010.06.03 18:47:42.
