data_PCOD9256365
_publ_section_title
;
Structure prediction by ZEFSAII (Michael W. Deem and Ramdas Pophale) SiO2 
 PCOD9256365
Probable space group: C 2/C
;
_chemical_formula_sum "Si O2"
_cell_formula_units_Z 56
_cell_length_a 15.637911
_cell_length_b 15.647906
_cell_length_c 17.982276
_cell_angle_alpha 90.000000
_cell_angle_beta 143.318947
_cell_angle_gamma 90.000000
_cell_volume 2628.546997
_symmetry_space_group_name_H-M "C 2/C"
_symmetry_group_IT_number 15
_symmetry_cell_setting 'monoclinic'
loop_
_space_group_symop_operation_xyz
x,y,z
-x,y,1/2-z
-x,-y,-z
x,-y,1/2+z
1/2+x,1/2+y,z
1/2-x,1/2+y,1/2-z
1/2-x,1/2-y,-z
1/2+x,1/2-y,1/2+z
loop_
_atom_site_type_symbol
_atom_site_label
_atom_site_fract_x
_atom_site_fract_y
_atom_site_fract_z
Si Si1 0.330070 0.660954 0.968832
Si Si2 0.625866 0.894983 0.755000
Si Si3 0.656926 0.524648 0.821923
Si Si4 0.407814 0.453378 0.872644
Si Si5 0.673096 0.840726 0.956647
Si Si6 0.313546 0.850081 0.968194
Si Si7 0.570554 0.086173 0.720709
O O1 0.486827 0.621015 0.084462
O O2 0.305200 0.757986 0.924938
O O3 0.263194 0.656629 0.004770
O O4 0.235937 0.603793 0.847713
O O5 0.766394 0.905886 0.803849
O O6 0.672726 0.882013 0.873383
O O7 0.497190 0.830807 0.644263
O O8 0.547776 0.986401 0.694265
O O9 0.500000 0.519236 0.750000
O O10 0.629256 0.525666 0.714484
O O11 0.745358 0.598844 0.926567
O O12 0.742573 0.434964 0.887051
O O13 0.500000 0.500000 0.000000
O O14 0.750000 0.750000 0.000000
O O15 0.482534 0.865344 0.097442
O O16 0.500000 0.112005 0.750000
#
# Coordination Sequence:
#
# PCOD9256365 Si02
#       7
#     8   8   8   8   8   8   8
#     4  10  21  37  62  99 141 175 222 276 336 417
#     4  11  22  46  70  97 141 182 235 293 365 425
#     4  12  24  42  72 100 136 183 237 285 358 436
#     4  12  25  43  68 104 147 188 228 293 364 429
#     4  11  25  48  74 101 133 186 253 303 352 427
#     4  10  21  38  64  98 129 178 232 275 329 419
#     4  10  17  36  66  88 127 181 218 266 339 417
#
# _framework density 21.304545000000001
#
# number of rings (size 3 to 8) (size 9 to 14) (size 15 to 20)
#    0.000    1.143    5.714    1.714    4.000    1.143 
#    2.571    0.000    0.000    0.000    0.000    0.000 
#    0.000    0.000    0.000    0.000    0.000    0.000 
#
# Total GULP energy -156148.084922 kJ/mol
# GULP energy per Si atom -5576.717319 kJ/mol
# Density = 2.125606 g / cm^3
# Si number density = 21.304545 Si / 1000 Ang^3
#
#
#
# Elastic Constant Matrix: (Units=GPa)
#
#
# Indices 1 2 3 4 5 6 
#
# 1 82.8089 13.2017 55.7500 0.0001 16.0367 0.0000
# 2 13.2017 91.4673 38.7739 0.0000 -6.7478 0.0000
# 3 55.7500 38.7739 129.3822 0.0002 10.3170 0.0001
# 4 0.0001 0.0000 0.0002 28.2171 0.0001 7.2970
# 5 16.0367 -6.7478 10.3170 0.0001 30.8159 0.0000
# 6 0.0000 0.0000 0.0001 7.2970 0.0000 9.5734
#
#
#
# Elastic Compliance Matrix: (Units=1/GPa)
#
#
# Indices 1 2 3 4 5 6 
#
# 1 0.018414 -0.000071 -0.007344 0.000000 -0.007140 0.000000
# 2 -0.000071 0.013052 -0.004224 0.000000 0.004309 0.000000
# 3 -0.007344 -0.004224 0.012256 0.000000 -0.001206 0.000000
# 4 0.000000 0.000000 0.000000 0.044140 0.000000 -0.033644
# 5 -0.007140 0.004309 -0.001206 0.000000 0.037514 0.000000
# 6 0.000000 0.000000 0.000000 -0.033644 0.000000 0.130100
#
#
# Mechanical properties :
#
#
# Convention : Reuss Voigt Hill
#
# Bulk Modulus (GPa) = 48.91747 57.67883 53.29815
# Shear Modulus (GPa) = 17.50890 26.78346 22.14618
#
# Velocity S-wave (km/s) = 2.86988 3.54951 3.22763
# Velocity P-wave (km/s) = 5.83031 6.62804 6.24193
#
# Compressibility (1/GPa) = 0.02044259
#
# Stress axis : x y z
#
# Youngs Moduli (GPa) = 54.30587 76.61768 81.59520
#
# Poissons Ratio (x) = 0.00547 0.59922
# Poissons Ratio (y) = 0.00387 0.34468
# Poissons Ratio (z) = 0.39881 0.32366
#
# Static dielectric constant tensor:
#      x y z
#    x 1.798740 0.000000 -0.000290 
#    y 0.000000 1.832100 0.000000 
#    z -0.000290 0.000000 1.809820 
# 
# From -- ./inp_files/249288.got.cif
#   From: 2010.05.17/outbox.cif.g08.bks.cpg/sg15_125_cif.got.tgz:249288.got - 2010.06.03 18:47:42.
