data_PCOD9256816
_publ_section_title
;
Structure prediction by ZEFSAII (Michael W. Deem and Ramdas Pophale) SiO2 
 PCOD9256816
Probable space group: C 2/C
;
_chemical_formula_sum "Si O2"
_cell_formula_units_Z 48
_cell_length_a 21.596157
_cell_length_b 9.850672
_cell_length_c 14.399832
_cell_angle_alpha 90.000000
_cell_angle_beta 113.904716
_cell_angle_gamma 90.000000
_cell_volume 2800.597941
_symmetry_space_group_name_H-M "C 2/C"
_symmetry_group_IT_number 15
_symmetry_cell_setting 'monoclinic'
loop_
_space_group_symop_operation_xyz
x,y,z
-x,y,1/2-z
-x,-y,-z
x,-y,1/2+z
1/2+x,1/2+y,z
1/2-x,1/2+y,1/2-z
1/2-x,1/2-y,-z
1/2+x,1/2-y,1/2+z
loop_
_atom_site_type_symbol
_atom_site_label
_atom_site_fract_x
_atom_site_fract_y
_atom_site_fract_z
Si Si1 0.420831 0.917465 0.707160
Si Si2 0.273294 0.666324 0.754988
Si Si3 0.689787 0.579412 0.524167
Si Si4 0.332090 0.947037 0.829827
Si Si5 0.843473 0.626742 0.549497
Si Si6 0.320939 0.311139 0.080432
O O1 0.500000 0.891653 0.750000
O O2 0.392688 0.919754 0.795279
O O3 0.377119 0.804730 0.625077
O O4 0.399951 0.059411 0.647373
O O5 0.312079 0.604459 0.866941
O O6 0.276632 0.828879 0.771942
O O7 0.200825 0.593429 0.708230
O O8 0.306781 0.636630 0.676259
O O9 0.769476 0.582663 0.543321
O O10 0.656959 0.710453 0.455558
O O11 0.660558 0.437220 0.473090
O O12 0.349578 0.927510 0.947910
O O13 0.250000 0.250000 0.000000
#
# Coordination Sequence:
#
# PCOD9256816 Si02
#       6
#     8   8   8   8   8   8
#     4  11  23  37  53  78 114 148 179 217 273 333
#     4  10  18  29  52  82 107 132 176 229 272 303
#     4  10  18  31  54  81 109 130 177 232 270 313
#     4  10  19  32  53  78 108 138 178 222 268 319
#     4  10  19  33  52  80 106 138 174 224 274 312
#     4  11  19  35  56  81 109 142 184 227 268 315
#
# _framework density 17.139196999999999
#
# number of rings (size 3 to 8) (size 9 to 14) (size 15 to 20)
#    0.000    1.667    5.000    1.000    0.000    0.667 
#    0.000    0.833    0.000    9.000    0.000    0.000 
#    0.000    0.000    0.000    0.000    0.000    0.000 
#
# Total GULP energy -133858.727904 kJ/mol
# GULP energy per Si atom -5577.446996 kJ/mol
# Density = 1.710019 g / cm^3
# Si number density = 17.139197 Si / 1000 Ang^3
#
#
#
# Elastic Constant Matrix: (Units=GPa)
#
#
# Indices 1 2 3 4 5 6 
#
# 1 83.9959 38.9761 37.0503 0.0000 9.2026 0.0000
# 2 38.9761 70.9773 34.7409 0.0000 3.8204 0.0000
# 3 37.0503 34.7409 83.5011 0.0000 -10.8007 0.0000
# 4 0.0000 0.0000 0.0000 30.8989 0.0000 -0.5893
# 5 9.2026 3.8204 -10.8007 0.0000 26.1684 0.0000
# 6 0.0000 0.0000 0.0000 -0.5893 0.0000 14.5675
#
#
#
# Elastic Compliance Matrix: (Units=1/GPa)
#
#
# Indices 1 2 3 4 5 6 
#
# 1 0.018858 -0.006621 -0.006704 0.000000 -0.008432 0.000000
# 2 -0.006621 0.020935 -0.006197 0.000000 -0.003286 0.000000
# 3 -0.006704 -0.006197 0.018963 0.000000 0.011089 0.000000
# 4 0.000000 0.000000 0.000000 0.032389 0.000000 0.001310
# 5 -0.008432 -0.003286 0.011089 0.000000 0.046236 0.000000
# 6 0.000000 0.000000 0.000000 0.001310 0.000000 0.068699
#
#
# Mechanical properties :
#
#
# Convention : Reuss Voigt Hill
#
# Bulk Modulus (GPa) = 50.72847 51.11209 50.92028
# Shear Modulus (GPa) = 19.86534 22.84077 21.35306
#
# Velocity S-wave (km/s) = 3.40819 3.65453 3.53350
# Velocity P-wave (km/s) = 6.71936 6.90608 6.81336
#
# Compressibility (1/GPa) = 0.01971280
#
# Stress axis : x y z
#
# Youngs Moduli (GPa) = 53.02698 47.76711 52.73354
#
# Poissons Ratio (x) = 0.31625 0.35352
# Poissons Ratio (y) = 0.35107 0.32681
# Poissons Ratio (z) = 0.35548 0.29603
#
# Static dielectric constant tensor:
#      x y z
#    x 1.551670 0.000000 -0.023050 
#    y 0.000000 1.614530 0.000000 
#    z -0.023050 0.000000 1.598040 
# 
# From -- ./inp_files/166398.got.cif
#   From: 2010.05.17/outbox.cif.g08.bks.cpg/sg15_84_cif.got.tgz:166398.got - 2010.06.03 18:47:42.
