data_PCOD9256395
_publ_section_title
;
Structure prediction by ZEFSAII (Michael W. Deem and Ramdas Pophale) SiO2 
 PCOD9256395
Probable space group: C 2/C
;
_chemical_formula_sum "Si O2"
_cell_formula_units_Z 52
_cell_length_a 29.468452
_cell_length_b 6.743520
_cell_length_c 17.440030
_cell_angle_alpha 90.000000
_cell_angle_beta 42.418575
_cell_angle_gamma 90.000000
_cell_volume 2337.760621
_symmetry_space_group_name_H-M "C 2/C"
_symmetry_group_IT_number 15
_symmetry_cell_setting 'monoclinic'
loop_
_space_group_symop_operation_xyz
x,y,z
-x,y,1/2-z
-x,-y,-z
x,-y,1/2+z
1/2+x,1/2+y,z
1/2-x,1/2+y,1/2-z
1/2-x,1/2-y,-z
1/2+x,1/2-y,1/2+z
loop_
_atom_site_type_symbol
_atom_site_label
_atom_site_fract_x
_atom_site_fract_y
_atom_site_fract_z
Si Si1 0.744163 0.996362 0.593545
Si Si2 0.056086 0.244166 0.773557
Si Si3 0.500000 0.388085 0.750000
Si Si4 0.681825 0.087068 0.022581
Si Si5 0.622794 0.620613 0.992999
Si Si6 0.913100 0.654218 0.483626
Si Si7 0.118567 0.616463 0.349618
O O1 0.717989 0.048044 0.540767
O O2 0.767920 0.767141 0.557663
O O3 0.808148 0.114945 0.544842
O O4 0.683294 0.985985 0.729610
O O5 0.117365 0.328789 0.648629
O O6 0.078347 0.269583 0.833374
O O7 0.040761 0.026848 0.759572
O O8 0.985831 0.359591 0.853732
O O9 0.559772 0.298409 0.623007
O O10 0.647309 0.038585 0.984628
O O11 0.632002 0.725229 0.899940
O O12 0.605212 0.387463 0.997877
O O13 0.919138 0.562614 0.560195
#
# Coordination Sequence:
#
# PCOD9256395 Si02
#       7
#     8   8   4   8   8   8   8
#     4   9  19  34  60  82 114 153 193 228 284 345
#     4  10  17  37  62  83 114 154 189 238 282 350
#     4  10  18  38  62  80 110 158 196 220 296 334
#     4   9  16  34  59  84 106 160 192 222 286 343
#     4  10  22  40  58  83 120 150 192 244 275 350
#     4  10  20  37  61  84 114 152 188 234 293 335
#     4  11  24  35  59  92 117 144 193 239 297 333
#
# _framework density 22.243511000000002
#
# number of rings (size 3 to 8) (size 9 to 14) (size 15 to 20)
#    0.000    2.154    4.615    0.462    4.308    2.462 
#    2.769    0.769    3.385    0.000    0.000    0.000 
#    0.000    0.000    0.000    0.000    0.000    0.000 
#
# Total GULP energy -144996.414930 kJ/mol
# GULP energy per Si atom -5576.785190 kJ/mol
# Density = 2.219288 g / cm^3
# Si number density = 22.243511 Si / 1000 Ang^3
#
#
#
# Elastic Constant Matrix: (Units=GPa)
#
#
# Indices 1 2 3 4 5 6 
#
# 1 95.6291 7.1616 4.8872 -0.0075 17.3670 0.0036
# 2 7.1616 49.6219 12.1479 -0.0050 4.4995 0.0234
# 3 4.8872 12.1479 71.0313 -0.0169 8.1636 0.0149
# 4 -0.0075 -0.0050 -0.0169 12.0844 0.0052 3.1064
# 5 17.3670 4.4995 8.1636 0.0052 42.3555 -0.0029
# 6 0.0036 0.0234 0.0149 3.1064 -0.0029 24.3989
#
#
#
# Elastic Compliance Matrix: (Units=1/GPa)
#
#
# Indices 1 2 3 4 5 6 
#
# 1 0.011373 -0.001218 -0.000054 0.000009 -0.004523 -0.000002
# 2 -0.001218 0.021267 -0.003427 0.000009 -0.001099 -0.000019
# 3 -0.000054 -0.003427 0.014955 0.000023 -0.002496 -0.000009
# 4 0.000009 0.000009 0.000023 0.085552 -0.000020 -0.010892
# 5 -0.004523 -0.001099 -0.002496 -0.000020 0.026062 0.000009
# 6 -0.000002 -0.000019 -0.000009 -0.010892 0.000009 0.042372
#
#
# Mechanical properties :
#
#
# Convention : Reuss Voigt Hill
#
# Bulk Modulus (GPa) = 26.18073 29.40841 27.79457
# Shear Modulus (GPa) = 22.35028 28.57345 25.46186
#
# Velocity S-wave (km/s) = 3.17330 3.58798 3.38699
# Velocity P-wave (km/s) = 5.02215 5.51495 5.27431
#
# Compressibility (1/GPa) = 0.03819603
#
# Stress axis : x y z
#
# Youngs Moduli (GPa) = 87.93140 47.02168 66.86724
#
# Poissons Ratio (x) = 0.05727 0.00363
# Poissons Ratio (y) = 0.10709 0.22915
# Poissons Ratio (z) = 0.00478 0.16114
#
# Static dielectric constant tensor:
#      x y z
#    x 1.877400 0.000010 0.025150 
#    y 0.000010 1.847590 0.000030 
#    z 0.025150 0.000030 1.771660 
# 
# From -- ./inp_files/176481.got.cif
#   From: 2010.05.17/outbox.cif.g08.bks.cpg/sg15_89_cif.got.tgz:176481.got - 2010.06.03 18:47:42.
