data_PCOD9256509
_publ_section_title
;
Structure prediction by ZEFSAII (Michael W. Deem and Ramdas Pophale) SiO2 
 PCOD9256509
Probable space group: C 2/C
;
_chemical_formula_sum "Si O2"
_cell_formula_units_Z 64
_cell_length_a 12.021703
_cell_length_b 16.678294
_cell_length_c 15.155008
_cell_angle_alpha 90.000000
_cell_angle_beta 65.593790
_cell_angle_gamma 90.000000
_cell_volume 2767.068935
_symmetry_space_group_name_H-M "C 2/C"
_symmetry_group_IT_number 15
_symmetry_cell_setting 'monoclinic'
loop_
_space_group_symop_operation_xyz
x,y,z
-x,y,1/2-z
-x,-y,-z
x,-y,1/2+z
1/2+x,1/2+y,z
1/2-x,1/2+y,1/2-z
1/2-x,1/2-y,-z
1/2+x,1/2-y,1/2+z
loop_
_atom_site_type_symbol
_atom_site_label
_atom_site_fract_x
_atom_site_fract_y
_atom_site_fract_z
Si Si1 0.247507 0.334304 0.455033
Si Si2 0.717008 0.138598 0.781127
Si Si3 0.812972 0.968410 0.752555
Si Si4 0.426756 0.721256 0.487460
Si Si5 0.987248 0.202040 0.659286
Si Si6 0.070583 0.058783 0.102670
Si Si7 0.764128 0.525682 0.416636
Si Si8 0.846353 0.650831 0.884449
O O1 0.250000 0.250000 0.500000
O O2 0.185216 0.320997 0.382226
O O3 0.391329 0.352615 0.386968
O O4 0.194719 0.403242 0.533320
O O5 0.856683 0.159527 0.709455
O O6 0.636628 0.163451 0.725146
O O7 0.727169 0.044548 0.798872
O O8 0.839865 0.927550 0.840256
O O9 0.755759 0.940635 0.676348
O O10 0.951210 0.987073 0.675957
O O11 0.479460 0.742708 0.566226
O O12 0.479850 0.643455 0.419216
O O13 0.289560 0.685788 0.549538
O O14 0.424123 0.797743 0.425815
O O15 0.000000 0.246812 0.750000
O O16 0.140680 0.010619 0.002839
O O17 0.847070 0.445654 0.392258
#
# Coordination Sequence:
#
# PCOD9256509 Si02
#       8
#     8   8   8   8   8   8   8   8
#     4  11  21  31  48  74 109 135 167 220 270 309
#     4   9  17  32  50  71 100 141 176 199 255 319
#     4  10  18  27  45  72 100 133 164 202 252 318
#     4   9  16  31  48  75 100 126 173 210 251 294
#     4   9  18  31  53  72  99 140 170 206 259 319
#     4  10  18  26  45  72 102 130 161 209 249 310
#     4  10  18  31  45  67 100 136 171 201 260 307
#     4   8  17  30  51  69  96 134 172 211 243 303
#
# _framework density 23.129166000000001
#
# number of rings (size 3 to 8) (size 9 to 14) (size 15 to 20)
#    0.000    2.500    1.250    2.625    3.500    1.000 
#    0.000    1.250    0.000    0.750    0.000    0.000 
#   11.250    0.000    0.000    0.000    0.000    0.000 
#
# Total GULP energy -178187.139240 kJ/mol
# GULP energy per Si atom -5568.348101 kJ/mol
# Density = 2.307652 g / cm^3
# Si number density = 23.129166 Si / 1000 Ang^3
#
#
#
# Elastic Constant Matrix: (Units=GPa)
#
#
# Indices 1 2 3 4 5 6 
#
# 1 69.2615 19.3622 29.5119 0.0000 22.8553 0.0000
# 2 19.3622 81.9737 67.3292 0.0000 32.9978 0.0000
# 3 29.5119 67.3292 176.0021 0.0000 57.3774 0.0000
# 4 0.0000 0.0000 0.0000 20.8608 0.0000 6.0336
# 5 22.8553 32.9978 57.3774 0.0000 43.4429 0.0000
# 6 0.0000 0.0000 0.0000 6.0336 0.0000 11.5173
#
#
#
# Elastic Compliance Matrix: (Units=1/GPa)
#
#
# Indices 1 2 3 4 5 6 
#
# 1 0.017500 -0.000738 0.000293 0.000000 -0.009033 0.000000
# 2 -0.000738 0.019531 -0.004633 0.000000 -0.008328 0.000000
# 3 0.000293 -0.004633 0.011078 0.000000 -0.011266 0.000000
# 4 0.000000 0.000000 0.000000 0.056497 0.000000 -0.029598
# 5 -0.009033 -0.008328 -0.011266 0.000000 0.048976 0.000000
# 6 0.000000 0.000000 0.000000 -0.029598 0.000000 0.102331
#
#
# Mechanical properties :
#
#
# Convention : Reuss Voigt Hill
#
# Bulk Modulus (GPa) = 26.34846 62.18268 44.26557
# Shear Modulus (GPa) = 17.93911 29.23313 23.58612
#
# Velocity S-wave (km/s) = 2.78799 3.55900 3.19683
# Velocity P-wave (km/s) = 4.66695 6.62057 5.72767
#
# Compressibility (1/GPa) = 0.03795289
#
# Stress axis : x y z
#
# Youngs Moduli (GPa) = 57.14173 51.20111 90.27143
#
# Poissons Ratio (x) = 0.03777 -0.02641
# Poissons Ratio (y) = 0.04216 0.41821
# Poissons Ratio (z) = -0.01672 0.23720
#
# Static dielectric constant tensor:
#      x y z
#    x 1.932510 0.000000 0.003530 
#    y 0.000000 1.868050 0.000000 
#    z 0.003530 0.000000 1.886910 
# 
# From -- ./inp_files/154836.got.cif
#   From: 2010.05.17/outbox.cif.g08.bks.cpg/sg15_78_cif.got.tgz:154836.got - 2010.06.03 18:47:42.
