data_PCOD9256638
_publ_section_title
;
Structure prediction by ZEFSAII (Michael W. Deem and Ramdas Pophale) SiO2 
 PCOD9256638
Probable space group: C 2/C
;
_chemical_formula_sum "Si O2"
_cell_formula_units_Z 64
_cell_length_a 16.125862
_cell_length_b 10.315374
_cell_length_c 29.364898
_cell_angle_alpha 90.000000
_cell_angle_beta 149.124954
_cell_angle_gamma 90.000000
_cell_volume 2506.660689
_symmetry_space_group_name_H-M "C 2/C"
_symmetry_group_IT_number 15
_symmetry_cell_setting 'monoclinic'
loop_
_space_group_symop_operation_xyz
x,y,z
-x,y,1/2-z
-x,-y,-z
x,-y,1/2+z
1/2+x,1/2+y,z
1/2-x,1/2+y,1/2-z
1/2-x,1/2-y,-z
1/2+x,1/2-y,1/2+z
loop_
_atom_site_type_symbol
_atom_site_label
_atom_site_fract_x
_atom_site_fract_y
_atom_site_fract_z
Si Si1 0.480165 0.601636 0.421632
Si Si2 0.286279 0.773840 0.081663
Si Si3 0.703026 0.996396 0.041959
Si Si4 0.823426 0.553528 0.874301
Si Si5 0.652396 0.348662 0.545850
Si Si6 0.094168 0.545556 0.393731
Si Si7 0.252634 0.050562 0.745246
Si Si8 0.685460 0.753381 0.635783
O O1 0.615392 0.706955 0.474788
O O2 0.829173 0.357945 0.607037
O O3 0.360927 0.650783 0.405586
O O4 0.396244 0.539317 0.339096
O O5 0.320110 0.621353 0.095256
O O6 0.389709 0.893767 0.113190
O O7 0.252084 0.798695 0.119124
O O8 0.737462 0.912648 0.103672
O O9 0.692406 0.935447 0.987147
O O10 0.519874 0.051754 0.965386
O O11 0.756743 0.615282 0.796854
O O12 0.771420 0.403356 0.842925
O O13 0.580021 0.486262 0.493235
O O14 0.510102 0.256298 0.459594
O O15 0.904704 0.547781 0.313661
O O16 0.249111 0.163558 0.705834
#
# Coordination Sequence:
#
# PCOD9256638 Si02
#       8
#     8   8   8   8   8   8   8   8
#     4   8  15  28  47  70  96 128 162 195 236 288
#     4   9  17  31  53  74  98 131 165 201 242 294
#     4   9  18  33  49  70  99 131 167 201 237 290
#     4   9  19  34  50  69  96 131 171 203 234 289
#     4   8  15  29  48  69  95 129 163 194 234 289
#     4  10  18  28  48  79 104 125 156 204 256 292
#     4  10  19  29  47  75 101 127 159 205 254 289
#     4   9  18  34  52  70  96 134 170 200 241 292
#
# _framework density 25.531976
#
# number of rings (size 3 to 8) (size 9 to 14) (size 15 to 20)
#    0.000    3.000    0.000    2.625    0.000    4.000 
#    0.000    3.750    0.000   11.250    0.000    8.750 
#    0.000   10.000    0.000    0.000    0.000    0.000 
#
# Total GULP energy -178772.068963 kJ/mol
# GULP energy per Si atom -5586.627155 kJ/mol
# Density = 2.547386 g / cm^3
# Si number density = 25.531976 Si / 1000 Ang^3
#
#
#
# Elastic Constant Matrix: (Units=GPa)
#
#
# Indices 1 2 3 4 5 6 
#
# 1 107.7450 7.5154 36.1760 0.0000 -21.0210 0.0000
# 2 7.5154 38.0110 14.4441 0.0000 -8.9720 0.0000
# 3 36.1760 14.4441 90.8968 0.0000 -30.6047 0.0000
# 4 0.0000 0.0000 0.0000 25.9636 0.0000 -3.7654
# 5 -21.0210 -8.9720 -30.6047 0.0000 34.7931 0.0000
# 6 0.0000 0.0000 0.0000 -3.7654 0.0000 35.0056
#
#
#
# Elastic Compliance Matrix: (Units=1/GPa)
#
#
# Indices 1 2 3 4 5 6 
#
# 1 0.011092 -0.000090 -0.003057 0.000000 0.003989 0.000000
# 2 -0.000090 0.028551 -0.002899 0.000000 0.004758 0.000000
# 3 -0.003057 -0.002899 0.016773 0.000000 0.012159 0.000000
# 4 0.000000 0.000000 0.000000 0.039126 0.000000 0.004209
# 5 0.003989 0.004758 0.012159 0.000000 0.043074 0.000000
# 6 0.000000 0.000000 0.000000 0.004209 0.000000 0.029020
#
#
# Mechanical properties :
#
#
# Convention : Reuss Voigt Hill
#
# Bulk Modulus (GPa) = 22.56142 39.21376 30.88759
# Shear Modulus (GPa) = 25.70673 31.05360 28.38016
#
# Velocity S-wave (km/s) = 3.17652 3.49128 3.33761
# Velocity P-wave (km/s) = 4.72329 5.62531 5.19392
#
# Compressibility (1/GPa) = 0.04432344
#
# Stress axis : x y z
#
# Youngs Moduli (GPa) = 90.15349 35.02552 59.62025
#
# Poissons Ratio (x) = 0.00314 0.18227
# Poissons Ratio (y) = 0.00809 0.17285
# Poissons Ratio (z) = 0.27561 0.10155
#
# Static dielectric constant tensor:
#      x y z
#    x 2.104370 0.000000 0.001920 
#    y 0.000000 2.134800 0.000000 
#    z 0.001920 0.000000 2.026220 
# 
# From -- ./inp_files/316396.got.cif
#   From: 2010.05.17/outbox.cif.g08.bks.cpg/sg15_159_cif.got.tgz:316396.got - 2010.06.03 18:47:42.
