data_PCOD9256709
_publ_section_title
;
Structure prediction by ZEFSAII (Michael W. Deem and Ramdas Pophale) SiO2 
 PCOD9256709
Probable space group: C 2/C
;
_chemical_formula_sum "Si O2"
_cell_formula_units_Z 56
_cell_length_a 26.237495
_cell_length_b 5.430731
_cell_length_c 17.392880
_cell_angle_alpha 90.000000
_cell_angle_beta 58.214162
_cell_angle_gamma 90.000000
_cell_volume 2106.603470
_symmetry_space_group_name_H-M "C 2/C"
_symmetry_group_IT_number 15
_symmetry_cell_setting 'monoclinic'
loop_
_space_group_symop_operation_xyz
x,y,z
-x,y,1/2-z
-x,-y,-z
x,-y,1/2+z
1/2+x,1/2+y,z
1/2-x,1/2+y,1/2-z
1/2-x,1/2-y,-z
1/2+x,1/2-y,1/2+z
loop_
_atom_site_type_symbol
_atom_site_label
_atom_site_fract_x
_atom_site_fract_y
_atom_site_fract_z
Si Si1 0.014435 0.103387 0.072531
Si Si2 0.383666 0.207880 0.830811
Si Si3 0.037151 0.403732 0.620823
Si Si4 0.335732 0.259372 0.706845
Si Si5 0.733321 0.102479 0.090011
Si Si6 0.696496 0.239393 0.293350
Si Si7 0.867099 0.041900 0.977400
O O1 0.086032 0.138439 0.020975
O O2 0.998996 0.385273 0.107334
O O3 0.003602 0.867349 0.140099
O O4 0.000000 0.000000 0.000000
O O5 0.379457 0.251530 0.743815
O O6 0.437660 0.040184 0.821339
O O7 0.319960 0.073376 0.893899
O O8 0.377604 0.466671 0.879584
O O9 0.101520 0.305854 0.535531
O O10 0.342722 0.520789 0.663813
O O11 0.262552 0.262452 0.779611
O O12 0.338970 0.006664 0.659355
O O13 0.710501 0.225558 0.188411
O O14 0.799366 0.998608 0.053206
O O15 0.750000 0.250000 0.000000
#
# Coordination Sequence:
#
# PCOD9256709 Si02
#       7
#     8   8   8   8   8   8   8
#     4   9  17  31  45  59  88 120 139 179 223 264
#     4  10  18  29  44  63  92 124 150 182 218 252
#     4   9  18  28  42  66  85 112 147 178 211 272
#     4   9  18  31  45  55  83 117 162 189 212 241
#     4  11  17  27  44  64  95 126 147 178 221 260
#     4   9  19  31  41  61  79 121 161 186 209 254
#     4   9  19  27  40  68  88 116 148 179 210 276
#
# _framework density 26.583075999999998
#
# number of rings (size 3 to 8) (size 9 to 14) (size 15 to 20)
#    0.857    1.714    1.429    1.714    2.000    1.143 
#    0.000    0.000    0.000    0.000    0.000    0.000 
#    0.000    4.571    6.571    0.000    0.000    0.429 
#
# Total GULP energy -155883.336160 kJ/mol
# GULP energy per Si atom -5567.262006 kJ/mol
# Density = 2.652257 g / cm^3
# Si number density = 26.583076 Si / 1000 Ang^3
#
#
#
# Elastic Constant Matrix: (Units=GPa)
#
#
# Indices 1 2 3 4 5 6 
#
# 1 97.5510 23.2092 35.6579 -0.0021 9.3860 -0.0072
# 2 23.2092 205.5774 22.9190 0.0094 3.1717 0.0079
# 3 35.6579 22.9190 72.5725 -0.0047 0.5167 -0.0050
# 4 -0.0021 0.0094 -0.0047 15.3164 -0.0018 21.2561
# 5 9.3860 3.1717 0.5167 -0.0018 39.9479 -0.0044
# 6 -0.0072 0.0079 -0.0050 21.2561 -0.0044 30.0167
#
#
#
# Elastic Compliance Matrix: (Units=1/GPa)
#
#
# Indices 1 2 3 4 5 6 
#
# 1 0.012936 -0.000735 -0.006103 -0.000147 -0.002902 0.000106
# 2 -0.000735 0.005089 -0.001244 -0.000070 -0.000215 0.000048
# 3 -0.006103 -0.001244 0.017162 0.000156 0.001311 -0.000108
# 4 -0.000147 -0.000070 0.000156 3.786613 -0.000088 -2.681462
# 5 -0.002902 -0.000215 0.001311 -0.000088 0.025715 0.000066
# 6 0.000106 0.000048 -0.000108 -2.681462 0.000066 1.932173
#
#
# Mechanical properties :
#
#
# Convention : Reuss Voigt Hill
#
# Bulk Modulus (GPa) = 52.57229 59.91923 56.24576
# Shear Modulus (GPa) = 0.86174 36.65050 18.75612
#
# Velocity S-wave (km/s) = 0.56998 3.71713 2.65913
# Velocity P-wave (km/s) = 4.50030 6.40407 5.53465
#
# Compressibility (1/GPa) = 0.01902143
#
# Stress axis : x y z
#
# Youngs Moduli (GPa) = 77.30293 196.48593 58.26909
#
# Poissons Ratio (x) = 0.14447 0.35563
# Poissons Ratio (y) = 0.05684 0.07252
# Poissons Ratio (z) = 0.47179 0.24452
#
# Static dielectric constant tensor:
#      x y z
#    x 2.101110 -0.000020 0.003120 
#    y -0.000020 2.289900 0.000040 
#    z 0.003120 0.000040 2.699720 
# 
# From -- ./inp_files/256342.got.cif
#   From: 2010.05.17/outbox.cif.g08.bks.cpg/sg15_129_cif.got.tgz:256342.got - 2010.06.03 18:47:42.
