data_PCOD9256154
_publ_section_title
;
Structure prediction by ZEFSAII (Michael W. Deem and Ramdas Pophale) SiO2 
 PCOD9256154
Probable space group: C 2/C
;
_chemical_formula_sum "Si O2"
_cell_formula_units_Z 52
_cell_length_a 11.298262
_cell_length_b 17.849160
_cell_length_c 14.667622
_cell_angle_alpha 90.000000
_cell_angle_beta 64.794978
_cell_angle_gamma 90.000000
_cell_volume 2676.312333
_symmetry_space_group_name_H-M "C 2/C"
_symmetry_group_IT_number 15
_symmetry_cell_setting 'monoclinic'
loop_
_space_group_symop_operation_xyz
x,y,z
-x,y,1/2-z
-x,-y,-z
x,-y,1/2+z
1/2+x,1/2+y,z
1/2-x,1/2+y,1/2-z
1/2-x,1/2-y,-z
1/2+x,1/2-y,1/2+z
loop_
_atom_site_type_symbol
_atom_site_label
_atom_site_fract_x
_atom_site_fract_y
_atom_site_fract_z
Si Si1 0.329696 0.031898 0.485203
Si Si2 0.718264 0.316806 0.677090
Si Si3 0.449556 0.875391 0.487335
Si Si4 0.383906 0.839901 0.230938
Si Si5 0.500000 0.435124 0.750000
Si Si6 0.152721 0.592191 0.214324
Si Si7 0.719271 0.467518 0.218914
O O1 0.453328 0.082371 0.475248
O O2 0.288356 0.063836 0.400934
O O3 0.233822 0.037806 0.604386
O O4 0.374106 0.945181 0.464369
O O5 0.843439 0.324349 0.571544
O O6 0.655906 0.235603 0.705444
O O7 0.611493 0.378008 0.678833
O O8 0.767821 0.341975 0.761652
O O9 0.543130 0.829675 0.389297
O O10 0.500000 0.878990 0.250000
O O11 0.257010 0.890097 0.253268
O O12 0.416779 0.491689 0.714167
O O13 0.169627 0.524103 0.280659
O O14 0.000000 0.609631 0.250000
#
# Coordination Sequence:
#
# PCOD9256154 Si02
#       7
#     8   8   8   8   4   8   8
#     4  10  17  34  63  92 111 148 213 268 288 358
#     4  11  22  40  59  89 127 169 197 252 327 369
#     4  10  19  36  63  87 119 160 204 257 313 357
#     4  11  23  39  61  93 120 159 215 261 303 372
#     4  10  20  42  60  80 130 170 188 260 322 366
#     4  11  18  34  64  88 112 156 209 250 300 366
#     4  10  21  38  61  91 120 156 209 257 309 360
#
# _framework density 19.42972
#
# number of rings (size 3 to 8) (size 9 to 14) (size 15 to 20)
#    0.000    1.538    5.385    3.231    0.000    0.615 
#    1.385    7.692    0.000    0.000    0.000    0.000 
#    0.000    0.000    0.000    0.000    0.000    0.000 
#
# Total GULP energy -144840.006969 kJ/mol
# GULP energy per Si atom -5570.769499 kJ/mol
# Density = 1.938550 g / cm^3
# Si number density = 19.429720 Si / 1000 Ang^3
#
#
#
# Elastic Constant Matrix: (Units=GPa)
#
#
# Indices 1 2 3 4 5 6 
#
# 1 74.0042 23.3297 10.6131 0.0000 -10.5234 0.0000
# 2 23.3297 72.8356 11.6801 0.0000 -15.9782 0.0000
# 3 10.6131 11.6801 55.7425 0.0000 1.1950 0.0000
# 4 0.0000 0.0000 0.0000 27.6953 0.0000 -2.1391
# 5 -10.5234 -15.9782 1.1950 0.0000 27.1092 0.0000
# 6 0.0000 0.0000 0.0000 -2.1391 0.0000 21.2476
#
#
#
# Elastic Compliance Matrix: (Units=1/GPa)
#
#
# Indices 1 2 3 4 5 6 
#
# 1 0.015583 -0.003767 -0.002262 0.000000 0.003929 0.000000
# 2 -0.003767 0.017395 -0.003119 0.000000 0.008928 0.000000
# 3 -0.002262 -0.003119 0.019100 0.000000 -0.003558 0.000000
# 4 0.000000 0.000000 0.000000 0.036390 0.000000 0.003664
# 5 0.003929 0.008928 -0.003558 0.000000 0.043832 0.000000
# 6 0.000000 0.000000 0.000000 0.003664 0.000000 0.047433
#
#
# Mechanical properties :
#
#
# Convention : Reuss Voigt Hill
#
# Bulk Modulus (GPa) = 29.60104 32.64756 31.12430
# Shear Modulus (GPa) = 23.89035 25.67440 24.78238
#
# Velocity S-wave (km/s) = 3.51034 3.63905 3.57527
# Velocity P-wave (km/s) = 5.63009 5.87335 5.75301
#
# Compressibility (1/GPa) = 0.03378259
#
# Stress axis : x y z
#
# Youngs Moduli (GPa) = 64.17127 57.48849 52.35569
#
# Poissons Ratio (x) = 0.21655 0.11842
# Poissons Ratio (y) = 0.24172 0.16330
# Poissons Ratio (z) = 0.14515 0.17931
#
# Static dielectric constant tensor:
#      x y z
#    x 1.704270 0.000000 0.016550 
#    y 0.000000 1.691810 0.000000 
#    z 0.016550 0.000000 1.734050 
# 
# From -- ./inp_files/145482.got.cif
#   From: 2010.05.17/outbox.cif.g08.bks.cpg/sg15_73_cif.got.tgz:145482.got - 2010.06.03 18:47:42.
