data_PCOD9256777
_publ_section_title
;
Structure prediction by ZEFSAII (Michael W. Deem and Ramdas Pophale) SiO2 
 PCOD9256777
Probable space group: C 2/C
;
_chemical_formula_sum "Si O2"
_cell_formula_units_Z 64
_cell_length_a 18.950044
_cell_length_b 31.273913
_cell_length_c 14.098223
_cell_angle_alpha 90.000000
_cell_angle_beta 30.345689
_cell_angle_gamma 90.000000
_cell_volume 4221.180077
_symmetry_space_group_name_H-M "C 2/C"
_symmetry_group_IT_number 15
_symmetry_cell_setting 'monoclinic'
loop_
_space_group_symop_operation_xyz
x,y,z
-x,y,1/2-z
-x,-y,-z
x,-y,1/2+z
1/2+x,1/2+y,z
1/2-x,1/2+y,1/2-z
1/2-x,1/2-y,-z
1/2+x,1/2-y,1/2+z
loop_
_atom_site_type_symbol
_atom_site_label
_atom_site_fract_x
_atom_site_fract_y
_atom_site_fract_z
Si Si1 0.084778 0.415487 0.457697
Si Si2 0.342747 0.489174 0.896660
Si Si3 0.157274 0.849058 0.033412
Si Si4 0.850134 0.756535 0.472820
Si Si5 0.770001 0.436913 0.852165
Si Si6 0.560416 0.939765 0.277504
Si Si7 0.208183 0.505290 0.356526
Si Si8 0.640655 0.836504 0.523863
O O1 0.063014 0.411578 0.369591
O O2 0.186481 0.455776 0.356370
O O3 0.133817 0.372807 0.452634
O O4 0.934767 0.428997 0.675349
O O5 0.500000 0.479058 0.750000
O O6 0.319854 0.488437 0.810301
O O7 0.301191 0.536555 0.981027
O O8 0.215540 0.459142 0.082646
O O9 0.178997 0.803798 0.953617
O O10 0.000000 0.853756 0.250000
O O11 0.203826 0.890216 0.921029
O O12 0.243729 0.846522 0.031164
O O13 0.750000 0.750000 0.500000
O O14 0.842271 0.711699 0.537172
O O15 0.000000 0.759592 0.250000
O O16 0.753629 0.466599 0.778939
O O17 0.500000 0.919862 0.250000
O O18 0.444843 0.976905 0.432869
O O19 0.500000 0.836695 0.750000
#
# Coordination Sequence:
#
# PCOD9256777 Si02
#       8
#     8   8   8   8   8   8   8   8
#     4  11  18  31  50  70  87 119 169 198 222 269
#     4  11  21  32  44  65  93 124 157 189 235 273
#     4  10  19  31  44  66  99 129 150 184 237 282
#     4   8  16  29  44  64  92 124 149 183 228 273
#     4  11  19  32  46  69  91 122 165 194 229 268
#     4   9  18  34  49  61  88 125 157 195 236 265
#     4  10  20  32  50  63  90 126 159 201 227 262
#     4  10  18  29  49  70  91 123 161 192 220 271
#
# _framework density 15.161637000000001
#
# number of rings (size 3 to 8) (size 9 to 14) (size 15 to 20)
#    0.000    2.000    3.750    1.875    0.000    0.500 
#    2.250    0.000    0.000    0.000    0.000    0.000 
#    0.000   10.000    0.000    0.750    0.000    0.500 
#
# Total GULP energy -178151.076612 kJ/mol
# GULP energy per Si atom -5567.221144 kJ/mol
# Density = 1.512713 g / cm^3
# Si number density = 15.161637 Si / 1000 Ang^3
#
#
#
# Elastic Constant Matrix: (Units=GPa)
#
#
# Indices 1 2 3 4 5 6 
#
# 1 79.8220 44.6735 23.9592 0.0002 -11.9046 -0.0001
# 2 44.6735 131.9914 21.2236 0.0000 4.8992 0.0001
# 3 23.9592 21.2236 40.9748 0.0007 -21.5791 -0.0001
# 4 0.0002 0.0000 0.0007 17.9287 -0.0002 1.3592
# 5 -11.9046 4.8992 -21.5791 -0.0002 26.7668 0.0001
# 6 -0.0001 0.0001 -0.0001 1.3592 0.0001 19.1292
#
#
#
# Elastic Compliance Matrix: (Units=1/GPa)
#
#
# Indices 1 2 3 4 5 6 
#
# 1 0.017779 -0.005377 -0.005089 0.000000 0.004789 0.000000
# 2 -0.005377 0.011221 -0.008706 0.000000 -0.011464 0.000000
# 3 -0.005089 -0.008706 0.054807 -0.000001 0.043515 0.000000
# 4 0.000000 0.000000 -0.000001 0.056079 -0.000001 -0.003985
# 5 0.004789 -0.011464 0.043515 -0.000001 0.076669 0.000000
# 6 0.000000 0.000000 0.000000 -0.003985 0.000000 0.052559
#
#
# Mechanical properties :
#
#
# Convention : Reuss Voigt Hill
#
# Bulk Modulus (GPa) = 21.99512 48.05565 35.02538
# Shear Modulus (GPa) = 15.49857 23.62707 19.56282
#
# Velocity S-wave (km/s) = 3.20069 3.95187 3.59595
# Velocity P-wave (km/s) = 5.31016 7.25172 6.35552
#
# Compressibility (1/GPa) = 0.04546464
#
# Stress axis : x y z
#
# Youngs Moduli (GPa) = 56.24703 89.11546 18.24597
#
# Poissons Ratio (x) = 0.47916 0.09285
# Poissons Ratio (y) = 0.30243 0.15884
# Poissons Ratio (z) = 0.28622 0.77580
#
# Static dielectric constant tensor:
#      x y z
#    x 1.499410 0.000000 0.003540 
#    y 0.000000 1.540320 0.000000 
#    z 0.003540 0.000000 1.502540 
# 
# From -- ./inp_files/164515.got.cif
#   From: 2010.05.17/outbox.cif.g08.bks.cpg/sg15_83_cif.got.tgz:164515.got - 2010.06.03 18:47:42.
