data_PCOD9256889
_publ_section_title
;
Structure prediction by ZEFSAII (Michael W. Deem and Ramdas Pophale) SiO2 
 PCOD9256889
Probable space group: C 2/C
;
_chemical_formula_sum "Si O2"
_cell_formula_units_Z 60
_cell_length_a 13.062861
_cell_length_b 24.157911
_cell_length_c 17.794902
_cell_angle_alpha 90.000000
_cell_angle_beta 41.993796
_cell_angle_gamma 90.000000
_cell_volume 3757.093001
_symmetry_space_group_name_H-M "C 2/C"
_symmetry_group_IT_number 15
_symmetry_cell_setting 'monoclinic'
loop_
_space_group_symop_operation_xyz
x,y,z
-x,y,1/2-z
-x,-y,-z
x,-y,1/2+z
1/2+x,1/2+y,z
1/2-x,1/2+y,1/2-z
1/2-x,1/2-y,-z
1/2+x,1/2-y,1/2+z
loop_
_atom_site_type_symbol
_atom_site_label
_atom_site_fract_x
_atom_site_fract_y
_atom_site_fract_z
Si Si1 0.500000 0.834972 0.750000
Si Si2 0.534613 0.935136 0.995913
Si Si3 0.619060 0.075706 0.290827
Si Si4 0.917196 0.466588 0.367872
Si Si5 0.756538 0.350491 0.131351
Si Si6 0.299691 0.732916 0.056571
Si Si7 0.636734 0.464351 0.958198
Si Si8 0.966701 0.860908 0.391340
O O1 0.486393 0.875480 0.685752
O O2 0.349857 0.797649 0.829837
O O3 0.642015 0.917696 0.867236
O O4 0.592266 0.931664 0.050275
O O5 0.382440 0.898210 0.069470
O O6 0.500000 0.000000 0.000000
O O7 0.769009 0.068694 0.157848
O O8 0.526135 0.019121 0.327102
O O9 0.756971 0.494084 0.431957
O O10 0.000000 0.439342 0.250000
O O11 0.830673 0.289275 0.084531
O O12 0.635050 0.354672 0.265244
O O13 0.653504 0.356680 0.112325
O O14 0.250000 0.750000 0.000000
O O15 0.430543 0.687718 0.970809
O O16 0.500000 0.500000 0.000000
O O17 0.567316 0.419444 0.052336
#
# Coordination Sequence:
#
# PCOD9256889 Si02
#       8
#     4   8   8   8   8   8   8   8
#     4  12  16  30  54  70 112 146 172 204 270 332
#     4  10  20  32  53  72 102 138 184 214 253 315
#     4  10  18  32  52  76 102 143 180 207 258 329
#     4   9  18  34  50  71 101 139 179 217 260 320
#     4  10  21  32  49  79 105 141 176 215 260 319
#     4  10  18  30  47  73 105 143 171 209 265 323
#     4  11  21  33  51  77 106 140 177 223 275 318
#     4  10  19  33  47  73 115 137 167 219 275 310
#
# _framework density 15.969792999999999
#
# number of rings (size 3 to 8) (size 9 to 14) (size 15 to 20)
#    0.000    1.867    3.333    4.800    5.600    0.000 
#    0.000    0.000    0.000    0.000    0.000    0.933 
#    0.000    0.000    0.000    0.000    0.000    0.000 
#
# Total GULP energy -167118.091664 kJ/mol
# GULP energy per Si atom -5570.603055 kJ/mol
# Density = 1.593344 g / cm^3
# Si number density = 15.969793 Si / 1000 Ang^3
#
#
#
# Elastic Constant Matrix: (Units=GPa)
#
#
# Indices 1 2 3 4 5 6 
#
# 1 54.1217 22.5156 37.1596 -0.0001 17.3798 0.0000
# 2 22.5156 74.4532 37.9667 0.0002 -0.8704 -0.0001
# 3 37.1596 37.9667 89.9768 0.0006 9.0991 -0.0003
# 4 -0.0001 0.0002 0.0006 21.1215 0.0001 -1.1195
# 5 17.3798 -0.8704 9.0991 0.0001 25.0776 0.0000
# 6 0.0000 -0.0001 -0.0003 -1.1195 0.0000 21.0496
#
#
#
# Elastic Compliance Matrix: (Units=1/GPa)
#
#
# Indices 1 2 3 4 5 6 
#
# 1 0.033867 -0.005589 -0.009587 0.000000 -0.020186 0.000000
# 2 -0.005589 0.018309 -0.006097 0.000000 0.006721 0.000000
# 3 -0.009587 -0.006097 0.017643 0.000000 0.000031 0.000000
# 4 0.000000 0.000000 0.000000 0.047479 0.000000 0.002525
# 5 -0.020186 0.006721 0.000031 0.000000 0.054088 0.000000
# 6 0.000000 0.000000 0.000000 0.002525 0.000000 0.047641
#
#
# Mechanical properties :
#
#
# Convention : Reuss Voigt Hill
#
# Bulk Modulus (GPa) = 36.66685 45.98171 41.32428
# Shear Modulus (GPa) = 18.47305 21.51039 19.99172
#
# Velocity S-wave (km/s) = 3.40479 3.67405 3.54198
# Velocity P-wave (km/s) = 6.20216 6.84497 6.53148
#
# Compressibility (1/GPa) = 0.02727259
#
# Stress axis : x y z
#
# Youngs Moduli (GPa) = 29.52758 54.61708 56.67977
#
# Poissons Ratio (x) = 0.30525 0.54338
# Poissons Ratio (y) = 0.16503 0.34559
# Poissons Ratio (z) = 0.28308 0.33302
#
# Static dielectric constant tensor:
#      x y z
#    x 1.532140 0.000000 0.038280 
#    y 0.000000 1.545550 0.000000 
#    z 0.038280 0.000000 1.576800 
# 
# From -- ./inp_files/200934.got.cif
#   From: 2010.05.17/outbox.cif.g08.bks.cpg/sg15_101_cif.got.tgz:200934.got - 2010.06.03 18:47:42.
