data_PCOD9256760
_publ_section_title
;
Structure prediction by ZEFSAII (Michael W. Deem and Ramdas Pophale) SiO2 
 PCOD9256760
Probable space group: C 2/C
;
_chemical_formula_sum "Si O2"
_cell_formula_units_Z 48
_cell_length_a 18.425537
_cell_length_b 7.545704
_cell_length_c 17.401812
_cell_angle_alpha 90.000000
_cell_angle_beta 45.873325
_cell_angle_gamma 90.000000
_cell_volume 1736.677558
_symmetry_space_group_name_H-M "C 2/C"
_symmetry_group_IT_number 15
_symmetry_cell_setting 'monoclinic'
loop_
_space_group_symop_operation_xyz
x,y,z
-x,y,1/2-z
-x,-y,-z
x,-y,1/2+z
1/2+x,1/2+y,z
1/2-x,1/2+y,1/2-z
1/2-x,1/2-y,-z
1/2+x,1/2-y,1/2+z
loop_
_atom_site_type_symbol
_atom_site_label
_atom_site_fract_x
_atom_site_fract_y
_atom_site_fract_z
Si Si1 0.543055 0.341486 0.137622
Si Si2 0.644948 0.223715 0.800050
Si Si3 0.857972 0.266483 0.685278
Si Si4 0.284123 0.916367 0.589548
Si Si5 0.707899 0.671047 0.408549
Si Si6 0.046170 0.583739 0.637296
O O1 0.500000 0.410140 0.250000
O O2 0.453161 0.343013 0.141400
O O3 0.559359 0.128833 0.134697
O O4 0.645941 0.415461 0.023603
O O5 0.758688 0.148752 0.738123
O O6 0.681611 0.330813 0.697031
O O7 0.633337 0.327296 0.889624
O O8 0.541249 0.127715 0.859381
O O9 0.861126 0.382951 0.605917
O O10 0.816915 0.376997 0.791245
O O11 0.347165 0.843213 0.471243
O O12 0.271553 0.124341 0.584260
O O13 0.000000 0.651147 0.750000
#
# Coordination Sequence:
#
# PCOD9256760 Si02
#       6
#     8   8   8   8   8   8
#     4  10  18  29  48  71  92 116 149 188 225 262
#     4   8  18  27  46  70  87 120 150 186 222 260
#     4   8  18  27  46  70  87 120 150 186 222 260
#     4   8  16  30  48  66  89 118 152 186 219 263
#     4   8  16  30  48  66  89 118 152 186 219 263
#     4  10  18  29  48  71  92 116 149 188 225 262
#
# _framework density 27.63898
#
# number of rings (size 3 to 8) (size 9 to 14) (size 15 to 20)
#    2.000    1.000    0.000    2.000    0.000    4.000 
#    0.000    0.000    0.000   19.000    0.000    0.000 
#    0.000    0.000    0.000    0.000    0.000    0.000 
#
# Total GULP energy -133662.716385 kJ/mol
# GULP energy per Si atom -5569.279849 kJ/mol
# Density = 2.757607 g / cm^3
# Si number density = 27.638980 Si / 1000 Ang^3
#
#
#
# Elastic Constant Matrix: (Units=GPa)
#
#
# Indices 1 2 3 4 5 6 
#
# 1 85.2200 10.1610 11.9654 0.0001 2.9485 -0.0001
# 2 10.1610 55.8589 11.7075 0.0001 -6.6839 0.0000
# 3 11.9654 11.7075 192.2494 0.0001 -24.8154 -0.0001
# 4 0.0001 0.0001 0.0001 2.9400 0.0000 -4.5474
# 5 2.9485 -6.6839 -24.8154 0.0000 33.7830 0.0000
# 6 -0.0001 0.0000 -0.0001 -4.5474 0.0000 18.3187
#
#
#
# Elastic Compliance Matrix: (Units=1/GPa)
#
#
# Indices 1 2 3 4 5 6 
#
# 1 0.012210 -0.002293 -0.000902 -0.000001 -0.002182 0.000000
# 2 -0.002293 0.018857 -0.000550 -0.000001 0.003527 0.000000
# 3 -0.000902 -0.000550 0.005841 0.000000 0.004260 0.000000
# 4 -0.000001 -0.000001 0.000000 0.552144 0.000000 0.137065
# 5 -0.002182 0.003527 0.004260 0.000000 0.033618 0.000000
# 6 0.000000 0.000000 0.000000 0.137065 0.000000 0.088614
#
#
# Mechanical properties :
#
#
# Convention : Reuss Voigt Hill
#
# Bulk Modulus (GPa) = 33.99401 44.55515 39.27458
# Shear Modulus (GPa) = 6.86266 30.97463 18.91864
#
# Velocity S-wave (km/s) = 1.57745 3.35130 2.61912
# Velocity P-wave (km/s) = 3.95522 5.57946 4.83602
#
# Compressibility (1/GPa) = 0.02941695
#
# Stress axis : x y z
#
# Youngs Moduli (GPa) = 81.90097 53.03153 171.19863
#
# Poissons Ratio (x) = 0.12161 0.15441
# Poissons Ratio (y) = 0.18781 0.09423
# Poissons Ratio (z) = 0.07387 0.02919
#
# Static dielectric constant tensor:
#      x y z
#    x 2.141800 0.000000 0.068310 
#    y 0.000000 2.430620 0.000000 
#    z 0.068310 0.000000 2.264790 
# 
# From -- ./inp_files/167122.got.cif
#   From: 2010.05.17/outbox.cif.g08.bks.cpg/sg15_84_cif.got.tgz:167122.got - 2010.06.03 18:47:42.
