data_PCOD9256332
_publ_section_title
;
Structure prediction by ZEFSAII (Michael W. Deem and Ramdas Pophale) SiO2 
 PCOD9256332
Probable space group: C 2/C
;
_chemical_formula_sum "Si O2"
_cell_formula_units_Z 52
_cell_length_a 10.841628
_cell_length_b 12.699910
_cell_length_c 16.739185
_cell_angle_alpha 90.000000
_cell_angle_beta 68.352052
_cell_angle_gamma 90.000000
_cell_volume 2142.219365
_symmetry_space_group_name_H-M "C 2/C"
_symmetry_group_IT_number 15
_symmetry_cell_setting 'monoclinic'
loop_
_space_group_symop_operation_xyz
x,y,z
-x,y,1/2-z
-x,-y,-z
x,-y,1/2+z
1/2+x,1/2+y,z
1/2-x,1/2+y,1/2-z
1/2-x,1/2-y,-z
1/2+x,1/2-y,1/2+z
loop_
_atom_site_type_symbol
_atom_site_label
_atom_site_fract_x
_atom_site_fract_y
_atom_site_fract_z
Si Si1 0.988784 0.769592 0.955458
Si Si2 0.654079 0.418792 0.714245
Si Si3 0.353684 0.503621 0.446834
Si Si4 0.000000 0.710135 0.250000
Si Si5 0.619561 0.174893 0.670697
Si Si6 0.908632 0.162418 0.631024
Si Si7 0.251936 0.609164 0.128678
O O1 0.929176 0.687385 0.907956
O O2 0.144182 0.792599 0.907056
O O3 0.917685 0.882562 0.952570
O O4 0.946609 0.749965 0.055755
O O5 0.500000 0.453819 0.750000
O O6 0.715917 0.478675 0.622793
O O7 0.645413 0.294107 0.696848
O O8 0.711442 0.429440 0.789309
O O9 0.477614 0.424373 0.405721
O O10 0.275837 0.455836 0.540875
O O11 0.912408 0.785578 0.215851
O O12 0.899809 0.643635 0.327528
O O13 0.500000 0.127281 0.750000
O O14 0.761510 0.124085 0.647073
#
# Coordination Sequence:
#
# PCOD9256332 Si02
#       7
#     8   8   8   4   8   8   8
#     4  10  20  37  65  86 111 160 212 256 290 368
#     4  10  18  35  67  87 112 161 216 249 297 372
#     4  10  23  36  65  93 112 157 216 259 292 366
#     4  12  26  36  56  88 130 168 186 254 340 362
#     4  10  17  36  60  89 116 160 200 248 307 365
#     4  11  22  34  56  91 123 152 204 255 307 362
#     4  11  20  40  58  86 124 158 205 258 312 368
#
# _framework density 24.273892
#
# number of rings (size 3 to 8) (size 9 to 14) (size 15 to 20)
#    0.000    1.538    6.154    2.308    1.077    2.462 
#    0.000    0.769    6.769    0.000    0.000    0.000 
#    0.000    0.154    0.000    0.000    0.000    0.000 
#
# Total GULP energy -145353.943801 kJ/mol
# GULP energy per Si atom -5590.536300 kJ/mol
# Density = 2.421864 g / cm^3
# Si number density = 24.273892 Si / 1000 Ang^3
#
#
#
# Elastic Constant Matrix: (Units=GPa)
#
#
# Indices 1 2 3 4 5 6 
#
# 1 69.5720 6.4667 37.1852 0.0000 -15.9237 0.0000
# 2 6.4667 34.3664 25.9944 0.0000 -4.4316 0.0000
# 3 37.1852 25.9944 138.4243 0.0000 -1.3275 0.0000
# 4 0.0000 0.0000 0.0000 12.4553 0.0000 0.3507
# 5 -15.9237 -4.4316 -1.3275 0.0000 50.2136 0.0000
# 6 0.0000 0.0000 0.0000 0.3507 0.0000 6.8594
#
#
#
# Elastic Compliance Matrix: (Units=1/GPa)
#
#
# Indices 1 2 3 4 5 6 
#
# 1 0.018301 0.001139 -0.005075 0.000000 0.005770 0.000000
# 2 0.001139 0.034392 -0.006733 0.000000 0.003218 0.000000
# 3 -0.005075 -0.006733 0.009833 0.000000 -0.001944 0.000000
# 4 0.000000 0.000000 0.000000 0.080403 0.000000 -0.004111
# 5 0.005770 0.003218 -0.001944 0.000000 0.021977 0.000000
# 6 0.000000 0.000000 0.000000 -0.004111 0.000000 0.145996
#
#
# Mechanical properties :
#
#
# Convention : Reuss Voigt Hill
#
# Bulk Modulus (GPa) = 24.27936 42.40617 33.34276
# Shear Modulus (GPa) = 14.45212 25.42008 19.93610
#
# Velocity S-wave (km/s) = 2.44268 3.23959 2.86894
# Velocity P-wave (km/s) = 4.24023 5.61258 4.97396
#
# Compressibility (1/GPa) = 0.04118725
#
# Stress axis : x y z
#
# Youngs Moduli (GPa) = 54.64280 29.07652 101.69618
#
# Poissons Ratio (x) = -0.03311 0.51607
# Poissons Ratio (y) = -0.06223 0.68477
# Poissons Ratio (z) = 0.27729 0.19579
#
# Static dielectric constant tensor:
#      x y z
#    x 1.930350 0.000000 0.011610 
#    y 0.000000 1.993710 0.000000 
#    z 0.011610 0.000000 1.983170 
# 
# From -- ./inp_files/197674.got.cif
#   From: 2010.05.17/outbox.cif.g08.bks.cpg/sg15_99_cif.got.tgz:197674.got - 2010.06.03 18:47:42.
