data_PCOD9256830
_publ_section_title
;
Structure prediction by ZEFSAII (Michael W. Deem and Ramdas Pophale) SiO2 
 PCOD9256830
Probable space group: C 2/C
;
_chemical_formula_sum "Si O2"
_cell_formula_units_Z 56
_cell_length_a 24.463491
_cell_length_b 14.228512
_cell_length_c 17.314988
_cell_angle_alpha 90.000000
_cell_angle_beta 20.253717
_cell_angle_gamma 90.000000
_cell_volume 2086.409138
_symmetry_space_group_name_H-M "C 2/C"
_symmetry_group_IT_number 15
_symmetry_cell_setting 'monoclinic'
loop_
_space_group_symop_operation_xyz
x,y,z
-x,y,1/2-z
-x,-y,-z
x,-y,1/2+z
1/2+x,1/2+y,z
1/2-x,1/2+y,1/2-z
1/2-x,1/2-y,-z
1/2+x,1/2-y,1/2+z
loop_
_atom_site_type_symbol
_atom_site_label
_atom_site_fract_x
_atom_site_fract_y
_atom_site_fract_z
Si Si1 0.699321 0.837810 0.856662
Si Si2 0.000000 0.174978 0.750000
Si Si3 0.002924 0.940976 0.402055
Si Si4 0.302952 0.719107 0.790719
Si Si5 0.285768 0.603311 0.399566
Si Si6 0.500000 0.958198 0.750000
Si Si7 0.990790 0.384137 0.927910
Si Si8 0.641435 0.078404 0.740787
O O1 0.712360 0.753766 0.777559
O O2 0.742185 0.822047 0.890295
O O3 0.828434 0.915929 0.661554
O O4 0.525575 0.880937 0.071883
O O5 0.020958 0.107069 0.794924
O O6 0.152759 0.239881 0.535386
O O7 0.129720 0.884161 0.285736
O O8 0.052348 0.049079 0.331634
O O9 0.441609 0.782802 0.644207
O O10 0.270217 0.620842 0.511802
O O11 0.147496 0.525381 0.572172
O O12 0.456116 0.900055 0.884562
O O13 0.124776 0.464812 0.763259
O O14 0.860136 0.400289 0.166541
#
# Coordination Sequence:
#
# PCOD9256830 Si02
#       8
#     8   4   8   8   8   4   8   8
#     4  10  20  39  57  81 121 159 202 252 302 354
#     4  10  20  37  52  80 126 169 190 238 308 381
#     4  11  24  35  55  88 125 162 199 250 314 375
#     4  10  22  36  54  83 126 164 197 242 308 380
#     4  11  19  36  59  86 111 156 207 251 303 361
#     4  10  18  29  54  90 108 147 202 246 290 349
#     4   9  17  31  54  83 119 147 200 247 290 356
#     4   9  17  33  58  85 108 152 205 250 293 356
#
# _framework density 26.840371999999999
#
# number of rings (size 3 to 8) (size 9 to 14) (size 15 to 20)
#    0.000    2.000    2.857    2.571    0.000    4.571 
#    0.000    0.000    0.000    7.714    0.000    0.000 
#    0.000    0.000    0.000    0.000    0.000    0.000 
#
# Total GULP energy -156804.868436 kJ/mol
# GULP energy per Si atom -5600.173873 kJ/mol
# Density = 2.677928 g / cm^3
# Si number density = 26.840372 Si / 1000 Ang^3
#
#
#
# Elastic Constant Matrix: (Units=GPa)
#
#
# Indices 1 2 3 4 5 6 
#
# 1 149.7466 40.8145 47.4751 -0.0002 50.8522 0.0002
# 2 40.8145 41.1229 15.1061 -0.0001 12.7546 0.0001
# 3 47.4751 15.1061 99.9272 -0.0002 21.4549 0.0001
# 4 -0.0002 -0.0001 -0.0002 13.8100 0.0001 1.1615
# 5 50.8522 12.7546 21.4549 0.0001 64.6192 -0.0001
# 6 0.0002 0.0001 0.0001 1.1615 -0.0001 38.8769
#
#
#
# Elastic Compliance Matrix: (Units=1/GPa)
#
#
# Indices 1 2 3 4 5 6 
#
# 1 0.012526 -0.009124 -0.003060 0.000000 -0.007040 0.000000
# 2 -0.009124 0.033433 -0.000909 0.000000 0.000883 0.000000
# 3 -0.003060 -0.000909 0.011891 0.000000 -0.001360 0.000000
# 4 0.000000 0.000000 0.000000 0.072594 0.000000 -0.002169
# 5 -0.007040 0.000883 -0.001360 0.000000 0.021293 0.000000
# 6 0.000000 0.000000 0.000000 -0.002169 0.000000 0.025787
#
#
# Mechanical properties :
#
#
# Convention : Reuss Voigt Hill
#
# Bulk Modulus (GPa) = 31.58230 55.28757 43.43494
# Shear Modulus (GPa) = 23.33573 35.95463 29.64518
#
# Velocity S-wave (km/s) = 2.95180 3.66399 3.32701
# Velocity P-wave (km/s) = 4.83837 6.20831 5.56565
#
# Compressibility (1/GPa) = 0.03166330
#
# Stress axis : x y z
#
# Youngs Moduli (GPa) = 79.83568 29.91051 84.10015
#
# Poissons Ratio (x) = 0.27291 0.25735
# Poissons Ratio (y) = 0.72843 0.07643
# Poissons Ratio (z) = 0.24430 0.02718
#
# Static dielectric constant tensor:
#      x y z
#    x 2.154900 0.000000 0.013160 
#    y 0.000000 2.069290 0.000000 
#    z 0.013160 0.000000 2.126280 
# 
# From -- ./inp_files/222957.got.cif
#   From: 2010.05.17/outbox.cif.g08.bks.cpg/sg15_112_cif.got.tgz:222957.got - 2010.06.03 18:47:42.
