data_PCOD9256101
_publ_section_title
;
Structure prediction by ZEFSAII (Michael W. Deem and Ramdas Pophale) SiO2 
 PCOD9256101
Probable space group: C 2/C
;
_chemical_formula_sum "Si O2"
_cell_formula_units_Z 64
_cell_length_a 11.375653
_cell_length_b 21.694014
_cell_length_c 16.818043
_cell_angle_alpha 90.000000
_cell_angle_beta 127.236944
_cell_angle_gamma 90.000000
_cell_volume 3304.312446
_symmetry_space_group_name_H-M "C 2/C"
_symmetry_group_IT_number 15
_symmetry_cell_setting 'monoclinic'
loop_
_space_group_symop_operation_xyz
x,y,z
-x,y,1/2-z
-x,-y,-z
x,-y,1/2+z
1/2+x,1/2+y,z
1/2-x,1/2+y,1/2-z
1/2-x,1/2-y,-z
1/2+x,1/2-y,1/2+z
loop_
_atom_site_type_symbol
_atom_site_label
_atom_site_fract_x
_atom_site_fract_y
_atom_site_fract_z
Si Si1 0.697002 0.377962 0.520370
Si Si2 0.321761 0.173563 0.911280
Si Si3 0.328493 0.796078 0.710818
Si Si4 0.037584 0.541306 0.358243
Si Si5 0.876008 0.647027 0.397261
Si Si6 0.193791 0.544787 0.686335
Si Si7 0.358496 0.557026 0.147000
Si Si8 0.033086 0.969569 0.096549
O O1 0.750584 0.336204 0.469425
O O2 0.736574 0.344742 0.619002
O O3 0.534060 0.400973 0.435236
O O4 0.793621 0.441027 0.560141
O O5 0.242121 0.230212 0.837136
O O6 0.300365 0.111093 0.851889
O O7 0.496103 0.180406 0.000381
O O8 0.500000 0.798659 0.750000
O O9 0.318434 0.811588 0.800284
O O10 0.955280 0.592437 0.378360
O O11 0.972018 0.476868 0.361328
O O12 0.000000 0.548682 0.250000
O O13 0.756747 0.613502 0.404957
O O14 0.266726 0.495333 0.656677
O O15 0.298253 0.536802 0.806112
O O16 0.500000 0.584807 0.250000
O O17 0.443867 0.515628 0.117669
O O18 0.000000 0.000000 0.000000
#
# Coordination Sequence:
#
# PCOD9256101 Si02
#       8
#     8   8   8   8   8   8   8   8
#     4  11  21  35  57  91 119 154 196 246 304 369
#     4  11  24  36  57  86 120 161 195 250 306 359
#     4  12  23  37  59  86 123 159 207 254 298 364
#     4  10  17  34  59  83 117 151 193 245 295 360
#     4  10  21  38  59  87 115 157 206 239 310 367
#     4  10  22  37  54  88 124 156 191 246 303 360
#     4   9  20  36  61  85 118 155 194 246 301 364
#     4  11  23  35  58  93 124 153 194 242 312 367
#
# _framework density 19.368628000000001
#
# number of rings (size 3 to 8) (size 9 to 14) (size 15 to 20)
#    0.000    1.500    5.000    1.125    7.000    1.500 
#    0.000    0.000    0.000    1.500    0.000    0.000 
#    0.000    0.000    0.000    0.000    0.000    0.000 
#
# Total GULP energy -178361.112142 kJ/mol
# GULP energy per Si atom -5573.784754 kJ/mol
# Density = 1.932454 g / cm^3
# Si number density = 19.368628 Si / 1000 Ang^3
#
#
#
# Elastic Constant Matrix: (Units=GPa)
#
#
# Indices 1 2 3 4 5 6 
#
# 1 17.7917 17.8157 1.6139 0.0000 10.3702 0.0000
# 2 17.8157 69.6203 34.0022 0.0000 13.8688 0.0000
# 3 1.6139 34.0022 75.7644 0.0000 -0.8450 0.0000
# 4 0.0000 0.0000 0.0000 24.2449 0.0000 -3.7505
# 5 10.3702 13.8688 -0.8450 0.0000 13.2580 0.0000
# 6 0.0000 0.0000 0.0000 -3.7505 0.0000 10.3222
#
#
#
# Elastic Compliance Matrix: (Units=1/GPa)
#
#
# Indices 1 2 3 4 5 6 
#
# 1 0.114753 -0.017401 0.004570 0.000000 -0.071264 0.000000
# 2 -0.017401 0.028255 -0.012497 0.000000 -0.016743 0.000000
# 3 0.004570 -0.012497 0.018829 0.000000 0.010698 0.000000
# 4 0.000000 0.000000 0.000000 0.043702 0.000000 0.015879
# 5 -0.071264 -0.016743 0.010698 0.000000 0.149364 0.000000
# 6 0.000000 0.000000 0.000000 0.015879 0.000000 0.102648
#
#
# Mechanical properties :
#
#
# Convention : Reuss Voigt Hill
#
# Bulk Modulus (GPa) = 8.99424 30.00445 19.49935
# Shear Modulus (GPa) = 9.16985 16.88134 13.02560
#
# Velocity S-wave (km/s) = 2.17822 2.95546 2.59609
# Velocity P-wave (km/s) = 3.31361 5.21260 4.36756
#
# Compressibility (1/GPa) = 0.11118221
#
# Stress axis : x y z
#
# Youngs Moduli (GPa) = 8.71439 35.39215 53.10940
#
# Poissons Ratio (x) = 0.61585 -0.24271
# Poissons Ratio (y) = 0.15164 0.66368
# Poissons Ratio (z) = -0.03982 0.44228
#
# Static dielectric constant tensor:
#      x y z
#    x 1.714000 0.000000 -0.002100 
#    y 0.000000 1.602630 0.000000 
#    z -0.002100 0.000000 1.714630 
# 
# From -- ./inp_files/200398.got.cif
#   From: 2010.05.17/outbox.cif.g08.bks.cpg/sg15_101_cif.got.tgz:200398.got - 2010.06.03 18:47:42.
