data_PCOD9256604
_publ_section_title
;
Structure prediction by ZEFSAII (Michael W. Deem and Ramdas Pophale) SiO2 
 PCOD9256604
Probable space group: C 2/C
;
_chemical_formula_sum "Si O2"
_cell_formula_units_Z 48
_cell_length_a 15.154120
_cell_length_b 13.479618
_cell_length_c 10.966335
_cell_angle_alpha 90.000000
_cell_angle_beta 70.440436
_cell_angle_gamma 90.000000
_cell_volume 2110.844411
_symmetry_space_group_name_H-M "C 2/C"
_symmetry_group_IT_number 15
_symmetry_cell_setting 'monoclinic'
loop_
_space_group_symop_operation_xyz
x,y,z
-x,y,1/2-z
-x,-y,-z
x,-y,1/2+z
1/2+x,1/2+y,z
1/2-x,1/2+y,1/2-z
1/2-x,1/2-y,-z
1/2+x,1/2-y,1/2+z
loop_
_atom_site_type_symbol
_atom_site_label
_atom_site_fract_x
_atom_site_fract_y
_atom_site_fract_z
Si Si1 0.360315 0.543511 0.973173
Si Si2 0.723157 0.842608 0.838246
Si Si3 0.505614 0.639887 0.051815
Si Si4 0.864640 0.170458 0.730008
Si Si5 0.612107 0.790670 0.139536
Si Si6 0.793890 0.465274 0.306451
O O1 0.403847 0.595669 0.073663
O O2 0.369671 0.614752 0.854331
O O3 0.427325 0.447164 0.926013
O O4 0.253431 0.516603 0.053199
O O5 0.672940 0.781651 0.751943
O O6 0.824311 0.793232 0.821799
O O7 0.710253 0.954970 0.799910
O O8 0.667037 0.819083 0.988363
O O9 0.544896 0.662465 0.897709
O O10 0.520005 0.737244 0.125898
O O11 0.785715 0.114330 0.689089
O O12 0.616549 0.895676 0.209329
#
# Coordination Sequence:
#
# PCOD9256604 Si02
#       6
#     8   8   8   8   8   8
#     4  10  18  28  45  73 101 122 159 209 250 294
#     4   9  17  30  47  69  92 125 167 202 246 297
#     4   9  18  30  46  68  98 136 161 188 252 320
#     4   9  17  29  46  66  94 128 160 200 246 296
#     4   9  17  32  50  67 100 135 164 201 248 307
#     4  10  18  28  48  74  97 124 162 210 253 290
#
# _framework density 22.739715
#
# number of rings (size 3 to 8) (size 9 to 14) (size 15 to 20)
#    0.000    2.667    0.000    5.500    0.000    0.667 
#    0.000    2.500    0.000    1.000    0.000    9.333 
#    0.000    4.000    0.000    0.000    0.000    0.000 
#
# Total GULP energy -133825.840421 kJ/mol
# GULP energy per Si atom -5576.076684 kJ/mol
# Density = 2.268796 g / cm^3
# Si number density = 22.739715 Si / 1000 Ang^3
#
#
#
# Elastic Constant Matrix: (Units=GPa)
#
#
# Indices 1 2 3 4 5 6 
#
# 1 60.9514 34.2957 7.5809 0.0000 16.1772 0.0000
# 2 34.2957 119.4230 38.3164 0.0000 17.2825 0.0000
# 3 7.5809 38.3164 93.5751 0.0000 14.8991 0.0000
# 4 0.0000 0.0000 0.0000 34.9606 0.0000 11.3769
# 5 16.1772 17.2825 14.8991 0.0000 18.2053 0.0000
# 6 0.0000 0.0000 0.0000 11.3769 0.0000 31.6405
#
#
#
# Elastic Compliance Matrix: (Units=1/GPa)
#
#
# Indices 1 2 3 4 5 6 
#
# 1 0.023954 -0.005154 0.003196 0.000000 -0.019009 0.000000
# 2 -0.005154 0.011543 -0.003787 0.000000 -0.003279 0.000000
# 3 0.003196 -0.003787 0.013635 0.000000 -0.010404 0.000000
# 4 0.000000 0.000000 0.000000 0.032394 0.000000 -0.011648
# 5 -0.019009 -0.003279 -0.010404 0.000000 0.083448 0.000000
# 6 0.000000 0.000000 0.000000 -0.011648 0.000000 0.035793
#
#
# Mechanical properties :
#
#
# Convention : Reuss Voigt Hill
#
# Bulk Modulus (GPa) = 26.56513 48.25949 37.41231
# Shear Modulus (GPa) = 22.24162 29.87840 26.06001
#
# Velocity S-wave (km/s) = 3.13085 3.62875 3.38895
# Velocity P-wave (km/s) = 4.97767 6.23103 5.63928
#
# Compressibility (1/GPa) = 0.03764333
#
# Stress axis : x y z
#
# Youngs Moduli (GPa) = 41.74667 86.63091 73.34165
#
# Poissons Ratio (x) = 0.44647 -0.23442
# Poissons Ratio (y) = 0.21515 0.27774
# Poissons Ratio (z) = -0.13343 0.32807
#
# Static dielectric constant tensor:
#      x y z
#    x 1.927280 0.000000 -0.036180 
#    y 0.000000 1.927230 0.000000 
#    z -0.036180 0.000000 1.892030 
# 
# From -- ./inp_files/103680.got.cif
#   From: 2010.05.17/outbox.cif.g08.bks.cpg/sg15_52_cif.got.tgz:103680.got - 2010.06.03 18:47:42.
