data_PCOD9256809
_publ_section_title
;
Structure prediction by ZEFSAII (Michael W. Deem and Ramdas Pophale) SiO2 
 PCOD9256809
Probable space group: C 2/C
;
_chemical_formula_sum "Si O2"
_cell_formula_units_Z 44
_cell_length_a 11.382028
_cell_length_b 13.848857
_cell_length_c 12.422980
_cell_angle_alpha 90.000000
_cell_angle_beta 65.945923
_cell_angle_gamma 90.000000
_cell_volume 1788.161745
_symmetry_space_group_name_H-M "C 2/C"
_symmetry_group_IT_number 15
_symmetry_cell_setting 'monoclinic'
loop_
_space_group_symop_operation_xyz
x,y,z
-x,y,1/2-z
-x,-y,-z
x,-y,1/2+z
1/2+x,1/2+y,z
1/2-x,1/2+y,1/2-z
1/2-x,1/2-y,-z
1/2+x,1/2-y,1/2+z
loop_
_atom_site_type_symbol
_atom_site_label
_atom_site_fract_x
_atom_site_fract_y
_atom_site_fract_z
Si Si1 0.000000 0.161028 0.750000
Si Si2 0.767644 0.351747 0.053629
Si Si3 0.643463 0.079938 0.199703
Si Si4 0.127040 0.642334 0.754451
Si Si5 0.102872 0.139815 0.918056
Si Si6 0.420403 0.419773 0.668747
O O1 0.869258 0.113794 0.847249
O O2 0.948099 0.206599 0.659425
O O3 0.852032 0.335800 0.128050
O O4 0.750000 0.250000 0.000000
O O5 0.814728 0.422036 0.941924
O O6 0.500000 0.125293 0.250000
O O7 0.771503 0.117533 0.215940
O O8 0.620504 0.974012 0.255360
O O9 0.247932 0.664559 0.632149
O O10 0.000000 0.684791 0.750000
O O11 0.092445 0.029674 0.873584
O O12 0.011088 0.138799 0.053180
O O13 0.500000 0.421010 0.750000
#
# Coordination Sequence:
#
# PCOD9256809 Si02
#       6
#     4   8   8   8   8   8
#     4  10  18  38  60  82 116 168 216 250 306 394
#     4  11  24  41  65  91 132 176 216 264 333 408
#     4  10  22  38  61  96 130 169 220 269 330 389
#     4   9  21  38  63  96 127 168 217 277 327 384
#     4   9  17  29  54  81 117 155 209 257 318 372
#     4  10  18  29  51  87 125 160 201 271 320 375
#
# _framework density 24.606275
#
# number of rings (size 3 to 8) (size 9 to 14) (size 15 to 20)
#    0.000    2.182    2.727    0.000    1.273    4.364 
#    0.000    0.909    0.000    2.182    0.000    0.000 
#    0.000    0.000    0.000    0.000    0.000    0.000 
#
# Total GULP energy -122691.023215 kJ/mol
# GULP energy per Si atom -5576.864692 kJ/mol
# Density = 2.455027 g / cm^3
# Si number density = 24.606275 Si / 1000 Ang^3
#
#
#
# Elastic Constant Matrix: (Units=GPa)
#
#
# Indices 1 2 3 4 5 6 
#
# 1 262.0155 10.6896 100.1071 0.0000 -14.9401 0.0000
# 2 10.6896 90.0872 31.1358 0.0000 10.2019 0.0000
# 3 100.1071 31.1358 162.8459 0.0000 -6.1939 0.0000
# 4 0.0000 0.0000 0.0000 12.0618 0.0000 19.1379
# 5 -14.9401 10.2019 -6.1939 0.0000 35.8428 0.0000
# 6 0.0000 0.0000 0.0000 19.1379 0.0000 14.5551
#
#
#
# Elastic Compliance Matrix: (Units=1/GPa)
#
#
# Indices 1 2 3 4 5 6 
#
# 1 0.005084 0.000309 -0.003128 0.000000 0.001491 0.000000
# 2 0.000309 0.012442 -0.002716 0.000000 -0.003882 0.000000
# 3 -0.003128 -0.002716 0.008619 0.000000 0.000959 0.000000
# 4 0.000000 0.000000 0.000000 -0.076325 0.000000 0.100357
# 5 0.001491 -0.003882 0.000959 0.000000 0.029792 0.000000
# 6 0.000000 0.000000 0.000000 0.100357 0.000000 -0.063251
#
#
# Mechanical properties :
#
#
# Convention : Reuss Voigt Hill
#
# Bulk Modulus (GPa) = 66.33492 88.75707 77.54600
# Shear Modulus (GPa) = -74.02632 37.35968 -18.33332
#
# Velocity S-wave (km/s) = -5.49087 3.90076 -2.73255
# Velocity P-wave (km/s) = 3.63076 7.51247 4.65052
#
# Compressibility (1/GPa) = 0.01507502
#
# Stress axis : x y z
#
# Youngs Moduli (GPa) = 196.69849 80.37169 116.01879
#
# Poissons Ratio (x) = -0.02483 0.36286
# Poissons Ratio (y) = -0.06076 0.31516
# Poissons Ratio (z) = 0.61520 0.21833
#
# Static dielectric constant tensor:
#      x y z
#    x 2.040460 0.000000 -0.014580 
#    y 0.000000 2.157060 0.000000 
#    z -0.014580 0.000000 1.937790 
# 
# From -- ./inp_files/87711.got.cif
#   From: 2010.05.17/outbox.cif.g08.bks.cpg/sg15_44_cif.got.tgz:87711.got - 2010.06.03 18:47:42.
