data_PCOD9256345
_publ_section_title
;
Structure prediction by ZEFSAII (Michael W. Deem and Ramdas Pophale) SiO2 
 PCOD9256345
Probable space group: C 2/C
;
_chemical_formula_sum "Si O2"
_cell_formula_units_Z 32
_cell_length_a 26.742558
_cell_length_b 12.271636
_cell_length_c 10.177985
_cell_angle_alpha 90.000000
_cell_angle_beta 30.409441
_cell_angle_gamma 90.000000
_cell_volume 1690.708218
_symmetry_space_group_name_H-M "C 2/C"
_symmetry_group_IT_number 15
_symmetry_cell_setting 'monoclinic'
loop_
_space_group_symop_operation_xyz
x,y,z
-x,y,1/2-z
-x,-y,-z
x,-y,1/2+z
1/2+x,1/2+y,z
1/2-x,1/2+y,1/2-z
1/2-x,1/2-y,-z
1/2+x,1/2-y,1/2+z
loop_
_atom_site_type_symbol
_atom_site_label
_atom_site_fract_x
_atom_site_fract_y
_atom_site_fract_z
Si Si1 0.067702 0.504375 0.218714
Si Si2 0.897271 0.755835 0.410817
Si Si3 0.889155 0.038633 0.783445
Si Si4 0.217465 0.069781 0.214335
O O1 0.102479 0.628599 0.114107
O O2 0.000000 0.469004 0.250000
O O3 0.000000 0.500000 0.500000
O O4 0.167706 0.438982 0.015378
O O5 0.888933 0.829211 0.297893
O O6 0.815248 0.804540 0.694498
O O7 0.000000 0.784106 0.250000
O O8 0.815396 0.986425 0.845524
O O9 0.847920 0.011255 0.022546
O O10 0.000000 0.000000 0.500000
#
# Coordination Sequence:
#
# PCOD9256345 Si02
#       4
#     8   8   8   8
#     4  11  24  45  60  86 129 164 202 248 302 364
#     4   9  20  39  63  86 123 157 199 247 309 353
#     4  10  17  36  61  93 120 148 202 255 301 348
#     4  10  20  37  63  88 121 160 203 248 295 362
#
# _framework density 18.92698
#
# number of rings (size 3 to 8) (size 9 to 14) (size 15 to 20)
#    1.500    0.500    2.500    2.250    0.000    1.000 
#    4.500    3.750    0.000    0.000    0.000    0.000 
#    0.000    0.000    0.000    0.000    0.000    0.000 
#
# Total GULP energy -89067.402260 kJ/mol
# GULP energy per Si atom -5566.712641 kJ/mol
# Density = 1.888390 g / cm^3
# Si number density = 18.926980 Si / 1000 Ang^3
#
#
#
# Elastic Constant Matrix: (Units=GPa)
#
#
# Indices 1 2 3 4 5 6 
#
# 1 71.6531 11.7470 -1.1255 0.0000 -6.3715 0.0000
# 2 11.7470 45.8401 0.6845 0.0000 -19.5104 0.0000
# 3 -1.1255 0.6845 57.8347 0.0000 -18.8036 0.0000
# 4 0.0000 0.0000 0.0000 15.0604 0.0000 5.5046
# 5 -6.3715 -19.5104 -18.8036 0.0000 44.6873 0.0000
# 6 0.0000 0.0000 0.0000 5.5046 0.0000 9.6707
#
#
#
# Elastic Compliance Matrix: (Units=1/GPa)
#
#
# Indices 1 2 3 4 5 6 
#
# 1 0.014597 -0.003385 0.000603 0.000000 0.000857 0.000000
# 2 -0.003385 0.028419 0.004026 0.000000 0.013619 0.000000
# 3 0.000603 0.004026 0.020684 0.000000 0.010547 0.000000
# 4 0.000000 0.000000 0.000000 0.083843 0.000000 -0.047724
# 5 0.000857 0.013619 0.010547 0.000000 0.032884 0.000000
# 6 0.000000 0.000000 0.000000 -0.047724 0.000000 0.130570
#
#
# Mechanical properties :
#
#
# Convention : Reuss Voigt Hill
#
# Bulk Modulus (GPa) = 15.10885 21.99333 18.55109
# Shear Modulus (GPa) = 15.12534 24.81847 19.97190
#
# Velocity S-wave (km/s) = 2.82998 3.62508 3.25192
# Velocity P-wave (km/s) = 4.32185 5.40064 4.89108
#
# Compressibility (1/GPa) = 0.06618636
#
# Stress axis : x y z
#
# Youngs Moduli (GPa) = 68.50852 35.18813 48.34704
#
# Poissons Ratio (x) = 0.11910 -0.02914
# Poissons Ratio (y) = 0.23189 -0.19463
# Poissons Ratio (z) = -0.04130 -0.14165
#
# Static dielectric constant tensor:
#      x y z
#    x 1.649610 0.000000 0.001980 
#    y 0.000000 1.707100 0.000000 
#    z 0.001980 0.000000 1.653840 
# 
# From -- ./inp_files/46809.got.cif
#   From: 2010.05.17/outbox.cif.g08.bks.cpg/sg15_24_cif.got.tgz:46809.got - 2010.06.03 18:47:42.
