data_PCOD9256798
_publ_section_title
;
Structure prediction by ZEFSAII (Michael W. Deem and Ramdas Pophale) SiO2 
 PCOD9256798
Probable space group: C 2/C
;
_chemical_formula_sum "Si O2"
_cell_formula_units_Z 52
_cell_length_a 10.753148
_cell_length_b 10.315352
_cell_length_c 22.860811
_cell_angle_alpha 90.000000
_cell_angle_beta 49.738407
_cell_angle_gamma 90.000000
_cell_volume 1935.056906
_symmetry_space_group_name_H-M "C 2/C"
_symmetry_group_IT_number 15
_symmetry_cell_setting 'monoclinic'
loop_
_space_group_symop_operation_xyz
x,y,z
-x,y,1/2-z
-x,-y,-z
x,-y,1/2+z
1/2+x,1/2+y,z
1/2-x,1/2+y,1/2-z
1/2-x,1/2-y,-z
1/2+x,1/2-y,1/2+z
loop_
_atom_site_type_symbol
_atom_site_label
_atom_site_fract_x
_atom_site_fract_y
_atom_site_fract_z
Si Si1 0.721327 0.750357 0.921115
Si Si2 0.807809 0.531742 0.543769
Si Si3 0.444699 0.010388 0.885131
Si Si4 0.343939 0.358166 0.177065
Si Si5 0.741174 0.182727 0.834681
Si Si6 0.017670 0.914254 0.934061
Si Si7 0.500000 0.995710 0.250000
O O1 0.777663 0.893551 0.919047
O O2 0.858845 0.642181 0.887290
O O3 0.649620 0.749639 0.876847
O O4 0.594643 0.705250 0.009074
O O5 0.825321 0.551918 0.468996
O O6 0.728582 0.641225 0.607394
O O7 0.000000 0.500000 0.500000
O O8 0.612752 0.065063 0.858970
O O9 0.461646 0.928422 0.821146
O O10 0.353248 0.324144 0.242692
O O11 0.467424 0.467359 0.116526
O O12 0.158774 0.413361 0.222178
O O13 0.662153 0.324029 0.863739
O O14 0.000000 0.000000 0.000000
#
# Coordination Sequence:
#
# PCOD9256798 Si02
#       7
#     8   8   8   8   8   8   4
#     4  10  18  33  55  81 107 139 187 224 283 320
#     4  10  18  29  50  81 109 138 171 228 280 325
#     4   9  17  31  55  80 105 137 179 238 273 323
#     4   9  20  33  55  77 104 141 176 230 265 333
#     4  10  20  34  52  83 109 141 188 226 287 332
#     4  10  20  34  52  78 110 142 182 222 275 336
#     4   8  16  34  50  78  98 130 184 214 278 306
#
# _framework density 26.872593999999999
#
# number of rings (size 3 to 8) (size 9 to 14) (size 15 to 20)
#    0.000    2.462    3.077    0.462    2.154    0.000 
#    0.000    0.000    0.000   11.077    0.000    0.000 
#    0.000    0.000    0.000    0.000    0.000    0.000 
#
# Total GULP energy -144872.896417 kJ/mol
# GULP energy per Si atom -5572.034478 kJ/mol
# Density = 2.681143 g / cm^3
# Si number density = 26.872594 Si / 1000 Ang^3
#
#
#
# Elastic Constant Matrix: (Units=GPa)
#
#
# Indices 1 2 3 4 5 6 
#
# 1 44.3218 1.5743 30.0565 0.0000 3.4772 0.0000
# 2 1.5743 98.6255 78.8212 0.0000 10.9643 0.0000
# 3 30.0565 78.8212 247.4147 0.0000 56.7407 0.0000
# 4 0.0000 0.0000 0.0000 39.2881 0.0000 -12.7523
# 5 3.4772 10.9643 56.7407 0.0000 53.8911 0.0000
# 6 0.0000 0.0000 0.0000 -12.7523 0.0000 37.4269
#
#
#
# Elastic Compliance Matrix: (Units=1/GPa)
#
#
# Indices 1 2 3 4 5 6 
#
# 1 0.025405 0.003021 -0.004656 0.000000 0.002648 0.000000
# 2 0.003021 0.014195 -0.005513 0.000000 0.002722 0.000000
# 3 -0.004656 -0.005513 0.007960 0.000000 -0.006958 0.000000
# 4 0.000000 0.000000 0.000000 0.028618 0.000000 0.009751
# 5 0.002648 0.002722 -0.006958 0.000000 0.025158 0.000000
# 6 0.000000 0.000000 0.000000 0.009751 0.000000 0.030041
#
#
# Mechanical properties :
#
#
# Convention : Reuss Voigt Hill
#
# Bulk Modulus (GPa) = 30.06387 67.91844 48.99115
# Shear Modulus (GPa) = 31.89582 44.78188 38.33885
#
# Velocity S-wave (km/s) = 3.44892 4.08665 3.78125
# Velocity P-wave (km/s) = 5.20307 6.89904 6.11018
#
# Compressibility (1/GPa) = 0.03326252
#
# Stress axis : x y z
#
# Youngs Moduli (GPa) = 39.36283 70.44788 125.63251
#
# Poissons Ratio (x) = -0.21284 0.58496
# Poissons Ratio (y) = -0.11892 0.69267
# Poissons Ratio (z) = 0.18328 0.38841
#
# Static dielectric constant tensor:
#      x y z
#    x 2.652150 0.000000 0.009540 
#    y 0.000000 2.061200 0.000000 
#    z 0.009540 0.000000 2.214960 
# 
# From -- ./inp_files/273596.got.cif
#   From: 2010.05.17/outbox.cif.g08.bks.cpg/sg15_137_cif.got.tgz:273596.got - 2010.06.03 18:47:42.
