data_PCOD9256870
_publ_section_title
;
Structure prediction by ZEFSAII (Michael W. Deem and Ramdas Pophale) SiO2 
 PCOD9256870
Probable space group: C 2/C
;
_chemical_formula_sum "Si O2"
_cell_formula_units_Z 40
_cell_length_a 20.833022
_cell_length_b 15.361601
_cell_length_c 5.498168
_cell_angle_alpha 90.000000
_cell_angle_beta 79.477343
_cell_angle_gamma 90.000000
_cell_volume 1729.979739
_symmetry_space_group_name_H-M "C 2/C"
_symmetry_group_IT_number 15
_symmetry_cell_setting 'monoclinic'
loop_
_space_group_symop_operation_xyz
x,y,z
-x,y,1/2-z
-x,-y,-z
x,-y,1/2+z
1/2+x,1/2+y,z
1/2-x,1/2+y,1/2-z
1/2-x,1/2-y,-z
1/2+x,1/2-y,1/2+z
loop_
_atom_site_type_symbol
_atom_site_label
_atom_site_fract_x
_atom_site_fract_y
_atom_site_fract_z
Si Si1 0.120499 0.518778 0.555959
Si Si2 0.741087 0.452076 0.044408
Si Si3 0.073615 0.967089 0.979813
Si Si4 0.858617 0.800386 0.429757
Si Si5 0.825494 0.285911 0.452357
O O1 0.083842 0.500077 0.331293
O O2 0.180780 0.450119 0.514371
O O3 0.158318 0.611622 0.531493
O O4 0.723803 0.489524 0.321505
O O5 0.706578 0.360559 0.028950
O O6 0.101685 0.977300 0.687529
O O7 0.083357 0.869432 0.065582
O O8 0.000000 0.000000 0.000000
O O9 0.854450 0.742158 0.672150
O O10 0.859494 0.756572 0.165935
O O11 0.750000 0.250000 0.500000
#
# Coordination Sequence:
#
# PCOD9256870 Si02
#       5
#     8   8   8   8   8
#     4  10  19  33  47  64  95 141 186 222 265 323
#     4  10  18  30  46  64  91 134 183 224 262 321
#     4  10  21  38  60  85 113 152 194 240 299 366
#     4  12  22  35  53  78 109 146 195 246 290 343
#     4  12  23  34  50  77 109 147 196 250 287 327
#
# _framework density 23.121656999999999
#
# number of rings (size 3 to 8) (size 9 to 14) (size 15 to 20)
#    0.000    1.200    0.000   10.200    0.000    0.000 
#    0.000    0.000    0.000    0.000    0.000    0.000 
#    0.000    0.000    0.000  252.000    0.000   16.000 
#
# Total GULP energy -111666.729112 kJ/mol
# GULP energy per Si atom -5583.336456 kJ/mol
# Density = 2.306903 g / cm^3
# Si number density = 23.121657 Si / 1000 Ang^3
#
#
#
# Elastic Constant Matrix: (Units=GPa)
#
#
# Indices 1 2 3 4 5 6 
#
# 1 50.3087 9.0208 33.7671 0.0000 16.3565 0.0000
# 2 9.0208 112.1307 64.6871 0.0000 19.1321 0.0000
# 3 33.7671 64.6871 257.8423 0.0000 51.3935 0.0000
# 4 0.0000 0.0000 0.0000 58.1654 0.0000 10.7548
# 5 16.3565 19.1321 51.3935 0.0000 30.2164 0.0000
# 6 0.0000 0.0000 0.0000 10.7548 0.0000 44.3074
#
#
#
# Elastic Compliance Matrix: (Units=1/GPa)
#
#
# Indices 1 2 3 4 5 6 
#
# 1 0.024282 0.000635 -0.000967 0.000000 -0.011901 0.000000
# 2 0.000635 0.010660 -0.002033 0.000000 -0.003636 0.000000
# 3 -0.000967 -0.002033 0.006285 0.000000 -0.008879 0.000000
# 4 0.000000 0.000000 0.000000 0.018000 0.000000 -0.004369
# 5 -0.011901 -0.003636 -0.008879 0.000000 0.056940 0.000000
# 6 0.000000 0.000000 0.000000 -0.004369 0.000000 0.023630
#
#
# Mechanical properties :
#
#
# Convention : Reuss Voigt Hill
#
# Bulk Modulus (GPa) = 27.39943 70.58130 48.99037
# Shear Modulus (GPa) = 31.90951 47.39161 39.65056
#
# Velocity S-wave (km/s) = 3.71896 4.53223 4.14559
# Velocity P-wave (km/s) = 5.50606 7.61449 6.64444
#
# Compressibility (1/GPa) = 0.03649711
#
# Stress axis : x y z
#
# Youngs Moduli (GPa) = 41.18286 93.80697 159.11648
#
# Poissons Ratio (x) = -0.05958 0.15388
# Poissons Ratio (y) = -0.02616 0.32346
# Poissons Ratio (z) = 0.03983 0.19070
#
# Static dielectric constant tensor:
#      x y z
#    x 1.919910 0.000000 -0.038910 
#    y 0.000000 1.907020 0.000000 
#    z -0.038910 0.000000 2.003680 
# 
# From -- ./inp_files/14992.got.cif
#   From: 2010.05.17/outbox.cif.g08.bks.cpg/sg15_8_cif.got.tgz:14992.got - 2010.06.03 18:47:42.
