data_PCOD9256076
_publ_section_title
;
Structure prediction by ZEFSAII (Michael W. Deem and Ramdas Pophale) SiO2 
 PCOD9256076
Probable space group: C 2/C
;
_chemical_formula_sum "Si O2"
_cell_formula_units_Z 64
_cell_length_a 22.682133
_cell_length_b 7.803756
_cell_length_c 18.680091
_cell_angle_alpha 90.000000
_cell_angle_beta 123.317061
_cell_angle_gamma 90.000000
_cell_volume 2763.043860
_symmetry_space_group_name_H-M "C 2/C"
_symmetry_group_IT_number 15
_symmetry_cell_setting 'monoclinic'
loop_
_space_group_symop_operation_xyz
x,y,z
-x,y,1/2-z
-x,-y,-z
x,-y,1/2+z
1/2+x,1/2+y,z
1/2-x,1/2+y,1/2-z
1/2-x,1/2-y,-z
1/2+x,1/2-y,1/2+z
loop_
_atom_site_type_symbol
_atom_site_label
_atom_site_fract_x
_atom_site_fract_y
_atom_site_fract_z
Si Si1 0.355721 0.225823 0.413954
Si Si2 0.513138 0.665413 0.434610
Si Si3 0.278884 0.743137 0.349038
Si Si4 0.061453 0.986143 0.233930
Si Si5 0.708259 0.623353 0.303261
Si Si6 0.863787 0.344358 0.754870
Si Si7 0.996035 0.481922 0.331227
Si Si8 0.081385 0.652061 0.506577
O O1 0.409080 0.364369 0.482046
O O2 0.273813 0.226021 0.382389
O O3 0.353353 0.234259 0.326747
O O4 0.393403 0.041130 0.454497
O O5 0.471635 0.514523 0.367546
O O6 0.467949 0.759131 0.466655
O O7 0.522758 0.800935 0.376818
O O8 0.302657 0.690476 0.285108
O O9 0.213517 0.622823 0.326595
O O10 0.345038 0.747799 0.445405
O O11 0.243170 0.932378 0.322610
O O12 0.131386 0.105106 0.287305
O O13 0.000000 0.013218 0.250000
O O14 0.092499 0.794815 0.260339
O O15 0.913682 0.505699 0.796318
O O16 0.038307 0.624044 0.404970
O O17 0.000000 0.498127 0.250000
#
# Coordination Sequence:
#
# PCOD9256076 Si02
#       8
#     8   8   8   8   8   8   8   8
#     4   9  17  33  58  82 101 133 190 239 271 304
#     4  11  19  35  56  83 105 138 189 233 271 311
#     4   9  18  31  56  81 105 139 182 233 270 314
#     4  11  23  35  50  78 119 152 178 216 281 340
#     4   9  18  33  53  79 106 140 183 226 277 317
#     4  10  19  35  54  81 108 147 179 218 276 330
#     4  11  21  35  56  80 109 144 182 224 275 330
#     4  10  17  34  57  84 106 135 184 237 272 307
#
# _framework density 23.162860999999999
#
# number of rings (size 3 to 8) (size 9 to 14) (size 15 to 20)
#    0.000    2.000    3.750    1.500    0.000    0.500 
#    0.000    1.250    0.000    3.000    0.000    0.000 
#    0.000    0.000    0.000    0.000    0.000    0.000 
#
# Total GULP energy -178722.783383 kJ/mol
# GULP energy per Si atom -5585.086981 kJ/mol
# Density = 2.311014 g / cm^3
# Si number density = 23.162861 Si / 1000 Ang^3
#
#
#
# Elastic Constant Matrix: (Units=GPa)
#
#
# Indices 1 2 3 4 5 6 
#
# 1 139.7704 22.9858 50.4885 0.0000 20.2319 0.0000
# 2 22.9858 52.3707 29.5683 0.0000 8.5493 0.0000
# 3 50.4885 29.5683 86.7638 0.0000 2.3173 0.0000
# 4 0.0000 0.0000 0.0000 22.9119 0.0000 3.3267
# 5 20.2319 8.5493 2.3173 0.0000 40.1606 0.0000
# 6 0.0000 0.0000 0.0000 3.3267 0.0000 16.6132
#
#
#
# Elastic Compliance Matrix: (Units=1/GPa)
#
#
# Indices 1 2 3 4 5 6 
#
# 1 0.009863 -0.000514 -0.005443 0.000000 -0.004545 0.000000
# 2 -0.000514 0.024541 -0.007944 0.000000 -0.004507 0.000000
# 3 -0.005443 -0.007944 0.017308 0.000000 0.003434 0.000000
# 4 0.000000 0.000000 0.000000 0.044952 0.000000 -0.009001
# 5 -0.004545 -0.004507 0.003434 0.000000 0.027951 0.000000
# 6 0.000000 0.000000 0.000000 -0.009001 0.000000 0.061996
#
#
# Mechanical properties :
#
#
# Convention : Reuss Voigt Hill
#
# Bulk Modulus (GPa) = 41.82182 53.88780 47.85481
# Shear Modulus (GPa) = 22.48370 27.66131 25.07250
#
# Velocity S-wave (km/s) = 3.11895 3.45948 3.29362
# Velocity P-wave (km/s) = 5.57362 6.26679 5.93034
#
# Compressibility (1/GPa) = 0.02391096
#
# Stress axis : x y z
#
# Youngs Moduli (GPa) = 101.38735 40.74807 57.77582
#
# Poissons Ratio (x) = 0.02094 0.31447
# Poissons Ratio (y) = 0.05211 0.45897
# Poissons Ratio (z) = 0.55184 0.32370
#
# Static dielectric constant tensor:
#      x y z
#    x 1.887730 0.000000 0.063340 
#    y 0.000000 1.987030 0.000000 
#    z 0.063340 0.000000 1.883830 
# 
# From -- ./inp_files/251916.got.cif
#   From: 2010.05.17/outbox.cif.g08.bks.cpg/sg15_126_cif.got.tgz:251916.got - 2010.06.03 18:47:42.
