data_PCOD9256516
_publ_section_title
;
Structure prediction by ZEFSAII (Michael W. Deem and Ramdas Pophale) SiO2 
 PCOD9256516
Probable space group: C 2/C
;
_chemical_formula_sum "Si O2"
_cell_formula_units_Z 60
_cell_length_a 11.914957
_cell_length_b 15.142725
_cell_length_c 17.919938
_cell_angle_alpha 90.000000
_cell_angle_beta 74.249222
_cell_angle_gamma 90.000000
_cell_volume 3111.801559
_symmetry_space_group_name_H-M "C 2/C"
_symmetry_group_IT_number 15
_symmetry_cell_setting 'monoclinic'
loop_
_space_group_symop_operation_xyz
x,y,z
-x,y,1/2-z
-x,-y,-z
x,-y,1/2+z
1/2+x,1/2+y,z
1/2-x,1/2+y,1/2-z
1/2-x,1/2-y,-z
1/2+x,1/2-y,1/2+z
loop_
_atom_site_type_symbol
_atom_site_label
_atom_site_fract_x
_atom_site_fract_y
_atom_site_fract_z
Si Si1 0.414560 0.009433 0.328203
Si Si2 0.781137 0.601812 0.480107
Si Si3 0.574260 0.632442 0.941497
Si Si4 0.597311 0.474722 0.579525
Si Si5 0.603954 0.261352 0.957561
Si Si6 0.000000 0.003079 0.750000
Si Si7 0.950124 0.676007 0.682278
Si Si8 0.778629 0.905616 0.215950
O O1 0.500000 0.050695 0.250000
O O2 0.379422 0.062179 0.408240
O O3 0.476427 0.915869 0.339126
O O4 0.294993 0.986361 0.306153
O O5 0.716303 0.528260 0.541671
O O6 0.686812 0.652343 0.444245
O O7 0.826618 0.676325 0.527463
O O8 0.501860 0.546650 0.926183
O O9 0.677345 0.646055 0.865228
O O10 0.604106 0.605341 0.020428
O O11 0.491095 0.715808 0.962539
O O12 0.557930 0.451444 0.670127
O O13 0.546963 0.238189 0.889290
O O14 0.891724 0.063043 0.740749
O O15 0.815444 0.648457 0.719905
O O16 0.000000 0.715824 0.750000
#
# Coordination Sequence:
#
# PCOD9256516 Si02
#       8
#     8   8   8   8   8   4   8   8
#     4   9  19  37  61  78 108 156 197 227 273 339
#     4  10  19  36  59  81 111 151 187 238 283 328
#     4   9  17  32  52  75 109 148 175 224 284 335
#     4   9  17  30  53  78 108 143 181 226 276 328
#     4  10  21  34  54  85 116 143 185 235 293 338
#     4  10  18  26  52  92 104 132 194 246 266 316
#     4   9  20  39  58  77 111 160 188 225 283 346
#     4   9  17  34  57  78 110 150 191 227 281 341
#
# _framework density 19.281435999999999
#
# number of rings (size 3 to 8) (size 9 to 14) (size 15 to 20)
#    0.000    2.933    1.333    0.800    1.867    1.600 
#    3.600    2.667    2.933    0.000    0.000    0.000 
#    0.000    0.000    0.000    0.000    0.000    0.000 
#
# Total GULP energy -167022.000129 kJ/mol
# GULP energy per Si atom -5567.400004 kJ/mol
# Density = 1.923755 g / cm^3
# Si number density = 19.281436 Si / 1000 Ang^3
#
#
#
# Elastic Constant Matrix: (Units=GPa)
#
#
# Indices 1 2 3 4 5 6 
#
# 1 81.2889 7.3139 21.5455 0.0000 -7.6528 0.0000
# 2 7.3139 21.6667 11.6242 0.0000 -5.7033 0.0000
# 3 21.5455 11.6242 105.8930 0.0000 -12.5764 0.0000
# 4 0.0000 0.0000 0.0000 11.9131 0.0000 -2.8849
# 5 -7.6528 -5.7033 -12.5764 0.0000 33.8090 0.0000
# 6 0.0000 0.0000 0.0000 -2.8849 0.0000 8.7026
#
#
#
# Elastic Compliance Matrix: (Units=1/GPa)
#
#
# Indices 1 2 3 4 5 6 
#
# 1 0.013301 -0.002865 -0.002188 0.000000 0.001713 0.000000
# 2 -0.002865 0.051090 -0.004267 0.000000 0.006383 0.000000
# 3 -0.002188 -0.004267 0.010685 0.000000 0.002759 0.000000
# 4 0.000000 0.000000 0.000000 0.091268 0.000000 0.030256
# 5 0.001713 0.006383 0.002759 0.000000 0.032069 0.000000
# 6 0.000000 0.000000 0.000000 0.030256 0.000000 0.124938
#
#
# Mechanical properties :
#
#
# Convention : Reuss Voigt Hill
#
# Bulk Modulus (GPa) = 17.71950 32.20176 24.96063
# Shear Modulus (GPa) = 13.85793 22.10927 17.98360
#
# Velocity S-wave (km/s) = 2.68380 3.38991 3.05731
# Velocity P-wave (km/s) = 4.33746 5.66208 5.04345
#
# Compressibility (1/GPa) = 0.05643499
#
# Stress axis : x y z
#
# Youngs Moduli (GPa) = 75.18297 19.57318 93.59006
#
# Poissons Ratio (x) = 0.05608 0.20480
# Poissons Ratio (y) = 0.21539 0.39938
# Poissons Ratio (z) = 0.16452 0.08353
#
# Static dielectric constant tensor:
#      x y z
#    x 1.726020 0.000000 0.011950 
#    y 0.000000 1.647540 0.000000 
#    z 0.011950 0.000000 1.695130 
# 
# From -- ./inp_files/199136.got.cif
#   From: 2010.05.17/outbox.cif.g08.bks.cpg/sg15_100_cif.got.tgz:199136.got - 2010.06.03 18:47:42.
