data_PCOD9256137
_publ_section_title
;
Structure prediction by ZEFSAII (Michael W. Deem and Ramdas Pophale) SiO2 
 PCOD9256137
Probable space group: C 2/C
;
_chemical_formula_sum "Si O2"
_cell_formula_units_Z 56
_cell_length_a 9.602740
_cell_length_b 18.071346
_cell_length_c 23.193545
_cell_angle_alpha 90.000000
_cell_angle_beta 130.355120
_cell_angle_gamma 90.000000
_cell_volume 3067.141760
_symmetry_space_group_name_H-M "C 2/C"
_symmetry_group_IT_number 15
_symmetry_cell_setting 'monoclinic'
loop_
_space_group_symop_operation_xyz
x,y,z
-x,y,1/2-z
-x,-y,-z
x,-y,1/2+z
1/2+x,1/2+y,z
1/2-x,1/2+y,1/2-z
1/2-x,1/2-y,-z
1/2+x,1/2-y,1/2+z
loop_
_atom_site_type_symbol
_atom_site_label
_atom_site_fract_x
_atom_site_fract_y
_atom_site_fract_z
Si Si1 0.533430 0.351013 0.851047
Si Si2 0.113619 0.254116 0.016336
Si Si3 0.129319 0.362734 0.479552
Si Si4 0.216980 0.249624 0.814541
Si Si5 0.000000 0.975707 0.750000
Si Si6 0.729505 0.208492 0.887916
Si Si7 0.000000 0.400892 0.250000
Si Si8 0.840957 0.421264 0.326417
O O1 0.347394 0.307683 0.816610
O O2 0.491785 0.422076 0.802489
O O3 0.656542 0.289254 0.850978
O O4 0.670123 0.374136 0.940187
O O5 0.227033 0.237789 0.104084
O O6 0.002055 0.328162 0.006417
O O7 0.250000 0.250000 0.000000
O O8 0.944887 0.202258 0.953260
O O9 0.153732 0.305106 0.432661
O O10 0.013508 0.426076 0.416371
O O11 0.271202 0.164996 0.810462
O O12 0.000000 0.259258 0.750000
O O13 0.177110 0.027024 0.801140
O O14 0.648290 0.150437 0.821839
O O15 0.095715 0.440359 0.221623
#
# Coordination Sequence:
#
# PCOD9256137 Si02
#       8
#     8   8   8   8   4   8   4   8
#     4  11  20  38  62  89 120 159 208 262 295 361
#     4  10  19  28  51  92 124 140 192 267 304 335
#     4   9  18  38  64  80 117 163 214 239 303 365
#     4  11  21  36  62  89 124 162 209 256 310 355
#     4  12  27  38  58  93 134 156 200 252 325 358
#     4  10  17  34  61  92 112 151 208 254 298 346
#     4  10  19  32  66  83 110 156 214 240 285 372
#     4  10  22  40  60  89 122 170 201 245 306 385
#
# _framework density 18.258040999999999
#
# number of rings (size 3 to 8) (size 9 to 14) (size 15 to 20)
#    0.000    1.714    6.429    1.286    2.000    1.714 
#    1.286    0.000    0.000    5.143    0.000    0.000 
#    0.000    0.000    0.000    0.000    0.000    0.000 
#
# Total GULP energy -155880.698832 kJ/mol
# GULP energy per Si atom -5567.167815 kJ/mol
# Density = 1.821648 g / cm^3
# Si number density = 18.258041 Si / 1000 Ang^3
#
#
#
# Elastic Constant Matrix: (Units=GPa)
#
#
# Indices 1 2 3 4 5 6 
#
# 1 126.0355 35.2795 38.6562 0.0000 12.6038 0.0000
# 2 35.2795 64.6715 27.9088 0.0000 6.4833 0.0000
# 3 38.6562 27.9088 93.4413 0.0000 23.7261 0.0000
# 4 0.0000 0.0000 0.0000 -7.6236 0.0000 5.6360
# 5 12.6038 6.4833 23.7261 0.0000 44.6778 0.0000
# 6 0.0000 0.0000 0.0000 5.6360 0.0000 22.6253
#
#
#
# Elastic Compliance Matrix: (Units=1/GPa)
#
#
# Indices 1 2 3 4 5 6 
#
# 1 0.010020 -0.004230 -0.002681 0.000000 -0.000789 0.000000
# 2 -0.004230 0.019539 -0.004241 0.000000 0.000610 0.000000
# 3 -0.002681 -0.004241 0.014714 0.000000 -0.006442 0.000000
# 4 0.000000 0.000000 0.000000 -0.110772 0.000000 0.027594
# 5 -0.000789 0.000610 -0.006442 0.000000 0.025937 0.000000
# 6 0.000000 0.000000 0.000000 0.027594 0.000000 0.037325
#
#
# Mechanical properties :
#
#
# Convention : Reuss Voigt Hill
#
# Bulk Modulus (GPa) = 45.52058 54.20414 49.86236
# Shear Modulus (GPa) = 189.47415 24.08947 106.78181
#
# Velocity S-wave (km/s) = 10.19809 3.63628 7.65583
# Velocity P-wave (km/s) = 12.79273 6.88348 10.27220
#
# Compressibility (1/GPa) = 0.02196809
#
# Stress axis : x y z
#
# Youngs Moduli (GPa) = 99.80521 51.17930 67.96443
#
# Poissons Ratio (x) = 0.21647 0.18224
# Poissons Ratio (y) = 0.42214 0.28824
# Poissons Ratio (z) = 0.26762 0.21705
#
# Static dielectric constant tensor:
#      x y z
#    x 1.655310 0.000000 0.002850 
#    y 0.000000 1.634470 0.000000 
#    z 0.002850 0.000000 1.658330 
# 
# From -- ./inp_files/232835.got.cif
#   From: 2010.05.17/outbox.cif.g08.bks.cpg/sg15_117_cif.got.tgz:232835.got - 2010.06.03 18:47:42.
