data_PCOD9256120
_publ_section_title
;
Structure prediction by ZEFSAII (Michael W. Deem and Ramdas Pophale) SiO2 
 PCOD9256120
Probable space group: C 2/C
;
_chemical_formula_sum "Si O2"
_cell_formula_units_Z 32
_cell_length_a 12.998769
_cell_length_b 11.296651
_cell_length_c 9.103132
_cell_angle_alpha 90.000000
_cell_angle_beta 122.404404
_cell_angle_gamma 90.000000
_cell_volume 1128.581027
_symmetry_space_group_name_H-M "C 2/C"
_symmetry_group_IT_number 15
_symmetry_cell_setting 'monoclinic'
loop_
_space_group_symop_operation_xyz
x,y,z
-x,y,1/2-z
-x,-y,-z
x,-y,1/2+z
1/2+x,1/2+y,z
1/2-x,1/2+y,1/2-z
1/2-x,1/2-y,-z
1/2+x,1/2-y,1/2+z
loop_
_atom_site_type_symbol
_atom_site_label
_atom_site_fract_x
_atom_site_fract_y
_atom_site_fract_z
Si Si1 0.304301 0.959748 0.455098
Si Si2 0.500000 0.210359 0.250000
Si Si3 0.500000 0.371515 0.750000
Si Si4 0.146917 0.278155 0.583891
Si Si5 0.165780 0.935999 0.626505
O O1 0.371305 0.087612 0.495853
O O2 0.253021 0.955726 0.250777
O O3 0.397071 0.870373 0.596665
O O4 0.185470 0.945663 0.469506
O O5 0.558083 0.265418 0.147970
O O6 0.389599 0.298391 0.586184
O O7 0.553139 0.438140 0.649731
O O8 0.230867 0.187481 0.229995
#
# Coordination Sequence:
#
# PCOD9256120 Si02
#       5
#     8   4   4   8   8
#     4   9  19  36  56  87 104 143 189 228 260 325
#     4  10  17  34  60  87 102 140 190 232 261 314
#     4  12  21  38  54  83 118 148 168 230 285 324
#     4   9  21  34  58  83 110 144 183 223 279 319
#     4   9  22  35  58  81 111 142 191 220 272 321
#
# _framework density 28.354189000000002
#
# number of rings (size 3 to 8) (size 9 to 14) (size 15 to 20)
#    1.500    1.000    0.000    2.250    3.500    1.000 
#    0.000    7.500    0.000    0.000    0.000    0.000 
#    0.000    0.000    0.000    0.000    0.000    0.000 
#
# Total GULP energy -89090.998853 kJ/mol
# GULP energy per Si atom -5568.187428 kJ/mol
# Density = 2.828965 g / cm^3
# Si number density = 28.354189 Si / 1000 Ang^3
#
#
#
# Elastic Constant Matrix: (Units=GPa)
#
#
# Indices 1 2 3 4 5 6 
#
# 1 140.4712 11.8883 17.2646 0.0000 -41.5748 0.0000
# 2 11.8883 85.7852 36.9363 0.0000 -8.5539 0.0000
# 3 17.2646 36.9363 142.4072 0.0000 -44.7676 0.0000
# 4 0.0000 0.0000 0.0000 64.2076 0.0000 -7.9728
# 5 -41.5748 -8.5539 -44.7676 0.0000 54.1041 0.0000
# 6 0.0000 0.0000 0.0000 -7.9728 0.0000 29.9711
#
#
#
# Elastic Compliance Matrix: (Units=1/GPa)
#
#
# Indices 1 2 3 4 5 6 
#
# 1 0.009581 -0.001283 0.001922 0.000000 0.008749 0.000000
# 2 -0.001283 0.013335 -0.003987 0.000000 -0.002177 0.000000
# 3 0.001922 -0.003987 0.010933 0.000000 0.009893 0.000000
# 4 0.000000 0.000000 0.000000 0.016107 0.000000 0.004285
# 5 0.008749 -0.002177 0.009893 0.000000 0.033048 0.000000
# 6 0.000000 0.000000 0.000000 0.004285 0.000000 0.034505
#
#
# Mechanical properties :
#
#
# Convention : Reuss Voigt Hill
#
# Bulk Modulus (GPa) = 36.82999 55.64912 46.23955
# Shear Modulus (GPa) = 37.52191 49.82820 43.67505
#
# Velocity S-wave (km/s) = 3.64170 4.19662 3.92897
# Velocity P-wave (km/s) = 5.54077 6.56896 6.07665
#
# Compressibility (1/GPa) = 0.02715179
#
# Stress axis : x y z
#
# Youngs Moduli (GPa) = 104.37556 74.99308 91.46365
#
# Poissons Ratio (x) = 0.09619 -0.17576
# Poissons Ratio (y) = 0.13388 0.36470
# Poissons Ratio (z) = -0.20057 0.29903
#
# Static dielectric constant tensor:
#      x y z
#    x 2.329670 0.000000 0.144240 
#    y 0.000000 2.291810 0.000000 
#    z 0.144240 0.000000 2.111640 
# 
# From -- ./inp_files/122932.got.cif
#   From: 2010.05.17/outbox.cif.g08.bks.cpg/sg15_62_cif.got.tgz:122932.got - 2010.06.03 18:47:42.
