data_PCOD9256307
_publ_section_title
;
Structure prediction by ZEFSAII (Michael W. Deem and Ramdas Pophale) SiO2 
 PCOD9256307
Probable space group: C 2/C
;
_chemical_formula_sum "Si O2"
_cell_formula_units_Z 56
_cell_length_a 15.185720
_cell_length_b 16.741267
_cell_length_c 12.069045
_cell_angle_alpha 90.000000
_cell_angle_beta 120.962393
_cell_angle_gamma 90.000000
_cell_volume 2631.075825
_symmetry_space_group_name_H-M "C 2/C"
_symmetry_group_IT_number 15
_symmetry_cell_setting 'monoclinic'
loop_
_space_group_symop_operation_xyz
x,y,z
-x,y,1/2-z
-x,-y,-z
x,-y,1/2+z
1/2+x,1/2+y,z
1/2-x,1/2+y,1/2-z
1/2-x,1/2-y,-z
1/2+x,1/2-y,1/2+z
loop_
_atom_site_type_symbol
_atom_site_label
_atom_site_fract_x
_atom_site_fract_y
_atom_site_fract_z
Si Si1 0.931665 0.930093 0.557879
Si Si2 0.175721 0.387565 0.776424
Si Si3 0.741006 0.573220 0.395312
Si Si4 0.145419 0.770341 0.366331
Si Si5 0.090151 0.891471 0.495959
Si Si6 0.386128 0.937970 0.203328
Si Si7 0.282681 0.593029 0.750826
O O1 0.867306 0.899818 0.620944
O O2 0.857004 0.923162 0.402611
O O3 0.034111 0.888865 0.578531
O O4 0.947586 0.025410 0.583000
O O5 0.207025 0.375706 0.668450
O O6 0.117780 0.312595 0.790692
O O7 0.287382 0.398439 0.907555
O O8 0.115671 0.469863 0.756426
O O9 0.818741 0.566294 0.548290
O O10 0.724460 0.486263 0.328733
O O11 0.250000 0.750000 0.500000
O O12 0.071984 0.815358 0.406145
O O13 0.175952 0.835046 0.294374
O O14 0.500000 0.911102 0.250000
O O15 0.327615 0.891509 0.263694
#
# Coordination Sequence:
#
# PCOD9256307 Si02
#       7
#     8   8   8   8   8   8   8
#     4  10  19  32  55  88 117 143 194 233 285 338
#     4  10  20  36  57  86 115 154 192 233 294 338
#     4  10  17  36  58  86 110 148 196 242 280 336
#     4  10  20  37  59  80 120 154 183 230 290 349
#     4  10  18  34  55  85 115 153 186 230 284 345
#     4  10  21  38  59  81 109 148 202 249 282 327
#     4  10  19  36  59  82 113 150 191 238 286 330
#
# _framework density 21.28407
#
# number of rings (size 3 to 8) (size 9 to 14) (size 15 to 20)
#    0.000    2.000    5.714    0.857    0.000    3.429 
#    2.571    2.857    9.429    0.000    0.000    0.000 
#    0.000    0.000    0.000    0.000    0.000    0.000 
#
# Total GULP energy -156333.998074 kJ/mol
# GULP energy per Si atom -5583.357074 kJ/mol
# Density = 2.123563 g / cm^3
# Si number density = 21.284070 Si / 1000 Ang^3
#
#
#
# Elastic Constant Matrix: (Units=GPa)
#
#
# Indices 1 2 3 4 5 6 
#
# 1 133.8797 18.5119 20.3359 0.0000 -17.3335 0.0000
# 2 18.5119 60.1941 12.1367 0.0000 -13.8217 0.0000
# 3 20.3359 12.1367 68.1265 0.0000 -25.5624 0.0000
# 4 0.0000 0.0000 0.0000 22.7354 0.0000 -14.7008
# 5 -17.3335 -13.8217 -25.5624 0.0000 32.1462 0.0000
# 6 0.0000 0.0000 0.0000 -14.7008 0.0000 28.9139
#
#
#
# Elastic Compliance Matrix: (Units=1/GPa)
#
#
# Indices 1 2 3 4 5 6 
#
# 1 0.008234 -0.001656 -0.001089 0.000000 0.002862 0.000000
# 2 -0.001656 0.018775 -0.000223 0.000000 0.007002 0.000000
# 3 -0.001089 -0.000223 0.021075 0.000000 0.016076 0.000000
# 4 0.000000 0.000000 0.000000 0.065527 0.000000 0.033316
# 5 0.002862 0.007002 0.016076 0.000000 0.048445 0.000000
# 6 0.000000 0.000000 0.000000 0.033316 0.000000 0.051524
#
#
# Mechanical properties :
#
#
# Convention : Reuss Voigt Hill
#
# Bulk Modulus (GPa) = 23.72529 40.46326 32.09428
# Shear Modulus (GPa) = 21.40723 30.84015 26.12369
#
# Velocity S-wave (km/s) = 3.17485 3.81067 3.50720
# Velocity P-wave (km/s) = 4.96092 6.19790 5.61359
#
# Compressibility (1/GPa) = 0.04214911
#
# Stress axis : x y z
#
# Youngs Moduli (GPa) = 121.44322 53.26244 47.44879
#
# Poissons Ratio (x) = 0.08818 0.05168
# Poissons Ratio (y) = 0.20106 0.01059
# Poissons Ratio (z) = 0.13226 0.01188
#
# Static dielectric constant tensor:
#      x y z
#    x 1.852070 0.000000 0.021110 
#    y 0.000000 1.764320 0.000000 
#    z 0.021110 0.000000 1.809160 
# 
# From -- ./inp_files/98398.got.cif
#   From: 2010.05.17/outbox.cif.g08.bks.cpg/sg15_50_cif.got.tgz:98398.got - 2010.06.03 18:47:42.
