data_PCOD9256589
_publ_section_title
;
Structure prediction by ZEFSAII (Michael W. Deem and Ramdas Pophale) SiO2 
 PCOD9256589
Probable space group: C 2/C
;
_chemical_formula_sum "Si O2"
_cell_formula_units_Z 64
_cell_length_a 13.418634
_cell_length_b 31.370943
_cell_length_c 10.330830
_cell_angle_alpha 90.000000
_cell_angle_beta 90.000000
_cell_angle_gamma 90.000000
_cell_volume 4348.816633
_symmetry_space_group_name_H-M "C 2/C"
_symmetry_group_IT_number 15
_symmetry_cell_setting 'monoclinic'
loop_
_space_group_symop_operation_xyz
x,y,z
-x,y,1/2-z
-x,-y,-z
x,-y,1/2+z
1/2+x,1/2+y,z
1/2-x,1/2+y,1/2-z
1/2-x,1/2-y,-z
1/2+x,1/2-y,1/2+z
loop_
_atom_site_type_symbol
_atom_site_label
_atom_site_fract_x
_atom_site_fract_y
_atom_site_fract_z
Si Si1 0.620458 0.899688 0.974800
Si Si2 0.882245 0.223043 0.900035
Si Si3 0.228051 0.687553 0.100049
Si Si4 0.878893 0.562489 0.750000
Si Si5 0.617755 0.723043 0.900035
Si Si6 0.120458 0.600313 0.025200
Si Si7 0.771949 0.687553 0.100049
Si Si8 0.879366 0.464906 0.750000
O O1 0.671231 0.855979 0.931934
O O2 0.648371 0.937608 0.876091
O O3 0.649880 0.913263 0.119413
O O4 0.500000 0.894943 0.969258
O O5 0.846228 0.272069 0.914895
O O6 0.861768 0.211025 0.750000
O O7 1.000000 0.219793 0.922626
O O8 0.818042 0.195843 0.000956
O O9 0.261097 0.687051 0.250000
O O10 0.171231 0.644021 0.068066
O O11 0.850120 0.586737 0.619413
O O12 0.843180 0.513484 0.750000
O O13 0.000000 0.560962 0.750000
O O14 0.653772 0.772069 0.914895
O O15 0.681958 0.695843 0.000956
O O16 0.148371 0.562392 0.123909
O O17 0.000000 0.467137 0.750000
#
# Coordination Sequence:
#
# PCOD9256589 Si02
#       8
#     8   8   8   8   8   8   8   8
#     4  10  18  28  44  66  94 126 157 188 221 266
#     4   9  19  34  50  66  91 123 153 189 231 270
#     4  10  19  31  48  70  93 121 156 189 223 268
#     4   9  18  28  40  63  93 125 157 187 222 266
#     4   9  19  34  50  66  91 123 153 189 231 270
#     4  10  18  28  44  66  94 126 157 188 221 266
#     4  10  19  31  48  70  93 121 156 189 223 268
#     4   9  16  28  44  61  89 127 157 183 224 272
#
# _framework density 14.716647
#
# number of rings (size 3 to 8) (size 9 to 14) (size 15 to 20)
#    0.000    2.500    1.250    1.500    1.750    4.500 
#    0.000    0.000    0.000    0.000    0.000    0.000 
#    0.000    6.000    0.000    0.000    0.000    0.000 
#
# Total GULP energy -178328.538630 kJ/mol
# GULP energy per Si atom -5572.766832 kJ/mol
# Density = 1.468315 g / cm^3
# Si number density = 14.716647 Si / 1000 Ang^3
#
#
#
# Elastic Constant Matrix: (Units=GPa)
#
#
# Indices 1 2 3 4 5 6 
#
# 1 57.5469 24.9414 46.4979 0.0000 2.0225 0.0000
# 2 24.9414 71.0178 42.7804 0.0000 1.3739 0.0000
# 3 46.4979 42.7804 121.8787 0.0000 2.9322 0.0000
# 4 0.0000 0.0000 0.0000 24.4368 0.0000 0.4050
# 5 2.0225 1.3739 2.9322 0.0000 18.7248 0.0000
# 6 0.0000 0.0000 0.0000 0.4050 0.0000 19.1788
#
#
#
# Elastic Compliance Matrix: (Units=1/GPa)
#
#
# Indices 1 2 3 4 5 6 
#
# 1 0.026013 -0.003997 -0.008493 0.000000 -0.001187 0.000000
# 2 -0.003997 0.018473 -0.004956 0.000000 -0.000148 0.000000
# 3 -0.008493 -0.004956 0.013203 0.000000 -0.000787 0.000000
# 4 0.000000 0.000000 0.000000 0.040936 0.000000 -0.000864
# 5 -0.001187 -0.000148 -0.000787 0.000000 0.053667 0.000000
# 6 0.000000 0.000000 0.000000 -0.000864 0.000000 0.052159
#
#
# Mechanical properties :
#
#
# Convention : Reuss Voigt Hill
#
# Bulk Modulus (GPa) = 43.86225 53.20921 48.53573
# Shear Modulus (GPa) = 20.24761 21.54966 20.89863
#
# Velocity S-wave (km/s) = 3.71324 3.83077 3.77247
# Velocity P-wave (km/s) = 6.94647 7.46999 7.21298
#
# Compressibility (1/GPa) = 0.02279865
#
# Stress axis : x y z
#
# Youngs Moduli (GPa) = 38.44180 54.13365 75.73816
#
# Poissons Ratio (x) = 0.21637 0.64323
# Poissons Ratio (y) = 0.15365 0.37533
# Poissons Ratio (z) = 0.32648 0.26827
#
# Static dielectric constant tensor:
#      x y z
#    x 1.448000 0.000000 0.004220 
#    y 0.000000 1.471420 0.000000 
#    z 0.004220 0.000000 1.502740 
# 
# From -- ./inp_files/44269.got.cif
#   From: 2010.05.17/outbox.cif.g08.bks.cpg/sg15_23_cif.got.tgz:44269.got - 2010.06.03 18:47:42.
