data_PCOD9256689
_publ_section_title
;
Structure prediction by ZEFSAII (Michael W. Deem and Ramdas Pophale) SiO2 
 PCOD9256689
Probable space group: C 2/C
;
_chemical_formula_sum "Si O2"
_cell_formula_units_Z 56
_cell_length_a 18.944449
_cell_length_b 8.689220
_cell_length_c 12.414819
_cell_angle_alpha 90.000000
_cell_angle_beta 75.223130
_cell_angle_gamma 90.000000
_cell_volume 1976.043933
_symmetry_space_group_name_H-M "C 2/C"
_symmetry_group_IT_number 15
_symmetry_cell_setting 'monoclinic'
loop_
_space_group_symop_operation_xyz
x,y,z
-x,y,1/2-z
-x,-y,-z
x,-y,1/2+z
1/2+x,1/2+y,z
1/2-x,1/2+y,1/2-z
1/2-x,1/2-y,-z
1/2+x,1/2-y,1/2+z
loop_
_atom_site_type_symbol
_atom_site_label
_atom_site_fract_x
_atom_site_fract_y
_atom_site_fract_z
Si Si1 0.000000 0.963959 0.250000
Si Si2 0.389023 0.228035 0.304281
Si Si3 0.512331 0.720645 0.414124
Si Si4 0.304812 0.503813 0.293556
Si Si5 0.646495 0.339607 0.506164
Si Si6 0.829079 0.308742 0.166940
Si Si7 0.197102 0.544466 0.593801
Si Si8 0.000000 0.479483 0.250000
O O1 0.052836 0.845482 0.165892
O O2 0.032299 0.081346 0.324948
O O3 0.348046 0.348260 0.243750
O O4 0.332710 0.129743 0.397149
O O5 0.439230 0.098598 0.232332
O O6 0.437814 0.660709 0.499566
O O7 0.592512 0.779005 0.419726
O O8 0.482956 0.865706 0.354761
O O9 0.347738 0.580731 0.377202
O O10 0.229513 0.424242 0.362442
O O11 0.295721 0.643216 0.214279
O O12 0.716541 0.424762 0.429136
O O13 0.670252 0.162633 0.512857
O O14 0.836644 0.386665 0.281917
#
# Coordination Sequence:
#
# PCOD9256689 Si02
#       8
#     4   8   8   8   8   8   8   4
#     4  10  18  30  54  84 118 136 208 264 288 338
#     4  11  18  31  55  89 115 148 198 261 294 356
#     4  11  17  38  57  88 113 161 198 262 292 368
#     4  11  22  37  57  88 122 158 203 260 306 370
#     4  10  21  38  60  87 124 162 207 254 307 366
#     4  11  22  37  60  87 122 161 206 252 312 363
#     4  10  20  36  58  89 121 159 204 257 304 365
#     4  10  18  28  58  86 112 140 206 250 294 344
#
# _framework density 28.339448999999998
#
# number of rings (size 3 to 8) (size 9 to 14) (size 15 to 20)
#    0.000    1.429    5.714    2.571    0.000    0.571 
#    0.000    0.000    0.000   14.571    0.000    0.000 
#    0.000    0.000    0.000    0.000    0.000    0.000 
#
# Total GULP energy -156236.409493 kJ/mol
# GULP energy per Si atom -5579.871768 kJ/mol
# Density = 2.827495 g / cm^3
# Si number density = 28.339449 Si / 1000 Ang^3
#
#
#
# Elastic Constant Matrix: (Units=GPa)
#
#
# Indices 1 2 3 4 5 6 
#
# 1 136.5703 60.1571 62.5447 0.0000 -56.0200 0.0000
# 2 60.1571 208.6231 57.3721 0.0000 -27.9279 0.0000
# 3 62.5447 57.3721 63.2113 0.0000 -34.9599 0.0000
# 4 0.0000 0.0000 0.0000 41.0074 0.0000 -22.9045
# 5 -56.0200 -27.9279 -34.9599 0.0000 46.8564 0.0000
# 6 0.0000 0.0000 0.0000 -22.9045 0.0000 63.6156
#
#
#
# Elastic Compliance Matrix: (Units=1/GPa)
#
#
# Indices 1 2 3 4 5 6 
#
# 1 0.017318 -0.000705 -0.008984 0.000000 0.013582 0.000000
# 2 -0.000705 0.006438 -0.005941 0.000000 -0.001438 0.000000
# 3 -0.008984 -0.005941 0.037801 0.000000 0.013921 0.000000
# 4 0.000000 0.000000 0.000000 0.030524 0.000000 0.010990
# 5 0.013582 -0.001438 0.013921 0.000000 0.047109 0.000000
# 6 0.000000 0.000000 0.000000 0.010990 0.000000 0.019676
#
#
# Mechanical properties :
#
#
# Convention : Reuss Voigt Hill
#
# Bulk Modulus (GPa) = 33.00683 85.39472 59.20078
# Shear Modulus (GPa) = 24.97155 45.51793 35.24474
#
# Velocity S-wave (km/s) = 2.97165 4.01205 3.53039
# Velocity P-wave (km/s) = 4.84216 7.18751 6.12808
#
# Compressibility (1/GPa) = 0.03029676
#
# Stress axis : x y z
#
# Youngs Moduli (GPa) = 57.74175 155.32991 26.45406
#
# Poissons Ratio (x) = 0.10949 0.23767
# Poissons Ratio (y) = 0.04070 0.15717
# Poissons Ratio (z) = 0.51877 0.92285
#
# Static dielectric constant tensor:
#      x y z
#    x 2.398560 0.000000 -0.088480 
#    y 0.000000 2.101310 0.000000 
#    z -0.088480 0.000000 2.307250 
# 
# From -- ./inp_files/251524.got.cif
#   From: 2010.05.17/outbox.cif.g08.bks.cpg/sg15_126_cif.got.tgz:251524.got - 2010.06.03 18:47:42.
