data_PCOD9256674
_publ_section_title
;
Structure prediction by ZEFSAII (Michael W. Deem and Ramdas Pophale) SiO2 
 PCOD9256674
Probable space group: C 2/C
;
_chemical_formula_sum "Si O2"
_cell_formula_units_Z 60
_cell_length_a 23.714745
_cell_length_b 18.886420
_cell_length_c 14.260458
_cell_angle_alpha 90.000000
_cell_angle_beta 28.751685
_cell_angle_gamma 90.000000
_cell_volume 3072.272912
_symmetry_space_group_name_H-M "C 2/C"
_symmetry_group_IT_number 15
_symmetry_cell_setting 'monoclinic'
loop_
_space_group_symop_operation_xyz
x,y,z
-x,y,1/2-z
-x,-y,-z
x,-y,1/2+z
1/2+x,1/2+y,z
1/2-x,1/2+y,1/2-z
1/2-x,1/2-y,-z
1/2+x,1/2-y,1/2+z
loop_
_atom_site_type_symbol
_atom_site_label
_atom_site_fract_x
_atom_site_fract_y
_atom_site_fract_z
Si Si1 0.058674 0.251372 0.401516
Si Si2 0.326110 0.983136 0.681144
Si Si3 0.880545 0.674448 0.870971
Si Si4 0.213895 0.748469 0.162330
Si Si5 0.703314 0.345175 0.792598
Si Si6 0.000000 0.577771 0.250000
Si Si7 0.825797 0.640997 0.629248
Si Si8 0.395467 0.976825 0.276176
O O1 0.093131 0.263488 0.242292
O O2 0.083003 0.175849 0.416174
O O3 0.143628 0.306599 0.331298
O O4 0.922643 0.268757 0.618885
O O5 0.245650 0.924721 0.749974
O O6 0.464332 0.971028 0.452589
O O7 0.286976 0.063119 0.715734
O O8 0.331296 0.982641 0.786322
O O9 0.848379 0.601391 0.864538
O O10 0.000000 0.657229 0.750000
O O11 0.791993 0.687033 0.084934
O O12 0.285951 0.692985 0.122191
O O13 0.245956 0.822235 0.167523
O O14 0.250000 0.750000 0.000000
O O15 0.103162 0.526832 0.135332
O O16 0.953607 0.626552 0.398807
#
# Coordination Sequence:
#
# PCOD9256674 Si02
#       8
#     8   8   8   8   8   4   8   8
#     4  11  23  40  58  86 121 157 197 247 301 355
#     4  10  19  34  54  86 118 151 193 243 303 350
#     4  12  18  36  60  91 121 151 191 244 306 360
#     4  11  24  40  60  86 118 160 202 246 295 356
#     4  11  24  38  60  89 119 158 193 246 305 363
#     4  10  18  28  52  86 114 146 188 236 304 346
#     4  10  21  35  56  83 115 150 194 241 292 356
#     4  10  18  28  57  86 119 146 185 249 303 349
#
# _framework density 19.529516000000001
#
# number of rings (size 3 to 8) (size 9 to 14) (size 15 to 20)
#    0.000    1.333    4.667    2.000    5.600    1.600 
#    0.000    0.667    0.000    0.000    0.000    0.000 
#    0.000    0.000    0.000    0.000    0.000    0.000 
#
# Total GULP energy -167112.505342 kJ/mol
# GULP energy per Si atom -5570.416845 kJ/mol
# Density = 1.948507 g / cm^3
# Si number density = 19.529516 Si / 1000 Ang^3
#
#
#
# Elastic Constant Matrix: (Units=GPa)
#
#
# Indices 1 2 3 4 5 6 
#
# 1 102.8683 31.5389 18.9778 0.0000 21.2761 0.0000
# 2 31.5389 94.3247 5.0127 0.0000 2.2860 0.0000
# 3 18.9778 5.0127 24.8391 0.0000 13.9100 0.0000
# 4 0.0000 0.0000 0.0000 20.9663 0.0000 -2.0425
# 5 21.2761 2.2860 13.9100 0.0000 24.8678 0.0000
# 6 0.0000 0.0000 0.0000 -2.0425 0.0000 27.9295
#
#
#
# Elastic Compliance Matrix: (Units=1/GPa)
#
#
# Indices 1 2 3 4 5 6 
#
# 1 0.013642 -0.004099 -0.004762 0.000000 -0.008631 0.000000
# 2 -0.004099 0.011950 -0.000915 0.000000 0.002920 0.000000
# 3 -0.004762 -0.000915 0.060798 0.000000 -0.029849 0.000000
# 4 0.000000 0.000000 0.000000 0.048038 0.000000 0.003513
# 5 -0.008631 0.002920 -0.029849 0.000000 0.064025 0.000000
# 6 0.000000 0.000000 0.000000 0.003513 0.000000 0.036061
#
#
# Mechanical properties :
#
#
# Convention : Reuss Voigt Hill
#
# Bulk Modulus (GPa) = 14.96189 37.01013 25.98601
# Shear Modulus (GPa) = 18.09334 25.85289 21.97311
#
# Velocity S-wave (km/s) = 3.04708 3.64233 3.35792
# Velocity P-wave (km/s) = 4.47855 6.05647 5.32627
#
# Compressibility (1/GPa) = 0.06683647
#
# Stress axis : x y z
#
# Youngs Moduli (GPa) = 73.30550 83.68122 16.44800
#
# Poissons Ratio (x) = 0.34301 0.07833
# Poissons Ratio (y) = 0.30048 0.01506
# Poissons Ratio (z) = 0.34909 0.07659
#
# Static dielectric constant tensor:
#      x y z
#    x 1.726520 0.000000 0.005980 
#    y 0.000000 1.750530 0.000000 
#    z 0.005980 0.000000 1.732940 
# 
# From -- ./inp_files/174087.got.cif
#   From: 2010.05.17/outbox.cif.g08.bks.cpg/sg15_88_cif.got.tgz:174087.got - 2010.06.03 18:47:42.
