data_PCOD9256743
_publ_section_title
;
Structure prediction by ZEFSAII (Michael W. Deem and Ramdas Pophale) SiO2 
 PCOD9256743
Probable space group: C 2/C
;
_chemical_formula_sum "Si O2"
_cell_formula_units_Z 56
_cell_length_a 14.289213
_cell_length_b 28.233347
_cell_length_c 9.151679
_cell_angle_alpha 90.000000
_cell_angle_beta 109.061063
_cell_angle_gamma 90.000000
_cell_volume 3489.650009
_symmetry_space_group_name_H-M "C 2/C"
_symmetry_group_IT_number 15
_symmetry_cell_setting 'monoclinic'
loop_
_space_group_symop_operation_xyz
x,y,z
-x,y,1/2-z
-x,-y,-z
x,-y,1/2+z
1/2+x,1/2+y,z
1/2-x,1/2+y,1/2-z
1/2-x,1/2-y,-z
1/2+x,1/2-y,1/2+z
loop_
_atom_site_type_symbol
_atom_site_label
_atom_site_fract_x
_atom_site_fract_y
_atom_site_fract_z
Si Si1 0.380655 0.054016 0.177489
Si Si2 0.168959 0.643331 0.540308
Si Si3 0.193335 0.710459 0.066928
Si Si4 0.478107 0.766657 0.567239
Si Si5 0.100128 0.529472 0.002021
Si Si6 0.390086 0.872719 0.166496
Si Si7 0.700726 0.293316 0.564406
O O1 0.500000 0.052651 0.250000
O O2 0.346521 0.047062 0.325125
O O3 0.358273 0.102087 0.084871
O O4 0.344664 0.009697 0.064559
O O5 0.087395 0.685572 0.488038
O O6 0.162684 0.624539 0.702536
O O7 0.271748 0.663769 0.529422
O O8 0.248019 0.702291 0.250713
O O9 0.083171 0.729081 0.044051
O O10 0.250000 0.750000 0.000000
O O11 0.174413 0.661790 0.968670
O O12 0.500000 0.761821 0.750000
O O13 0.412388 0.722668 0.479046
O O14 0.087477 0.576599 0.898358
O O15 0.000000 0.500000 0.000000
O O16 0.500000 0.851458 0.250000
O O17 0.750000 0.250000 0.500000
#
# Coordination Sequence:
#
# PCOD9256743 Si02
#       7
#     8   8   8   8   8   8   8
#     4  10  18  29  47  66 101 133 180 210 256 311
#     4  11  20  33  51  74 101 142 185 215 262 324
#     4  12  24  35  54  78 105 139 185 230 269 322
#     4  11  21  36  56  72 105 142 181 225 276 318
#     4  10  20  31  45  71 101 140 181 217 258 323
#     4  12  22  32  50  72 106 143 183 220 272 315
#     4  10  21  35  51  74  99 136 182 222 269 323
#
# _framework density 16.047453999999998
#
# number of rings (size 3 to 8) (size 9 to 14) (size 15 to 20)
#    0.000    1.143    4.286    6.857    0.000    0.000 
#    0.000    0.000    0.000    0.000    0.000    0.000 
#    0.000    1.143    0.857    0.429    0.000    0.857 
#
# Total GULP energy -155985.505190 kJ/mol
# GULP energy per Si atom -5570.910900 kJ/mol
# Density = 1.601093 g / cm^3
# Si number density = 16.047454 Si / 1000 Ang^3
#
#
#
# Elastic Constant Matrix: (Units=GPa)
#
#
# Indices 1 2 3 4 5 6 
#
# 1 68.9913 38.8003 36.1737 0.0000 -7.2473 0.0000
# 2 38.8003 93.8258 50.3439 0.0000 -10.4351 0.0000
# 3 36.1737 50.3439 100.8983 0.0000 -23.5018 0.0000
# 4 0.0000 0.0000 0.0000 35.5317 0.0000 -7.0457
# 5 -7.2473 -10.4351 -23.5018 0.0000 22.7544 0.0000
# 6 0.0000 0.0000 0.0000 -7.0457 0.0000 19.3305
#
#
#
# Elastic Compliance Matrix: (Units=1/GPa)
#
#
# Indices 1 2 3 4 5 6 
#
# 1 0.020113 -0.006057 -0.004403 0.000000 -0.000919 0.000000
# 2 -0.006057 0.016399 -0.006200 0.000000 -0.000812 0.000000
# 3 -0.004403 -0.006200 0.017900 0.000000 0.014243 0.000000
# 4 0.000000 0.000000 0.000000 0.030336 0.000000 0.011057
# 5 -0.000919 -0.000812 0.014243 0.000000 0.057993 0.000000
# 6 0.000000 0.000000 0.000000 0.011057 0.000000 0.055762
#
#
# Mechanical properties :
#
#
# Convention : Reuss Voigt Hill
#
# Bulk Modulus (GPa) = 47.40960 57.15014 52.27987
# Shear Modulus (GPa) = 20.93317 24.74983 22.84150
#
# Velocity S-wave (km/s) = 3.61564 3.93146 3.77685
# Velocity P-wave (km/s) = 6.85843 7.50327 7.18808
#
# Compressibility (1/GPa) = 0.02109277
#
# Stress axis : x y z
#
# Youngs Moduli (GPa) = 49.71901 60.97769 55.86437
#
# Poissons Ratio (x) = 0.36937 0.24595
# Poissons Ratio (y) = 0.30117 0.34637
# Poissons Ratio (z) = 0.21889 0.37807
#
# Static dielectric constant tensor:
#      x y z
#    x 1.585780 0.000000 -0.052490 
#    y 0.000000 1.401560 0.000000 
#    z -0.052490 0.000000 1.602760 
# 
# From -- ./inp_files/43594.got.cif
#   From: 2010.05.17/outbox.cif.g08.bks.cpg/sg15_22_cif.got.tgz:43594.got - 2010.06.03 18:47:42.
