data_PCOD9256976
_publ_section_title
;
Structure prediction by ZEFSAII (Michael W. Deem and Ramdas Pophale) SiO2 
 PCOD9256976
Probable space group: C 2/C
;
_chemical_formula_sum "Si O2"
_cell_formula_units_Z 64
_cell_length_a 19.883491
_cell_length_b 13.886258
_cell_length_c 21.033301
_cell_angle_alpha 90.000000
_cell_angle_beta 139.542595
_cell_angle_gamma 90.000000
_cell_volume 3768.351534
_symmetry_space_group_name_H-M "C 2/C"
_symmetry_group_IT_number 15
_symmetry_cell_setting 'monoclinic'
loop_
_space_group_symop_operation_xyz
x,y,z
-x,y,1/2-z
-x,-y,-z
x,-y,1/2+z
1/2+x,1/2+y,z
1/2-x,1/2+y,1/2-z
1/2-x,1/2-y,-z
1/2+x,1/2-y,1/2+z
loop_
_atom_site_type_symbol
_atom_site_label
_atom_site_fract_x
_atom_site_fract_y
_atom_site_fract_z
Si Si1 0.290935 0.460627 0.368180
Si Si2 0.541769 0.344498 0.938712
Si Si3 0.512350 0.133815 0.939533
Si Si4 0.724087 0.949427 0.616819
Si Si5 0.588592 0.124771 0.771503
Si Si6 0.837949 0.189764 0.101394
Si Si7 0.714903 0.867315 0.181682
Si Si8 0.300370 0.352092 0.798780
O O1 0.395001 0.422357 0.475389
O O2 0.194908 0.433364 0.344260
O O3 0.264634 0.405936 0.283238
O O4 0.293492 0.571200 0.350378
O O5 0.565404 0.238522 0.984464
O O6 0.582270 0.345864 0.895287
O O7 0.418759 0.353030 0.858346
O O8 0.461870 0.134926 0.833545
O O9 0.410608 0.120229 0.908902
O O10 0.603612 0.057921 0.011186
O O11 0.789659 0.895389 0.609320
O O12 0.735754 0.889755 0.691543
O O13 0.754711 0.059427 0.656035
O O14 0.500000 0.077273 0.750000
O O15 0.613513 0.229859 0.817530
O O16 0.750000 0.250000 0.000000
O O17 0.730286 0.752689 0.196992
#
# Coordination Sequence:
#
# PCOD9256976 Si02
#       8
#     8   8   8   8   8   8   8   8
#     4  10  20  34  53  79 105 139 177 219 267 319
#     4  11  19  32  52  78 110 135 173 216 270 318
#     4  10  18  30  50  76 108 137 168 216 267 316
#     4  11  20  33  50  78 110 140 176 214 272 315
#     4  11  19  31  51  83 112 132 165 215 278 322
#     4  12  20  31  52  84 111 136 163 218 275 324
#     4   9  20  34  51  73 105 141 179 220 258 311
#     4  10  22  36  53  76 106 145 182 221 257 314
#
# _framework density 16.983554000000002
#
# number of rings (size 3 to 8) (size 9 to 14) (size 15 to 20)
#    0.000    1.500    3.750    3.750    0.000    0.000 
#    0.000    0.000    0.000    0.750    6.500    0.000 
#    0.000    0.000    0.000    0.000    0.000    0.000 
#
# Total GULP energy -178403.658948 kJ/mol
# GULP energy per Si atom -5575.114342 kJ/mol
# Density = 1.694490 g / cm^3
# Si number density = 16.983554 Si / 1000 Ang^3
#
#
#
# Elastic Constant Matrix: (Units=GPa)
#
#
# Indices 1 2 3 4 5 6 
#
# 1 64.4815 37.1865 4.9020 0.0000 -9.2839 0.0000
# 2 37.1865 113.7882 26.8914 0.0000 -14.5557 0.0000
# 3 4.9020 26.8914 70.1797 0.0000 -3.5362 0.0000
# 4 0.0000 0.0000 0.0000 16.2483 0.0000 -14.9017
# 5 -9.2839 -14.5557 -3.5362 0.0000 14.1016 0.0000
# 6 0.0000 0.0000 0.0000 -14.9017 0.0000 19.9696
#
#
#
# Elastic Compliance Matrix: (Units=1/GPa)
#
#
# Indices 1 2 3 4 5 6 
#
# 1 0.019836 -0.005831 0.001219 0.000000 0.007346 0.000000
# 2 -0.005831 0.012707 -0.004045 0.000000 0.008263 0.000000
# 3 0.001219 -0.004045 0.015743 0.000000 0.000575 0.000000
# 4 0.000000 0.000000 0.000000 0.194993 0.000000 0.145508
# 5 0.007346 0.008263 0.000575 0.000000 0.084423 0.000000
# 6 0.000000 0.000000 0.000000 0.145508 0.000000 0.158657
#
#
# Mechanical properties :
#
#
# Convention : Reuss Voigt Hill
#
# Bulk Modulus (GPa) = 32.28805 42.93436 37.61121
# Shear Modulus (GPa) = 9.72766 22.02853 15.87810
#
# Velocity S-wave (km/s) = 2.39586 3.60537 3.06095
# Velocity P-wave (km/s) = 5.16780 6.53195 5.88950
#
# Compressibility (1/GPa) = 0.03097121
#
# Stress axis : x y z
#
# Youngs Moduli (GPa) = 50.41340 78.69795 63.52012
#
# Poissons Ratio (x) = 0.45887 -0.07742
# Poissons Ratio (y) = 0.29395 0.25696
# Poissons Ratio (z) = -0.06145 0.31836
#
# Static dielectric constant tensor:
#      x y z
#    x 1.608180 0.000000 0.008290 
#    y 0.000000 1.592350 0.000000 
#    z 0.008290 0.000000 1.598930 
# 
# From -- ./inp_files/252592.got.cif
#   From: 2010.05.17/outbox.cif.g08.bks.cpg/sg15_127_cif.got.tgz:252592.got - 2010.06.03 18:47:42.
