data_PCOD9256139
_publ_section_title
;
Structure prediction by ZEFSAII (Michael W. Deem and Ramdas Pophale) SiO2 
 PCOD9256139
Probable space group: C 2/C
;
_chemical_formula_sum "Si O2"
_cell_formula_units_Z 64
_cell_length_a 12.082886
_cell_length_b 15.939771
_cell_length_c 19.388690
_cell_angle_alpha 90.000000
_cell_angle_beta 56.310771
_cell_angle_gamma 90.000000
_cell_volume 3107.098623
_symmetry_space_group_name_H-M "C 2/C"
_symmetry_group_IT_number 15
_symmetry_cell_setting 'monoclinic'
loop_
_space_group_symop_operation_xyz
x,y,z
-x,y,1/2-z
-x,-y,-z
x,-y,1/2+z
1/2+x,1/2+y,z
1/2-x,1/2+y,1/2-z
1/2-x,1/2-y,-z
1/2+x,1/2-y,1/2+z
loop_
_atom_site_type_symbol
_atom_site_label
_atom_site_fract_x
_atom_site_fract_y
_atom_site_fract_z
Si Si1 0.313222 0.650732 0.060791
Si Si2 0.005770 0.694399 0.143101
Si Si3 0.600073 0.978734 0.805836
Si Si4 0.653897 0.923054 0.045870
Si Si5 0.789894 0.966225 0.129122
Si Si6 0.465459 0.813058 0.029822
Si Si7 0.479845 0.378051 0.365326
Si Si8 0.245955 0.534860 0.886351
O O1 0.160457 0.678195 0.106365
O O2 0.324058 0.560334 0.092506
O O3 0.397557 0.723961 0.067793
O O4 0.372787 0.642965 0.963095
O O5 0.968677 0.788035 0.178082
O O6 0.922820 0.618394 0.203403
O O7 0.988873 0.687610 0.065830
O O8 0.463456 0.017378 0.882667
O O9 0.657405 0.027405 0.720940
O O10 0.707895 0.988475 0.829292
O O11 0.758852 0.913070 0.071135
O O12 0.583215 0.840885 0.039940
O O13 0.716434 0.973960 0.960732
O O14 0.904552 0.928229 0.136552
O O15 0.354977 0.886286 0.073894
O O16 0.394022 0.430282 0.340973
#
# Coordination Sequence:
#
# PCOD9256139 Si02
#       8
#     8   8   8   8   8   8   8   8
#     4  11  20  36  64  92 123 152 204 258 310 346
#     4  11  18  38  65  94 115 151 207 268 294 350
#     4  11  22  38  61  85 123 159 211 244 307 365
#     4  11  20  36  64  86 121 161 206 245 303 364
#     4  12  25  39  55  92 128 170 189 252 315 371
#     4  10  17  34  61  97 109 150 205 254 296 349
#     4  11  22  38  63  92 127 151 207 252 311 360
#     4  11  18  37  65  89 116 157 202 262 300 357
#
# _framework density 20.597995000000001
#
# number of rings (size 3 to 8) (size 9 to 14) (size 15 to 20)
#    0.000    1.000    7.500    2.250    0.000    0.500 
#    4.500    5.000    0.000    0.000    0.000    0.000 
#    0.000    0.000    0.000    0.000    0.000    0.000 
#
# Total GULP energy -178989.753405 kJ/mol
# GULP energy per Si atom -5593.429794 kJ/mol
# Density = 2.055111 g / cm^3
# Si number density = 20.597995 Si / 1000 Ang^3
#
#
#
# Elastic Constant Matrix: (Units=GPa)
#
#
# Indices 1 2 3 4 5 6 
#
# 1 90.9338 32.2618 8.5171 0.0000 10.4640 0.0000
# 2 32.2618 68.5667 1.6360 0.0000 4.4006 0.0000
# 3 8.5171 1.6360 61.3036 0.0000 11.3371 0.0000
# 4 0.0000 0.0000 0.0000 5.1397 0.0000 -4.3616
# 5 10.4640 4.4006 11.3371 0.0000 15.4249 0.0000
# 6 0.0000 0.0000 0.0000 -4.3616 0.0000 32.8422
#
#
#
# Elastic Compliance Matrix: (Units=1/GPa)
#
#
# Indices 1 2 3 4 5 6 
#
# 1 0.014073 -0.006131 -0.000404 0.000000 -0.007501 0.000000
# 2 -0.006131 0.017538 0.000625 0.000000 -0.001304 0.000000
# 3 -0.000404 0.000625 0.018903 0.000000 -0.013798 0.000000
# 4 0.000000 0.000000 0.000000 0.219277 0.000000 0.029121
# 5 -0.007501 -0.001304 -0.013798 0.000000 0.080431 0.000000
# 6 0.000000 0.000000 0.000000 0.029121 0.000000 0.034316
#
#
# Mechanical properties :
#
#
# Convention : Reuss Voigt Hill
#
# Bulk Modulus (GPa) = 25.84402 33.95931 29.90167
# Shear Modulus (GPa) = 12.21727 22.57398 17.39562
#
# Velocity S-wave (km/s) = 2.43807 3.31408 2.90923
# Velocity P-wave (km/s) = 4.52765 5.58271 5.08263
#
# Compressibility (1/GPa) = 0.03869366
#
# Stress axis : x y z
#
# Youngs Moduli (GPa) = 71.05791 57.02026 52.90042
#
# Poissons Ratio (x) = 0.34957 0.02140
# Poissons Ratio (y) = 0.43562 -0.03305
# Poissons Ratio (z) = 0.02874 -0.03563
#
# Static dielectric constant tensor:
#      x y z
#    x 1.739740 0.000000 0.001120 
#    y 0.000000 1.728980 0.000000 
#    z 0.001120 0.000000 1.761270 
# 
# From -- ./inp_files/238752.got.cif
#   From: 2010.05.17/outbox.cif.g08.bks.cpg/sg15_120_cif.got.tgz:238752.got - 2010.06.03 18:47:42.
