data_PCOD9256071
_publ_section_title
;
Structure prediction by ZEFSAII (Michael W. Deem and Ramdas Pophale) SiO2 
 PCOD9256071
Probable space group: C 2/C
;
_chemical_formula_sum "Si O2"
_cell_formula_units_Z 64
_cell_length_a 21.563593
_cell_length_b 11.230790
_cell_length_c 12.734632
_cell_angle_alpha 90.000000
_cell_angle_beta 85.596166
_cell_angle_gamma 90.000000
_cell_volume 3074.919366
_symmetry_space_group_name_H-M "C 2/C"
_symmetry_group_IT_number 15
_symmetry_cell_setting 'monoclinic'
loop_
_space_group_symop_operation_xyz
x,y,z
-x,y,1/2-z
-x,-y,-z
x,-y,1/2+z
1/2+x,1/2+y,z
1/2-x,1/2+y,1/2-z
1/2-x,1/2-y,-z
1/2+x,1/2-y,1/2+z
loop_
_atom_site_type_symbol
_atom_site_label
_atom_site_fract_x
_atom_site_fract_y
_atom_site_fract_z
Si Si1 0.070035 0.311401 0.768882
Si Si2 0.411703 0.579524 0.970678
Si Si3 0.640439 0.171235 0.450316
Si Si4 0.249014 0.790419 0.292801
Si Si5 0.159669 0.872858 0.603721
Si Si6 0.678130 0.231118 0.101601
Si Si7 0.463421 0.554932 0.656975
Si Si8 0.730583 0.988714 0.050070
O O1 0.087693 0.365992 0.877796
O O2 0.123122 0.334413 0.676367
O O3 0.000000 0.341992 0.750000
O O4 0.071913 0.168285 0.790264
O O5 0.387962 0.481554 0.888414
O O6 0.361742 0.685012 0.969903
O O7 0.481587 0.609640 0.924214
O O8 0.420237 0.522709 0.085662
O O9 0.695140 0.230548 0.371932
O O10 0.626433 0.272226 0.537264
O O11 0.668179 0.060603 0.506689
O O12 0.307204 0.699585 0.305783
O O13 0.220580 0.799853 0.181327
O O14 0.262963 0.920230 0.339532
O O15 0.214594 0.934116 0.527881
O O16 0.776451 0.370875 0.946741
O O17 0.500000 0.495142 0.750000
#
# Coordination Sequence:
#
# PCOD9256071 Si02
#       8
#     8   8   8   8   8   8   8   8
#     4  10  17  34  57  78 100 138 193 235 271 327
#     4  11  21  32  60  86 112 142 191 235 300 324
#     4   8  15  33  56  73 101 146 184 224 258 326
#     4   8  18  33  53  78 108 148 185 217 264 334
#     4   9  17  33  54  78 109 149 181 215 274 341
#     4  11  21  32  54  86 111 143 184 233 278 335
#     4  10  20  37  56  85 107 141 195 251 276 337
#     4   9  19  34  52  78 112 143 184 222 272 333
#
# _framework density 20.813554
#
# number of rings (size 3 to 8) (size 9 to 14) (size 15 to 20)
#    0.000    2.500    3.750    1.500    1.750    0.500 
#    0.000    0.625    0.000    0.750    0.000    0.000 
#    0.000    0.000    0.000    0.000    0.000    0.000 
#
# Total GULP energy -178317.397464 kJ/mol
# GULP energy per Si atom -5572.418671 kJ/mol
# Density = 2.076618 g / cm^3
# Si number density = 20.813554 Si / 1000 Ang^3
#
#
#
# Elastic Constant Matrix: (Units=GPa)
#
#
# Indices 1 2 3 4 5 6 
#
# 1 74.6060 15.0714 30.5451 0.0000 21.0118 0.0000
# 2 15.0714 68.9865 22.6459 0.0000 14.5654 0.0000
# 3 30.5451 22.6459 63.9872 0.0000 30.6404 0.0000
# 4 0.0000 0.0000 0.0000 13.2750 0.0000 4.5931
# 5 21.0118 14.5654 30.6404 0.0000 37.2633 0.0000
# 6 0.0000 0.0000 0.0000 4.5931 0.0000 25.7044
#
#
#
# Elastic Compliance Matrix: (Units=1/GPa)
#
#
# Indices 1 2 3 4 5 6 
#
# 1 0.017227 -0.000916 -0.005640 0.000000 -0.004718 0.000000
# 2 -0.000916 0.016616 -0.004257 0.000000 -0.002478 0.000000
# 3 -0.005640 -0.004257 0.028878 0.000000 -0.018901 0.000000
# 4 0.000000 0.000000 0.000000 0.080294 0.000000 -0.014348
# 5 -0.004718 -0.002478 -0.018901 0.000000 0.046007 0.000000
# 6 0.000000 0.000000 0.000000 -0.014348 0.000000 0.041468
#
#
# Mechanical properties :
#
#
# Convention : Reuss Voigt Hill
#
# Bulk Modulus (GPa) = 24.33355 38.23386 31.28370
# Shear Modulus (GPa) = 18.81021 24.53634 21.67328
#
# Velocity S-wave (km/s) = 3.00950 3.43718 3.23043
# Velocity P-wave (km/s) = 4.87778 5.84482 5.38306
#
# Compressibility (1/GPa) = 0.04109553
#
# Stress axis : x y z
#
# Youngs Moduli (GPa) = 58.04952 60.18191 34.62862
#
# Poissons Ratio (x) = 0.05512 0.19530
# Poissons Ratio (y) = 0.05317 0.14741
# Poissons Ratio (z) = 0.32739 0.25618
#
# Static dielectric constant tensor:
#      x y z
#    x 1.795740 0.000000 0.004480 
#    y 0.000000 1.758870 0.000000 
#    z 0.004480 0.000000 1.802200 
# 
# From -- ./inp_files/173276.got.cif
#   From: 2010.05.17/outbox.cif.g08.bks.cpg/sg15_87_cif.got.tgz:173276.got - 2010.06.03 18:47:42.
