data_PCOD9256456
_publ_section_title
;
Structure prediction by ZEFSAII (Michael W. Deem and Ramdas Pophale) SiO2 
 PCOD9256456
Probable space group: C 2/C
;
_chemical_formula_sum "Si O2"
_cell_formula_units_Z 40
_cell_length_a 23.183059
_cell_length_b 7.517263
_cell_length_c 18.023139
_cell_angle_alpha 90.000000
_cell_angle_beta 143.204511
_cell_angle_gamma 90.000000
_cell_volume 1881.304693
_symmetry_space_group_name_H-M "C 2/C"
_symmetry_group_IT_number 15
_symmetry_cell_setting 'monoclinic'
loop_
_space_group_symop_operation_xyz
x,y,z
-x,y,1/2-z
-x,-y,-z
x,-y,1/2+z
1/2+x,1/2+y,z
1/2-x,1/2+y,1/2-z
1/2-x,1/2-y,-z
1/2+x,1/2-y,1/2+z
loop_
_atom_site_type_symbol
_atom_site_label
_atom_site_fract_x
_atom_site_fract_y
_atom_site_fract_z
Si Si1 0.595772 0.987283 0.199399
Si Si2 0.597659 0.538434 0.055743
Si Si3 0.380407 0.868380 0.942626
Si Si4 0.963742 0.154109 0.795199
Si Si5 0.686786 0.631141 0.296075
O O1 0.623681 0.055155 0.145365
O O2 0.587802 0.158618 0.242924
O O3 0.664877 0.831298 0.299179
O O4 0.488293 0.905321 0.081315
O O5 0.636389 0.344154 0.076638
O O6 0.663675 0.635586 0.183332
O O7 0.500000 0.500000 0.000000
O O8 0.558704 0.646111 0.945782
O O9 0.296134 0.936438 0.909675
O O10 0.000000 0.129123 0.750000
O O11 0.888869 0.001380 0.743604
#
# Coordination Sequence:
#
# PCOD9256456 Si02
#       5
#     8   8   8   8   8
#     4  11  21  38  64  95 125 159 205 259 310 364
#     4  10  17  39  61  87 122 158 200 255 304 349
#     4  11  20  37  68  98 123 152 208 270 307 359
#     4  11  24  43  61  87 131 173 203 252 316 371
#     4  11  22  40  67  95 122 162 210 260 310 361
#
# _framework density 21.261838999999998
#
# number of rings (size 3 to 8) (size 9 to 14) (size 15 to 20)
#    0.000    1.200    8.000    2.400    0.000    0.800 
#    3.600    2.000    0.000    0.000    0.000    0.000 
#    0.000    0.000    0.000    0.000    0.000    0.000 
#
# Total GULP energy -111696.448051 kJ/mol
# GULP energy per Si atom -5584.822403 kJ/mol
# Density = 2.121345 g / cm^3
# Si number density = 21.261839 Si / 1000 Ang^3
#
#
#
# Elastic Constant Matrix: (Units=GPa)
#
#
# Indices 1 2 3 4 5 6 
#
# 1 131.1744 41.5132 39.4695 0.0000 16.7976 0.0000
# 2 41.5132 113.8418 7.8071 0.0000 10.9024 0.0000
# 3 39.4695 7.8071 24.7857 0.0000 12.7779 0.0000
# 4 0.0000 0.0000 0.0000 11.8814 0.0000 6.8583
# 5 16.7976 10.9024 12.7779 0.0000 32.8299 0.0000
# 6 0.0000 0.0000 0.0000 6.8583 0.0000 19.9250
#
#
#
# Elastic Compliance Matrix: (Units=1/GPa)
#
#
# Indices 1 2 3 4 5 6 
#
# 1 0.016772 -0.004594 -0.027052 0.000000 0.003473 0.000000
# 2 -0.004594 0.010384 0.005767 0.000000 -0.003343 0.000000
# 3 -0.027052 0.005767 0.094402 0.000000 -0.024816 0.000000
# 4 0.000000 0.000000 0.000000 0.105034 0.000000 -0.036154
# 5 0.003473 -0.003343 -0.024816 0.000000 0.039452 0.000000
# 6 0.000000 0.000000 0.000000 -0.036154 0.000000 0.062633
#
#
# Mechanical properties :
#
#
# Convention : Reuss Voigt Hill
#
# Bulk Modulus (GPa) = 14.32641 49.70905 32.01773
# Shear Modulus (GPa) = 12.38543 24.99473 18.69008
#
# Velocity S-wave (km/s) = 2.41616 3.43237 2.96808
# Velocity P-wave (km/s) = 3.81268 6.25608 5.18049
#
# Compressibility (1/GPa) = 0.06980114
#
# Stress axis : x y z
#
# Youngs Moduli (GPa) = 59.62216 96.30391 10.59304
#
# Poissons Ratio (x) = 0.44237 0.28657
# Poissons Ratio (y) = 0.27388 -0.06110
# Poissons Ratio (z) = 1.61291 -0.55543
#
# Static dielectric constant tensor:
#      x y z
#    x 1.650970 0.000000 -0.029780 
#    y 0.000000 1.553970 0.000000 
#    z -0.029780 0.000000 1.786970 
# 
# From -- ./inp_files/214143.got.cif
#   From: 2010.05.17/outbox.cif.g08.bks.cpg/sg15_108_cif.got.tgz:214143.got - 2010.06.03 18:47:42.
