data_PCOD9256188
_publ_section_title
;
Structure prediction by ZEFSAII (Michael W. Deem and Ramdas Pophale) SiO2 
 PCOD9256188
Probable space group: C 2/C
;
_chemical_formula_sum "Si O2"
_cell_formula_units_Z 64
_cell_length_a 10.571666
_cell_length_b 29.002424
_cell_length_c 19.744669
_cell_angle_alpha 90.000000
_cell_angle_beta 149.553276
_cell_angle_gamma 90.000000
_cell_volume 3067.680846
_symmetry_space_group_name_H-M "C 2/C"
_symmetry_group_IT_number 15
_symmetry_cell_setting 'monoclinic'
loop_
_space_group_symop_operation_xyz
x,y,z
-x,y,1/2-z
-x,-y,-z
x,-y,1/2+z
1/2+x,1/2+y,z
1/2-x,1/2+y,1/2-z
1/2-x,1/2-y,-z
1/2+x,1/2-y,1/2+z
loop_
_atom_site_type_symbol
_atom_site_label
_atom_site_fract_x
_atom_site_fract_y
_atom_site_fract_z
Si Si1 0.108036 0.524336 0.868450
Si Si2 0.822372 0.456296 0.475768
Si Si3 0.300687 0.210489 0.382630
Si Si4 0.221477 0.887533 0.793835
Si Si5 0.269521 0.434313 0.205442
Si Si6 0.047233 0.342680 0.112445
Si Si7 0.211246 0.813913 0.145305
Si Si8 0.587969 0.612981 0.483167
O O1 0.000000 0.502169 0.750000
O O2 0.879756 0.552403 0.796739
O O3 0.192926 0.491841 0.968996
O O4 0.317466 0.562830 0.949360
O O5 0.556738 0.430080 0.355828
O O6 0.795782 0.471370 0.383816
O O7 0.068464 0.425814 0.598196
O O8 0.330551 0.164416 0.351471
O O9 0.438144 0.197001 0.515453
O O10 0.385100 0.261643 0.402476
O O11 0.000000 0.213889 0.250000
O O12 0.000000 0.891814 0.750000
O O13 0.118248 0.892744 0.670027
O O14 0.162245 0.386394 0.127702
O O15 0.253403 0.327080 0.260713
O O16 0.811953 0.363333 0.043966
O O17 0.500000 0.814886 0.250000
O O18 0.056482 0.851426 0.030734
#
# Coordination Sequence:
#
# PCOD9256188 Si02
#       8
#     8   8   8   8   8   8   8   8
#     4  11  24  43  64  88 124 161 209 263 318 374
#     4  11  24  41  63  93 117 165 214 260 307 371
#     4  10  18  30  53  90 123 150 200 256 311 362
#     4  11  20  37  60  89 124 157 198 263 314 350
#     4  10  22  42  64  88 121 161 218 255 306 377
#     4  10  17  35  55  81 121 158 194 250 305 365
#     4   9  20  29  54  90 121 159 198 247 317 375
#     4  10  19  35  57  83 120 158 195 252 314 362
#
# _framework density 20.862666000000001
#
# number of rings (size 3 to 8) (size 9 to 14) (size 15 to 20)
#    0.000    1.750    3.750    3.000    3.500    2.000 
#    2.250    0.000    0.000    0.750    3.250    0.000 
#    0.000    0.000    0.000    0.000    0.000    0.000 
#
# Total GULP energy -178308.865707 kJ/mol
# GULP energy per Si atom -5572.152053 kJ/mol
# Density = 2.081518 g / cm^3
# Si number density = 20.862666 Si / 1000 Ang^3
#
#
#
# Elastic Constant Matrix: (Units=GPa)
#
#
# Indices 1 2 3 4 5 6 
#
# 1 27.6874 19.5407 35.7762 0.0156 -19.5843 0.0071
# 2 19.5407 103.8221 54.7062 0.0171 -14.5833 0.0086
# 3 35.7762 54.7062 140.4448 0.0586 -33.6678 0.0117
# 4 0.0156 0.0171 0.0586 16.7264 0.0010 -10.4628
# 5 -19.5843 -14.5833 -33.6678 0.0010 34.9048 -0.0007
# 6 0.0071 0.0086 0.0117 -10.4628 -0.0007 9.1183
#
#
#
# Elastic Compliance Matrix: (Units=1/GPa)
#
#
# Indices 1 2 3 4 5 6 
#
# 1 0.072703 -0.004412 -0.009709 -0.000195 0.029583 -0.000261
# 2 -0.004412 0.012399 -0.003977 0.000012 -0.001131 0.000011
# 3 -0.009709 -0.003977 0.012277 -0.000116 0.004733 -0.000137
# 4 -0.000195 0.000012 -0.000116 0.211835 -0.000217 0.243071
# 5 0.029583 -0.001131 0.004733 -0.000217 0.049341 -0.000273
# 6 -0.000261 0.000011 -0.000137 0.243071 -0.000273 0.388584
#
#
# Mechanical properties :
#
#
# Convention : Reuss Voigt Hill
#
# Bulk Modulus (GPa) = 16.34461 54.66672 35.50566
# Shear Modulus (GPa) = 6.22100 22.94531 14.58315
#
# Velocity S-wave (km/s) = 1.72869 3.31996 2.64674
# Velocity P-wave (km/s) = 3.44033 6.39970 5.13771
#
# Compressibility (1/GPa) = 0.06118226
#
# Stress axis : x y z
#
# Youngs Moduli (GPa) = 13.75462 80.65242 81.45116
#
# Poissons Ratio (x) = 0.35584 0.79085
# Poissons Ratio (y) = 0.06069 0.32392
# Poissons Ratio (z) = 0.13355 0.32075
#
# Static dielectric constant tensor:
#      x y z
#    x 1.800170 0.000000 -0.011180 
#    y 0.000000 1.784440 0.000000 
#    z -0.011180 0.000000 1.769480 
# 
# From -- ./inp_files/241016.got.cif
#   From: 2010.05.17/outbox.cif.g08.bks.cpg/sg15_121_cif.got.tgz:241016.got - 2010.06.03 18:47:42.
