data_PCOD9256246
_publ_section_title
;
Structure prediction by ZEFSAII (Michael W. Deem and Ramdas Pophale) SiO2 
 PCOD9256246
Probable space group: C 2/C
;
_chemical_formula_sum "Si O2"
_cell_formula_units_Z 64
_cell_length_a 7.034061
_cell_length_b 15.718568
_cell_length_c 25.608425
_cell_angle_alpha 90.000000
_cell_angle_beta 101.072517
_cell_angle_gamma 90.000000
_cell_volume 2778.697995
_symmetry_space_group_name_H-M "C 2/C"
_symmetry_group_IT_number 15
_symmetry_cell_setting 'monoclinic'
loop_
_space_group_symop_operation_xyz
x,y,z
-x,y,1/2-z
-x,-y,-z
x,-y,1/2+z
1/2+x,1/2+y,z
1/2-x,1/2+y,1/2-z
1/2-x,1/2-y,-z
1/2+x,1/2-y,1/2+z
loop_
_atom_site_type_symbol
_atom_site_label
_atom_site_fract_x
_atom_site_fract_y
_atom_site_fract_z
Si Si1 0.983948 0.859353 0.565057
Si Si2 0.562909 0.742119 0.698626
Si Si3 0.208621 0.060607 0.733878
Si Si4 0.592679 0.851822 0.602771
Si Si5 0.563362 0.316746 0.450395
Si Si6 0.446752 0.528478 0.879245
Si Si7 0.835287 0.304916 0.383020
Si Si8 0.118075 0.524271 0.651009
O O1 0.020170 0.833414 0.507683
O O2 0.067597 0.785976 0.606922
O O3 0.761356 0.865017 0.569965
O O4 0.070468 0.951013 0.582138
O O5 0.500000 0.784230 0.750000
O O6 0.699419 0.662403 0.721468
O O7 0.652461 0.804374 0.660231
O O8 0.638309 0.706303 0.837999
O O9 0.201293 0.019953 0.676409
O O10 0.354447 0.026889 0.785192
O O11 0.000000 0.044530 0.750000
O O12 0.461385 0.781328 0.567825
O O13 0.520399 0.943038 0.619137
O O14 0.434386 0.382423 0.409432
O O15 0.776147 0.334406 0.438597
O O16 0.662358 0.523397 0.863512
O O17 0.958679 0.381989 0.366909
#
# Coordination Sequence:
#
# PCOD9256246 Si02
#       8
#     8   8   8   8   8   8   8   8
#     4  11  22  33  53  87 113 136 184 246 270 295
#     4  10  17  35  63  75 102 150 183 209 276 348
#     4   9  13  30  56  77  96 134 183 216 257 322
#     4  10  21  35  55  82 110 143 185 223 277 327
#     4  10  19  38  57  74 110 156 187 216 271 334
#     4   9  17  32  54  81 103 139 190 225 258 323
#     4  10  19  35  56  80 109 141 185 226 263 324
#     4   9  17  32  56  78 107 144 176 221 272 332
#
# _framework density 23.03237
#
# number of rings (size 3 to 8) (size 9 to 14) (size 15 to 20)
#    0.000    2.250    6.250    1.125    0.000    1.000 
#    0.000    5.000    2.750    0.000    0.000    0.000 
#    0.000    0.000    0.000    0.000    0.000    0.000 
#
# Total GULP energy -178466.520509 kJ/mol
# GULP energy per Si atom -5577.078766 kJ/mol
# Density = 2.297995 g / cm^3
# Si number density = 23.032370 Si / 1000 Ang^3
#
#
#
# Elastic Constant Matrix: (Units=GPa)
#
#
# Indices 1 2 3 4 5 6 
#
# 1 42.9952 6.0275 17.4381 0.0000 -5.6277 0.0000
# 2 6.0275 112.8741 32.2817 0.0000 16.4226 0.0000
# 3 17.4381 32.2817 133.7126 0.0000 -8.8755 0.0000
# 4 0.0000 0.0000 0.0000 34.5631 0.0000 0.5364
# 5 -5.6277 16.4226 -8.8755 0.0000 21.6406 0.0000
# 6 0.0000 0.0000 0.0000 0.5364 0.0000 16.4195
#
#
#
# Elastic Compliance Matrix: (Units=1/GPa)
#
#
# Indices 1 2 3 4 5 6 
#
# 1 0.025382 -0.001648 -0.002458 0.000000 0.006843 0.000000
# 2 -0.001648 0.011380 -0.003222 0.000000 -0.010386 0.000000
# 3 -0.002458 -0.003222 0.008940 0.000000 0.005473 0.000000
# 4 0.000000 0.000000 0.000000 0.028947 0.000000 -0.000946
# 5 0.006843 -0.010386 0.005473 0.000000 0.058115 0.000000
# 6 0.000000 0.000000 0.000000 -0.000946 0.000000 0.060934
#
#
# Mechanical properties :
#
#
# Convention : Reuss Voigt Hill
#
# Bulk Modulus (GPa) = 32.20979 44.56406 38.38693
# Shear Modulus (GPa) = 22.86195 30.11361 26.48778
#
# Velocity S-wave (km/s) = 3.15398 3.61979 3.39488
# Velocity P-wave (km/s) = 5.22287 6.07132 5.66301
#
# Compressibility (1/GPa) = 0.03104646
#
# Stress axis : x y z
#
# Youngs Moduli (GPa) = 39.39775 87.87352 111.85188
#
# Poissons Ratio (x) = 0.14482 0.27494
# Poissons Ratio (y) = 0.06493 0.36037
# Poissons Ratio (z) = 0.09684 0.28312
#
# Static dielectric constant tensor:
#      x y z
#    x 1.938550 0.000000 0.012920 
#    y 0.000000 1.881830 0.000000 
#    z 0.012920 0.000000 1.865950 
# 
# From -- ./inp_files/264695.got.cif
#   From: 2010.05.17/outbox.cif.g08.bks.cpg/sg15_133_cif.got.tgz:264695.got - 2010.06.03 18:47:42.
