data_PCOD9256762
_publ_section_title
;
Structure prediction by ZEFSAII (Michael W. Deem and Ramdas Pophale) SiO2 
 PCOD9256762
Probable space group: C 2/C
;
_chemical_formula_sum "Si O2"
_cell_formula_units_Z 56
_cell_length_a 21.425591
_cell_length_b 17.376526
_cell_length_c 25.444774
_cell_angle_alpha 90.000000
_cell_angle_beta 20.781383
_cell_angle_gamma 90.000000
_cell_volume 3361.103466
_symmetry_space_group_name_H-M "C 2/C"
_symmetry_group_IT_number 15
_symmetry_cell_setting 'monoclinic'
loop_
_space_group_symop_operation_xyz
x,y,z
-x,y,1/2-z
-x,-y,-z
x,-y,1/2+z
1/2+x,1/2+y,z
1/2-x,1/2+y,1/2-z
1/2-x,1/2-y,-z
1/2+x,1/2-y,1/2+z
loop_
_atom_site_type_symbol
_atom_site_label
_atom_site_fract_x
_atom_site_fract_y
_atom_site_fract_z
Si Si1 0.897895 0.189161 0.641377
Si Si2 0.492742 0.599627 0.403657
Si Si3 0.260838 0.654677 0.194598
Si Si4 0.950154 0.224551 0.346779
Si Si5 0.275511 0.457202 0.296448
Si Si6 0.658821 0.865838 0.231716
Si Si7 0.962601 0.509177 0.116207
O O1 0.859630 0.273217 0.694448
O O2 0.851200 0.125790 0.722051
O O3 0.762312 0.172388 0.699684
O O4 0.092814 0.176699 0.464096
O O5 0.627477 0.632253 0.341318
O O6 0.477470 0.660111 0.368958
O O7 0.569222 0.519259 0.323586
O O8 0.307070 0.594116 0.579323
O O9 0.143207 0.579871 0.274416
O O10 0.750000 0.250000 0.500000
O O11 0.000000 0.195933 0.250000
O O12 0.064040 0.298752 0.274226
O O13 0.155181 0.482602 0.341221
O O14 0.147935 0.462872 0.446947
O O15 0.530585 0.932712 0.353721
#
# Coordination Sequence:
#
# PCOD9256762 Si02
#       7
#     8   8   8   8   8   8   8
#     4  10  18  29  48  71  99 129 162 199 247 302
#     4  10  20  34  48  66  96 131 166 209 251 289
#     4  10  18  29  48  71  99 129 162 199 247 302
#     4  12  24  36  50  72  98 134 178 216 246 286
#     4   9  18  30  47  69  93 125 162 199 247 304
#     4  10  20  34  48  66  96 131 166 209 251 289
#     4   9  18  30  47  69  93 125 162 199 247 304
#
# _framework density 16.661194999999999
#
# number of rings (size 3 to 8) (size 9 to 14) (size 15 to 20)
#    0.000    2.000    2.857    1.714    2.000    4.571 
#    0.000    0.000    0.000    0.000    0.000    0.000 
#    0.000    2.286    0.000    0.143    0.000    0.143 
#
# Total GULP energy -156150.904821 kJ/mol
# GULP energy per Si atom -5576.818029 kJ/mol
# Density = 1.662327 g / cm^3
# Si number density = 16.661195 Si / 1000 Ang^3
#
#
#
# Elastic Constant Matrix: (Units=GPa)
#
#
# Indices 1 2 3 4 5 6 
#
# 1 26.2602 4.7770 3.7000 0.0010 6.2538 0.0031
# 2 4.7770 61.6710 2.6940 0.0104 6.4198 0.0065
# 3 3.7000 2.6940 45.1975 -0.0094 13.9349 0.0149
# 4 0.0010 0.0104 -0.0094 34.2031 0.0070 3.3441
# 5 6.2538 6.4198 13.9349 0.0070 21.4855 -0.0058
# 6 0.0031 0.0065 0.0149 3.3441 -0.0058 12.2102
#
#
#
# Elastic Compliance Matrix: (Units=1/GPa)
#
#
# Indices 1 2 3 4 5 6 
#
# 1 0.041159 -0.001995 0.000324 0.000003 -0.011594 -0.000016
# 2 -0.001995 0.016849 0.000665 -0.000003 -0.004885 -0.000011
# 3 0.000324 0.000665 0.027685 0.000016 -0.018249 -0.000047
# 4 0.000003 -0.000003 0.000016 0.030042 -0.000022 -0.008228
# 5 -0.011594 -0.004885 -0.018249 -0.000022 0.063213 0.000064
# 6 -0.000016 -0.000011 -0.000047 -0.008228 0.000064 0.084152
#
#
# Mechanical properties :
#
#
# Convention : Reuss Voigt Hill
#
# Bulk Modulus (GPa) = 11.95009 17.27452 14.61230
# Shear Modulus (GPa) = 17.06449 21.71028 19.38739
#
# Velocity S-wave (km/s) = 3.20379 3.61369 3.41490
# Velocity P-wave (km/s) = 4.56877 5.27279 4.93335
#
# Compressibility (1/GPa) = 0.08368141
#
# Stress axis : x y z
#
# Youngs Moduli (GPa) = 24.29605 59.35026 36.12021
#
# Poissons Ratio (x) = 0.11843 -0.01171
# Poissons Ratio (y) = 0.04848 -0.02403
# Poissons Ratio (z) = -0.00788 -0.03948
#
# Static dielectric constant tensor:
#      x y z
#    x 1.523220 -0.000010 0.005180 
#    y -0.000010 1.551660 0.000020 
#    z 0.005180 0.000020 1.563590 
# 
# From -- ./inp_files/55634.got.cif
#   From: 2010.05.17/outbox.cif.g08.bks.cpg/sg15_28_cif.got.tgz:55634.got - 2010.06.03 18:47:42.
