data_PCOD9256328
_publ_section_title
;
Structure prediction by ZEFSAII (Michael W. Deem and Ramdas Pophale) SiO2 
 PCOD9256328
Probable space group: C 2/C
;
_chemical_formula_sum "Si O2"
_cell_formula_units_Z 44
_cell_length_a 19.257198
_cell_length_b 20.370265
_cell_length_c 9.000414
_cell_angle_alpha 90.000000
_cell_angle_beta 139.942210
_cell_angle_gamma 90.000000
_cell_volume 2272.172295
_symmetry_space_group_name_H-M "C 2/C"
_symmetry_group_IT_number 15
_symmetry_cell_setting 'monoclinic'
loop_
_space_group_symop_operation_xyz
x,y,z
-x,y,1/2-z
-x,-y,-z
x,-y,1/2+z
1/2+x,1/2+y,z
1/2-x,1/2+y,1/2-z
1/2-x,1/2-y,-z
1/2+x,1/2-y,1/2+z
loop_
_atom_site_type_symbol
_atom_site_label
_atom_site_fract_x
_atom_site_fract_y
_atom_site_fract_z
Si Si1 0.123095 0.000717 0.392150
Si Si2 0.188902 0.714874 0.159658
Si Si3 0.452734 0.371364 0.369973
Si Si4 0.809333 0.912003 0.754632
Si Si5 0.500000 0.299851 0.750000
Si Si6 0.612674 0.767188 0.859892
O O1 0.108560 0.939380 0.253703
O O2 0.199898 0.973034 0.647266
O O3 0.000000 0.013917 0.250000
O O4 0.174939 0.060016 0.385105
O O5 0.228951 0.647649 0.150679
O O6 0.288043 0.764379 0.362285
O O7 0.138507 0.700267 0.242169
O O8 0.103568 0.751939 0.914965
O O9 0.572553 0.384745 0.507599
O O10 0.473226 0.345942 0.568577
O O11 0.398854 0.309325 0.204700
O O12 0.500000 0.788058 0.750000
#
# Coordination Sequence:
#
# PCOD9256328 Si02
#       6
#     8   8   8   8   4   8
#     4  10  20  34  56  90 118 157 189 242 311 354
#     4  10  21  37  57  84 123 156 198 237 297 355
#     4  10  18  33  55  86 124 145 188 237 311 351
#     4  11  21  35  59  84 122 152 194 241 298 360
#     4  10  24  34  56  90 120 162 190 246 286 354
#     4  10  17  36  60  84 115 158 192 239 300 362
#
# _framework density 19.364727999999999
#
# number of rings (size 3 to 8) (size 9 to 14) (size 15 to 20)
#    0.000    1.818    3.636    2.727    3.818    0.727 
#    0.000    0.000    0.000    1.091    0.000    0.000 
#    0.000    0.000    0.000    0.000    0.000    0.000 
#
# Total GULP energy -122650.602877 kJ/mol
# GULP energy per Si atom -5575.027403 kJ/mol
# Density = 1.932065 g / cm^3
# Si number density = 19.364728 Si / 1000 Ang^3
#
#
#
# Elastic Constant Matrix: (Units=GPa)
#
#
# Indices 1 2 3 4 5 6 
#
# 1 88.8929 35.9695 -0.7905 0.0000 -0.0444 0.0000
# 2 35.9695 72.4341 -6.8719 0.0000 -4.6028 0.0000
# 3 -0.7905 -6.8719 37.0579 0.0000 4.0395 0.0000
# 4 0.0000 0.0000 0.0000 0.9368 0.0000 -9.9677
# 5 -0.0444 -4.6028 4.0395 0.0000 27.8062 0.0000
# 6 0.0000 0.0000 0.0000 -9.9677 0.0000 49.0680
#
#
#
# Elastic Compliance Matrix: (Units=1/GPa)
#
#
# Indices 1 2 3 4 5 6 
#
# 1 0.014145 -0.007177 -0.000917 0.000000 -0.001032 0.000000
# 2 -0.007177 0.017802 0.002874 0.000000 0.002518 0.000000
# 3 -0.000917 0.002874 0.027888 0.000000 -0.003577 0.000000
# 4 0.000000 0.000000 0.000000 -0.919072 0.000000 -0.186700
# 5 -0.001032 0.002518 -0.003577 0.000000 0.036898 0.000000
# 6 0.000000 0.000000 0.000000 -0.186700 0.000000 -0.017546
#
#
# Mechanical properties :
#
#
# Convention : Reuss Voigt Hill
#
# Bulk Modulus (GPa) = 20.24464 28.33323 24.28894
# Shear Modulus (GPa) = -6.15021 26.90071 10.37525
#
# Velocity S-wave (km/s) = -1.78406 3.73119 2.31721
# Velocity P-wave (km/s) = 2.49665 5.76415 4.44177
#
# Compressibility (1/GPa) = 0.04939579
#
# Stress axis : x y z
#
# Youngs Moduli (GPa) = 70.69755 56.17328 35.85763
#
# Poissons Ratio (x) = 0.40313 0.03287
# Poissons Ratio (y) = 0.50737 -0.10304
# Poissons Ratio (z) = 0.06480 -0.16142
#
# Static dielectric constant tensor:
#      x y z
#    x 1.770270 0.000000 -0.069740 
#    y 0.000000 1.723420 0.000000 
#    z -0.069740 0.000000 1.761960 
# 
# From -- ./inp_files/49907.got.cif
#   From: 2010.05.17/outbox.cif.g08.bks.cpg/sg15_25_cif.got.tgz:49907.got - 2010.06.03 18:47:42.
