data_PCOD9256847
_publ_section_title
;
Structure prediction by ZEFSAII (Michael W. Deem and Ramdas Pophale) SiO2 
 PCOD9256847
Probable space group: C 2/C
;
_chemical_formula_sum "Si O2"
_cell_formula_units_Z 36
_cell_length_a 18.622442
_cell_length_b 15.343660
_cell_length_c 5.033842
_cell_angle_alpha 90.000000
_cell_angle_beta 76.670449
_cell_angle_gamma 90.000000
_cell_volume 1399.602914
_symmetry_space_group_name_H-M "C 2/C"
_symmetry_group_IT_number 15
_symmetry_cell_setting 'monoclinic'
loop_
_space_group_symop_operation_xyz
x,y,z
-x,y,1/2-z
-x,-y,-z
x,-y,1/2+z
1/2+x,1/2+y,z
1/2-x,1/2+y,1/2-z
1/2-x,1/2-y,-z
1/2+x,1/2-y,1/2+z
loop_
_atom_site_type_symbol
_atom_site_label
_atom_site_fract_x
_atom_site_fract_y
_atom_site_fract_z
Si Si1 0.205237 0.689443 0.754918
Si Si2 0.075907 0.676027 0.530116
Si Si3 0.500000 0.062605 0.250000
Si Si4 0.166726 0.869526 0.012369
Si Si5 0.581031 0.385775 0.575257
O O1 0.250000 0.750000 0.500000
O O2 0.145691 0.640328 0.628836
O O3 0.166447 0.763861 0.969073
O O4 0.256457 0.627435 0.890960
O O5 0.080407 0.780425 0.534408
O O6 0.000000 0.659452 0.750000
O O7 0.933301 0.628797 0.242757
O O8 0.500000 0.000000 0.500000
O O9 0.144861 0.903271 0.739413
O O10 0.105557 0.910970 0.259125
O O11 0.500000 0.410781 0.750000
#
# Coordination Sequence:
#
# PCOD9256847 Si02
#       5
#     8   8   4   8   8
#     4  10  19  32  49  73 102 125 164 214 260 321
#     4  10  22  35  55  71  95 137 178 223 266 307
#     4  12  26  42  52  72  96 130 192 250 268 292
#     4  10  18  30  42  69  99 127 160 212 242 305
#     4  10  20  29  48  71  97 131 173 206 247 304
#
# _framework density 25.721578999999998
#
# number of rings (size 3 to 8) (size 9 to 14) (size 15 to 20)
#    0.000    1.778    5.556    0.667    9.333    0.000 
#    0.000    0.000    0.000    0.000    0.000    0.000 
#    0.000    0.000    0.000    0.000    0.000   33.333 
#
# Total GULP energy -100446.159423 kJ/mol
# GULP energy per Si atom -5580.342190 kJ/mol
# Density = 2.566304 g / cm^3
# Si number density = 25.721579 Si / 1000 Ang^3
#
#
#
# Elastic Constant Matrix: (Units=GPa)
#
#
# Indices 1 2 3 4 5 6 
#
# 1 124.9149 16.3132 57.6325 0.0000 32.5457 0.0000
# 2 16.3132 85.8581 15.6870 0.0000 7.8413 0.0000
# 3 57.6325 15.6870 169.8735 0.0000 21.3530 0.0000
# 4 0.0000 0.0000 0.0000 1.6712 0.0000 1.0937
# 5 32.5457 7.8413 21.3530 0.0000 65.6614 0.0000
# 6 0.0000 0.0000 0.0000 1.0937 0.0000 8.2278
#
#
#
# Elastic Compliance Matrix: (Units=1/GPa)
#
#
# Indices 1 2 3 4 5 6 
#
# 1 0.010604 -0.001092 -0.002974 0.000000 -0.004158 0.000000
# 2 -0.001092 0.012037 -0.000655 0.000000 -0.000683 0.000000
# 3 -0.002974 -0.000655 0.007049 0.000000 -0.000740 0.000000
# 4 0.000000 0.000000 0.000000 0.655387 0.000000 -0.087116
# 5 -0.004158 -0.000683 -0.000740 0.000000 0.017613 0.000000
# 6 0.000000 0.000000 0.000000 -0.087116 0.000000 0.133119
#
#
# Mechanical properties :
#
#
# Convention : Reuss Voigt Hill
#
# Bulk Modulus (GPa) = 49.38807 62.21244 55.80025
# Shear Modulus (GPa) = 5.86855 34.51299 20.19077
#
# Velocity S-wave (km/s) = 1.51212 3.66702 2.80478
# Velocity P-wave (km/s) = 4.72138 6.49375 5.67715
#
# Compressibility (1/GPa) = 0.02024780
#
# Stress axis : x y z
#
# Youngs Moduli (GPa) = 94.30846 83.07952 141.85941
#
# Poissons Ratio (x) = 0.09069 0.42188
# Poissons Ratio (y) = 0.10294 0.09296
# Poissons Ratio (z) = 0.28047 0.05444
#
# Static dielectric constant tensor:
#      x y z
#    x 2.150790 0.000000 -0.054590 
#    y 0.000000 2.081540 0.000000 
#    z -0.054590 0.000000 2.149450 
# 
# From -- ./inp_files/10079.got.cif
#   From: 2010.05.17/outbox.cif.g08.bks.cpg/sg15_6_cif.got.tgz:10079.got - 2010.06.03 18:47:42.
