data_PCOD9256484
_publ_section_title
;
Structure prediction by ZEFSAII (Michael W. Deem and Ramdas Pophale) SiO2 
 PCOD9256484
Probable space group: C 2/C
;
_chemical_formula_sum "Si O2"
_cell_formula_units_Z 48
_cell_length_a 10.599363
_cell_length_b 14.680377
_cell_length_c 12.265553
_cell_angle_alpha 90.000000
_cell_angle_beta 75.142857
_cell_angle_gamma 90.000000
_cell_volume 1844.746033
_symmetry_space_group_name_H-M "C 2/C"
_symmetry_group_IT_number 15
_symmetry_cell_setting 'monoclinic'
loop_
_space_group_symop_operation_xyz
x,y,z
-x,y,1/2-z
-x,-y,-z
x,-y,1/2+z
1/2+x,1/2+y,z
1/2-x,1/2+y,1/2-z
1/2-x,1/2-y,-z
1/2+x,1/2-y,1/2+z
loop_
_atom_site_type_symbol
_atom_site_label
_atom_site_fract_x
_atom_site_fract_y
_atom_site_fract_z
Si Si1 0.306717 0.932935 0.829516
Si Si2 0.546090 0.811688 0.359986
Si Si3 0.814432 0.880199 0.236779
Si Si4 0.302061 0.525557 0.941262
Si Si5 0.871138 0.821368 0.994400
Si Si6 0.572208 0.085192 0.404071
O O1 0.329778 0.877015 0.713058
O O2 0.445063 0.936771 0.861241
O O3 0.258402 0.033449 0.804605
O O4 0.209395 0.911016 0.950126
O O5 0.500000 0.843360 0.250000
O O6 0.700894 0.819579 0.318075
O O7 0.490228 0.712308 0.394818
O O8 0.474355 0.860291 0.479304
O O9 0.879364 0.925881 0.328275
O O10 0.884625 0.827855 0.122883
O O11 0.348619 0.425038 0.961851
O O12 0.157079 0.500189 0.927048
O O13 0.750000 0.750000 0.000000
#
# Coordination Sequence:
#
# PCOD9256484 Si02
#       6
#     8   8   8   8   8   8
#     4   9  18  26  46  81 109 135 177 225 276 338
#     4  12  21  32  53  80 116 148 182 236 292 332
#     4  10  21  32  53  82 115 149 188 230 285 343
#     4  10  18  31  49  75 118 149 183 229 286 340
#     4  11  21  34  50  88 117 144 193 241 284 335
#     4  10  18  24  45  75 107 139 174 219 279 339
#
# _framework density 26.019839999999999
#
# number of rings (size 3 to 8) (size 9 to 14) (size 15 to 20)
#    0.000    1.667    5.000    1.500    9.333    0.000 
#    0.000    0.000    0.000    2.000   21.667    0.000 
#    0.000    0.000    0.000    0.000    0.000    0.000 
#
# Total GULP energy -133783.459897 kJ/mol
# GULP energy per Si atom -5574.310829 kJ/mol
# Density = 2.596062 g / cm^3
# Si number density = 26.019840 Si / 1000 Ang^3
#
#
#
# Elastic Constant Matrix: (Units=GPa)
#
#
# Indices 1 2 3 4 5 6 
#
# 1 32.8591 13.7618 27.1466 0.0000 -5.1673 0.0000
# 2 13.7618 39.2331 48.2579 0.0000 2.4795 0.0000
# 3 27.1466 48.2579 289.4440 0.0000 -2.7850 0.0000
# 4 0.0000 0.0000 0.0000 51.6805 0.0000 -4.0113
# 5 -5.1673 2.4795 -2.7850 0.0000 27.0298 0.0000
# 6 0.0000 0.0000 0.0000 -4.0113 0.0000 22.9656
#
#
#
# Elastic Compliance Matrix: (Units=1/GPa)
#
#
# Indices 1 2 3 4 5 6 
#
# 1 0.037981 -0.012023 -0.001479 0.000000 0.008211 0.000000
# 2 -0.012023 0.036204 -0.004967 0.000000 -0.006131 0.000000
# 3 -0.001479 -0.004967 0.004428 0.000000 0.000629 0.000000
# 4 0.000000 0.000000 0.000000 0.019616 0.000000 0.003426
# 5 0.008211 -0.006131 0.000629 0.000000 0.039193 0.000000
# 6 0.000000 0.000000 0.000000 0.003426 0.000000 0.044142
#
#
# Mechanical properties :
#
#
# Convention : Reuss Voigt Hill
#
# Bulk Modulus (GPa) = 23.99538 59.98544 41.99041
# Shear Modulus (GPa) = 21.51531 38.49316 30.00424
#
# Velocity S-wave (km/s) = 2.87867 3.85044 3.39946
# Velocity P-wave (km/s) = 4.50455 6.54764 5.61973
#
# Compressibility (1/GPa) = 0.04167470
#
# Stress axis : x y z
#
# Youngs Moduli (GPa) = 26.32880 27.62162 225.84335
#
# Poissons Ratio (x) = 0.33209 0.33395
# Poissons Ratio (y) = 0.31655 1.12187
# Poissons Ratio (z) = 0.03893 0.13721
#
# Static dielectric constant tensor:
#      x y z
#    x 2.213040 0.000000 0.049430 
#    y 0.000000 2.149760 0.000000 
#    z 0.049430 0.000000 2.122700 
# 
# From -- ./inp_files/96179.got.cif
#   From: 2010.05.17/outbox.cif.g08.bks.cpg/sg15_49_cif.got.tgz:96179.got - 2010.06.03 18:47:42.
