data_PCOD9256270
_publ_section_title
;
Structure prediction by ZEFSAII (Michael W. Deem and Ramdas Pophale) SiO2 
 PCOD9256270
Probable space group: C 2/C
;
_chemical_formula_sum "Si O2"
_cell_formula_units_Z 40
_cell_length_a 19.143701
_cell_length_b 14.663920
_cell_length_c 12.445288
_cell_angle_alpha 90.000000
_cell_angle_beta 33.376378
_cell_angle_gamma 90.000000
_cell_volume 1921.991210
_symmetry_space_group_name_H-M "C 2/C"
_symmetry_group_IT_number 15
_symmetry_cell_setting 'monoclinic'
loop_
_space_group_symop_operation_xyz
x,y,z
-x,y,1/2-z
-x,-y,-z
x,-y,1/2+z
1/2+x,1/2+y,z
1/2-x,1/2+y,1/2-z
1/2-x,1/2-y,-z
1/2+x,1/2-y,1/2+z
loop_
_atom_site_type_symbol
_atom_site_label
_atom_site_fract_x
_atom_site_fract_y
_atom_site_fract_z
Si Si1 0.850267 0.713617 0.961337
Si Si2 0.518749 0.078018 0.060710
Si Si3 0.344147 0.228207 0.216496
Si Si4 0.685822 0.996324 0.506824
Si Si5 0.138872 0.123796 0.618025
O O1 0.839228 0.602707 0.976094
O O2 0.000000 0.735492 0.750000
O O3 0.750000 0.750000 0.000000
O O4 0.821957 0.746521 0.119609
O O5 0.477220 0.173334 0.063313
O O6 0.414140 0.051122 0.284036
O O7 0.655718 0.060561 0.937196
O O8 0.500000 0.000000 0.000000
O O9 0.232686 0.162971 0.405823
O O10 0.349030 0.310805 0.293874
O O11 0.818354 0.974248 0.392347
O O12 0.000000 0.125151 0.750000
#
# Coordination Sequence:
#
# PCOD9256270 Si02
#       5
#     8   8   8   8   8
#     4  12  26  45  69  99 137 175 223 274 340 411
#     4  10  17  35  67  88 123 160 218 265 315 388
#     4  10  23  40  65  97 132 173 219 276 329 395
#     4  10  21  39  62  96 121 172 216 267 326 393
#     4  10  24  40  64  96 134 172 222 276 333 389
#
# _framework density 20.811751000000001
#
# number of rings (size 3 to 8) (size 9 to 14) (size 15 to 20)
#    0.000    1.600    4.000    0.000   11.200    2.400 
#    0.000    1.000    0.000    0.000    0.000    0.000 
#    0.000    0.000    0.000    0.000    0.000    0.000 
#
# Total GULP energy -111495.422591 kJ/mol
# GULP energy per Si atom -5574.771130 kJ/mol
# Density = 2.076438 g / cm^3
# Si number density = 20.811751 Si / 1000 Ang^3
#
#
#
# Elastic Constant Matrix: (Units=GPa)
#
#
# Indices 1 2 3 4 5 6 
#
# 1 189.3464 25.8385 69.9492 0.0000 -2.3308 0.0000
# 2 25.8385 26.9782 10.0656 0.0000 -5.5767 0.0000
# 3 69.9492 10.0656 64.0051 0.0000 0.8945 0.0000
# 4 0.0000 0.0000 0.0000 13.7843 0.0000 -6.3812
# 5 -2.3308 -5.5767 0.8945 0.0000 45.3641 0.0000
# 6 0.0000 0.0000 0.0000 -6.3812 0.0000 31.5747
#
#
#
# Elastic Compliance Matrix: (Units=1/GPa)
#
#
# Indices 1 2 3 4 5 6 
#
# 1 0.009594 -0.005607 -0.009603 0.000000 -0.000007 0.000000
# 2 -0.005607 0.043805 -0.000832 0.000000 0.005113 0.000000
# 3 -0.009603 -0.000832 0.026265 0.000000 -0.001114 0.000000
# 4 0.000000 0.000000 0.000000 0.080034 0.000000 0.016175
# 5 -0.000007 0.005113 -0.001114 0.000000 0.022694 0.000000
# 6 0.000000 0.000000 0.000000 0.016175 0.000000 0.034940
#
#
# Mechanical properties :
#
#
# Convention : Reuss Voigt Hill
#
# Bulk Modulus (GPa) = 21.01777 54.67070 37.84423
# Shear Modulus (GPa) = 18.84820 29.77637 24.31228
#
# Velocity S-wave (km/s) = 3.01267 3.78663 3.42160
# Velocity P-wave (km/s) = 4.71407 6.74123 5.81664
#
# Compressibility (1/GPa) = 0.04757879
#
# Stress axis : x y z
#
# Youngs Moduli (GPa) = 104.23112 22.82847 38.07317
#
# Poissons Ratio (x) = 0.12801 0.36562
# Poissons Ratio (y) = 0.58445 0.03169
# Poissons Ratio (z) = 1.00095 0.01900
#
# Static dielectric constant tensor:
#      x y z
#    x 1.790540 0.000000 -0.039360 
#    y 0.000000 1.745770 0.000000 
#    z -0.039360 0.000000 1.769950 
# 
# From -- ./inp_files/96018.got.cif
#   From: 2010.05.17/outbox.cif.g08.bks.cpg/sg15_49_cif.got.tgz:96018.got - 2010.06.03 18:47:42.
