data_PCOD9256349
_publ_section_title
;
Structure prediction by ZEFSAII (Michael W. Deem and Ramdas Pophale) SiO2 
 PCOD9256349
Probable space group: C 2/C
;
_chemical_formula_sum "Si O2"
_cell_formula_units_Z 56
_cell_length_a 19.094056
_cell_length_b 23.647452
_cell_length_c 10.637356
_cell_angle_alpha 90.000000
_cell_angle_beta 145.858471
_cell_angle_gamma 90.000000
_cell_volume 2695.653777
_symmetry_space_group_name_H-M "C 2/C"
_symmetry_group_IT_number 15
_symmetry_cell_setting 'monoclinic'
loop_
_space_group_symop_operation_xyz
x,y,z
-x,y,1/2-z
-x,-y,-z
x,-y,1/2+z
1/2+x,1/2+y,z
1/2-x,1/2+y,1/2-z
1/2-x,1/2-y,-z
1/2+x,1/2-y,1/2+z
loop_
_atom_site_type_symbol
_atom_site_label
_atom_site_fract_x
_atom_site_fract_y
_atom_site_fract_z
Si Si1 0.000000 0.376024 0.250000
Si Si2 0.127868 0.969924 0.726691
Si Si3 0.747807 0.196647 0.153560
Si Si4 0.282632 0.328335 0.413041
Si Si5 0.362921 0.386940 0.990235
Si Si6 0.327514 0.960516 0.649124
Si Si7 0.414911 0.073586 0.886207
Si Si8 0.500000 0.600390 0.250000
O O1 0.965204 0.413925 0.318677
O O2 0.114797 0.335631 0.459819
O O3 0.154154 0.925390 0.658224
O O4 0.089713 0.938155 0.798644
O O5 0.000000 0.000000 0.500000
O O6 0.245799 0.010896 0.918104
O O7 0.735582 0.263643 0.151032
O O8 0.833715 0.174337 0.393176
O O9 0.796754 0.178803 0.086803
O O10 0.170801 0.371824 0.215885
O O11 0.405469 0.357701 0.538655
O O12 0.260254 0.410554 0.932258
O O13 0.500000 0.393606 0.250000
O O14 0.343038 0.013925 0.768002
O O15 0.466972 0.936253 0.848026
#
# Coordination Sequence:
#
# PCOD9256349 Si02
#       8
#     4   8   8   8   8   8   8   4
#     4  10  17  36  62  90 122 160 205 264 312 372
#     4  12  23  38  61  92 124 163 206 254 307 375
#     4  10  20  38  63  94 119 159 214 258 311 368
#     4  10  21  37  63  93 122 161 209 268 304 362
#     4  12  23  41  64  89 126 168 208 257 315 376
#     4  11  22  38  59  90 125 164 197 255 313 382
#     4  10  21  36  58  89 128 160 201 254 318 373
#     4  12  21  40  62  94 126 156 209 264 308 356
#
# _framework density 20.774180999999999
#
# number of rings (size 3 to 8) (size 9 to 14) (size 15 to 20)
#    0.000    1.143    5.714    2.143    0.000    0.000 
#    0.000    0.000    3.143    1.714    0.000    0.000 
#    0.000    0.000    0.000    0.000    0.000    0.000 
#
# Total GULP energy -156314.213211 kJ/mol
# GULP energy per Si atom -5582.650472 kJ/mol
# Density = 2.072690 g / cm^3
# Si number density = 20.774181 Si / 1000 Ang^3
#
#
#
# Elastic Constant Matrix: (Units=GPa)
#
#
# Indices 1 2 3 4 5 6 
#
# 1 30.6608 8.7455 13.1843 0.0000 -0.7045 0.0000
# 2 8.7455 115.1773 49.9109 0.0000 0.7479 0.0000
# 3 13.1843 49.9109 144.2201 0.0000 12.8182 0.0000
# 4 0.0000 0.0000 0.0000 32.3483 0.0000 -3.5264
# 5 -0.7045 0.7479 12.8182 0.0000 23.1282 0.0000
# 6 0.0000 0.0000 0.0000 -3.5264 0.0000 17.2155
#
#
#
# Elastic Compliance Matrix: (Units=1/GPa)
#
#
# Indices 1 2 3 4 5 6 
#
# 1 0.034315 -0.001364 -0.002905 0.000000 0.002699 0.000000
# 2 -0.001364 0.010333 -0.003595 0.000000 0.001617 0.000000
# 3 -0.002905 -0.003595 0.008878 0.000000 -0.004893 0.000000
# 4 0.000000 0.000000 0.000000 0.031620 0.000000 0.006477
# 5 0.002699 0.001617 -0.004893 0.000000 0.045979 0.000000
# 6 0.000000 0.000000 0.000000 0.006477 0.000000 0.059414
#
#
# Mechanical properties :
#
#
# Convention : Reuss Voigt Hill
#
# Bulk Modulus (GPa) = 26.45604 48.19328 37.32466
# Shear Modulus (GPa) = 22.84489 29.08621 25.96555
#
# Velocity S-wave (km/s) = 3.31974 3.74587 3.53922
# Velocity P-wave (km/s) = 5.23993 6.47748 5.89129
#
# Compressibility (1/GPa) = 0.03779855
#
# Stress axis : x y z
#
# Youngs Moduli (GPa) = 29.14160 96.77507 112.63255
#
# Poissons Ratio (x) = 0.13203 0.32717
# Poissons Ratio (y) = 0.03976 0.40492
# Poissons Ratio (z) = 0.08465 0.34791
#
# Static dielectric constant tensor:
#      x y z
#    x 1.532940 0.000000 -0.051080 
#    y 0.000000 1.750810 0.000000 
#    z -0.051080 0.000000 1.774240 
# 
# From -- ./inp_files/114968.got.cif
#   From: 2010.05.17/outbox.cif.g08.bks.cpg/sg15_58_cif.got.tgz:114968.got - 2010.06.03 18:47:42.
