data_PCOD9256562
_publ_section_title
;
Structure prediction by ZEFSAII (Michael W. Deem and Ramdas Pophale) SiO2 
 PCOD9256562
Probable space group: C 2/C
;
_chemical_formula_sum "Si O2"
_cell_formula_units_Z 56
_cell_length_a 19.541823
_cell_length_b 12.850108
_cell_length_c 10.875334
_cell_angle_alpha 90.000000
_cell_angle_beta 49.279859
_cell_angle_gamma 90.000000
_cell_volume 2069.804196
_symmetry_space_group_name_H-M "C 2/C"
_symmetry_group_IT_number 15
_symmetry_cell_setting 'monoclinic'
loop_
_space_group_symop_operation_xyz
x,y,z
-x,y,1/2-z
-x,-y,-z
x,-y,1/2+z
1/2+x,1/2+y,z
1/2-x,1/2+y,1/2-z
1/2-x,1/2-y,-z
1/2+x,1/2-y,1/2+z
loop_
_atom_site_type_symbol
_atom_site_label
_atom_site_fract_x
_atom_site_fract_y
_atom_site_fract_z
Si Si1 0.106033 0.849734 0.647646
Si Si2 0.158627 0.814744 0.844880
Si Si3 0.302091 0.361707 0.447972
Si Si4 0.800866 0.132380 0.683442
Si Si5 0.390742 0.897778 0.384169
Si Si6 0.045211 0.766719 0.354491
Si Si7 0.901407 0.542899 0.149280
O O1 0.136510 0.877611 0.748919
O O2 0.127160 0.725181 0.613917
O O3 0.102938 0.808836 0.401878
O O4 0.000000 0.867402 0.750000
O O5 0.223849 0.717010 0.749536
O O6 0.204596 0.880987 0.899608
O O7 0.059804 0.770615 0.997201
O O8 0.250000 0.250000 0.500000
O O9 0.277344 0.413451 0.345990
O O10 0.409034 0.337935 0.302439
O O11 0.832091 0.085664 0.518031
O O12 0.640414 0.034139 0.698262
O O13 0.500000 0.906723 0.250000
O O14 0.363619 0.932496 0.555375
O O15 0.079206 0.649403 0.299999
O O16 0.000000 0.500000 0.000000
#
# Coordination Sequence:
#
# PCOD9256562 Si02
#       7
#     8   8   8   8   8   8   8
#     4  11  17  30  43  61  89 120 146 183 217 251
#     4  11  18  27  47  62  79 120 160 171 216 262
#     4   8  17  30  42  60  82 113 152 183 207 253
#     4   9  19  31  42  61  86 117 150 183 215 255
#     4   9  17  27  39  58  83 110 147 173 206 257
#     4  10  18  31  46  60  94 120 144 180 221 245
#     4  10  18  28  41  61  84 114 149 172 209 264
#
# _framework density 27.055700999999999
#
# number of rings (size 3 to 8) (size 9 to 14) (size 15 to 20)
#    0.857    1.429    2.857    2.571    0.000    4.571 
#    0.000    0.000    0.000    0.000    0.000    0.000 
#    0.000    0.000    0.000   16.714    0.571    0.000 
#
# Total GULP energy -156165.814714 kJ/mol
# GULP energy per Si atom -5577.350525 kJ/mol
# Density = 2.699412 g / cm^3
# Si number density = 27.055701 Si / 1000 Ang^3
#
#
#
# Elastic Constant Matrix: (Units=GPa)
#
#
# Indices 1 2 3 4 5 6 
#
# 1 148.5393 20.3583 76.2302 0.0000 11.9533 0.0000
# 2 20.3583 79.2407 11.8947 0.0000 4.2263 0.0000
# 3 76.2302 11.8947 177.1912 0.0000 28.4737 0.0000
# 4 0.0000 0.0000 0.0000 7.3845 0.0000 -16.2487
# 5 11.9533 4.2263 28.4737 0.0000 76.5707 0.0000
# 6 0.0000 0.0000 0.0000 -16.2487 0.0000 9.7752
#
#
#
# Elastic Compliance Matrix: (Units=1/GPa)
#
#
# Indices 1 2 3 4 5 6 
#
# 1 0.008867 -0.001726 -0.003714 0.000000 0.000092 0.000000
# 2 -0.001726 0.013096 -0.000068 0.000000 -0.000428 0.000000
# 3 -0.003714 -0.000068 0.007607 0.000000 -0.002245 0.000000
# 4 0.000000 0.000000 0.000000 -0.050956 0.000000 -0.084701
# 5 0.000092 -0.000428 -0.002245 0.000000 0.013904 0.000000
# 6 0.000000 0.000000 0.000000 -0.084701 0.000000 -0.038494
#
#
# Mechanical properties :
#
#
# Convention : Reuss Voigt Hill
#
# Bulk Modulus (GPa) = 53.89249 69.10417 61.49833
# Shear Modulus (GPa) = -173.75558 38.51194 -67.62182
#
# Velocity S-wave (km/s) = -8.02252 3.77693 -5.00478
# Velocity P-wave (km/s) = 8.11493 6.67961 3.25845
#
# Compressibility (1/GPa) = 0.01855546
#
# Stress axis : x y z
#
# Youngs Moduli (GPa) = 112.77501 76.35835 131.46358
#
# Poissons Ratio (x) = 0.13176 0.48822
# Poissons Ratio (y) = 0.19460 0.00893
# Poissons Ratio (z) = 0.41882 0.00519
#
# Static dielectric constant tensor:
#      x y z
#    x 2.236290 0.000000 0.328610 
#    y 0.000000 2.207920 0.000000 
#    z 0.328610 0.000000 2.769230 
# 
# From -- ./inp_files/105627.got.cif
#   From: 2010.05.17/outbox.cif.g08.bks.cpg/sg15_53_cif.got.tgz:105627.got - 2010.06.03 18:47:42.
