data_PCOD9256450
_publ_section_title
;
Structure prediction by ZEFSAII (Michael W. Deem and Ramdas Pophale) SiO2 
 PCOD9256450
Probable space group: C 2/C
;
_chemical_formula_sum "Si O2"
_cell_formula_units_Z 52
_cell_length_a 9.831369
_cell_length_b 10.338179
_cell_length_c 27.766494
_cell_angle_alpha 90.000000
_cell_angle_beta 131.586205
_cell_angle_gamma 90.000000
_cell_volume 2110.844572
_symmetry_space_group_name_H-M "C 2/C"
_symmetry_group_IT_number 15
_symmetry_cell_setting 'monoclinic'
loop_
_space_group_symop_operation_xyz
x,y,z
-x,y,1/2-z
-x,-y,-z
x,-y,1/2+z
1/2+x,1/2+y,z
1/2-x,1/2+y,1/2-z
1/2-x,1/2-y,-z
1/2+x,1/2-y,1/2+z
loop_
_atom_site_type_symbol
_atom_site_label
_atom_site_fract_x
_atom_site_fract_y
_atom_site_fract_z
Si Si1 0.327992 0.522232 0.060235
Si Si2 0.075421 0.561912 0.365307
Si Si3 0.000000 0.423492 0.250000
Si Si4 0.340822 0.036062 0.887668
Si Si5 0.500000 0.413980 0.250000
Si Si6 0.750000 0.750000 0.000000
Si Si7 0.607817 0.668966 0.673427
Si Si8 0.060962 0.186854 0.049329
O O1 0.191695 0.550174 0.072591
O O2 0.241825 0.401235 0.012861
O O3 0.502643 0.456099 0.128113
O O4 0.389948 0.635542 0.039300
O O5 0.288563 0.574159 0.408895
O O6 0.992986 0.513361 0.295827
O O7 0.010497 0.471646 0.392446
O O8 0.004180 0.702902 0.367894
O O9 0.816208 0.338976 0.206907
O O10 0.347786 0.185398 0.905816
O O11 0.166510 0.009558 0.812604
O O12 0.413467 0.333877 0.273667
O O13 0.927062 0.785490 0.004434
#
# Coordination Sequence:
#
# PCOD9256450 Si02
#       8
#     8   8   4   8   4   4   8   8
#     4  10  21  41  65  91 122 163 208 261 316 372
#     4  12  23  39  63  89 132 166 202 262 301 372
#     4  12  25  37  60  92 124 171 205 240 318 368
#     4  10  23  38  59  91 124 167 205 252 314 371
#     4  10  17  39  54  82 130 157 203 248 298 366
#     4  10  20  42  70  92 116 166 212 262 332 364
#     4  11  22  39  59  92 123 164 208 248 306 378
#     4  11  22  41  66  89 123 158 211 264 313 377
#
# _framework density 24.634689000000002
#
# number of rings (size 3 to 8) (size 9 to 14) (size 15 to 20)
#    0.000    1.231    7.692    0.923    0.000    1.846 
#    0.000    3.077    0.000    5.538    0.000    0.000 
#    0.000    0.000    0.000    0.000    0.000    0.000 
#
# Total GULP energy -144765.145282 kJ/mol
# GULP energy per Si atom -5567.890203 kJ/mol
# Density = 2.457862 g / cm^3
# Si number density = 24.634689 Si / 1000 Ang^3
#
#
#
# Elastic Constant Matrix: (Units=GPa)
#
#
# Indices 1 2 3 4 5 6 
#
# 1 155.2019 47.1743 38.9997 0.0000 -27.6658 0.0000
# 2 47.1743 51.1168 12.3971 0.0000 -9.6918 0.0000
# 3 38.9997 12.3971 59.0425 0.0000 -12.4461 0.0000
# 4 0.0000 0.0000 0.0000 13.3064 0.0000 1.0163
# 5 -27.6658 -9.6918 -12.4461 0.0000 51.2706 0.0000
# 6 0.0000 0.0000 0.0000 1.0163 0.0000 52.1288
#
#
#
# Elastic Compliance Matrix: (Units=1/GPa)
#
#
# Indices 1 2 3 4 5 6 
#
# 1 0.010623 -0.008089 -0.004671 0.000000 0.003069 0.000000
# 2 -0.008089 0.027219 -0.000219 0.000000 0.000727 0.000000
# 3 -0.004671 -0.000219 0.020582 0.000000 0.002434 0.000000
# 4 0.000000 0.000000 0.000000 0.075264 0.000000 -0.001467
# 5 0.003069 0.000727 0.002434 0.000000 0.021889 0.000000
# 6 0.000000 0.000000 0.000000 -0.001467 0.000000 0.019212
#
#
# Mechanical properties :
#
#
# Convention : Reuss Voigt Hill
#
# Bulk Modulus (GPa) = 30.80209 51.38928 41.09568
# Shear Modulus (GPa) = 23.63313 34.46050 29.04682
#
# Velocity S-wave (km/s) = 3.10069 3.74419 3.43753
# Velocity P-wave (km/s) = 5.03485 6.29268 5.69857
#
# Compressibility (1/GPa) = 0.03246533
#
# Stress axis : x y z
#
# Youngs Moduli (GPa) = 94.13803 36.73928 48.58693
#
# Poissons Ratio (x) = 0.29717 0.22697
# Poissons Ratio (y) = 0.76144 0.01064
# Poissons Ratio (z) = 0.43975 0.00805
#
# Static dielectric constant tensor:
#      x y z
#    x 1.955870 0.000000 0.080680 
#    y 0.000000 1.931520 0.000000 
#    z 0.080680 0.000000 2.607060 
# 
# From -- ./inp_files/287605.got.cif
#   From: 2010.05.17/outbox.cif.g08.bks.cpg/sg15_144_cif.got.tgz:287605.got - 2010.06.03 18:47:42.
