data_PCOD9256351
_publ_section_title
;
Structure prediction by ZEFSAII (Michael W. Deem and Ramdas Pophale) SiO2 
 PCOD9256351
Probable space group: C 2/C
;
_chemical_formula_sum "Si O2"
_cell_formula_units_Z 56
_cell_length_a 14.468395
_cell_length_b 12.122456
_cell_length_c 18.168926
_cell_angle_alpha 90.000000
_cell_angle_beta 115.140554
_cell_angle_gamma 90.000000
_cell_volume 2884.812250
_symmetry_space_group_name_H-M "C 2/C"
_symmetry_group_IT_number 15
_symmetry_cell_setting 'monoclinic'
loop_
_space_group_symop_operation_xyz
x,y,z
-x,y,1/2-z
-x,-y,-z
x,-y,1/2+z
1/2+x,1/2+y,z
1/2-x,1/2+y,1/2-z
1/2-x,1/2-y,-z
1/2+x,1/2-y,1/2+z
loop_
_atom_site_type_symbol
_atom_site_label
_atom_site_fract_x
_atom_site_fract_y
_atom_site_fract_z
Si Si1 0.261926 0.334053 0.694275
Si Si2 0.544100 0.172916 0.490229
Si Si3 0.256161 0.831745 0.071784
Si Si4 0.055828 0.763267 0.189372
Si Si5 0.655455 0.958440 0.523720
Si Si6 0.528145 0.384485 0.976016
Si Si7 0.447411 0.473939 0.809859
O O1 0.300455 0.227126 0.659353
O O2 0.166994 0.292917 0.712637
O O3 0.224483 0.413673 0.614299
O O4 0.343924 0.402664 0.768626
O O5 0.513276 0.205539 0.396867
O O6 0.449810 0.108768 0.497713
O O7 0.552090 0.289001 0.533752
O O8 0.636250 0.088111 0.524963
O O9 0.250000 0.750000 0.000000
O O10 0.308941 0.933490 0.047972
O O11 0.137188 0.852813 0.045457
O O12 0.000000 0.749757 0.250000
O O13 0.065968 0.895532 0.177840
O O14 0.525653 0.410313 0.889528
O O15 0.500000 0.500000 0.000000
O O16 0.500000 0.471844 0.750000
#
# Coordination Sequence:
#
# PCOD9256351 Si02
#       7
#     8   8   8   8   8   8   8
#     4  10  20  39  62  89 121 160 205 257 306 357
#     4  10  19  38  61  89 118 157 201 245 302 358
#     4  10  17  36  63  84 116 154 202 246 295 356
#     4  10  21  42  59  83 127 162 194 253 313 359
#     4   9  19  35  66  87 116 156 200 249 300 360
#     4  12  21  38  61  88 120 161 202 247 298 364
#     4  11  23  36  64  90 121 160 204 247 309 362
#
# _framework density 19.412008
#
# number of rings (size 3 to 8) (size 9 to 14) (size 15 to 20)
#    0.000    1.714    5.714    1.714    0.000    1.143 
#    5.143    0.714    0.000    0.000    0.000    0.000 
#    0.000    0.000    0.000    0.000    0.000    0.000 
#
# Total GULP energy -155884.039716 kJ/mol
# GULP energy per Si atom -5567.287133 kJ/mol
# Density = 1.936783 g / cm^3
# Si number density = 19.412008 Si / 1000 Ang^3
#
#
#
# Elastic Constant Matrix: (Units=GPa)
#
#
# Indices 1 2 3 4 5 6 
#
# 1 59.9493 29.4832 19.4327 0.0000 -24.1066 0.0000
# 2 29.4832 118.0415 15.7120 0.0000 -11.1526 0.0000
# 3 19.4327 15.7120 54.2294 0.0000 -21.7049 0.0000
# 4 0.0000 0.0000 0.0000 24.8500 0.0000 -1.5633
# 5 -24.1066 -11.1526 -21.7049 0.0000 31.3624 0.0000
# 6 0.0000 0.0000 0.0000 -1.5633 0.0000 38.4421
#
#
#
# Elastic Compliance Matrix: (Units=1/GPa)
#
#
# Indices 1 2 3 4 5 6 
#
# 1 0.026635 -0.004820 -0.000885 0.000000 0.018146 0.000000
# 2 -0.004820 0.009766 -0.001653 0.000000 -0.001376 0.000000
# 3 -0.000885 -0.001653 0.025904 0.000000 0.016659 0.000000
# 4 0.000000 0.000000 0.000000 0.040345 0.000000 0.001641
# 5 0.018146 -0.001376 0.016659 0.000000 0.056873 0.000000
# 6 0.000000 0.000000 0.000000 0.001641 0.000000 0.026080
#
#
# Mechanical properties :
#
#
# Convention : Reuss Voigt Hill
#
# Bulk Modulus (GPa) = 21.01362 40.16397 30.58880
# Shear Modulus (GPa) = 23.12867 30.10372 26.61619
#
# Velocity S-wave (km/s) = 3.45550 3.94226 3.70688
# Velocity P-wave (km/s) = 5.17390 6.43872 5.84065
#
# Compressibility (1/GPa) = 0.04758818
#
# Stress axis : x y z
#
# Youngs Moduli (GPa) = 37.54416 102.40069 38.60416
#
# Poissons Ratio (x) = 0.49361 0.03416
# Poissons Ratio (y) = 0.18098 0.06381
# Poissons Ratio (z) = 0.03323 0.16926
#
# Static dielectric constant tensor:
#      x y z
#    x 1.721430 0.000000 -0.007120 
#    y 0.000000 1.728520 0.000000 
#    z -0.007120 0.000000 1.641570 
# 
# From -- ./inp_files/204130.got.cif
#   From: 2010.05.17/outbox.cif.g08.bks.cpg/sg15_103_cif.got.tgz:204130.got - 2010.06.03 18:47:42.
