data_PCOD9256465
_publ_section_title
;
Structure prediction by ZEFSAII (Michael W. Deem and Ramdas Pophale) SiO2 
 PCOD9256465
Probable space group: C 2/C
;
_chemical_formula_sum "Si O2"
_cell_formula_units_Z 52
_cell_length_a 15.273824
_cell_length_b 19.985748
_cell_length_c 7.886739
_cell_angle_alpha 90.000000
_cell_angle_beta 76.265961
_cell_angle_gamma 90.000000
_cell_volume 2338.661913
_symmetry_space_group_name_H-M "C 2/C"
_symmetry_group_IT_number 15
_symmetry_cell_setting 'monoclinic'
loop_
_space_group_symop_operation_xyz
x,y,z
-x,y,1/2-z
-x,-y,-z
x,-y,1/2+z
1/2+x,1/2+y,z
1/2-x,1/2+y,1/2-z
1/2-x,1/2-y,-z
1/2+x,1/2-y,1/2+z
loop_
_atom_site_type_symbol
_atom_site_label
_atom_site_fract_x
_atom_site_fract_y
_atom_site_fract_z
Si Si1 0.935073 0.869108 0.636737
Si Si2 0.225994 0.806827 0.375972
Si Si3 0.500000 0.577914 0.750000
Si Si4 0.806555 0.056215 0.718471
Si Si5 0.340199 0.783484 0.864093
Si Si6 0.577952 0.212158 0.837543
Si Si7 0.252750 0.079693 0.375213
O O1 0.919532 0.791811 0.690335
O O2 0.837815 0.900809 0.679035
O O3 0.000000 0.897618 0.750000
O O4 0.970469 0.879701 0.428746
O O5 0.250000 0.750000 0.500000
O O6 0.189804 0.881725 0.414621
O O7 0.152879 0.769521 0.289971
O O8 0.325959 0.818609 0.254197
O O9 0.410533 0.539366 0.722709
O O10 0.741784 0.997896 0.678851
O O11 0.765759 0.081338 0.915291
O O12 0.318566 0.858237 0.808823
O O13 0.250000 0.750000 0.000000
O O14 0.421610 0.791390 0.958496
O O15 0.500000 0.185508 0.750000
#
# Coordination Sequence:
#
# PCOD9256465 Si02
#       7
#     8   8   4   8   8   8   8
#     4  10  21  35  58  84 124 163 199 239 302 357
#     4  11  23  39  61  91 122 159 207 253 300 363
#     4  10  24  38  52  90 128 164 202 246 280 384
#     4  11  25  37  57  87 124 160 203 245 300 365
#     4  10  17  40  59  80 117 156 193 246 304 350
#     4  10  20  38  62  88 113 158 203 254 313 359
#     4  11  22  37  58  84 119 165 199 240 306 364
#
# _framework density 22.234939000000001
#
# number of rings (size 3 to 8) (size 9 to 14) (size 15 to 20)
#    0.000    1.538    6.154    0.923    9.692    1.231 
#    0.000    0.000    0.000    0.923    0.000    0.000 
#    0.000    0.000    0.000    0.000    0.000    0.000 
#
# Total GULP energy -144872.701727 kJ/mol
# GULP energy per Si atom -5572.026990 kJ/mol
# Density = 2.218433 g / cm^3
# Si number density = 22.234939 Si / 1000 Ang^3
#
#
#
# Elastic Constant Matrix: (Units=GPa)
#
#
# Indices 1 2 3 4 5 6 
#
# 1 80.4962 25.5365 30.2749 0.0000 40.8000 0.0000
# 2 25.5365 132.5947 15.0134 0.0000 21.9938 0.0000
# 3 30.2749 15.0134 79.8779 0.0000 35.6459 0.0000
# 4 0.0000 0.0000 0.0000 78.9754 0.0000 -28.8944
# 5 40.8000 21.9938 35.6459 0.0000 38.9573 0.0000
# 6 0.0000 0.0000 0.0000 -28.8944 0.0000 68.0283
#
#
#
# Elastic Compliance Matrix: (Units=1/GPa)
#
#
# Indices 1 2 3 4 5 6 
#
# 1 0.027257 -0.000396 0.004027 0.000000 -0.032008 0.000000
# 2 -0.000396 0.008365 0.000845 0.000000 -0.005081 0.000000
# 3 0.004027 0.000845 0.021851 0.000000 -0.024689 0.000000
# 4 0.000000 0.000000 0.000000 0.014992 0.000000 0.006368
# 5 -0.032008 -0.005081 -0.024689 0.000000 0.084650 0.000000
# 6 0.000000 0.000000 0.000000 0.006368 0.000000 0.017404
#
#
# Mechanical properties :
#
#
# Convention : Reuss Voigt Hill
#
# Bulk Modulus (GPa) = 15.05417 48.29094 31.67256
# Shear Modulus (GPa) = 26.63682 52.00181 39.31932
#
# Velocity S-wave (km/s) = 3.46493 4.84130 4.20975
# Velocity P-wave (km/s) = 4.77418 7.28125 6.15668
#
# Compressibility (1/GPa) = 0.06642677
#
# Stress axis : x y z
#
# Youngs Moduli (GPa) = 36.68723 119.54275 45.76359
#
# Poissons Ratio (x) = 0.04737 -0.18430
# Poissons Ratio (y) = 0.01454 -0.03869
# Poissons Ratio (z) = -0.14775 -0.10107
#
# Static dielectric constant tensor:
#      x y z
#    x 1.840680 0.000000 -0.029020 
#    y 0.000000 1.909920 0.000000 
#    z -0.029020 0.000000 1.981750 
# 
# From -- ./inp_files/48564.got.cif
#   From: 2010.05.17/outbox.cif.g08.bks.cpg/sg15_25_cif.got.tgz:48564.got - 2010.06.03 18:47:42.
