data_PCOD9256911
_publ_section_title
;
Structure prediction by ZEFSAII (Michael W. Deem and Ramdas Pophale) SiO2 
 PCOD9256911
Probable space group: C 2/C
;
_chemical_formula_sum "Si O2"
_cell_formula_units_Z 64
_cell_length_a 22.517344
_cell_length_b 29.412822
_cell_length_c 8.333782
_cell_angle_alpha 90.000000
_cell_angle_beta 144.249502
_cell_angle_gamma 90.000000
_cell_volume 3224.777159
_symmetry_space_group_name_H-M "C 2/C"
_symmetry_group_IT_number 15
_symmetry_cell_setting 'monoclinic'
loop_
_space_group_symop_operation_xyz
x,y,z
-x,y,1/2-z
-x,-y,-z
x,-y,1/2+z
1/2+x,1/2+y,z
1/2-x,1/2+y,1/2-z
1/2-x,1/2-y,-z
1/2+x,1/2-y,1/2+z
loop_
_atom_site_type_symbol
_atom_site_label
_atom_site_fract_x
_atom_site_fract_y
_atom_site_fract_z
Si Si1 0.997757 0.317579 0.058462
Si Si2 0.674693 0.244942 0.980665
Si Si3 0.118914 0.837995 0.016582
Si Si4 0.245145 0.519246 0.471967
Si Si5 0.798569 0.069305 0.896748
Si Si6 0.398127 0.965120 0.117304
Si Si7 0.584487 0.102715 0.560547
Si Si8 0.767897 0.302600 0.584881
O O1 0.000000 0.334278 0.250000
O O2 0.058032 0.269905 0.191454
O O3 0.058795 0.346848 0.062497
O O4 0.878251 0.316348 0.756571
O O5 0.750000 0.250000 0.000000
O O6 0.671633 0.295130 0.047784
O O7 0.715796 0.204533 0.188300
O O8 0.131559 0.886245 0.954667
O O9 0.178923 0.834789 0.320254
O O10 0.000000 0.828250 0.750000
O O11 0.305548 0.549084 0.731787
O O12 0.303106 0.474793 0.526091
O O13 0.150213 0.502547 0.372324
O O14 0.191853 0.544765 0.207095
O O15 0.690191 0.091260 0.707635
O O16 0.500000 0.979139 0.250000
O O17 0.422248 0.924293 0.287889
O O18 0.500000 0.087802 0.250000
O O19 0.750000 0.250000 0.500000
#
# Coordination Sequence:
#
# PCOD9256911 Si02
#       8
#     8   8   8   8   8   8   8   8
#     4  10  20  35  55  83 119 159 196 233 282 343
#     4  10  20  36  60  90 123 155 190 235 285 344
#     4  11  22  40  61  84 113 153 200 246 294 343
#     4   9  20  35  53  76 106 147 188 231 293 354
#     4  10  21  38  58  81 110 145 189 244 295 351
#     4  10  18  30  48  74 109 146 182 226 277 345
#     4  11  21  31  49  82 116 149 189 230 280 345
#     4   9  19  37  58  82 116 158 195 235 283 341
#
# _framework density 19.846333999999999
#
# number of rings (size 3 to 8) (size 9 to 14) (size 15 to 20)
#    0.000    2.000    0.000    4.875    0.000    6.500 
#    0.000    5.000    0.000    0.000    0.000    0.000 
#    0.000    0.000    0.000    0.000    0.000    0.000 
#
# Total GULP energy -178187.826474 kJ/mol
# GULP energy per Si atom -5568.369577 kJ/mol
# Density = 1.980116 g / cm^3
# Si number density = 19.846334 Si / 1000 Ang^3
#
#
#
# Elastic Constant Matrix: (Units=GPa)
#
#
# Indices 1 2 3 4 5 6 
#
# 1 84.3424 27.5218 28.4898 0.0000 -11.7855 0.0000
# 2 27.5218 76.1012 16.0231 0.0000 -7.3658 0.0000
# 3 28.4898 16.0231 63.8999 0.0000 0.0059 0.0000
# 4 0.0000 0.0000 0.0000 16.0536 0.0000 -4.7075
# 5 -11.7855 -7.3658 0.0059 0.0000 17.0239 0.0000
# 6 0.0000 0.0000 0.0000 -4.7075 0.0000 16.1108
#
#
#
# Elastic Compliance Matrix: (Units=1/GPa)
#
#
# Indices 1 2 3 4 5 6 
#
# 1 0.016642 -0.003690 -0.006495 0.000000 0.009927 0.000000
# 2 -0.003690 0.015333 -0.002200 0.000000 0.004080 0.000000
# 3 -0.006495 -0.002200 0.019098 0.000000 -0.005455 0.000000
# 4 0.000000 0.000000 0.000000 0.068129 0.000000 0.019907
# 5 0.009927 0.004080 -0.005455 0.000000 0.067380 0.000000
# 6 0.000000 0.000000 0.000000 0.019907 0.000000 0.067887
#
#
# Mechanical properties :
#
#
# Convention : Reuss Voigt Hill
#
# Bulk Modulus (GPa) = 38.02048 40.93475 39.47762
# Shear Modulus (GPa) = 17.36074 19.99157 18.67616
#
# Velocity S-wave (km/s) = 2.96084 3.17727 3.07096
# Velocity P-wave (km/s) = 5.55768 5.84215 5.70169
#
# Compressibility (1/GPa) = 0.02630161
#
# Stress axis : x y z
#
# Youngs Moduli (GPa) = 60.09022 65.21868 52.36267
#
# Poissons Ratio (x) = 0.24066 0.34011
# Poissons Ratio (y) = 0.22173 0.11520
# Poissons Ratio (z) = 0.39030 0.14348
#
# Static dielectric constant tensor:
#      x y z
#    x 1.709400 0.000000 -0.074770 
#    y 0.000000 1.746860 0.000000 
#    z -0.074770 0.000000 1.821880 
# 
# From -- ./inp_files/64209.got.cif
#   From: 2010.05.17/outbox.cif.g08.bks.cpg/sg15_33_cif.got.tgz:64209.got - 2010.06.03 18:47:42.
