data_PCOD9256480
_publ_section_title
;
Structure prediction by ZEFSAII (Michael W. Deem and Ramdas Pophale) SiO2 
 PCOD9256480
Probable space group: C 2/C
;
_chemical_formula_sum "Si O2"
_cell_formula_units_Z 60
_cell_length_a 7.975521
_cell_length_b 19.929581
_cell_length_c 15.339371
_cell_angle_alpha 90.000000
_cell_angle_beta 85.641702
_cell_angle_gamma 90.000000
_cell_volume 2431.124084
_symmetry_space_group_name_H-M "C 2/C"
_symmetry_group_IT_number 15
_symmetry_cell_setting 'monoclinic'
loop_
_space_group_symop_operation_xyz
x,y,z
-x,y,1/2-z
-x,-y,-z
x,-y,1/2+z
1/2+x,1/2+y,z
1/2-x,1/2+y,1/2-z
1/2-x,1/2-y,-z
1/2+x,1/2-y,1/2+z
loop_
_atom_site_type_symbol
_atom_site_label
_atom_site_fract_x
_atom_site_fract_y
_atom_site_fract_z
Si Si1 0.545917 0.758361 0.576571
Si Si2 0.035172 0.681464 0.606848
Si Si3 0.194105 0.189398 0.160235
Si Si4 0.751395 0.138782 0.154322
Si Si5 0.906814 0.457354 0.127395
Si Si6 0.728446 0.486841 0.956456
Si Si7 0.500000 0.054205 0.250000
Si Si8 0.390584 0.371245 0.023756
O O1 0.530143 0.797921 0.486164
O O2 0.379863 0.778764 0.638532
O O3 0.709823 0.788908 0.615734
O O4 0.532249 0.679650 0.554493
O O5 0.066195 0.748493 0.659368
O O6 0.221636 0.653343 0.580003
O O7 0.925638 0.620893 0.648674
O O8 0.185056 0.149119 0.250356
O O9 0.151092 0.145998 0.075842
O O10 0.831066 0.080715 0.091179
O O11 0.569901 0.103719 0.174888
O O12 0.865840 0.504428 0.211194
O O13 0.093340 0.483921 0.090319
O O14 0.782991 0.468297 0.052204
O O15 0.603530 0.549988 0.957965
#
# Coordination Sequence:
#
# PCOD9256480 Si02
#       8
#     8   8   8   8   8   8   4   8
#     4   9  14  23  35  50  75 112 141 161 206 249
#     4   8  14  24  35  48  71 113 133 163 199 254
#     4   9  15  22  35  52  77 106 137 165 204 241
#     4  11  16  22  34  58  81 111 133 169 205 249
#     4   9  15  24  33  50  75 108 134 160 200 251
#     4   9  16  22  35  49  79 109 139 160 206 252
#     4  10  18  20  34  54  80 104 132 164 200 240
#     4   8  15  24  34  49  75 119 136 166 202 257
#
# _framework density 24.679943000000002
#
# number of rings (size 3 to 8) (size 9 to 14) (size 15 to 20)
#    0.000    2.933    2.667    2.400    3.733    0.000 
#    0.000    0.000    0.000    0.000    0.000    0.933 
#    0.000    0.000   36.267   52.667    0.000    0.800 
#
# Total GULP energy -167627.357609 kJ/mol
# GULP energy per Si atom -5587.578587 kJ/mol
# Density = 2.462377 g / cm^3
# Si number density = 24.679943 Si / 1000 Ang^3
#
#
#
# Elastic Constant Matrix: (Units=GPa)
#
#
# Indices 1 2 3 4 5 6 
#
# 1 77.0459 42.4581 16.2356 0.0000 1.4910 0.0000
# 2 42.4581 180.7732 64.7426 0.0000 14.7768 0.0000
# 3 16.2356 64.7426 115.9615 0.0000 6.3567 0.0000
# 4 0.0000 0.0000 0.0000 43.5903 0.0000 -4.6194
# 5 1.4910 14.7768 6.3567 0.0000 12.4528 0.0000
# 6 0.0000 0.0000 0.0000 -4.6194 0.0000 17.2140
#
#
#
# Elastic Compliance Matrix: (Units=1/GPa)
#
#
# Indices 1 2 3 4 5 6 
#
# 1 0.014990 -0.003668 -0.000197 0.000000 0.002658 0.000000
# 2 -0.003668 0.008348 -0.003733 0.000000 -0.007562 0.000000
# 3 -0.000197 -0.003733 0.010793 0.000000 -0.001056 0.000000
# 4 0.000000 0.000000 0.000000 0.023612 0.000000 0.006336
# 5 0.002658 -0.007562 -0.001056 0.000000 0.089497 0.000000
# 6 0.000000 0.000000 0.000000 0.006336 0.000000 0.059793
#
#
# Mechanical properties :
#
#
# Convention : Reuss Voigt Hill
#
# Bulk Modulus (GPa) = 52.80615 68.96146 60.88380
# Shear Modulus (GPa) = 21.87790 31.34103 26.60947
#
# Velocity S-wave (km/s) = 2.98059 3.56743 3.28713
# Velocity P-wave (km/s) = 5.76958 6.70610 6.25539
#
# Compressibility (1/GPa) = 0.01893719
#
# Stress axis : x y z
#
# Youngs Moduli (GPa) = 66.70931 119.78631 92.65145
#
# Poissons Ratio (x) = 0.43932 0.01824
# Poissons Ratio (y) = 0.24466 0.34586
# Poissons Ratio (z) = 0.01313 0.44715
#
# Static dielectric constant tensor:
#      x y z
#    x 2.046330 0.000000 -0.078150 
#    y 0.000000 1.958790 0.000000 
#    z -0.078150 0.000000 1.949720 
# 
# From -- ./inp_files/199255.got.cif
#   From: 2010.05.17/outbox.cif.g08.bks.cpg/sg15_100_cif.got.tgz:199255.got - 2010.06.03 18:47:42.
