data_PCOD9256767
_publ_section_title
;
Structure prediction by ZEFSAII (Michael W. Deem and Ramdas Pophale) SiO2 
 PCOD9256767
Probable space group: C 2/C
;
_chemical_formula_sum "Si O2"
_cell_formula_units_Z 48
_cell_length_a 14.252098
_cell_length_b 17.716666
_cell_length_c 15.771862
_cell_angle_alpha 90.000000
_cell_angle_beta 147.251238
_cell_angle_gamma 90.000000
_cell_volume 2154.298843
_symmetry_space_group_name_H-M "C 2/C"
_symmetry_group_IT_number 15
_symmetry_cell_setting 'monoclinic'
loop_
_space_group_symop_operation_xyz
x,y,z
-x,y,1/2-z
-x,-y,-z
x,-y,1/2+z
1/2+x,1/2+y,z
1/2-x,1/2+y,1/2-z
1/2-x,1/2-y,-z
1/2+x,1/2-y,1/2+z
loop_
_atom_site_type_symbol
_atom_site_label
_atom_site_fract_x
_atom_site_fract_y
_atom_site_fract_z
Si Si1 0.515375 0.300008 0.133933
Si Si2 0.106158 0.259624 0.518338
Si Si3 0.133469 0.639835 0.783041
Si Si4 0.312045 0.905335 0.831248
Si Si5 0.784444 0.430817 0.324718
Si Si6 0.661510 0.851476 0.828510
O O1 0.519901 0.274962 0.037997
O O2 0.651327 0.367025 0.251603
O O3 0.578058 0.225663 0.228957
O O4 0.323879 0.329136 0.009645
O O5 0.214069 0.190561 0.561368
O O6 0.221865 0.330232 0.640421
O O7 0.970326 0.298931 0.353326
O O8 0.200329 0.579491 0.765981
O O9 0.000000 0.608972 0.750000
O O10 0.265311 0.894253 0.697894
O O11 0.236683 0.983303 0.808911
O O12 0.522561 0.914616 0.993642
O O13 0.500000 0.892435 0.750000
#
# Coordination Sequence:
#
# PCOD9256767 Si02
#       6
#     8   8   8   8   8   8
#     4  10  19  34  53  76 103 136 176 209 251 309
#     4   9  17  31  50  71  97 132 168 201 242 298
#     4  10  18  29  48  74  99 125 160 207 252 290
#     4   9  18  35  53  72 100 135 173 205 249 305
#     4   9  19  34  54  73  99 138 172 205 248 306
#     4  11  21  33  53  79 105 131 167 219 265 303
#
# _framework density 22.281030999999999
#
# number of rings (size 3 to 8) (size 9 to 14) (size 15 to 20)
#    0.000    2.333    0.000    6.000    0.000    1.333 
#    0.000    0.000    0.000    7.000    0.000    0.000 
#    0.000    0.000    0.000    0.000    0.000    0.000 
#
# Total GULP energy -134036.394837 kJ/mol
# GULP energy per Si atom -5584.849785 kJ/mol
# Density = 2.223032 g / cm^3
# Si number density = 22.281031 Si / 1000 Ang^3
#
#
#
# Elastic Constant Matrix: (Units=GPa)
#
#
# Indices 1 2 3 4 5 6 
#
# 1 27.1758 -4.3280 -6.8435 0.0018 4.3186 0.0005
# 2 -4.3280 66.2011 -0.5341 0.0017 -3.1763 0.0013
# 3 -6.8435 -0.5341 37.8620 -0.0001 -3.2720 0.0027
# 4 0.0018 0.0017 -0.0001 18.4345 0.0011 1.5617
# 5 4.3186 -3.1763 -3.2720 0.0011 17.1119 0.0017
# 6 0.0005 0.0013 0.0027 1.5617 0.0017 11.0527
#
#
#
# Elastic Compliance Matrix: (Units=1/GPa)
#
#
# Indices 1 2 3 4 5 6 
#
# 1 0.040155 0.002272 0.006559 -0.000003 -0.008458 -0.000002
# 2 0.002272 0.015378 0.000839 -0.000002 0.002441 -0.000002
# 3 0.006559 0.000839 0.027941 0.000000 0.003843 -0.000008
# 4 -0.000003 -0.000002 0.000000 0.054903 -0.000002 -0.007757
# 5 -0.008458 0.002441 0.003843 -0.000002 0.061761 -0.000010
# 6 -0.000002 -0.000002 -0.000008 -0.007757 -0.000010 0.091572
#
#
# Mechanical properties :
#
#
# Convention : Reuss Voigt Hill
#
# Bulk Modulus (GPa) = 9.72627 11.98086 10.85356
# Shear Modulus (GPa) = 16.30564 18.84945 17.57754
#
# Velocity S-wave (km/s) = 2.70815 2.91174 2.81179
# Velocity P-wave (km/s) = 3.76211 4.08572 3.92725
#
# Compressibility (1/GPa) = 0.10281438
#
# Stress axis : x y z
#
# Youngs Moduli (GPa) = 24.90337 65.02819 35.78943
#
# Poissons Ratio (x) = -0.14776 -0.23475
# Poissons Ratio (y) = -0.05659 -0.03001
# Poissons Ratio (z) = -0.16334 -0.05453
#
# Static dielectric constant tensor:
#      x y z
#    x 1.888930 0.000000 0.008030 
#    y 0.000000 1.791060 0.000000 
#    z 0.008030 0.000000 1.852900 
# 
# From -- ./inp_files/39632.got.cif
#   From: 2010.05.17/outbox.cif.g08.bks.cpg/sg15_20_cif.got.tgz:39632.got - 2010.06.03 18:47:42.
