data_PCOD9256412
_publ_section_title
;
Structure prediction by ZEFSAII (Michael W. Deem and Ramdas Pophale) SiO2 
 PCOD9256412
Probable space group: C 2/C
;
_chemical_formula_sum "Si O2"
_cell_formula_units_Z 32
_cell_length_a 8.993493
_cell_length_b 11.565598
_cell_length_c 17.481260
_cell_angle_alpha 90.000000
_cell_angle_beta 133.854580
_cell_angle_gamma 90.000000
_cell_volume 1311.188289
_symmetry_space_group_name_H-M "C 2/C"
_symmetry_group_IT_number 15
_symmetry_cell_setting 'monoclinic'
loop_
_space_group_symop_operation_xyz
x,y,z
-x,y,1/2-z
-x,-y,-z
x,-y,1/2+z
1/2+x,1/2+y,z
1/2-x,1/2+y,1/2-z
1/2-x,1/2-y,-z
1/2+x,1/2-y,1/2+z
loop_
_atom_site_type_symbol
_atom_site_label
_atom_site_fract_x
_atom_site_fract_y
_atom_site_fract_z
Si Si1 0.165905 0.726309 0.583742
Si Si2 0.935303 0.584796 0.087164
Si Si3 0.871275 0.816977 0.773867
Si Si4 0.370636 0.592352 0.002322
O O1 0.157187 0.613775 0.529479
O O2 0.322201 0.819957 0.601817
O O3 0.204123 0.726634 0.687722
O O4 0.935453 0.783408 0.492311
O O5 0.175060 0.608594 0.179108
O O6 0.857531 0.456944 0.079663
O O7 0.000000 0.766589 0.750000
O O8 0.027908 0.897911 0.877989
O O9 0.500000 0.500000 0.000000
#
# Coordination Sequence:
#
# PCOD9256412 Si02
#       4
#     8   8   8   8
#     4   8  19  35  59  91 119 163 224 253 324 395
#     4  10  17  37  67  79 131 172 199 282 322 367
#     4  10  21  35  58  91 130 164 213 271 321 392
#     4   8  18  35  58  90 121 159 223 261 313 398
#
# _framework density 24.405345000000001
#
# number of rings (size 3 to 8) (size 9 to 14) (size 15 to 20)
#    1.500    1.500    0.000    0.750    0.000    2.000 
#    0.000    7.500   16.500    0.000    0.000    0.000 
#    0.000    0.000    0.000    0.000    0.000    0.000 
#
# Total GULP energy -89239.512789 kJ/mol
# GULP energy per Si atom -5577.469549 kJ/mol
# Density = 2.434980 g / cm^3
# Si number density = 24.405345 Si / 1000 Ang^3
#
#
#
# Elastic Constant Matrix: (Units=GPa)
#
#
# Indices 1 2 3 4 5 6 
#
# 1 119.9999 10.8381 49.0521 0.0000 -11.4777 0.0000
# 2 10.8381 47.9342 9.2800 0.0000 7.9110 0.0000
# 3 49.0521 9.2800 65.5317 0.0000 -0.5298 0.0000
# 4 0.0000 0.0000 0.0000 26.4520 0.0000 -0.1870
# 5 -11.4777 7.9110 -0.5298 0.0000 51.7448 0.0000
# 6 0.0000 0.0000 0.0000 -0.1870 0.0000 24.7952
#
#
#
# Elastic Compliance Matrix: (Units=1/GPa)
#
#
# Indices 1 2 3 4 5 6 
#
# 1 0.012466 -0.001539 -0.009090 0.000000 0.002907 0.000000
# 2 -0.001539 0.022222 -0.002026 0.000000 -0.003760 0.000000
# 3 -0.009090 -0.002026 0.022339 0.000000 -0.001478 0.000000
# 4 0.000000 0.000000 0.000000 0.037806 0.000000 0.000285
# 5 0.002907 -0.003760 -0.001478 0.000000 0.020530 0.000000
# 6 0.000000 0.000000 0.000000 0.000285 0.000000 0.040333
#
#
# Mechanical properties :
#
#
# Convention : Reuss Voigt Hill
#
# Bulk Modulus (GPa) = 31.52681 41.31182 36.41932
# Shear Modulus (GPa) = 26.09919 31.55145 28.82532
#
# Velocity S-wave (km/s) = 3.27372 3.59947 3.44045
# Velocity P-wave (km/s) = 5.21879 5.85141 5.54413
#
# Compressibility (1/GPa) = 0.03171903
#
# Stress axis : x y z
#
# Youngs Moduli (GPa) = 80.21849 44.99955 44.76564
#
# Poissons Ratio (x) = 0.06924 0.40691
# Poissons Ratio (y) = 0.12343 0.09068
# Poissons Ratio (z) = 0.72916 0.09115
#
# Static dielectric constant tensor:
#      x y z
#    x 2.026290 0.000000 -0.026790 
#    y 0.000000 1.903910 0.000000 
#    z -0.026790 0.000000 1.901580 
# 
# From -- ./inp_files/75685.got.cif
#   From: 2010.05.17/outbox.cif.g08.bks.cpg/sg15_38_cif.got.tgz:75685.got - 2010.06.03 18:47:42.
