data_PCOD9256914
_publ_section_title
;
Structure prediction by ZEFSAII (Michael W. Deem and Ramdas Pophale) SiO2 
 PCOD9256914
Probable space group: C 2/C
;
_chemical_formula_sum "Si O2"
_cell_formula_units_Z 40
_cell_length_a 15.368828
_cell_length_b 19.908730
_cell_length_c 8.979899
_cell_angle_alpha 90.000000
_cell_angle_beta 49.271575
_cell_angle_gamma 90.000000
_cell_volume 2082.171557
_symmetry_space_group_name_H-M "C 2/C"
_symmetry_group_IT_number 15
_symmetry_cell_setting 'monoclinic'
loop_
_space_group_symop_operation_xyz
x,y,z
-x,y,1/2-z
-x,-y,-z
x,-y,1/2+z
1/2+x,1/2+y,z
1/2-x,1/2+y,1/2-z
1/2-x,1/2-y,-z
1/2+x,1/2-y,1/2+z
loop_
_atom_site_type_symbol
_atom_site_label
_atom_site_fract_x
_atom_site_fract_y
_atom_site_fract_z
Si Si1 0.417086 0.926698 0.972433
Si Si2 0.732086 0.464046 0.624443
Si Si3 0.301366 0.820633 0.896192
Si Si4 0.425827 0.860653 0.467631
Si Si5 0.380184 0.562266 0.966030
O O1 0.490189 0.912316 0.037782
O O2 0.312597 0.977668 0.105814
O O3 0.500000 0.955023 0.750000
O O4 0.372122 0.856740 0.950049
O O5 0.817278 0.400765 0.520663
O O6 0.681939 0.497087 0.533730
O O7 0.625741 0.446954 0.850758
O O8 0.376487 0.816722 0.660162
O O9 0.250000 0.750000 0.000000
O O10 0.200485 0.873904 0.976356
O O11 0.500000 0.829872 0.250000
O O12 0.500000 0.570802 0.750000
#
# Coordination Sequence:
#
# PCOD9256914 Si02
#       5
#     8   8   8   8   8
#     4   9  17  30  51  76 101 132 162 202 257 303
#     4  10  18  30  48  75 105 128 162 205 251 305
#     4   9  20  36  52  72 100 137 177 207 242 301
#     4  10  18  30  52  79 101 125 160 214 263 296
#     4  10  20  32  50  72 100 138 169 202 246 297
#
# _framework density 19.210712000000001
#
# number of rings (size 3 to 8) (size 9 to 14) (size 15 to 20)
#    0.000    2.400    0.000    4.200    0.000    2.400 
#    0.000    1.000    0.000    9.600    0.000    0.000 
#    0.000    0.000    0.000    0.000    0.000    0.000 
#
# Total GULP energy -111498.904071 kJ/mol
# GULP energy per Si atom -5574.945204 kJ/mol
# Density = 1.916699 g / cm^3
# Si number density = 19.210712 Si / 1000 Ang^3
#
#
#
# Elastic Constant Matrix: (Units=GPa)
#
#
# Indices 1 2 3 4 5 6 
#
# 1 25.2686 -8.3606 13.3493 0.0000 -0.5756 0.0000
# 2 -8.3606 53.7541 27.6700 0.0000 4.8267 0.0000
# 3 13.3493 27.6700 160.2967 0.0000 -7.4534 0.0000
# 4 0.0000 0.0000 0.0000 27.1391 0.0000 -5.2856
# 5 -0.5756 4.8267 -7.4534 0.0000 23.6169 0.0000
# 6 0.0000 0.0000 0.0000 -5.2856 0.0000 6.4459
#
#
#
# Elastic Compliance Matrix: (Units=1/GPa)
#
#
# Indices 1 2 3 4 5 6 
#
# 1 0.045976 0.010362 -0.005748 0.000000 -0.002811 0.000000
# 2 0.010362 0.023445 -0.005197 0.000000 -0.006179 0.000000
# 3 -0.005748 -0.005197 0.007771 0.000000 0.003375 0.000000
# 4 0.000000 0.000000 0.000000 0.043850 0.000000 0.035957
# 5 -0.002811 -0.006179 0.003375 0.000000 0.044602 0.000000
# 6 0.000000 0.000000 0.000000 0.035957 0.000000 0.184623
#
#
# Mechanical properties :
#
#
# Convention : Reuss Voigt Hill
#
# Bulk Modulus (GPa) = 13.15342 33.84853 23.50098
# Shear Modulus (GPa) = 13.27048 25.21777 19.24412
#
# Velocity S-wave (km/s) = 2.63113 3.62704 3.16846
# Velocity P-wave (km/s) = 4.01151 5.93283 5.06412
#
# Compressibility (1/GPa) = 0.07602585
#
# Stress axis : x y z
#
# Youngs Moduli (GPa) = 21.75041 42.65280 128.68020
#
# Poissons Ratio (x) = -0.44198 0.73969
# Poissons Ratio (y) = -0.22538 0.66879
# Poissons Ratio (z) = 0.12503 0.22168
#
# Static dielectric constant tensor:
#      x y z
#    x 1.679710 0.000000 -0.011310 
#    y 0.000000 1.640840 0.000000 
#    z -0.011310 0.000000 1.718460 
# 
# From -- ./inp_files/30150.got.cif
#   From: 2010.05.17/outbox.cif.g08.bks.cpg/sg15_16_cif.got.tgz:30150.got - 2010.06.03 18:47:42.
