data_PCOD9256382
_publ_section_title
;
Structure prediction by ZEFSAII (Michael W. Deem and Ramdas Pophale) SiO2 
 PCOD9256382
Probable space group: C 2/C
;
_chemical_formula_sum "Si O2"
_cell_formula_units_Z 40
_cell_length_a 16.688513
_cell_length_b 7.008031
_cell_length_c 22.233718
_cell_angle_alpha 90.000000
_cell_angle_beta 38.177370
_cell_angle_gamma 90.000000
_cell_volume 1607.248607
_symmetry_space_group_name_H-M "C 2/C"
_symmetry_group_IT_number 15
_symmetry_cell_setting 'monoclinic'
loop_
_space_group_symop_operation_xyz
x,y,z
-x,y,1/2-z
-x,-y,-z
x,-y,1/2+z
1/2+x,1/2+y,z
1/2-x,1/2+y,1/2-z
1/2-x,1/2-y,-z
1/2+x,1/2-y,1/2+z
loop_
_atom_site_type_symbol
_atom_site_label
_atom_site_fract_x
_atom_site_fract_y
_atom_site_fract_z
Si Si1 0.427109 0.743061 0.579214
Si Si2 0.887117 0.401323 0.782194
Si Si3 0.859996 0.031486 0.503330
Si Si4 0.494751 0.697530 0.183828
Si Si5 0.251657 0.563400 0.248329
O O1 0.421593 0.689217 0.512717
O O2 0.556517 0.660944 0.532768
O O3 0.310420 0.610956 0.674906
O O4 0.372959 0.945596 0.633313
O O5 0.965787 0.576388 0.704874
O O6 0.804331 0.314438 0.776457
O O7 0.000000 0.287751 0.750000
O O8 0.784325 0.484882 0.890571
O O9 0.882106 0.115575 0.424522
O O10 0.500000 0.638616 0.250000
O O11 0.374378 0.618484 0.216376
#
# Coordination Sequence:
#
# PCOD9256382 Si02
#       5
#     8   8   8   8   8
#     4   9  18  33  64  81 117 157 189 230 298 346
#     4  10  21  37  61  83 116 161 190 238 293 346
#     4   9  18  36  58  82 118 156 192 230 300 342
#     4  10  20  34  61  87 112 155 197 239 278 346
#     4  10  17  37  57  89 113 153 188 234 288 345
#
# _framework density 24.887250000000002
#
# number of rings (size 3 to 8) (size 9 to 14) (size 15 to 20)
#    0.000    2.400    4.000    1.200    0.000    3.200 
#    0.000    6.000    0.000    0.000    0.000    0.000 
#    0.000    0.000    0.000    0.000    0.000    0.000 
#
# Total GULP energy -111438.806438 kJ/mol
# GULP energy per Si atom -5571.940322 kJ/mol
# Density = 2.483061 g / cm^3
# Si number density = 24.887250 Si / 1000 Ang^3
#
#
#
# Elastic Constant Matrix: (Units=GPa)
#
#
# Indices 1 2 3 4 5 6 
#
# 1 149.2772 9.7130 46.5568 -0.0001 9.6326 -0.0001
# 2 9.7130 51.7571 10.2861 -0.0001 0.5881 -0.0002
# 3 46.5568 10.2861 124.9830 0.0000 16.4819 0.0002
# 4 -0.0001 -0.0001 0.0000 43.4517 0.0000 -3.2593
# 5 9.6326 0.5881 16.4819 0.0000 57.0003 0.0000
# 6 -0.0001 -0.0002 0.0002 -3.2593 0.0000 18.3280
#
#
#
# Elastic Compliance Matrix: (Units=1/GPa)
#
#
# Indices 1 2 3 4 5 6 
#
# 1 0.007632 -0.000889 -0.002704 0.000000 -0.000499 0.000000
# 2 -0.000889 0.019750 -0.001338 0.000000 0.000333 0.000000
# 3 -0.002704 -0.001338 0.009415 0.000000 -0.002252 0.000000
# 4 0.000000 0.000000 0.000000 0.023325 0.000000 0.004148
# 5 -0.000499 0.000333 -0.002252 0.000000 0.018276 0.000000
# 6 0.000000 0.000000 0.000000 0.004148 0.000000 0.055299
#
#
# Mechanical properties :
#
#
# Convention : Reuss Voigt Hill
#
# Bulk Modulus (GPa) = 37.12669 51.01437 44.07053
# Shear Modulus (GPa) = 32.77848 41.05343 36.91596
#
# Velocity S-wave (km/s) = 3.63310 4.06590 3.85558
# Velocity P-wave (km/s) = 5.70522 6.52570 6.12921
#
# Compressibility (1/GPa) = 0.02693480
#
# Stress axis : x y z
#
# Youngs Moduli (GPa) = 131.02105 50.63275 106.20821
#
# Poissons Ratio (x) = 0.04503 0.28720
# Poissons Ratio (y) = 0.11651 0.14212
# Poissons Ratio (z) = 0.35430 0.06775
#
# Static dielectric constant tensor:
#      x y z
#    x 1.985910 0.000000 0.035210 
#    y 0.000000 2.357520 0.000000 
#    z 0.035210 0.000000 2.073090 
# 
# From -- ./inp_files/125747.got.cif
#   From: 2010.05.17/outbox.cif.g08.bks.cpg/sg15_63_cif.got.tgz:125747.got - 2010.06.03 18:47:42.
