data_PCOD9256413
_publ_section_title
;
Structure prediction by ZEFSAII (Michael W. Deem and Ramdas Pophale) SiO2 
 PCOD9256413
Probable space group: C 2/C
;
_chemical_formula_sum "Si O2"
_cell_formula_units_Z 60
_cell_length_a 25.498251
_cell_length_b 10.604199
_cell_length_c 12.684025
_cell_angle_alpha 90.000000
_cell_angle_beta 54.746365
_cell_angle_gamma 90.000000
_cell_volume 2800.640418
_symmetry_space_group_name_H-M "C 2/C"
_symmetry_group_IT_number 15
_symmetry_cell_setting 'monoclinic'
loop_
_space_group_symop_operation_xyz
x,y,z
-x,y,1/2-z
-x,-y,-z
x,-y,1/2+z
1/2+x,1/2+y,z
1/2-x,1/2+y,1/2-z
1/2-x,1/2-y,-z
1/2+x,1/2-y,1/2+z
loop_
_atom_site_type_symbol
_atom_site_label
_atom_site_fract_x
_atom_site_fract_y
_atom_site_fract_z
Si Si1 0.026069 0.406070 0.827419
Si Si2 0.283181 0.645962 0.032085
Si Si3 0.822060 0.770543 0.706878
Si Si4 0.456177 0.832652 0.468371
Si Si5 0.320025 0.797100 0.534901
Si Si6 0.665285 0.025930 0.681184
Si Si7 0.866004 0.937313 0.837812
Si Si8 0.500000 0.626279 0.250000
O O1 0.100299 0.449485 0.735845
O O2 0.000000 0.348362 0.750000
O O3 0.984574 0.534232 0.894424
O O4 0.022067 0.322105 0.936415
O O5 0.322661 0.705570 0.082459
O O6 0.225841 0.557987 0.143588
O O7 0.250000 0.750000 0.000000
O O8 0.326914 0.561849 0.905932
O O9 0.747482 0.776968 0.830455
O O10 0.847595 0.635836 0.718188
O O11 0.857383 0.879990 0.731704
O O12 0.379188 0.830125 0.542771
O O13 0.482510 0.720995 0.365538
O O14 0.315991 0.904361 0.449870
O O15 0.338350 0.671289 0.448402
O O16 0.939361 0.952750 0.784586
#
# Coordination Sequence:
#
# PCOD9256413 Si02
#       8
#     8   8   8   8   8   8   8   4
#     4  11  20  34  56  93 140 168 211 274 329 383
#     4  12  27  41  64 100 132 162 218 285 329 386
#     4  11  22  39  67  93 130 176 216 270 335 401
#     4  10  19  32  58  95 125 171 221 269 320 380
#     4  10  17  37  67  91 127 173 227 257 321 408
#     4  11  21  41  63  94 129 175 211 266 334 399
#     4  10  21  42  69  97 126 173 225 268 321 397
#     4  10  20  42  70  92 122 176 242 260 314 418
#
# _framework density 21.423673000000001
#
# number of rings (size 3 to 8) (size 9 to 14) (size 15 to 20)
#    0.000    1.333    4.667    3.200    1.867    1.067 
#    2.400    0.667    1.467    1.600    0.000    0.000 
#    0.000    0.000    0.000    0.000    0.000    0.000 
#
# Total GULP energy -167876.790083 kJ/mol
# GULP energy per Si atom -5595.893003 kJ/mol
# Density = 2.137491 g / cm^3
# Si number density = 21.423673 Si / 1000 Ang^3
#
#
#
# Elastic Constant Matrix: (Units=GPa)
#
#
# Indices 1 2 3 4 5 6 
#
# 1 132.3183 32.0402 31.0162 0.0000 18.4190 0.0000
# 2 32.0402 53.2963 20.2658 0.0000 14.7395 0.0000
# 3 31.0162 20.2658 48.6513 0.0000 29.2601 0.0000
# 4 0.0000 0.0000 0.0000 -0.7612 0.0000 3.2069
# 5 18.4190 14.7395 29.2601 0.0000 54.8325 0.0000
# 6 0.0000 0.0000 0.0000 3.2069 0.0000 20.2469
#
#
#
# Elastic Compliance Matrix: (Units=1/GPa)
#
#
# Indices 1 2 3 4 5 6 
#
# 1 0.009583 -0.004105 -0.004605 0.000000 0.000342 0.000000
# 2 -0.004105 0.024140 -0.006428 0.000000 -0.001680 0.000000
# 3 -0.004605 -0.006428 0.035635 0.000000 -0.015741 0.000000
# 4 0.000000 0.000000 0.000000 -0.787950 0.000000 0.124805
# 5 0.000342 -0.001680 -0.015741 0.000000 0.026974 0.000000
# 6 0.000000 0.000000 0.000000 0.124805 0.000000 0.029622
#
#
# Mechanical properties :
#
#
# Convention : Reuss Voigt Hill
#
# Bulk Modulus (GPa) = 25.58754 44.54559 35.06657
# Shear Modulus (GPa) = -8.08156 24.92656 8.42250
#
# Velocity S-wave (km/s) = -1.94434 3.41472 1.98493
# Velocity P-wave (km/s) = 2.63228 6.03199 4.65370
#
# Compressibility (1/GPa) = 0.03908152
#
# Stress axis : x y z
#
# Youngs Moduli (GPa) = 104.34714 41.42584 28.06221
#
# Poissons Ratio (x) = 0.17004 0.12924
# Poissons Ratio (y) = 0.42830 0.18039
# Poissons Ratio (z) = 0.48055 0.26630
#
# Static dielectric constant tensor:
#      x y z
#    x 1.776080 0.000000 -0.014660 
#    y 0.000000 1.753370 0.000000 
#    z -0.014660 0.000000 1.796370 
# 
# From -- ./inp_files/117535.got.cif
#   From: 2010.05.17/outbox.cif.g08.bks.cpg/sg15_59_cif.got.tgz:117535.got - 2010.06.03 18:47:42.
