data_PCOD9256410
_publ_section_title
;
Structure prediction by ZEFSAII (Michael W. Deem and Ramdas Pophale) SiO2 
 PCOD9256410
Probable space group: C 2/C
;
_chemical_formula_sum "Si O2"
_cell_formula_units_Z 52
_cell_length_a 14.033597
_cell_length_b 5.687365
_cell_length_c 23.441201
_cell_angle_alpha 90.000000
_cell_angle_beta 114.913894
_cell_angle_gamma 90.000000
_cell_volume 1696.834249
_symmetry_space_group_name_H-M "C 2/C"
_symmetry_group_IT_number 15
_symmetry_cell_setting 'monoclinic'
loop_
_space_group_symop_operation_xyz
x,y,z
-x,y,1/2-z
-x,-y,-z
x,-y,1/2+z
1/2+x,1/2+y,z
1/2-x,1/2+y,1/2-z
1/2-x,1/2-y,-z
1/2+x,1/2-y,1/2+z
loop_
_atom_site_type_symbol
_atom_site_label
_atom_site_fract_x
_atom_site_fract_y
_atom_site_fract_z
Si Si1 0.985865 0.998967 0.640422
Si Si2 0.402068 0.727719 0.425014
Si Si3 0.223312 0.745855 0.913499
Si Si4 0.705730 0.768017 0.799731
Si Si5 0.364844 0.739489 0.233872
Si Si6 0.500000 0.783974 0.750000
Si Si7 0.109596 0.484778 0.973529
O O1 0.057319 0.990412 0.602370
O O2 0.027494 0.795527 0.695304
O O3 0.991667 0.235283 0.677997
O O4 0.868117 0.932842 0.594509
O O5 0.492422 0.919657 0.433600
O O6 0.287151 0.767334 0.370047
O O7 0.394727 0.745915 0.491152
O O8 0.216260 0.723829 0.844237
O O9 0.179796 0.514567 0.935147
O O10 0.331040 0.835235 0.967563
O O11 0.620775 0.555495 0.778241
O O12 0.773886 0.771463 0.760629
O O13 0.609091 0.963031 0.770971
#
# Coordination Sequence:
#
# PCOD9256410 Si02
#       7
#     8   8   8   8   8   4   8
#     4  10  19  36  66  97 140 172 230 281 353 405
#     4  10  20  38  62 100 138 183 222 292 342 409
#     4  10  17  37  66  96 131 183 232 289 323 421
#     4  11  24  41  68  97 143 169 231 275 351 403
#     4  11  23  41  68 103 128 179 221 288 337 412
#     4  10  20  38  66  96 134 184 228 282 346 434
#     4   9  19  35  69  94 137 180 238 273 348 395
#
# _framework density 30.645303999999999
#
# number of rings (size 3 to 8) (size 9 to 14) (size 15 to 20)
#    0.000    1.846    4.615    0.000    2.154    2.462 
#    0.000    1.538    0.000    0.000    0.000    0.000 
#    0.000    0.000    0.000    0.000    0.000    0.000 
#
# Total GULP energy -145321.396489 kJ/mol
# GULP energy per Si atom -5589.284480 kJ/mol
# Density = 3.057555 g / cm^3
# Si number density = 30.645304 Si / 1000 Ang^3
#
#
#
# Elastic Constant Matrix: (Units=GPa)
#
#
# Indices 1 2 3 4 5 6 
#
# 1 170.2752 53.3906 67.4381 0.0000 21.3008 0.0000
# 2 53.3906 168.6100 75.0596 0.0000 20.1854 0.0000
# 3 67.4381 75.0596 219.1736 0.0000 6.3343 0.0000
# 4 0.0000 0.0000 0.0000 62.6122 0.0000 14.1845
# 5 21.3008 20.1854 6.3343 0.0000 68.7429 0.0000
# 6 0.0000 0.0000 0.0000 14.1845 0.0000 43.9619
#
#
#
# Elastic Compliance Matrix: (Units=1/GPa)
#
#
# Indices 1 2 3 4 5 6 
#
# 1 0.007170 -0.001308 -0.001710 0.000000 -0.001680 0.000000
# 2 -0.001308 0.007476 -0.002112 0.000000 -0.001595 0.000000
# 3 -0.001710 -0.002112 0.005794 0.000000 0.000616 0.000000
# 4 0.000000 0.000000 0.000000 0.017231 0.000000 -0.005560
# 5 -0.001680 -0.001595 0.000616 0.000000 0.015479 0.000000
# 6 0.000000 0.000000 0.000000 -0.005560 0.000000 0.024541
#
#
# Mechanical properties :
#
#
# Convention : Reuss Voigt Hill
#
# Bulk Modulus (GPa) = 98.21946 105.53728 101.87837
# Shear Modulus (GPa) = 54.73789 59.20809 56.97299
#
# Velocity S-wave (km/s) = 4.23090 4.40027 4.31642
# Velocity P-wave (km/s) = 7.48247 7.76721 7.62617
#
# Compressibility (1/GPa) = 0.01018128
#
# Stress axis : x y z
#
# Youngs Moduli (GPa) = 139.46296 133.75869 172.59156
#
# Poissons Ratio (x) = 0.17499 0.29507
# Poissons Ratio (y) = 0.18246 0.36446
# Poissons Ratio (z) = 0.23844 0.28246
#
# Static dielectric constant tensor:
#      x y z
#    x 2.492320 0.000000 0.051830 
#    y 0.000000 3.212660 0.000000 
#    z 0.051830 0.000000 2.239700 
# 
# From -- ./inp_files/243080.got.cif
#   From: 2010.05.17/outbox.cif.g08.bks.cpg/sg15_122_cif.got.tgz:243080.got - 2010.06.03 18:47:42.
