data_PCOD9256541
_publ_section_title
;
Structure prediction by ZEFSAII (Michael W. Deem and Ramdas Pophale) SiO2 
 PCOD9256541
Probable space group: C 2/C
;
_chemical_formula_sum "Si O2"
_cell_formula_units_Z 40
_cell_length_a 17.518035
_cell_length_b 18.625697
_cell_length_c 9.312019
_cell_angle_alpha 90.000000
_cell_angle_beta 128.387981
_cell_angle_gamma 90.000000
_cell_volume 2381.552662
_symmetry_space_group_name_H-M "C 2/C"
_symmetry_group_IT_number 15
_symmetry_cell_setting 'monoclinic'
loop_
_space_group_symop_operation_xyz
x,y,z
-x,y,1/2-z
-x,-y,-z
x,-y,1/2+z
1/2+x,1/2+y,z
1/2-x,1/2+y,1/2-z
1/2-x,1/2-y,-z
1/2+x,1/2-y,1/2+z
loop_
_atom_site_type_symbol
_atom_site_label
_atom_site_fract_x
_atom_site_fract_y
_atom_site_fract_z
Si Si1 0.602383 0.725696 0.810311
Si Si2 0.720329 0.160148 0.626538
Si Si3 0.611244 0.962616 0.826805
Si Si4 0.144766 0.626123 0.827868
Si Si5 0.925717 0.649559 0.455210
O O1 0.500000 0.698104 0.750000
O O2 0.675206 0.668576 0.826124
O O3 0.580989 0.784958 0.662712
O O4 0.659206 0.770559 0.000057
O O5 0.666328 0.089799 0.501438
O O6 0.718813 0.155782 0.796375
O O7 0.500000 0.971076 0.750000
O O8 0.607376 0.920745 0.671124
O O9 0.656404 0.040883 0.863460
O O10 0.036914 0.638094 0.634171
O O11 0.139541 0.660159 0.979738
#
# Coordination Sequence:
#
# PCOD9256541 Si02
#       5
#     8   8   8   8   8
#     4  10  19  35  49  65  96 129 169 197 224 281
#     4  10  20  31  50  71  93 131 163 191 236 287
#     4  11  17  29  47  73 103 126 152 191 241 292
#     4  11  18  27  47  77 100 122 148 195 251 285
#     4  10  18  27  45  72 101 129 148 191 242 284
#
# _framework density 16.795766
#
# number of rings (size 3 to 8) (size 9 to 14) (size 15 to 20)
#    0.000    1.600    6.000    3.000    0.000    0.800 
#    0.000    0.000    0.000    1.200    0.000    0.000 
#    0.000    0.000    0.000    0.000    0.000    0.000 
#
# Total GULP energy -111608.360348 kJ/mol
# GULP energy per Si atom -5580.418017 kJ/mol
# Density = 1.675754 g / cm^3
# Si number density = 16.795766 Si / 1000 Ang^3
#
#
#
# Elastic Constant Matrix: (Units=GPa)
#
#
# Indices 1 2 3 4 5 6 
#
# 1 142.9776 25.6667 22.5999 0.0000 -15.8979 0.0000
# 2 25.6667 33.1184 -7.6560 0.0000 -3.2916 0.0000
# 3 22.5999 -7.6560 24.2548 0.0000 -18.8922 0.0000
# 4 0.0000 0.0000 0.0000 3.6132 0.0000 -0.9600
# 5 -15.8979 -3.2916 -18.8922 0.0000 33.2114 0.0000
# 6 0.0000 0.0000 0.0000 -0.9600 0.0000 18.3359
#
#
#
# Elastic Compliance Matrix: (Units=1/GPa)
#
#
# Indices 1 2 3 4 5 6 
#
# 1 0.012768 -0.016482 -0.024440 0.000000 -0.009424 0.000000
# 2 -0.016482 0.059632 0.058604 0.000000 0.031358 0.000000
# 3 -0.024440 0.058604 0.139896 0.000000 0.073689 0.000000
# 4 0.000000 0.000000 0.000000 0.280667 0.000000 0.014695
# 5 -0.009424 0.031358 0.073689 0.000000 0.070624 0.000000
# 6 0.000000 0.000000 0.000000 0.014695 0.000000 0.055307
#
#
# Mechanical properties :
#
#
# Convention : Reuss Voigt Hill
#
# Bulk Modulus (GPa) = 4.03775 31.28579 17.66177
# Shear Modulus (GPa) = 7.50658 21.68145 14.59402
#
# Velocity S-wave (km/s) = 2.11637 3.59679 2.95093
# Velocity P-wave (km/s) = 2.89505 5.99307 4.70628
#
# Compressibility (1/GPa) = 0.24766248
#
# Stress axis : x y z
#
# Youngs Moduli (GPa) = 78.32070 16.76948 7.14817
#
# Poissons Ratio (x) = 0.27639 0.17470
# Poissons Ratio (y) = 1.29085 -0.41891
# Poissons Ratio (z) = 1.91413 -0.98277
#
# Static dielectric constant tensor:
#      x y z
#    x 1.593840 0.000000 -0.025340 
#    y 0.000000 1.556610 0.000000 
#    z -0.025340 0.000000 1.582320 
# 
# From -- ./inp_files/31754.got.cif
#   From: 2010.05.17/outbox.cif.g08.bks.cpg/sg15_16_cif.got.tgz:31754.got - 2010.06.03 18:47:42.
