data_PCOD9256602
_publ_section_title
;
Structure prediction by ZEFSAII (Michael W. Deem and Ramdas Pophale) SiO2 
 PCOD9256602
Probable space group: C 2/C
;
_chemical_formula_sum "Si O2"
_cell_formula_units_Z 64
_cell_length_a 16.890321
_cell_length_b 16.371096
_cell_length_c 15.146168
_cell_angle_alpha 90.000000
_cell_angle_beta 94.742911
_cell_angle_gamma 90.000000
_cell_volume 4173.772173
_symmetry_space_group_name_H-M "C 2/C"
_symmetry_group_IT_number 15
_symmetry_cell_setting 'monoclinic'
loop_
_space_group_symop_operation_xyz
x,y,z
-x,y,1/2-z
-x,-y,-z
x,-y,1/2+z
1/2+x,1/2+y,z
1/2-x,1/2+y,1/2-z
1/2-x,1/2-y,-z
1/2+x,1/2-y,1/2+z
loop_
_atom_site_type_symbol
_atom_site_label
_atom_site_fract_x
_atom_site_fract_y
_atom_site_fract_z
Si Si1 0.189143 0.306655 0.378184
Si Si2 0.702099 0.535959 0.369361
Si Si3 0.995348 0.865447 0.002803
Si Si4 0.823799 0.332018 0.920452
Si Si5 0.569533 0.325328 0.827106
Si Si6 0.053691 0.225672 0.671629
Si Si7 0.311652 0.413881 0.287302
Si Si8 0.372661 0.505578 0.455034
O O1 0.162480 0.338905 0.472519
O O2 0.256488 0.238315 0.404580
O O3 0.119824 0.257520 0.322295
O O4 0.233425 0.372350 0.321600
O O5 0.783464 0.587166 0.377036
O O6 0.630599 0.597862 0.333929
O O7 0.700122 0.456902 0.307399
O O8 0.685148 0.512377 0.469105
O O9 0.997454 0.811673 0.090247
O O10 0.057098 0.938776 0.028713
O O11 0.031214 0.821504 0.920998
O O12 0.912419 0.906632 0.970194
O O13 0.897376 0.298138 0.871006
O O14 0.500000 0.336430 0.750000
O O15 0.118187 0.154794 0.704509
O O16 0.000000 0.248195 0.750000
O O17 0.335440 0.485843 0.357604
#
# Coordination Sequence:
#
# PCOD9256602 Si02
#       8
#     8   8   8   8   8   8   8   8
#     4   9  16  30  48  66  91 126 166 196 225 276
#     4  10  18  28  45  69  96 125 157 194 234 279
#     4   9  16  25  39  64  98 126 146 179 231 285
#     4   9  16  30  48  66  91 126 166 196 225 276
#     4  10  18  28  45  69  96 125 157 194 234 279
#     4  10  18  28  45  69  96 125 157 194 234 279
#     4  10  18  28  45  69  96 125 157 194 234 279
#     4   9  16  25  39  64  98 126 146 179 231 285
#
# _framework density 15.333850999999999
#
# number of rings (size 3 to 8) (size 9 to 14) (size 15 to 20)
#    0.000    2.500    2.500    1.500    0.000    2.500 
#    0.000    0.000    0.000    2.250    0.000    8.750 
#    0.000    0.000    0.000    0.000    0.000    0.000 
#
# Total GULP energy -178159.909410 kJ/mol
# GULP energy per Si atom -5567.497169 kJ/mol
# Density = 1.529895 g / cm^3
# Si number density = 15.333851 Si / 1000 Ang^3
#
#
#
# Elastic Constant Matrix: (Units=GPa)
#
#
# Indices 1 2 3 4 5 6 
#
# 1 44.3374 16.2503 9.4125 0.0000 -15.7820 0.0000
# 2 16.2503 24.8272 -3.5026 0.0000 -10.3358 0.0000
# 3 9.4125 -3.5026 43.5984 0.0000 -19.0487 0.0000
# 4 0.0000 0.0000 0.0000 11.7186 0.0000 -11.2224
# 5 -15.7820 -10.3358 -19.0487 0.0000 19.4266 0.0000
# 6 0.0000 0.0000 0.0000 -11.2224 0.0000 13.8910
#
#
#
# Elastic Compliance Matrix: (Units=1/GPa)
#
#
# Indices 1 2 3 4 5 6 
#
# 1 0.035327 -0.013505 0.001204 0.000000 0.022694 0.000000
# 2 -0.013505 0.089442 0.045661 0.000000 0.081389 0.000000
# 3 0.001204 0.045661 0.065409 0.000000 0.089408 0.000000
# 4 0.000000 0.000000 0.000000 0.377060 0.000000 0.304623
# 5 0.022694 0.081389 0.089408 0.000000 0.200884 0.000000
# 6 0.000000 0.000000 0.000000 0.304623 0.000000 0.318091
#
#
# Mechanical properties :
#
#
# Convention : Reuss Voigt Hill
#
# Bulk Modulus (GPa) = 3.89260 17.45372 10.67316
# Shear Modulus (GPa) = 4.52437 15.04742 9.78590
#
# Velocity S-wave (km/s) = 1.71959 3.13600 2.52898
# Velocity P-wave (km/s) = 2.54690 4.95175 3.93742
#
# Compressibility (1/GPa) = 0.25689753
#
# Stress axis : x y z
#
# Youngs Moduli (GPa) = 28.30731 11.18038 15.28852
#
# Poissons Ratio (x) = 0.15099 -0.01841
# Poissons Ratio (y) = 0.38229 -0.69809
# Poissons Ratio (z) = -0.03408 -0.51051
#
# Static dielectric constant tensor:
#      x y z
#    x 1.517920 0.000000 -0.001070 
#    y 0.000000 1.512200 0.000000 
#    z -0.001070 0.000000 1.504850 
# 
# From -- ./inp_files/154884.got.cif
#   From: 2010.05.17/outbox.cif.g08.bks.cpg/sg15_78_cif.got.tgz:154884.got - 2010.06.03 18:47:42.
