data_PCOD9256096
_publ_section_title
;
Structure prediction by ZEFSAII (Michael W. Deem and Ramdas Pophale) SiO2 
 PCOD9256096
Probable space group: C 2/C
;
_chemical_formula_sum "Si O2"
_cell_formula_units_Z 48
_cell_length_a 11.500507
_cell_length_b 14.014974
_cell_length_c 28.365010
_cell_angle_alpha 90.000000
_cell_angle_beta 33.331406
_cell_angle_gamma 90.000000
_cell_volume 2512.145583
_symmetry_space_group_name_H-M "C 2/C"
_symmetry_group_IT_number 15
_symmetry_cell_setting 'monoclinic'
loop_
_space_group_symop_operation_xyz
x,y,z
-x,y,1/2-z
-x,-y,-z
x,-y,1/2+z
1/2+x,1/2+y,z
1/2-x,1/2+y,1/2-z
1/2-x,1/2-y,-z
1/2+x,1/2-y,1/2+z
loop_
_atom_site_type_symbol
_atom_site_label
_atom_site_fract_x
_atom_site_fract_y
_atom_site_fract_z
Si Si1 0.067285 0.168405 0.558823
Si Si2 0.146647 0.486894 0.056132
Si Si3 0.928770 0.586949 0.324139
Si Si4 0.851564 0.642557 0.613551
Si Si5 0.073283 0.802430 0.292944
Si Si6 0.539546 0.667214 0.010982
O O1 0.250000 0.250000 0.500000
O O2 0.918602 0.179962 0.654372
O O3 0.945991 0.176628 0.550403
O O4 0.192117 0.068177 0.515696
O O5 0.034841 0.526983 0.141162
O O6 0.275501 0.393395 0.028581
O O7 0.980217 0.454849 0.073210
O O8 0.678176 0.608201 0.407160
O O9 0.000000 0.545357 0.250000
O O10 0.037783 0.690361 0.293912
O O11 0.642996 0.646616 0.651774
O O12 0.763907 0.663257 0.695877
O O13 0.998889 0.729283 0.546681
#
# Coordination Sequence:
#
# PCOD9256096 Si02
#       6
#     8   8   8   8   8   8
#     4  11  19  36  58  82 106 146 190 226 261 328
#     4  11  23  32  56  90 112 138 184 234 281 317
#     4  10  17  34  59  77 107 147 186 223 264 329
#     4  10  20  37  58  79 114 149 180 223 280 331
#     4  10  19  38  59  78 106 153 189 220 269 335
#     4  10  20  37  56  82 114 144 184 225 276 326
#
# _framework density 19.107171999999998
#
# number of rings (size 3 to 8) (size 9 to 14) (size 15 to 20)
#    0.000    1.667    8.333    2.500    0.000    3.333 
#    0.000    0.000    0.000    0.000    0.000    0.000 
#    0.000    0.000    0.000    0.000    0.000    0.000 
#
# Total GULP energy -133949.874837 kJ/mol
# GULP energy per Si atom -5581.244785 kJ/mol
# Density = 1.906368 g / cm^3
# Si number density = 19.107172 Si / 1000 Ang^3
#
#
#
# Elastic Constant Matrix: (Units=GPa)
#
#
# Indices 1 2 3 4 5 6 
#
# 1 51.4347 27.4122 19.0437 -0.0008 17.2964 -0.0002
# 2 27.4122 57.4134 6.7407 0.0001 -3.1388 -0.0001
# 3 19.0437 6.7407 46.9235 -0.0017 31.3777 -0.0007
# 4 -0.0008 0.0001 -0.0017 15.0107 0.0010 2.4386
# 5 17.2964 -3.1388 31.3777 0.0010 36.4265 0.0003
# 6 -0.0002 -0.0001 -0.0007 2.4386 0.0003 32.9456
#
#
#
# Elastic Compliance Matrix: (Units=1/GPa)
#
#
# Indices 1 2 3 4 5 6 
#
# 1 0.034988 -0.017896 0.001207 0.000003 -0.019195 0.000000
# 2 -0.017896 0.028144 -0.009632 -0.000004 0.019220 0.000000
# 3 0.001207 -0.009632 0.054586 0.000010 -0.048423 0.000001
# 4 0.000003 -0.000004 0.000010 0.067430 -0.000012 -0.004991
# 5 -0.019195 0.019220 -0.048423 -0.000012 0.079935 -0.000001
# 6 0.000000 0.000000 0.000001 -0.004991 -0.000001 0.030722
#
#
# Mechanical properties :
#
#
# Convention : Reuss Voigt Hill
#
# Bulk Modulus (GPa) = 15.36705 29.12941 22.24823
# Shear Modulus (GPa) = 13.50843 23.71490 18.61167
#
# Velocity S-wave (km/s) = 2.66180 3.52682 3.12439
# Velocity P-wave (km/s) = 4.18413 5.64473 4.96840
#
# Compressibility (1/GPa) = 0.06507429
#
# Stress axis : x y z
#
# Youngs Moduli (GPa) = 28.58124 35.53181 18.31982
#
# Poissons Ratio (x) = 0.63588 -0.02211
# Poissons Ratio (y) = 0.51150 0.17646
# Poissons Ratio (z) = -0.03450 0.34225
#
# Static dielectric constant tensor:
#      x y z
#    x 1.662470 0.000000 0.017500 
#    y 0.000000 1.670810 0.000000 
#    z 0.017500 0.000000 1.661020 
# 
# From -- ./inp_files/311117.got.cif
#   From: 2010.05.17/outbox.cif.g08.bks.cpg/sg15_156_cif.got.tgz:311117.got - 2010.06.03 18:47:42.
