data_PCOD9256820
_publ_section_title
;
Structure prediction by ZEFSAII (Michael W. Deem and Ramdas Pophale) SiO2 
 PCOD9256820
Probable space group: C 2/C
;
_chemical_formula_sum "Si O2"
_cell_formula_units_Z 40
_cell_length_a 17.618276
_cell_length_b 11.059104
_cell_length_c 19.141299
_cell_angle_alpha 90.000000
_cell_angle_beta 145.286185
_cell_angle_gamma 90.000000
_cell_volume 2123.887513
_symmetry_space_group_name_H-M "C 2/C"
_symmetry_group_IT_number 15
_symmetry_cell_setting 'monoclinic'
loop_
_space_group_symop_operation_xyz
x,y,z
-x,y,1/2-z
-x,-y,-z
x,-y,1/2+z
1/2+x,1/2+y,z
1/2-x,1/2+y,1/2-z
1/2-x,1/2-y,-z
1/2+x,1/2-y,1/2+z
loop_
_atom_site_type_symbol
_atom_site_label
_atom_site_fract_x
_atom_site_fract_y
_atom_site_fract_z
Si Si1 0.683515 0.972308 0.192686
Si Si2 0.519008 0.803003 0.538947
Si Si3 0.390514 0.318270 0.538233
Si Si4 0.100238 0.349930 0.275358
Si Si5 0.990118 0.947263 0.414189
O O1 0.657083 0.918577 0.250107
O O2 0.834056 0.961287 0.281376
O O3 0.634940 0.110803 0.155810
O O4 0.596410 0.893227 0.073052
O O5 0.571667 0.738505 0.508703
O O6 0.475564 0.694245 0.556540
O O7 0.230096 0.305469 0.416247
O O8 0.498173 0.252838 0.669703
O O9 0.422088 0.461404 0.564431
O O10 0.000000 0.424447 0.250000
O O11 0.000000 0.000000 0.500000
#
# Coordination Sequence:
#
# PCOD9256820 Si02
#       5
#     8   8   8   8   8
#     4  10  19  32  49  77 106 132 169 206 272 302
#     4   9  19  31  51  77 104 128 161 225 263 307
#     4  10  20  35  53  80 102 136 174 213 269 299
#     4  11  21  34  53  75 109 142 174 209 246 318
#     4  10  18  29  53  75  99 127 163 217 258 304
#
# _framework density 18.833390000000001
#
# number of rings (size 3 to 8) (size 9 to 14) (size 15 to 20)
#    0.000    2.000    4.000    1.800    5.600    0.000 
#    0.000    0.000    0.000    2.400    0.000    0.000 
#    0.000    0.000    0.000    0.000    0.000    0.000 
#
# Total GULP energy -111336.583260 kJ/mol
# GULP energy per Si atom -5566.829163 kJ/mol
# Density = 1.879052 g / cm^3
# Si number density = 18.833390 Si / 1000 Ang^3
#
#
#
# Elastic Constant Matrix: (Units=GPa)
#
#
# Indices 1 2 3 4 5 6 
#
# 1 32.5710 7.4568 30.5212 0.0000 7.4985 0.0000
# 2 7.4568 119.9593 42.5186 0.0000 -1.2536 0.0000
# 3 30.5212 42.5186 125.5793 0.0000 18.0313 0.0000
# 4 0.0000 0.0000 0.0000 20.6143 0.0000 4.2133
# 5 7.4985 -1.2536 18.0313 0.0000 26.9614 0.0000
# 6 0.0000 0.0000 0.0000 4.2133 0.0000 3.8777
#
#
#
# Elastic Compliance Matrix: (Units=1/GPa)
#
#
# Indices 1 2 3 4 5 6 
#
# 1 0.040456 0.000758 -0.009379 0.000000 -0.004944 0.000000
# 2 0.000758 0.009691 -0.003872 0.000000 0.002829 0.000000
# 3 -0.009379 -0.003872 0.012395 0.000000 -0.005861 0.000000
# 4 0.000000 0.000000 0.000000 0.062359 0.000000 -0.067755
# 5 -0.004944 0.002829 -0.005861 0.000000 0.042516 0.000000
# 6 0.000000 0.000000 0.000000 -0.067755 0.000000 0.331502
#
#
# Mechanical properties :
#
#
# Convention : Reuss Voigt Hill
#
# Bulk Modulus (GPa) = 26.62695 48.78923 37.70809
# Shear Modulus (GPa) = 9.32100 23.46488 16.39294
#
# Velocity S-wave (km/s) = 2.22709 3.53359 2.95349
# Velocity P-wave (km/s) = 4.55874 6.52765 5.62994
#
# Compressibility (1/GPa) = 0.03755594
#
# Stress axis : x y z
#
# Youngs Moduli (GPa) = 24.71829 103.19019 80.67721
#
# Poissons Ratio (x) = -0.07822 0.75670
# Poissons Ratio (y) = -0.01874 0.31235
# Poissons Ratio (z) = 0.23184 0.39951
#
# Static dielectric constant tensor:
#      x y z
#    x 1.531170 0.000000 -0.231060 
#    y 0.000000 1.681160 0.000000 
#    z -0.231060 0.000000 1.371950 
# 
# From -- ./inp_files/126178.got.cif
#   From: 2010.05.17/outbox.cif.g08.bks.cpg/sg15_64_cif.got.tgz:126178.got - 2010.06.03 18:47:42.
