data_PCOD9256679
_publ_section_title
;
Structure prediction by ZEFSAII (Michael W. Deem and Ramdas Pophale) SiO2 
 PCOD9256679
Probable space group: C 2/C
;
_chemical_formula_sum "Si O2"
_cell_formula_units_Z 64
_cell_length_a 21.839248
_cell_length_b 8.614827
_cell_length_c 19.338230
_cell_angle_alpha 90.000000
_cell_angle_beta 125.645182
_cell_angle_gamma 90.000000
_cell_volume 2956.650143
_symmetry_space_group_name_H-M "C 2/C"
_symmetry_group_IT_number 15
_symmetry_cell_setting 'monoclinic'
loop_
_space_group_symop_operation_xyz
x,y,z
-x,y,1/2-z
-x,-y,-z
x,-y,1/2+z
1/2+x,1/2+y,z
1/2-x,1/2+y,1/2-z
1/2-x,1/2-y,-z
1/2+x,1/2-y,1/2+z
loop_
_atom_site_type_symbol
_atom_site_label
_atom_site_fract_x
_atom_site_fract_y
_atom_site_fract_z
Si Si1 0.269706 0.816644 0.417051
Si Si2 0.910916 0.987189 0.370700
Si Si3 0.488518 0.804798 0.849042
Si Si4 0.130123 0.126000 0.907410
Si Si5 0.096353 0.486975 0.513229
Si Si6 0.220544 0.794506 0.733058
Si Si7 0.137794 0.511431 0.192444
Si Si8 0.431266 0.368836 0.535913
O O1 0.183648 0.858740 0.376538
O O2 0.313203 0.701490 0.498180
O O3 0.280122 0.745947 0.348550
O O4 0.318581 0.971967 0.452410
O O5 0.835680 0.062231 0.291328
O O6 0.978827 0.108032 0.405199
O O7 0.943137 0.834058 0.355765
O O8 0.902774 0.952592 0.446849
O O9 0.553262 0.724185 0.845346
O O10 0.421126 0.926696 0.789090
O O11 0.542153 0.894051 0.938539
O O12 0.104502 0.960718 0.922489
O O13 0.091407 0.522321 0.591725
O O14 0.082798 0.312006 0.481790
O O15 0.187460 0.638366 0.746190
O O16 0.304798 0.855886 0.797836
#
# Coordination Sequence:
#
# PCOD9256679 Si02
#       8
#     8   8   8   8   8   8   8   8
#     4   9  19  35  51  73 106 141 175 217 261 316
#     4  10  19  30  51  80 111 138 170 219 275 321
#     4  10  19  34  54  81 108 136 181 222 270 321
#     4   9  18  33  54  76 101 139 181 213 260 318
#     4  10  20  32  52  81 112 137 175 228 274 319
#     4  11  22  36  51  78 110 140 178 221 272 336
#     4  11  22  32  51  75 108 140 175 218 278 326
#     4  10  18  28  53  79 107 137 172 221 270 314
#
# _framework density 21.646118999999999
#
# number of rings (size 3 to 8) (size 9 to 14) (size 15 to 20)
#    0.000    2.000    2.500    1.875    5.250    0.500 
#    0.000    0.625    0.000    0.000    0.000    7.000 
#    0.000    0.000    0.000    0.000    0.000    0.000 
#
# Total GULP energy -178509.988592 kJ/mol
# GULP energy per Si atom -5578.437144 kJ/mol
# Density = 2.159685 g / cm^3
# Si number density = 21.646119 Si / 1000 Ang^3
#
#
#
# Elastic Constant Matrix: (Units=GPa)
#
#
# Indices 1 2 3 4 5 6 
#
# 1 112.8347 54.0399 11.1568 0.0000 36.9513 0.0000
# 2 54.0399 95.9640 18.8220 0.0000 20.0027 0.0000
# 3 11.1568 18.8220 33.3778 0.0000 15.8748 0.0000
# 4 0.0000 0.0000 0.0000 25.8861 0.0000 14.8870
# 5 36.9513 20.0027 15.8748 0.0000 31.8242 0.0000
# 6 0.0000 0.0000 0.0000 14.8870 0.0000 26.7156
#
#
#
# Elastic Compliance Matrix: (Units=1/GPa)
#
#
# Indices 1 2 3 4 5 6 
#
# 1 0.018515 -0.007686 0.007961 0.000000 -0.020638 0.000000
# 2 -0.007686 0.015641 -0.007630 0.000000 0.002899 0.000000
# 3 0.007961 -0.007630 0.044204 0.000000 -0.026499 0.000000
# 4 0.000000 0.000000 0.000000 0.056849 0.000000 -0.031678
# 5 -0.020638 0.002899 -0.026499 0.000000 0.066782 0.000000
# 6 0.000000 0.000000 0.000000 -0.031678 0.000000 0.055084
#
#
# Mechanical properties :
#
#
# Convention : Reuss Voigt Hill
#
# Bulk Modulus (GPa) = 15.71067 45.57931 30.64499
# Shear Modulus (GPa) = 17.06479 27.42904 22.24691
#
# Velocity S-wave (km/s) = 2.81081 3.56358 3.20934
# Velocity P-wave (km/s) = 4.21994 6.16720 5.28405
#
# Compressibility (1/GPa) = 0.06365100
#
# Stress axis : x y z
#
# Youngs Moduli (GPa) = 54.01021 63.93498 22.62215
#
# Poissons Ratio (x) = 0.49140 -0.18010
# Poissons Ratio (y) = 0.41512 0.17260
# Poissons Ratio (z) = -0.42998 0.48781
#
# Static dielectric constant tensor:
#      x y z
#    x 1.824530 0.000000 0.016780 
#    y 0.000000 1.822790 0.000000 
#    z 0.016780 0.000000 1.829020 
# 
# From -- ./inp_files/279597.got.cif
#   From: 2010.05.17/outbox.cif.g08.bks.cpg/sg15_140_cif.got.tgz:279597.got - 2010.06.03 18:47:42.
