data_PCOD9256390
_publ_section_title
;
Structure prediction by ZEFSAII (Michael W. Deem and Ramdas Pophale) SiO2 
 PCOD9256390
Probable space group: C 2/C
;
_chemical_formula_sum "Si O2"
_cell_formula_units_Z 48
_cell_length_a 17.669910
_cell_length_b 9.083476
_cell_length_c 17.724271
_cell_angle_alpha 90.000000
_cell_angle_beta 51.985834
_cell_angle_gamma 90.000000
_cell_volume 2241.315648
_symmetry_space_group_name_H-M "C 2/C"
_symmetry_group_IT_number 15
_symmetry_cell_setting 'monoclinic'
loop_
_space_group_symop_operation_xyz
x,y,z
-x,y,1/2-z
-x,-y,-z
x,-y,1/2+z
1/2+x,1/2+y,z
1/2-x,1/2+y,1/2-z
1/2-x,1/2-y,-z
1/2+x,1/2-y,1/2+z
loop_
_atom_site_type_symbol
_atom_site_label
_atom_site_fract_x
_atom_site_fract_y
_atom_site_fract_z
Si Si1 0.739799 0.959398 0.325797
Si Si2 0.393098 0.882120 0.300363
Si Si3 0.948856 0.584923 0.141814
Si Si4 0.471680 0.671591 0.513978
Si Si5 0.355394 0.108233 0.991101
Si Si6 0.162539 0.204420 0.308971
O O1 0.637962 0.020242 0.355399
O O2 0.731453 0.022143 0.414771
O O3 0.816625 0.037824 0.225379
O O4 0.741240 0.785641 0.312241
O O5 0.500000 0.817766 0.250000
O O6 0.338559 0.875646 0.412463
O O7 0.341015 0.788734 0.268261
O O8 0.415603 0.040193 0.246768
O O9 0.048478 0.496443 0.066410
O O10 0.964413 0.748384 0.099766
O O11 0.500000 0.500000 0.500000
O O12 0.384431 0.740109 0.516971
O O13 0.564349 0.729065 0.412073
#
# Coordination Sequence:
#
# PCOD9256390 Si02
#       6
#     8   8   8   8   8   8
#     4  10  20  32  53  79 112 139 184 226 276 325
#     4   9  17  33  63  78 101 142 199 223 266 329
#     4   9  17  36  57  78 101 146 191 225 265 331
#     4  11  20  32  56  86 111 138 188 236 275 318
#     4  10  17  37  61  77 104 150 192 228 266 338
#     4  11  21  35  53  84 111 145 180 232 274 332
#
# _framework density 21.415993
#
# number of rings (size 3 to 8) (size 9 to 14) (size 15 to 20)
#    0.000    2.000    6.667    1.000    4.667    0.667 
#    0.000    0.000   11.000    4.000    0.000    0.000 
#    0.000    0.000    0.000    0.000    0.000    0.000 
#
# Total GULP energy -133617.030411 kJ/mol
# GULP energy per Si atom -5567.376267 kJ/mol
# Density = 2.136725 g / cm^3
# Si number density = 21.415993 Si / 1000 Ang^3
#
#
#
# Elastic Constant Matrix: (Units=GPa)
#
#
# Indices 1 2 3 4 5 6 
#
# 1 25.6887 10.3163 9.9170 0.0000 11.9583 0.0000
# 2 10.3163 101.7372 18.7107 0.0000 18.7055 0.0000
# 3 9.9170 18.7107 75.8912 0.0000 16.1367 0.0000
# 4 0.0000 0.0000 0.0000 17.9698 0.0000 2.9902
# 5 11.9583 18.7055 16.1367 0.0000 35.5492 0.0000
# 6 0.0000 0.0000 0.0000 2.9902 0.0000 9.1681
#
#
#
# Elastic Compliance Matrix: (Units=1/GPa)
#
#
# Indices 1 2 3 4 5 6 
#
# 1 0.047064 -0.001747 -0.002821 0.000000 -0.013632 0.000000
# 2 -0.001747 0.011130 -0.001545 0.000000 -0.004568 0.000000
# 3 -0.002821 -0.001545 0.014999 0.000000 -0.005047 0.000000
# 4 0.000000 0.000000 0.000000 0.058842 0.000000 -0.019191
# 5 -0.013632 -0.004568 -0.005047 0.000000 0.037410 0.000000
# 6 0.000000 0.000000 0.000000 -0.019191 0.000000 0.115333
#
#
# Mechanical properties :
#
#
# Convention : Reuss Voigt Hill
#
# Bulk Modulus (GPa) = 16.40188 31.24501 23.82344
# Shear Modulus (GPa) = 15.75661 23.49562 19.62612
#
# Velocity S-wave (km/s) = 2.71540 3.31585 3.03053
# Velocity P-wave (km/s) = 4.18408 5.41120 4.83671
#
# Compressibility (1/GPa) = 0.06096863
#
# Stress axis : x y z
#
# Youngs Moduli (GPa) = 21.24764 89.84463 66.66979
#
# Poissons Ratio (x) = 0.15698 0.18806
# Poissons Ratio (y) = 0.03712 0.10298
# Poissons Ratio (z) = 0.05993 0.13877
#
# Static dielectric constant tensor:
#      x y z
#    x 1.789640 0.000000 0.024200 
#    y 0.000000 1.887600 0.000000 
#    z 0.024200 0.000000 1.842070 
# 
# From -- ./inp_files/221547.got.cif
#   From: 2010.05.17/outbox.cif.g08.bks.cpg/sg15_111_cif.got.tgz:221547.got - 2010.06.03 18:47:42.
