data_PCOD9256123
_publ_section_title
;
Structure prediction by ZEFSAII (Michael W. Deem and Ramdas Pophale) SiO2 
 PCOD9256123
Probable space group: C 2/C
;
_chemical_formula_sum "Si O2"
_cell_formula_units_Z 40
_cell_length_a 26.390771
_cell_length_b 8.685626
_cell_length_c 11.851972
_cell_angle_alpha 90.000000
_cell_angle_beta 142.919148
_cell_angle_gamma 90.000000
_cell_volume 1638.018975
_symmetry_space_group_name_H-M "C 2/C"
_symmetry_group_IT_number 15
_symmetry_cell_setting 'monoclinic'
loop_
_space_group_symop_operation_xyz
x,y,z
-x,y,1/2-z
-x,-y,-z
x,-y,1/2+z
1/2+x,1/2+y,z
1/2-x,1/2+y,1/2-z
1/2-x,1/2-y,-z
1/2+x,1/2-y,1/2+z
loop_
_atom_site_type_symbol
_atom_site_label
_atom_site_fract_x
_atom_site_fract_y
_atom_site_fract_z
Si Si1 0.365149 0.774266 0.292270
Si Si2 0.793760 0.436387 0.569963
Si Si3 0.419834 0.274941 0.667372
Si Si4 0.243492 0.241884 0.780107
Si Si5 0.027506 0.579452 0.181584
O O1 0.396441 0.658947 0.249845
O O2 0.319072 0.734125 0.326289
O O3 0.444815 0.884989 0.463552
O O4 0.302171 0.885897 0.112707
O O5 0.756391 0.364570 0.617436
O O6 0.753597 0.410542 0.376007
O O7 0.886610 0.359670 0.719779
O O8 0.500000 0.350990 0.750000
O O9 0.342249 0.265342 0.443314
O O10 0.448724 0.097500 0.745363
O O11 0.000000 0.655557 0.250000
#
# Coordination Sequence:
#
# PCOD9256123 Si02
#       5
#     8   8   8   8   8
#     4  11  21  36  61  91 120 153 194 245 294 346
#     4  10  21  35  55  85 126 151 188 246 294 347
#     4  10  20  35  58  85 118 151 190 238 292 351
#     4  11  22  35  54  90 122 152 194 240 297 344
#     4  10  17  34  60  88 119 147 187 241 296 344
#
# _framework density 24.419744000000001
#
# number of rings (size 3 to 8) (size 9 to 14) (size 15 to 20)
#    0.000    1.600    2.000    6.600    2.800    0.000 
#    0.000    0.000    0.000    1.200   10.400    0.000 
#    0.000    0.000    0.000    0.000    0.000    0.000 
#
# Total GULP energy -111560.380057 kJ/mol
# GULP energy per Si atom -5578.019003 kJ/mol
# Density = 2.436416 g / cm^3
# Si number density = 24.419744 Si / 1000 Ang^3
#
#
#
# Elastic Constant Matrix: (Units=GPa)
#
#
# Indices 1 2 3 4 5 6 
#
# 1 268.8230 23.2314 80.0467 0.0000 -23.3985 0.0000
# 2 23.2314 26.0888 21.8289 0.0000 -0.8917 0.0000
# 3 80.0467 21.8289 180.6595 0.0000 -18.5332 0.0000
# 4 0.0000 0.0000 0.0000 22.9779 0.0000 1.9587
# 5 -23.3985 -0.8917 -18.5332 0.0000 47.0294 0.0000
# 6 0.0000 0.0000 0.0000 1.9587 0.0000 16.4891
#
#
#
# Elastic Compliance Matrix: (Units=1/GPa)
#
#
# Indices 1 2 3 4 5 6 
#
# 1 0.004548 -0.002723 -0.001521 0.000000 0.001612 0.000000
# 2 -0.002723 0.044345 -0.004382 0.000000 -0.002240 0.000000
# 3 -0.001521 -0.004382 0.006933 0.000000 0.001892 0.000000
# 4 0.000000 0.000000 0.000000 0.043965 0.000000 -0.005222
# 5 0.001612 -0.002240 0.001892 0.000000 0.022768 0.000000
# 6 0.000000 0.000000 0.000000 -0.005222 0.000000 0.061267
#
#
# Mechanical properties :
#
#
# Convention : Reuss Voigt Hill
#
# Bulk Modulus (GPa) = 25.92322 80.64282 53.28302
# Shear Modulus (GPa) = 23.37160 40.66356 32.01758
#
# Velocity S-wave (km/s) = 3.09702 4.08510 3.62489
# Velocity P-wave (km/s) = 4.84019 7.43949 6.27589
#
# Compressibility (1/GPa) = 0.03857546
#
# Stress axis : x y z
#
# Youngs Moduli (GPa) = 219.85737 22.55064 144.24307
#
# Poissons Ratio (x) = 0.06139 0.21939
# Poissons Ratio (y) = 0.59857 0.63202
# Poissons Ratio (z) = 0.33440 0.09881
#
# Static dielectric constant tensor:
#      x y z
#    x 2.102330 0.000000 0.010550 
#    y 0.000000 2.086330 0.000000 
#    z 0.010550 0.000000 2.005410 
# 
# From -- ./inp_files/122527.got.cif
#   From: 2010.05.17/outbox.cif.g08.bks.cpg/sg15_62_cif.got.tgz:122527.got - 2010.06.03 18:47:42.
