data_PCOD9256982
_publ_section_title
;
Structure prediction by ZEFSAII (Michael W. Deem and Ramdas Pophale) SiO2 
 PCOD9256982
Probable space group: C 2/C
;
_chemical_formula_sum "Si O2"
_cell_formula_units_Z 60
_cell_length_a 11.150438
_cell_length_b 21.166019
_cell_length_c 14.344856
_cell_angle_alpha 90.000000
_cell_angle_beta 98.469078
_cell_angle_gamma 90.000000
_cell_volume 3348.617355
_symmetry_space_group_name_H-M "C 2/C"
_symmetry_group_IT_number 15
_symmetry_cell_setting 'monoclinic'
loop_
_space_group_symop_operation_xyz
x,y,z
-x,y,1/2-z
-x,-y,-z
x,-y,1/2+z
1/2+x,1/2+y,z
1/2-x,1/2+y,1/2-z
1/2-x,1/2-y,-z
1/2+x,1/2-y,1/2+z
loop_
_atom_site_type_symbol
_atom_site_label
_atom_site_fract_x
_atom_site_fract_y
_atom_site_fract_z
Si Si1 0.074293 0.891315 0.853233
Si Si2 0.385521 0.826435 0.682227
Si Si3 0.340279 0.703245 0.805888
Si Si4 0.401566 0.481579 0.066885
Si Si5 0.595053 0.250736 0.845244
Si Si6 0.000000 0.096119 0.750000
Si Si7 0.166731 0.129000 0.056379
Si Si8 0.536858 0.745602 0.975730
O O1 0.141405 0.823969 0.854730
O O2 0.000000 0.904540 0.750000
O O3 0.965900 0.879448 0.913940
O O4 0.147036 0.952479 0.896270
O O5 0.500000 0.855512 0.750000
O O6 0.353681 0.762992 0.737328
O O7 0.265756 0.866658 0.649212
O O8 0.425053 0.804359 0.583476
O O9 0.206913 0.705912 0.833723
O O10 0.385259 0.641517 0.757035
O O11 0.435520 0.711347 0.900840
O O12 0.471023 0.446136 0.157777
O O13 0.500000 0.500000 0.000000
O O14 0.313461 0.430004 0.009844
O O15 0.500000 0.249232 0.750000
O O16 0.524303 0.236931 0.932904
O O17 0.147433 0.196573 0.003848
#
# Coordination Sequence:
#
# PCOD9256982 Si02
#       8
#     8   8   8   8   8   4   8   8
#     4   9  17  31  49  75 109 142 183 226 279 334
#     4  10  19  31  50  76 113 144 187 224 282 355
#     4  11  19  34  51  81 115 148 185 231 293 347
#     4  10  20  33  53  81 118 142 190 234 288 340
#     4  10  21  33  50  78 116 153 185 232 288 350
#     4  12  20  36  58  86 122 148 182 242 290 348
#     4  10  18  30  50  77 109 142 181 233 279 334
#     4  10  18  31  48  76 110 144 181 225 283 346
#
# _framework density 17.917842
#
# number of rings (size 3 to 8) (size 9 to 14) (size 15 to 20)
#    0.000    1.867    4.000    3.200    0.000    1.067 
#    0.000    0.000    0.000    0.000    0.000   12.133 
#    6.000    0.133    0.000    0.000    0.000    0.000 
#
# Total GULP energy -167184.407591 kJ/mol
# GULP energy per Si atom -5572.813586 kJ/mol
# Density = 1.787706 g / cm^3
# Si number density = 17.917842 Si / 1000 Ang^3
#
#
#
# Elastic Constant Matrix: (Units=GPa)
#
#
# Indices 1 2 3 4 5 6 
#
# 1 57.7434 26.2307 18.6649 0.0000 5.8136 0.0000
# 2 26.2307 59.0194 25.3563 0.0000 1.5532 0.0000
# 3 18.6649 25.3563 103.5506 0.0000 -4.5690 0.0000
# 4 0.0000 0.0000 0.0000 23.9040 0.0000 1.2755
# 5 5.8136 1.5532 -4.5690 0.0000 32.8147 0.0000
# 6 0.0000 0.0000 0.0000 1.2755 0.0000 11.0323
#
#
#
# Elastic Compliance Matrix: (Units=1/GPa)
#
#
# Indices 1 2 3 4 5 6 
#
# 1 0.022447 -0.009013 -0.002008 0.000000 -0.003830 0.000000
# 2 -0.009013 0.022633 -0.003919 0.000000 -0.000020 0.000000
# 3 -0.002008 -0.003919 0.011070 0.000000 0.002083 0.000000
# 4 0.000000 0.000000 0.000000 0.042094 0.000000 -0.004867
# 5 -0.003830 -0.000020 0.002083 0.000000 0.031444 0.000000
# 6 0.000000 0.000000 0.000000 -0.004867 0.000000 0.091206
#
#
# Mechanical properties :
#
#
# Convention : Reuss Voigt Hill
#
# Bulk Modulus (GPa) = 38.06359 40.09081 39.07720
# Shear Modulus (GPa) = 19.26563 23.55430 21.40996
#
# Velocity S-wave (km/s) = 3.28261 3.62964 3.46048
# Velocity P-wave (km/s) = 5.97134 6.32369 6.15004
#
# Compressibility (1/GPa) = 0.02627183
#
# Stress axis : x y z
#
# Youngs Moduli (GPa) = 44.54969 44.18271 90.33035
#
# Poissons Ratio (x) = 0.39821 0.18139
# Poissons Ratio (y) = 0.40152 0.35396
# Poissons Ratio (z) = 0.08946 0.17313
#
# Static dielectric constant tensor:
#      x y z
#    x 1.606260 0.000000 -0.056590 
#    y 0.000000 1.670050 0.000000 
#    z -0.056590 0.000000 1.571650 
# 
# From -- ./inp_files/145732.got.cif
#   From: 2010.05.17/outbox.cif.g08.bks.cpg/sg15_73_cif.got.tgz:145732.got - 2010.06.03 18:47:42.
