data_PCOD9256728
_publ_section_title
;
Structure prediction by ZEFSAII (Michael W. Deem and Ramdas Pophale) SiO2 
 PCOD9256728
Probable space group: C 2/C
;
_chemical_formula_sum "Si O2"
_cell_formula_units_Z 60
_cell_length_a 14.515993
_cell_length_b 31.379320
_cell_length_c 8.955713
_cell_angle_alpha 90.000000
_cell_angle_beta 138.365445
_cell_angle_gamma 90.000000
_cell_volume 2710.223410
_symmetry_space_group_name_H-M "C 2/C"
_symmetry_group_IT_number 15
_symmetry_cell_setting 'monoclinic'
loop_
_space_group_symop_operation_xyz
x,y,z
-x,y,1/2-z
-x,-y,-z
x,-y,1/2+z
1/2+x,1/2+y,z
1/2-x,1/2+y,1/2-z
1/2-x,1/2-y,-z
1/2+x,1/2-y,1/2+z
loop_
_atom_site_type_symbol
_atom_site_label
_atom_site_fract_x
_atom_site_fract_y
_atom_site_fract_z
Si Si1 0.141832 0.680817 0.785877
Si Si2 0.165937 0.521915 0.922276
Si Si3 0.718174 0.634656 0.935827
Si Si4 0.500000 0.249246 0.750000
Si Si5 0.203161 0.561223 0.285274
Si Si6 0.612640 0.093625 0.638467
Si Si7 0.395020 0.299638 0.386335
Si Si8 0.905318 0.712810 0.272080
O O1 0.126078 0.715000 0.898621
O O2 0.117697 0.630611 0.771501
O O3 0.286096 0.686459 0.879166
O O4 0.018696 0.694406 0.524561
O O5 0.212107 0.475864 0.920396
O O6 0.183985 0.553404 0.803271
O O7 0.000000 0.519263 0.750000
O O8 0.227324 0.541016 0.150303
O O9 0.700032 0.599698 0.041686
O O10 0.808702 0.673787 0.109576
O O11 0.808122 0.611929 0.911325
O O12 0.591452 0.660408 0.705865
O O13 0.519653 0.279986 0.632105
O O14 0.045108 0.580189 0.091288
O O15 0.335272 0.256353 0.241434
O O16 0.000000 0.726974 0.250000
#
# Coordination Sequence:
#
# PCOD9256728 Si02
#       8
#     8   8   8   4   8   8   8   8
#     4  10  20  32  52  72 101 142 174 216 256 313
#     4  10  20  28  45  69 103 141 173 205 249 305
#     4  11  19  32  51  71 101 136 179 215 254 309
#     4  10  22  36  50  70 106 134 182 224 272 304
#     4  11  19  31  45  70 103 140 174 209 252 310
#     4  10  18  29  45  70 102 136 178 201 248 303
#     4  10  22  33  51  73  99 137 181 219 270 306
#     4  11  18  32  50  75  99 137 177 216 255 307
#
# _framework density 22.138396
#
# number of rings (size 3 to 8) (size 9 to 14) (size 15 to 20)
#    0.000    1.600    4.000    4.400    2.800    0.000 
#    0.000    0.000    0.000    0.000    0.000    0.000 
#    0.000    9.600    3.067    1.333    0.000    0.267 
#
# Total GULP energy -167238.268210 kJ/mol
# GULP energy per Si atom -5574.608940 kJ/mol
# Density = 2.208801 g / cm^3
# Si number density = 22.138396 Si / 1000 Ang^3
#
#
#
# Elastic Constant Matrix: (Units=GPa)
#
#
# Indices 1 2 3 4 5 6 
#
# 1 20.8866 9.2080 -0.8804 0.0000 -9.8131 0.0000
# 2 9.2080 168.2734 45.2649 0.0000 -8.3176 0.0000
# 3 -0.8804 45.2649 65.6221 0.0000 -19.2157 0.0000
# 4 0.0000 0.0000 0.0000 32.9698 0.0000 -16.6384
# 5 -9.8131 -8.3176 -19.2157 0.0000 19.3354 0.0000
# 6 0.0000 0.0000 0.0000 -16.6384 0.0000 2.7268
#
#
#
# Elastic Compliance Matrix: (Units=1/GPa)
#
#
# Indices 1 2 3 4 5 6 
#
# 1 0.082369 -0.008185 0.025334 0.000000 0.063460 0.000000
# 2 -0.008185 0.008206 -0.008396 0.000000 -0.008968 0.000000
# 3 0.025334 -0.008396 0.033960 0.000000 0.042996 0.000000
# 4 0.000000 0.000000 0.000000 -0.014587 0.000000 -0.089007
# 5 0.063460 -0.008968 0.042996 0.000000 0.122797 0.000000
# 6 0.000000 0.000000 0.000000 -0.089007 0.000000 -0.176371
#
#
# Mechanical properties :
#
#
# Convention : Reuss Voigt Hill
#
# Bulk Modulus (GPa) = 7.04028 40.21858 23.62943
# Shear Modulus (GPa) = 57.99318 24.41904 41.20611
#
# Velocity S-wave (km/s) = 5.12373 3.32477 4.31895
# Velocity P-wave (km/s) = 6.17985 5.73979 5.96388
#
# Compressibility (1/GPa) = 0.14203985
#
# Stress axis : x y z
#
# Youngs Moduli (GPa) = 12.14046 121.86406 29.44605
#
# Poissons Ratio (x) = 0.99748 -0.74598
# Poissons Ratio (y) = 0.09937 0.24724
# Poissons Ratio (z) = -0.30756 1.02320
#
# Static dielectric constant tensor:
#      x y z
#    x 1.857020 0.000000 -0.024380 
#    y 0.000000 1.859540 0.000000 
#    z -0.024380 0.000000 2.013770 
# 
# From -- ./inp_files/52562.got.cif
#   From: 2010.05.17/outbox.cif.g08.bks.cpg/sg15_27_cif.got.tgz:52562.got - 2010.06.03 18:47:42.
