data_PCOD9256126
_publ_section_title
;
Structure prediction by ZEFSAII (Michael W. Deem and Ramdas Pophale) SiO2 
 PCOD9256126
Probable space group: C 2/C
;
_chemical_formula_sum "Si O2"
_cell_formula_units_Z 48
_cell_length_a 15.243103
_cell_length_b 16.247835
_cell_length_c 17.316506
_cell_angle_alpha 90.000000
_cell_angle_beta 32.547809
_cell_angle_gamma 90.000000
_cell_volume 2307.352696
_symmetry_space_group_name_H-M "C 2/C"
_symmetry_group_IT_number 15
_symmetry_cell_setting 'monoclinic'
loop_
_space_group_symop_operation_xyz
x,y,z
-x,y,1/2-z
-x,-y,-z
x,-y,1/2+z
1/2+x,1/2+y,z
1/2-x,1/2+y,1/2-z
1/2-x,1/2-y,-z
1/2+x,1/2-y,1/2+z
loop_
_atom_site_type_symbol
_atom_site_label
_atom_site_fract_x
_atom_site_fract_y
_atom_site_fract_z
Si Si1 0.851353 0.154301 0.000304
Si Si2 0.184839 0.718978 0.773466
Si Si3 0.951400 0.853046 0.983263
Si Si4 0.983868 0.001125 0.178529
Si Si5 0.379551 0.071142 0.560409
Si Si6 0.953490 0.687641 0.177176
O O1 0.893909 0.076181 0.917204
O O2 0.923802 0.235726 0.906930
O O3 0.664966 0.164952 0.164408
O O4 0.953648 0.141677 0.004663
O O5 0.268515 0.672977 0.640298
O O6 0.131960 0.649414 0.873730
O O7 0.324586 0.776755 0.708683
O O8 0.035729 0.780211 0.872192
O O9 0.973630 0.937018 0.921367
O O10 0.801181 0.966137 0.307756
O O11 0.000000 0.042324 0.250000
O O12 0.450660 0.110459 0.429173
O O13 0.500000 0.000000 0.500000
#
# Coordination Sequence:
#
# PCOD9256126 Si02
#       6
#     8   8   8   8   8   8
#     4  10  18  36  63  89 123 161 214 255 300 370
#     4  10  18  35  64  96 115 150 214 271 299 350
#     4  10  20  37  64  89 120 158 215 256 304 366
#     4  12  26  42  59  93 137 169 198 259 329 374
#     4  12  22  36  65  97 123 160 218 262 302 367
#     4  10  17  34  60  93 122 148 209 264 303 354
#
# _framework density 20.803062000000001
#
# number of rings (size 3 to 8) (size 9 to 14) (size 15 to 20)
#    0.000    1.333    8.333    2.500    2.333    0.000 
#    0.000    5.000    0.000    0.000    0.000    0.000 
#    0.000    0.000    0.000    0.000    0.000    0.000 
#
# Total GULP energy -134138.267002 kJ/mol
# GULP energy per Si atom -5589.094458 kJ/mol
# Density = 2.075571 g / cm^3
# Si number density = 20.803062 Si / 1000 Ang^3
#
#
#
# Elastic Constant Matrix: (Units=GPa)
#
#
# Indices 1 2 3 4 5 6 
#
# 1 31.9924 25.1003 23.6242 -0.0003 5.2970 0.0002
# 2 25.1003 64.7824 41.6090 -0.0005 1.3525 0.0001
# 3 23.6242 41.6090 169.2156 -0.0001 -8.3695 0.0005
# 4 -0.0003 -0.0005 -0.0001 57.2531 0.0002 8.8163
# 5 5.2970 1.3525 -8.3695 0.0002 23.2522 -0.0003
# 6 0.0002 0.0001 0.0005 8.8163 -0.0003 3.9045
#
#
#
# Elastic Compliance Matrix: (Units=1/GPa)
#
#
# Indices 1 2 3 4 5 6 
#
# 1 0.048427 -0.016422 -0.003280 0.000001 -0.011257 -0.000005
# 2 -0.016422 0.024073 -0.003575 0.000000 0.001054 0.000002
# 3 -0.003280 -0.003575 0.007426 0.000000 0.003628 -0.000001
# 4 0.000001 0.000000 0.000000 0.026777 -0.000001 -0.060461
# 5 -0.011257 0.001054 0.003628 -0.000001 0.046816 0.000007
# 6 -0.000005 0.000002 -0.000001 -0.060461 0.000007 0.392633
#
#
# Mechanical properties :
#
#
# Convention : Reuss Voigt Hill
#
# Bulk Modulus (GPa) = 29.96364 49.62859 39.79611
# Shear Modulus (GPa) = 8.28051 28.59242 18.43646
#
# Velocity S-wave (km/s) = 1.99727 3.71136 2.98020
# Velocity P-wave (km/s) = 4.44449 6.50183 5.56899
#
# Compressibility (1/GPa) = 0.03337379
#
# Stress axis : x y z
#
# Youngs Moduli (GPa) = 20.64958 41.54044 134.66372
#
# Poissons Ratio (x) = 0.68217 0.44166
# Poissons Ratio (y) = 0.33910 0.48137
# Poissons Ratio (z) = 0.06772 0.14849
#
# Static dielectric constant tensor:
#      x y z
#    x 1.780030 0.000000 0.000840 
#    y 0.000000 1.708360 0.000000 
#    z 0.000840 0.000000 1.765650 
# 
# From -- ./inp_files/66437.got.cif
#   From: 2010.05.17/outbox.cif.g08.bks.cpg/sg15_34_cif.got.tgz:66437.got - 2010.06.03 18:47:42.
