data_PCOD9256965
_publ_section_title
;
Structure prediction by ZEFSAII (Michael W. Deem and Ramdas Pophale) SiO2 
 PCOD9256965
Probable space group: C 2/C
;
_chemical_formula_sum "Si O2"
_cell_formula_units_Z 52
_cell_length_a 9.953174
_cell_length_b 14.431516
_cell_length_c 17.987451
_cell_angle_alpha 90.000000
_cell_angle_beta 49.530148
_cell_angle_gamma 90.000000
_cell_volume 1965.548478
_symmetry_space_group_name_H-M "C 2/C"
_symmetry_group_IT_number 15
_symmetry_cell_setting 'monoclinic'
loop_
_space_group_symop_operation_xyz
x,y,z
-x,y,1/2-z
-x,-y,-z
x,-y,1/2+z
1/2+x,1/2+y,z
1/2-x,1/2+y,1/2-z
1/2-x,1/2-y,-z
1/2+x,1/2-y,1/2+z
loop_
_atom_site_type_symbol
_atom_site_label
_atom_site_fract_x
_atom_site_fract_y
_atom_site_fract_z
Si Si1 0.696911 0.109837 0.935423
Si Si2 0.919046 0.286391 0.379846
Si Si3 0.571181 0.688934 0.467055
Si Si4 0.944962 0.524318 0.899696
Si Si5 0.261608 0.089746 0.275322
Si Si6 0.790896 0.767127 0.177782
Si Si7 0.500000 0.503933 0.250000
O O1 0.691076 0.220293 0.939760
O O2 0.867996 0.063490 0.840244
O O3 0.542451 0.074784 0.934763
O O4 0.657033 0.061471 0.027961
O O5 0.945776 0.228593 0.444745
O O6 0.835099 0.389235 0.409081
O O7 0.120957 0.309371 0.280374
O O8 0.810778 0.227393 0.358695
O O9 0.679735 0.609129 0.385500
O O10 0.453715 0.676582 0.583872
O O11 0.089006 0.486034 0.790838
O O12 0.345319 0.185144 0.213176
O O13 0.106698 0.062454 0.273078
#
# Coordination Sequence:
#
# PCOD9256965 Si02
#       7
#     8   8   8   8   8   8   4
#     4   9  18  31  49  72 105 135 168 209 256 298
#     4   9  19  28  47  72 108 139 162 205 259 305
#     4  10  18  30  50  73 104 140 165 209 256 303
#     4   9  17  32  48  72 104 142 163 204 259 307
#     4  10  19  31  51  80 103 132 174 211 249 299
#     4  10  18  31  45  79 107 130 166 212 257 300
#     4  10  20  30  50  80 104 126 180 216 242 296
#
# _framework density 26.455718999999998
#
# number of rings (size 3 to 8) (size 9 to 14) (size 15 to 20)
#    0.000    2.462    1.538    2.308    4.308    0.000 
#    0.000    0.769    0.000    2.769    0.000    0.000 
#    0.000    0.000    0.000    0.000    0.000    0.000 
#
# Total GULP energy -145341.551522 kJ/mol
# GULP energy per Si atom -5590.059674 kJ/mol
# Density = 2.639550 g / cm^3
# Si number density = 26.455719 Si / 1000 Ang^3
#
#
#
# Elastic Constant Matrix: (Units=GPa)
#
#
# Indices 1 2 3 4 5 6 
#
# 1 73.4365 12.9053 13.7254 0.0000 23.1085 0.0000
# 2 12.9053 72.8688 34.6342 0.0000 -3.9809 0.0000
# 3 13.7254 34.6342 159.1751 0.0000 -6.0397 0.0000
# 4 0.0000 0.0000 0.0000 37.6801 0.0000 -11.6356
# 5 23.1085 -3.9809 -6.0397 0.0000 29.6221 0.0000
# 6 0.0000 0.0000 0.0000 -11.6356 0.0000 13.7058
#
#
#
# Elastic Compliance Matrix: (Units=1/GPa)
#
#
# Indices 1 2 3 4 5 6 
#
# 1 0.019600 -0.003632 -0.001510 0.000000 -0.016086 0.000000
# 2 -0.003632 0.016036 -0.003010 0.000000 0.004375 0.000000
# 3 -0.001510 -0.003010 0.007152 0.000000 0.002232 0.000000
# 4 0.000000 0.000000 0.000000 0.035968 0.000000 0.030535
# 5 -0.016086 0.004375 0.002232 0.000000 0.047350 0.000000
# 6 0.000000 0.000000 0.000000 0.030535 0.000000 0.098885
#
#
# Mechanical properties :
#
#
# Convention : Reuss Voigt Hill
#
# Bulk Modulus (GPa) = 37.75961 47.55670 42.65816
# Shear Modulus (GPa) = 19.99007 32.48264 26.23636
#
# Velocity S-wave (km/s) = 2.75181 3.50782 3.15256
# Velocity P-wave (km/s) = 4.93967 5.86697 5.42318
#
# Compressibility (1/GPa) = 0.02648332
#
# Stress axis : x y z
#
# Youngs Moduli (GPa) = 51.02163 62.35873 139.81657
#
# Poissons Ratio (x) = 0.22650 0.21113
# Poissons Ratio (y) = 0.18532 0.42086
# Poissons Ratio (z) = 0.07705 0.18770
#
# Static dielectric constant tensor:
#      x y z
#    x 2.131040 0.000000 -0.011600 
#    y 0.000000 2.033730 0.000000 
#    z -0.011600 0.000000 2.135300 
# 
# From -- ./inp_files/296774.got.cif
#   From: 2010.05.17/outbox.cif.g08.bks.cpg/sg15_149_cif.got.tgz:296774.got - 2010.06.03 18:47:42.
