data_PCOD9256920
_publ_section_title
;
Structure prediction by ZEFSAII (Michael W. Deem and Ramdas Pophale) SiO2 
 PCOD9256920
Probable space group: C 2/C
;
_chemical_formula_sum "Si O2"
_cell_formula_units_Z 52
_cell_length_a 9.984102
_cell_length_b 23.374155
_cell_length_c 11.830303
_cell_angle_alpha 90.000000
_cell_angle_beta 57.603637
_cell_angle_gamma 90.000000
_cell_volume 2331.145839
_symmetry_space_group_name_H-M "C 2/C"
_symmetry_group_IT_number 15
_symmetry_cell_setting 'monoclinic'
loop_
_space_group_symop_operation_xyz
x,y,z
-x,y,1/2-z
-x,-y,-z
x,-y,1/2+z
1/2+x,1/2+y,z
1/2-x,1/2+y,1/2-z
1/2-x,1/2-y,-z
1/2+x,1/2-y,1/2+z
loop_
_atom_site_type_symbol
_atom_site_label
_atom_site_fract_x
_atom_site_fract_y
_atom_site_fract_z
Si Si1 0.634955 0.683285 0.788482
Si Si2 0.640408 0.816587 0.781650
Si Si3 0.424698 0.385884 0.539013
Si Si4 0.305726 0.518205 0.227997
Si Si5 0.000000 0.533506 0.750000
Si Si6 0.089784 0.587754 0.479636
Si Si7 0.250267 0.584840 0.888604
O O1 0.500000 0.681509 0.750000
O O2 0.668056 0.749637 0.790603
O O3 0.769231 0.644151 0.671331
O O4 0.571679 0.651726 0.929562
O O5 0.500000 0.822934 0.750000
O O6 0.798405 0.845629 0.660277
O O7 0.598613 0.850479 0.915262
O O8 0.437398 0.443996 0.605973
O O9 0.338076 0.405006 0.463949
O O10 0.149183 0.505177 0.222590
O O11 0.240581 0.554936 0.362282
O O12 0.343968 0.456752 0.261893
O O13 0.931888 0.574772 0.879064
O O14 0.924180 0.561344 0.507573
#
# Coordination Sequence:
#
# PCOD9256920 Si02
#       7
#     8   8   8   8   4   8   8
#     4   9  21  31  47  74 100 133 163 199 251 301
#     4  10  19  31  52  75 100 130 163 205 253 287
#     4  10  19  32  48  74 105 128 162 203 248 300
#     4  10  19  30  51  74  99 131 160 209 246 292
#     4  10  18  30  48  78 102 120 170 202 248 292
#     4  10  19  30  51  76  98 131 161 206 251 287
#     4  10  18  31  48  72 102 130 163 198 255 293
#
# _framework density 22.306626000000001
#
# number of rings (size 3 to 8) (size 9 to 14) (size 15 to 20)
#    0.000    2.154    1.538    3.692    4.308    2.462 
#    0.000    0.000    0.000    3.692    4.000    0.000 
#    0.000    0.000    0.000    0.000    0.000    0.000 
#
# Total GULP energy -145115.469227 kJ/mol
# GULP energy per Si atom -5581.364201 kJ/mol
# Density = 2.225586 g / cm^3
# Si number density = 22.306626 Si / 1000 Ang^3
#
#
#
# Elastic Constant Matrix: (Units=GPa)
#
#
# Indices 1 2 3 4 5 6 
#
# 1 33.3965 -0.1618 7.0104 0.0000 -1.4956 0.0000
# 2 -0.1618 146.5628 65.9789 0.0000 7.3980 0.0000
# 3 7.0104 65.9789 139.6398 0.0000 10.0776 0.0000
# 4 0.0000 0.0000 0.0000 30.0867 0.0000 -4.4434
# 5 -1.4956 7.3980 10.0776 0.0000 23.7838 0.0000
# 6 0.0000 0.0000 0.0000 -4.4434 0.0000 12.8085
#
#
#
# Elastic Compliance Matrix: (Units=1/GPa)
#
#
# Indices 1 2 3 4 5 6 
#
# 1 0.030507 0.000860 -0.002122 0.000000 0.002550 0.000000
# 2 0.000860 0.008713 -0.004094 0.000000 -0.000922 0.000000
# 3 -0.002122 -0.004094 0.009407 0.000000 -0.002846 0.000000
# 4 0.000000 0.000000 0.000000 0.035032 0.000000 0.012153
# 5 0.002550 -0.000922 -0.002846 0.000000 0.043699 0.000000
# 6 0.000000 0.000000 0.000000 0.012153 0.000000 0.082289
#
#
# Mechanical properties :
#
#
# Convention : Reuss Voigt Hill
#
# Bulk Modulus (GPa) = 26.37345 51.69491 39.03418
# Shear Modulus (GPa) = 21.45941 29.78722 25.62332
#
# Velocity S-wave (km/s) = 3.10501 3.65821 3.39290
# Velocity P-wave (km/s) = 4.97027 6.40846 5.73463
#
# Compressibility (1/GPa) = 0.03791693
#
# Stress axis : x y z
#
# Youngs Moduli (GPa) = 32.77930 114.76636 106.29865
#
# Poissons Ratio (x) = -0.09873 0.22557
# Poissons Ratio (y) = -0.02820 0.43515
# Poissons Ratio (z) = 0.06956 0.46982
#
# Static dielectric constant tensor:
#      x y z
#    x 1.840580 0.000000 -0.002480 
#    y 0.000000 1.843080 0.000000 
#    z -0.002480 0.000000 1.848420 
# 
# From -- ./inp_files/89484.got.cif
#   From: 2010.05.17/outbox.cif.g08.bks.cpg/sg15_45_cif.got.tgz:89484.got - 2010.06.03 18:47:42.
