data_PCOD9256745
_publ_section_title
;
Structure prediction by ZEFSAII (Michael W. Deem and Ramdas Pophale) SiO2 
 PCOD9256745
Probable space group: C 2/C
;
_chemical_formula_sum "Si O2"
_cell_formula_units_Z 56
_cell_length_a 17.188020
_cell_length_b 24.776189
_cell_length_c 12.530472
_cell_angle_alpha 90.000000
_cell_angle_beta 35.782104
_cell_angle_gamma 90.000000
_cell_volume 3120.068186
_symmetry_space_group_name_H-M "C 2/C"
_symmetry_group_IT_number 15
_symmetry_cell_setting 'monoclinic'
loop_
_space_group_symop_operation_xyz
x,y,z
-x,y,1/2-z
-x,-y,-z
x,-y,1/2+z
1/2+x,1/2+y,z
1/2-x,1/2+y,1/2-z
1/2-x,1/2-y,-z
1/2+x,1/2-y,1/2+z
loop_
_atom_site_type_symbol
_atom_site_label
_atom_site_fract_x
_atom_site_fract_y
_atom_site_fract_z
Si Si1 0.776283 0.046196 0.931775
Si Si2 0.018362 0.189539 0.599728
Si Si3 0.276341 0.756904 0.845371
Si Si4 0.589677 0.046757 0.947144
Si Si5 0.475173 0.424408 0.496792
Si Si6 0.407153 0.133529 0.251404
Si Si7 0.846293 0.026447 0.544396
O O1 0.657944 0.030363 0.983423
O O2 0.900406 0.065571 0.722884
O O3 0.712698 0.095274 0.071378
O O4 0.827502 0.997635 0.948301
O O5 0.130779 0.235399 0.458187
O O6 0.000000 0.181585 0.750000
O O7 0.877949 0.208928 0.706673
O O8 0.066579 0.135414 0.487825
O O9 0.351195 0.814048 0.756315
O O10 0.250000 0.750000 0.000000
O O11 0.711669 0.055118 0.731244
O O12 0.499343 0.097950 0.072618
O O13 0.500000 0.000000 0.000000
O O14 0.369830 0.471209 0.587354
O O15 0.533101 0.435820 0.550233
O O16 0.500000 0.148859 0.250000
#
# Coordination Sequence:
#
# PCOD9256745 Si02
#       7
#     8   8   8   8   8   8   8
#     4  10  18  30  48  67  97 135 169 209 255 297
#     4  10  19  30  46  66  96 128 168 203 250 305
#     4  10  19  30  47  70  97 132 173 208 245 311
#     4  10  20  30  45  70  99 136 172 209 249 311
#     4  10  20  31  48  69  95 133 169 211 254 307
#     4  10  18  29  47  69 100 138 171 204 252 302
#     4  10  19  31  46  67  94 133 171 212 250 305
#
# _framework density 17.948326999999999
#
# number of rings (size 3 to 8) (size 9 to 14) (size 15 to 20)
#    0.000    2.000    1.429    5.143    0.000    2.286 
#    0.000    0.000    0.000    0.000    0.000    0.000 
#    0.000    1.143   17.143    3.714    0.000    1.143 
#
# Total GULP energy -156118.907993 kJ/mol
# GULP energy per Si atom -5575.675285 kJ/mol
# Density = 1.790748 g / cm^3
# Si number density = 17.948327 Si / 1000 Ang^3
#
#
#
# Elastic Constant Matrix: (Units=GPa)
#
#
# Indices 1 2 3 4 5 6 
#
# 1 53.1947 10.3276 -3.4201 -0.0017 1.8503 0.0025
# 2 10.3276 53.4622 9.1964 -0.0008 -1.0969 0.0014
# 3 -3.4201 9.1964 39.3709 -0.0019 -11.3347 0.0025
# 4 -0.0017 -0.0008 -0.0019 30.2630 0.0014 -3.5243
# 5 1.8503 -1.0969 -11.3347 0.0014 17.8029 -0.0020
# 6 0.0025 0.0014 0.0025 -3.5243 -0.0020 28.5785
#
#
#
# Elastic Compliance Matrix: (Units=1/GPa)
#
#
# Indices 1 2 3 4 5 6 
#
# 1 0.019815 -0.004275 0.002511 0.000001 -0.000724 -0.000002
# 2 -0.004275 0.020473 -0.005709 0.000000 -0.001929 0.000000
# 3 0.002511 -0.005709 0.032784 0.000001 0.020260 -0.000001
# 4 0.000001 0.000000 0.000001 0.033525 -0.000002 0.004134
# 5 -0.000724 -0.001929 0.020260 -0.000002 0.069026 0.000003
# 6 -0.000002 0.000000 -0.000001 0.004134 0.000003 0.035501
#
#
# Mechanical properties :
#
#
# Convention : Reuss Voigt Hill
#
# Bulk Modulus (GPa) = 17.20337 19.80394 18.50365
# Shear Modulus (GPa) = 20.37112 23.99046 22.18079
#
# Velocity S-wave (km/s) = 3.37261 3.65998 3.51923
# Velocity P-wave (km/s) = 4.97712 5.37758 5.18122
#
# Compressibility (1/GPa) = 0.05812816
#
# Stress axis : x y z
#
# Youngs Moduli (GPa) = 50.46570 48.84474 30.50271
#
# Poissons Ratio (x) = 0.20880 -0.07661
# Poissons Ratio (y) = 0.21573 0.17414
# Poissons Ratio (z) = -0.12674 0.27885
#
# Static dielectric constant tensor:
#      x y z
#    x 1.669860 0.000010 -0.031950 
#    y 0.000010 1.762420 0.000000 
#    z -0.031950 0.000000 1.647830 
# 
# From -- ./inp_files/107927.got.cif
#   From: 2010.05.17/outbox.cif.g08.bks.cpg/sg15_54_cif.got.tgz:107927.got - 2010.06.03 18:47:42.
