data_PCOD9256007
_publ_section_title
;
Structure prediction by ZEFSAII (Michael W. Deem and Ramdas Pophale) SiO2 
 PCOD9256007
Probable space group: C 2/C
;
_chemical_formula_sum "Si O2"
_cell_formula_units_Z 60
_cell_length_a 17.752421
_cell_length_b 12.915889
_cell_length_c 20.978151
_cell_angle_alpha 90.000000
_cell_angle_beta 26.913038
_cell_angle_gamma 90.000000
_cell_volume 2177.207178
_symmetry_space_group_name_H-M "C 2/C"
_symmetry_group_IT_number 15
_symmetry_cell_setting 'monoclinic'
loop_
_space_group_symop_operation_xyz
x,y,z
-x,y,1/2-z
-x,-y,-z
x,-y,1/2+z
1/2+x,1/2+y,z
1/2-x,1/2+y,1/2-z
1/2-x,1/2-y,-z
1/2+x,1/2-y,1/2+z
loop_
_atom_site_type_symbol
_atom_site_label
_atom_site_fract_x
_atom_site_fract_y
_atom_site_fract_z
Si Si1 0.296875 0.153307 0.856938
Si Si2 0.000000 0.240683 0.750000
Si Si3 0.743756 0.225767 0.782782
Si Si4 0.497591 0.622568 0.519225
Si Si5 0.828351 0.627548 0.488672
Si Si6 0.813059 0.141053 0.296568
Si Si7 0.504710 0.943492 0.398196
Si Si8 0.611789 0.552790 0.101692
O O1 0.127532 0.161292 0.942878
O O2 0.394189 0.258418 0.768839
O O3 0.408506 0.067972 0.736608
O O4 0.237074 0.133322 0.973113
O O5 0.065702 0.303585 0.639424
O O6 0.167280 0.178253 0.643638
O O7 0.913668 0.161903 0.648315
O O8 0.753093 0.311906 0.718589
O O9 0.619443 0.129381 0.856502
O O10 0.660658 0.305025 0.894829
O O11 0.500000 0.500000 0.500000
O O12 0.953745 0.564371 0.440182
O O13 0.727809 0.545799 0.520268
O O14 0.674806 0.104445 0.450377
O O15 0.950411 0.055451 0.177497
O O16 0.500000 0.562941 0.250000
#
# Coordination Sequence:
#
# PCOD9256007 Si02
#       8
#     8   4   8   8   8   8   8   8
#     4  10  21  34  53  84 123 157 195 245 301 354
#     4  10  22  38  52  66 110 148 232 270 294 336
#     4  10  19  37  63  93 128 160 197 253 318 380
#     4  10  20  38  67  93 121 167 201 250 323 390
#     4  11  21  36  52  77 104 164 209 261 298 349
#     4  10  17  34  51  81 124 162 192 237 295 356
#     4  10  17  34  56  83 116 156 203 246 303 365
#     4  12  21  33  51  84 119 161 209 239 298 355
#
# _framework density 27.558242
#
# number of rings (size 3 to 8) (size 9 to 14) (size 15 to 20)
#    0.000    1.867    6.000    1.600    0.000    0.533 
#    4.800    0.667    0.000   14.400    0.000    0.000 
#    0.000    0.000    0.000    0.000    0.000    0.000 
#
# Total GULP energy -167133.330143 kJ/mol
# GULP energy per Si atom -5571.111005 kJ/mol
# Density = 2.749552 g / cm^3
# Si number density = 27.558242 Si / 1000 Ang^3
#
#
#
# Elastic Constant Matrix: (Units=GPa)
#
#
# Indices 1 2 3 4 5 6 
#
# 1 44.5452 37.1785 34.8509 0.0010 5.0359 -0.0001
# 2 37.1785 149.9751 68.2885 0.0035 -1.8246 -0.0022
# 3 34.8509 68.2885 210.6227 -0.0037 19.0950 0.0011
# 4 0.0010 0.0035 -0.0037 62.5884 -0.0002 -9.6156
# 5 5.0359 -1.8246 19.0950 -0.0002 28.1464 0.0007
# 6 -0.0001 -0.0022 0.0011 -9.6156 0.0007 39.0776
#
#
#
# Elastic Compliance Matrix: (Units=1/GPa)
#
#
# Indices 1 2 3 4 5 6 
#
# 1 0.030242 -0.006378 -0.002566 0.000000 -0.004084 0.000000
# 2 -0.006378 0.009320 -0.002264 0.000000 0.003281 0.000000
# 3 -0.002566 -0.002264 0.006263 0.000001 -0.003937 0.000000
# 4 0.000000 0.000000 0.000001 0.016605 0.000000 0.004086
# 5 -0.004084 0.003281 -0.003937 0.000000 0.039143 0.000000
# 6 0.000000 0.000000 0.000000 0.004086 0.000000 0.026596
#
#
# Mechanical properties :
#
#
# Convention : Reuss Voigt Hill
#
# Bulk Modulus (GPa) = 42.71863 76.19764 59.45813
# Shear Modulus (GPa) = 31.56846 43.61749 37.59297
#
# Velocity S-wave (km/s) = 3.38822 3.98268 3.69742
# Velocity P-wave (km/s) = 5.55352 6.98990 6.31270
#
# Compressibility (1/GPa) = 0.02340899
#
# Stress axis : x y z
#
# Youngs Moduli (GPa) = 33.06705 107.30122 159.66228
#
# Poissons Ratio (x) = 0.68439 0.40966
# Poissons Ratio (y) = 0.21091 0.36142
# Poissons Ratio (z) = 0.08484 0.24290
#
# Static dielectric constant tensor:
#      x y z
#    x 2.515410 0.000000 0.087790 
#    y 0.000000 2.181190 0.000000 
#    z 0.087790 0.000000 2.207000 
# 
# From -- ./inp_files/319563.got.cif
#   From: 2010.05.17/outbox.cif.g08.bks.cpg/sg15_160_cif.got.tgz:319563.got - 2010.06.03 18:47:42.
