data_PCOD9256658
_publ_section_title
;
Structure prediction by ZEFSAII (Michael W. Deem and Ramdas Pophale) SiO2 
 PCOD9256658
Probable space group: C 2/C
;
_chemical_formula_sum "Si O2"
_cell_formula_units_Z 52
_cell_length_a 9.641159
_cell_length_b 16.756776
_cell_length_c 20.052897
_cell_angle_alpha 90.000000
_cell_angle_beta 141.997172
_cell_angle_gamma 90.000000
_cell_volume 1994.647911
_symmetry_space_group_name_H-M "C 2/C"
_symmetry_group_IT_number 15
_symmetry_cell_setting 'monoclinic'
loop_
_space_group_symop_operation_xyz
x,y,z
-x,y,1/2-z
-x,-y,-z
x,-y,1/2+z
1/2+x,1/2+y,z
1/2-x,1/2+y,1/2-z
1/2-x,1/2-y,-z
1/2+x,1/2-y,1/2+z
loop_
_atom_site_type_symbol
_atom_site_label
_atom_site_fract_x
_atom_site_fract_y
_atom_site_fract_z
Si Si1 0.000000 0.923969 0.750000
Si Si2 0.255831 0.687435 0.248469
Si Si3 0.224790 0.099074 0.116177
Si Si4 0.483586 0.429213 0.312732
Si Si5 0.415958 0.309132 0.406230
Si Si6 0.252037 0.022046 0.514402
Si Si7 0.909407 0.312868 0.096588
O O1 0.968129 0.858578 0.796182
O O2 0.851281 0.993010 0.732246
O O3 0.170321 0.634504 0.276387
O O4 0.090835 0.720706 0.128598
O O5 0.355496 0.768935 0.314805
O O6 0.325270 0.033678 0.103643
O O7 0.130149 0.170909 0.033713
O O8 0.993598 0.056682 0.056238
O O9 0.500000 0.380215 0.250000
O O10 0.408220 0.378076 0.347116
O O11 0.704792 0.473024 0.428892
O O12 0.199209 0.319675 0.371226
O O13 0.404591 0.099753 0.563539
O O14 0.750000 0.250000 0.000000
#
# Coordination Sequence:
#
# PCOD9256658 Si02
#       7
#     4   8   8   8   8   8   8
#     4  10  18  28  50  78  96 134 180 204 244 312
#     4  12  19  30  49  84 108 130 165 224 267 297
#     4   9  17  30  46  73 103 136 175 205 250 311
#     4   9  18  32  51  72  97 135 186 209 242 306
#     4  10  20  30  48  77 107 138 166 218 263 303
#     4   9  16  28  48  71 100 137 171 206 251 304
#     4  11  18  28  46  79 114 133 158 217 268 306
#
# _framework density 26.069763999999999
#
# number of rings (size 3 to 8) (size 9 to 14) (size 15 to 20)
#    0.462    1.538    6.154    0.923    0.000    0.000 
#    0.000    0.000    0.000    4.615    4.000    2.154 
#    0.000    0.000    0.000    0.000    0.000    0.000 
#
# Total GULP energy -144742.228271 kJ/mol
# GULP energy per Si atom -5567.008780 kJ/mol
# Density = 2.601043 g / cm^3
# Si number density = 26.069764 Si / 1000 Ang^3
#
#
#
# Elastic Constant Matrix: (Units=GPa)
#
#
# Indices 1 2 3 4 5 6 
#
# 1 68.4035 36.3106 28.9917 0.0000 -34.5335 0.0000
# 2 36.3106 125.4254 70.8076 0.0000 -21.6605 0.0000
# 3 28.9917 70.8076 108.3288 0.0000 -56.6930 -0.0001
# 4 0.0000 0.0000 0.0000 52.7297 0.0000 -2.0190
# 5 -34.5335 -21.6605 -56.6930 0.0000 39.0161 0.0000
# 6 0.0000 0.0000 -0.0001 -2.0190 0.0000 30.5027
#
#
#
# Elastic Compliance Matrix: (Units=1/GPa)
#
#
# Indices 1 2 3 4 5 6 
#
# 1 -0.040701 0.037274 -0.089730 0.000000 -0.145714 0.000000
# 2 0.037274 -0.015543 0.053993 0.000000 0.102818 0.000000
# 3 -0.089730 0.053993 -0.116566 0.000000 -0.218824 0.000000
# 4 0.000000 0.000000 0.000000 0.019013 0.000000 0.001258
# 5 -0.145714 0.102818 -0.218824 0.000000 -0.364227 -0.000001
# 6 0.000000 0.000000 0.000000 0.001258 -0.000001 0.032867
#
#
# Mechanical properties :
#
#
# Convention : Reuss Voigt Hill
#
# Bulk Modulus (GPa) = -5.89156 63.81972 28.96408
# Shear Modulus (GPa) = -9.17751 35.51956 13.17102
#
# Velocity S-wave (km/s) = -1.87830 3.69518 2.25015
# Velocity P-wave (km/s) = 2.63986 6.53753 4.22910
#
# Compressibility (1/GPa) = -0.16973424
#
# Stress axis : x y z
#
# Youngs Moduli (GPa) = -24.56966 -64.33845 -8.57883
#
# Poissons Ratio (x) = 2.39818 -0.76977
# Poissons Ratio (y) = 0.91582 0.46319
# Poissons Ratio (z) = -2.20463 3.47381
#
# Static dielectric constant tensor:
#      x y z
#    x 2.095140 0.000000 0.066530 
#    y 0.000000 2.084300 0.000000 
#    z 0.066530 0.000000 2.182050 
# 
# From -- ./inp_files/244230.got.cif
#   From: 2010.05.17/outbox.cif.g08.bks.cpg/sg15_123_cif.got.tgz:244230.got - 2010.06.03 18:47:42.
