data_PCOD9256646
_publ_section_title
;
Structure prediction by ZEFSAII (Michael W. Deem and Ramdas Pophale) SiO2 
 PCOD9256646
Probable space group: C 2/C
;
_chemical_formula_sum "Si O2"
_cell_formula_units_Z 60
_cell_length_a 12.408604
_cell_length_b 20.306051
_cell_length_c 31.515468
_cell_angle_alpha 90.000000
_cell_angle_beta 152.730626
_cell_angle_gamma 90.000000
_cell_volume 3638.338266
_symmetry_space_group_name_H-M "C 2/C"
_symmetry_group_IT_number 15
_symmetry_cell_setting 'monoclinic'
loop_
_space_group_symop_operation_xyz
x,y,z
-x,y,1/2-z
-x,-y,-z
x,-y,1/2+z
1/2+x,1/2+y,z
1/2-x,1/2+y,1/2-z
1/2-x,1/2-y,-z
1/2+x,1/2-y,1/2+z
loop_
_atom_site_type_symbol
_atom_site_label
_atom_site_fract_x
_atom_site_fract_y
_atom_site_fract_z
Si Si1 0.958490 0.083696 0.950599
Si Si2 0.778628 0.327707 0.507513
Si Si3 0.000000 0.521115 0.750000
Si Si4 0.663054 0.455981 0.691602
Si Si5 0.782376 0.108521 0.201785
Si Si6 0.305951 0.434944 0.090454
Si Si7 0.827528 0.943728 0.495607
Si Si8 0.416962 0.023630 0.904919
O O1 0.719855 0.064109 0.842497
O O2 0.894987 0.095324 0.977211
O O3 0.126287 0.019689 0.002511
O O4 0.099449 0.142090 0.978895
O O5 0.750000 0.250000 0.500000
O O6 0.709300 0.365815 0.439424
O O7 0.045225 0.350239 0.611354
O O8 0.911871 0.475819 0.758133
O O9 0.667079 0.403617 0.730890
O O10 0.545317 0.524121 0.667363
O O11 0.503109 0.431701 0.596286
O O12 0.000000 0.134748 0.250000
O O13 0.734613 0.034518 0.168056
O O14 0.228558 0.433936 0.112307
O O15 0.117563 0.483126 0.001122
O O16 0.563311 0.937749 0.420462
#
# Coordination Sequence:
#
# PCOD9256646 Si02
#       8
#     8   8   4   8   8   8   8   8
#     4  10  18  33  50  77 109 144 183 218 274 332
#     4  11  23  39  53  74 115 161 186 214 267 349
#     4  10  18  28  52  80 112 138 170 228 280 328
#     4  10  18  28  49  88 113 133 170 241 296 326
#     4  11  20  32  54  88 109 133 186 235 282 325
#     4   9  16  31  50  74 107 140 174 217 286 324
#     4   9  17  29  52  81 112 139 168 230 296 328
#     4   9  15  28  50  77 111 131 164 233 290 323
#
# _framework density 16.491046000000001
#
# number of rings (size 3 to 8) (size 9 to 14) (size 15 to 20)
#    0.000    2.133    6.667    0.800    5.600    0.000 
#    1.200    0.000    0.000    0.800    6.933    0.000 
#    0.000    0.000    0.000    0.000    0.000    0.000 
#
# Total GULP energy -167131.476440 kJ/mol
# GULP energy per Si atom -5571.049215 kJ/mol
# Density = 1.645351 g / cm^3
# Si number density = 16.491046 Si / 1000 Ang^3
#
#
#
# Elastic Constant Matrix: (Units=GPa)
#
#
# Indices 1 2 3 4 5 6 
#
# 1 162.0272 45.2567 38.1535 -0.0006 5.5703 -0.0002
# 2 45.2567 72.3427 19.7334 -0.0019 -0.2367 -0.0009
# 3 38.1535 19.7334 53.2072 -0.0033 4.2641 -0.0022
# 4 -0.0006 -0.0019 -0.0033 7.6375 -0.0019 0.5672
# 5 5.5703 -0.2367 4.2641 -0.0019 28.1850 -0.0004
# 6 -0.0002 -0.0009 -0.0022 0.5672 -0.0004 12.4942
#
#
#
# Elastic Compliance Matrix: (Units=1/GPa)
#
#
# Indices 1 2 3 4 5 6 
#
# 1 0.008377 -0.004036 -0.004428 -0.000003 -0.001019 -0.000001
# 2 -0.004036 0.017351 -0.003661 0.000003 0.001497 0.000001
# 3 -0.004428 -0.003661 0.023546 0.000008 -0.002718 0.000003
# 4 -0.000003 0.000003 0.000008 0.131375 0.000008 -0.005964
# 5 -0.001019 0.001497 -0.002718 0.000008 0.036105 0.000000
# 6 -0.000001 0.000001 0.000003 -0.005964 0.000000 0.080308
#
#
# Mechanical properties :
#
#
# Convention : Reuss Voigt Hill
#
# Bulk Modulus (GPa) = 39.96318 54.87382 47.41850
# Shear Modulus (GPa) = 15.16742 21.95893 18.56318
#
# Velocity S-wave (km/s) = 3.03601 3.65302 3.35871
# Velocity P-wave (km/s) = 6.04778 7.15122 6.62252
#
# Compressibility (1/GPa) = 0.02502304
#
# Stress axis : x y z
#
# Youngs Moduli (GPa) = 119.37590 57.63198 42.47083
#
# Poissons Ratio (x) = 0.23260 0.18808
# Poissons Ratio (y) = 0.48179 0.15550
# Poissons Ratio (z) = 0.52864 0.21100
#
# Static dielectric constant tensor:
#      x y z
#    x 1.623340 0.000000 -0.004240 
#    y 0.000000 1.506000 0.000000 
#    z -0.004240 0.000000 1.607450 
# 
# From -- ./inp_files/147096.got.cif
#   From: 2010.05.17/outbox.cif.g08.bks.cpg/sg15_74_cif.got.tgz:147096.got - 2010.06.03 18:47:42.
