data_PCOD9256143
_publ_section_title
;
Structure prediction by ZEFSAII (Michael W. Deem and Ramdas Pophale) SiO2 
 PCOD9256143
Probable space group: C 2/C
;
_chemical_formula_sum "Si O2"
_cell_formula_units_Z 60
_cell_length_a 9.840572
_cell_length_b 17.007412
_cell_length_c 20.903790
_cell_angle_alpha 90.000000
_cell_angle_beta 103.621123
_cell_angle_gamma 90.000000
_cell_volume 3400.115603
_symmetry_space_group_name_H-M "C 2/C"
_symmetry_group_IT_number 15
_symmetry_cell_setting 'monoclinic'
loop_
_space_group_symop_operation_xyz
x,y,z
-x,y,1/2-z
-x,-y,-z
x,-y,1/2+z
1/2+x,1/2+y,z
1/2-x,1/2+y,1/2-z
1/2-x,1/2-y,-z
1/2+x,1/2-y,1/2+z
loop_
_atom_site_type_symbol
_atom_site_label
_atom_site_fract_x
_atom_site_fract_y
_atom_site_fract_z
Si Si1 0.018665 0.266752 0.028850
Si Si2 0.500000 0.875020 0.250000
Si Si3 0.056232 0.525531 0.633065
Si Si4 0.239749 0.516766 0.971159
Si Si5 0.055807 0.873464 0.062611
Si Si6 0.326884 0.224452 0.633040
Si Si7 0.666949 0.125014 0.083915
Si Si8 0.243150 0.876558 0.437357
O O1 0.934211 0.281207 0.085083
O O2 0.178882 0.293359 0.051326
O O3 0.996535 0.177887 0.003700
O O4 0.947606 0.322190 0.966607
O O5 0.442317 0.933916 0.297922
O O6 0.605570 0.816123 0.297950
O O7 0.101870 0.435144 0.627854
O O8 0.164758 0.575326 0.602868
O O9 0.900943 0.531215 0.585089
O O10 0.377515 0.543345 0.948702
O O11 0.230947 0.572218 0.033389
O O12 0.242763 0.427909 0.996325
O O13 0.188156 0.825337 0.102812
O O14 0.921841 0.875018 0.093607
O O15 0.276011 0.314835 0.627848
#
# Coordination Sequence:
#
# PCOD9256143 Si02
#       8
#     8   4   8   8   8   8   8   8
#     4  11  17  35  57  88 114 146 182 232 295 358
#     4  12  22  40  66  76 100 162 230 228 260 352
#     4  11  21  36  63  80 113 155 198 235 277 354
#     4  11  17  35  57  88 114 146 182 232 295 358
#     4  11  20  31  54  92 118 141 176 239 309 340
#     4  11  21  36  63  80 113 155 198 235 277 354
#     4  10  17  34  62  85 108 138 190 236 292 332
#     4  11  20  31  54  92 118 141 176 239 309 340
#
# _framework density 17.646459
#
# number of rings (size 3 to 8) (size 9 to 14) (size 15 to 20)
#    0.000    1.067    8.000    2.400    0.000    0.000 
#    0.000    0.667   14.667    0.000    0.000    0.000 
#    0.000    0.000    0.000    0.000    0.000    0.000 
#
# Total GULP energy -167210.875471 kJ/mol
# GULP energy per Si atom -5573.695849 kJ/mol
# Density = 1.760629 g / cm^3
# Si number density = 17.646459 Si / 1000 Ang^3
#
#
#
# Elastic Constant Matrix: (Units=GPa)
#
#
# Indices 1 2 3 4 5 6 
#
# 1 134.6293 42.3151 39.7822 0.0000 6.4649 0.0000
# 2 42.3151 79.9729 43.1249 0.0000 -0.0958 0.0000
# 3 39.7822 43.1249 82.0675 0.0000 -2.8943 0.0000
# 4 0.0000 0.0000 0.0000 19.5077 0.0000 1.4422
# 5 6.4649 -0.0958 -2.8943 0.0000 1.6075 0.0000
# 6 0.0000 0.0000 0.0000 1.4422 0.0000 40.0768
#
#
#
# Elastic Compliance Matrix: (Units=1/GPa)
#
#
# Indices 1 2 3 4 5 6 
#
# 1 0.014136 -0.003527 -0.007487 0.000000 -0.070541 0.000000
# 2 -0.003527 0.018749 -0.008118 0.000000 0.000685 0.000000
# 3 -0.007487 -0.008118 0.022558 0.000000 0.070240 0.000000
# 4 0.000000 0.000000 0.000000 0.051398 0.000000 -0.001850
# 5 -0.070541 0.000685 0.070240 0.000000 1.032271 0.000000
# 6 0.000000 0.000000 0.000000 -0.001850 0.000000 0.025019
#
#
# Mechanical properties :
#
#
# Convention : Reuss Voigt Hill
#
# Bulk Modulus (GPa) = 58.21328 60.79046 59.50187
# Shear Modulus (GPa) = 4.13866 23.66826 13.90346
#
# Velocity S-wave (km/s) = 1.53310 3.66628 2.80998
# Velocity P-wave (km/s) = 6.01616 7.24196 6.65733
#
# Compressibility (1/GPa) = 0.01717821
#
# Stress axis : x y z
#
# Youngs Moduli (GPa) = 70.74106 53.33610 44.33095
#
# Poissons Ratio (x) = 0.18811 0.33190
# Poissons Ratio (y) = 0.24950 0.35990
# Poissons Ratio (z) = 0.52963 0.43301
#
# Static dielectric constant tensor:
#      x y z
#    x 1.638060 0.000000 0.003710 
#    y 0.000000 1.657860 0.000000 
#    z 0.003710 0.000000 1.585130 
# 
# From -- ./inp_files/232764.got.cif
#   From: 2010.05.17/outbox.cif.g08.bks.cpg/sg15_117_cif.got.tgz:232764.got - 2010.06.03 18:47:42.
