data_PCOD9256853
_publ_section_title
;
Structure prediction by ZEFSAII (Michael W. Deem and Ramdas Pophale) SiO2 
 PCOD9256853
Probable space group: C 2/C
;
_chemical_formula_sum "Si O2"
_cell_formula_units_Z 36
_cell_length_a 25.517400
_cell_length_b 7.652757
_cell_length_c 9.235193
_cell_angle_alpha 90.000000
_cell_angle_beta 48.103255
_cell_angle_gamma 90.000000
_cell_volume 1342.385378
_symmetry_space_group_name_H-M "C 2/C"
_symmetry_group_IT_number 15
_symmetry_cell_setting 'monoclinic'
loop_
_space_group_symop_operation_xyz
x,y,z
-x,y,1/2-z
-x,-y,-z
x,-y,1/2+z
1/2+x,1/2+y,z
1/2-x,1/2+y,1/2-z
1/2-x,1/2-y,-z
1/2+x,1/2-y,1/2+z
loop_
_atom_site_type_symbol
_atom_site_label
_atom_site_fract_x
_atom_site_fract_y
_atom_site_fract_z
Si Si1 0.787862 0.090136 0.612058
Si Si2 0.500000 0.799826 0.250000
Si Si3 0.145247 0.293467 0.467458
Si Si4 0.406273 0.383716 0.687124
Si Si5 0.384862 0.779499 0.659866
O O1 0.704322 0.091421 0.780108
O O2 0.825084 0.141445 0.392630
O O3 0.820201 0.212430 0.679773
O O4 0.817465 0.895764 0.578385
O O5 0.548569 0.683484 0.263546
O O6 0.441642 0.886722 0.461090
O O7 0.083673 0.233070 0.473451
O O8 0.129987 0.362295 0.656535
O O9 0.418266 0.587991 0.637052
#
# Coordination Sequence:
#
# PCOD9256853 Si02
#       5
#     8   4   8   8   8
#     4   9  18  31  47  71 101 127 155 196 238 285
#     4  10  18  30  44  68 102 130 154 198 250 278
#     4  10  18  31  49  73 100 126 158 194 236 288
#     4   9  18  29  45  69  97 127 158 195 238 284
#     4   9  18  29  45  69  97 127 158 195 238 284
#
# _framework density 26.817933
#
# number of rings (size 3 to 8) (size 9 to 14) (size 15 to 20)
#    0.000    2.667    0.000    3.333    0.000    0.889 
#    0.000    0.000    0.000    0.000    0.000   24.889 
#    0.000   14.222    0.000    0.000    0.000    0.000 
#
# Total GULP energy -100681.545794 kJ/mol
# GULP energy per Si atom -5593.419211 kJ/mol
# Density = 2.675689 g / cm^3
# Si number density = 26.817933 Si / 1000 Ang^3
#
#
#
# Elastic Constant Matrix: (Units=GPa)
#
#
# Indices 1 2 3 4 5 6 
#
# 1 53.6912 -1.2820 29.3643 0.0000 18.4778 0.0000
# 2 -1.2820 87.6590 -0.5129 0.0000 10.5969 0.0000
# 3 29.3643 -0.5129 165.4099 0.0000 16.5646 0.0000
# 4 0.0000 0.0000 0.0000 16.8098 0.0000 3.8130
# 5 18.4778 10.5969 16.5646 0.0000 44.2865 0.0000
# 6 0.0000 0.0000 0.0000 3.8130 0.0000 7.8916
#
#
#
# Elastic Compliance Matrix: (Units=1/GPa)
#
#
# Indices 1 2 3 4 5 6 
#
# 1 0.023522 0.001404 -0.003278 0.000000 -0.008924 0.000000
# 2 0.001404 0.011849 0.000135 0.000000 -0.003471 0.000000
# 3 -0.003278 0.000135 0.006747 0.000000 -0.001188 0.000000
# 4 0.000000 0.000000 0.000000 0.066812 0.000000 -0.032281
# 5 -0.008924 -0.003471 -0.001188 0.000000 0.027579 0.000000
# 6 0.000000 0.000000 0.000000 -0.032281 0.000000 0.142315
#
#
# Mechanical properties :
#
#
# Convention : Reuss Voigt Hill
#
# Bulk Modulus (GPa) = 25.87968 40.21098 33.04533
# Shear Modulus (GPa) = 16.93873 32.41027 24.67450
#
# Velocity S-wave (km/s) = 2.51593 3.48016 3.03656
# Velocity P-wave (km/s) = 4.25570 5.58349 4.96419
#
# Compressibility (1/GPa) = 0.03864036
#
# Stress axis : x y z
#
# Youngs Moduli (GPa) = 42.51255 84.39667 148.21637
#
# Poissons Ratio (x) = -0.11846 0.48582
# Poissons Ratio (y) = -0.05967 -0.02004
# Poissons Ratio (z) = 0.13935 -0.01141
#
# Static dielectric constant tensor:
#      x y z
#    x 2.079850 0.000000 -0.064440 
#    y 0.000000 2.080440 0.000000 
#    z -0.064440 0.000000 2.171130 
# 
# From -- ./inp_files/45870.got.cif
#   From: 2010.05.17/outbox.cif.g08.bks.cpg/sg15_23_cif.got.tgz:45870.got - 2010.06.03 18:47:42.
