data_PCOD9256224
_publ_section_title
;
Structure prediction by ZEFSAII (Michael W. Deem and Ramdas Pophale) SiO2 
 PCOD9256224
Probable space group: C 2/C
;
_chemical_formula_sum "Si O2"
_cell_formula_units_Z 64
_cell_length_a 11.238127
_cell_length_b 16.564051
_cell_length_c 20.272580
_cell_angle_alpha 90.000000
_cell_angle_beta 109.998815
_cell_angle_gamma 90.000000
_cell_volume 3546.162257
_symmetry_space_group_name_H-M "C 2/C"
_symmetry_group_IT_number 15
_symmetry_cell_setting 'monoclinic'
loop_
_space_group_symop_operation_xyz
x,y,z
-x,y,1/2-z
-x,-y,-z
x,-y,1/2+z
1/2+x,1/2+y,z
1/2-x,1/2+y,1/2-z
1/2-x,1/2-y,-z
1/2+x,1/2-y,1/2+z
loop_
_atom_site_type_symbol
_atom_site_label
_atom_site_fract_x
_atom_site_fract_y
_atom_site_fract_z
Si Si1 0.224896 0.409144 0.452124
Si Si2 0.962275 0.688489 0.498666
Si Si3 0.630826 0.312537 0.121604
Si Si4 0.174349 0.810021 0.594468
Si Si5 0.523363 0.449805 0.935432
Si Si6 0.166280 0.410305 0.976174
Si Si7 0.143676 0.219085 0.773204
Si Si8 0.111473 0.095761 0.878103
O O1 0.118705 0.348363 0.457525
O O2 0.282840 0.382005 0.393631
O O3 0.344862 0.404833 0.524714
O O4 0.177493 0.501362 0.446088
O O5 0.877314 0.740798 0.432691
O O6 0.076855 0.744715 0.546225
O O7 0.027080 0.615212 0.471257
O O8 0.675927 0.289978 0.202872
O O9 0.486121 0.343155 0.104236
O O10 0.274952 0.842393 0.560223
O O11 0.254614 0.771563 0.668496
O O12 0.088884 0.887394 0.595904
O O13 0.544244 0.510219 0.878525
O O14 0.500000 0.500000 0.000000
O O15 0.258084 0.409921 0.057289
O O16 0.133879 0.133266 0.810521
O O17 0.000000 0.253432 0.750000
#
# Coordination Sequence:
#
# PCOD9256224 Si02
#       8
#     8   8   8   8   8   8   8   8
#     4  11  22  36  59  89 123 152 188 250 308 351
#     4  12  22  34  62  91 116 151 198 253 297 340
#     4  11  20  38  58  84 120 158 192 239 309 354
#     4  12  20  36  66  91 114 156 205 250 293 361
#     4  11  18  35  64  94 116 148 203 250 302 350
#     4  11  19  35  62  90 113 145 203 249 287 342
#     4  10  23  36  60  88 122 155 202 248 300 355
#     4  10  17  35  60  91 109 150 201 248 283 348
#
# _framework density 18.04768
#
# number of rings (size 3 to 8) (size 9 to 14) (size 15 to 20)
#    0.000    1.000    7.500    2.625    0.000    0.000 
#    0.000    0.625   22.000    6.000    0.000    0.000 
#    0.000    0.000    0.000    0.000    0.000    0.000 
#
# Total GULP energy -178578.841847 kJ/mol
# GULP energy per Si atom -5580.588808 kJ/mol
# Density = 1.800660 g / cm^3
# Si number density = 18.047680 Si / 1000 Ang^3
#
#
#
# Elastic Constant Matrix: (Units=GPa)
#
#
# Indices 1 2 3 4 5 6 
#
# 1 50.6779 30.1932 22.2578 0.0000 -4.6288 0.0000
# 2 30.1932 76.6510 55.4336 0.0000 -1.9165 0.0000
# 3 22.2578 55.4336 94.4342 0.0000 5.1655 0.0000
# 4 0.0000 0.0000 0.0000 16.5944 0.0000 -4.6107
# 5 -4.6288 -1.9165 5.1655 0.0000 13.3383 0.0000
# 6 0.0000 0.0000 0.0000 -4.6107 0.0000 40.8702
#
#
#
# Elastic Compliance Matrix: (Units=1/GPa)
#
#
# Indices 1 2 3 4 5 6 
#
# 1 0.026632 -0.009403 -0.001215 0.000000 0.008361 0.000000
# 2 -0.009403 0.026997 -0.013960 0.000000 0.006022 0.000000
# 3 -0.001215 -0.013960 0.019619 0.000000 -0.010025 0.000000
# 4 0.000000 0.000000 0.000000 0.062211 0.000000 0.007018
# 5 0.008361 0.006022 -0.010025 0.000000 0.082622 0.000000
# 6 0.000000 0.000000 0.000000 0.007018 0.000000 0.025259
#
#
# Mechanical properties :
#
#
# Convention : Reuss Voigt Hill
#
# Bulk Modulus (GPa) = 41.50887 48.61471 45.06179
# Shear Modulus (GPa) = 16.63748 21.75249 19.19498
#
# Velocity S-wave (km/s) = 3.03951 3.47548 3.26478
# Velocity P-wave (km/s) = 5.94707 6.56510 6.26371
#
# Compressibility (1/GPa) = 0.02409124
#
# Stress axis : x y z
#
# Youngs Moduli (GPa) = 37.54911 37.04171 50.97096
#
# Poissons Ratio (x) = 0.34829 0.06193
# Poissons Ratio (y) = 0.35306 0.71158
# Poissons Ratio (z) = 0.04562 0.51712
#
# Static dielectric constant tensor:
#      x y z
#    x 1.631450 0.000000 -0.010250 
#    y 0.000000 1.663530 0.000000 
#    z -0.010250 0.000000 1.597700 
# 
# From -- ./inp_files/238758.got.cif
#   From: 2010.05.17/outbox.cif.g08.bks.cpg/sg15_120_cif.got.tgz:238758.got - 2010.06.03 18:47:42.
