data_PCOD9256865
_publ_section_title
;
Structure prediction by ZEFSAII (Michael W. Deem and Ramdas Pophale) SiO2 
 PCOD9256865
Probable space group: C 2/C
;
_chemical_formula_sum "Si O2"
_cell_formula_units_Z 56
_cell_length_a 15.835202
_cell_length_b 21.883877
_cell_length_c 7.020283
_cell_angle_alpha 90.000000
_cell_angle_beta 70.166342
_cell_angle_gamma 90.000000
_cell_volume 2288.469611
_symmetry_space_group_name_H-M "C 2/C"
_symmetry_group_IT_number 15
_symmetry_cell_setting 'monoclinic'
loop_
_space_group_symop_operation_xyz
x,y,z
-x,y,1/2-z
-x,-y,-z
x,-y,1/2+z
1/2+x,1/2+y,z
1/2-x,1/2+y,1/2-z
1/2-x,1/2-y,-z
1/2+x,1/2-y,1/2+z
loop_
_atom_site_type_symbol
_atom_site_label
_atom_site_fract_x
_atom_site_fract_y
_atom_site_fract_z
Si Si1 0.482935 0.657054 0.485470
Si Si2 0.697878 0.267198 0.340098
Si Si3 0.130348 0.046328 0.004377
Si Si4 0.143355 0.911186 0.929294
Si Si5 0.298432 0.112302 0.762547
Si Si6 0.169237 0.368971 0.803678
Si Si7 0.511053 0.927521 0.465966
O O1 0.500000 0.669221 0.250000
O O2 0.402716 0.704323 0.583123
O O3 0.442836 0.588828 0.539322
O O4 0.579634 0.647927 0.514866
O O5 0.750000 0.250000 0.500000
O O6 0.757512 0.323759 0.223071
O O7 0.685131 0.202298 0.251364
O O8 0.223102 0.059559 0.823535
O O9 0.113594 0.975256 0.040315
O O10 0.134367 0.076056 0.209917
O O11 0.249767 0.902070 0.868605
O O12 0.387144 0.093716 0.583167
O O13 0.316225 0.121593 0.977215
O O14 0.068412 0.393974 0.859896
O O15 0.500000 0.914325 0.250000
O O16 0.500000 0.000000 0.500000
#
# Coordination Sequence:
#
# PCOD9256865 Si02
#       7
#     8   8   8   8   8   8   8
#     4   9  17  27  43  66  92 120 148 183 227 272
#     4   9  16  28  44  67  95 121 148 189 239 275
#     4   9  17  29  45  66  94 123 150 185 226 276
#     4  10  18  30  45  68  97 122 150 186 226 273
#     4   8  16  29  44  65  93 120 150 191 234 274
#     4   9  18  28  44  68  94 120 154 192 230 275
#     4  10  19  31  47  70  95 122 155 192 232 277
#
# _framework density 24.470502
#
# number of rings (size 3 to 8) (size 9 to 14) (size 15 to 20)
#    0.000    2.857    0.000    3.857    0.000    4.000 
#    0.000    0.000    0.000    0.000    0.000   13.000 
#    0.000    9.143    0.000    0.000    0.000    0.000 
#
# Total GULP energy -156296.828683 kJ/mol
# GULP energy per Si atom -5582.029596 kJ/mol
# Density = 2.441481 g / cm^3
# Si number density = 24.470502 Si / 1000 Ang^3
#
#
#
# Elastic Constant Matrix: (Units=GPa)
#
#
# Indices 1 2 3 4 5 6 
#
# 1 110.1243 18.0715 33.5192 0.0000 -26.5947 0.0000
# 2 18.0715 96.0756 5.2371 0.0000 -14.3682 0.0000
# 3 33.5192 5.2371 81.0082 0.0000 -2.1980 0.0000
# 4 0.0000 0.0000 0.0000 10.0961 0.0000 5.0506
# 5 -26.5947 -14.3682 -2.1980 0.0000 39.7834 0.0000
# 6 0.0000 0.0000 0.0000 5.0506 0.0000 22.2577
#
#
#
# Elastic Compliance Matrix: (Units=1/GPa)
#
#
# Indices 1 2 3 4 5 6 
#
# 1 0.012634 -0.000935 -0.004955 0.000000 0.007834 0.000000
# 2 -0.000935 0.011102 -0.000239 0.000000 0.003371 0.000000
# 3 -0.004955 -0.000239 0.014339 0.000000 -0.002606 0.000000
# 4 0.000000 0.000000 0.000000 0.111732 0.000000 -0.025354
# 5 0.007834 0.003371 -0.002606 0.000000 0.031447 0.000000
# 6 0.000000 0.000000 0.000000 -0.025354 0.000000 0.050681
#
#
# Mechanical properties :
#
#
# Convention : Reuss Voigt Hill
#
# Bulk Modulus (GPa) = 38.73382 44.54042 41.63712
# Shear Modulus (GPa) = 19.77862 29.78613 24.78238
#
# Velocity S-wave (km/s) = 2.84608 3.49266 3.18582
# Velocity P-wave (km/s) = 5.16366 5.87419 5.53035
#
# Compressibility (1/GPa) = 0.02581723
#
# Stress axis : x y z
#
# Youngs Moduli (GPa) = 79.15085 90.07770 69.73838
#
# Poissons Ratio (x) = 0.08420 0.34553
# Poissons Ratio (y) = 0.07398 0.01670
# Poissons Ratio (z) = 0.39217 0.02157
#
# Static dielectric constant tensor:
#      x y z
#    x 2.066090 0.000000 0.007890 
#    y 0.000000 1.870130 0.000000 
#    z 0.007890 0.000000 2.087700 
# 
# From -- ./inp_files/42550.got.cif
#   From: 2010.05.17/outbox.cif.g08.bks.cpg/sg15_22_cif.got.tgz:42550.got - 2010.06.03 18:47:42.
