data_PCOD9256544
_publ_section_title
;
Structure prediction by ZEFSAII (Michael W. Deem and Ramdas Pophale) SiO2 
 PCOD9256544
Probable space group: C 2/C
;
_chemical_formula_sum "Si O2"
_cell_formula_units_Z 60
_cell_length_a 30.031411
_cell_length_b 26.228475
_cell_length_c 5.552876
_cell_angle_alpha 90.000000
_cell_angle_beta 126.976679
_cell_angle_gamma 90.000000
_cell_volume 3494.206113
_symmetry_space_group_name_H-M "C 2/C"
_symmetry_group_IT_number 15
_symmetry_cell_setting 'monoclinic'
loop_
_space_group_symop_operation_xyz
x,y,z
-x,y,1/2-z
-x,-y,-z
x,-y,1/2+z
1/2+x,1/2+y,z
1/2-x,1/2+y,1/2-z
1/2-x,1/2-y,-z
1/2+x,1/2-y,1/2+z
loop_
_atom_site_type_symbol
_atom_site_label
_atom_site_fract_x
_atom_site_fract_y
_atom_site_fract_z
Si Si1 0.480828 0.667977 0.943064
Si Si2 0.116387 0.948163 0.292264
Si Si3 0.772300 0.657209 0.313177
Si Si4 0.853575 0.188980 0.579159
Si Si5 0.000000 0.069408 0.250000
Si Si6 0.159188 0.060861 0.434792
Si Si7 0.263786 0.870578 0.282471
Si Si8 0.683561 0.271545 0.040864
O O1 0.500000 0.689074 0.750000
O O2 0.414352 0.664123 0.752442
O O3 0.500000 0.696122 0.250000
O O4 0.508630 0.611474 0.065698
O O5 0.124966 0.924676 0.583932
O O6 0.152339 0.999964 0.425738
O O7 0.052909 0.961677 0.013064
O O8 0.135998 0.919094 0.114867
O O9 0.795931 0.634017 0.636681
O O10 0.787851 0.716700 0.351791
O O11 0.704116 0.655837 0.107887
O O12 0.791378 0.628762 0.133858
O O13 0.847549 0.222716 0.315966
O O14 0.850825 0.218301 0.826333
O O15 0.220601 0.083092 0.616153
O O16 0.228981 0.817135 0.182271
#
# Coordination Sequence:
#
# PCOD9256544 Si02
#       8
#     8   8   8   8   4   8   8   8
#     4  10  23  34  45  67  87 111 161 186 231 285
#     4  10  23  37  48  60  84 103 155 201 236 270
#     4  10  19  30  46  71  89 103 128 166 218 299
#     4  10  18  30  46  61  88 115 128 175 215 273
#     4  10  26  32  54  58  86 108 154 212 248 264
#     4  10  22  35  49  63  78 109 145 179 238 287
#     4  10  18  27  47  62  86 107 126 159 211 283
#     4  10  19  29  47  71  88 103 130 164 222 294
#
# _framework density 17.171282000000001
#
# number of rings (size 3 to 8) (size 9 to 14) (size 15 to 20)
#    0.400    1.600    0.000    5.600    9.333    2.133 
#    0.000    0.000    0.000    0.000    0.000    0.000 
#    0.000    0.000    0.000    0.000    0.000    0.000 
#
# Total GULP energy -167005.886209 kJ/mol
# GULP energy per Si atom -5566.862874 kJ/mol
# Density = 1.713220 g / cm^3
# Si number density = 17.171282 Si / 1000 Ang^3
#
#
#
# Elastic Constant Matrix: (Units=GPa)
#
#
# Indices 1 2 3 4 5 6 
#
# 1 73.6344 6.9813 38.8408 0.0000 -43.0921 0.0000
# 2 6.9813 33.6893 20.2733 0.0000 -0.8073 0.0000
# 3 38.8408 20.2733 92.1289 0.0000 -45.2811 0.0000
# 4 0.0000 0.0000 0.0000 13.0631 0.0000 -6.4358
# 5 -43.0921 -0.8073 -45.2811 0.0000 45.3156 0.0000
# 6 0.0000 0.0000 0.0000 -6.4358 0.0000 9.2192
#
#
#
# Elastic Compliance Matrix: (Units=1/GPa)
#
#
# Indices 1 2 3 4 5 6 
#
# 1 0.033559 -0.010445 0.007357 0.000000 0.039078 0.000000
# 2 -0.010445 0.042326 -0.018514 0.000000 -0.027679 0.000000
# 3 0.007357 -0.018514 0.029679 0.000000 0.036323 0.000000
# 4 0.000000 0.000000 0.000000 0.116681 0.000000 0.081454
# 5 0.039078 -0.027679 0.036323 0.000000 0.095030 0.000000
# 6 0.000000 0.000000 0.000000 0.081454 0.000000 0.165331
#
#
# Mechanical properties :
#
#
# Convention : Reuss Voigt Hill
#
# Bulk Modulus (GPa) = 16.03619 36.84927 26.44273
# Shear Modulus (GPa) = 9.14749 22.41007 15.77878
#
# Velocity S-wave (km/s) = 2.31058 3.61652 3.03463
# Velocity P-wave (km/s) = 4.05926 6.24062 5.26417
#
# Compressibility (1/GPa) = 0.06235896
#
# Stress axis : x y z
#
# Youngs Moduli (GPa) = 29.79801 23.62631 33.69330
#
# Poissons Ratio (x) = 0.24678 -0.24787
# Poissons Ratio (y) = 0.31124 0.62381
# Poissons Ratio (z) = -0.21921 0.43743
#
# Static dielectric constant tensor:
#      x y z
#    x 1.653190 0.000000 -0.079750 
#    y 0.000000 1.630380 0.000000 
#    z -0.079750 0.000000 1.665340 
# 
# From -- ./inp_files/17857.got.cif
#   From: 2010.05.17/outbox.cif.g08.bks.cpg/sg15_9_cif.got.tgz:17857.got - 2010.06.03 18:47:42.
