data_PCOD9256418
_publ_section_title
;
Structure prediction by ZEFSAII (Michael W. Deem and Ramdas Pophale) SiO2 
 PCOD9256418
Probable space group: C 2/C
;
_chemical_formula_sum "Si O2"
_cell_formula_units_Z 56
_cell_length_a 26.815707
_cell_length_b 20.331102
_cell_length_c 5.371692
_cell_angle_alpha 90.000000
_cell_angle_beta 66.321384
_cell_angle_gamma 90.000000
_cell_volume 2682.056130
_symmetry_space_group_name_H-M "C 2/C"
_symmetry_group_IT_number 15
_symmetry_cell_setting 'monoclinic'
loop_
_space_group_symop_operation_xyz
x,y,z
-x,y,1/2-z
-x,-y,-z
x,-y,1/2+z
1/2+x,1/2+y,z
1/2-x,1/2+y,1/2-z
1/2-x,1/2-y,-z
1/2+x,1/2-y,1/2+z
loop_
_atom_site_type_symbol
_atom_site_label
_atom_site_fract_x
_atom_site_fract_y
_atom_site_fract_z
Si Si1 0.000000 0.543008 0.250000
Si Si2 0.586351 0.866243 0.716869
Si Si3 0.317774 0.955503 0.801749
Si Si4 0.964863 0.905218 0.563613
Si Si5 0.304581 0.578679 0.008344
Si Si6 0.500000 0.815532 0.250000
Si Si7 0.650703 0.568535 0.080320
Si Si8 0.559677 0.259078 0.005453
O O1 0.057618 0.582557 0.089899
O O2 0.000000 0.500000 0.500000
O O3 0.635859 0.900810 0.754225
O O4 0.596684 0.794129 0.574400
O O5 0.533246 0.858596 0.994729
O O6 0.321027 0.995626 0.534946
O O7 0.259050 0.919593 0.920488
O O8 0.912122 0.947705 0.736634
O O9 0.935792 0.836770 0.535011
O O10 0.000000 0.897147 0.750000
O O11 0.000000 0.926684 0.250000
O O12 0.339976 0.603596 0.703318
O O13 0.318992 0.501118 0.008032
O O14 0.321913 0.605825 0.242195
O O15 0.547874 0.769633 0.258667
O O16 0.500000 0.251929 0.250000
#
# Coordination Sequence:
#
# PCOD9256418 Si02
#       8
#     4   8   8   8   8   4   8   8
#     4  12  23  34  46  76 114 142 177 224 302 336
#     4  11  23  34  57  79 114 158 189 248 285 350
#     4  12  23  39  59  87 111 148 212 243 280 339
#     4  11  22  37  60  96 119 148 194 236 276 353
#     4  10  19  40  59  82 112 162 190 232 294 346
#     4  10  17  38  54  76 112 156 189 224 302 344
#     4  10  19  37  62  85 118 152 192 226 294 345
#     4   9  19  36  56  77 116 156 194 229 289 346
#
# _framework density 20.879501999999999
#
# number of rings (size 3 to 8) (size 9 to 14) (size 15 to 20)
#    0.000    1.429    5.714    2.143    2.000    0.000 
#    0.000    8.571    0.000    1.714    0.000    0.000 
#    0.000    0.000    0.000    0.000    0.000    0.000 
#
# Total GULP energy -155891.619424 kJ/mol
# GULP energy per Si atom -5567.557837 kJ/mol
# Density = 2.083198 g / cm^3
# Si number density = 20.879502 Si / 1000 Ang^3
#
#
#
# Elastic Constant Matrix: (Units=GPa)
#
#
# Indices 1 2 3 4 5 6 
#
# 1 68.2798 6.8148 -1.2947 0.0000 -5.5866 0.0000
# 2 6.8148 20.6247 -4.3438 0.0000 -8.5635 0.0000
# 3 -1.2947 -4.3438 65.6808 0.0000 25.3944 0.0000
# 4 0.0000 0.0000 0.0000 10.3696 0.0000 0.0610
# 5 -5.5866 -8.5635 25.3944 0.0000 36.2054 0.0000
# 6 0.0000 0.0000 0.0000 0.0610 0.0000 12.6290
#
#
#
# Elastic Compliance Matrix: (Units=1/GPa)
#
#
# Indices 1 2 3 4 5 6 
#
# 1 0.015221 -0.004435 -0.000680 0.000000 0.001777 0.000000
# 2 -0.004435 0.055225 -0.001675 0.000000 0.013553 0.000000
# 3 -0.000680 -0.001675 0.020986 0.000000 -0.015220 0.000000
# 4 0.000000 0.000000 0.000000 0.096438 0.000000 -0.000466
# 5 0.001777 0.013553 -0.015220 0.000000 0.041775 0.000000
# 6 0.000000 0.000000 0.000000 -0.000466 0.000000 0.079185
#
#
# Mechanical properties :
#
#
# Convention : Reuss Voigt Hill
#
# Bulk Modulus (GPa) = 12.84496 17.43756 15.14126
# Shear Modulus (GPa) = 14.35295 22.06809 18.21052
#
# Velocity S-wave (km/s) = 2.62471 3.25457 2.95646
# Velocity P-wave (km/s) = 3.91801 4.74264 4.34991
#
# Compressibility (1/GPa) = 0.07785154
#
# Stress axis : x y z
#
# Youngs Moduli (GPa) = 65.69994 18.10767 47.65154
#
# Poissons Ratio (x) = 0.08030 0.03241
# Poissons Ratio (y) = 0.29136 0.07982
# Poissons Ratio (z) = 0.04469 0.03033
#
# Static dielectric constant tensor:
#      x y z
#    x 1.832530 0.000000 0.085890 
#    y 0.000000 2.042080 0.000000 
#    z 0.085890 0.000000 1.628880 
# 
# From -- ./inp_files/16120.got.cif
#   From: 2010.05.17/outbox.cif.g08.bks.cpg/sg15_9_cif.got.tgz:16120.got - 2010.06.03 18:47:42.
