data_PCOD9256653
_publ_section_title
;
Structure prediction by ZEFSAII (Michael W. Deem and Ramdas Pophale) SiO2 
 PCOD9256653
Probable space group: C 2/C
;
_chemical_formula_sum "Si O2"
_cell_formula_units_Z 60
_cell_length_a 16.151155
_cell_length_b 25.877186
_cell_length_c 11.084687
_cell_angle_alpha 90.000000
_cell_angle_beta 57.300921
_cell_angle_gamma 90.000000
_cell_volume 3898.596004
_symmetry_space_group_name_H-M "C 2/C"
_symmetry_group_IT_number 15
_symmetry_cell_setting 'monoclinic'
loop_
_space_group_symop_operation_xyz
x,y,z
-x,y,1/2-z
-x,-y,-z
x,-y,1/2+z
1/2+x,1/2+y,z
1/2-x,1/2+y,1/2-z
1/2-x,1/2-y,-z
1/2+x,1/2-y,1/2+z
loop_
_atom_site_type_symbol
_atom_site_label
_atom_site_fract_x
_atom_site_fract_y
_atom_site_fract_z
Si Si1 0.500000 0.319796 0.250000
Si Si2 0.802799 0.782871 0.062787
Si Si3 0.822927 0.287542 0.102461
Si Si4 0.886331 0.108655 0.013525
Si Si5 0.949285 0.728381 0.112997
Si Si6 0.562115 0.503163 0.075810
Si Si7 0.059023 0.881639 0.579506
Si Si8 0.779446 0.678544 0.382050
O O1 0.578868 0.356829 0.126768
O O2 0.454884 0.280956 0.187683
O O3 0.726046 0.796923 0.229940
O O4 0.883695 0.743398 0.051615
O O5 0.750000 0.750000 0.000000
O O6 0.862889 0.835329 0.987371
O O7 0.783493 0.230410 0.096925
O O8 0.789846 0.324225 0.018435
O O9 0.940806 0.286687 0.008247
O O10 0.875917 0.049223 0.983431
O O11 0.781639 0.132653 0.130529
O O12 0.974317 0.117535 0.041563
O O13 0.887143 0.688096 0.241480
O O14 0.500000 0.499530 0.250000
O O15 0.606643 0.560845 0.040426
O O16 0.500000 0.500000 0.000000
O O17 0.000000 0.876242 0.750000
#
# Coordination Sequence:
#
# PCOD9256653 Si02
#       8
#     4   8   8   8   8   8   8   8
#     4  12  16  28  52  68 100 130 152 206 248 296
#     4  11  24  31  48  70  96 141 175 191 239 305
#     4  10  19  32  45  70 100 127 162 204 245 290
#     4  11  19  30  53  76  98 130 165 198 254 305
#     4  11  20  33  47  71 105 131 159 210 253 288
#     4   9  19  33  50  73  99 133 164 202 256 306
#     4  10  22  36  48  68 107 134 162 209 245 290
#     4  10  18  28  50  74  96 124 165 199 253 301
#
# _framework density 15.390155999999999
#
# number of rings (size 3 to 8) (size 9 to 14) (size 15 to 20)
#    0.000    1.600    4.667    1.600    5.600    0.000 
#    0.000    0.000    0.000    0.000    0.000    0.933 
#    4.000    0.000    0.000    0.000    0.000    0.000 
#
# Total GULP energy -167044.920486 kJ/mol
# GULP energy per Si atom -5568.164016 kJ/mol
# Density = 1.535513 g / cm^3
# Si number density = 15.390156 Si / 1000 Ang^3
#
#
#
# Elastic Constant Matrix: (Units=GPa)
#
#
# Indices 1 2 3 4 5 6 
#
# 1 95.8080 37.8745 43.1433 0.0000 -2.6083 0.0000
# 2 37.8745 95.6969 48.5328 0.0000 -1.3143 0.0000
# 3 43.1433 48.5328 84.6890 0.0000 -10.8153 0.0000
# 4 0.0000 0.0000 0.0000 15.7181 0.0000 -0.4073
# 5 -2.6083 -1.3143 -10.8153 0.0000 28.6201 0.0000
# 6 0.0000 0.0000 0.0000 -0.4073 0.0000 16.0856
#
#
#
# Elastic Compliance Matrix: (Units=1/GPa)
#
#
# Indices 1 2 3 4 5 6 
#
# 1 0.014057 -0.002650 -0.005773 0.000000 -0.001022 0.000000
# 2 -0.002650 0.015423 -0.007806 0.000000 -0.002483 0.000000
# 3 -0.005773 -0.007806 0.020078 0.000000 0.006703 0.000000
# 4 0.000000 0.000000 0.000000 0.063663 0.000000 0.001612
# 5 -0.001022 -0.002483 0.006703 0.000000 0.037266 0.000000
# 6 0.000000 0.000000 0.000000 0.001612 0.000000 0.062208
#
#
# Mechanical properties :
#
#
# Convention : Reuss Voigt Hill
#
# Bulk Modulus (GPa) = 58.47607 59.47721 58.97664
# Shear Modulus (GPa) = 19.93207 21.86100 20.89653
#
# Velocity S-wave (km/s) = 3.60268 3.77298 3.68881
# Velocity P-wave (km/s) = 7.44204 7.59675 7.51979
#
# Compressibility (1/GPa) = 0.01710101
#
# Stress axis : x y z
#
# Youngs Moduli (GPa) = 71.13983 64.83884 49.80535
#
# Poissons Ratio (x) = 0.17179 0.28754
# Poissons Ratio (y) = 0.18849 0.38877
# Poissons Ratio (z) = 0.41070 0.50611
#
# Static dielectric constant tensor:
#      x y z
#    x 1.510350 0.000000 -0.020780 
#    y 0.000000 1.521310 0.000000 
#    z -0.020780 0.000000 1.529430 
# 
# From -- ./inp_files/100470.got.cif
#   From: 2010.05.17/outbox.cif.g08.bks.cpg/sg15_51_cif.got.tgz:100470.got - 2010.06.03 18:47:42.
