data_PCOD9256713
_publ_section_title
;
Structure prediction by ZEFSAII (Michael W. Deem and Ramdas Pophale) SiO2 
 PCOD9256713
Probable space group: C 2/C
;
_chemical_formula_sum "Si O2"
_cell_formula_units_Z 40
_cell_length_a 6.674220
_cell_length_b 27.259835
_cell_length_c 16.041750
_cell_angle_alpha 90.000000
_cell_angle_beta 28.551665
_cell_angle_gamma 90.000000
_cell_volume 1394.950750
_symmetry_space_group_name_H-M "C 2/C"
_symmetry_group_IT_number 15
_symmetry_cell_setting 'monoclinic'
loop_
_space_group_symop_operation_xyz
x,y,z
-x,y,1/2-z
-x,-y,-z
x,-y,1/2+z
1/2+x,1/2+y,z
1/2-x,1/2+y,1/2-z
1/2-x,1/2-y,-z
1/2+x,1/2-y,1/2+z
loop_
_atom_site_type_symbol
_atom_site_label
_atom_site_fract_x
_atom_site_fract_y
_atom_site_fract_z
Si Si1 0.360167 0.982756 0.186908
Si Si2 0.844373 0.815869 0.550925
Si Si3 0.308857 0.577873 0.012553
Si Si4 0.568722 0.788288 0.461642
Si Si5 0.497432 0.892114 0.458113
O O1 0.571695 0.032243 0.138843
O O2 0.000000 0.993935 0.250000
O O3 0.650521 0.941383 0.034779
O O4 0.147340 0.951525 0.336057
O O5 0.500000 0.817889 0.750000
O O6 0.986645 0.872478 0.487875
O O7 0.665202 0.802391 0.523188
O O8 0.121635 0.766630 0.466157
O O9 0.987637 0.596711 0.059226
O O10 0.335172 0.836376 0.509865
O O11 0.000000 0.784336 0.250000
O O12 0.000000 0.888163 0.250000
#
# Coordination Sequence:
#
# PCOD9256713 Si02
#       5
#     8   8   8   8   8
#     4   9  15  25  43  69  95 119 158 205 244 288
#     4   9  17  29  46  69  96 127 165 201 238 292
#     4  10  18  29  44  66  97 132 167 203 245 295
#     4   8  13  24  43  66  89 115 153 202 245 277
#     4   7  11  20  37  62  87 109 142 192 241 277
#
# _framework density 28.674847
#
# number of rings (size 3 to 8) (size 9 to 14) (size 15 to 20)
#    0.000    3.800    0.000    4.400    0.000    0.000 
#    0.000    1.000    0.000    1.800    0.000   21.400 
#    0.000   11.600    0.000    0.000    0.000    0.000 
#
# Total GULP energy -111677.199960 kJ/mol
# GULP energy per Si atom -5583.859998 kJ/mol
# Density = 2.860958 g / cm^3
# Si number density = 28.674847 Si / 1000 Ang^3
#
#
#
# Elastic Constant Matrix: (Units=GPa)
#
#
# Indices 1 2 3 4 5 6 
#
# 1 101.3720 80.4765 49.6705 0.0000 6.5838 0.0000
# 2 80.4765 380.0986 32.1338 0.0000 22.4676 0.0000
# 3 49.6705 32.1338 95.8624 0.0001 40.3825 0.0002
# 4 0.0000 0.0000 0.0001 17.8501 0.0000 -4.4275
# 5 6.5838 22.4676 40.3825 0.0000 40.3146 0.0000
# 6 0.0000 0.0000 0.0002 -4.4275 0.0000 56.2576
#
#
#
# Elastic Compliance Matrix: (Units=1/GPa)
#
#
# Indices 1 2 3 4 5 6 
#
# 1 0.018630 -0.003530 -0.013869 0.000000 0.012817 0.000000
# 2 -0.003530 0.003402 0.002153 0.000000 -0.003476 0.000000
# 3 -0.013869 0.002153 0.028454 0.000000 -0.027437 0.000000
# 4 0.000000 0.000000 0.000000 0.057138 0.000000 0.004497
# 5 0.012817 -0.003476 -0.027437 0.000000 0.052132 0.000000
# 6 0.000000 0.000000 0.000000 0.004497 0.000000 0.018129
#
#
# Mechanical properties :
#
#
# Convention : Reuss Voigt Hill
#
# Bulk Modulus (GPa) = 50.01551 100.21049 75.11300
# Shear Modulus (GPa) = 23.25145 50.55459 36.90302
#
# Velocity S-wave (km/s) = 2.85066 4.20340 3.59130
# Velocity P-wave (km/s) = 5.32120 7.65383 6.59152
#
# Compressibility (1/GPa) = 0.01999380
#
# Stress axis : x y z
#
# Youngs Moduli (GPa) = 53.67750 293.97590 35.14442
#
# Poissons Ratio (x) = 1.03759 0.48742
# Poissons Ratio (y) = 0.18946 -0.07565
# Poissons Ratio (z) = 0.74445 -0.63283
#
# Static dielectric constant tensor:
#      x y z
#    x 1.671870 0.000000 0.877540 
#    y 0.000000 2.227500 0.000000 
#    z 0.877540 0.000000 1.259040 
# 
# From -- ./inp_files/192834.got.cif
#   From: 2010.05.17/outbox.cif.g08.bks.cpg/sg15_97_cif.got.tgz:192834.got - 2010.06.03 18:47:42.
