data_PCOD9256001
_publ_section_title
;
Structure prediction by ZEFSAII (Michael W. Deem and Ramdas Pophale) SiO2 
 PCOD9256001
Probable space group: C 2/C
;
_chemical_formula_sum "Si O2"
_cell_formula_units_Z 44
_cell_length_a 12.929830
_cell_length_b 15.492712
_cell_length_c 11.495749
_cell_angle_alpha 90.000000
_cell_angle_beta 90.088804
_cell_angle_gamma 90.000000
_cell_volume 2302.804204
_symmetry_space_group_name_H-M "C 2/C"
_symmetry_group_IT_number 15
_symmetry_cell_setting 'monoclinic'
loop_
_space_group_symop_operation_xyz
x,y,z
-x,y,1/2-z
-x,-y,-z
x,-y,1/2+z
1/2+x,1/2+y,z
1/2-x,1/2+y,1/2-z
1/2-x,1/2-y,-z
1/2+x,1/2-y,1/2+z
loop_
_atom_site_type_symbol
_atom_site_label
_atom_site_fract_x
_atom_site_fract_y
_atom_site_fract_z
Si Si1 0.113961 0.822841 0.206263
Si Si2 0.000000 0.279990 0.250000
Si Si3 0.200225 0.311001 0.139281
Si Si4 0.378010 0.475615 0.734030
Si Si5 0.662417 0.376212 0.543215
Si Si6 0.930024 0.144808 0.049859
O O1 0.208930 0.779918 0.273742
O O2 0.000000 0.795303 0.250000
O O3 0.128515 0.923299 0.243001
O O4 0.118466 0.817462 0.067331
O O5 0.903826 0.335965 0.294484
O O6 0.953407 0.216712 0.149004
O O7 0.164770 0.226038 0.069706
O O8 0.250409 0.382099 0.054717
O O9 0.500000 0.455043 0.750000
O O10 0.319243 0.427758 0.838418
O O11 0.361056 0.430206 0.609466
O O12 0.542552 0.393254 0.508847
#
# Coordination Sequence:
#
# PCOD9256001 Si02
#       6
#     8   4   8   8   8   8
#     4  11  22  28  51  85 108 123 164 213 260 302
#     4  10  20  38  52  68 100 146 178 198 248 294
#     4  10  19  33  52  75  97 139 173 207 237 304
#     4   9  18  31  49  76 108 133 153 205 267 308
#     4   9  17  33  53  69 102 139 171 194 252 308
#     4  10  17  34  49  75 106 132 161 208 258 305
#
# _framework density 19.107139
#
# number of rings (size 3 to 8) (size 9 to 14) (size 15 to 20)
#    0.000    2.182    6.364    0.000    2.545    2.909 
#    0.000    0.000    0.000    1.091    2.364    0.000 
#    0.000    0.000    0.000    0.000    0.000    0.000 
#
# Total GULP energy -122490.401838 kJ/mol
# GULP energy per Si atom -5567.745538 kJ/mol
# Density = 1.906365 g / cm^3
# Si number density = 19.107139 Si / 1000 Ang^3
#
#
#
# Elastic Constant Matrix: (Units=GPa)
#
#
# Indices 1 2 3 4 5 6 
#
# 1 86.7593 7.9321 32.0497 0.0000 -28.2777 0.0000
# 2 7.9321 23.8828 5.9645 0.0000 -7.9783 0.0000
# 3 32.0497 5.9645 110.1821 0.0000 -11.7622 0.0000
# 4 0.0000 0.0000 0.0000 7.8224 0.0000 -3.1793
# 5 -28.2777 -7.9783 -11.7622 0.0000 30.1570 0.0000
# 6 0.0000 0.0000 0.0000 -3.1793 0.0000 11.0284
#
#
#
# Elastic Compliance Matrix: (Units=1/GPa)
#
#
# Indices 1 2 3 4 5 6 
#
# 1 0.017838 0.000096 -0.003554 0.000000 0.015366 0.000000
# 2 0.000096 0.046094 -0.001264 0.000000 0.011792 0.000000
# 3 -0.003554 -0.001264 0.010212 0.000000 0.000316 0.000000
# 4 0.000000 0.000000 0.000000 0.144803 0.000000 0.041744
# 5 0.015366 0.011792 0.000316 0.000000 0.050811 0.000000
# 6 0.000000 0.000000 0.000000 0.041744 0.000000 0.102710
#
#
# Mechanical properties :
#
#
# Convention : Reuss Voigt Hill
#
# Bulk Modulus (GPa) = 15.45583 34.74634 25.10108
# Shear Modulus (GPa) = 12.39221 21.46008 16.92614
#
# Velocity S-wave (km/s) = 2.54946 3.35497 2.97956
# Velocity P-wave (km/s) = 4.09547 5.76474 5.00026
#
# Compressibility (1/GPa) = 0.06470051
#
# Stress axis : x y z
#
# Youngs Moduli (GPa) = 56.05858 21.69474 97.92614
#
# Poissons Ratio (x) = -0.00209 0.34800
# Poissons Ratio (y) = -0.00539 0.12382
# Poissons Ratio (z) = 0.19921 0.02743
#
# Static dielectric constant tensor:
#      x y z
#    x 1.693750 0.000000 -0.032110 
#    y 0.000000 1.671310 0.000000 
#    z -0.032110 0.000000 1.801030 
# 
# From -- ./inp_files/95690.got.cif
#   From: 2010.05.17/outbox.cif.g08.bks.cpg/sg15_48_cif.got.tgz:95690.got - 2010.06.03 18:47:42.
