data_PCOD9256667
_publ_section_title
;
Structure prediction by ZEFSAII (Michael W. Deem and Ramdas Pophale) SiO2 
 PCOD9256667
Probable space group: C 2/C
;
_chemical_formula_sum "Si O2"
_cell_formula_units_Z 52
_cell_length_a 14.208420
_cell_length_b 19.426717
_cell_length_c 12.382134
_cell_angle_alpha 90.000000
_cell_angle_beta 138.200606
_cell_angle_gamma 90.000000
_cell_volume 2278.016540
_symmetry_space_group_name_H-M "C 2/C"
_symmetry_group_IT_number 15
_symmetry_cell_setting 'monoclinic'
loop_
_space_group_symop_operation_xyz
x,y,z
-x,y,1/2-z
-x,-y,-z
x,-y,1/2+z
1/2+x,1/2+y,z
1/2-x,1/2+y,1/2-z
1/2-x,1/2-y,-z
1/2+x,1/2-y,1/2+z
loop_
_atom_site_type_symbol
_atom_site_label
_atom_site_fract_x
_atom_site_fract_y
_atom_site_fract_z
Si Si1 0.347379 0.194661 0.871432
Si Si2 0.342972 0.034400 0.583008
Si Si3 0.600386 0.451952 0.732461
Si Si4 0.000000 0.180370 0.750000
Si Si5 0.122426 0.705977 0.187542
Si Si6 0.793896 0.378489 0.544835
Si Si7 0.849857 0.924394 0.386382
O O1 0.276065 0.267157 0.786272
O O2 0.248050 0.138645 0.731319
O O3 0.514497 0.192955 0.998241
O O4 0.340820 0.176091 0.993891
O O5 0.500000 0.057809 0.750000
O O6 0.252340 0.070775 0.410095
O O7 0.243898 0.037594 0.603602
O O8 0.344984 0.953550 0.554968
O O9 0.500000 0.463037 0.750000
O O10 0.502263 0.406866 0.568653
O O11 0.623732 0.523097 0.688409
O O12 0.061624 0.229785 0.708467
O O13 0.874323 0.132975 0.597633
O O14 0.143069 0.642681 0.286357
#
# Coordination Sequence:
#
# PCOD9256667 Si02
#       7
#     8   8   8   4   8   8   8
#     4  11  20  36  54  83 119 152 187 239 280 359
#     4  11  23  38  59  87 123 158 192 242 299 340
#     4   9  20  39  57  84 114 156 199 235 285 347
#     4  10  18  28  52  78 108 164 192 218 272 364
#     4  11  19  34  50  81 116 156 194 222 293 348
#     4  11  20  32  54  81 123 156 189 229 290 353
#     4  10  22  38  60  84 120 157 201 237 286 352
#
# _framework density 22.826875999999999
#
# number of rings (size 3 to 8) (size 9 to 14) (size 15 to 20)
#    0.000    1.538    4.615    1.846    3.231    1.846 
#    0.000    0.000    0.000    0.000    0.000   14.000 
#    0.000    0.000    0.000    0.000    0.000    0.000 
#
# Total GULP energy -145174.139572 kJ/mol
# GULP energy per Si atom -5583.620753 kJ/mol
# Density = 2.277492 g / cm^3
# Si number density = 22.826876 Si / 1000 Ang^3
#
#
#
# Elastic Constant Matrix: (Units=GPa)
#
#
# Indices 1 2 3 4 5 6 
#
# 1 29.5176 -4.1228 27.2163 0.0000 11.4643 0.0000
# 2 -4.1228 28.7786 32.4322 0.0000 9.2563 0.0000
# 3 27.2163 32.4322 231.0659 0.0000 43.7655 0.0000
# 4 0.0000 0.0000 0.0000 38.4997 0.0000 9.0338
# 5 11.4643 9.2563 43.7655 0.0000 36.1624 0.0000
# 6 0.0000 0.0000 0.0000 9.0338 0.0000 11.0806
#
#
#
# Elastic Compliance Matrix: (Units=1/GPa)
#
#
# Indices 1 2 3 4 5 6 
#
# 1 0.045973 0.016649 -0.005428 0.000000 -0.012266 0.000000
# 2 0.016649 0.047908 -0.006958 0.000000 -0.009120 0.000000
# 3 -0.005428 -0.006958 0.006851 0.000000 -0.004789 0.000000
# 4 0.000000 0.000000 0.000000 0.032119 0.000000 -0.026186
# 5 -0.012266 -0.009120 -0.004789 0.000000 0.039672 0.000000
# 6 0.000000 0.000000 0.000000 -0.026186 0.000000 0.111596
#
#
# Mechanical properties :
#
#
# Convention : Reuss Voigt Hill
#
# Bulk Modulus (GPa) = 9.15275 44.49038 26.82156
# Shear Modulus (GPa) = 16.02498 32.73762 24.38130
#
# Velocity S-wave (km/s) = 2.65245 3.79115 3.27172
# Velocity P-wave (km/s) = 3.66046 6.22065 5.10369
#
# Compressibility (1/GPa) = 0.10925680
#
# Stress axis : x y z
#
# Youngs Moduli (GPa) = 21.75195 20.87343 145.96601
#
# Poissons Ratio (x) = -0.34752 0.79237
# Poissons Ratio (y) = -0.36215 1.01562
# Poissons Ratio (z) = 0.11808 0.14524
#
# Static dielectric constant tensor:
#      x y z
#    x 1.898580 0.000000 0.061730 
#    y 0.000000 1.852830 0.000000 
#    z 0.061730 0.000000 1.947070 
# 
# From -- ./inp_files/100699.got.cif
#   From: 2010.05.17/outbox.cif.g08.bks.cpg/sg15_51_cif.got.tgz:100699.got - 2010.06.03 18:47:42.
