data_PCOD9256725
_publ_section_title
;
Structure prediction by ZEFSAII (Michael W. Deem and Ramdas Pophale) SiO2 
 PCOD9256725
Probable space group: C 2/C
;
_chemical_formula_sum "Si O2"
_cell_formula_units_Z 56
_cell_length_a 18.209806
_cell_length_b 20.177225
_cell_length_c 19.326542
_cell_angle_alpha 90.000000
_cell_angle_beta 152.424122
_cell_angle_gamma 90.000000
_cell_volume 3287.226060
_symmetry_space_group_name_H-M "C 2/C"
_symmetry_group_IT_number 15
_symmetry_cell_setting 'monoclinic'
loop_
_space_group_symop_operation_xyz
x,y,z
-x,y,1/2-z
-x,-y,-z
x,-y,1/2+z
1/2+x,1/2+y,z
1/2-x,1/2+y,1/2-z
1/2-x,1/2-y,-z
1/2+x,1/2-y,1/2+z
loop_
_atom_site_type_symbol
_atom_site_label
_atom_site_fract_x
_atom_site_fract_y
_atom_site_fract_z
Si Si1 0.022493 0.924648 0.493789
Si Si2 0.273647 0.662795 0.871465
Si Si3 0.540014 0.532153 0.858038
Si Si4 0.515369 0.221156 0.560681
Si Si5 0.819234 0.433801 0.083264
Si Si6 0.369094 0.392742 0.696073
Si Si7 0.243754 0.164701 0.255669
O O1 0.884465 0.880216 0.412636
O O2 0.188685 0.895327 0.661162
O O3 0.000000 0.000000 0.500000
O O4 0.015679 0.924639 0.405326
O O5 0.106764 0.679942 0.695644
O O6 0.246127 0.619796 0.916559
O O7 0.373895 0.730051 0.968638
O O8 0.500000 0.562923 0.750000
O O9 0.432127 0.465222 0.771634
O O10 0.715137 0.500231 0.003386
O O11 0.426227 0.178408 0.427348
O O12 0.655910 0.270176 0.652654
O O13 0.000000 0.446120 0.250000
O O14 0.786411 0.404924 0.979610
O O15 0.500000 0.367114 0.750000
O O16 0.337627 0.350590 0.737480
#
# Coordination Sequence:
#
# PCOD9256725 Si02
#       7
#     8   8   8   8   8   8   8
#     4  11  17  32  54  75  93 126 171 205 248 300
#     4  10  19  33  51  70  99 133 175 205 242 292
#     4   9  18  32  49  69  97 131 160 196 252 303
#     4   9  19  33  45  68  98 130 166 208 243 279
#     4  10  18  29  45  69 103 136 164 203 244 275
#     4   9  16  28  43  62  92 129 161 195 237 278
#     4  10  18  31  48  66  94 125 164 202 239 291
#
# _framework density 17.035640000000001
#
# number of rings (size 3 to 8) (size 9 to 14) (size 15 to 20)
#    0.000    2.571    2.857    3.429    0.000    0.000 
#    0.000   17.857    0.000    0.000    0.000   16.000 
#    0.000    0.000    0.000    0.000    0.000    0.000 
#
# Total GULP energy -155935.604284 kJ/mol
# GULP energy per Si atom -5569.128724 kJ/mol
# Density = 1.699687 g / cm^3
# Si number density = 17.035640 Si / 1000 Ang^3
#
#
#
# Elastic Constant Matrix: (Units=GPa)
#
#
# Indices 1 2 3 4 5 6 
#
# 1 58.0435 23.1317 35.8365 0.0013 -20.1616 -0.0006
# 2 23.1317 41.0668 31.3204 0.0072 -12.1536 -0.0006
# 3 35.8365 31.3204 158.4261 0.0100 -9.0194 -0.0005
# 4 0.0013 0.0072 0.0100 29.9753 0.0025 -7.4901
# 5 -20.1616 -12.1536 -9.0194 0.0025 25.2301 0.0006
# 6 -0.0006 -0.0006 -0.0005 -7.4901 0.0006 6.0887
#
#
#
# Elastic Compliance Matrix: (Units=1/GPa)
#
#
# Indices 1 2 3 4 5 6 
#
# 1 0.029141 -0.008061 -0.003974 0.000001 0.017983 0.000000
# 2 -0.008061 0.034991 -0.004595 -0.000010 0.008771 -0.000011
# 3 -0.003974 -0.004595 0.007975 -0.000002 -0.002538 -0.000002
# 4 0.000001 -0.000010 -0.000002 0.048167 -0.000011 0.059253
# 5 0.017983 0.008771 -0.002538 -0.000011 0.057324 -0.000017
# 6 0.000000 -0.000011 -0.000002 0.059253 -0.000017 0.237130
#
#
# Mechanical properties :
#
#
# Convention : Reuss Voigt Hill
#
# Bulk Modulus (GPa) = 25.74213 48.67929 37.21071
# Shear Modulus (GPa) = 10.84743 23.40867 17.12805
#
# Velocity S-wave (km/s) = 2.52613 3.71091 3.17428
# Velocity P-wave (km/s) = 4.86333 6.85552 5.94349
#
# Compressibility (1/GPa) = 0.03884682
#
# Stress axis : x y z
#
# Youngs Moduli (GPa) = 34.31538 28.57842 125.39199
#
# Poissons Ratio (x) = 0.23038 0.49836
# Poissons Ratio (y) = 0.27663 0.57616
# Poissons Ratio (z) = 0.13638 0.13131
#
# Static dielectric constant tensor:
#      x y z
#    x 1.573040 0.000000 0.003300 
#    y 0.000000 1.596420 0.000000 
#    z 0.003300 0.000000 1.629670 
# 
# From -- ./inp_files/211905.got.cif
#   From: 2010.05.17/outbox.cif.g08.bks.cpg/sg15_106_cif.got.tgz:211905.got - 2010.06.03 18:47:42.
