data_PCOD9256003
_publ_section_title
;
Structure prediction by ZEFSAII (Michael W. Deem and Ramdas Pophale) SiO2 
 PCOD9256003
Probable space group: C 2/C
;
_chemical_formula_sum "Si O2"
_cell_formula_units_Z 52
_cell_length_a 12.343265
_cell_length_b 18.643980
_cell_length_c 15.113615
_cell_angle_alpha 90.000000
_cell_angle_beta 128.650094
_cell_angle_gamma 90.000000
_cell_volume 2716.276700
_symmetry_space_group_name_H-M "C 2/C"
_symmetry_group_IT_number 15
_symmetry_cell_setting 'monoclinic'
loop_
_space_group_symop_operation_xyz
x,y,z
-x,y,1/2-z
-x,-y,-z
x,-y,1/2+z
1/2+x,1/2+y,z
1/2-x,1/2+y,1/2-z
1/2-x,1/2-y,-z
1/2+x,1/2-y,1/2+z
loop_
_atom_site_type_symbol
_atom_site_label
_atom_site_fract_x
_atom_site_fract_y
_atom_site_fract_z
Si Si1 0.827939 0.822507 0.708074
Si Si2 0.798071 0.574498 0.641625
Si Si3 0.044386 0.908343 0.894751
Si Si4 0.570248 0.099976 0.095458
Si Si5 0.000000 0.959701 0.250000
Si Si6 0.197201 0.441386 0.146330
Si Si7 0.000000 0.447279 0.750000
Si Si8 0.500000 0.190540 0.750000
O O1 0.877177 0.861239 0.641435
O O2 0.664695 0.831327 0.625188
O O3 0.896726 0.868729 0.822650
O O4 0.895805 0.744465 0.746396
O O5 0.643818 0.584715 0.528273
O O6 0.805873 0.577942 0.751622
O O7 0.872857 0.499761 0.656795
O O8 0.895377 0.636075 0.648472
O O9 0.017684 0.986835 0.842318
O O10 0.539924 0.095741 0.183878
O O11 0.660587 0.027238 0.119374
O O12 0.428672 0.096182 0.968821
O O13 0.850144 0.923854 0.187039
#
# Coordination Sequence:
#
# PCOD9256003 Si02
#       8
#     8   8   8   8   4   8   4   4
#     4   9  19  33  53  72 103 144 173 213 258 312
#     4  10  20  33  48  83 110 135 171 216 272 308
#     4   9  17  31  49  76 105 135 172 216 249 316
#     4  10  18  35  50  78 103 141 178 211 270 310
#     4  10  17  34  49  79 104 151 174 210 266 318
#     4  10  20  31  54  73 112 139 168 221 266 321
#     4   9  20  30  51  77 106 135 170 220 256 321
#     4   9  21  36  52  82 108 140 178 216 266 313
#
# _framework density 19.143851999999999
#
# number of rings (size 3 to 8) (size 9 to 14) (size 15 to 20)
#    0.000    2.769    3.077    0.923    6.462    3.077 
#    2.769    0.000    0.000    0.923    0.000    2.154 
#    0.000    0.000    0.000    0.000    0.000    0.000 
#
# Total GULP energy -144831.877412 kJ/mol
# GULP energy per Si atom -5570.456824 kJ/mol
# Density = 1.910028 g / cm^3
# Si number density = 19.143852 Si / 1000 Ang^3
#
#
#
# Elastic Constant Matrix: (Units=GPa)
#
#
# Indices 1 2 3 4 5 6 
#
# 1 78.7878 12.1517 27.2565 0.0000 23.2509 0.0000
# 2 12.1517 32.4431 19.3153 0.0000 6.7117 0.0000
# 3 27.2565 19.3153 124.5530 0.0000 25.4112 0.0000
# 4 0.0000 0.0000 0.0000 -2.5703 0.0000 8.3804
# 5 23.2509 6.7117 25.4112 0.0000 28.2860 0.0000
# 6 0.0000 0.0000 0.0000 8.3804 0.0000 12.7069
#
#
#
# Elastic Compliance Matrix: (Units=1/GPa)
#
#
# Indices 1 2 3 4 5 6 
#
# 1 0.017206 -0.003429 -0.000629 0.000000 -0.012764 0.000000
# 2 -0.003429 0.035030 -0.004360 0.000000 -0.001576 0.000000
# 3 -0.000629 -0.004360 0.010439 0.000000 -0.007826 0.000000
# 4 0.000000 0.000000 0.000000 -0.123497 0.000000 0.081448
# 5 -0.012764 -0.001576 -0.007826 0.000000 0.053250 0.000000
# 6 0.000000 0.000000 0.000000 0.081448 0.000000 0.024981
#
#
# Mechanical properties :
#
#
# Convention : Reuss Voigt Hill
#
# Bulk Modulus (GPa) = 21.81652 39.24788 30.53220
# Shear Modulus (GPa) = 100.95921 19.48854 60.22387
#
# Velocity S-wave (km/s) = 7.26991 3.19408 5.61488
# Velocity P-wave (km/s) = 9.04929 5.84371 7.61704
#
# Compressibility (1/GPa) = 0.04583683
#
# Stress axis : x y z
#
# Youngs Moduli (GPa) = 58.12036 28.54727 95.79138
#
# Poissons Ratio (x) = 0.09790 0.06028
# Poissons Ratio (y) = 0.19931 0.41768
# Poissons Ratio (z) = 0.03658 0.12448
#
# Static dielectric constant tensor:
#      x y z
#    x 1.727810 0.000000 0.023370 
#    y 0.000000 1.682500 0.000000 
#    z 0.023370 0.000000 1.683400 
# 
# From -- ./inp_files/147932.got.cif
#   From: 2010.05.17/outbox.cif.g08.bks.cpg/sg15_74_cif.got.tgz:147932.got - 2010.06.03 18:47:42.
