data_PCOD9256340
_publ_section_title
;
Structure prediction by ZEFSAII (Michael W. Deem and Ramdas Pophale) SiO2 
 PCOD9256340
Probable space group: C 2/C
;
_chemical_formula_sum "Si O2"
_cell_formula_units_Z 48
_cell_length_a 12.449210
_cell_length_b 14.026200
_cell_length_c 19.177213
_cell_angle_alpha 90.000000
_cell_angle_beta 46.863342
_cell_angle_gamma 90.000000
_cell_volume 2443.579750
_symmetry_space_group_name_H-M "C 2/C"
_symmetry_group_IT_number 15
_symmetry_cell_setting 'monoclinic'
loop_
_space_group_symop_operation_xyz
x,y,z
-x,y,1/2-z
-x,-y,-z
x,-y,1/2+z
1/2+x,1/2+y,z
1/2-x,1/2+y,1/2-z
1/2-x,1/2-y,-z
1/2+x,1/2-y,1/2+z
loop_
_atom_site_type_symbol
_atom_site_label
_atom_site_fract_x
_atom_site_fract_y
_atom_site_fract_z
Si Si1 0.277041 0.981116 0.892027
Si Si2 0.622579 0.707537 0.507255
Si Si3 0.099113 0.519331 0.315270
Si Si4 0.412531 0.805506 0.125041
Si Si5 0.681048 0.217024 0.331642
Si Si6 0.641105 0.186031 0.634434
O O1 0.165447 0.900160 0.966631
O O2 0.298986 0.978539 0.798876
O O3 0.434680 0.961934 0.859041
O O4 0.257354 0.092524 0.918395
O O5 0.750000 0.750000 0.500000
O O6 0.603381 0.772840 0.446830
O O7 0.463581 0.718079 0.612804
O O8 0.107917 0.418203 0.350320
O O9 0.139806 0.607250 0.345230
O O10 0.290885 0.747140 0.221736
O O11 0.567166 0.783888 0.095180
O O12 0.765604 0.237689 0.365549
O O13 0.500000 0.161162 0.750000
#
# Coordination Sequence:
#
# PCOD9256340 Si02
#       6
#     8   8   8   8   8   8
#     4  10  17  36  61  88 113 158 206 234 297 367
#     4  12  25  36  61  97 124 159 201 253 305 360
#     4  10  18  37  66  83 114 169 195 243 302 359
#     4  10  22  41  64  85 120 159 211 245 293 372
#     4  11  21  37  64  90 123 154 205 252 305 348
#     4   9  18  38  63  85 110 162 207 242 297 362
#
# _framework density 19.643312999999999
#
# number of rings (size 3 to 8) (size 9 to 14) (size 15 to 20)
#    0.000    1.667    8.333    0.000    0.000    2.667 
#    0.000    0.000   14.667    0.000    0.000    0.000 
#    0.000    0.000    0.000    0.000    0.000    0.000 
#
# Total GULP energy -133958.402655 kJ/mol
# GULP energy per Si atom -5581.600111 kJ/mol
# Density = 1.959860 g / cm^3
# Si number density = 19.643313 Si / 1000 Ang^3
#
#
#
# Elastic Constant Matrix: (Units=GPa)
#
#
# Indices 1 2 3 4 5 6 
#
# 1 122.1725 50.0771 12.6147 0.0000 19.1182 0.0000
# 2 50.0771 94.0128 -0.0337 0.0000 9.9072 0.0000
# 3 12.6147 -0.0337 25.1590 0.0000 7.5834 0.0000
# 4 0.0000 0.0000 0.0000 14.9423 0.0000 1.5714
# 5 19.1182 9.9072 7.5834 0.0000 20.5453 0.0000
# 6 0.0000 0.0000 0.0000 1.5714 0.0000 41.2491
#
#
#
# Elastic Compliance Matrix: (Units=1/GPa)
#
#
# Indices 1 2 3 4 5 6 
#
# 1 0.012003 -0.005658 -0.003918 0.000000 -0.006995 0.000000
# 2 -0.005658 0.013950 0.003709 0.000000 -0.002831 0.000000
# 3 -0.003918 0.003709 0.046309 0.000000 -0.015236 0.000000
# 4 0.000000 0.000000 0.000000 0.067193 0.000000 -0.002560
# 5 -0.006995 -0.002831 -0.015236 0.000000 0.062171 0.000000
# 6 0.000000 0.000000 0.000000 -0.002560 0.000000 0.024340
#
#
# Mechanical properties :
#
#
# Convention : Reuss Voigt Hill
#
# Bulk Modulus (GPa) = 16.52097 40.74005 28.63051
# Shear Modulus (GPa) = 19.38907 27.25976 23.32441
#
# Velocity S-wave (km/s) = 3.14515 3.72928 3.44960
# Velocity P-wave (km/s) = 4.64952 6.27123 5.52025
#
# Compressibility (1/GPa) = 0.06052913
#
# Stress axis : x y z
#
# Youngs Moduli (GPa) = 83.30921 71.68290 21.59420
#
# Poissons Ratio (x) = 0.40558 0.08460
# Poissons Ratio (y) = 0.47137 -0.08009
# Poissons Ratio (z) = 0.32637 -0.26587
#
# Static dielectric constant tensor:
#      x y z
#    x 1.681100 0.000000 0.001270 
#    y 0.000000 1.687620 0.000000 
#    z 0.001270 0.000000 1.745200 
# 
# From -- ./inp_files/143750.got.cif
#   From: 2010.05.17/outbox.cif.g08.bks.cpg/sg15_72_cif.got.tgz:143750.got - 2010.06.03 18:47:42.
