data_PCOD9256771
_publ_section_title
;
Structure prediction by ZEFSAII (Michael W. Deem and Ramdas Pophale) SiO2 
 PCOD9256771
Probable space group: C 2/C
;
_chemical_formula_sum "Si O2"
_cell_formula_units_Z 44
_cell_length_a 18.744513
_cell_length_b 19.606623
_cell_length_c 5.378131
_cell_angle_alpha 90.000000
_cell_angle_beta 62.297853
_cell_angle_gamma 90.000000
_cell_volume 1749.992482
_symmetry_space_group_name_H-M "C 2/C"
_symmetry_group_IT_number 15
_symmetry_cell_setting 'monoclinic'
loop_
_space_group_symop_operation_xyz
x,y,z
-x,y,1/2-z
-x,-y,-z
x,-y,1/2+z
1/2+x,1/2+y,z
1/2-x,1/2+y,1/2-z
1/2-x,1/2-y,-z
1/2+x,1/2-y,1/2+z
loop_
_atom_site_type_symbol
_atom_site_label
_atom_site_fract_x
_atom_site_fract_y
_atom_site_fract_z
Si Si1 0.593601 0.896467 0.655052
Si Si2 0.000000 0.044674 0.750000
Si Si3 0.343594 0.739900 0.917661
Si Si4 0.176681 0.045720 0.412931
Si Si5 0.334921 0.893767 0.470970
Si Si6 0.405946 0.258378 0.838160
O O1 0.500000 0.903579 0.750000
O O2 0.614646 0.815569 0.647286
O O3 0.648124 0.920973 0.334022
O O4 0.610536 0.926230 0.900196
O O5 0.087530 0.077283 0.580678
O O6 0.000000 0.000000 0.500000
O O7 0.375728 0.712497 0.127179
O O8 0.250000 0.750000 0.000000
O O9 0.375161 0.700053 0.625113
O O10 0.185429 0.006287 0.662631
O O11 0.246949 0.098549 0.232114
O O12 0.361158 0.814956 0.407597
O O13 0.500000 0.248299 0.750000
#
# Coordination Sequence:
#
# PCOD9256771 Si02
#       6
#     8   4   8   8   8   8
#     4  10  19  33  52  73  99 133 175 202 242 299
#     4   8  16  30  48  70  96 120 154 204 252 298
#     4  10  18  29  48  77  98 122 159 221 255 284
#     4  10  19  32  50  75 102 126 167 212 256 298
#     4  10  18  30  51  73  96 134 168 211 242 292
#     4  10  19  33  51  72  99 135 177 203 245 304
#
# _framework density 25.142965
#
# number of rings (size 3 to 8) (size 9 to 14) (size 15 to 20)
#    0.000    2.182    0.000    7.091    0.000    0.000 
#    0.000    0.000    0.000   18.545   47.273    0.000 
#   10.909    0.000    0.000    0.000    0.000    0.000 
#
# Total GULP energy -122700.555443 kJ/mol
# GULP energy per Si atom -5577.297975 kJ/mol
# Density = 2.508574 g / cm^3
# Si number density = 25.142965 Si / 1000 Ang^3
#
#
#
# Elastic Constant Matrix: (Units=GPa)
#
#
# Indices 1 2 3 4 5 6 
#
# 1 143.5696 30.9640 64.7263 0.0000 -6.8787 0.0000
# 2 30.9640 74.8851 19.3380 0.0000 5.0411 0.0000
# 3 64.7263 19.3380 197.3425 0.0000 32.1470 0.0000
# 4 0.0000 0.0000 0.0000 29.8529 0.0000 -6.7064
# 5 -6.8787 5.0411 32.1470 0.0000 87.8347 0.0000
# 6 0.0000 0.0000 0.0000 -6.7064 0.0000 7.1047
#
#
#
# Elastic Compliance Matrix: (Units=1/GPa)
#
#
# Indices 1 2 3 4 5 6 
#
# 1 0.009084 -0.003116 -0.002998 0.000000 0.001987 0.000000
# 2 -0.003116 0.014777 -0.000264 0.000000 -0.000996 0.000000
# 3 -0.002998 -0.000264 0.006500 0.000000 -0.002599 0.000000
# 4 0.000000 0.000000 0.000000 0.042513 0.000000 0.040129
# 5 0.001987 -0.000996 -0.002599 0.000000 0.012549 0.000000
# 6 0.000000 0.000000 0.000000 0.040129 0.000000 0.178630
#
#
# Mechanical properties :
#
#
# Convention : Reuss Voigt Hill
#
# Bulk Modulus (GPa) = 56.79923 71.76154 64.28038
# Shear Modulus (GPa) = 17.68807 45.00972 31.34890
#
# Velocity S-wave (km/s) = 2.65523 4.23561 3.53487
# Velocity P-wave (km/s) = 5.66038 7.24733 6.50245
#
# Compressibility (1/GPa) = 0.01760587
#
# Stress axis : x y z
#
# Youngs Moduli (GPa) = 110.08331 67.67138 153.85154
#
# Poissons Ratio (x) = 0.21085 0.46123
# Poissons Ratio (y) = 0.34299 0.04061
# Poissons Ratio (z) = 0.33002 0.01786
#
# Static dielectric constant tensor:
#      x y z
#    x 2.078660 0.000000 0.048210 
#    y 0.000000 2.323390 0.000000 
#    z 0.048210 0.000000 2.099940 
# 
# From -- ./inp_files/8497.got.cif
#   From: 2010.05.17/outbox.cif.g08.bks.cpg/sg15_5_cif.got.tgz:8497.got - 2010.06.03 18:47:42.
