data_PCOD9256866
_publ_section_title
;
Structure prediction by ZEFSAII (Michael W. Deem and Ramdas Pophale) SiO2 
 PCOD9256866
Probable space group: C 2/C
;
_chemical_formula_sum "Si O2"
_cell_formula_units_Z 64
_cell_length_a 25.945532
_cell_length_b 13.529701
_cell_length_c 9.182531
_cell_angle_alpha 90.000000
_cell_angle_beta 82.693871
_cell_angle_gamma 90.000000
_cell_volume 3197.221211
_symmetry_space_group_name_H-M "C 2/C"
_symmetry_group_IT_number 15
_symmetry_cell_setting 'monoclinic'
loop_
_space_group_symop_operation_xyz
x,y,z
-x,y,1/2-z
-x,-y,-z
x,-y,1/2+z
1/2+x,1/2+y,z
1/2-x,1/2+y,1/2-z
1/2-x,1/2-y,-z
1/2+x,1/2-y,1/2+z
loop_
_atom_site_type_symbol
_atom_site_label
_atom_site_fract_x
_atom_site_fract_y
_atom_site_fract_z
Si Si1 0.982645 0.345106 0.909469
Si Si2 0.153342 0.807455 0.593835
Si Si3 0.793597 0.642339 0.408213
Si Si4 0.226618 0.691569 0.788288
Si Si5 0.556171 0.765474 0.294696
Si Si6 0.068459 0.445251 0.088221
Si Si7 0.266283 0.450635 0.035201
Si Si8 0.833862 0.620425 0.100891
O O1 0.952401 0.445723 0.880848
O O2 0.000000 0.299096 0.750000
O O3 0.949991 0.275094 0.029558
O O4 0.031148 0.385263 0.989009
O O5 0.195366 0.755747 0.684064
O O6 0.100086 0.801644 0.703386
O O7 0.177890 0.911370 0.536427
O O8 0.152118 0.731804 0.456801
O O9 0.810888 0.659619 0.566669
O O10 0.770926 0.741900 0.345551
O O11 0.745825 0.565377 0.441526
O O12 0.833874 0.605516 0.273461
O O13 0.251774 0.601373 0.692933
O O14 0.500000 0.737452 0.250000
O O15 0.567828 0.877488 0.232617
O O16 0.124916 0.445889 0.997553
O O17 0.222949 0.408852 0.938088
#
# Coordination Sequence:
#
# PCOD9256866 Si02
#       8
#     8   8   8   8   8   8   8   8
#     4  10  18  30  45  69  99 131 172 220 265 309
#     4  10  19  37  55  69 106 147 180 215 269 319
#     4  11  21  33  52  80 113 138 184 224 262 308
#     4  10  21  35  51  78 113 140 176 231 260 311
#     4   9  19  33  50  71  94 133 178 219 263 323
#     4   9  18  29  46  66 100 137 175 214 253 310
#     4  11  20  35  54  74 105 150 182 214 266 326
#     4  10  19  34  49  73 106 144 183 218 258 312
#
# _framework density 20.017382000000001
#
# number of rings (size 3 to 8) (size 9 to 14) (size 15 to 20)
#    0.000    2.000    2.500    3.375    0.000    6.000 
#    0.000    0.000    0.000    0.000    0.000    0.875 
#    0.000    0.000    0.000    0.000    0.000    0.000 
#
# Total GULP energy -178670.972169 kJ/mol
# GULP energy per Si atom -5583.467880 kJ/mol
# Density = 1.997182 g / cm^3
# Si number density = 20.017382 Si / 1000 Ang^3
#
#
#
# Elastic Constant Matrix: (Units=GPa)
#
#
# Indices 1 2 3 4 5 6 
#
# 1 58.8987 4.8400 16.0307 0.0000 -27.9049 0.0000
# 2 4.8400 45.2596 16.0436 0.0000 -5.1202 0.0000
# 3 16.0307 16.0436 152.0521 0.0000 -26.3503 0.0000
# 4 0.0000 0.0000 0.0000 12.3036 0.0000 -3.3534
# 5 -27.9049 -5.1202 -26.3503 0.0000 28.5993 0.0000
# 6 0.0000 0.0000 0.0000 -3.3534 0.0000 19.4747
#
#
#
# Elastic Compliance Matrix: (Units=1/GPa)
#
#
# Indices 1 2 3 4 5 6 
#
# 1 0.032335 -0.000524 0.002496 0.000000 0.033755 0.000000
# 2 -0.000524 0.023082 -0.002086 0.000000 0.001700 0.000000
# 3 0.002496 -0.002086 0.008200 0.000000 0.009617 0.000000
# 4 0.000000 0.000000 0.000000 0.085279 0.000000 0.014685
# 5 0.033755 0.001700 0.009617 0.000000 0.077067 0.000000
# 6 0.000000 0.000000 0.000000 0.014685 0.000000 0.053877
#
#
# Mechanical properties :
#
#
# Convention : Reuss Voigt Hill
#
# Bulk Modulus (GPa) = 15.77534 36.67101 26.22317
# Shear Modulus (GPa) = 16.60035 26.69525 21.64780
#
# Velocity S-wave (km/s) = 2.88288 3.65582 3.29211
# Velocity P-wave (km/s) = 4.35652 6.01493 5.25160
#
# Compressibility (1/GPa) = 0.06339007
#
# Stress axis : x y z
#
# Youngs Moduli (GPa) = 30.92662 43.32305 121.94683
#
# Poissons Ratio (x) = 0.02270 -0.30438
# Poissons Ratio (y) = 0.01620 0.25435
# Poissons Ratio (z) = -0.07719 0.09036
#
# Static dielectric constant tensor:
#      x y z
#    x 1.741180 0.000000 -0.017840 
#    y 0.000000 1.708510 0.000000 
#    z -0.017840 0.000000 1.788300 
# 
# From -- ./inp_files/66218.got.cif
#   From: 2010.05.17/outbox.cif.g08.bks.cpg/sg15_34_cif.got.tgz:66218.got - 2010.06.03 18:47:42.
