data_PCOD9256259
_publ_section_title
;
Structure prediction by ZEFSAII (Michael W. Deem and Ramdas Pophale) SiO2 
 PCOD9256259
Probable space group: C 2/C
;
_chemical_formula_sum "Si O2"
_cell_formula_units_Z 64
_cell_length_a 21.660951
_cell_length_b 15.063448
_cell_length_c 11.655533
_cell_angle_alpha 90.000000
_cell_angle_beta 46.424457
_cell_angle_gamma 90.000000
_cell_volume 2755.193828
_symmetry_space_group_name_H-M "C 2/C"
_symmetry_group_IT_number 15
_symmetry_cell_setting 'monoclinic'
loop_
_space_group_symop_operation_xyz
x,y,z
-x,y,1/2-z
-x,-y,-z
x,-y,1/2+z
1/2+x,1/2+y,z
1/2-x,1/2+y,1/2-z
1/2-x,1/2-y,-z
1/2+x,1/2-y,1/2+z
loop_
_atom_site_type_symbol
_atom_site_label
_atom_site_fract_x
_atom_site_fract_y
_atom_site_fract_z
Si Si1 0.955009 0.014952 0.933867
Si Si2 0.931581 0.711441 0.749251
Si Si3 0.279282 0.428003 0.180680
Si Si4 0.262774 0.868199 0.499796
Si Si5 0.302594 0.876481 0.760327
Si Si6 0.460820 0.953718 0.440401
Si Si7 0.641160 0.319072 0.853152
Si Si8 0.330867 0.936601 0.968407
O O1 0.000000 0.007701 0.750000
O O2 0.915476 0.113750 0.999537
O O3 0.878902 0.943687 0.039353
O O4 0.000000 0.000000 0.000000
O O5 0.837762 0.702285 0.924498
O O6 0.918856 0.747908 0.635732
O O7 0.000000 0.754928 0.750000
O O8 0.963507 0.609777 0.698358
O O9 0.251989 0.362794 0.116048
O O10 0.240060 0.526358 0.207225
O O11 0.237482 0.400187 0.353222
O O12 0.181942 0.862799 0.685707
O O13 0.294491 0.968049 0.477754
O O14 0.386292 0.885300 0.574660
O O15 0.228623 0.808363 0.816060
O O16 0.332985 0.875756 0.853159
O O17 0.500000 0.000000 0.500000
O O18 0.417517 0.032663 0.421255
#
# Coordination Sequence:
#
# PCOD9256259 Si02
#       8
#     8   8   8   8   8   8   8   8
#     4  11  23  39  66  98 131 173 231 296 345 393
#     4  12  24  38  64  95 134 176 227 279 348 408
#     4   9  19  33  62  94 123 151 216 272 344 396
#     4  11  19  38  61  90 123 169 220 277 322 405
#     4   9  19  35  60  87 129 168 211 266 336 404
#     4  11  21  36  62 104 133 158 221 299 353 391
#     4  11  23  41  59  88 135 184 221 260 339 425
#     4  10  17  35  64  96 124 169 213 279 344 401
#
# _framework density 23.228854999999999
#
# number of rings (size 3 to 8) (size 9 to 14) (size 15 to 20)
#    0.000    1.500    5.000    3.375    3.500    1.500 
#    0.000    0.000    5.500    3.000    0.000    2.625 
#    0.000    0.000    0.000    0.000    0.000    0.000 
#
# Total GULP energy -178311.329773 kJ/mol
# GULP energy per Si atom -5572.229055 kJ/mol
# Density = 2.317599 g / cm^3
# Si number density = 23.228855 Si / 1000 Ang^3
#
#
#
# Elastic Constant Matrix: (Units=GPa)
#
#
# Indices 1 2 3 4 5 6 
#
# 1 130.5712 27.9578 42.7457 0.0000 24.0180 0.0000
# 2 27.9578 50.1540 10.6842 0.0000 4.5805 0.0000
# 3 42.7457 10.6842 155.3190 0.0000 12.6746 0.0000
# 4 0.0000 0.0000 0.0000 19.6370 0.0000 13.5828
# 5 24.0180 4.5805 12.6746 0.0000 43.1721 0.0000
# 6 0.0000 0.0000 0.0000 13.5828 0.0000 23.0592
#
#
#
# Elastic Compliance Matrix: (Units=1/GPa)
#
#
# Indices 1 2 3 4 5 6 
#
# 1 0.010222 -0.004833 -0.002109 0.000000 -0.004555 0.000000
# 2 -0.004833 0.022655 -0.000258 0.000000 0.000361 0.000000
# 3 -0.002109 -0.000258 0.007109 0.000000 -0.000886 0.000000
# 4 0.000000 0.000000 0.000000 0.085939 0.000000 -0.050622
# 5 -0.004555 0.000361 -0.000886 0.000000 0.025919 0.000000
# 6 0.000000 0.000000 0.000000 -0.050622 0.000000 0.073185
#
#
# Mechanical properties :
#
#
# Convention : Reuss Voigt Hill
#
# Bulk Modulus (GPa) = 39.08380 55.42439 47.25410
# Shear Modulus (GPa) = 20.16486 34.15075 27.15781
#
# Velocity S-wave (km/s) = 2.94954 3.83846 3.42298
# Velocity P-wave (km/s) = 5.33496 6.59977 6.00078
#
# Compressibility (1/GPa) = 0.02558605
#
# Stress axis : x y z
#
# Youngs Moduli (GPa) = 97.83112 44.14128 140.66969
#
# Poissons Ratio (x) = 0.21332 0.29667
# Poissons Ratio (y) = 0.47279 0.03626
# Poissons Ratio (z) = 0.20633 0.01138
#
# Static dielectric constant tensor:
#      x y z
#    x 2.048420 0.000000 0.000280 
#    y 0.000000 1.930340 0.000000 
#    z 0.000280 0.000000 1.940810 
# 
# From -- ./inp_files/113666.got.cif
#   From: 2010.05.17/outbox.cif.g08.bks.cpg/sg15_57_cif.got.tgz:113666.got - 2010.06.03 18:47:42.
