data_PCOD9256234
_publ_section_title
;
Structure prediction by ZEFSAII (Michael W. Deem and Ramdas Pophale) SiO2 
 PCOD9256234
Probable space group: C 2/C
;
_chemical_formula_sum "Si O2"
_cell_formula_units_Z 64
_cell_length_a 14.237597
_cell_length_b 7.579615
_cell_length_c 23.674466
_cell_angle_alpha 90.000000
_cell_angle_beta 76.001890
_cell_angle_gamma 90.000000
_cell_volume 2478.972588
_symmetry_space_group_name_H-M "C 2/C"
_symmetry_group_IT_number 15
_symmetry_cell_setting 'monoclinic'
loop_
_space_group_symop_operation_xyz
x,y,z
-x,y,1/2-z
-x,-y,-z
x,-y,1/2+z
1/2+x,1/2+y,z
1/2-x,1/2+y,1/2-z
1/2-x,1/2-y,-z
1/2+x,1/2-y,1/2+z
loop_
_atom_site_type_symbol
_atom_site_label
_atom_site_fract_x
_atom_site_fract_y
_atom_site_fract_z
Si Si1 0.615989 0.557888 0.731560
Si Si2 0.377135 0.959905 0.360882
Si Si3 0.648133 0.372643 0.102200
Si Si4 0.783822 0.435914 0.764339
Si Si5 0.484336 0.673554 0.556921
Si Si6 0.863850 0.746464 0.976744
Si Si7 0.085334 0.496302 0.855068
Si Si8 0.634434 0.111405 0.964560
O O1 0.500000 0.553893 0.750000
O O2 0.649535 0.532429 0.662295
O O3 0.669422 0.432039 0.768817
O O4 0.657789 0.753372 0.738639
O O5 0.310551 0.948157 0.315382
O O6 0.371499 0.810085 0.409680
O O7 0.490769 0.969943 0.331465
O O8 0.356347 0.159071 0.387901
O O9 0.548404 0.447217 0.089387
O O10 0.749067 0.397681 0.054764
O O11 0.826415 0.508578 0.699780
O O12 0.411310 0.621366 0.517218
O O13 0.578159 0.751980 0.510656
O O14 0.431385 0.809742 0.608714
O O15 0.750000 0.750000 0.000000
O O16 0.900570 0.569495 0.002402
O O17 0.100032 0.628871 0.905094
#
# Coordination Sequence:
#
# PCOD9256234 Si02
#       8
#     8   8   8   8   8   8   8   8
#     4  11  24  45  67  97 132 170 221 277 324 399
#     4  10  20  37  58  90 123 159 206 266 314 380
#     4  10  20  35  65  89 112 157 211 255 314 382
#     4  11  23  40  70  94 131 173 215 272 335 389
#     4  10  19  34  61  84 115 157 200 254 312 363
#     4  11  22  35  53  87 124 157 199 253 315 380
#     4  10  17  35  61  91 112 157 212 253 307 389
#     4  11  18  35  62  83 113 156 199 253 303 367
#
# _framework density 25.817146999999999
#
# number of rings (size 3 to 8) (size 9 to 14) (size 15 to 20)
#    0.000    1.500    5.000    3.750    0.000    3.000 
#    0.000    2.500    5.500    0.000    0.000    0.000 
#    0.000    0.000    0.000    0.000    0.000    0.000 
#
# Total GULP energy -178537.275637 kJ/mol
# GULP energy per Si atom -5579.289864 kJ/mol
# Density = 2.575839 g / cm^3
# Si number density = 25.817147 Si / 1000 Ang^3
#
#
#
# Elastic Constant Matrix: (Units=GPa)
#
#
# Indices 1 2 3 4 5 6 
#
# 1 217.1250 17.2665 56.3451 0.0000 27.6341 0.0000
# 2 17.2665 54.2879 17.1349 0.0000 10.6017 0.0000
# 3 56.3451 17.1349 127.5436 0.0000 30.6453 0.0000
# 4 0.0000 0.0000 0.0000 21.2588 0.0000 9.4630
# 5 27.6341 10.6017 30.6453 0.0000 56.9419 0.0000
# 6 0.0000 0.0000 0.0000 9.4630 0.0000 31.3801
#
#
#
# Elastic Compliance Matrix: (Units=1/GPa)
#
#
# Indices 1 2 3 4 5 6 
#
# 1 0.005347 -0.000821 -0.001912 0.000000 -0.001413 0.000000
# 2 -0.000821 0.019681 -0.001719 0.000000 -0.002341 0.000000
# 3 -0.001912 -0.001719 0.009896 0.000000 -0.004078 0.000000
# 4 0.000000 0.000000 0.000000 0.054333 0.000000 -0.016385
# 5 -0.001413 -0.002341 -0.004078 0.000000 0.020878 0.000000
# 6 0.000000 0.000000 0.000000 -0.016385 0.000000 0.036808
#
#
# Mechanical properties :
#
#
# Convention : Reuss Voigt Hill
#
# Bulk Modulus (GPa) = 38.43298 64.49440 51.46369
# Shear Modulus (GPa) = 30.39129 42.46349 36.42739
#
# Velocity S-wave (km/s) = 3.43472 4.05999 3.76037
# Velocity P-wave (km/s) = 5.53612 6.85664 6.23146
#
# Compressibility (1/GPa) = 0.02601932
#
# Stress axis : x y z
#
# Youngs Moduli (GPa) = 187.01979 50.81005 101.05100
#
# Poissons Ratio (x) = 0.04172 0.19325
# Poissons Ratio (y) = 0.15357 0.17370
# Poissons Ratio (z) = 0.35765 0.08734
#
# Static dielectric constant tensor:
#      x y z
#    x 2.142620 0.000000 0.079240 
#    y 0.000000 2.279140 0.000000 
#    z 0.079240 0.000000 2.053900 
# 
# From -- ./inp_files/273633.got.cif
#   From: 2010.05.17/outbox.cif.g08.bks.cpg/sg15_137_cif.got.tgz:273633.got - 2010.06.03 18:47:42.
