data_PCOD9256175
_publ_section_title
;
Structure prediction by ZEFSAII (Michael W. Deem and Ramdas Pophale) SiO2 
 PCOD9256175
Probable space group: C 2/C
;
_chemical_formula_sum "Si O2"
_cell_formula_units_Z 52
_cell_length_a 22.368609
_cell_length_b 23.820502
_cell_length_c 9.240683
_cell_angle_alpha 90.000000
_cell_angle_beta 148.033732
_cell_angle_gamma 90.000000
_cell_volume 2606.719012
_symmetry_space_group_name_H-M "C 2/C"
_symmetry_group_IT_number 15
_symmetry_cell_setting 'monoclinic'
loop_
_space_group_symop_operation_xyz
x,y,z
-x,y,1/2-z
-x,-y,-z
x,-y,1/2+z
1/2+x,1/2+y,z
1/2-x,1/2+y,1/2-z
1/2-x,1/2-y,-z
1/2+x,1/2-y,1/2+z
loop_
_atom_site_type_symbol
_atom_site_label
_atom_site_fract_x
_atom_site_fract_y
_atom_site_fract_z
Si Si1 0.965395 0.601265 0.868123
Si Si2 0.000000 0.213767 0.250000
Si Si3 0.000000 0.574384 0.250000
Si Si4 0.218873 0.580589 0.334505
Si Si5 0.500000 0.746608 0.750000
Si Si6 0.812800 0.501624 0.469236
Si Si7 0.863553 0.715296 0.705671
Si Si8 0.663475 0.696739 0.842854
O O1 0.902779 0.542441 0.729505
O O2 0.875031 0.651771 0.670549
O O3 0.010392 0.607776 0.124360
O O4 0.085187 0.595291 0.030930
O O5 0.068416 0.251054 0.276540
O O6 0.092632 0.185840 0.548218
O O7 0.887636 0.536636 0.016373
O O8 0.234534 0.539650 0.505561
O O9 0.274220 0.640035 0.482376
O O10 0.259215 0.543989 0.278756
O O11 0.422271 0.781594 0.482464
O O12 0.578812 0.712081 0.800625
O O13 0.750000 0.750000 0.500000
O O14 0.750000 0.750000 0.000000
#
# Coordination Sequence:
#
# PCOD9256175 Si02
#       8
#     8   4   4   8   4   8   8   8
#     4  11  21  32  59  89 133 163 204 267 324 393
#     4  10  24  43  60  93 135 161 220 272 316 374
#     4  10  17  35  50  86 128 161 193 254 332 380
#     4  11  22  39  64  92 130 163 213 258 338 398
#     4  10  23  44  58  93 131 160 225 266 312 378
#     4  11  20  36  56  93 126 164 202 264 323 389
#     4  11  24  38  61  92 126 170 215 261 322 384
#     4  11  24  44  70  96 130 178 216 268 332 382
#
# _framework density 19.948449
#
# number of rings (size 3 to 8) (size 9 to 14) (size 15 to 20)
#    0.000    1.231    3.077    4.154    6.462    3.692 
#    0.000    0.000    0.000    2.769    0.000    0.000 
#    0.000    0.000    0.000    0.000    0.000    0.000 
#
# Total GULP energy -144813.126583 kJ/mol
# GULP energy per Si atom -5569.735638 kJ/mol
# Density = 1.990305 g / cm^3
# Si number density = 19.948449 Si / 1000 Ang^3
#
#
#
# Elastic Constant Matrix: (Units=GPa)
#
#
# Indices 1 2 3 4 5 6 
#
# 1 78.3409 21.2470 22.5055 0.0000 -11.5142 0.0000
# 2 21.2470 115.6045 38.6226 0.0000 5.9448 0.0000
# 3 22.5055 38.6226 82.5457 0.0000 -14.0824 0.0000
# 4 0.0000 0.0000 0.0000 36.0666 0.0000 0.0543
# 5 -11.5142 5.9448 -14.0824 0.0000 30.8083 0.0000
# 6 0.0000 0.0000 0.0000 0.0543 0.0000 11.8477
#
#
#
# Elastic Compliance Matrix: (Units=1/GPa)
#
#
# Indices 1 2 3 4 5 6 
#
# 1 0.014712 -0.002255 -0.002108 0.000000 0.004970 0.000000
# 2 -0.002255 0.011215 -0.005581 0.000000 -0.005558 0.000000
# 3 -0.002108 -0.005581 0.016648 0.000000 0.007899 0.000000
# 4 0.000000 0.000000 0.000000 0.027727 0.000000 -0.000127
# 5 0.004970 -0.005558 0.007899 0.000000 0.038999 0.000000
# 6 0.000000 0.000000 0.000000 -0.000127 0.000000 0.084405
#
#
# Mechanical properties :
#
#
# Convention : Reuss Voigt Hill
#
# Bulk Modulus (GPa) = 44.07765 49.02681 46.55223
# Shear Modulus (GPa) = 22.60837 28.68559 25.64698
#
# Velocity S-wave (km/s) = 3.37016 3.79619 3.58950
# Velocity P-wave (km/s) = 6.10637 6.62155 6.36917
#
# Compressibility (1/GPa) = 0.02268724
#
# Stress axis : x y z
#
# Youngs Moduli (GPa) = 67.96949 89.16657 60.06738
#
# Poissons Ratio (x) = 0.20110 0.12663
# Poissons Ratio (y) = 0.15329 0.33522
# Poissons Ratio (z) = 0.14329 0.49761
#
# Static dielectric constant tensor:
#      x y z
#    x 8.601040 0.000000 -0.105350 
#    y 0.000000 1.734010 0.000000 
#    z -0.105350 0.000000 1.784970 
# 
# From -- ./inp_files/64099.got.cif
#   From: 2010.05.17/outbox.cif.g08.bks.cpg/sg15_33_cif.got.tgz:64099.got - 2010.06.03 18:47:42.
