data_PCOD9256392
_publ_section_title
;
Structure prediction by ZEFSAII (Michael W. Deem and Ramdas Pophale) SiO2 
 PCOD9256392
Probable space group: C 2/C
;
_chemical_formula_sum "Si O2"
_cell_formula_units_Z 48
_cell_length_a 24.308903
_cell_length_b 14.655774
_cell_length_c 17.334998
_cell_angle_alpha 90.000000
_cell_angle_beta 161.626476
_cell_angle_gamma 90.000000
_cell_volume 1946.698250
_symmetry_space_group_name_H-M "C 2/C"
_symmetry_group_IT_number 15
_symmetry_cell_setting 'monoclinic'
loop_
_space_group_symop_operation_xyz
x,y,z
-x,y,1/2-z
-x,-y,-z
x,-y,1/2+z
1/2+x,1/2+y,z
1/2-x,1/2+y,1/2-z
1/2-x,1/2-y,-z
1/2+x,1/2-y,1/2+z
loop_
_atom_site_type_symbol
_atom_site_label
_atom_site_fract_x
_atom_site_fract_y
_atom_site_fract_z
Si Si1 0.500000 0.969022 0.250000
Si Si2 0.387628 0.412831 0.381039
Si Si3 0.000000 0.043023 0.250000
Si Si4 0.307708 0.653393 0.110400
Si Si5 0.124689 0.613637 0.288653
Si Si6 0.742906 0.551601 0.189803
Si Si7 0.548455 0.318646 0.184153
O O1 0.664330 0.898932 0.471698
O O2 0.561414 0.037174 0.264036
O O3 0.500000 0.500000 0.500000
O O4 0.509857 0.352746 0.600146
O O5 0.233556 0.468327 0.219300
O O6 0.346212 0.351674 0.252060
O O7 0.843587 0.098790 0.079237
O O8 0.079496 0.988527 0.425232
O O9 0.250000 0.750000 0.000000
O O10 0.123404 0.578393 0.198626
O O11 0.325656 0.643429 0.579769
O O12 0.031146 0.710782 0.170115
O O13 0.647178 0.642736 0.092002
#
# Coordination Sequence:
#
# PCOD9256392 Si02
#       7
#     4   8   4   8   8   8   8
#     4  12  23  39  66 102 136 164 222 291 335 380
#     4   9  20  41  69  91 128 178 231 277 332 407
#     4  10  17  37  62  88 116 176 220 251 315 410
#     4  11  23  41  69  94 127 173 231 273 337 404
#     4  11  22  35  66 100 136 172 218 278 337 401
#     4  10  17  37  61  89 124 174 226 261 322 406
#     4  10  21  37  63  98 131 178 226 268 332 413
#
# _framework density 24.657133000000002
#
# number of rings (size 3 to 8) (size 9 to 14) (size 15 to 20)
#    0.000    1.667    3.333    2.500    4.667    0.000 
#    0.000   11.667    3.667   10.000    0.000    0.000 
#    0.000    0.000    0.000    0.000    0.000    0.000 
#
# Total GULP energy -133869.506120 kJ/mol
# GULP energy per Si atom -5577.896088 kJ/mol
# Density = 2.460101 g / cm^3
# Si number density = 24.657133 Si / 1000 Ang^3
#
#
#
# Elastic Constant Matrix: (Units=GPa)
#
#
# Indices 1 2 3 4 5 6 
#
# 1 84.1258 24.2957 14.9388 -0.0006 21.1513 -0.0003
# 2 24.2957 113.3375 32.0170 -0.0004 2.7934 -0.0003
# 3 14.9388 32.0170 65.2372 -0.0009 13.1145 -0.0010
# 4 -0.0006 -0.0004 -0.0009 15.9564 -0.0008 -1.9261
# 5 21.1513 2.7934 13.1145 -0.0008 47.3156 -0.0007
# 6 -0.0003 -0.0003 -0.0010 -1.9261 -0.0007 31.9128
#
#
#
# Elastic Compliance Matrix: (Units=1/GPa)
#
#
# Indices 1 2 3 4 5 6 
#
# 1 0.014319 -0.002713 -0.000734 0.000000 -0.006037 0.000000
# 2 -0.002713 0.010789 -0.005072 0.000000 0.001982 0.000000
# 3 -0.000734 -0.005072 0.018914 0.000001 -0.004615 0.000000
# 4 0.000000 0.000000 0.000001 0.063131 0.000001 0.003810
# 5 -0.006037 0.001982 -0.004615 0.000001 0.024996 0.000000
# 6 0.000000 0.000000 0.000000 0.003810 0.000000 0.031565
#
#
# Mechanical properties :
#
#
# Convention : Reuss Voigt Hill
#
# Bulk Modulus (GPa) = 37.05988 45.02262 41.04125
# Shear Modulus (GPa) = 26.35112 31.80022 29.07567
#
# Velocity S-wave (km/s) = 3.27265 3.59513 3.43767
# Velocity P-wave (km/s) = 5.41692 5.96091 5.69541
#
# Compressibility (1/GPa) = 0.02698336
#
# Stress axis : x y z
#
# Youngs Moduli (GPa) = 69.83821 92.68853 52.87206
#
# Poissons Ratio (x) = 0.25151 0.03878
# Poissons Ratio (y) = 0.18950 0.26817
# Poissons Ratio (z) = 0.05123 0.47011
#
# Static dielectric constant tensor:
#      x y z
#    x 1.921840 0.000000 0.077060 
#    y 0.000000 2.058440 0.000000 
#    z 0.077060 0.000000 2.040850 
# 
# From -- ./inp_files/257672.got.cif
#   From: 2010.05.17/outbox.cif.g08.bks.cpg/sg15_129_cif.got.tgz:257672.got - 2010.06.03 18:47:42.
