data_PCOD9256366
_publ_section_title
;
Structure prediction by ZEFSAII (Michael W. Deem and Ramdas Pophale) SiO2 
 PCOD9256366
Probable space group: C 2/C
;
_chemical_formula_sum "Si O2"
_cell_formula_units_Z 56
_cell_length_a 10.016962
_cell_length_b 20.677092
_cell_length_c 13.808332
_cell_angle_alpha 90.000000
_cell_angle_beta 91.850714
_cell_angle_gamma 90.000000
_cell_volume 2858.512562
_symmetry_space_group_name_H-M "C 2/C"
_symmetry_group_IT_number 15
_symmetry_cell_setting 'monoclinic'
loop_
_space_group_symop_operation_xyz
x,y,z
-x,y,1/2-z
-x,-y,-z
x,-y,1/2+z
1/2+x,1/2+y,z
1/2-x,1/2+y,1/2-z
1/2-x,1/2-y,-z
1/2+x,1/2-y,1/2+z
loop_
_atom_site_type_symbol
_atom_site_label
_atom_site_fract_x
_atom_site_fract_y
_atom_site_fract_z
Si Si1 0.500000 0.724357 0.750000
Si Si2 0.757231 0.919290 0.805541
Si Si3 0.703849 0.328295 0.109214
Si Si4 0.305964 0.971221 0.073630
Si Si5 0.045526 0.760819 0.934934
Si Si6 0.500000 0.656736 0.250000
Si Si7 0.917634 0.455786 0.879628
Si Si8 0.576335 0.826479 0.916731
O O1 0.380629 0.683368 0.794956
O O2 0.547858 0.772757 0.835190
O O3 0.645697 0.943782 0.726539
O O4 0.703177 0.865559 0.879977
O O5 0.871241 0.888371 0.744009
O O6 0.791874 0.979849 0.873516
O O7 0.764620 0.399357 0.100767
O O8 0.827394 0.278942 0.102370
O O9 0.605091 0.309059 0.018129
O O10 0.456374 0.994921 0.108938
O O11 0.311265 0.977930 0.957682
O O12 0.987652 0.799838 0.844509
O O13 0.940824 0.711753 0.983314
O O14 0.967426 0.384397 0.914067
#
# Coordination Sequence:
#
# PCOD9256366 Si02
#       8
#     4   8   8   8   8   4   8   8
#     4  10  18  29  60  93 120 160 198 236 302 388
#     4  11  23  40  62  86 128 166 209 254 310 377
#     4  10  20  38  60  92 127 159 202 253 309 372
#     4  10  20  36  62  93 115 152 212 260 301 355
#     4  10  22  38  63  88 125 166 208 256 308 366
#     4  12  26  41  56  89 130 178 202 248 320 382
#     4  10  19  38  66  90 116 158 208 264 306 360
#     4  10  17  36  66  90 112 160 216 252 298 365
#
# _framework density 19.590609000000001
#
# number of rings (size 3 to 8) (size 9 to 14) (size 15 to 20)
#    0.000    1.714    2.857    3.000    2.000    1.143 
#    2.571    5.714    0.000    0.000    0.000    0.000 
#    0.000    0.000    0.000    0.000    0.000    0.000 
#
# Total GULP energy -156096.740278 kJ/mol
# GULP energy per Si atom -5574.883581 kJ/mol
# Density = 1.954602 g / cm^3
# Si number density = 19.590609 Si / 1000 Ang^3
#
#
#
# Elastic Constant Matrix: (Units=GPa)
#
#
# Indices 1 2 3 4 5 6 
#
# 1 34.1062 31.6662 34.4158 0.0000 -9.9304 0.0000
# 2 31.6662 117.1062 50.0663 0.0000 -10.5025 0.0000
# 3 34.4158 50.0663 91.1549 0.0000 -21.9730 0.0000
# 4 0.0000 0.0000 0.0000 24.2688 0.0000 -17.1250
# 5 -9.9304 -10.5025 -21.9730 0.0000 25.9089 0.0000
# 6 0.0000 0.0000 0.0000 -17.1250 0.0000 4.7269
#
#
#
# Elastic Compliance Matrix: (Units=1/GPa)
#
#
# Indices 1 2 3 4 5 6 
#
# 1 0.052283 -0.007530 -0.014467 0.000000 0.004718 0.000000
# 2 -0.007530 0.012259 -0.004259 0.000000 -0.001528 0.000000
# 3 -0.014467 -0.004259 0.021392 0.000000 0.010871 0.000000
# 4 0.000000 0.000000 0.000000 -0.026474 0.000000 -0.095912
# 5 0.004718 -0.001528 0.010871 0.000000 0.049005 0.000000
# 6 0.000000 0.000000 0.000000 -0.095912 0.000000 -0.135922
#
#
# Mechanical properties :
#
#
# Convention : Reuss Voigt Hill
#
# Bulk Modulus (GPa) = 29.91907 52.74045 41.32976
# Shear Modulus (GPa) = 138.14213 19.39551 78.76882
#
# Velocity S-wave (km/s) = 8.40640 3.14991 6.34781
# Velocity P-wave (km/s) = 10.46560 6.34105 8.65268
#
# Compressibility (1/GPa) = 0.03342350
#
# Stress axis : x y z
#
# Youngs Moduli (GPa) = 19.12674 81.57284 46.74661
#
# Poissons Ratio (x) = 0.61420 0.67627
# Poissons Ratio (y) = 0.14402 0.19909
# Poissons Ratio (z) = 0.27670 0.34740
#
# Static dielectric constant tensor:
#      x y z
#    x 1.726750 0.000000 -0.019820 
#    y 0.000000 1.683100 0.000000 
#    z -0.019820 0.000000 1.715540 
# 
# From -- ./inp_files/136489.got.cif
#   From: 2010.05.17/outbox.cif.g08.bks.cpg/sg15_69_cif.got.tgz:136489.got - 2010.06.03 18:47:42.
