data_PCOD9256208
_publ_section_title
;
Structure prediction by ZEFSAII (Michael W. Deem and Ramdas Pophale) SiO2 
 PCOD9256208
Probable space group: C 2/C
;
_chemical_formula_sum "Si O2"
_cell_formula_units_Z 64
_cell_length_a 15.218899
_cell_length_b 11.813208
_cell_length_c 21.224175
_cell_angle_alpha 90.000000
_cell_angle_beta 104.425989
_cell_angle_gamma 90.000000
_cell_volume 3695.457323
_symmetry_space_group_name_H-M "C 2/C"
_symmetry_group_IT_number 15
_symmetry_cell_setting 'monoclinic'
loop_
_space_group_symop_operation_xyz
x,y,z
-x,y,1/2-z
-x,-y,-z
x,-y,1/2+z
1/2+x,1/2+y,z
1/2-x,1/2+y,1/2-z
1/2-x,1/2-y,-z
1/2+x,1/2-y,1/2+z
loop_
_atom_site_type_symbol
_atom_site_label
_atom_site_fract_x
_atom_site_fract_y
_atom_site_fract_z
Si Si1 0.458331 0.389664 0.526289
Si Si2 0.703161 0.166876 0.540961
Si Si3 0.905892 0.341013 0.957742
Si Si4 0.901284 0.764613 0.860556
Si Si5 0.544155 0.899105 0.320324
Si Si6 0.206482 0.933675 0.909730
Si Si7 0.441535 0.029336 0.065085
Si Si8 0.392736 0.331206 0.723695
O O1 0.500000 0.500000 0.500000
O O2 0.438670 0.286774 0.474143
O O3 0.529523 0.348134 0.591752
O O4 0.364977 0.407166 0.547746
O O5 0.750000 0.250000 0.500000
O O6 0.666836 0.226331 0.597366
O O7 0.621141 0.112036 0.486384
O O8 0.764637 0.062799 0.574318
O O9 0.798384 0.358753 0.931791
O O10 0.961079 0.409354 0.914076
O O11 0.938212 0.412775 0.024742
O O12 0.962110 0.659911 0.845136
O O13 0.859374 0.818836 0.789609
O O14 0.500000 0.949647 0.250000
O O15 0.605196 0.793328 0.308886
O O16 0.590852 0.991394 0.372260
O O17 0.160429 0.910440 0.833907
O O18 0.500000 0.361705 0.750000
#
# Coordination Sequence:
#
# PCOD9256208 Si02
#       8
#     8   8   8   8   8   8   8   8
#     4  12  21  34  57  87 120 155 190 244 298 357
#     4  11  23  37  56  86 120 156 191 244 307 361
#     4  10  20  33  57  83 116 146 200 243 292 341
#     4  10  18  38  58  76 114 156 196 226 298 359
#     4   9  16  30  58  84 103 146 200 232 279 353
#     4  11  21  35  59  90 114 150 208 246 287 350
#     4  10  17  35  58  79 114 156 182 244 302 344
#     4   9  18  36  61  81 112 155 198 246 283 355
#
# _framework density 17.318560000000002
#
# number of rings (size 3 to 8) (size 9 to 14) (size 15 to 20)
#    0.000    2.000    5.000    2.625    0.000    1.000 
#    0.000    5.000    0.000    0.750    0.000    0.000 
#    0.000    0.000    0.000    0.000    0.000    0.000 
#
# Total GULP energy -178242.842156 kJ/mol
# GULP energy per Si atom -5570.088817 kJ/mol
# Density = 1.727914 g / cm^3
# Si number density = 17.318560 Si / 1000 Ang^3
#
#
#
# Elastic Constant Matrix: (Units=GPa)
#
#
# Indices 1 2 3 4 5 6 
#
# 1 63.5373 51.1276 46.0876 0.0000 -0.9772 0.0000
# 2 51.1276 89.7659 52.9543 0.0000 -1.4565 0.0000
# 3 46.0876 52.9543 119.9068 0.0000 -10.3866 0.0000
# 4 0.0000 0.0000 0.0000 26.9487 0.0000 -3.6468
# 5 -0.9772 -1.4565 -10.3866 0.0000 25.2986 0.0000
# 6 0.0000 0.0000 0.0000 -3.6468 0.0000 26.1936
#
#
#
# Elastic Compliance Matrix: (Units=1/GPa)
#
#
# Indices 1 2 3 4 5 6 
#
# 1 0.031791 -0.014642 -0.005931 0.000000 -0.002050 0.000000
# 2 -0.014642 0.021900 -0.004131 0.000000 -0.001001 0.000000
# 3 -0.005931 -0.004131 0.012860 0.000000 0.004813 0.000000
# 4 0.000000 0.000000 0.000000 0.037820 0.000000 0.005265
# 5 -0.002050 -0.001001 0.004813 0.000000 0.041367 0.000000
# 6 0.000000 0.000000 0.000000 0.005265 0.000000 0.038910
#
#
# Mechanical properties :
#
#
# Convention : Reuss Voigt Hill
#
# Bulk Modulus (GPa) = 58.32426 63.72767 61.02597
# Shear Modulus (GPa) = 20.85327 23.89089 22.37208
#
# Velocity S-wave (km/s) = 3.47378 3.71819 3.59806
# Velocity P-wave (km/s) = 7.05974 7.43710 7.25087
#
# Compressibility (1/GPa) = 0.01714552
#
# Stress axis : x y z
#
# Youngs Moduli (GPa) = 31.45524 45.66200 77.75803
#
# Poissons Ratio (x) = 0.66858 0.46115
# Poissons Ratio (y) = 0.46056 0.32119
# Poissons Ratio (z) = 0.18655 0.18861
#
# Static dielectric constant tensor:
#      x y z
#    x 1.656580 0.000000 -0.024240 
#    y 0.000000 1.615340 0.000000 
#    z -0.024240 0.000000 1.606770 
# 
# From -- ./inp_files/243728.got.cif
#   From: 2010.05.17/outbox.cif.g08.bks.cpg/sg15_122_cif.got.tgz:243728.got - 2010.06.03 18:47:42.
