data_PCOD9256436
_publ_section_title
;
Structure prediction by ZEFSAII (Michael W. Deem and Ramdas Pophale) SiO2 
 PCOD9256436
Probable space group: C 2/C
;
_chemical_formula_sum "Si O2"
_cell_formula_units_Z 56
_cell_length_a 17.374519
_cell_length_b 10.627264
_cell_length_c 23.090423
_cell_angle_alpha 90.000000
_cell_angle_beta 41.196401
_cell_angle_gamma 90.000000
_cell_volume 2808.120237
_symmetry_space_group_name_H-M "C 2/C"
_symmetry_group_IT_number 15
_symmetry_cell_setting 'monoclinic'
loop_
_space_group_symop_operation_xyz
x,y,z
-x,y,1/2-z
-x,-y,-z
x,-y,1/2+z
1/2+x,1/2+y,z
1/2-x,1/2+y,1/2-z
1/2-x,1/2-y,-z
1/2+x,1/2-y,1/2+z
loop_
_atom_site_type_symbol
_atom_site_label
_atom_site_fract_x
_atom_site_fract_y
_atom_site_fract_z
Si Si1 0.500000 0.546763 0.250000
Si Si2 0.615348 0.750000 0.250000
Si Si3 0.660573 0.500000 0.339427
Si Si4 0.921321 0.721358 0.597997
Si Si5 0.117315 0.721358 0.402003
Si Si6 0.583498 0.118788 0.296354
Si Si7 0.500000 0.953238 0.250000
Si Si8 0.176206 0.118788 0.703646
O O1 0.518564 0.643923 0.292139
O O2 0.385388 0.459529 0.312441
O O3 0.593739 0.807752 0.325535
O O4 0.744809 0.692248 0.174466
O O5 0.602842 0.856077 0.207861
O O6 0.591313 0.626494 0.394650
O O7 0.619386 0.373506 0.394650
O O8 0.793670 0.543465 0.275470
O O9 0.655388 0.456535 0.275471
O O10 0.812738 0.656052 0.626116
O O11 0.041358 0.683711 0.500000
O O12 0.064970 0.656052 0.373884
O O13 0.608112 0.250000 0.250000
O O14 0.489729 0.040471 0.312441
#
# Coordination Sequence:
#
# PCOD9256436 Si02
#       8
#     4   8   8   8   8   8   4   8
#     4  11  21  38  62  86 127 175 200 252 328 381
#     4  11  22  40  64  89 126 172 212 255 322 374
#     4  10  17  38  63  88 122 166 209 250 309 382
#     4  11  21  38  66  97 124 165 219 264 305 377
#     4  11  21  38  66  97 124 165 219 264 305 377
#     4  10  19  35  64  89 122 162 208 256 315 366
#     4  11  21  38  62  86 127 175 200 252 328 381
#     4  10  19  35  64  89 122 162 208 256 315 366
#
# _framework density 19.942164999999999
#
# number of rings (size 3 to 8) (size 9 to 14) (size 15 to 20)
#    0.000    1.429    7.143    0.857    0.000    0.000 
#    0.000   10.714    0.000    3.429    0.000    0.000 
#    0.000    0.000    0.000    0.000    0.000    0.000 
#
# Total GULP energy -155932.565695 kJ/mol
# GULP energy per Si atom -5569.020203 kJ/mol
# Density = 1.989678 g / cm^3
# Si number density = 19.942165 Si / 1000 Ang^3
#
#
#
# Elastic Constant Matrix: (Units=GPa)
#
#
# Indices 1 2 3 4 5 6 
#
# 1 108.2700 58.5416 35.3850 0.0000 -1.2555 0.0000
# 2 58.5416 96.9092 17.2190 0.0000 -0.5104 0.0000
# 3 35.3850 17.2190 103.3908 0.0000 1.1963 0.0000
# 4 0.0000 0.0000 0.0000 15.0805 0.0000 -0.6257
# 5 -1.2555 -0.5104 1.1963 0.0000 -14.3747 0.0000
# 6 0.0000 0.0000 0.0000 -0.6257 0.0000 65.7453
#
#
#
# Elastic Compliance Matrix: (Units=1/GPa)
#
#
# Indices 1 2 3 4 5 6 
#
# 1 0.014971 -0.008391 -0.003711 0.000000 -0.001318 0.000000
# 2 -0.008391 0.015333 0.000316 0.000000 0.000215 0.000000
# 3 -0.003711 0.000316 0.010875 0.000000 0.001218 0.000000
# 4 0.000000 0.000000 0.000000 0.066337 0.000000 0.000631
# 5 -0.001318 0.000215 0.001218 0.000000 -0.069358 0.000000
# 6 0.000000 0.000000 0.000000 0.000631 0.000000 0.015216
#
#
# Mechanical properties :
#
#
# Convention : Reuss Voigt Hill
#
# Bulk Modulus (GPa) = 56.79745 58.98456 57.89101
# Shear Modulus (GPa) = 60.37444 26.45184 43.41314
#
# Velocity S-wave (km/s) = 5.50822 3.64597 4.67084
# Velocity P-wave (km/s) = 8.30644 6.88231 7.62768
#
# Compressibility (1/GPa) = 0.01760642
#
# Stress axis : x y z
#
# Youngs Moduli (GPa) = 66.79642 65.21871 91.95054
#
# Poissons Ratio (x) = 0.54727 0.34122
# Poissons Ratio (y) = 0.56051 -0.02904
# Poissons Ratio (z) = 0.24788 -0.02060
#
# Static dielectric constant tensor:
#      x y z
#    x 1.751360 0.000000 -0.001070 
#    y 0.000000 1.817520 0.000000 
#    z -0.001070 0.000000 1.665070 
# 
# From -- ./inp_files/277070.got.cif
#   From: 2010.05.17/outbox.cif.g08.bks.cpg/sg15_139_cif.got.tgz:277070.got - 2010.06.03 18:47:42.
