data_PCOD9256506
_publ_section_title
;
Structure prediction by ZEFSAII (Michael W. Deem and Ramdas Pophale) SiO2 
 PCOD9256506
Probable space group: C 2/C
;
_chemical_formula_sum "Si O2"
_cell_formula_units_Z 60
_cell_length_a 34.326373
_cell_length_b 22.855721
_cell_length_c 5.580392
_cell_angle_alpha 90.000000
_cell_angle_beta 52.207342
_cell_angle_gamma 90.000000
_cell_volume 3459.736410
_symmetry_space_group_name_H-M "C 2/C"
_symmetry_group_IT_number 15
_symmetry_cell_setting 'monoclinic'
loop_
_space_group_symop_operation_xyz
x,y,z
-x,y,1/2-z
-x,-y,-z
x,-y,1/2+z
1/2+x,1/2+y,z
1/2-x,1/2+y,1/2-z
1/2-x,1/2-y,-z
1/2+x,1/2-y,1/2+z
loop_
_atom_site_type_symbol
_atom_site_label
_atom_site_fract_x
_atom_site_fract_y
_atom_site_fract_z
Si Si1 0.686971 0.647473 0.993668
Si Si2 0.158758 0.280922 0.121074
Si Si3 0.771406 0.179592 0.162211
Si Si4 0.548465 0.552663 0.185251
Si Si5 0.352192 0.524576 0.501160
Si Si6 0.444866 0.328401 0.062514
Si Si7 0.500000 0.638588 0.750000
Si Si8 0.362896 0.233495 0.295353
O O1 0.722177 0.651169 0.625569
O O2 0.653949 0.591319 0.059966
O O3 0.658782 0.709593 0.110239
O O4 0.712123 0.643538 0.162073
O O5 0.133515 0.298960 0.464327
O O6 0.215915 0.299467 0.907971
O O7 0.135745 0.301358 0.957346
O O8 0.809209 0.234579 0.009587
O O9 0.500000 0.524146 0.250000
O O10 0.524788 0.596242 0.467768
O O11 0.589436 0.514795 0.165308
O O12 0.570907 0.604085 0.928677
O O13 0.332343 0.488378 0.345785
O O14 0.456458 0.324030 0.299484
O O15 0.403930 0.284073 0.133180
O O16 0.500000 0.316570 0.750000
#
# Coordination Sequence:
#
# PCOD9256506 Si02
#       8
#     8   8   8   8   8   8   4   8
#     4  10  19  33  50  64  90 117 133 175 231 274
#     4  10  19  30  49  77  92 107 138 177 240 304
#     4  10  18  31  52  75  92 107 138 177 240 304
#     4   9  20  35  49  62  76 106 150 210 258 285
#     4  12  27  38  49  66  88 116 160 193 232 300
#     4   9  19  30  46  66  85 118 159 193 230 298
#     4   8  18  30  50  60  82  98 164 194 252 284
#     4  10  18  26  44  65  95 117 132 175 230 273
#
# _framework density 17.342362000000001
#
# number of rings (size 3 to 8) (size 9 to 14) (size 15 to 20)
#    0.000    2.400    0.000    6.400   11.200    0.533 
#    0.000    0.000    0.000    0.000    0.000    0.000 
#    0.000    0.000    0.000    0.000    0.000    0.000 
#
# Total GULP energy -167092.457647 kJ/mol
# GULP energy per Si atom -5569.748588 kJ/mol
# Density = 1.730289 g / cm^3
# Si number density = 17.342362 Si / 1000 Ang^3
#
#
#
# Elastic Constant Matrix: (Units=GPa)
#
#
# Indices 1 2 3 4 5 6 
#
# 1 99.0262 16.1427 34.2857 0.0000 32.4635 0.0000
# 2 16.1427 14.7720 9.3574 0.0000 -0.7045 0.0000
# 3 34.2857 9.3574 60.9102 0.0000 22.2312 0.0000
# 4 0.0000 0.0000 0.0000 13.4627 0.0000 1.3668
# 5 32.4635 -0.7045 22.2312 0.0000 38.7630 0.0000
# 6 0.0000 0.0000 0.0000 1.3668 0.0000 22.7304
#
#
#
# Elastic Compliance Matrix: (Units=1/GPa)
#
#
# Indices 1 2 3 4 5 6 
#
# 1 0.019098 -0.020258 -0.002107 0.000000 -0.015154 0.000000
# 2 -0.020258 0.099732 -0.013624 0.000000 0.026592 0.000000
# 3 -0.002107 -0.013624 0.024211 0.000000 -0.012368 0.000000
# 4 0.000000 0.000000 0.000000 0.074736 0.000000 -0.004494
# 5 -0.015154 0.026592 -0.012368 0.000000 0.046066 0.000000
# 6 0.000000 0.000000 0.000000 -0.004494 0.000000 0.044264
#
#
# Mechanical properties :
#
#
# Convention : Reuss Voigt Hill
#
# Bulk Modulus (GPa) = 14.07212 32.69779 23.38496
# Shear Modulus (GPa) = 12.38321 22.65274 17.51797
#
# Velocity S-wave (km/s) = 2.67506 3.61807 3.18170
# Velocity P-wave (km/s) = 4.20395 6.02902 5.19723
#
# Compressibility (1/GPa) = 0.07106248
#
# Stress axis : x y z
#
# Youngs Moduli (GPa) = 52.36083 10.02689 41.30390
#
# Poissons Ratio (x) = 0.20313 0.08702
# Poissons Ratio (y) = 1.06075 0.56272
# Poissons Ratio (z) = 0.11032 0.13661
#
# Static dielectric constant tensor:
#      x y z
#    x 1.705790 0.000000 0.115700 
#    y 0.000000 1.559490 0.000000 
#    z 0.115700 0.000000 1.756160 
# 
# From -- ./inp_files/17743.got.cif
#   From: 2010.05.17/outbox.cif.g08.bks.cpg/sg15_9_cif.got.tgz:17743.got - 2010.06.03 18:47:42.
