data_PCOD9256062
_publ_section_title
;
Structure prediction by ZEFSAII (Michael W. Deem and Ramdas Pophale) SiO2 
 PCOD9256062
Probable space group: C 2/C
;
_chemical_formula_sum "Si O2"
_cell_formula_units_Z 56
_cell_length_a 20.729893
_cell_length_b 24.063842
_cell_length_c 9.970021
_cell_angle_alpha 90.000000
_cell_angle_beta 151.164481
_cell_angle_gamma 90.000000
_cell_volume 2398.681046
_symmetry_space_group_name_H-M "C 2/C"
_symmetry_group_IT_number 15
_symmetry_cell_setting 'monoclinic'
loop_
_space_group_symop_operation_xyz
x,y,z
-x,y,1/2-z
-x,-y,-z
x,-y,1/2+z
1/2+x,1/2+y,z
1/2-x,1/2+y,1/2-z
1/2-x,1/2-y,-z
1/2+x,1/2-y,1/2+z
loop_
_atom_site_type_symbol
_atom_site_label
_atom_site_fract_x
_atom_site_fract_y
_atom_site_fract_z
Si Si1 0.137712 0.560349 0.068421
Si Si2 0.201166 0.898879 0.885196
Si Si3 0.626629 0.184377 0.673321
Si Si4 0.654167 0.163682 0.274452
Si Si5 0.053159 0.863804 0.197834
Si Si6 0.877748 0.993141 0.120733
Si Si7 0.356381 0.242901 0.502173
O O1 0.219197 0.596353 0.108199
O O2 0.117721 0.601147 0.158114
O O3 0.236780 0.511345 0.287591
O O4 0.000000 0.543297 0.750000
O O5 0.146033 0.960354 0.812643
O O6 0.073470 0.859264 0.630152
O O7 0.300430 0.875071 0.177220
O O8 0.469114 0.181798 0.357014
O O9 0.639386 0.210513 0.847592
O O10 0.723400 0.220693 0.758763
O O11 0.809652 0.164549 0.599510
O O12 0.648295 0.201011 0.130438
O O13 0.000000 0.846979 0.250000
O O14 0.089741 0.929765 0.277093
O O15 0.000000 0.011192 0.250000
O O16 0.500000 0.273155 0.750000
#
# Coordination Sequence:
#
# PCOD9256062 Si02
#       7
#     8   8   8   8   8   8   8
#     4  11  19  35  56  83 112 148 195 236 278 327
#     4  12  20  34  57  81 116 149 191 235 281 344
#     4  10  19  31  55  84 106 145 187 231 292 329
#     4  10  17  34  56  84 111 141 191 245 271 333
#     4  10  18  33  56  80 107 152 196 234 279 328
#     4  10  22  35  50  81 114 151 190 236 283 335
#     4   9  17  32  56  81 109 142 186 236 280 344
#
# _framework density 23.346164000000002
#
# number of rings (size 3 to 8) (size 9 to 14) (size 15 to 20)
#    0.000    1.714    7.143    0.857    0.000    1.143 
#    0.000    0.000    0.000   17.143    0.000    7.000 
#    0.000    0.000    0.000    0.000    0.000    0.000 
#
# Total GULP energy -156416.916167 kJ/mol
# GULP energy per Si atom -5586.318435 kJ/mol
# Density = 2.329303 g / cm^3
# Si number density = 23.346164 Si / 1000 Ang^3
#
#
#
# Elastic Constant Matrix: (Units=GPa)
#
#
# Indices 1 2 3 4 5 6 
#
# 1 44.5967 23.9031 35.7476 0.0000 26.7089 0.0000
# 2 23.9031 28.6544 16.6173 0.0000 20.5146 0.0000
# 3 35.7476 16.6173 215.2660 0.0000 35.5553 0.0000
# 4 0.0000 0.0000 0.0000 14.2656 0.0000 3.0100
# 5 26.7089 20.5146 35.5553 0.0000 35.6996 0.0000
# 6 0.0000 0.0000 0.0000 3.0100 0.0000 12.4359
#
#
#
# Elastic Compliance Matrix: (Units=1/GPa)
#
#
# Indices 1 2 3 4 5 6 
#
# 1 0.051050 -0.026609 -0.003161 0.000000 -0.019755 0.000000
# 2 -0.026609 0.073447 0.002911 0.000000 -0.025197 0.000000
# 3 -0.003161 0.002911 0.005783 0.000000 -0.005067 0.000000
# 4 0.000000 0.000000 0.000000 0.073872 0.000000 -0.017880
# 5 -0.019755 -0.025197 -0.005067 0.000000 0.062317 0.000000
# 6 0.000000 0.000000 0.000000 -0.017880 0.000000 0.084740
#
#
# Mechanical properties :
#
#
# Convention : Reuss Voigt Hill
#
# Bulk Modulus (GPa) = 13.06139 49.00592 31.03365
# Shear Modulus (GPa) = 11.61586 26.63015 19.12301
#
# Velocity S-wave (km/s) = 2.23300 3.38104 2.86511
# Velocity P-wave (km/s) = 3.50074 6.02316 4.92614
#
# Compressibility (1/GPa) = 0.07656155
#
# Stress axis : x y z
#
# Youngs Moduli (GPa) = 19.58877 13.61526 172.93507
#
# Poissons Ratio (x) = 0.36229 0.54656
# Poissons Ratio (y) = 0.52124 -0.50340
# Poissons Ratio (z) = 0.06191 -0.03963
#
# Static dielectric constant tensor:
#      x y z
#    x 1.880660 0.000000 -0.021430 
#    y 0.000000 1.865290 0.000000 
#    z -0.021430 0.000000 1.936020 
# 
# From -- ./inp_files/179232.got.cif
#   From: 2010.05.17/outbox.cif.g08.bks.cpg/sg15_90_cif.got.tgz:179232.got - 2010.06.03 18:47:42.
