data_PCOD9256632
_publ_section_title
;
Structure prediction by ZEFSAII (Michael W. Deem and Ramdas Pophale) SiO2 
 PCOD9256632
Probable space group: C 2/C
;
_chemical_formula_sum "Si O2"
_cell_formula_units_Z 64
_cell_length_a 14.759225
_cell_length_b 12.799046
_cell_length_c 18.471067
_cell_angle_alpha 90.000000
_cell_angle_beta 87.941894
_cell_angle_gamma 90.000000
_cell_volume 3487.007584
_symmetry_space_group_name_H-M "C 2/C"
_symmetry_group_IT_number 15
_symmetry_cell_setting 'monoclinic'
loop_
_space_group_symop_operation_xyz
x,y,z
-x,y,1/2-z
-x,-y,-z
x,-y,1/2+z
1/2+x,1/2+y,z
1/2-x,1/2+y,1/2-z
1/2-x,1/2-y,-z
1/2+x,1/2-y,1/2+z
loop_
_atom_site_type_symbol
_atom_site_label
_atom_site_fract_x
_atom_site_fract_y
_atom_site_fract_z
Si Si1 0.747788 0.736791 0.120257
Si Si2 0.147856 0.873916 0.486364
Si Si3 0.627729 0.060761 0.414505
Si Si4 0.285543 0.585853 0.968522
Si Si5 0.651635 0.198474 0.069935
Si Si6 0.427893 0.184730 0.813740
Si Si7 0.455289 0.949069 0.823996
Si Si8 0.519790 0.203668 0.522880
O O1 0.794756 0.840685 0.086113
O O2 0.825415 0.652388 0.134549
O O3 0.669986 0.759331 0.180534
O O4 0.698058 0.682491 0.052810
O O5 0.053094 0.813738 0.488163
O O6 0.148522 0.995131 0.504813
O O7 0.538078 0.024035 0.376307
O O8 0.590338 0.117439 0.488603
O O9 0.703259 0.975014 0.430587
O O10 0.329762 0.678599 0.920798
O O11 0.242543 0.643834 0.039054
O O12 0.609472 0.134755 0.137187
O O13 0.578324 0.184003 0.007266
O O14 0.500000 0.214623 0.750000
O O15 0.471962 0.205281 0.891415
O O16 0.410375 0.060437 0.807883
O O17 0.500000 0.906789 0.750000
#
# Coordination Sequence:
#
# PCOD9256632 Si02
#       8
#     8   8   8   8   8   8   8   8
#     4   8  14  27  46  71  92 116 152 192 234 274
#     4   8  14  26  48  69  92 119 153 195 228 270
#     4   9  17  32  54  70  89 124 161 195 235 282
#     4  10  18  29  48  74  97 121 155 194 239 276
#     4  10  20  31  47  71  99 125 154 195 236 277
#     4  10  18  28  48  73  97 121 154 197 237 274
#     4  10  20  34  49  68  93 125 161 195 234 282
#     4   9  17  31  50  72  94 122 158 194 235 279
#
# _framework density 18.353846000000001
#
# number of rings (size 3 to 8) (size 9 to 14) (size 15 to 20)
#    0.000    2.750    0.000    4.500    0.000    2.500 
#    0.000    5.000    0.000    6.750    0.000    0.000 
#    0.000    0.000    0.000    0.000    0.000    0.000 
#
# Total GULP energy -178261.954203 kJ/mol
# GULP energy per Si atom -5570.686069 kJ/mol
# Density = 1.831207 g / cm^3
# Si number density = 18.353846 Si / 1000 Ang^3
#
#
#
# Elastic Constant Matrix: (Units=GPa)
#
#
# Indices 1 2 3 4 5 6 
#
# 1 41.3449 18.8686 15.9596 0.0000 -21.5579 0.0000
# 2 18.8686 83.4015 14.6245 0.0000 -21.5150 0.0000
# 3 15.9596 14.6245 70.8612 0.0000 -30.4114 0.0000
# 4 0.0000 0.0000 0.0000 16.3440 0.0000 -7.3389
# 5 -21.5579 -21.5150 -30.4114 0.0000 28.3421 0.0000
# 6 0.0000 0.0000 0.0000 -7.3389 0.0000 34.8234
#
#
#
# Elastic Compliance Matrix: (Units=1/GPa)
#
#
# Indices 1 2 3 4 5 6 
#
# 1 0.042393 -0.000596 0.007822 0.000000 0.040186 0.000000
# 2 -0.000596 0.015347 0.003285 0.000000 0.014722 0.000000
# 3 0.007822 0.003285 0.028352 0.000000 0.038865 0.000000
# 4 0.000000 0.000000 0.000000 0.067580 0.000000 0.014242
# 5 0.040186 0.014722 0.038865 0.000000 0.118728 0.000000
# 6 0.000000 0.000000 0.000000 0.014242 0.000000 0.031718
#
#
# Mechanical properties :
#
#
# Convention : Reuss Voigt Hill
#
# Bulk Modulus (GPa) = 9.33588 32.72365 21.02977
# Shear Modulus (GPa) = 15.68378 25.64555 20.66466
#
# Velocity S-wave (km/s) = 2.92639 3.74208 3.35909
# Velocity P-wave (km/s) = 4.06399 6.04474 5.15048
#
# Compressibility (1/GPa) = 0.10711357
#
# Stress axis : x y z
#
# Youngs Moduli (GPa) = 23.58882 65.16075 35.27043
#
# Poissons Ratio (x) = 0.03882 -0.27587
# Poissons Ratio (y) = 0.01405 -0.11586
# Poissons Ratio (z) = -0.18450 -0.21405
#
# Static dielectric constant tensor:
#      x y z
#    x 1.678950 0.000000 -0.001200 
#    y 0.000000 1.682460 0.000000 
#    z -0.001200 0.000000 1.629300 
# 
# From -- ./inp_files/210295.got.cif
#   From: 2010.05.17/outbox.cif.g08.bks.cpg/sg15_106_cif.got.tgz:210295.got - 2010.06.03 18:47:42.
