data_PCOD9256302
_publ_section_title
;
Structure prediction by ZEFSAII (Michael W. Deem and Ramdas Pophale) SiO2 
 PCOD9256302
Probable space group: C 2/C
;
_chemical_formula_sum "Si O2"
_cell_formula_units_Z 48
_cell_length_a 9.458115
_cell_length_b 16.277685
_cell_length_c 22.337085
_cell_angle_alpha 90.000000
_cell_angle_beta 127.538165
_cell_angle_gamma 90.000000
_cell_volume 2726.893971
_symmetry_space_group_name_H-M "C 2/C"
_symmetry_group_IT_number 15
_symmetry_cell_setting 'monoclinic'
loop_
_space_group_symop_operation_xyz
x,y,z
-x,y,1/2-z
-x,-y,-z
x,-y,1/2+z
1/2+x,1/2+y,z
1/2-x,1/2+y,1/2-z
1/2-x,1/2-y,-z
1/2+x,1/2-y,1/2+z
loop_
_atom_site_type_symbol
_atom_site_label
_atom_site_fract_x
_atom_site_fract_y
_atom_site_fract_z
Si Si1 0.779389 0.912052 0.938648
Si Si2 0.806548 0.752268 0.669772
Si Si3 0.814920 0.673214 0.477103
Si Si4 0.198159 0.096763 0.560447
Si Si5 0.472135 0.766896 0.672535
Si Si6 0.785998 0.672613 0.964960
O O1 0.652825 0.846402 0.873275
O O2 0.770792 0.003600 0.910321
O O3 0.726413 0.905314 0.995128
O O4 0.988273 0.888375 0.993890
O O5 0.790598 0.820400 0.612703
O O6 0.765553 0.666028 0.624290
O O7 0.651694 0.768978 0.678809
O O8 0.000000 0.750822 0.750000
O O9 0.750000 0.750000 0.500000
O O10 0.787423 0.601964 0.517915
O O11 0.020498 0.680313 0.512932
O O12 0.500000 0.763539 0.750000
O O13 0.364206 0.686063 0.623143
O O14 0.750000 0.750000 0.000000
#
# Coordination Sequence:
#
# PCOD9256302 Si02
#       6
#     8   8   8   8   8   8
#     4  10  20  40  60  81 113 153 190 235 283 340
#     4  11  22  36  56  86 117 143 187 241 279 337
#     4  10  19  34  58  85 108 144 191 236 278 328
#     4  10  22  37  61  85 112 150 188 236 290 334
#     4  11  22  35  59  84 111 152 190 230 282 335
#     4  10  17  36  58  80 109 142 196 236 268 328
#
# _framework density 17.602443999999998
#
# number of rings (size 3 to 8) (size 9 to 14) (size 15 to 20)
#    0.000    1.667    5.000    3.000    7.000    1.333 
#    0.000    0.000    0.000    1.000    0.000    0.000 
#    0.000    0.000    0.000    0.000    0.000    0.000 
#
# Total GULP energy -133646.059128 kJ/mol
# GULP energy per Si atom -5568.585797 kJ/mol
# Density = 1.756238 g / cm^3
# Si number density = 17.602444 Si / 1000 Ang^3
#
#
#
# Elastic Constant Matrix: (Units=GPa)
#
#
# Indices 1 2 3 4 5 6 
#
# 1 142.4661 6.1360 46.6896 0.0000 1.4429 0.0000
# 2 6.1360 40.7407 12.7932 0.0000 -0.5167 0.0000
# 3 46.6896 12.7932 133.7983 0.0000 -4.8741 0.0000
# 4 0.0000 0.0000 0.0000 17.3084 0.0000 -2.5582
# 5 1.4429 -0.5167 -4.8741 0.0000 33.8936 0.0000
# 6 0.0000 0.0000 0.0000 -2.5582 0.0000 10.0442
#
#
#
# Elastic Compliance Matrix: (Units=1/GPa)
#
#
# Indices 1 2 3 4 5 6 
#
# 1 0.007949 -0.000337 -0.002768 0.000000 -0.000742 0.000000
# 2 -0.000337 0.025320 -0.002301 0.000000 0.000069 0.000000
# 3 -0.002768 -0.002301 0.008709 0.000000 0.001335 0.000000
# 4 0.000000 0.000000 0.000000 0.060035 0.000000 0.015291
# 5 -0.000742 0.000069 0.001335 0.000000 0.029729 0.000000
# 6 0.000000 0.000000 0.000000 0.015291 0.000000 0.103455
#
#
# Mechanical properties :
#
#
# Convention : Reuss Voigt Hill
#
# Bulk Modulus (GPa) = 32.08834 49.80476 40.94655
# Shear Modulus (GPa) = 19.50106 29.00832 24.25469
#
# Velocity S-wave (km/s) = 3.33207 4.06393 3.71606
# Velocity P-wave (km/s) = 5.75088 7.09763 6.45945
#
# Compressibility (1/GPa) = 0.03116397
#
# Stress axis : x y z
#
# Youngs Moduli (GPa) = 125.80928 39.49503 114.82858
#
# Poissons Ratio (x) = 0.01332 0.31790
# Poissons Ratio (y) = 0.04242 0.26419
# Poissons Ratio (z) = 0.34830 0.09087
#
# Static dielectric constant tensor:
#      x y z
#    x 1.643470 0.000000 0.019620 
#    y 0.000000 1.653530 0.000000 
#    z 0.019620 0.000000 1.667850 
# 
# From -- ./inp_files/232316.got.cif
#   From: 2010.05.17/outbox.cif.g08.bks.cpg/sg15_117_cif.got.tgz:232316.got - 2010.06.03 18:47:42.
