data_PCOD9256322
_publ_section_title
;
Structure prediction by ZEFSAII (Michael W. Deem and Ramdas Pophale) SiO2 
 PCOD9256322
Probable space group: C 2/C
;
_chemical_formula_sum "Si O2"
_cell_formula_units_Z 48
_cell_length_a 16.199847
_cell_length_b 15.620641
_cell_length_c 17.978687
_cell_angle_alpha 90.000000
_cell_angle_beta 25.039673
_cell_angle_gamma 90.000000
_cell_volume 1925.574388
_symmetry_space_group_name_H-M "C 2/C"
_symmetry_group_IT_number 15
_symmetry_cell_setting 'monoclinic'
loop_
_space_group_symop_operation_xyz
x,y,z
-x,y,1/2-z
-x,-y,-z
x,-y,1/2+z
1/2+x,1/2+y,z
1/2-x,1/2+y,1/2-z
1/2-x,1/2-y,-z
1/2+x,1/2-y,1/2+z
loop_
_atom_site_type_symbol
_atom_site_label
_atom_site_fract_x
_atom_site_fract_y
_atom_site_fract_z
Si Si1 0.168334 0.558930 0.674253
Si Si2 0.340085 0.869376 0.027843
Si Si3 0.898036 0.789981 0.059253
Si Si4 0.058234 0.603323 0.503601
Si Si5 0.279056 0.803285 0.811539
Si Si6 0.448363 0.481740 0.715839
O O1 0.272442 0.648168 0.611471
O O2 0.048687 0.544659 0.848220
O O3 0.353732 0.505117 0.492367
O O4 0.000000 0.563541 0.750000
O O5 0.427969 0.895478 0.036571
O O6 0.260290 0.772110 0.098000
O O7 0.164131 0.934090 0.162201
O O8 0.536759 0.861119 0.818273
O O9 0.936313 0.704084 0.979796
O O10 0.076144 0.844234 0.950901
O O11 0.823770 0.746985 0.197090
O O12 0.278298 0.571023 0.313579
O O13 0.500000 0.432059 0.750000
#
# Coordination Sequence:
#
# PCOD9256322 Si02
#       6
#     8   8   8   8   8   8
#     4  12  23  38  58  85 128 165 201 236 293 357
#     4  10  20  41  65  91 115 151 200 253 308 356
#     4  10  17  36  59  89 122 148 202 245 284 347
#     4  10  22  41  60  94 117 161 205 241 296 355
#     4   8  17  36  63  88 111 142 194 261 298 346
#     4  12  26  42  57  87 129 164 196 250 299 355
#
# _framework density 24.927626
#
# number of rings (size 3 to 8) (size 9 to 14) (size 15 to 20)
#    0.000    2.000    5.000    2.500    0.000    2.000 
#    6.000    0.833    0.000    0.000    0.000    0.000 
#    0.000    0.000    0.000    0.000    0.000    0.000 
#
# Total GULP energy -133755.559738 kJ/mol
# GULP energy per Si atom -5573.148322 kJ/mol
# Density = 2.487089 g / cm^3
# Si number density = 24.927626 Si / 1000 Ang^3
#
#
#
# Elastic Constant Matrix: (Units=GPa)
#
#
# Indices 1 2 3 4 5 6 
#
# 1 59.4718 11.3607 26.0526 -0.0001 -21.1032 -0.0009
# 2 11.3607 86.2758 30.2432 0.0024 -26.2728 -0.0062
# 3 26.0526 30.2432 144.8085 -0.0130 -32.3525 -0.0046
# 4 -0.0001 0.0024 -0.0130 36.2935 -0.0021 -4.1630
# 5 -21.1032 -26.2728 -32.3525 -0.0021 45.0361 0.0031
# 6 -0.0009 -0.0062 -0.0046 -4.1630 0.0031 13.0181
#
#
#
# Elastic Compliance Matrix: (Units=1/GPa)
#
#
# Indices 1 2 3 4 5 6 
#
# 1 0.020597 0.000580 -0.001900 0.000000 0.008625 -0.000001
# 2 0.000580 0.014325 -0.001392 0.000000 0.007629 0.000004
# 3 -0.001900 -0.001392 0.008526 0.000004 0.004423 0.000002
# 4 0.000000 0.000000 0.000004 0.028602 0.000003 0.009147
# 5 0.008625 0.007629 0.004423 0.000003 0.033874 -0.000001
# 6 -0.000001 0.000004 0.000002 0.009147 -0.000001 0.079741
#
#
# Mechanical properties :
#
#
# Convention : Reuss Voigt Hill
#
# Bulk Modulus (GPa) = 26.29793 47.31879 36.80836
# Shear Modulus (GPa) = 24.53831 33.72953 29.13392
#
# Velocity S-wave (km/s) = 3.14089 3.68244 3.42239
# Velocity P-wave (km/s) = 4.87095 6.09132 5.51500
#
# Compressibility (1/GPa) = 0.03802581
#
# Stress axis : x y z
#
# Youngs Moduli (GPa) = 48.55165 69.80590 117.28455
#
# Poissons Ratio (x) = -0.04051 0.22282
# Poissons Ratio (y) = -0.02818 0.16324
# Poissons Ratio (z) = 0.09224 0.09716
#
# Static dielectric constant tensor:
#      x y z
#    x 1.902260 0.000000 0.047450 
#    y 0.000000 2.092910 0.000020 
#    z 0.047450 0.000020 2.208010 
# 
# From -- ./inp_files/280235.got.cif
#   From: 2010.05.17/outbox.cif.g08.bks.cpg/sg15_141_cif.got.tgz:280235.got - 2010.06.03 18:47:42.
