data_PCOD9256864
_publ_section_title
;
Structure prediction by ZEFSAII (Michael W. Deem and Ramdas Pophale) SiO2 
 PCOD9256864
Probable space group: C 2/C
;
_chemical_formula_sum "Si O2"
_cell_formula_units_Z 64
_cell_length_a 27.764054
_cell_length_b 17.422546
_cell_length_c 27.496646
_cell_angle_alpha 90.000000
_cell_angle_beta 17.016930
_cell_angle_gamma 90.000000
_cell_volume 3892.504115
_symmetry_space_group_name_H-M "C 2/C"
_symmetry_group_IT_number 15
_symmetry_cell_setting 'monoclinic'
loop_
_space_group_symop_operation_xyz
x,y,z
-x,y,1/2-z
-x,-y,-z
x,-y,1/2+z
1/2+x,1/2+y,z
1/2-x,1/2+y,1/2-z
1/2-x,1/2-y,-z
1/2+x,1/2-y,1/2+z
loop_
_atom_site_type_symbol
_atom_site_label
_atom_site_fract_x
_atom_site_fract_y
_atom_site_fract_z
Si Si1 0.649842 0.902725 0.342858
Si Si2 0.547758 0.541024 0.077417
Si Si3 0.077834 0.164678 0.227905
Si Si4 0.820290 0.667969 0.137801
Si Si5 0.468921 0.167641 0.838418
Si Si6 0.947859 0.828779 0.009973
Si Si7 0.208440 0.504306 0.379228
Si Si8 0.602553 0.035038 0.778076
O O1 0.479517 0.856607 0.515784
O O2 0.627981 0.938532 0.309886
O O3 0.672740 0.966154 0.361862
O O4 0.817058 0.852991 0.177668
O O5 0.502449 0.593764 0.166704
O O6 0.558675 0.603724 0.023305
O O7 0.392933 0.486552 0.217216
O O8 0.725085 0.501235 0.906477
O O9 0.000000 0.165466 0.250000
O O10 0.029025 0.247761 0.296288
O O11 0.274232 0.159610 0.034974
O O12 0.641821 0.678356 0.335049
O O13 0.795395 0.597209 0.124687
O O14 0.877259 0.747798 0.058958
O O15 0.500000 0.158966 0.750000
O O16 0.564033 0.105613 0.779208
O O17 0.063800 0.485592 0.556658
#
# Coordination Sequence:
#
# PCOD9256864 Si02
#       8
#     8   8   8   8   8   8   8   8
#     4  10  21  34  48  68  94 123 164 206 244 292
#     4  10  21  31  48  68  92 121 164 205 246 283
#     4  11  21  33  46  67  94 124 163 212 253 286
#     4  10  18  30  45  65  89 120 156 199 239 275
#     4  11  21  33  47  67  93 124 166 208 255 288
#     4  10  20  29  47  67  90 121 161 203 239 280
#     4  10  21  34  48  69  93 124 164 206 245 292
#     4  10  19  32  47  66  88 121 155 198 244 283
#
# _framework density 16.441858
#
# number of rings (size 3 to 8) (size 9 to 14) (size 15 to 20)
#    0.000    1.750    2.500    4.500    3.500    6.500 
#    0.000    0.000    0.000    0.000    0.000    0.000 
#    0.000    0.000    0.000    0.000    0.000   11.250 
#
# Total GULP energy -178224.631930 kJ/mol
# GULP energy per Si atom -5569.519748 kJ/mol
# Density = 1.640444 g / cm^3
# Si number density = 16.441858 Si / 1000 Ang^3
#
#
#
# Elastic Constant Matrix: (Units=GPa)
#
#
# Indices 1 2 3 4 5 6 
#
# 1 46.9639 9.1665 18.6206 -0.0011 0.3909 -0.0152
# 2 9.1665 13.3883 14.8891 -0.0171 4.5532 -0.0504
# 3 18.6206 14.8891 167.5467 0.0110 -18.1448 0.0016
# 4 -0.0011 -0.0171 0.0110 43.9801 0.0160 33.9289
# 5 0.3909 4.5532 -18.1448 0.0160 20.3448 0.0294
# 6 -0.0152 -0.0504 0.0016 33.9289 0.0294 45.9998
#
#
#
# Elastic Compliance Matrix: (Units=1/GPa)
#
#
# Indices 1 2 3 4 5 6 
#
# 1 0.024948 -0.016731 -0.001032 0.000006 0.002345 -0.000016
# 2 -0.016731 0.111253 -0.011832 -0.000113 -0.035129 0.000223
# 3 -0.001032 -0.011832 0.008217 0.000012 0.009996 -0.000029
# 4 0.000006 -0.000113 0.000012 0.052758 0.000050 -0.038914
# 5 0.002345 -0.035129 0.009996 0.000050 0.065885 -0.000117
# 6 -0.000016 0.000223 -0.000029 -0.038914 -0.000117 0.050442
#
#
# Mechanical properties :
#
#
# Convention : Reuss Voigt Hill
#
# Bulk Modulus (GPa) = 11.73302 34.80570 23.26936
# Shear Modulus (GPa) = 12.46565 34.41312 23.43939
#
# Velocity S-wave (km/s) = 2.75647 4.57992 3.77980
# Velocity P-wave (km/s) = 4.15721 7.01302 5.76475
#
# Compressibility (1/GPa) = 0.08522954
#
# Stress axis : x y z
#
# Youngs Moduli (GPa) = 40.08305 8.98850 121.69670
#
# Poissons Ratio (x) = 0.15039 0.12558
# Poissons Ratio (y) = 0.67063 1.43986
# Poissons Ratio (z) = 0.04136 0.10635
#
# Static dielectric constant tensor:
#      x y z
#    x 1.557370 0.000000 -0.025170 
#    y 0.000000 1.545600 0.000020 
#    z -0.025170 0.000020 1.673590 
# 
# From -- ./inp_files/282235.got.cif
#   From: 2010.05.17/outbox.cif.g08.bks.cpg/sg15_142_cif.got.tgz:282235.got - 2010.06.03 18:47:42.
