data_PCOD9256158
_publ_section_title
;
Structure prediction by ZEFSAII (Michael W. Deem and Ramdas Pophale) SiO2 
 PCOD9256158
Probable space group: C 2/C
;
_chemical_formula_sum "Si O2"
_cell_formula_units_Z 56
_cell_length_a 25.131089
_cell_length_b 9.145141
_cell_length_c 16.974051
_cell_angle_alpha 90.000000
_cell_angle_beta 53.161847
_cell_angle_gamma 90.000000
_cell_volume 3122.177321
_symmetry_space_group_name_H-M "C 2/C"
_symmetry_group_IT_number 15
_symmetry_cell_setting 'monoclinic'
loop_
_space_group_symop_operation_xyz
x,y,z
-x,y,1/2-z
-x,-y,-z
x,-y,1/2+z
1/2+x,1/2+y,z
1/2-x,1/2+y,1/2-z
1/2-x,1/2-y,-z
1/2+x,1/2-y,1/2+z
loop_
_atom_site_type_symbol
_atom_site_label
_atom_site_fract_x
_atom_site_fract_y
_atom_site_fract_z
Si Si1 0.564971 0.723708 0.746744
Si Si2 0.178421 0.172448 0.067072
Si Si3 0.397183 0.644510 0.042787
Si Si4 0.935500 0.822047 0.952440
Si Si5 0.415851 0.391763 0.708583
Si Si6 0.022581 0.351910 0.937462
Si Si7 0.815038 0.827529 0.472343
O O1 0.500000 0.724769 0.750000
O O2 0.572883 0.562236 0.778900
O O3 0.560128 0.844093 0.820438
O O4 0.625643 0.737608 0.632990
O O5 0.123621 0.227421 0.052242
O O6 0.138421 0.176761 0.184923
O O7 0.189401 0.000705 0.039657
O O8 0.250000 0.250000 0.000000
O O9 0.390272 0.621849 0.141976
O O10 0.422759 0.492105 0.983464
O O11 0.455607 0.760956 0.980499
O O12 0.333965 0.690882 0.047356
O O13 0.010899 0.816680 0.851554
O O14 0.935846 0.735311 0.033778
O O15 0.000000 0.500000 0.000000
O O16 0.750000 0.750000 0.500000
#
# Coordination Sequence:
#
# PCOD9256158 Si02
#       7
#     8   8   8   8   8   8   8
#     4  11  18  37  64  86 114 155 206 239 294 371
#     4  10  22  38  56  84 122 156 195 247 295 349
#     4  10  18  37  62  86 115 148 203 248 282 360
#     4  10  18  37  63  82 116 150 199 244 289 363
#     4  10  17  34  65  90 106 154 206 244 286 349
#     4  11  21  34  56  95 119 142 188 258 310 334
#     4  10  22  39  60  80 116 167 202 237 288 363
#
# _framework density 17.936201000000001
#
# number of rings (size 3 to 8) (size 9 to 14) (size 15 to 20)
#    0.000    1.714    4.286    3.000    0.000    1.143 
#    7.714    0.000    0.000    0.000    0.000    0.000 
#    0.000    0.000    0.000    0.000    0.000    0.000 
#
# Total GULP energy -156130.555320 kJ/mol
# GULP energy per Si atom -5576.091261 kJ/mol
# Density = 1.789538 g / cm^3
# Si number density = 17.936201 Si / 1000 Ang^3
#
#
#
# Elastic Constant Matrix: (Units=GPa)
#
#
# Indices 1 2 3 4 5 6 
#
# 1 177.8929 34.9423 89.4344 0.0000 0.6572 0.0000
# 2 34.9423 45.1531 22.8181 -0.0001 1.4743 0.0000
# 3 89.4344 22.8181 110.2438 -0.0001 0.9467 0.0000
# 4 0.0000 -0.0001 -0.0001 24.3214 0.0000 -3.3671
# 5 0.6572 1.4743 0.9467 0.0000 26.7934 0.0000
# 6 0.0000 0.0000 0.0000 -3.3671 0.0000 23.4449
#
#
#
# Elastic Compliance Matrix: (Units=1/GPa)
#
#
# Indices 1 2 3 4 5 6 
#
# 1 0.010137 -0.004127 -0.007371 0.000000 0.000239 0.000000
# 2 -0.004127 0.026452 -0.002116 0.000000 -0.001279 0.000000
# 3 -0.007371 -0.002116 0.015491 0.000000 -0.000250 0.000000
# 4 0.000000 0.000000 0.000000 0.041950 0.000000 0.006025
# 5 0.000239 -0.001279 -0.000250 0.000000 0.037396 0.000000
# 6 0.000000 0.000000 0.000000 0.006025 0.000000 0.043519
#
#
# Mechanical properties :
#
#
# Convention : Reuss Voigt Hill
#
# Bulk Modulus (GPa) = 40.24007 69.74216 54.99111
# Shear Modulus (GPa) = 23.75782 27.31828 25.53805
#
# Velocity S-wave (km/s) = 3.64342 3.90690 3.77746
# Velocity P-wave (km/s) = 6.33902 7.70193 7.05347
#
# Compressibility (1/GPa) = 0.02485085
#
# Stress axis : x y z
#
# Youngs Moduli (GPa) = 98.64734 37.80454 64.55418
#
# Poissons Ratio (x) = 0.15603 0.47586
# Poissons Ratio (y) = 0.40716 0.13658
# Poissons Ratio (z) = 0.72717 0.07998
#
# Static dielectric constant tensor:
#      x y z
#    x 1.617740 0.000000 0.018020 
#    y 0.000000 1.631390 0.000000 
#    z 0.018020 0.000000 1.635300 
# 
# From -- ./inp_files/218177.got.cif
#   From: 2010.05.17/outbox.cif.g08.bks.cpg/sg15_110_cif.got.tgz:218177.got - 2010.06.03 18:47:42.
