data_PCOD9256098
_publ_section_title
;
Structure prediction by ZEFSAII (Michael W. Deem and Ramdas Pophale) SiO2 
 PCOD9256098
Probable space group: C 2/C
;
_chemical_formula_sum "Si O2"
_cell_formula_units_Z 44
_cell_length_a 18.379071
_cell_length_b 6.586752
_cell_length_c 23.337740
_cell_angle_alpha 90.000000
_cell_angle_beta 126.879244
_cell_angle_gamma 90.000000
_cell_volume 2259.906699
_symmetry_space_group_name_H-M "C 2/C"
_symmetry_group_IT_number 15
_symmetry_cell_setting 'monoclinic'
loop_
_space_group_symop_operation_xyz
x,y,z
-x,y,1/2-z
-x,-y,-z
x,-y,1/2+z
1/2+x,1/2+y,z
1/2-x,1/2+y,1/2-z
1/2-x,1/2-y,-z
1/2+x,1/2-y,1/2+z
loop_
_atom_site_type_symbol
_atom_site_label
_atom_site_fract_x
_atom_site_fract_y
_atom_site_fract_z
Si Si1 0.000000 0.266426 0.750000
Si Si2 0.646358 0.004342 0.754334
Si Si3 0.745813 0.704064 0.387186
Si Si4 0.810087 0.320723 0.344153
Si Si5 0.652759 0.367288 0.404920
Si Si6 0.669112 0.400605 0.537243
O O1 0.053561 0.401288 0.729382
O O2 0.074518 0.143702 0.820820
O O3 0.724946 0.829078 0.789408
O O4 0.676092 0.159446 0.818088
O O5 0.642445 0.120974 0.692439
O O6 0.779181 0.529924 0.359484
O O7 0.702592 0.581714 0.419295
O O8 0.820414 0.862164 0.444900
O O9 0.864263 0.205516 0.420321
O O10 0.619669 0.351161 0.454495
O O11 0.728957 0.195199 0.426555
#
# Coordination Sequence:
#
# PCOD9256098 Si02
#       6
#     4   8   8   8   8   8
#     4  12  22  38  54  94 124 144 190 260 298 328
#     4  11  21  35  57  90 117 149 199 242 288 347
#     4  10  17  34  59  82 107 153 199 234 284 337
#     4  10  19  35  59  82 113 157 201 235 276 358
#     4  10  20  35  55  84 122 149 191 248 292 346
#     4   9  19  36  57  84 112 157 203 230 282 364
#
# _framework density 19.469830000000002
#
# number of rings (size 3 to 8) (size 9 to 14) (size 15 to 20)
#    0.000    1.818    7.273    0.545    0.000    0.727 
#    0.000    0.909    0.000    1.091    0.000    0.000 
#    0.000    0.000    0.000    0.000    0.000    0.000 
#
# Total GULP energy -122634.322987 kJ/mol
# GULP energy per Si atom -5574.287408 kJ/mol
# Density = 1.942552 g / cm^3
# Si number density = 19.469830 Si / 1000 Ang^3
#
#
#
# Elastic Constant Matrix: (Units=GPa)
#
#
# Indices 1 2 3 4 5 6 
#
# 1 41.1794 11.0673 15.6972 0.0000 -25.1043 0.0000
# 2 11.0673 97.4935 11.1378 0.0000 -7.3537 0.0000
# 3 15.6972 11.1378 87.8898 0.0000 -27.6182 0.0000
# 4 0.0000 0.0000 0.0000 5.1189 0.0000 -0.6836
# 5 -25.1043 -7.3537 -27.6182 0.0000 33.9622 0.0000
# 6 0.0000 0.0000 0.0000 -0.6836 0.0000 3.4403
#
#
#
# Elastic Compliance Matrix: (Units=1/GPa)
#
#
# Indices 1 2 3 4 5 6 
#
# 1 0.045651 -0.002870 0.003518 0.000000 0.035984 0.000000
# 2 -0.002870 0.010652 -0.001047 0.000000 -0.000666 0.000000
# 3 0.003518 -0.001047 0.015620 0.000000 0.015076 0.000000
# 4 0.000000 0.000000 0.000000 0.200681 0.000000 0.039879
# 5 0.035984 -0.000666 0.015076 0.000000 0.068159 0.000000
# 6 0.000000 0.000000 0.000000 0.039879 0.000000 0.298601
#
#
# Mechanical properties :
#
#
# Convention : Reuss Voigt Hill
#
# Bulk Modulus (GPa) = 14.05963 33.59636 23.82799
# Shear Modulus (GPa) = 7.53159 21.08163 14.30661
#
# Velocity S-wave (km/s) = 1.96894 3.29414 2.71368
# Velocity P-wave (km/s) = 3.52220 5.63574 4.69933
#
# Compressibility (1/GPa) = 0.07112565
#
# Stress axis : x y z
#
# Youngs Moduli (GPa) = 21.90511 93.87716 64.02252
#
# Poissons Ratio (x) = 0.26942 -0.22522
# Poissons Ratio (y) = 0.06287 0.06701
# Poissons Ratio (z) = -0.07706 0.09825
#
# Static dielectric constant tensor:
#      x y z
#    x 1.678840 0.000000 -0.024190 
#    y 0.000000 1.691230 0.000000 
#    z -0.024190 0.000000 1.711330 
# 
# From -- ./inp_files/212894.got.cif
#   From: 2010.05.17/outbox.cif.g08.bks.cpg/sg15_107_cif.got.tgz:212894.got - 2010.06.03 18:47:42.
