data_PCOD9256719
_publ_section_title
;
Structure prediction by ZEFSAII (Michael W. Deem and Ramdas Pophale) SiO2 
 PCOD9256719
Probable space group: C 2/C
;
_chemical_formula_sum "Si O2"
_cell_formula_units_Z 56
_cell_length_a 18.370180
_cell_length_b 24.349035
_cell_length_c 5.589991
_cell_angle_alpha 90.000000
_cell_angle_beta 102.883724
_cell_angle_gamma 90.000000
_cell_volume 2437.433315
_symmetry_space_group_name_H-M "C 2/C"
_symmetry_group_IT_number 15
_symmetry_cell_setting 'monoclinic'
loop_
_space_group_symop_operation_xyz
x,y,z
-x,y,1/2-z
-x,-y,-z
x,-y,1/2+z
1/2+x,1/2+y,z
1/2-x,1/2+y,1/2-z
1/2-x,1/2-y,-z
1/2+x,1/2-y,1/2+z
loop_
_atom_site_type_symbol
_atom_site_label
_atom_site_fract_x
_atom_site_fract_y
_atom_site_fract_z
Si Si1 0.234417 0.595751 0.974980
Si Si2 0.419922 0.158970 0.638536
Si Si3 0.616654 0.317612 0.430402
Si Si4 0.393306 0.352482 0.568466
Si Si5 0.745306 0.596851 0.009448
Si Si6 0.415481 0.479274 0.475284
Si Si7 0.634838 0.197830 0.404208
O O1 0.151390 0.619358 0.917495
O O2 0.243432 0.566227 0.730108
O O3 0.300711 0.643007 0.012982
O O4 0.245670 0.566530 0.234513
O O5 0.500000 0.131916 0.750000
O O6 0.413138 0.188936 0.375120
O O7 0.407855 0.193434 0.873391
O O8 0.582157 0.324167 0.667737
O O9 0.667022 0.372151 0.457034
O O10 0.661693 0.260752 0.434716
O O11 0.576455 0.322307 0.145331
O O12 0.415461 0.415982 0.555495
O O13 0.804211 0.648774 0.053580
O O14 0.500000 0.500000 0.500000
O O15 0.383142 0.510905 0.683968
#
# Coordination Sequence:
#
# PCOD9256719 Si02
#       7
#     8   8   8   8   8   8   8
#     4   8  16  28  45  71  92 122 158 207 249 270
#     4  10  19  31  46  60  95 138 178 203 233 283
#     4  10  18  29  48  71  99 123 156 205 260 275
#     4  10  19  33  53  76 100 115 154 211 248 298
#     4   8  15  26  42  67  93 124 159 200 243 293
#     4  10  21  38  61  78  97 125 158 182 244 320
#     4  10  18  29  45  64  92 132 175 204 239 285
#
# _framework density 22.974989000000001
#
# number of rings (size 3 to 8) (size 9 to 14) (size 15 to 20)
#    0.000    2.571    0.000    2.571    0.000    0.000 
#    0.000    8.571   31.429    0.000    0.000    0.000 
#    0.000    1.143    0.000    0.000    0.000    4.857 
#
# Total GULP energy -155893.608826 kJ/mol
# GULP energy per Si atom -5567.628887 kJ/mol
# Density = 2.292270 g / cm^3
# Si number density = 22.974989 Si / 1000 Ang^3
#
#
#
# Elastic Constant Matrix: (Units=GPa)
#
#
# Indices 1 2 3 4 5 6 
#
# 1 33.4696 7.4469 47.7239 0.0000 38.3232 0.0000
# 2 7.4469 72.0653 22.1183 0.0000 -0.1958 0.0000
# 3 47.7239 22.1183 265.6399 0.0000 -51.7461 0.0000
# 4 0.0000 0.0000 0.0000 34.4548 0.0000 -8.4312
# 5 38.3232 -0.1958 -51.7461 0.0000 30.8242 0.0000
# 6 0.0000 0.0000 0.0000 -8.4312 0.0000 2.1706
#
#
#
# Elastic Compliance Matrix: (Units=1/GPa)
#
#
# Indices 1 2 3 4 5 6 
#
# 1 -0.011774 -0.001012 0.007504 0.000000 0.027229 0.000000
# 2 -0.001012 0.014320 -0.001111 0.000000 -0.000515 0.000000
# 3 0.007504 -0.001111 0.001026 0.000000 -0.007615 0.000000
# 4 0.000000 0.000000 0.000000 0.586378 0.000000 2.277664
# 5 0.027229 -0.000515 -0.007615 0.000000 -0.014198 0.000000
# 6 0.000000 0.000000 0.000000 2.277664 0.000000 9.307811
#
#
# Mechanical properties :
#
#
# Convention : Reuss Voigt Hill
#
# Bulk Modulus (GPa) = 69.76927 58.41701 64.09314
# Shear Modulus (GPa) = 0.50620 33.08229 16.79425
#
# Velocity S-wave (km/s) = 0.46990 3.79875 2.70660
# Velocity P-wave (km/s) = 5.54327 6.68747 6.14207
#
# Compressibility (1/GPa) = 0.01433296
#
# Stress axis : x y z
#
# Youngs Moduli (GPa) = -84.93236 69.83013 975.06968
#
# Poissons Ratio (x) = 0.07070 -7.31668
# Poissons Ratio (y) = -0.08598 1.08317
# Poissons Ratio (z) = 0.63731 0.07757
#
# Static dielectric constant tensor:
#      x y z
#    x 1.894670 0.000000 -0.002390 
#    y 0.000000 1.800150 0.000000 
#    z -0.002390 0.000000 2.033440 
# 
# From -- ./inp_files/13939.got.cif
#   From: 2010.05.17/outbox.cif.g08.bks.cpg/sg15_7_cif.got.tgz:13939.got - 2010.06.03 18:47:42.
