data_PCOD9256897
_publ_section_title
;
Structure prediction by ZEFSAII (Michael W. Deem and Ramdas Pophale) SiO2 
 PCOD9256897
Probable space group: C 2/C
;
_chemical_formula_sum "Si O2"
_cell_formula_units_Z 56
_cell_length_a 23.365158
_cell_length_b 20.508536
_cell_length_c 12.371659
_cell_angle_alpha 90.000000
_cell_angle_beta 28.219057
_cell_angle_gamma 90.000000
_cell_volume 2803.167716
_symmetry_space_group_name_H-M "C 2/C"
_symmetry_group_IT_number 15
_symmetry_cell_setting 'monoclinic'
loop_
_space_group_symop_operation_xyz
x,y,z
-x,y,1/2-z
-x,-y,-z
x,-y,1/2+z
1/2+x,1/2+y,z
1/2-x,1/2+y,1/2-z
1/2-x,1/2-y,-z
1/2+x,1/2-y,1/2+z
loop_
_atom_site_type_symbol
_atom_site_label
_atom_site_fract_x
_atom_site_fract_y
_atom_site_fract_z
Si Si1 0.953976 0.569728 0.176907
Si Si2 0.429270 0.788485 0.709358
Si Si3 0.290342 0.231005 0.811357
Si Si4 0.276487 0.088658 0.847529
Si Si5 0.376598 0.064789 0.909485
Si Si6 0.253094 0.051147 0.335504
Si Si7 0.212898 0.804771 0.904274
O O1 0.916003 0.639787 0.284291
O O2 0.914721 0.507202 0.307399
O O3 0.881238 0.561522 0.185411
O O4 0.096734 0.573114 0.922991
O O5 0.564253 0.779704 0.439536
O O6 0.335470 0.788030 0.766060
O O7 0.388878 0.736913 0.865525
O O8 0.232171 0.159354 0.882797
O O9 0.267172 0.282813 0.753230
O O10 0.250000 0.250000 0.000000
O O11 0.315436 0.097426 0.907808
O O12 0.205196 0.020193 0.950747
O O13 0.500000 0.097116 0.750000
O O14 0.282351 0.054258 0.161190
O O15 0.183750 0.118768 0.471066
#
# Coordination Sequence:
#
# PCOD9256897 Si02
#       7
#     8   8   8   8   8   8   8
#     4   9  17  28  46  78 109 138 177 222 290 358
#     4   9  21  38  59  82 115 153 195 242 286 351
#     4  11  23  38  58  87 117 153 197 244 294 347
#     4  10  19  31  46  80 112 141 184 235 289 347
#     4  11  16  24  46  73 112 146 169 215 293 355
#     4  10  18  30  47  76 111 143 179 225 277 355
#     4  10  21  38  57  85 115 158 194 228 298 351
#
# _framework density 19.977398999999998
#
# number of rings (size 3 to 8) (size 9 to 14) (size 15 to 20)
#    0.000    2.000    2.857    2.143    2.000    0.571 
#    0.000    0.000    0.000    0.857    3.714    0.000 
#    0.000    0.000    0.000    0.000    0.000    0.000 
#
# Total GULP energy -156076.208234 kJ/mol
# GULP energy per Si atom -5574.150294 kJ/mol
# Density = 1.993193 g / cm^3
# Si number density = 19.977399 Si / 1000 Ang^3
#
#
#
# Elastic Constant Matrix: (Units=GPa)
#
#
# Indices 1 2 3 4 5 6 
#
# 1 64.8493 9.8368 11.9416 0.0002 10.5407 -0.0001
# 2 9.8368 146.8622 17.9301 0.0000 9.1703 0.0000
# 3 11.9416 17.9301 46.4470 0.0000 18.4802 -0.0001
# 4 0.0002 0.0000 0.0000 24.2999 -0.0001 6.4889
# 5 10.5407 9.1703 18.4802 -0.0001 24.2997 0.0001
# 6 -0.0001 0.0000 -0.0001 6.4889 0.0001 19.2071
#
#
#
# Elastic Compliance Matrix: (Units=1/GPa)
#
#
# Indices 1 2 3 4 5 6 
#
# 1 0.016763 -0.000544 -0.001847 0.000000 -0.005661 0.000000
# 2 -0.000544 0.007176 -0.002361 0.000000 -0.000677 0.000000
# 3 -0.001847 -0.002361 0.031894 0.000000 -0.022563 0.000000
# 4 0.000000 0.000000 0.000000 0.045233 0.000001 -0.015282
# 5 -0.005661 -0.000677 -0.022563 0.000001 0.061023 -0.000001
# 6 0.000000 0.000000 0.000000 -0.015282 -0.000001 0.057227
#
#
# Mechanical properties :
#
#
# Convention : Reuss Voigt Hill
#
# Bulk Modulus (GPa) = 21.58514 37.50839 29.54677
# Shear Modulus (GPa) = 20.46968 28.12467 24.29717
#
# Velocity S-wave (km/s) = 3.20448 3.75617 3.49124
# Velocity P-wave (km/s) = 4.95175 6.13416 5.57439
#
# Compressibility (1/GPa) = 0.04632818
#
# Stress axis : x y z
#
# Youngs Moduli (GPa) = 59.65430 139.35257 31.35417
#
# Poissons Ratio (x) = 0.07577 0.05792
# Poissons Ratio (y) = 0.03244 0.07403
# Poissons Ratio (z) = 0.11021 0.32904
#
# Static dielectric constant tensor:
#      x y z
#    x 1.779230 0.000000 0.017890 
#    y 0.000000 1.791480 0.000000 
#    z 0.017890 0.000000 1.685510 
# 
# From -- ./inp_files/119788.got.cif
#   From: 2010.05.17/outbox.cif.g08.bks.cpg/sg15_60_cif.got.tgz:119788.got - 2010.06.03 18:47:42.
