data_PCOD9256022
_publ_section_title
;
Structure prediction by ZEFSAII (Michael W. Deem and Ramdas Pophale) SiO2 
 PCOD9256022
Probable space group: C 2/C
;
_chemical_formula_sum "Si O2"
_cell_formula_units_Z 60
_cell_length_a 24.296634
_cell_length_b 12.262535
_cell_length_c 12.690433
_cell_angle_alpha 90.000000
_cell_angle_beta 134.858271
_cell_angle_gamma 90.000000
_cell_volume 2680.152145
_symmetry_space_group_name_H-M "C 2/C"
_symmetry_group_IT_number 15
_symmetry_cell_setting 'monoclinic'
loop_
_space_group_symop_operation_xyz
x,y,z
-x,y,1/2-z
-x,-y,-z
x,-y,1/2+z
1/2+x,1/2+y,z
1/2-x,1/2+y,1/2-z
1/2-x,1/2-y,-z
1/2+x,1/2-y,1/2+z
loop_
_atom_site_type_symbol
_atom_site_label
_atom_site_fract_x
_atom_site_fract_y
_atom_site_fract_z
Si Si1 0.866560 0.550427 0.453113
Si Si2 0.000000 0.577141 0.250000
Si Si3 0.078945 0.780534 0.266606
Si Si4 0.314402 0.867241 0.682777
Si Si5 0.271798 0.842954 0.233937
Si Si6 0.853502 0.861391 0.936410
Si Si7 0.263932 0.935319 0.997601
Si Si8 0.861028 0.934556 0.304939
O O1 0.874332 0.624410 0.360807
O O2 0.820018 0.445846 0.344846
O O3 0.810355 0.611905 0.460434
O O4 0.941463 0.501462 0.609351
O O5 0.965403 0.665719 0.286514
O O6 0.166699 0.738532 0.358922
O O7 0.084258 0.828757 0.391112
O O8 0.070915 0.870019 0.164132
O O9 0.228824 0.881574 0.616119
O O10 0.321502 0.969677 0.615436
O O11 0.328108 0.739872 0.328525
O O12 0.252011 0.861621 0.084240
O O13 0.194941 0.852558 0.203377
O O14 0.880540 0.968537 0.912101
O O15 0.189535 0.999565 0.851604
#
# Coordination Sequence:
#
# PCOD9256022 Si02
#       8
#     8   4   8   8   8   8   8   8
#     4  10  21  37  55  92 121 155 202 238 297 360
#     4  12  24  40  62  82 122 170 210 238 284 364
#     4  12  23  38  58  85 116 166 206 243 291 354
#     4  11  19  34  63  88 121 152 194 254 311 362
#     4  10  19  32  57  86 121 151 194 244 314 364
#     4  12  20  35  60  89 121 150 199 256 310 367
#     4  10  17  34  53  89 124 149 186 255 313 354
#     4  11  20  33  57  89 117 153 198 254 308 356
#
# _framework density 22.386787999999999
#
# number of rings (size 3 to 8) (size 9 to 14) (size 15 to 20)
#    0.000    1.067    9.333    1.200    0.000    1.067 
#    0.000    0.667    0.000    0.000    0.000    1.867 
#    0.000    0.000    0.000    0.000    0.000    0.000 
#
# Total GULP energy -167341.980282 kJ/mol
# GULP energy per Si atom -5578.066009 kJ/mol
# Density = 2.233583 g / cm^3
# Si number density = 22.386788 Si / 1000 Ang^3
#
#
#
# Elastic Constant Matrix: (Units=GPa)
#
#
# Indices 1 2 3 4 5 6 
#
# 1 48.4143 9.5289 24.8690 0.0000 -18.1716 0.0000
# 2 9.5289 77.7067 14.2477 0.0000 -4.7908 0.0000
# 3 24.8690 14.2477 98.0512 0.0000 -12.0163 0.0000
# 4 0.0000 0.0000 0.0000 32.5461 0.0000 -11.8234
# 5 -18.1716 -4.7908 -12.0163 0.0000 34.4411 0.0000
# 6 0.0000 0.0000 0.0000 -11.8234 0.0000 42.0154
#
#
#
# Elastic Compliance Matrix: (Units=1/GPa)
#
#
# Indices 1 2 3 4 5 6 
#
# 1 0.028655 -0.001718 -0.005427 0.000000 0.012987 0.000000
# 2 -0.001718 0.013374 -0.001453 0.000000 0.000447 0.000000
# 3 -0.005427 -0.001453 0.011920 0.000000 0.001094 0.000000
# 4 0.000000 0.000000 0.000000 0.034224 0.000000 0.009631
# 5 0.012987 0.000447 0.001094 0.000000 0.036331 0.000000
# 6 0.000000 0.000000 0.000000 0.009631 0.000000 0.026511
#
#
# Mechanical properties :
#
#
# Convention : Reuss Voigt Hill
#
# Bulk Modulus (GPa) = 27.20822 35.71814 31.46318
# Shear Modulus (GPa) = 27.70675 33.50228 30.60452
#
# Velocity S-wave (km/s) = 3.52183 3.87269 3.70142
# Velocity P-wave (km/s) = 5.35889 5.99888 5.68790
#
# Compressibility (1/GPa) = 0.03675360
#
# Stress axis : x y z
#
# Youngs Moduli (GPa) = 34.89781 74.77470 83.89075
#
# Poissons Ratio (x) = 0.12848 0.45525
# Poissons Ratio (y) = 0.05996 0.12187
# Poissons Ratio (z) = 0.18938 0.10863
#
# Static dielectric constant tensor:
#      x y z
#    x 1.931290 0.000000 -0.015520 
#    y 0.000000 1.874990 0.000000 
#    z -0.015520 0.000000 1.839250 
# 
# From -- ./inp_files/123157.got.cif
#   From: 2010.05.17/outbox.cif.g08.bks.cpg/sg15_62_cif.got.tgz:123157.got - 2010.06.03 18:47:42.
