data_PCOD9256086
_publ_section_title
;
Structure prediction by ZEFSAII (Michael W. Deem and Ramdas Pophale) SiO2 
 PCOD9256086
Probable space group: C 2/C
;
_chemical_formula_sum "Si O2"
_cell_formula_units_Z 64
_cell_length_a 10.778422
_cell_length_b 15.858340
_cell_length_c 21.369955
_cell_angle_alpha 90.000000
_cell_angle_beta 111.965555
_cell_angle_gamma 90.000000
_cell_volume 3387.566048
_symmetry_space_group_name_H-M "C 2/C"
_symmetry_group_IT_number 15
_symmetry_cell_setting 'monoclinic'
loop_
_space_group_symop_operation_xyz
x,y,z
-x,y,1/2-z
-x,-y,-z
x,-y,1/2+z
1/2+x,1/2+y,z
1/2-x,1/2+y,1/2-z
1/2-x,1/2-y,-z
1/2+x,1/2-y,1/2+z
loop_
_atom_site_type_symbol
_atom_site_label
_atom_site_fract_x
_atom_site_fract_y
_atom_site_fract_z
Si Si1 0.985438 0.667246 0.002381
Si Si2 0.220540 0.417643 0.114980
Si Si3 0.341022 0.513889 0.468485
Si Si4 0.928725 0.746017 0.611251
Si Si5 0.106246 0.824503 0.447842
Si Si6 0.885279 0.640492 0.773347
Si Si7 0.295200 0.372986 0.374912
Si Si8 0.733603 0.411148 0.924053
O O1 0.902355 0.590203 0.957277
O O2 0.019883 0.724576 0.948244
O O3 0.899143 0.727894 0.030828
O O4 0.122609 0.633041 0.056896
O O5 0.321503 0.348419 0.104083
O O6 0.161620 0.403584 0.172178
O O7 0.284421 0.509359 0.124151
O O8 0.500000 0.500000 0.500000
O O9 0.330535 0.610769 0.488621
O O10 0.286342 0.471354 0.394575
O O11 0.278597 0.454175 0.510224
O O12 0.802955 0.683938 0.600797
O O13 0.877951 0.840561 0.604614
O O14 0.039731 0.722794 0.684161
O O15 0.948809 0.847254 0.411981
O O16 0.758687 0.646950 0.704314
O O17 0.000000 0.600165 0.750000
#
# Coordination Sequence:
#
# PCOD9256086 Si02
#       8
#     8   8   8   8   8   8   8   8
#     4  11  19  34  58  86 119 151 189 233 296 354
#     4  10  23  37  54  86 119 152 189 237 296 349
#     4   9  18  30  52  88 115 144 185 236 294 337
#     4  10  18  32  59  88 106 149 196 240 272 342
#     4  10  20  33  57  83 120 148 186 239 298 348
#     4   9  21  38  61  77 107 153 201 235 278 348
#     4  10  17  34  58  80 113 155 191 232 288 342
#     4  11  19  33  59  87 118 147 190 243 293 345
#
# _framework density 18.892619
#
# number of rings (size 3 to 8) (size 9 to 14) (size 15 to 20)
#    0.000    2.000    2.500    2.625    0.000    0.500 
#    0.000    0.000   38.500    0.000    0.000    0.000 
#    0.000    0.000    0.000    0.000    0.000    0.000 
#
# Total GULP energy -178225.173025 kJ/mol
# GULP energy per Si atom -5569.536657 kJ/mol
# Density = 1.884962 g / cm^3
# Si number density = 18.892619 Si / 1000 Ang^3
#
#
#
# Elastic Constant Matrix: (Units=GPa)
#
#
# Indices 1 2 3 4 5 6 
#
# 1 68.6200 31.3063 29.5726 0.0000 -12.3574 0.0000
# 2 31.3063 85.1273 27.0153 0.0000 -0.4292 0.0000
# 3 29.5726 27.0153 67.3407 0.0000 -1.4387 0.0000
# 4 0.0000 0.0000 0.0000 9.0868 0.0000 -1.4884
# 5 -12.3574 -0.4292 -1.4387 0.0000 33.7446 0.0000
# 6 0.0000 0.0000 0.0000 -1.4884 0.0000 31.7619
#
#
#
# Elastic Compliance Matrix: (Units=1/GPa)
#
#
# Indices 1 2 3 4 5 6 
#
# 1 0.021533 -0.005651 -0.007029 0.000000 0.007514 0.000000
# 2 -0.005651 0.014944 -0.003557 0.000000 -0.002031 0.000000
# 3 -0.007029 -0.003557 0.019325 0.000000 -0.001795 0.000000
# 4 0.000000 0.000000 0.000000 0.110902 0.000000 0.005197
# 5 0.007514 -0.002031 -0.001795 0.000000 0.032284 0.000000
# 6 0.000000 0.000000 0.000000 0.005197 0.000000 0.031728
#
#
# Mechanical properties :
#
#
# Convention : Reuss Voigt Hill
#
# Bulk Modulus (GPa) = 42.86450 44.09737 43.48094
# Shear Modulus (GPa) = 18.45259 23.79824 21.12542
#
# Velocity S-wave (km/s) = 3.12862 3.55302 3.34755
# Velocity P-wave (km/s) = 5.98237 6.34221 6.16492
#
# Compressibility (1/GPa) = 0.02332933
#
# Stress axis : x y z
#
# Youngs Moduli (GPa) = 46.43968 66.91774 51.74582
#
# Poissons Ratio (x) = 0.37812 0.36372
# Poissons Ratio (y) = 0.26241 0.18406
# Poissons Ratio (z) = 0.32642 0.23803
#
# Static dielectric constant tensor:
#      x y z
#    x 1.685390 0.000000 -0.000910 
#    y 0.000000 1.668410 0.000000 
#    z -0.000910 0.000000 1.665880 
# 
# From -- ./inp_files/238763.got.cif
#   From: 2010.05.17/outbox.cif.g08.bks.cpg/sg15_120_cif.got.tgz:238763.got - 2010.06.03 18:47:42.
