data_PCOD9256133
_publ_section_title
;
Structure prediction by ZEFSAII (Michael W. Deem and Ramdas Pophale) SiO2 
 PCOD9256133
Probable space group: C 2/C
;
_chemical_formula_sum "Si O2"
_cell_formula_units_Z 64
_cell_length_a 11.047244
_cell_length_b 21.409746
_cell_length_c 24.964172
_cell_angle_alpha 90.000000
_cell_angle_beta 144.674684
_cell_angle_gamma 90.000000
_cell_volume 3414.085296
_symmetry_space_group_name_H-M "C 2/C"
_symmetry_group_IT_number 15
_symmetry_cell_setting 'monoclinic'
loop_
_space_group_symop_operation_xyz
x,y,z
-x,y,1/2-z
-x,-y,-z
x,-y,1/2+z
1/2+x,1/2+y,z
1/2-x,1/2+y,1/2-z
1/2-x,1/2-y,-z
1/2+x,1/2-y,1/2+z
loop_
_atom_site_type_symbol
_atom_site_label
_atom_site_fract_x
_atom_site_fract_y
_atom_site_fract_z
Si Si1 0.593830 0.766791 0.990567
Si Si2 0.396355 0.695452 0.311178
Si Si3 0.313393 0.877482 0.862188
Si Si4 0.517612 0.103622 0.887623
Si Si5 0.232187 0.790270 0.332452
Si Si6 0.833883 0.299466 0.141972
Si Si7 0.619239 0.421045 0.905174
Si Si8 0.164333 0.995591 0.260573
O O1 0.515007 0.838052 0.952129
O O2 0.394123 0.720305 0.920086
O O3 0.750000 0.750000 0.000000
O O4 0.706100 0.762849 0.088148
O O5 0.298864 0.668948 0.220886
O O6 0.240157 0.737408 0.289401
O O7 0.588405 0.741179 0.366324
O O8 0.476880 0.636306 0.373989
O O9 0.196431 0.893985 0.875386
O O10 0.304795 0.944508 0.829792
O O11 0.406741 0.158879 0.880943
O O12 0.637802 0.137939 0.882574
O O13 0.324981 0.058575 0.803686
O O14 0.685347 0.069300 0.985928
O O15 0.000000 0.818027 0.250000
O O16 0.000000 0.303344 0.250000
O O17 0.479802 0.480539 0.840265
O O18 0.000000 0.981069 0.250000
#
# Coordination Sequence:
#
# PCOD9256133 Si02
#       8
#     8   8   8   8   8   8   8   8
#     4  12  23  37  58  91 125 156 199 248 309 369
#     4  10  17  34  61  83 119 157 196 240 297 369
#     4  10  18  35  59  86 119 155 198 247 293 361
#     4  11  22  38  59  87 122 152 203 249 304 369
#     4  11  23  35  53  89 129 158 188 250 313 356
#     4  11  21  37  63  88 120 161 197 244 311 367
#     4  10  18  35  61  86 114 156 202 253 292 359
#     4   9  21  36  57  87 116 156 198 250 305 347
#
# _framework density 18.74587
#
# number of rings (size 3 to 8) (size 9 to 14) (size 15 to 20)
#    0.000    1.500    3.750    3.000    1.750    4.000 
#    2.250    0.000    0.000    9.000    0.000    0.000 
#    0.000    0.000    0.000    0.000    0.000    0.000 
#
# Total GULP energy -178440.800334 kJ/mol
# GULP energy per Si atom -5576.275010 kJ/mol
# Density = 1.870320 g / cm^3
# Si number density = 18.745870 Si / 1000 Ang^3
#
#
#
# Elastic Constant Matrix: (Units=GPa)
#
#
# Indices 1 2 3 4 5 6 
#
# 1 86.3139 34.9277 37.3465 -0.0003 8.1557 0.0000
# 2 34.9277 69.2146 25.6670 -0.0003 0.7135 0.0000
# 3 37.3465 25.6670 111.1414 -0.0007 -2.0479 -0.0005
# 4 -0.0003 -0.0003 -0.0007 22.6425 -0.0007 6.5468
# 5 8.1557 0.7135 -2.0479 -0.0007 18.5068 -0.0002
# 6 0.0000 0.0000 -0.0005 6.5468 -0.0002 16.4410
#
#
#
# Elastic Compliance Matrix: (Units=1/GPa)
#
#
# Indices 1 2 3 4 5 6 
#
# 1 0.016934 -0.006894 -0.004239 0.000000 -0.007666 0.000000
# 2 -0.006894 0.018627 -0.001946 0.000000 0.002105 0.000000
# 3 -0.004239 -0.001946 0.010930 0.000000 0.003153 0.000000
# 4 0.000000 0.000000 0.000000 0.049911 0.000002 -0.019875
# 5 -0.007666 0.002105 0.003153 0.000002 0.057680 0.000000
# 6 0.000000 0.000000 0.000000 -0.019875 0.000000 0.068738
#
#
# Mechanical properties :
#
#
# Convention : Reuss Voigt Hill
#
# Bulk Modulus (GPa) = 49.18649 51.39470 50.29059
# Shear Modulus (GPa) = 19.54980 22.76662 21.15821
#
# Velocity S-wave (km/s) = 3.23288 3.48873 3.36324
# Velocity P-wave (km/s) = 6.34278 6.61093 6.47824
#
# Compressibility (1/GPa) = 0.02033079
#
# Stress axis : x y z
#
# Youngs Moduli (GPa) = 59.05227 53.68568 91.49417
#
# Poissons Ratio (x) = 0.37013 0.38788
# Poissons Ratio (y) = 0.40713 0.17807
# Poissons Ratio (z) = 0.25035 0.10449
#
# Static dielectric constant tensor:
#      x y z
#    x 1.650210 0.000000 0.003320 
#    y 0.000000 1.671640 0.000000 
#    z 0.003320 0.000000 1.673900 
# 
# From -- ./inp_files/293771.got.cif
#   From: 2010.05.17/outbox.cif.g08.bks.cpg/sg15_147_cif.got.tgz:293771.got - 2010.06.03 18:47:42.
