data_PCOD9256235
_publ_section_title
;
Structure prediction by ZEFSAII (Michael W. Deem and Ramdas Pophale) SiO2 
 PCOD9256235
Probable space group: C 2/C
;
_chemical_formula_sum "Si O2"
_cell_formula_units_Z 52
_cell_length_a 19.857461
_cell_length_b 19.262542
_cell_length_c 14.808541
_cell_angle_alpha 90.000000
_cell_angle_beta 155.679152
_cell_angle_gamma 90.000000
_cell_volume 2332.837025
_symmetry_space_group_name_H-M "C 2/C"
_symmetry_group_IT_number 15
_symmetry_cell_setting 'monoclinic'
loop_
_space_group_symop_operation_xyz
x,y,z
-x,y,1/2-z
-x,-y,-z
x,-y,1/2+z
1/2+x,1/2+y,z
1/2-x,1/2+y,1/2-z
1/2-x,1/2-y,-z
1/2+x,1/2-y,1/2+z
loop_
_atom_site_type_symbol
_atom_site_label
_atom_site_fract_x
_atom_site_fract_y
_atom_site_fract_z
Si Si1 0.661126 0.154675 0.119688
Si Si2 0.067382 0.173918 0.927894
Si Si3 0.421698 0.968231 0.312507
Si Si4 0.900031 0.768537 0.776050
Si Si5 0.500000 0.069651 0.250000
Si Si6 0.736603 0.175849 0.638566
Si Si7 0.310671 0.649204 0.938930
O O1 0.550617 0.093453 0.947821
O O2 0.776300 0.132177 0.343108
O O3 0.787067 0.185481 0.201726
O O4 0.542887 0.220021 0.995988
O O5 0.915547 0.175061 0.811327
O O6 0.000000 0.149644 0.750000
O O7 0.142895 0.251297 0.010084
O O8 0.248242 0.928171 0.110564
O O9 0.500000 0.000000 0.500000
O O10 0.420783 0.022502 0.230889
O O11 0.779911 0.703993 0.604684
O O12 0.004989 0.823560 0.847161
O O13 0.632210 0.117620 0.460541
O O14 0.743423 0.159502 0.753629
#
# Coordination Sequence:
#
# PCOD9256235 Si02
#       7
#     8   8   8   8   4   8   8
#     4  10  19  35  61  89 126 153 201 246 325 369
#     4  12  23  32  58 103 131 154 189 262 331 376
#     4  11  25  41  63  80 121 180 216 252 292 374
#     4   9  16  31  63  95 116 142 196 260 317 371
#     4  12  28  44  58  86 128 178 226 234 302 374
#     4  12  22  36  62  93 135 156 198 259 318 386
#     4  10  17  35  61  92 114 157 194 252 314 362
#
# _framework density 22.290455999999999
#
# number of rings (size 3 to 8) (size 9 to 14) (size 15 to 20)
#    0.000    1.231    6.923    0.462    4.308    0.000 
#    0.000    3.077    0.000   14.769    0.000    0.000 
#    0.000    0.000    0.000    0.000    0.000    0.000 
#
# Total GULP energy -145146.350431 kJ/mol
# GULP energy per Si atom -5582.551940 kJ/mol
# Density = 2.223972 g / cm^3
# Si number density = 22.290456 Si / 1000 Ang^3
#
#
#
# Elastic Constant Matrix: (Units=GPa)
#
#
# Indices 1 2 3 4 5 6 
#
# 1 90.7583 22.6381 29.7756 0.0000 14.8141 0.0000
# 2 22.6381 71.2983 35.5805 0.0000 9.0000 0.0000
# 3 29.7756 35.5805 105.8059 0.0000 26.3512 0.0000
# 4 0.0000 0.0000 0.0000 21.7843 0.0000 -4.5805
# 5 14.8141 9.0000 26.3512 0.0000 41.8635 0.0000
# 6 0.0000 0.0000 0.0000 -4.5805 0.0000 37.1195
#
#
#
# Elastic Compliance Matrix: (Units=1/GPa)
#
#
# Indices 1 2 3 4 5 6 
#
# 1 0.012795 -0.002716 -0.002022 0.000000 -0.002671 0.000000
# 2 -0.002716 0.017431 -0.005222 0.000000 0.000501 0.000000
# 3 -0.002022 -0.005222 0.013423 0.000000 -0.006611 0.000000
# 4 0.000000 0.000000 0.000000 0.047127 0.000000 0.005815
# 5 -0.002671 0.000501 -0.006611 0.000000 0.028886 0.000000
# 6 0.000000 0.000000 0.000000 0.005815 0.000000 0.027658
#
#
# Mechanical properties :
#
#
# Convention : Reuss Voigt Hill
#
# Bulk Modulus (GPa) = 42.14439 49.31676 45.73057
# Shear Modulus (GPa) = 28.54698 32.14468 30.34583
#
# Velocity S-wave (km/s) = 3.58254 3.80160 3.69369
# Velocity P-wave (km/s) = 6.00506 6.43756 6.22507
#
# Compressibility (1/GPa) = 0.02372795
#
# Stress axis : x y z
#
# Youngs Moduli (GPa) = 78.15421 57.36977 74.50000
#
# Poissons Ratio (x) = 0.15584 0.15065
# Poissons Ratio (y) = 0.21230 0.38903
# Poissons Ratio (z) = 0.15804 0.29958
#
# Static dielectric constant tensor:
#      x y z
#    x 1.868000 0.000000 -0.075590 
#    y 0.000000 1.799480 0.000000 
#    z -0.075590 0.000000 1.926100 
# 
# From -- ./inp_files/163645.got.cif
#   From: 2010.05.17/outbox.cif.g08.bks.cpg/sg15_82_cif.got.tgz:163645.got - 2010.06.03 18:47:42.
