data_PCOD9256530
_publ_section_title
;
Structure prediction by ZEFSAII (Michael W. Deem and Ramdas Pophale) SiO2 
 PCOD9256530
Probable space group: C 2/C
;
_chemical_formula_sum "Si O2"
_cell_formula_units_Z 48
_cell_length_a 25.353728
_cell_length_b 8.876238
_cell_length_c 22.703722
_cell_angle_alpha 90.000000
_cell_angle_beta 158.620591
_cell_angle_gamma 90.000000
_cell_volume 1862.582786
_symmetry_space_group_name_H-M "C 2/C"
_symmetry_group_IT_number 15
_symmetry_cell_setting 'monoclinic'
loop_
_space_group_symop_operation_xyz
x,y,z
-x,y,1/2-z
-x,-y,-z
x,-y,1/2+z
1/2+x,1/2+y,z
1/2-x,1/2+y,1/2-z
1/2-x,1/2-y,-z
1/2+x,1/2-y,1/2+z
loop_
_atom_site_type_symbol
_atom_site_label
_atom_site_fract_x
_atom_site_fract_y
_atom_site_fract_z
Si Si1 0.626103 0.459044 0.259002
Si Si2 0.633592 0.100339 0.065086
Si Si3 0.884178 0.321455 0.585023
Si Si4 0.594463 0.847144 0.652358
Si Si5 0.456805 0.128109 0.770901
Si Si6 0.690369 0.500299 0.042414
O O1 0.711943 0.561786 0.301860
O O2 0.739227 0.425254 0.429947
O O3 0.588137 0.302762 0.185453
O O4 0.478426 0.529160 0.127086
O O5 0.629795 0.190876 0.121602
O O6 0.555860 0.939545 0.999561
O O7 0.542301 0.176641 0.918021
O O8 0.814725 0.169285 0.488850
O O9 0.000000 0.252568 0.750000
O O10 0.996396 0.449355 0.678588
O O11 0.717853 0.965140 0.802732
O O12 0.500000 0.179521 0.750000
O O13 0.285690 0.118853 0.605074
#
# Coordination Sequence:
#
# PCOD9256530 Si02
#       6
#     8   8   8   8   8   8
#     4  10  18  29  46  68  92 119 159 205 236 268
#     4   9  18  31  46  64  91 126 159 194 240 289
#     4   9  17  27  38  56  86 122 151 175 217 278
#     4   9  17  31  47  62  89 126 159 194 241 288
#     4   9  18  30  42  61  93 129 160 185 224 288
#     4  10  18  27  42  64  90 119 156 198 230 264
#
# _framework density 25.770667
#
# number of rings (size 3 to 8) (size 9 to 14) (size 15 to 20)
#    0.000    2.667    0.000    5.000    0.000    8.000 
#    0.000    0.000    0.000    0.000    0.000    0.000 
#    0.000   26.667    0.000    0.333    0.000    4.833 
#
# Total GULP energy -133752.722981 kJ/mol
# GULP energy per Si atom -5573.030124 kJ/mol
# Density = 2.571201 g / cm^3
# Si number density = 25.770667 Si / 1000 Ang^3
#
#
#
# Elastic Constant Matrix: (Units=GPa)
#
#
# Indices 1 2 3 4 5 6 
#
# 1 133.2098 -3.4729 81.5226 0.0000 5.4790 0.0000
# 2 -3.4729 58.0761 5.3470 0.0000 1.8205 0.0000
# 3 81.5226 5.3470 150.0818 0.0000 34.1778 0.0001
# 4 0.0000 0.0000 0.0000 -18.4388 0.0000 -5.6207
# 5 5.4790 1.8205 34.1778 0.0000 59.7721 0.0000
# 6 0.0000 0.0000 0.0001 -5.6207 0.0000 86.0414
#
#
#
# Elastic Compliance Matrix: (Units=1/GPa)
#
#
# Indices 1 2 3 4 5 6 
#
# 1 0.011770 0.001266 -0.007110 0.000000 0.002948 0.000000
# 2 0.001266 0.017414 -0.001335 0.000000 0.000117 0.000000
# 3 -0.007110 -0.001335 0.011974 0.000000 -0.006154 0.000000
# 4 0.000000 0.000000 0.000000 -0.053174 0.000000 -0.003474
# 5 0.002948 0.000117 -0.006154 0.000000 0.019976 0.000000
# 6 0.000000 0.000000 0.000000 -0.003474 0.000000 0.011395
#
#
# Mechanical properties :
#
#
# Convention : Reuss Voigt Hill
#
# Bulk Modulus (GPa) = 37.31225 56.46235 46.88730
# Shear Modulus (GPa) = 117.25044 42.67301 79.96172
#
# Velocity S-wave (km/s) = 6.75251 4.07366 5.57634
# Velocity P-wave (km/s) = 8.67786 6.63953 7.72621
#
# Compressibility (1/GPa) = 0.02680085
#
# Stress axis : x y z
#
# Youngs Moduli (GPa) = 84.96423 57.42605 83.51482
#
# Poissons Ratio (x) = -0.07270 0.59375
# Poissons Ratio (y) = -0.10756 0.11146
# Poissons Ratio (z) = 0.60406 0.07664
#
# Static dielectric constant tensor:
#      x y z
#    x 2.247770 0.000000 -0.037140 
#    y 0.000000 2.065700 0.000000 
#    z -0.037140 0.000000 1.989660 
# 
# From -- ./inp_files/283597.got.cif
#   From: 2010.05.17/outbox.cif.g08.bks.cpg/sg15_142_cif.got.tgz:283597.got - 2010.06.03 18:47:42.
