data_PCOD9256592
_publ_section_title
;
Structure prediction by ZEFSAII (Michael W. Deem and Ramdas Pophale) SiO2 
 PCOD9256592
Probable space group: C 2/C
;
_chemical_formula_sum "Si O2"
_cell_formula_units_Z 40
_cell_length_a 17.147367
_cell_length_b 26.834864
_cell_length_c 7.495794
_cell_angle_alpha 90.000000
_cell_angle_beta 157.225949
_cell_angle_gamma 90.000000
_cell_volume 1335.166588
_symmetry_space_group_name_H-M "C 2/C"
_symmetry_group_IT_number 15
_symmetry_cell_setting 'monoclinic'
loop_
_space_group_symop_operation_xyz
x,y,z
-x,y,1/2-z
-x,-y,-z
x,-y,1/2+z
1/2+x,1/2+y,z
1/2-x,1/2+y,1/2-z
1/2-x,1/2-y,-z
1/2+x,1/2-y,1/2+z
loop_
_atom_site_type_symbol
_atom_site_label
_atom_site_fract_x
_atom_site_fract_y
_atom_site_fract_z
Si Si1 0.002997 0.788581 0.972869
Si Si2 0.648474 0.077825 0.772883
Si Si3 0.423051 0.605660 0.881528
Si Si4 0.268858 0.516932 0.334013
Si Si5 0.547323 0.182426 0.638503
O O1 0.782267 0.802334 0.589273
O O2 0.058149 0.733139 0.155905
O O3 0.000000 0.784486 0.750000
O O4 0.138189 0.837638 0.294194
O O5 0.623400 0.039934 0.880089
O O6 0.869365 0.098746 0.287670
O O7 0.694981 0.038853 0.716503
O O8 0.518158 0.127729 0.486299
O O9 0.500000 0.606972 0.250000
O O10 0.294467 0.558331 0.545339
O O11 0.500000 0.510521 0.750000
O O12 0.500000 0.176548 0.750000
#
# Coordination Sequence:
#
# PCOD9256592 Si02
#       5
#     8   8   8   8   8
#     4   8  15  28  50  74  91 119 165 206 242 287
#     4  10  18  28  44  67  98 132 161 200 246 293
#     4   9  15  26  47  73  96 119 155 208 254 288
#     4  10  18  28  44  71 102 125 161 208 248 288
#     4   9  17  30  47  70  98 129 165 201 242 295
#
# _framework density 29.95881
#
# number of rings (size 3 to 8) (size 9 to 14) (size 15 to 20)
#    0.000    2.800    0.000    4.200    0.000    0.800 
#    0.000    1.000    0.000   10.800    0.000   39.200 
#    0.000    1.600    0.000    0.000    0.000    0.000 
#
# Total GULP energy -111812.400197 kJ/mol
# GULP energy per Si atom -5590.620010 kJ/mol
# Density = 2.989062 g / cm^3
# Si number density = 29.958810 Si / 1000 Ang^3
#
#
#
# Elastic Constant Matrix: (Units=GPa)
#
#
# Indices 1 2 3 4 5 6 
#
# 1 180.9999 59.2640 28.0057 0.0000 13.0631 0.0000
# 2 59.2640 397.5327 69.5545 0.0000 11.9297 0.0000
# 3 28.0057 69.5545 116.4058 -0.0002 6.0899 -0.0001
# 4 0.0000 0.0000 -0.0002 81.4317 -0.0001 11.0770
# 5 13.0631 11.9297 6.0899 -0.0001 39.8402 0.0000
# 6 0.0000 0.0000 -0.0001 11.0770 0.0000 33.3320
#
#
#
# Elastic Compliance Matrix: (Units=1/GPa)
#
#
# Indices 1 2 3 4 5 6 
#
# 1 0.006013 -0.000681 -0.000955 0.000000 -0.001622 0.000000
# 2 -0.000681 0.002900 -0.001548 0.000000 -0.000409 0.000000
# 3 -0.000955 -0.001548 0.009783 0.000000 -0.000719 0.000000
# 4 0.000000 0.000000 0.000000 0.012862 0.000000 -0.004274
# 5 -0.001622 -0.000409 -0.000719 0.000000 0.025864 0.000000
# 6 0.000000 0.000000 0.000000 -0.004274 0.000000 0.031422
#
#
# Mechanical properties :
#
#
# Convention : Reuss Voigt Hill
#
# Bulk Modulus (GPa) = 81.11154 112.06520 96.58837
# Shear Modulus (GPa) = 50.34280 66.79506 58.56893
#
# Velocity S-wave (km/s) = 4.10372 4.72695 4.42631
# Velocity P-wave (km/s) = 7.04181 8.20242 7.64417
#
# Compressibility (1/GPa) = 0.01232870
#
# Stress axis : x y z
#
# Youngs Moduli (GPa) = 166.31988 344.82347 102.22034
#
# Poissons Ratio (x) = 0.23468 0.09762
# Poissons Ratio (y) = 0.11319 0.15821
# Poissons Ratio (z) = 0.15884 0.53368
#
# Static dielectric constant tensor:
#      x y z
#    x 2.697400 0.000000 0.182680 
#    y 0.000000 2.299630 0.000000 
#    z 0.182680 0.000000 2.380340 
# 
# From -- ./inp_files/51803.got.cif
#   From: 2010.05.17/outbox.cif.g08.bks.cpg/sg15_26_cif.got.tgz:51803.got - 2010.06.03 18:47:42.
