data_PCOD9256291
_publ_section_title
;
Structure prediction by ZEFSAII (Michael W. Deem and Ramdas Pophale) SiO2 
 PCOD9256291
Probable space group: C 2/C
;
_chemical_formula_sum "Si O2"
_cell_formula_units_Z 52
_cell_length_a 10.737458
_cell_length_b 16.731803
_cell_length_c 15.863183
_cell_angle_alpha 90.000000
_cell_angle_beta 77.778876
_cell_angle_gamma 90.000000
_cell_volume 2785.346968
_symmetry_space_group_name_H-M "C 2/C"
_symmetry_group_IT_number 15
_symmetry_cell_setting 'monoclinic'
loop_
_space_group_symop_operation_xyz
x,y,z
-x,y,1/2-z
-x,-y,-z
x,-y,1/2+z
1/2+x,1/2+y,z
1/2-x,1/2+y,1/2-z
1/2-x,1/2-y,-z
1/2+x,1/2-y,1/2+z
loop_
_atom_site_type_symbol
_atom_site_label
_atom_site_fract_x
_atom_site_fract_y
_atom_site_fract_z
Si Si1 0.755614 0.196897 0.298055
Si Si2 0.108468 0.610806 0.900607
Si Si3 0.745225 0.510456 0.225055
Si Si4 0.500000 0.191698 0.750000
Si Si5 0.515727 0.152187 0.415819
Si Si6 0.656175 0.722463 0.641044
Si Si7 0.000000 0.092351 0.750000
Si Si8 0.500000 0.955395 0.750000
O O1 0.789648 0.103523 0.279242
O O2 0.653311 0.194812 0.388637
O O3 0.682689 0.231178 0.225629
O O4 0.879302 0.251976 0.289811
O O5 0.189701 0.531450 0.866376
O O6 0.212816 0.679995 0.901458
O O7 0.036090 0.638949 0.826249
O O8 0.015781 0.607198 0.993495
O O9 0.861550 0.503350 0.274786
O O10 0.618885 0.460631 0.263128
O O11 0.511778 0.095729 0.333819
O O12 0.556081 0.651554 0.672001
O O13 0.593930 0.783148 0.585622
#
# Coordination Sequence:
#
# PCOD9256291 Si02
#       8
#     8   8   8   4   8   8   4   4
#     4  10  19  34  62  75 116 149 188 218 291 335
#     4  10  23  33  59  82 117 139 190 233 284 318
#     4  10  20  36  54  88 107 154 183 242 274 340
#     4  10  22  40  51  89 114 148 178 242 284 334
#     4  11  18  36  59  84 104 153 190 227 267 347
#     4  10  17  36  56  84 105 149 186 234 266 343
#     4  10  18  32  61  79 114 142 196 230 288 318
#     4  10  20  34  60  80 116 146 194 226 286 332
#
# _framework density 18.669127
#
# number of rings (size 3 to 8) (size 9 to 14) (size 15 to 20)
#    0.000    1.846    4.615    1.385    0.000    3.077 
#    0.000    0.000    3.385    1.846    0.000    0.000 
#    0.000    0.000    0.000    0.000    0.000    0.000 
#
# Total GULP energy -144845.650030 kJ/mol
# GULP energy per Si atom -5570.986540 kJ/mol
# Density = 1.862664 g / cm^3
# Si number density = 18.669127 Si / 1000 Ang^3
#
#
#
# Elastic Constant Matrix: (Units=GPa)
#
#
# Indices 1 2 3 4 5 6 
#
# 1 103.3436 30.3592 32.3091 0.0000 -5.8937 0.0000
# 2 30.3592 89.3142 27.0070 0.0000 1.7700 0.0000
# 3 32.3091 27.0070 98.5253 0.0000 -19.0676 0.0000
# 4 0.0000 0.0000 0.0000 5.7411 0.0000 0.9146
# 5 -5.8937 1.7700 -19.0676 0.0000 15.8420 0.0000
# 6 0.0000 0.0000 0.0000 0.9146 0.0000 41.9448
#
#
#
# Elastic Compliance Matrix: (Units=1/GPa)
#
#
# Indices 1 2 3 4 5 6 
#
# 1 0.011506 -0.003146 -0.002626 0.000000 0.001471 0.000000
# 2 -0.003146 0.013700 -0.004232 0.000000 -0.007795 0.000000
# 3 -0.002626 -0.004232 0.015740 0.000000 0.018440 0.000000
# 4 0.000000 0.000000 0.000000 0.174791 0.000000 -0.003811
# 5 0.001471 -0.007795 0.018440 0.000000 0.086737 0.000000
# 6 0.000000 0.000000 0.000000 -0.003811 0.000000 0.023924
#
#
# Mechanical properties :
#
#
# Convention : Reuss Voigt Hill
#
# Bulk Modulus (GPa) = 47.76255 52.28152 50.02204
# Shear Modulus (GPa) = 14.14892 26.13943 20.14417
#
# Velocity S-wave (km/s) = 2.75594 3.74591 3.28839
# Velocity P-wave (km/s) = 5.98049 6.83916 6.42419
#
# Compressibility (1/GPa) = 0.02093690
#
# Stress axis : x y z
#
# Youngs Moduli (GPa) = 86.91483 72.99241 63.53388
#
# Poissons Ratio (x) = 0.22964 0.16683
# Poissons Ratio (y) = 0.27344 0.26889
# Poissons Ratio (z) = 0.22823 0.30892
#
# Static dielectric constant tensor:
#      x y z
#    x 1.673660 0.000000 -0.022700 
#    y 0.000000 1.696850 0.000000 
#    z -0.022700 0.000000 1.633560 
# 
# From -- ./inp_files/145151.got.cif
#   From: 2010.05.17/outbox.cif.g08.bks.cpg/sg15_73_cif.got.tgz:145151.got - 2010.06.03 18:47:42.
