data_PCOD9256189
_publ_section_title
;
Structure prediction by ZEFSAII (Michael W. Deem and Ramdas Pophale) SiO2 
 PCOD9256189
Probable space group: C 2/C
;
_chemical_formula_sum "Si O2"
_cell_formula_units_Z 48
_cell_length_a 18.392759
_cell_length_b 7.863836
_cell_length_c 17.099039
_cell_angle_alpha 90.000000
_cell_angle_beta 99.966916
_cell_angle_gamma 90.000000
_cell_volume 2435.839300
_symmetry_space_group_name_H-M "C 2/C"
_symmetry_group_IT_number 15
_symmetry_cell_setting 'monoclinic'
loop_
_space_group_symop_operation_xyz
x,y,z
-x,y,1/2-z
-x,-y,-z
x,-y,1/2+z
1/2+x,1/2+y,z
1/2-x,1/2+y,1/2-z
1/2-x,1/2-y,-z
1/2+x,1/2-y,1/2+z
loop_
_atom_site_type_symbol
_atom_site_label
_atom_site_fract_x
_atom_site_fract_y
_atom_site_fract_z
Si Si1 0.232418 0.007900 0.545102
Si Si2 0.130849 0.715134 0.984239
Si Si3 0.870186 0.508141 0.360230
Si Si4 0.920855 0.297309 0.719138
Si Si5 0.484794 0.156420 0.662415
Si Si6 0.226356 0.829587 0.374956
O O1 0.228937 0.914383 0.460835
O O2 0.245340 0.864375 0.611396
O O3 0.159190 0.118977 0.534640
O O4 0.301124 0.137854 0.553623
O O5 0.065946 0.744320 0.911092
O O6 0.115968 0.581693 0.050575
O O7 0.885341 0.642495 0.294359
O O8 0.787541 0.434321 0.338525
O O9 0.934678 0.372686 0.358473
O O10 0.944651 0.471321 0.675371
O O11 0.858240 0.185202 0.667067
O O12 0.000000 0.212207 0.750000
O O13 0.500000 0.236705 0.750000
#
# Coordination Sequence:
#
# PCOD9256189 Si02
#       6
#     8   8   8   8   8   8
#     4   9  20  31  57  80 106 145 175 228 277 312
#     4  10  17  35  55  82 106 139 190 219 262 335
#     4   9  20  32  57  85 103 143 184 227 271 309
#     4   9  19  36  57  79 106 152 182 215 272 334
#     4   9  18  35  56  78 106 150 179 216 270 336
#     4  10  18  37  53  81 110 138 183 227 271 323
#
# _framework density 19.705735000000001
#
# number of rings (size 3 to 8) (size 9 to 14) (size 15 to 20)
#    0.000    3.000    1.667    0.500    0.000    1.333 
#    9.000    1.667    0.000    0.000    0.000    0.000 
#    0.000    0.000    0.000    0.000    0.000    0.000 
#
# Total GULP energy -133640.927606 kJ/mol
# GULP energy per Si atom -5568.371984 kJ/mol
# Density = 1.966088 g / cm^3
# Si number density = 19.705735 Si / 1000 Ang^3
#
#
#
# Elastic Constant Matrix: (Units=GPa)
#
#
# Indices 1 2 3 4 5 6 
#
# 1 119.4992 19.3428 38.7650 0.0000 20.7246 0.0000
# 2 19.3428 24.0970 5.8626 0.0000 6.2459 0.0000
# 3 38.7650 5.8626 33.9368 0.0000 12.0862 0.0000
# 4 0.0000 0.0000 0.0000 2.9493 0.0000 4.5701
# 5 20.7246 6.2459 12.0862 0.0000 39.9604 0.0000
# 6 0.0000 0.0000 0.0000 4.5701 0.0000 7.7550
#
#
#
# Elastic Compliance Matrix: (Units=1/GPa)
#
#
# Indices 1 2 3 4 5 6 
#
# 1 0.014777 -0.007741 -0.014842 0.000000 -0.001965 0.000000
# 2 -0.007741 0.048304 0.001969 0.000000 -0.004131 0.000000
# 3 -0.014842 0.001969 0.048693 0.000000 -0.007338 0.000000
# 4 0.000000 0.000000 0.000000 3.904242 0.000000 -2.300810
# 5 -0.001965 -0.004131 -0.007338 0.000000 0.028909 0.000000
# 6 0.000000 0.000000 0.000000 -2.300810 0.000000 1.484841
#
#
# Mechanical properties :
#
#
# Convention : Reuss Voigt Hill
#
# Bulk Modulus (GPa) = 14.17511 33.94154 24.05833
# Shear Modulus (GPa) = 0.89373 17.70378 9.29876
#
# Velocity S-wave (km/s) = 0.67418 3.00060 2.17464
# Velocity P-wave (km/s) = 2.79554 5.40984 4.30589
#
# Compressibility (1/GPa) = 0.07054617
#
# Stress axis : x y z
#
# Youngs Moduli (GPa) = 67.67420 20.70201 20.53674
#
# Poissons Ratio (x) = 0.16026 0.30481
# Poissons Ratio (y) = 0.52388 -0.04044
# Poissons Ratio (z) = 1.00442 -0.04076
#
# Static dielectric constant tensor:
#      x y z
#    x 1.701740 0.000000 0.015600 
#    y 0.000000 1.741410 0.000000 
#    z 0.015600 0.000000 1.683790 
# 
# From -- ./inp_files/208696.got.cif
#   From: 2010.05.17/outbox.cif.g08.bks.cpg/sg15_105_cif.got.tgz:208696.got - 2010.06.03 18:47:42.
