data_PCOD9256913
_publ_section_title
;
Structure prediction by ZEFSAII (Michael W. Deem and Ramdas Pophale) SiO2 
 PCOD9256913
Probable space group: C 2/C
;
_chemical_formula_sum "Si O2"
_cell_formula_units_Z 64
_cell_length_a 18.936638
_cell_length_b 13.559980
_cell_length_c 14.488113
_cell_angle_alpha 90.000000
_cell_angle_beta 72.574856
_cell_angle_gamma 90.000000
_cell_volume 3549.537306
_symmetry_space_group_name_H-M "C 2/C"
_symmetry_group_IT_number 15
_symmetry_cell_setting 'monoclinic'
loop_
_space_group_symop_operation_xyz
x,y,z
-x,y,1/2-z
-x,-y,-z
x,-y,1/2+z
1/2+x,1/2+y,z
1/2-x,1/2+y,1/2-z
1/2-x,1/2-y,-z
1/2+x,1/2-y,1/2+z
loop_
_atom_site_type_symbol
_atom_site_label
_atom_site_fract_x
_atom_site_fract_y
_atom_site_fract_z
Si Si1 0.874931 0.691966 0.675565
Si Si2 0.250582 0.953705 0.145246
Si Si3 0.871859 0.489277 0.456583
Si Si4 0.307599 0.741076 0.892226
Si Si5 0.441990 0.194466 0.457235
Si Si6 0.245149 0.165620 0.232065
Si Si7 0.396289 0.158375 0.095595
Si Si8 0.422710 0.993262 0.239202
O O1 0.810248 0.613575 0.675422
O O2 0.908834 0.732380 0.567150
O O3 0.831456 0.775073 0.748588
O O4 0.932589 0.618689 0.700672
O O5 0.190065 0.872217 0.142718
O O6 0.232292 0.051703 0.209435
O O7 0.293901 0.986667 0.035494
O O8 0.928463 0.575931 0.465265
O O9 0.899466 0.389013 0.492819
O O10 0.868654 0.488757 0.348133
O O11 0.387938 0.772629 0.896373
O O12 0.274512 0.809730 0.823983
O O13 0.250000 0.750000 0.000000
O O14 0.528522 0.216957 0.414703
O O15 0.315144 0.203414 0.143485
O O16 0.398451 0.066838 0.167836
O O17 0.500000 0.030751 0.250000
#
# Coordination Sequence:
#
# PCOD9256913 Si02
#       8
#     8   8   8   8   8   8   8   8
#     4  10  20  34  51  79 108 146 186 218 275 337
#     4   9  19  33  49  75 109 143 181 229 269 318
#     4  10  18  30  48  74 116 145 165 216 277 340
#     4  11  19  31  53  82 111 144 194 227 273 335
#     4  11  18  31  50  80 117 135 173 233 278 330
#     4  10  20  35  52  75 115 146 181 230 271 332
#     4  11  21  32  49  83 120 140 170 227 292 330
#     4  12  20  28  51  80 111 145 175 210 284 349
#
# _framework density 18.030519000000002
#
# number of rings (size 3 to 8) (size 9 to 14) (size 15 to 20)
#    0.000    1.500    8.750    1.875    0.000    0.000 
#    0.000    2.500    0.000    0.000    6.500    3.500 
#    0.000    0.000    0.000    0.000    0.000    0.000 
#
# Total GULP energy -178252.489069 kJ/mol
# GULP energy per Si atom -5570.390283 kJ/mol
# Density = 1.798948 g / cm^3
# Si number density = 18.030519 Si / 1000 Ang^3
#
#
#
# Elastic Constant Matrix: (Units=GPa)
#
#
# Indices 1 2 3 4 5 6 
#
# 1 32.2268 5.4224 4.2129 0.0000 -6.6027 0.0000
# 2 5.4224 56.2511 30.1420 0.0000 -6.2139 0.0000
# 3 4.2129 30.1420 75.1207 0.0000 -7.3017 0.0000
# 4 0.0000 0.0000 0.0000 27.7940 0.0000 -0.0923
# 5 -6.6027 -6.2139 -7.3017 0.0000 15.7930 0.0000
# 6 0.0000 0.0000 0.0000 -0.0923 0.0000 22.9771
#
#
#
# Elastic Compliance Matrix: (Units=1/GPa)
#
#
# Indices 1 2 3 4 5 6 
#
# 1 0.034110 -0.001872 0.000160 0.000000 0.013598 0.000000
# 2 -0.001872 0.023122 -0.008758 0.000000 0.004266 0.000000
# 3 0.000160 -0.008758 0.017265 0.000000 0.004603 0.000000
# 4 0.000000 0.000000 0.000000 0.035979 0.000000 0.000144
# 5 0.013598 0.004266 0.004603 0.000000 0.072811 0.000000
# 6 0.000000 0.000000 0.000000 0.000144 0.000000 0.043522
#
#
# Mechanical properties :
#
#
# Convention : Reuss Voigt Hill
#
# Bulk Modulus (GPa) = 18.67172 27.01703 22.84437
# Shear Modulus (GPa) = 18.82521 21.56756 20.19638
#
# Velocity S-wave (km/s) = 3.23472 3.46232 3.35045
# Velocity P-wave (km/s) = 4.93248 5.56778 5.25973
#
# Compressibility (1/GPa) = 0.05355694
#
# Stress axis : x y z
#
# Youngs Moduli (GPa) = 29.31678 43.24864 57.92231
#
# Poissons Ratio (x) = 0.08094 -0.00925
# Poissons Ratio (y) = 0.05487 0.50729
# Poissons Ratio (z) = -0.00468 0.37878
#
# Static dielectric constant tensor:
#      x y z
#    x 1.678000 0.000000 -0.005650 
#    y 0.000000 1.653500 0.000000 
#    z -0.005650 0.000000 1.680200 
# 
# From -- ./inp_files/168126.got.cif
#   From: 2010.05.17/outbox.cif.g08.bks.cpg/sg15_85_cif.got.tgz:168126.got - 2010.06.03 18:47:42.
