data_PCOD9256627
_publ_section_title
;
Structure prediction by ZEFSAII (Michael W. Deem and Ramdas Pophale) SiO2 
 PCOD9256627
Probable space group: C 2/C
;
_chemical_formula_sum "Si O2"
_cell_formula_units_Z 52
_cell_length_a 18.140884
_cell_length_b 28.019311
_cell_length_c 13.145935
_cell_angle_alpha 90.000000
_cell_angle_beta 156.394622
_cell_angle_gamma 90.000000
_cell_volume 2675.712554
_symmetry_space_group_name_H-M "C 2/C"
_symmetry_group_IT_number 15
_symmetry_cell_setting 'monoclinic'
loop_
_space_group_symop_operation_xyz
x,y,z
-x,y,1/2-z
-x,-y,-z
x,-y,1/2+z
1/2+x,1/2+y,z
1/2-x,1/2+y,1/2-z
1/2-x,1/2-y,-z
1/2+x,1/2-y,1/2+z
loop_
_atom_site_type_symbol
_atom_site_label
_atom_site_fract_x
_atom_site_fract_y
_atom_site_fract_z
Si Si1 0.225703 0.817686 0.315727
Si Si2 0.000000 0.974512 0.250000
Si Si3 0.716221 0.917537 0.036400
Si Si4 0.081001 0.039270 0.526884
Si Si5 0.056956 0.861679 0.705138
Si Si6 0.167939 0.289370 0.530169
Si Si7 0.497313 0.774864 0.972783
O O1 0.238255 0.861120 0.409103
O O2 0.423427 0.806418 0.517080
O O3 0.132630 0.767969 0.231030
O O4 0.094301 0.836087 0.057697
O O5 0.143775 0.943893 0.364204
O O6 0.118089 0.009559 0.472158
O O7 0.760735 0.935792 0.207296
O O8 0.500000 0.925673 0.750000
O O9 0.943634 0.082631 0.325640
O O10 0.000000 0.000000 0.500000
O O11 0.244100 0.834037 0.916605
O O12 0.000000 0.857249 0.750000
O O13 0.325226 0.250171 0.749371
O O14 0.102110 0.302022 0.560914
O O15 0.000000 0.270254 0.250000
#
# Coordination Sequence:
#
# PCOD9256627 Si02
#       7
#     8   4   8   8   8   8   8
#     4   9  19  36  54  81 116 152 196 244 287 343
#     4  10  20  42  70  88 118 160 188 246 320 356
#     4  10  22  41  62  93 121 152 202 249 293 358
#     4   9  19  38  63  85 116 152 192 239 301 365
#     4  10  18  31  53  78 117 149 187 245 297 348
#     4  10  18  28  47  80 112 153 196 235 293 353
#     4   9  18  33  51  72 115 159 193 239 287 341
#
# _framework density 19.434076000000001
#
# number of rings (size 3 to 8) (size 9 to 14) (size 15 to 20)
#    0.000    2.462    0.769    1.385    0.000    4.923 
#   13.846    3.846    0.000    0.000    0.000    0.000 
#    0.000    0.000    0.000    0.000    0.000    0.000 
#
# Total GULP energy -144936.368930 kJ/mol
# GULP energy per Si atom -5574.475728 kJ/mol
# Density = 1.938984 g / cm^3
# Si number density = 19.434076 Si / 1000 Ang^3
#
#
#
# Elastic Constant Matrix: (Units=GPa)
#
#
# Indices 1 2 3 4 5 6 
#
# 1 79.0453 41.0724 23.1592 0.0000 9.5297 0.0000
# 2 41.0724 89.5701 12.0266 0.0000 3.6944 0.0000
# 3 23.1592 12.0266 71.9012 0.0000 2.4426 0.0000
# 4 0.0000 0.0000 0.0000 4.3132 0.0000 0.5815
# 5 9.5297 3.6944 2.4426 0.0000 23.4162 0.0000
# 6 0.0000 0.0000 0.0000 0.5815 0.0000 36.4112
#
#
#
# Elastic Compliance Matrix: (Units=1/GPa)
#
#
# Indices 1 2 3 4 5 6 
#
# 1 0.018707 -0.007725 -0.004532 0.000000 -0.005922 0.000000
# 2 -0.007725 0.014672 0.000006 0.000000 0.000829 0.000000
# 3 -0.004532 0.000006 0.015359 0.000000 0.000241 0.000000
# 4 0.000000 0.000000 0.000000 0.232347 0.000000 -0.003711
# 5 -0.005922 0.000829 0.000241 0.000000 0.044960 0.000000
# 6 0.000000 0.000000 0.000000 -0.003711 0.000000 0.027523
#
#
# Mechanical properties :
#
#
# Convention : Reuss Voigt Hill
#
# Bulk Modulus (GPa) = 41.26326 43.67032 42.46679
# Shear Modulus (GPa) = 12.94839 23.77866 18.36353
#
# Velocity S-wave (km/s) = 2.58403 3.50173 3.07728
# Velocity P-wave (km/s) = 5.49376 6.23452 5.87583
#
# Compressibility (1/GPa) = 0.02423463
#
# Stress axis : x y z
#
# Youngs Moduli (GPa) = 53.45649 68.15759 65.11034
#
# Poissons Ratio (x) = 0.52653 0.29509
# Poissons Ratio (y) = 0.41296 -0.00039
# Poissons Ratio (z) = 0.24227 -0.00041
#
# Static dielectric constant tensor:
#      x y z
#    x 1.697710 0.000000 -0.019400 
#    y 0.000000 1.704580 0.000000 
#    z -0.019400 0.000000 1.710690 
# 
# From -- ./inp_files/169872.got.cif
#   From: 2010.05.17/outbox.cif.g08.bks.cpg/sg15_85_cif.got.tgz:169872.got - 2010.06.03 18:47:42.
