data_PCOD9256181
_publ_section_title
;
Structure prediction by ZEFSAII (Michael W. Deem and Ramdas Pophale) SiO2 
 PCOD9256181
Probable space group: C 2/C
;
_chemical_formula_sum "Si O2"
_cell_formula_units_Z 60
_cell_length_a 24.010299
_cell_length_b 17.079231
_cell_length_c 14.449429
_cell_angle_alpha 90.000000
_cell_angle_beta 33.002476
_cell_angle_gamma 90.000000
_cell_volume 3227.410661
_symmetry_space_group_name_H-M "C 2/C"
_symmetry_group_IT_number 15
_symmetry_cell_setting 'monoclinic'
loop_
_space_group_symop_operation_xyz
x,y,z
-x,y,1/2-z
-x,-y,-z
x,-y,1/2+z
1/2+x,1/2+y,z
1/2-x,1/2+y,1/2-z
1/2-x,1/2-y,-z
1/2+x,1/2-y,1/2+z
loop_
_atom_site_type_symbol
_atom_site_label
_atom_site_fract_x
_atom_site_fract_y
_atom_site_fract_z
Si Si1 0.810810 0.170436 0.317204
Si Si2 0.620319 0.722332 0.083749
Si Si3 0.352898 0.312841 0.452557
Si Si4 0.000000 0.058593 0.750000
Si Si5 0.700439 0.356869 0.287009
Si Si6 0.410190 0.213549 0.542846
Si Si7 0.636846 0.218196 0.241002
Si Si8 0.898101 0.019689 0.085777
O O1 0.692555 0.199742 0.481739
O O2 0.849525 0.169950 0.368804
O O3 0.869087 0.244320 0.191115
O O4 0.843862 0.095940 0.208409
O O5 0.500000 0.740194 0.250000
O O6 0.648752 0.672630 0.953668
O O7 0.412919 0.385454 0.327899
O O8 0.409765 0.281443 0.464490
O O9 0.352548 0.241792 0.380939
O O10 0.234365 0.332302 0.636498
O O11 0.061896 0.022920 0.577017
O O12 0.821901 0.343455 0.129447
O O13 0.652723 0.298084 0.277142
O O14 0.675817 0.445870 0.301842
O O15 0.523573 0.184229 0.405834
O O16 0.000000 0.000000 0.000000
#
# Coordination Sequence:
#
# PCOD9256181 Si02
#       8
#     8   8   8   4   8   8   8   8
#     4  10  21  36  58  85 114 147 193 238 281 336
#     4  10  20  37  61  87 109 148 196 238 277 332
#     4  10  18  30  53  84 105 143 183 220 278 337
#     4  12  22  36  56  80 118 148 184 230 292 344
#     4  10  23  34  55  86 113 147 188 232 291 340
#     4  10  17  35  53  81 113 145 186 234 277 330
#     4  10  18  32  56  81 113 142 185 233 277 332
#     4  12  24  37  56  83 119 152 183 239 293 348
#
# _framework density 18.590755000000001
#
# number of rings (size 3 to 8) (size 9 to 14) (size 15 to 20)
#    0.000    1.600    2.667    3.200    2.800    0.000 
#    0.000    0.000    0.000    7.200    0.000    0.000 
#    0.000    0.000    0.000    0.000    0.000    0.000 
#
# Total GULP energy -167099.186203 kJ/mol
# GULP energy per Si atom -5569.972873 kJ/mol
# Density = 1.854844 g / cm^3
# Si number density = 18.590755 Si / 1000 Ang^3
#
#
#
# Elastic Constant Matrix: (Units=GPa)
#
#
# Indices 1 2 3 4 5 6 
#
# 1 75.5179 19.7871 40.0254 0.0000 -0.9214 0.0000
# 2 19.7871 71.0592 40.3054 0.0000 -13.0923 0.0000
# 3 40.0254 40.3054 118.0371 0.0000 -29.1862 0.0000
# 4 0.0000 0.0000 0.0000 22.3438 0.0000 -0.0321
# 5 -0.9214 -13.0923 -29.1862 0.0000 54.1900 0.0000
# 6 0.0000 0.0000 0.0000 -0.0321 0.0000 12.6916
#
#
#
# Elastic Compliance Matrix: (Units=1/GPa)
#
#
# Indices 1 2 3 4 5 6 
#
# 1 0.016824 -0.001980 -0.005856 0.000000 -0.003346 0.000000
# 2 -0.001980 0.017750 -0.005004 0.000000 0.001560 0.000000
# 3 -0.005856 -0.005004 0.013662 0.000000 0.006050 0.000000
# 4 0.000000 0.000000 0.000000 0.044755 0.000000 0.000113
# 5 -0.003346 0.001560 0.006050 0.000000 0.022032 0.000000
# 6 0.000000 0.000000 0.000000 0.000113 0.000000 0.078792
#
#
# Mechanical properties :
#
#
# Convention : Reuss Voigt Hill
#
# Bulk Modulus (GPa) = 44.33404 51.65001 47.99203
# Shear Modulus (GPa) = 22.02514 28.81151 25.41833
#
# Velocity S-wave (km/s) = 3.44573 3.94099 3.70165
# Velocity P-wave (km/s) = 6.30317 6.96789 6.64385
#
# Compressibility (1/GPa) = 0.02255603
#
# Stress axis : x y z
#
# Youngs Moduli (GPa) = 59.44033 56.33916 73.19414
#
# Poissons Ratio (x) = 0.11152 0.42864
# Poissons Ratio (y) = 0.11766 0.36626
# Poissons Ratio (z) = 0.34810 0.28192
#
# Static dielectric constant tensor:
#      x y z
#    x 1.657160 0.000000 0.021630 
#    y 0.000000 1.645180 0.000000 
#    z 0.021630 0.000000 1.716080 
# 
# From -- ./inp_files/174093.got.cif
#   From: 2010.05.17/outbox.cif.g08.bks.cpg/sg15_88_cif.got.tgz:174093.got - 2010.06.03 18:47:42.
