data_PCOD9256910
_publ_section_title
;
Structure prediction by ZEFSAII (Michael W. Deem and Ramdas Pophale) SiO2 
 PCOD9256910
Probable space group: C 2/C
;
_chemical_formula_sum "Si O2"
_cell_formula_units_Z 64
_cell_length_a 17.906467
_cell_length_b 17.154851
_cell_length_c 14.205004
_cell_angle_alpha 90.000000
_cell_angle_beta 142.760802
_cell_angle_gamma 90.000000
_cell_volume 2640.565118
_symmetry_space_group_name_H-M "C 2/C"
_symmetry_group_IT_number 15
_symmetry_cell_setting 'monoclinic'
loop_
_space_group_symop_operation_xyz
x,y,z
-x,y,1/2-z
-x,-y,-z
x,-y,1/2+z
1/2+x,1/2+y,z
1/2-x,1/2+y,1/2-z
1/2-x,1/2-y,-z
1/2+x,1/2-y,1/2+z
loop_
_atom_site_type_symbol
_atom_site_label
_atom_site_fract_x
_atom_site_fract_y
_atom_site_fract_z
Si Si1 0.257703 0.989928 0.585150
Si Si2 0.512314 0.035210 0.405711
Si Si3 0.231300 0.958074 0.276379
Si Si4 0.853479 0.146250 0.098336
Si Si5 0.053865 0.716942 0.164967
Si Si6 0.180454 0.177357 0.036167
Si Si7 0.143342 0.814434 0.095142
Si Si8 0.118442 0.890141 0.677921
O O1 0.406922 0.996084 0.730026
O O2 0.199496 0.905537 0.502659
O O3 0.249114 0.007213 0.689184
O O4 0.181767 0.058089 0.462169
O O5 0.658243 0.025142 0.540192
O O6 0.486815 0.127655 0.376414
O O7 0.500000 0.000000 0.500000
O O8 0.124046 0.016565 0.199543
O O9 0.223530 0.865680 0.249049
O O10 0.803831 0.192445 0.956984
O O11 0.814830 0.152117 0.167881
O O12 0.000000 0.161667 0.250000
O O13 0.189403 0.721706 0.348745
O O14 0.085649 0.741217 0.089630
O O15 0.944991 0.771989 0.096292
O O16 0.173391 0.147106 0.138172
O O17 0.025036 0.870523 0.966458
#
# Coordination Sequence:
#
# PCOD9256910 Si02
#       8
#     8   8   8   8   8   8   8   8
#     4   8  16  30  47  70  98 125 161 208 241 280
#     4   9  17  29  47  68  93 124 162 204 247 290
#     4   9  15  27  47  70  93 124 164 206 242 285
#     4   9  17  30  48  71 100 134 163 195 244 295
#     4  10  18  30  48  73  99 127 159 204 251 291
#     4   9  18  31  50  75 102 128 165 207 247 291
#     4   9  17  28  46  71 100 128 164 207 246 287
#     4   9  17  29  47  72 101 132 163 199 240 289
#
# _framework density 24.237237
#
# number of rings (size 3 to 8) (size 9 to 14) (size 15 to 20)
#    0.000    3.000    0.000    1.875    0.000    3.000 
#    0.000    1.250    0.000   12.000    0.000   25.375 
#    0.000    0.000    0.000    0.000    0.000    0.000 
#
# Total GULP energy -178158.232666 kJ/mol
# GULP energy per Si atom -5567.444771 kJ/mol
# Density = 2.418207 g / cm^3
# Si number density = 24.237237 Si / 1000 Ang^3
#
#
#
# Elastic Constant Matrix: (Units=GPa)
#
#
# Indices 1 2 3 4 5 6 
#
# 1 56.9827 -1.3284 9.4352 0.0000 -5.4315 0.0000
# 2 -1.3284 62.2784 16.9071 0.0000 8.0525 0.0000
# 3 9.4352 16.9071 65.6142 0.0000 -6.2018 0.0000
# 4 0.0000 0.0000 0.0000 16.9376 0.0000 18.7378
# 5 -5.4315 8.0525 -6.2018 0.0000 31.8652 0.0000
# 6 0.0000 0.0000 0.0000 18.7378 0.0000 6.6113
#
#
#
# Elastic Compliance Matrix: (Units=1/GPa)
#
#
# Indices 1 2 3 4 5 6 
#
# 1 0.018226 0.000783 -0.002595 0.000000 0.002404 0.000000
# 2 0.000783 0.018234 -0.005332 0.000000 -0.005512 0.000000
# 3 -0.002595 -0.005332 0.017393 0.000000 0.004290 0.000000
# 4 0.000000 0.000000 0.000000 -0.027648 0.000000 0.078360
# 5 0.002404 -0.005512 0.004290 0.000000 0.034020 0.000000
# 6 0.000000 0.000000 0.000000 0.078360 0.000000 -0.070832
#
#
# Mechanical properties :
#
#
# Convention : Reuss Voigt Hill
#
# Bulk Modulus (GPa) = 25.27559 26.10035 25.68797
# Shear Modulus (GPa) = 296.36817 21.74024 159.05421
#
# Velocity S-wave (km/s) = 11.06994 2.99821 8.10965
# Velocity P-wave (km/s) = 13.18493 4.77260 9.91514
#
# Compressibility (1/GPa) = 0.03956387
#
# Stress axis : x y z
#
# Youngs Moduli (GPa) = 54.86577 54.84316 57.49367
#
# Poissons Ratio (x) = -0.04292 0.14922
# Poissons Ratio (y) = -0.04293 0.30655
# Poissons Ratio (z) = 0.14240 0.29242
#
# Static dielectric constant tensor:
#      x y z
#    x 2.125790 0.000000 -0.030750 
#    y 0.000000 1.957780 0.000000 
#    z -0.030750 0.000000 1.976000 
# 
# From -- ./inp_files/219909.got.cif
#   From: 2010.05.17/outbox.cif.g08.bks.cpg/sg15_110_cif.got.tgz:219909.got - 2010.06.03 18:47:42.
