data_PCOD9256640
_publ_section_title
;
Structure prediction by ZEFSAII (Michael W. Deem and Ramdas Pophale) SiO2 
 PCOD9256640
Probable space group: C 2/C
;
_chemical_formula_sum "Si O2"
_cell_formula_units_Z 60
_cell_length_a 15.791226
_cell_length_b 8.915322
_cell_length_c 19.015656
_cell_angle_alpha 90.000000
_cell_angle_beta 55.540548
_cell_angle_gamma 90.000000
_cell_volume 2207.338736
_symmetry_space_group_name_H-M "C 2/C"
_symmetry_group_IT_number 15
_symmetry_cell_setting 'monoclinic'
loop_
_space_group_symop_operation_xyz
x,y,z
-x,y,1/2-z
-x,-y,-z
x,-y,1/2+z
1/2+x,1/2+y,z
1/2-x,1/2+y,1/2-z
1/2-x,1/2-y,-z
1/2+x,1/2-y,1/2+z
loop_
_atom_site_type_symbol
_atom_site_label
_atom_site_fract_x
_atom_site_fract_y
_atom_site_fract_z
Si Si1 0.854649 0.527146 0.566908
Si Si2 0.455206 0.210489 0.630708
Si Si3 0.608818 0.923445 0.757658
Si Si4 0.728072 0.338129 0.705783
Si Si5 0.815309 0.573213 0.427650
Si Si6 0.000000 0.132886 0.750000
Si Si7 0.093456 0.898324 0.071695
Si Si8 0.917008 0.789097 0.050905
O O1 0.884597 0.675091 0.594209
O O2 0.742970 0.477019 0.646540
O O3 0.849665 0.512068 0.486672
O O4 0.928503 0.391941 0.557790
O O5 0.384695 0.300823 0.717568
O O6 0.550413 0.294415 0.547458
O O7 0.457232 0.049295 0.670130
O O8 0.710529 0.893749 0.754540
O O9 0.634871 0.979789 0.667654
O O10 0.562800 0.757043 0.767483
O O11 0.799275 0.207329 0.635585
O O12 0.852923 0.745449 0.420852
O O13 0.692916 0.545125 0.482550
O O14 0.050766 0.035474 0.664366
O O15 0.999244 0.871120 0.061687
#
# Coordination Sequence:
#
# PCOD9256640 Si02
#       8
#     8   8   8   8   8   4   8   8
#     4   9  20  32  55  80 112 141 190 226 285 328
#     4  11  19  34  56  74 109 146 181 226 281 319
#     4  10  21  31  51  82 107 132 181 230 277 322
#     4   9  21  34  51  81 107 144 186 226 262 345
#     4  10  20  30  49  80 111 141 172 232 286 328
#     4  10  18  28  48  80 114 120 180 218 274 334
#     4  10  18  29  49  77 112 142 167 222 293 329
#     4  10  19  33  54  80 110 141 188 224 278 335
#
# _framework density 27.182053
#
# number of rings (size 3 to 8) (size 9 to 14) (size 15 to 20)
#    0.800    1.333    2.667    1.200    7.467    0.000 
#    0.000    0.667    0.000    8.800    0.000    0.000 
#    0.000    0.000    0.000    0.000    0.000    0.000 
#
# Total GULP energy -167238.904565 kJ/mol
# GULP energy per Si atom -5574.630152 kJ/mol
# Density = 2.712019 g / cm^3
# Si number density = 27.182053 Si / 1000 Ang^3
#
#
#
# Elastic Constant Matrix: (Units=GPa)
#
#
# Indices 1 2 3 4 5 6 
#
# 1 70.3536 26.0659 36.0984 0.0000 -4.7619 0.0000
# 2 26.0659 37.9537 28.3050 0.0000 -4.0180 0.0001
# 3 36.0984 28.3050 229.0610 0.0000 5.0514 0.0000
# 4 0.0000 0.0000 0.0000 44.8486 0.0000 -6.3706
# 5 -4.7619 -4.0180 5.0514 0.0000 43.0884 0.0000
# 6 0.0000 0.0001 0.0000 -6.3706 0.0000 30.3917
#
#
#
# Elastic Compliance Matrix: (Units=1/GPa)
#
#
# Indices 1 2 3 4 5 6 
#
# 1 0.019626 -0.012141 -0.001620 0.000000 0.001227 0.000000
# 2 -0.012141 0.036962 -0.002707 0.000000 0.002422 0.000000
# 3 -0.001620 -0.002707 0.004978 0.000000 -0.001015 0.000000
# 4 0.000000 0.000000 0.000000 0.022982 0.000000 0.004817
# 5 0.001227 0.002422 -0.001015 0.000000 0.023689 0.000000
# 6 0.000000 0.000000 0.000000 0.004817 0.000000 0.033914
#
#
# Mechanical properties :
#
#
# Convention : Reuss Voigt Hill
#
# Bulk Modulus (GPa) = 34.92924 57.58965 46.25944
# Shear Modulus (GPa) = 27.08130 40.12566 33.60348
#
# Velocity S-wave (km/s) = 3.15984 3.84628 3.51983
# Velocity P-wave (km/s) = 5.11769 6.39983 5.79433
#
# Compressibility (1/GPa) = 0.02862931
#
# Stress axis : x y z
#
# Youngs Moduli (GPa) = 50.95200 27.05500 200.89007
#
# Poissons Ratio (x) = 0.32848 0.32539
# Poissons Ratio (y) = 0.61862 0.54389
# Poissons Ratio (z) = 0.08253 0.07325
#
# Static dielectric constant tensor:
#      x y z
#    x 2.154630 0.000000 -0.134730 
#    y 0.000000 2.293880 0.000000 
#    z -0.134730 0.000000 2.288120 
# 
# From -- ./inp_files/210949.got.cif
#   From: 2010.05.17/outbox.cif.g08.bks.cpg/sg15_106_cif.got.tgz:210949.got - 2010.06.03 18:47:42.
