data_PCOD9256970
_publ_section_title
;
Structure prediction by ZEFSAII (Michael W. Deem and Ramdas Pophale) SiO2 
 PCOD9256970
Probable space group: C 2/C
;
_chemical_formula_sum "Si O2"
_cell_formula_units_Z 48
_cell_length_a 28.114578
_cell_length_b 5.728738
_cell_length_c 17.940616
_cell_angle_alpha 90.000000
_cell_angle_beta 136.609370
_cell_angle_gamma 90.000000
_cell_volume 1985.019683
_symmetry_space_group_name_H-M "C 2/C"
_symmetry_group_IT_number 15
_symmetry_cell_setting 'monoclinic'
loop_
_space_group_symop_operation_xyz
x,y,z
-x,y,1/2-z
-x,-y,-z
x,-y,1/2+z
1/2+x,1/2+y,z
1/2-x,1/2+y,1/2-z
1/2-x,1/2-y,-z
1/2+x,1/2-y,1/2+z
loop_
_atom_site_type_symbol
_atom_site_label
_atom_site_fract_x
_atom_site_fract_y
_atom_site_fract_z
Si Si1 0.017810 0.570178 0.406874
Si Si2 0.067468 0.216208 0.344350
Si Si3 0.936899 0.816308 0.422222
Si Si4 0.186879 0.749707 0.868051
Si Si5 0.359196 0.567230 0.449767
Si Si6 0.230856 0.747083 0.388199
O O1 0.030485 0.424835 0.346954
O O2 0.041168 0.385645 0.495875
O O3 0.075183 0.767067 0.472056
O O4 0.946886 0.697115 0.352317
O O5 0.112500 0.261818 0.322913
O O6 0.000000 0.055635 0.250000
O O7 0.124932 0.115884 0.466271
O O8 0.868521 0.932939 0.381418
O O9 0.000000 0.000000 0.500000
O O10 0.195143 0.505512 0.834371
O O11 0.194473 0.001452 0.837387
O O12 0.250000 0.750000 0.000000
O O13 0.294959 0.721629 0.403988
O O14 0.250000 0.750000 0.500000
#
# Coordination Sequence:
#
# PCOD9256970 Si02
#       6
#     8   8   8   8   8   8
#     4   9  17  31  48  71 107 138 175 223 279 330
#     4  11  22  32  48  76 114 151 182 217 282 347
#     4   8  16  29  48  73 104 128 175 232 284 315
#     4  10  19  34  50  73 106 149 182 221 265 326
#     4  10  18  30  50  75 106 138 181 234 279 328
#     4  10  18  30  52  71 103 143 177 223 270 318
#
# _framework density 24.181118999999999
#
# number of rings (size 3 to 8) (size 9 to 14) (size 15 to 20)
#    0.000    2.333    3.333    2.000    2.333    0.667 
#    0.000    0.000    0.000    0.000    0.000    0.000 
#   30.000    0.000    0.000    0.000    0.000    0.000 
#
# Total GULP energy -133634.263299 kJ/mol
# GULP energy per Si atom -5568.094304 kJ/mol
# Density = 2.412608 g / cm^3
# Si number density = 24.181119 Si / 1000 Ang^3
#
#
#
# Elastic Constant Matrix: (Units=GPa)
#
#
# Indices 1 2 3 4 5 6 
#
# 1 196.0258 72.9608 27.8797 0.0001 32.8171 0.0000
# 2 72.9608 131.3263 11.8773 0.0003 -0.8382 -0.0004
# 3 27.8797 11.8773 47.8382 0.0000 9.5479 0.0000
# 4 0.0001 0.0003 0.0000 5.7370 0.0000 0.5372
# 5 32.8171 -0.8382 9.5479 0.0000 33.2611 -0.0001
# 6 0.0000 -0.0004 0.0000 0.5372 -0.0001 34.7916
#
#
#
# Elastic Compliance Matrix: (Units=1/GPa)
#
#
# Indices 1 2 3 4 5 6 
#
# 1 0.008397 -0.004513 -0.002224 0.000000 -0.007760 0.000000
# 2 -0.004513 0.010235 -0.000903 0.000000 0.004970 0.000000
# 3 -0.002224 -0.000903 0.023327 0.000000 -0.004525 0.000000
# 4 0.000000 0.000000 0.000000 0.174560 0.000000 -0.002695
# 5 -0.007760 0.004970 -0.004525 0.000000 0.039145 0.000000
# 6 0.000000 0.000000 0.000000 -0.002695 0.000000 0.028784
#
#
# Mechanical properties :
#
#
# Convention : Reuss Voigt Hill
#
# Bulk Modulus (GPa) = 37.48330 66.73622 52.10976
# Shear Modulus (GPa) = 16.20103 32.25611 24.22857
#
# Velocity S-wave (km/s) = 2.59122 3.65627 3.16881
# Velocity P-wave (km/s) = 4.94846 6.74410 5.91482
#
# Compressibility (1/GPa) = 0.02667855
#
# Stress axis : x y z
#
# Youngs Moduli (GPa) = 119.09534 97.69970 42.86831
#
# Poissons Ratio (x) = 0.44095 0.09535
# Poissons Ratio (y) = 0.53751 0.03871
# Poissons Ratio (z) = 0.26489 0.08822
#
# Static dielectric constant tensor:
#      x y z
#    x 1.897690 0.000000 -0.015520 
#    y 0.000000 1.974850 -0.000010 
#    z -0.015520 -0.000010 2.264610 
# 
# From -- ./inp_files/220836.got.cif
#   From: 2010.05.17/outbox.cif.g08.bks.cpg/sg15_111_cif.got.tgz:220836.got - 2010.06.03 18:47:42.
