data_PCOD9256301
_publ_section_title
;
Structure prediction by ZEFSAII (Michael W. Deem and Ramdas Pophale) SiO2 
 PCOD9256301
Probable space group: C 2/C
;
_chemical_formula_sum "Si O2"
_cell_formula_units_Z 48
_cell_length_a 18.387069
_cell_length_b 7.780890
_cell_length_c 19.358256
_cell_angle_alpha 90.000000
_cell_angle_beta 43.900293
_cell_angle_gamma 90.000000
_cell_volume 1920.415933
_symmetry_space_group_name_H-M "C 2/C"
_symmetry_group_IT_number 15
_symmetry_cell_setting 'monoclinic'
loop_
_space_group_symop_operation_xyz
x,y,z
-x,y,1/2-z
-x,-y,-z
x,-y,1/2+z
1/2+x,1/2+y,z
1/2-x,1/2+y,1/2-z
1/2-x,1/2-y,-z
1/2+x,1/2-y,1/2+z
loop_
_atom_site_type_symbol
_atom_site_label
_atom_site_fract_x
_atom_site_fract_y
_atom_site_fract_z
Si Si1 0.747457 0.032401 0.634221
Si Si2 0.950621 0.194429 0.534138
Si Si3 0.451362 0.159139 0.186452
Si Si4 0.305865 0.931025 0.975335
Si Si5 0.850158 0.248853 0.164154
Si Si6 0.304860 0.527047 0.804937
O O1 0.629541 0.993925 0.741175
O O2 0.735789 0.041897 0.559904
O O3 0.808029 0.867668 0.627314
O O4 0.831000 0.179373 0.594429
O O5 0.952958 0.280526 0.606430
O O6 0.030113 0.297432 0.431718
O O7 0.000000 0.000000 0.500000
O O8 0.570016 0.102709 0.119714
O O9 0.397432 0.332390 0.256656
O O10 0.764642 0.489482 0.078596
O O11 0.250000 0.750000 0.000000
O O12 0.769174 0.401627 0.206774
O O13 0.848629 0.141013 0.236051
#
# Coordination Sequence:
#
# PCOD9256301 Si02
#       6
#     8   8   8   8   8   8
#     4  10  21  33  57  90 123 162 207 274 322 375
#     4  10  17  36  58  79 124 170 206 258 331 393
#     4  11  20  34  57  86 125 161 209 260 327 382
#     4  12  21  34  54  93 130 160 209 277 333 374
#     4  10  20  38  60  89 124 172 216 268 325 394
#     4  11  22  36  63  91 125 167 217 267 327 390
#
# _framework density 24.994588
#
# number of rings (size 3 to 8) (size 9 to 14) (size 15 to 20)
#    0.000    1.333    8.333    1.500    0.000    0.000 
#    0.000    3.333    3.667    1.000    0.000    2.333 
#    0.000    0.000    0.000    0.000    0.000    0.000 
#
# Total GULP energy -134046.525686 kJ/mol
# GULP energy per Si atom -5585.271904 kJ/mol
# Density = 2.493770 g / cm^3
# Si number density = 24.994588 Si / 1000 Ang^3
#
#
#
# Elastic Constant Matrix: (Units=GPa)
#
#
# Indices 1 2 3 4 5 6 
#
# 1 118.7312 14.9534 44.5403 0.0000 4.8141 0.0000
# 2 14.9534 66.2223 13.1973 0.0001 10.6200 -0.0001
# 3 44.5403 13.1973 185.1953 0.0000 5.4855 0.0000
# 4 0.0000 0.0001 0.0000 31.0926 0.0000 2.1519
# 5 4.8141 10.6200 5.4855 0.0000 48.5197 0.0000
# 6 0.0000 -0.0001 0.0000 2.1519 0.0000 35.0849
#
#
#
# Elastic Compliance Matrix: (Units=1/GPa)
#
#
# Indices 1 2 3 4 5 6 
#
# 1 0.009449 -0.001653 -0.002145 0.000000 -0.000333 0.000000
# 2 -0.001653 0.016132 -0.000655 0.000000 -0.003293 0.000000
# 3 -0.002145 -0.000655 0.005972 0.000000 -0.000319 0.000000
# 4 0.000000 0.000000 0.000000 0.032299 0.000000 -0.001981
# 5 -0.000333 -0.003293 -0.000319 0.000000 0.021400 0.000000
# 6 0.000000 0.000000 0.000000 -0.001981 0.000000 0.028624
#
#
# Mechanical properties :
#
#
# Convention : Reuss Voigt Hill
#
# Bulk Modulus (GPa) = 44.15300 57.28121 50.71710
# Shear Modulus (GPa) = 38.36436 42.76997 40.56717
#
# Velocity S-wave (km/s) = 3.92204 4.14112 4.03307
# Velocity P-wave (km/s) = 6.18168 6.76996 6.48250
#
# Compressibility (1/GPa) = 0.02264852
#
# Stress axis : x y z
#
# Youngs Moduli (GPa) = 105.83539 61.98707 167.45830
#
# Poissons Ratio (x) = 0.10244 0.35916
# Poissons Ratio (y) = 0.17491 0.10962
# Poissons Ratio (z) = 0.22700 0.04058
#
# Static dielectric constant tensor:
#      x y z
#    x 2.004250 0.000000 0.089220 
#    y 0.000000 2.109840 0.000000 
#    z 0.089220 0.000000 2.105270 
# 
# From -- ./inp_files/300633.got.cif
#   From: 2010.05.17/outbox.cif.g08.bks.cpg/sg15_151_cif.got.tgz:300633.got - 2010.06.03 18:47:42.
