data_PCOD9256054
_publ_section_title
;
Structure prediction by ZEFSAII (Michael W. Deem and Ramdas Pophale) SiO2 
 PCOD9256054
Probable space group: C 2/C
;
_chemical_formula_sum "Si O2"
_cell_formula_units_Z 52
_cell_length_a 22.909966
_cell_length_b 14.586238
_cell_length_c 17.473606
_cell_angle_alpha 90.000000
_cell_angle_beta 153.568010
_cell_angle_gamma 90.000000
_cell_volume 2599.215155
_symmetry_space_group_name_H-M "C 2/C"
_symmetry_group_IT_number 15
_symmetry_cell_setting 'monoclinic'
loop_
_space_group_symop_operation_xyz
x,y,z
-x,y,1/2-z
-x,-y,-z
x,-y,1/2+z
1/2+x,1/2+y,z
1/2-x,1/2+y,1/2-z
1/2-x,1/2-y,-z
1/2+x,1/2-y,1/2+z
loop_
_atom_site_type_symbol
_atom_site_label
_atom_site_fract_x
_atom_site_fract_y
_atom_site_fract_z
Si Si1 0.650157 0.290638 0.159444
Si Si2 0.500000 0.662559 0.750000
Si Si3 0.864100 0.994463 0.414228
Si Si4 0.594272 0.585971 0.287745
Si Si5 0.244421 0.463133 0.925176
Si Si6 0.858377 0.718570 0.187736
Si Si7 0.644116 0.317903 0.695611
O O1 0.657080 0.400648 0.157585
O O2 0.692692 0.252881 0.291111
O O3 0.735784 0.241329 0.195176
O O4 0.495445 0.267983 0.977765
O O5 0.375351 0.598962 0.590240
O O6 0.516748 0.725923 0.695158
O O7 0.999596 0.978148 0.622302
O O8 0.753188 0.001195 0.349314
O O9 0.862380 0.086089 0.360912
O O10 0.500000 0.611513 0.250000
O O11 0.723731 0.539885 0.475547
O O12 0.644394 0.660402 0.286262
O O13 0.128485 0.390830 0.799580
O O14 0.750000 0.750000 0.000000
#
# Coordination Sequence:
#
# PCOD9256054 Si02
#       7
#     8   4   8   8   8   8   8
#     4  11  23  38  61  89 120 157 203 244 300 350
#     4  10  18  30  50  80 118 142 194 238 302 340
#     4  10  19  36  60  83 118 157 204 242 285 361
#     4   9  18  33  60  84 106 152 203 248 281 343
#     4  10  17  34  56  81 110 148 202 247 288 344
#     4  10  22  30  51  83 118 150 183 250 300 349
#     4  11  23  39  60  88 121 157 202 247 295 356
#
# _framework density 20.006039999999999
#
# number of rings (size 3 to 8) (size 9 to 14) (size 15 to 20)
#    0.000    1.846    3.846    2.769    8.615    0.000 
#    0.000    7.692    3.385    0.000    0.000    0.000 
#    0.000    0.000    0.000    0.000    0.000    0.000 
#
# Total GULP energy -144825.496007 kJ/mol
# GULP energy per Si atom -5570.211385 kJ/mol
# Density = 1.996050 g / cm^3
# Si number density = 20.006040 Si / 1000 Ang^3
#
#
#
# Elastic Constant Matrix: (Units=GPa)
#
#
# Indices 1 2 3 4 5 6 
#
# 1 99.9135 37.0616 26.7633 0.0000 -15.0976 0.0000
# 2 37.0616 51.5430 16.8026 0.0000 -2.6642 0.0000
# 3 26.7633 16.8026 35.4123 0.0000 -9.1000 0.0000
# 4 0.0000 0.0000 0.0000 10.9047 0.0000 -2.0716
# 5 -15.0976 -2.6642 -9.1000 0.0000 29.3562 0.0000
# 6 0.0000 0.0000 0.0000 -2.0716 0.0000 41.6054
#
#
#
# Elastic Compliance Matrix: (Units=1/GPa)
#
#
# Indices 1 2 3 4 5 6 
#
# 1 0.015883 -0.009085 -0.006308 0.000000 0.005388 0.000000
# 2 -0.009085 0.028202 -0.007669 0.000000 -0.004490 0.000000
# 3 -0.006308 -0.007669 0.038716 0.000000 0.008061 0.000000
# 4 0.000000 0.000000 0.000000 0.092579 0.000000 0.004610
# 5 0.005388 -0.004490 0.008061 0.000000 0.038927 0.000000
# 6 0.000000 0.000000 0.000000 0.004610 0.000000 0.024265
#
#
# Mechanical properties :
#
#
# Convention : Reuss Voigt Hill
#
# Bulk Modulus (GPa) = 27.26539 38.68041 32.97290
# Shear Modulus (GPa) = 16.83945 23.45604 20.14775
#
# Velocity S-wave (km/s) = 2.90439 3.42782 3.17690
# Velocity P-wave (km/s) = 4.99053 5.91971 5.47487
#
# Compressibility (1/GPa) = 0.03667654
#
# Stress axis : x y z
#
# Youngs Moduli (GPa) = 62.96170 35.45850 25.82886
#
# Poissons Ratio (x) = 0.32216 0.16293
# Poissons Ratio (y) = 0.57204 0.19808
# Poissons Ratio (z) = 0.39716 0.27193
#
# Static dielectric constant tensor:
#      x y z
#    x 2.039570 0.000000 -1.082180 
#    y 0.000000 1.783400 0.000000 
#    z -1.082180 0.000000 6.393990 
# 
# From -- ./inp_files/219531.got.cif
#   From: 2010.05.17/outbox.cif.g08.bks.cpg/sg15_110_cif.got.tgz:219531.got - 2010.06.03 18:47:42.
