data_PCOD9256423
_publ_section_title
;
Structure prediction by ZEFSAII (Michael W. Deem and Ramdas Pophale) SiO2 
 PCOD9256423
Probable space group: C 2/C
;
_chemical_formula_sum "Si O2"
_cell_formula_units_Z 56
_cell_length_a 9.356466
_cell_length_b 15.850789
_cell_length_c 23.988786
_cell_angle_alpha 90.000000
_cell_angle_beta 61.953702
_cell_angle_gamma 90.000000
_cell_volume 3139.924095
_symmetry_space_group_name_H-M "C 2/C"
_symmetry_group_IT_number 15
_symmetry_cell_setting 'monoclinic'
loop_
_space_group_symop_operation_xyz
x,y,z
-x,y,1/2-z
-x,-y,-z
x,-y,1/2+z
1/2+x,1/2+y,z
1/2-x,1/2+y,1/2-z
1/2-x,1/2-y,-z
1/2+x,1/2-y,1/2+z
loop_
_atom_site_type_symbol
_atom_site_label
_atom_site_fract_x
_atom_site_fract_y
_atom_site_fract_z
Si Si1 0.069848 0.063106 0.381371
Si Si2 0.252329 0.641182 0.053584
Si Si3 0.681338 0.838294 0.733917
Si Si4 0.095065 0.285465 0.870274
Si Si5 0.100636 0.114431 0.595540
Si Si6 0.326713 0.208210 0.622310
Si Si7 0.159198 0.224568 0.072902
O O1 0.181468 0.070123 0.416339
O O2 0.185562 0.094598 0.310270
O O3 0.929355 0.133585 0.414286
O O4 0.993048 0.972925 0.385816
O O5 0.318631 0.727799 0.070174
O O6 0.059370 0.654340 0.088704
O O7 0.322661 0.626838 0.979816
O O8 0.500000 0.864803 0.750000
O O9 0.681861 0.818000 0.798753
O O10 0.723782 0.755629 0.688853
O O11 0.215733 0.278306 0.899580
O O12 0.018755 0.193374 0.872755
O O13 0.241716 0.124479 0.615877
O O14 0.511708 0.208980 0.607679
O O15 0.250000 0.250000 0.000000
#
# Coordination Sequence:
#
# PCOD9256423 Si02
#       7
#     8   8   8   8   8   8   8
#     4  10  22  35  56  82 117 150 183 245 289 333
#     4   9  17  32  55  84 109 147 189 224 281 357
#     4  10  17  38  60  78 107 150 200 229 283 357
#     4  11  19  34  65  81 105 157 191 234 286 344
#     4  11  19  34  57  87 108 143 195 236 288 332
#     4   9  19  33  56  81 109 152 188 235 278 349
#     4  10  20  37  55  83 116 149 185 229 285 351
#
# _framework density 17.834827000000001
#
# number of rings (size 3 to 8) (size 9 to 14) (size 15 to 20)
#    0.000    2.286    4.286    4.714    0.000    2.286 
#    0.000    7.143    6.286    0.000    0.000    0.000 
#    0.000    0.000    0.000    0.000    0.000    0.000 
#
# Total GULP energy -156110.877877 kJ/mol
# GULP energy per Si atom -5575.388496 kJ/mol
# Density = 1.779423 g / cm^3
# Si number density = 17.834827 Si / 1000 Ang^3
#
#
#
# Elastic Constant Matrix: (Units=GPa)
#
#
# Indices 1 2 3 4 5 6 
#
# 1 132.3257 32.4501 31.7864 0.0000 4.3630 0.0000
# 2 32.4501 61.2968 33.6400 0.0000 -5.9393 0.0000
# 3 31.7864 33.6400 128.2752 0.0000 -1.6851 0.0000
# 4 0.0000 0.0000 0.0000 6.4054 0.0000 -1.8135
# 5 4.3630 -5.9393 -1.6851 0.0000 30.3310 0.0000
# 6 0.0000 0.0000 0.0000 -1.8135 0.0000 34.6935
#
#
#
# Elastic Compliance Matrix: (Units=1/GPa)
#
#
# Indices 1 2 3 4 5 6 
#
# 1 0.008963 -0.004350 -0.001109 0.000000 -0.002203 0.000000
# 2 -0.004350 0.021537 -0.004510 0.000000 0.004592 0.000000
# 3 -0.001109 -0.004510 0.009251 0.000000 -0.000210 0.000000
# 4 0.000000 0.000000 0.000000 0.158463 0.000000 0.008283
# 5 -0.002203 0.004592 -0.000210 0.000000 0.034174 0.000000
# 6 0.000000 0.000000 0.000000 0.008283 0.000000 0.029257
#
#
# Mechanical properties :
#
#
# Convention : Reuss Voigt Hill
#
# Bulk Modulus (GPa) = 50.47230 57.51675 53.99453
# Shear Modulus (GPa) = 17.34997 29.22073 23.28535
#
# Velocity S-wave (km/s) = 3.12238 4.05212 3.61724
# Velocity P-wave (km/s) = 6.43120 7.36292 6.91277
#
# Compressibility (1/GPa) = 0.01981285
#
# Stress axis : x y z
#
# Youngs Moduli (GPa) = 111.57199 46.43239 108.10167
#
# Poissons Ratio (x) = 0.20196 0.11991
# Poissons Ratio (y) = 0.48529 0.48752
# Poissons Ratio (z) = 0.12376 0.20940
#
# Static dielectric constant tensor:
#      x y z
#    x 1.646520 0.000000 -0.004800 
#    y 0.000000 1.610390 0.000000 
#    z -0.004800 0.000000 1.609130 
# 
# From -- ./inp_files/264563.got.cif
#   From: 2010.05.17/outbox.cif.g08.bks.cpg/sg15_133_cif.got.tgz:264563.got - 2010.06.03 18:47:42.
