data_PCOD9256017
_publ_section_title
;
Structure prediction by ZEFSAII (Michael W. Deem and Ramdas Pophale) SiO2 
 PCOD9256017
Probable space group: C 2/C
;
_chemical_formula_sum "Si O2"
_cell_formula_units_Z 56
_cell_length_a 25.349987
_cell_length_b 8.118231
_cell_length_c 12.583206
_cell_angle_alpha 90.000000
_cell_angle_beta 130.001923
_cell_angle_gamma 90.000000
_cell_volume 1983.682617
_symmetry_space_group_name_H-M "C 2/C"
_symmetry_group_IT_number 15
_symmetry_cell_setting 'monoclinic'
loop_
_space_group_symop_operation_xyz
x,y,z
-x,y,1/2-z
-x,-y,-z
x,-y,1/2+z
1/2+x,1/2+y,z
1/2-x,1/2+y,1/2-z
1/2-x,1/2-y,-z
1/2+x,1/2-y,1/2+z
loop_
_atom_site_type_symbol
_atom_site_label
_atom_site_fract_x
_atom_site_fract_y
_atom_site_fract_z
Si Si1 0.355174 0.008624 0.677714
Si Si2 0.797949 0.887436 0.489969
Si Si3 0.586219 0.570564 0.184613
Si Si4 0.000000 0.444472 0.250000
Si Si5 0.926159 0.328771 0.502211
Si Si6 0.646972 0.737180 0.654452
Si Si7 0.500000 0.414321 0.250000
Si Si8 0.796659 0.265687 0.427692
O O1 0.284963 0.119121 0.595686
O O2 0.421988 0.086253 0.703835
O O3 0.375635 0.904672 0.811657
O O4 0.325702 0.861022 0.566103
O O5 0.802489 0.069991 0.442091
O O6 0.845323 0.905775 0.655993
O O7 0.831353 0.767433 0.442494
O O8 0.559911 0.726021 0.084372
O O9 0.597299 0.413640 0.121476
O O10 0.530404 0.525358 0.199102
O O11 0.031330 0.518737 0.400674
O O12 0.844128 0.335035 0.396472
O O13 0.944590 0.204516 0.624619
O O14 0.719274 0.691458 0.802566
#
# Coordination Sequence:
#
# PCOD9256017 Si02
#       8
#     8   8   8   4   8   8   4   8
#     4  10  19  36  59  80 114 147 192 240 279 335
#     4  11  20  33  53  84 112 146 192 229 285 340
#     4  12  19  32  49  80 117 144 173 228 289 344
#     4   9  20  36  58  88 109 150 197 232 288 338
#     4  10  19  31  52  75 112 140 182 229 276 340
#     4  11  19  30  54  79 112 142 182 240 279 329
#     4  11  20  30  46  80 109 148 177 210 282 354
#     4  10  17  34  53  77 101 147 184 230 280 319
#
# _framework density 28.230321
#
# number of rings (size 3 to 8) (size 9 to 14) (size 15 to 20)
#    0.000    1.429    5.714    3.000    0.000    1.143 
#    0.000    0.714    0.000    3.429    0.000    0.000 
#    0.000    0.000    0.000    0.000    0.000    0.429 
#
# Total GULP energy -156473.760741 kJ/mol
# GULP energy per Si atom -5588.348598 kJ/mol
# Density = 2.816607 g / cm^3
# Si number density = 28.230321 Si / 1000 Ang^3
#
#
#
# Elastic Constant Matrix: (Units=GPa)
#
#
# Indices 1 2 3 4 5 6 
#
# 1 199.9794 39.8587 53.5235 0.0000 11.4663 0.0000
# 2 39.8587 56.3253 24.6385 0.0000 6.3888 0.0000
# 3 53.5235 24.6385 155.0987 0.0000 3.3556 0.0000
# 4 0.0000 0.0000 0.0000 54.5102 0.0000 -16.0894
# 5 11.4663 6.3888 3.3556 0.0000 37.3830 0.0000
# 6 0.0000 0.0000 0.0000 -16.0894 0.0000 13.9779
#
#
#
# Elastic Compliance Matrix: (Units=1/GPa)
#
#
# Indices 1 2 3 4 5 6 
#
# 1 0.006192 -0.003576 -0.001544 0.000000 -0.001150 0.000000
# 2 -0.003576 0.021486 -0.002127 0.000000 -0.002384 0.000000
# 3 -0.001544 -0.002127 0.007314 0.000000 0.000181 0.000000
# 4 0.000000 0.000000 0.000000 0.027785 0.000000 0.031982
# 5 -0.001150 -0.002384 0.000181 0.000000 0.027494 0.000000
# 6 0.000000 0.000000 0.000000 0.031982 0.000000 0.108355
#
#
# Mechanical properties :
#
#
# Convention : Reuss Voigt Hill
#
# Bulk Modulus (GPa) = 48.78711 71.93830 60.36271
# Shear Modulus (GPa) = 22.73196 40.73305 31.73251
#
# Velocity S-wave (km/s) = 2.84074 3.80265 3.35633
# Velocity P-wave (km/s) = 5.29897 6.69464 6.03727
#
# Compressibility (1/GPa) = 0.02049722
#
# Stress axis : x y z
#
# Youngs Moduli (GPa) = 161.48604 46.54225 136.71703
#
# Poissons Ratio (x) = 0.16645 0.21109
# Poissons Ratio (y) = 0.57753 0.29085
# Poissons Ratio (z) = 0.24933 0.09901
#
# Static dielectric constant tensor:
#      x y z
#    x 2.379070 0.000000 -0.044200 
#    y 0.000000 0.908780 0.000000 
#    z -0.044200 0.000000 2.195990 
# 
# From -- ./inp_files/122722.got.cif
#   From: 2010.05.17/outbox.cif.g08.bks.cpg/sg15_62_cif.got.tgz:122722.got - 2010.06.03 18:47:42.
