data_PCOD9256100
_publ_section_title
;
Structure prediction by ZEFSAII (Michael W. Deem and Ramdas Pophale) SiO2 
 PCOD9256100
Probable space group: C 2/C
;
_chemical_formula_sum "Si O2"
_cell_formula_units_Z 56
_cell_length_a 9.131208
_cell_length_b 17.946108
_cell_length_c 18.204319
_cell_angle_alpha 90.000000
_cell_angle_beta 51.218897
_cell_angle_gamma 90.000000
_cell_volume 2325.486965
_symmetry_space_group_name_H-M "C 2/C"
_symmetry_group_IT_number 15
_symmetry_cell_setting 'monoclinic'
loop_
_space_group_symop_operation_xyz
x,y,z
-x,y,1/2-z
-x,-y,-z
x,-y,1/2+z
1/2+x,1/2+y,z
1/2-x,1/2+y,1/2-z
1/2-x,1/2-y,-z
1/2+x,1/2-y,1/2+z
loop_
_atom_site_type_symbol
_atom_site_label
_atom_site_fract_x
_atom_site_fract_y
_atom_site_fract_z
Si Si1 0.545148 0.906779 0.835593
Si Si2 0.500000 0.526896 0.250000
Si Si3 0.477965 0.312151 0.482782
Si Si4 0.500000 0.215074 0.250000
Si Si5 0.038012 0.857494 0.846552
Si Si6 0.349212 0.935916 0.181811
Si Si7 0.208234 0.285415 0.232035
Si Si8 0.663567 0.852894 0.468697
O O1 0.417951 0.845725 0.833336
O O2 0.751086 0.887166 0.740073
O O3 0.514180 0.994922 0.841471
O O4 0.508029 0.883174 0.929339
O O5 0.583189 0.583281 0.161996
O O6 0.645181 0.474357 0.246028
O O7 0.506180 0.351857 0.553144
O O8 0.671479 0.288408 0.380814
O O9 0.372136 0.234347 0.534021
O O10 0.352770 0.355724 0.460047
O O11 0.366051 0.266689 0.244709
O O12 0.051624 0.775762 0.804920
O O13 0.367932 0.867122 0.229351
O O14 0.348477 0.900886 0.100772
#
# Coordination Sequence:
#
# PCOD9256100 Si02
#       8
#     8   4   8   4   8   8   8   8
#     4  10  21  35  55  86 123 153 189 240 304 346
#     4  10  23  42  57  78 120 172 188 228 299 368
#     4  11  21  33  63  97 111 145 201 254 287 340
#     4  10  17  34  59  82 114 150 186 242 287 336
#     4  10  21  39  59  81 120 158 194 234 296 350
#     4  11  22  37  59  86 119 157 199 240 289 347
#     4  11  20  36  63  90 114 146 205 250 280 343
#     4  11  19  33  59  93 119 144 191 250 297 335
#
# _framework density 24.080978000000002
#
# number of rings (size 3 to 8) (size 9 to 14) (size 15 to 20)
#    0.000    1.429    4.286    4.286    2.000    0.000 
#    0.000    9.286    0.000    0.000    0.000    0.000 
#    0.000    0.000    0.000    0.000    0.000    0.000 
#
# Total GULP energy -156120.624726 kJ/mol
# GULP energy per Si atom -5575.736597 kJ/mol
# Density = 2.402617 g / cm^3
# Si number density = 24.080978 Si / 1000 Ang^3
#
#
#
# Elastic Constant Matrix: (Units=GPa)
#
#
# Indices 1 2 3 4 5 6 
#
# 1 75.5663 8.6415 31.1349 0.0000 17.7935 -0.0001
# 2 8.6415 164.9864 52.6738 0.0000 16.2890 -0.0001
# 3 31.1349 52.6738 155.8159 0.0000 21.0061 0.0000
# 4 0.0000 0.0000 0.0000 24.2511 0.0000 5.7893
# 5 17.7935 16.2890 21.0061 0.0000 26.9640 0.0001
# 6 -0.0001 -0.0001 0.0000 5.7893 0.0001 0.5618
#
#
#
# Elastic Compliance Matrix: (Units=1/GPa)
#
#
# Indices 1 2 3 4 5 6 
#
# 1 0.016303 0.000801 -0.002249 0.000001 -0.009490 -0.000004
# 2 0.000801 0.006999 -0.002106 0.000000 -0.003116 -0.000001
# 3 -0.002249 -0.002106 0.008053 0.000000 -0.003518 0.000000
# 4 0.000001 0.000000 0.000000 -0.028247 -0.000002 0.291057
# 5 -0.009490 -0.003116 -0.003518 -0.000002 0.047972 0.000008
# 6 -0.000004 -0.000001 0.000000 0.291057 0.000008 -1.219226
#
#
# Mechanical properties :
#
#
# Convention : Reuss Voigt Hill
#
# Bulk Modulus (GPa) = 41.24111 64.58545 52.91328
# Shear Modulus (GPa) = -4.33668 30.61660 13.13996
#
# Velocity S-wave (km/s) = -1.34342 3.56954 2.33846
# Velocity P-wave (km/s) = 3.84146 6.62323 5.41405
#
# Compressibility (1/GPa) = 0.02424765
#
# Stress axis : x y z
#
# Youngs Moduli (GPa) = 61.33799 142.87373 124.17114
#
# Poissons Ratio (x) = -0.11446 0.27927
# Poissons Ratio (y) = -0.04914 0.26151
# Poissons Ratio (z) = 0.13795 0.30090
#
# Static dielectric constant tensor:
#      x y z
#    x 2.113090 0.000000 0.027990 
#    y 0.000000 1.936340 0.000000 
#    z 0.027990 0.000000 1.966510 
# 
# From -- ./inp_files/199092.got.cif
#   From: 2010.05.17/outbox.cif.g08.bks.cpg/sg15_100_cif.got.tgz:199092.got - 2010.06.03 18:47:42.
