data_PCOD9256808
_publ_section_title
;
Structure prediction by ZEFSAII (Michael W. Deem and Ramdas Pophale) SiO2 
 PCOD9256808
Probable space group: C 2/C
;
_chemical_formula_sum "Si O2"
_cell_formula_units_Z 52
_cell_length_a 9.379480
_cell_length_b 18.669290
_cell_length_c 24.915212
_cell_angle_alpha 90.000000
_cell_angle_beta 139.838591
_cell_angle_gamma 90.000000
_cell_volume 2813.795607
_symmetry_space_group_name_H-M "C 2/C"
_symmetry_group_IT_number 15
_symmetry_cell_setting 'monoclinic'
loop_
_space_group_symop_operation_xyz
x,y,z
-x,y,1/2-z
-x,-y,-z
x,-y,1/2+z
1/2+x,1/2+y,z
1/2-x,1/2+y,1/2-z
1/2-x,1/2-y,-z
1/2+x,1/2-y,1/2+z
loop_
_atom_site_type_symbol
_atom_site_label
_atom_site_fract_x
_atom_site_fract_y
_atom_site_fract_z
Si Si1 0.049978 0.617777 0.188026
Si Si2 0.857734 0.431947 0.900465
Si Si3 0.802930 0.965070 0.855079
Si Si4 0.000000 0.746983 0.250000
Si Si5 0.360257 0.860123 0.322563
Si Si6 0.500000 0.099862 0.750000
Si Si7 0.000000 0.974729 0.250000
Si Si8 0.815214 0.566273 0.505559
O O1 0.122576 0.615137 0.147406
O O2 0.222227 0.579208 0.278748
O O3 0.831829 0.569979 0.134398
O O4 0.999889 0.695193 0.198319
O O5 0.631146 0.476668 0.829416
O O6 0.050359 0.491523 0.954783
O O7 0.855711 0.398380 0.958610
O O8 0.704436 0.045134 0.821050
O O9 0.059763 0.953165 0.938218
O O10 0.781349 0.795437 0.193330
O O11 0.435459 0.853734 0.282957
O O12 0.571992 0.883304 0.418033
O O13 0.185317 0.926064 0.275557
#
# Coordination Sequence:
#
# PCOD9256808 Si02
#       8
#     8   8   8   4   8   4   4   8
#     4   9  19  36  55  71  97 147 184 199 241 316
#     4  10  18  29  51  82 109 134 167 203 262 324
#     4   9  17  32  53  79 109 130 160 216 270 313
#     4   9  21  42  54  64  99 147 188 218 242 293
#     4  10  20  34  53  76 105 139 176 216 261 305
#     4  10  19  32  54  80 101 136 180 210 260 330
#     4   9  16  32  54  78 110 139 166 208 260 323
#     4  10  19  30  50  85 115 127 152 219 280 307
#
# _framework density 18.480376
#
# number of rings (size 3 to 8) (size 9 to 14) (size 15 to 20)
#    0.000    2.769    0.000    5.538    0.000    3.692 
#    0.000    7.692    0.000    0.000    0.000    0.000 
#    0.000    0.000    0.000    0.000    0.000    0.000 
#
# Total GULP energy -144927.197845 kJ/mol
# GULP energy per Si atom -5574.122994 kJ/mol
# Density = 1.843831 g / cm^3
# Si number density = 18.480376 Si / 1000 Ang^3
#
#
#
# Elastic Constant Matrix: (Units=GPa)
#
#
# Indices 1 2 3 4 5 6 
#
# 1 94.1098 16.9457 41.2504 0.0001 -11.4160 0.0000
# 2 16.9457 46.3482 13.0332 0.0000 0.1094 0.0000
# 3 41.2504 13.0332 97.8289 0.0001 19.9588 0.0000
# 4 0.0001 0.0000 0.0001 4.3216 0.0001 -2.4285
# 5 -11.4160 0.1094 19.9588 0.0001 38.2527 0.0001
# 6 0.0000 0.0000 0.0000 -2.4285 0.0001 5.2360
#
#
#
# Elastic Compliance Matrix: (Units=1/GPa)
#
#
# Indices 1 2 3 4 5 6 
#
# 1 0.015880 -0.003564 -0.008047 -0.000001 0.008948 -0.000001
# 2 -0.003564 0.023312 -0.001536 0.000000 -0.000329 0.000000
# 3 -0.008047 -0.001536 0.016013 0.000000 -0.010752 0.000001
# 4 -0.000001 0.000000 0.000000 0.312965 -0.000002 0.145153
# 5 0.008948 -0.000329 -0.010752 -0.000002 0.034423 -0.000002
# 6 -0.000001 0.000000 0.000001 0.145153 -0.000002 0.258306
#
#
# Mechanical properties :
#
#
# Convention : Reuss Voigt Hill
#
# Bulk Modulus (GPa) = 34.58825 42.30504 38.44664
# Shear Modulus (GPa) = 7.17535 20.69924 13.93729
#
# Velocity S-wave (km/s) = 1.97259 3.35037 2.74919
# Velocity P-wave (km/s) = 4.89336 6.15696 5.56117
#
# Compressibility (1/GPa) = 0.02891156
#
# Stress axis : x y z
#
# Youngs Moduli (GPa) = 62.97171 42.89709 62.44914
#
# Poissons Ratio (x) = 0.15290 0.50251
# Poissons Ratio (y) = 0.22446 0.09589
# Poissons Ratio (z) = 0.50671 0.06587
#
# Static dielectric constant tensor:
#      x y z
#    x 1.678240 0.000000 -0.004270 
#    y 0.000000 1.636730 0.000000 
#    z -0.004270 0.000000 1.648030 
# 
# From -- ./inp_files/182937.got.cif
#   From: 2010.05.17/outbox.cif.g08.bks.cpg/sg15_92_cif.got.tgz:182937.got - 2010.06.03 18:47:42.
