data_PCOD9256399
_publ_section_title
;
Structure prediction by ZEFSAII (Michael W. Deem and Ramdas Pophale) SiO2 
 PCOD9256399
Probable space group: C 2/C
;
_chemical_formula_sum "Si O2"
_cell_formula_units_Z 32
_cell_length_a 13.369360
_cell_length_b 7.389436
_cell_length_c 26.481067
_cell_angle_alpha 90.000000
_cell_angle_beta 27.258257
_cell_angle_gamma 90.000000
_cell_volume 1198.187519
_symmetry_space_group_name_H-M "C 2/C"
_symmetry_group_IT_number 15
_symmetry_cell_setting 'monoclinic'
loop_
_space_group_symop_operation_xyz
x,y,z
-x,y,1/2-z
-x,-y,-z
x,-y,1/2+z
1/2+x,1/2+y,z
1/2-x,1/2+y,1/2-z
1/2-x,1/2-y,-z
1/2+x,1/2-y,1/2+z
loop_
_atom_site_type_symbol
_atom_site_label
_atom_site_fract_x
_atom_site_fract_y
_atom_site_fract_z
Si Si1 0.926457 0.382614 0.082091
Si Si2 0.073196 0.619651 0.104270
Si Si3 0.155218 0.170384 0.241068
Si Si4 0.762555 0.868904 0.093514
O O1 0.058746 0.452126 0.071655
O O2 0.693425 0.470764 0.200692
O O3 0.000526 0.180505 0.035178
O O4 0.000000 0.500000 0.000000
O O5 0.160232 0.552917 0.118684
O O6 0.820805 0.685371 0.213855
O O7 0.250000 0.750000 0.000000
O O8 0.247833 0.316628 0.158696
O O9 0.905262 0.220818 0.355769
#
# Coordination Sequence:
#
# PCOD9256399 Si02
#       4
#     8   8   8   8
#     4   8  17  36  56  83 113 155 193 235 297 354
#     4  10  21  34  57  87 112 155 205 240 299 368
#     4   8  20  34  56  88 118 156 200 240 302 362
#     4  10  17  37  63  78 126 161 189 254 303 347
#
# _framework density 26.707004999999999
#
# number of rings (size 3 to 8) (size 9 to 14) (size 15 to 20)
#    1.500    1.500    0.000    0.750    0.000    3.000 
#    0.000    0.000    5.500    0.000    0.000    0.000 
#    0.000    0.000    0.000    0.000    0.000    0.000 
#
# Total GULP energy -89157.813358 kJ/mol
# GULP energy per Si atom -5572.363335 kJ/mol
# Density = 2.664622 g / cm^3
# Si number density = 26.707005 Si / 1000 Ang^3
#
#
#
# Elastic Constant Matrix: (Units=GPa)
#
#
# Indices 1 2 3 4 5 6 
#
# 1 155.2573 37.0622 16.0121 -0.0001 -18.5575 0.0001
# 2 37.0622 42.6162 17.7533 -0.0001 2.1059 0.0004
# 3 16.0121 17.7533 64.9076 -0.0013 -22.3504 -0.0001
# 4 -0.0001 -0.0001 -0.0013 46.1344 -0.0002 -2.8684
# 5 -18.5575 2.1059 -22.3504 -0.0002 43.1956 0.0000
# 6 0.0001 0.0004 -0.0001 -2.8684 0.0000 40.7594
#
#
#
# Elastic Compliance Matrix: (Units=1/GPa)
#
#
# Indices 1 2 3 4 5 6 
#
# 1 0.009012 -0.008973 0.002087 0.000000 0.005389 0.000000
# 2 -0.008973 0.036822 -0.011929 0.000000 -0.011822 0.000000
# 3 0.002087 -0.011929 0.022710 0.000001 0.013229 0.000000
# 4 0.000000 0.000000 0.000001 0.021771 0.000001 0.001532
# 5 0.005389 -0.011822 0.013229 0.000001 0.032887 0.000000
# 6 0.000000 0.000000 0.000000 0.001532 0.000000 0.024642
#
#
# Mechanical properties :
#
#
# Convention : Reuss Voigt Hill
#
# Bulk Modulus (GPa) = 32.34830 44.93736 38.64283
# Shear Modulus (GPa) = 25.53908 38.81480 32.17694
#
# Velocity S-wave (km/s) = 3.09571 3.81643 3.47481
# Velocity P-wave (km/s) = 4.99164 6.02352 5.53169
#
# Compressibility (1/GPa) = 0.03091353
#
# Stress axis : x y z
#
# Youngs Moduli (GPa) = 110.96591 27.15740 44.03414
#
# Poissons Ratio (x) = 0.24368 -0.09189
# Poissons Ratio (y) = 0.99568 0.52528
# Poissons Ratio (z) = -0.23155 0.32396
#
# Static dielectric constant tensor:
#      x y z
#    x 2.116420 0.000000 -0.015140 
#    y 0.000000 2.193330 0.000000 
#    z -0.015140 0.000000 2.170150 
# 
# From -- ./inp_files/149807.got.cif
#   From: 2010.05.17/outbox.cif.g08.bks.cpg/sg15_75_cif.got.tgz:149807.got - 2010.06.03 18:47:42.
