data_PCOD9256744
_publ_section_title
;
Structure prediction by ZEFSAII (Michael W. Deem and Ramdas Pophale) SiO2 
 PCOD9256744
Probable space group: C 2/C
;
_chemical_formula_sum "Si O2"
_cell_formula_units_Z 48
_cell_length_a 21.106908
_cell_length_b 19.664911
_cell_length_c 5.323998
_cell_angle_alpha 90.000000
_cell_angle_beta 63.110234
_cell_angle_gamma 90.000000
_cell_volume 1970.879612
_symmetry_space_group_name_H-M "C 2/C"
_symmetry_group_IT_number 15
_symmetry_cell_setting 'monoclinic'
loop_
_space_group_symop_operation_xyz
x,y,z
-x,y,1/2-z
-x,-y,-z
x,-y,1/2+z
1/2+x,1/2+y,z
1/2-x,1/2+y,1/2-z
1/2-x,1/2-y,-z
1/2+x,1/2-y,1/2+z
loop_
_atom_site_type_symbol
_atom_site_label
_atom_site_fract_x
_atom_site_fract_y
_atom_site_fract_z
Si Si1 0.000000 0.453104 0.750000
Si Si2 0.500000 0.354197 0.750000
Si Si3 0.667743 0.244668 0.720558
Si Si4 0.854475 0.454889 0.863839
Si Si5 0.378502 0.740377 0.683712
Si Si6 0.375968 0.597017 0.179995
Si Si7 0.698238 0.599937 0.689637
O O1 0.000000 0.500000 0.500000
O O2 0.074010 0.415716 0.674131
O O3 0.550206 0.304726 0.489495
O O4 0.544477 0.402772 0.856866
O O5 0.750000 0.250000 0.500000
O O6 0.629899 0.213159 0.546590
O O7 0.638254 0.321674 0.796000
O O8 0.640870 0.218925 0.033980
O O9 0.854920 0.485865 0.580151
O O10 0.779921 0.416491 0.012445
O O11 0.317607 0.680974 0.782006
O O12 0.351139 0.573706 0.951586
O O13 0.326644 0.572306 0.496206
#
# Coordination Sequence:
#
# PCOD9256744 Si02
#       7
#     4   4   8   8   8   8   8
#     4   8  16  28  42  66  90 109 138 176 224 259
#     4   8  16  30  44  68  92 113 156 198 234 263
#     4   9  16  27  41  64  89 114 145 179 225 273
#     4  10  18  29  47  67  91 117 144 184 224 268
#     4   9  18  27  45  66  88 117 148 190 228 267
#     4   9  18  28  46  67  89 117 148 190 228 267
#     4   9  17  29  41  67  91 113 149 183 226 270
#
# _framework density 24.354607999999999
#
# number of rings (size 3 to 8) (size 9 to 14) (size 15 to 20)
#    0.000    3.333    0.000    1.500    0.000   10.667 
#    0.000    0.000    0.000    0.000    0.000  117.833 
#    0.000    5.333    0.000    0.000    0.000    0.000 
#
# Total GULP energy -133627.864495 kJ/mol
# GULP energy per Si atom -5567.827687 kJ/mol
# Density = 2.429918 g / cm^3
# Si number density = 24.354608 Si / 1000 Ang^3
#
#
#
# Elastic Constant Matrix: (Units=GPa)
#
#
# Indices 1 2 3 4 5 6 
#
# 1 137.7179 9.0603 35.2603 0.0000 -6.4190 0.0000
# 2 9.0603 47.7417 -1.9623 0.0000 -2.4247 0.0000
# 3 35.2603 -1.9623 140.1466 0.0000 31.9306 0.0000
# 4 0.0000 0.0000 0.0000 -5.6514 0.0000 -40.1487
# 5 -6.4190 -2.4247 31.9306 0.0000 66.2135 0.0000
# 6 0.0000 0.0000 0.0000 -40.1487 0.0000 -60.2392
#
#
#
# Elastic Compliance Matrix: (Units=1/GPa)
#
#
# Indices 1 2 3 4 5 6 
#
# 1 0.008092 -0.001540 -0.002498 0.000000 0.001933 0.000000
# 2 -0.001540 0.021280 0.000609 0.000000 0.000336 0.000000
# 3 -0.002498 0.000609 0.008788 0.000000 -0.004458 0.000000
# 4 0.000000 0.000000 0.000000 0.047377 0.000000 -0.031576
# 5 0.001933 0.000336 -0.004458 0.000000 0.017452 0.000000
# 6 0.000000 0.000000 0.000000 -0.031576 0.000000 0.004445
#
#
# Mechanical properties :
#
#
# Convention : Reuss Voigt Hill
#
# Bulk Modulus (GPa) = 31.94665 45.59141 38.76903
# Shear Modulus (GPa) = 40.08747 18.94776 29.51762
#
# Velocity S-wave (km/s) = 4.06148 2.79228 3.48515
# Velocity P-wave (km/s) = 5.92790 5.39965 5.66993
#
# Compressibility (1/GPa) = 0.03130219
#
# Stress axis : x y z
#
# Youngs Moduli (GPa) = 123.57645 46.99144 113.79156
#
# Poissons Ratio (x) = 0.07238 0.28423
# Poissons Ratio (y) = 0.19034 -0.06928
# Poissons Ratio (z) = 0.30867 -0.02861
#
# Static dielectric constant tensor:
#      x y z
#    x 1.778020 0.000000 -0.077590 
#    y 0.000000 2.017510 0.000000 
#    z -0.077590 0.000000 2.010410 
# 
# From -- ./inp_files/16334.got.cif
#   From: 2010.05.17/outbox.cif.g08.bks.cpg/sg15_9_cif.got.tgz:16334.got - 2010.06.03 18:47:42.
