data_PCOD9256960
_publ_section_title
;
Structure prediction by ZEFSAII (Michael W. Deem and Ramdas Pophale) SiO2 
 PCOD9256960
Probable space group: C 2/C
;
_chemical_formula_sum "Si O2"
_cell_formula_units_Z 64
_cell_length_a 26.612679
_cell_length_b 14.452637
_cell_length_c 18.738642
_cell_angle_alpha 90.000000
_cell_angle_beta 155.672106
_cell_angle_gamma 90.000000
_cell_volume 2969.113270
_symmetry_space_group_name_H-M "C 2/C"
_symmetry_group_IT_number 15
_symmetry_cell_setting 'monoclinic'
loop_
_space_group_symop_operation_xyz
x,y,z
-x,y,1/2-z
-x,-y,-z
x,-y,1/2+z
1/2+x,1/2+y,z
1/2-x,1/2+y,1/2-z
1/2-x,1/2-y,-z
1/2+x,1/2-y,1/2+z
loop_
_atom_site_type_symbol
_atom_site_label
_atom_site_fract_x
_atom_site_fract_y
_atom_site_fract_z
Si Si1 0.139436 0.231795 0.423458
Si Si2 0.061447 0.089387 0.705996
Si Si3 0.205183 0.877507 0.139767
Si Si4 0.580800 0.380453 0.720335
Si Si5 0.705120 0.883535 0.091438
Si Si6 0.334678 0.283808 0.045162
Si Si7 0.302758 0.903196 0.913930
Si Si8 0.719783 0.404876 0.657083
O O1 0.221760 0.178292 0.588115
O O2 0.153650 0.197337 0.360239
O O3 0.131924 0.334819 0.446356
O O4 0.000000 0.193191 0.250000
O O5 0.161483 0.113079 0.774921
O O6 0.076280 0.153072 0.793772
O O7 0.922110 0.101755 0.502947
O O8 0.084821 0.983063 0.759976
O O9 0.280423 0.852707 0.307801
O O10 0.233200 0.985273 0.161806
O O11 0.062115 0.862423 0.975240
O O12 0.660913 0.394677 0.753579
O O13 0.660260 0.989557 0.030964
O O14 0.627766 0.808362 0.948683
O O15 0.250000 0.250000 0.000000
O O16 0.267231 0.345993 0.897905
O O17 0.306038 0.876411 0.834805
#
# Coordination Sequence:
#
# PCOD9256960 Si02
#       8
#     8   8   8   8   8   8   8   8
#     4  10  19  30  45  66  94 125 156 190 230 282
#     4   9  17  30  49  72  94 117 152 201 250 286
#     4   9  17  30  49  72  95 119 153 201 247 283
#     4   9  17  30  49  72  94 117 152 202 252 285
#     4   9  18  31  46  68  97 126 156 191 235 284
#     4  10  19  30  45  68 100 130 154 187 235 291
#     4  10  19  31  48  68  93 126 160 195 236 287
#     4  10  18  30  50  72  92 118 157 203 247 285
#
# _framework density 21.555257000000001
#
# number of rings (size 3 to 8) (size 9 to 14) (size 15 to 20)
#    0.000    2.500    0.000    3.000    0.000    5.000 
#    0.000    1.250    0.000    0.000    0.000    0.000 
#    0.000   39.000    0.000    0.000    0.000    0.000 
#
# Total GULP energy -178235.961664 kJ/mol
# GULP energy per Si atom -5569.873802 kJ/mol
# Density = 2.150620 g / cm^3
# Si number density = 21.555257 Si / 1000 Ang^3
#
#
#
# Elastic Constant Matrix: (Units=GPa)
#
#
# Indices 1 2 3 4 5 6 
#
# 1 49.5091 25.7498 23.8302 0.0000 -32.0256 0.0000
# 2 25.7498 102.5039 60.6641 0.0000 -36.5309 0.0000
# 3 23.8302 60.6641 82.0199 0.0000 -39.4672 0.0000
# 4 0.0000 0.0000 0.0000 35.3287 0.0000 -4.2783
# 5 -32.0256 -36.5309 -39.4672 0.0000 37.0641 0.0000
# 6 0.0000 0.0000 0.0000 -4.2783 0.0000 41.9307
#
#
#
# Elastic Compliance Matrix: (Units=1/GPa)
#
#
# Indices 1 2 3 4 5 6 
#
# 1 0.052089 0.000215 0.013262 0.000000 0.059341 0.000000
# 2 0.000215 0.018298 -0.009903 0.000000 0.007675 0.000000
# 3 0.013262 -0.009903 0.033799 0.000000 0.037689 0.000000
# 4 0.000000 0.000000 0.000000 0.028660 0.000000 0.002924
# 5 0.059341 0.007675 0.037689 0.000000 0.125952 0.000000
# 6 0.000000 0.000000 0.000000 0.002924 0.000000 0.024147
#
#
# Mechanical properties :
#
#
# Convention : Reuss Voigt Hill
#
# Bulk Modulus (GPa) = 8.98204 50.50232 29.74218
# Shear Modulus (GPa) = 15.97910 31.11729 23.54819
#
# Velocity S-wave (km/s) = 2.72565 3.80360 3.30882
# Velocity P-wave (km/s) = 3.75255 6.53987 5.33158
#
# Compressibility (1/GPa) = 0.11133324
#
# Stress axis : x y z
#
# Youngs Moduli (GPa) = 19.19790 54.65151 29.58670
#
# Poissons Ratio (x) = -0.01173 -0.39237
# Poissons Ratio (y) = -0.00412 0.29298
# Poissons Ratio (z) = -0.25460 0.54119
#
# Static dielectric constant tensor:
#      x y z
#    x 1.903070 0.000000 0.032600 
#    y 0.000000 1.813900 0.000000 
#    z 0.032600 0.000000 1.768760 
# 
# From -- ./inp_files/214845.got.cif
#   From: 2010.05.17/outbox.cif.g08.bks.cpg/sg15_108_cif.got.tgz:214845.got - 2010.06.03 18:47:42.
