data_PCOD9256634
_publ_section_title
;
Structure prediction by ZEFSAII (Michael W. Deem and Ramdas Pophale) SiO2 
 PCOD9256634
Probable space group: C 2/C
;
_chemical_formula_sum "Si O2"
_cell_formula_units_Z 48
_cell_length_a 17.174473
_cell_length_b 8.206807
_cell_length_c 18.415351
_cell_angle_alpha 90.000000
_cell_angle_beta 64.534988
_cell_angle_gamma 90.000000
_cell_volume 2343.431622
_symmetry_space_group_name_H-M "C 2/C"
_symmetry_group_IT_number 15
_symmetry_cell_setting 'monoclinic'
loop_
_space_group_symop_operation_xyz
x,y,z
-x,y,1/2-z
-x,-y,-z
x,-y,1/2+z
1/2+x,1/2+y,z
1/2-x,1/2+y,1/2-z
1/2-x,1/2-y,-z
1/2+x,1/2-y,1/2+z
loop_
_atom_site_type_symbol
_atom_site_label
_atom_site_fract_x
_atom_site_fract_y
_atom_site_fract_z
Si Si1 0.206160 0.148396 0.418945
Si Si2 0.708805 0.512712 0.574650
Si Si3 0.443827 0.177124 0.607137
Si Si4 0.614542 0.142337 0.448715
Si Si5 0.360262 0.360419 0.762705
Si Si6 0.203757 0.117010 0.818007
O O1 0.265816 0.306315 0.406634
O O2 0.186810 0.051569 0.500708
O O3 0.117484 0.209380 0.418243
O O4 0.249578 0.024251 0.345947
O O5 0.798311 0.413327 0.545961
O O6 0.642261 0.411054 0.651534
O O7 0.539123 0.166161 0.536708
O O8 0.433050 0.254966 0.691794
O O9 0.406778 0.996441 0.603505
O O10 0.631800 0.305608 0.398124
O O11 0.274819 0.254338 0.777985
O O12 0.341906 0.532693 0.731030
#
# Coordination Sequence:
#
# PCOD9256634 Si02
#       6
#     8   8   8   8   8   8
#     4   9  18  31  51  72 100 133 171 208 259 318
#     4   9  18  33  50  74 100 133 172 215 259 310
#     4   9  18  33  50  74 100 133 172 215 259 310
#     4   9  18  31  51  72 100 133 171 208 259 318
#     4  10  18  28  48  75  98 123 166 214 258 302
#     4  10  18  30  50  73  98 128 164 211 258 306
#
# _framework density 20.482783000000001
#
# number of rings (size 3 to 8) (size 9 to 14) (size 15 to 20)
#    0.000    2.667    0.000    4.000    0.000    5.333 
#    0.000    0.000    0.000    9.000    0.000   28.000 
#    0.000    0.000    0.000    0.000    0.000    0.000 
#
# Total GULP energy -133712.709665 kJ/mol
# GULP energy per Si atom -5571.362903 kJ/mol
# Density = 2.043616 g / cm^3
# Si number density = 20.482783 Si / 1000 Ang^3
#
#
#
# Elastic Constant Matrix: (Units=GPa)
#
#
# Indices 1 2 3 4 5 6 
#
# 1 20.3047 13.3175 20.9513 0.0000 -1.6859 0.0000
# 2 13.3175 74.2470 42.2287 0.0000 -2.6782 0.0001
# 3 20.9513 42.2287 111.5323 0.0000 -0.2829 0.0000
# 4 0.0000 0.0000 0.0000 51.6295 0.0000 0.5557
# 5 -1.6859 -2.6782 -0.2829 0.0000 19.2210 0.0000
# 6 0.0000 0.0001 0.0000 0.5557 0.0000 7.1621
#
#
#
# Elastic Compliance Matrix: (Units=1/GPa)
#
#
# Indices 1 2 3 4 5 6 
#
# 1 0.063414 -0.005657 -0.009759 0.000000 0.004630 0.000000
# 2 -0.005657 0.017772 -0.005661 0.000000 0.001897 0.000000
# 3 -0.009759 -0.005661 0.012939 0.000000 -0.001454 0.000000
# 4 0.000000 0.000000 0.000000 0.019385 0.000000 -0.001504
# 5 0.004630 0.001897 -0.001454 0.000000 0.052675 0.000000
# 6 0.000000 0.000000 0.000000 -0.001504 0.000000 0.139741
#
#
# Mechanical properties :
#
#
# Convention : Reuss Voigt Hill
#
# Bulk Modulus (GPa) = 19.24170 39.89768 29.56969
# Shear Modulus (GPa) = 13.68354 24.24162 18.96258
#
# Velocity S-wave (km/s) = 2.58747 3.44395 3.04597
# Velocity P-wave (km/s) = 4.28266 5.94435 5.18056
#
# Compressibility (1/GPa) = 0.05197047
#
# Stress axis : x y z
#
# Youngs Moduli (GPa) = 15.76944 56.26978 77.28593
#
# Poissons Ratio (x) = 0.31832 0.75421
# Poissons Ratio (y) = 0.08921 0.43753
# Poissons Ratio (z) = 0.15389 0.31856
#
# Static dielectric constant tensor:
#      x y z
#    x 1.728590 0.000000 0.018020 
#    y 0.000000 1.768660 0.000000 
#    z 0.018020 0.000000 1.794360 
# 
# From -- ./inp_files/213287.got.cif
#   From: 2010.05.17/outbox.cif.g08.bks.cpg/sg15_107_cif.got.tgz:213287.got - 2010.06.03 18:47:42.
