data_PCOD9256757
_publ_section_title
;
Structure prediction by ZEFSAII (Michael W. Deem and Ramdas Pophale) SiO2 
 PCOD9256757
Probable space group: C 2/C
;
_chemical_formula_sum "Si O2"
_cell_formula_units_Z 48
_cell_length_a 6.061226
_cell_length_b 23.158726
_cell_length_c 15.589908
_cell_angle_alpha 90.000000
_cell_angle_beta 49.609171
_cell_angle_gamma 90.000000
_cell_volume 1666.746689
_symmetry_space_group_name_H-M "C 2/C"
_symmetry_group_IT_number 15
_symmetry_cell_setting 'monoclinic'
loop_
_space_group_symop_operation_xyz
x,y,z
-x,y,1/2-z
-x,-y,-z
x,-y,1/2+z
1/2+x,1/2+y,z
1/2-x,1/2+y,1/2-z
1/2-x,1/2-y,-z
1/2+x,1/2-y,1/2+z
loop_
_atom_site_type_symbol
_atom_site_label
_atom_site_fract_x
_atom_site_fract_y
_atom_site_fract_z
Si Si1 0.919213 0.172633 0.087632
Si Si2 0.624236 0.150088 0.015880
Si Si3 0.820147 0.891910 0.207554
Si Si4 0.176194 0.465349 0.882729
Si Si5 0.519114 0.788558 0.367432
Si Si6 0.832384 0.964453 0.617851
O O1 0.953190 0.220548 0.151720
O O2 0.877479 0.104888 0.112368
O O3 0.191267 0.188526 0.957202
O O4 0.640178 0.184643 0.099447
O O5 0.611216 0.192754 0.940234
O O6 0.916141 0.111569 0.925419
O O7 0.372848 0.102921 0.084598
O O8 0.500000 0.915999 0.250000
O O9 0.715017 0.827789 0.258866
O O10 0.000000 0.911108 0.250000
O O11 0.991658 0.471697 0.840318
O O12 0.499049 0.481301 0.835808
O O13 0.000000 0.500000 0.000000
O O14 0.000000 0.000000 0.500000
#
# Coordination Sequence:
#
# PCOD9256757 Si02
#       6
#     8   8   8   8   8   8
#     4  10  18  29  48  71 103 135 165 213 266 303
#     4  10  18  31  49  67 106 136 172 212 259 311
#     4  10  20  33  47  67 101 138 174 204 248 310
#     4   9  17  28  46  70  97 126 162 208 255 302
#     4  10  19  30  45  72 105 135 166 213 259 317
#     4   9  17  30  45  68 100 127 162 205 253 302
#
# _framework density 28.798617
#
# number of rings (size 3 to 8) (size 9 to 14) (size 15 to 20)
#    0.000    2.333    3.333    0.500    0.000    0.000 
#    0.000    0.000    0.000    0.000    0.000    0.000 
#   45.000   24.000    0.000    0.000    0.000    0.000 
#
# Total GULP energy -133677.678744 kJ/mol
# GULP energy per Si atom -5569.903281 kJ/mol
# Density = 2.873307 g / cm^3
# Si number density = 28.798617 Si / 1000 Ang^3
#
#
#
# Elastic Constant Matrix: (Units=GPa)
#
#
# Indices 1 2 3 4 5 6 
#
# 1 316.7464 46.5258 85.5346 0.0000 0.2613 0.0000
# 2 46.5258 194.6233 26.1983 0.0000 6.0172 0.0000
# 3 85.5346 26.1983 41.1671 0.0000 -19.0929 0.0000
# 4 0.0000 0.0000 0.0000 -54.1052 0.0000 49.3132
# 5 0.2613 6.0172 -19.0929 0.0000 83.9396 0.0000
# 6 0.0000 0.0000 0.0000 49.3132 0.0000 9.5756
#
#
#
# Elastic Compliance Matrix: (Units=1/GPa)
#
#
# Indices 1 2 3 4 5 6 
#
# 1 0.008620 0.000873 -0.020689 0.000000 -0.004795 0.000000
# 2 0.000873 0.005850 -0.006408 0.000000 -0.001880 0.000000
# 3 -0.020689 -0.006408 0.080042 0.000000 0.018730 0.000000
# 4 0.000000 0.000000 0.000000 -0.003246 0.000000 0.016717
# 5 -0.004795 -0.001880 0.018730 0.000000 0.016323 0.000000
# 6 0.000000 0.000000 0.000000 0.016717 0.000000 0.018341
#
#
# Mechanical properties :
#
#
# Convention : Reuss Voigt Hill
#
# Bulk Modulus (GPa) = 23.77333 96.56155 60.16744
# Shear Modulus (GPa) = 25.98747 34.16720 30.07733
#
# Velocity S-wave (km/s) = 3.00723 3.44818 3.23523
# Velocity P-wave (km/s) = 4.50898 7.03249 5.90707
#
# Compressibility (1/GPa) = 0.04206395
#
# Stress axis : x y z
#
# Youngs Moduli (GPa) = 116.01268 170.93453 12.49341
#
# Poissons Ratio (x) = -0.14916 0.25848
# Poissons Ratio (y) = -0.10123 0.08005
# Poissons Ratio (z) = 2.40018 1.09531
#
# Static dielectric constant tensor:
#      x y z
#    x 2.372160 0.000000 -0.003120 
#    y 0.000000 2.155410 0.000000 
#    z -0.003120 0.000000 2.375160 
# 
# From -- ./inp_files/227690.got.cif
#   From: 2010.05.17/outbox.cif.g08.bks.cpg/sg15_114_cif.got.tgz:227690.got - 2010.06.03 18:47:42.
