data_PCOD9256250
_publ_section_title
;
Structure prediction by ZEFSAII (Michael W. Deem and Ramdas Pophale) SiO2 
 PCOD9256250
Probable space group: C 2/C
;
_chemical_formula_sum "Si O2"
_cell_formula_units_Z 64
_cell_length_a 29.507052
_cell_length_b 19.510099
_cell_length_c 15.609721
_cell_angle_alpha 90.000000
_cell_angle_beta 159.924124
_cell_angle_gamma 90.000000
_cell_volume 3084.672275
_symmetry_space_group_name_H-M "C 2/C"
_symmetry_group_IT_number 15
_symmetry_cell_setting 'monoclinic'
loop_
_space_group_symop_operation_xyz
x,y,z
-x,y,1/2-z
-x,-y,-z
x,-y,1/2+z
1/2+x,1/2+y,z
1/2-x,1/2+y,1/2-z
1/2-x,1/2-y,-z
1/2+x,1/2-y,1/2+z
loop_
_atom_site_type_symbol
_atom_site_label
_atom_site_fract_x
_atom_site_fract_y
_atom_site_fract_z
Si Si1 0.651834 0.667089 0.118626
Si Si2 0.000417 0.825863 0.627152
Si Si3 0.354733 0.387098 0.066617
Si Si4 0.724488 0.693096 0.638406
Si Si5 0.289226 0.320523 0.115597
Si Si6 0.305488 0.463363 0.707692
Si Si7 0.922822 0.021292 0.239484
Si Si8 0.656088 0.907099 0.024001
O O1 0.671912 0.745906 0.174457
O O2 0.718617 0.613515 0.302133
O O3 0.710499 0.650463 0.128722
O O4 0.497704 0.648019 0.834984
O O5 0.893019 0.794152 0.500994
O O6 0.935440 0.818046 0.418538
O O7 0.147692 0.803128 0.911755
O O8 0.013980 0.906720 0.672927
O O9 0.284671 0.376553 0.032459
O O10 0.369194 0.468132 0.074240
O O11 0.787304 0.621902 0.784631
O O12 0.250000 0.250000 0.000000
O O13 0.197001 0.347468 0.028507
O O14 0.314028 0.466083 0.620038
O O15 0.219477 0.522575 0.600198
O O16 0.455378 0.479941 0.002949
O O17 0.500000 0.913806 0.750000
#
# Coordination Sequence:
#
# PCOD9256250 Si02
#       8
#     8   8   8   8   8   8   8   8
#     4  10  22  34  58  92 125 161 201 256 311 368
#     4  10  20  37  63  87 120 158 205 260 311 360
#     4  10  20  34  62  93 121 152 207 266 311 353
#     4  10  22  37  57  88 126 161 207 251 306 373
#     4  11  21  38  63  91 122 163 204 255 314 370
#     4  10  19  38  60  88 118 159 204 258 315 362
#     4  10  17  35  63  92 116 146 206 278 313 353
#     4  11  23  40  63  88 125 169 206 248 309 385
#
# _framework density 20.747748000000001
#
# number of rings (size 3 to 8) (size 9 to 14) (size 15 to 20)
#    0.000    1.750    3.750    3.000    5.250    1.000 
#    2.250    2.500    0.000    1.500    0.000    0.000 
#    0.000    0.000    0.000    0.000    0.000    0.000 
#
# Total GULP energy -178344.468624 kJ/mol
# GULP energy per Si atom -5573.264645 kJ/mol
# Density = 2.070053 g / cm^3
# Si number density = 20.747748 Si / 1000 Ang^3
#
#
#
# Elastic Constant Matrix: (Units=GPa)
#
#
# Indices 1 2 3 4 5 6 
#
# 1 58.1425 3.5777 14.2252 0.0000 3.3062 0.0000
# 2 3.5777 94.7103 13.7453 0.0000 5.7117 0.0000
# 3 14.2252 13.7453 60.8426 0.0000 2.6168 0.0000
# 4 0.0000 0.0000 0.0000 16.9374 0.0000 0.8764
# 5 3.3062 5.7117 2.6168 0.0000 16.0691 0.0000
# 6 0.0000 0.0000 0.0000 0.8764 0.0000 25.3890
#
#
#
# Elastic Compliance Matrix: (Units=1/GPa)
#
#
# Indices 1 2 3 4 5 6 
#
# 1 0.018396 0.000102 -0.004189 0.000000 -0.003139 0.000000
# 2 0.000102 0.011116 -0.002381 0.000000 -0.003585 0.000000
# 3 -0.004189 -0.002381 0.018006 0.000000 -0.001224 0.000000
# 4 0.000000 0.000000 0.000000 0.059146 0.000000 -0.002042
# 5 -0.003139 -0.003585 -0.001224 0.000000 0.064351 0.000000
# 6 0.000000 0.000000 0.000000 -0.002042 0.000000 0.039458
#
#
# Mechanical properties :
#
#
# Convention : Reuss Voigt Hill
#
# Bulk Modulus (GPa) = 28.91630 30.75466 29.83548
# Shear Modulus (GPa) = 21.28232 23.82225 22.55228
#
# Velocity S-wave (km/s) = 3.20623 3.39216 3.30051
# Velocity P-wave (km/s) = 5.26060 5.49524 5.37920
#
# Compressibility (1/GPa) = 0.03458257
#
# Stress axis : x y z
#
# Youngs Moduli (GPa) = 54.35887 89.95725 55.53734
#
# Poissons Ratio (x) = -0.00921 0.23266
# Poissons Ratio (y) = -0.00556 0.13224
# Poissons Ratio (z) = 0.22772 0.21420
#
# Static dielectric constant tensor:
#      x y z
#    x 1.854600 0.000000 0.002380 
#    y 0.000000 1.780220 0.000000 
#    z 0.002380 0.000000 1.740330 
# 
# From -- ./inp_files/259532.got.cif
#   From: 2010.05.17/outbox.cif.g08.bks.cpg/sg15_130_cif.got.tgz:259532.got - 2010.06.03 18:47:42.
