data_PCOD9256398
_publ_section_title
;
Structure prediction by ZEFSAII (Michael W. Deem and Ramdas Pophale) SiO2 
 PCOD9256398
Probable space group: C 2/C
;
_chemical_formula_sum "Si O2"
_cell_formula_units_Z 40
_cell_length_a 7.463363
_cell_length_b 25.857391
_cell_length_c 7.585338
_cell_angle_alpha 90.000000
_cell_angle_beta 83.379436
_cell_angle_gamma 90.000000
_cell_volume 1454.080302
_symmetry_space_group_name_H-M "C 2/C"
_symmetry_group_IT_number 15
_symmetry_cell_setting 'monoclinic'
loop_
_space_group_symop_operation_xyz
x,y,z
-x,y,1/2-z
-x,-y,-z
x,-y,1/2+z
1/2+x,1/2+y,z
1/2-x,1/2+y,1/2-z
1/2-x,1/2-y,-z
1/2+x,1/2-y,1/2+z
loop_
_atom_site_type_symbol
_atom_site_label
_atom_site_fract_x
_atom_site_fract_y
_atom_site_fract_z
Si Si1 0.041080 0.666935 0.458905
Si Si2 0.664102 0.377408 0.097092
Si Si3 0.694281 0.982834 0.552301
Si Si4 0.188090 0.076560 0.126115
Si Si5 0.448632 0.726084 0.961579
O O1 0.206056 0.627094 0.451748
O O2 0.000000 0.667506 0.250000
O O3 0.867539 0.645982 0.586157
O O4 0.070047 0.726226 0.517637
O O5 0.500000 0.379011 0.250000
O O6 0.686048 0.534511 0.970951
O O7 0.579538 0.332955 0.971643
O O8 0.715252 0.436769 0.065941
O O9 0.696008 0.953790 0.738850
O O10 0.500000 0.000000 0.500000
O O11 0.000000 0.083006 0.250000
O O12 0.500000 0.721737 0.750000
O O13 0.250000 0.750000 0.000000
#
# Coordination Sequence:
#
# PCOD9256398 Si02
#       5
#     8   8   8   8   8
#     4  10  17  37  62  92 129 173 230 283 343 408
#     4  10  19  34  60  98 128 167 229 289 349 405
#     4  12  23  43  68  97 139 181 235 293 349 413
#     4  12  25  41  66  99 141 189 235 282 349 427
#     4   8  16  28  55  93 122 160 220 281 339 401
#
# _framework density 27.508796
#
# number of rings (size 3 to 8) (size 9 to 14) (size 15 to 20)
#    0.000    1.600    4.000    1.800    0.000    0.000 
#    0.000    0.000    0.000    1.200    0.000    2.800 
#    0.000    6.400    0.000    0.000    0.000    1.000 
#
# Total GULP energy -111472.186760 kJ/mol
# GULP energy per Si atom -5573.609338 kJ/mol
# Density = 2.744618 g / cm^3
# Si number density = 27.508796 Si / 1000 Ang^3
#
#
#
# Elastic Constant Matrix: (Units=GPa)
#
#
# Indices 1 2 3 4 5 6 
#
# 1 186.4687 104.6533 65.1869 0.0000 -49.0537 0.0000
# 2 104.6533 261.1482 21.7160 0.0000 -30.9693 0.0000
# 3 65.1869 21.7160 100.6255 0.0000 -45.7996 0.0000
# 4 0.0000 0.0000 0.0000 253.6981 0.0000 235.4890
# 5 -49.0537 -30.9693 -45.7996 0.0000 57.5387 0.0000
# 6 0.0000 0.0000 0.0000 235.4890 0.0000 320.1392
#
#
#
# Elastic Compliance Matrix: (Units=1/GPa)
#
#
# Indices 1 2 3 4 5 6 
#
# 1 0.009245 -0.003006 -0.003904 0.000000 0.003157 0.000000
# 2 -0.003006 0.005070 0.001456 0.000000 0.001325 0.000000
# 3 -0.003904 0.001456 0.017240 0.000000 0.011179 0.000000
# 4 0.000000 0.000000 0.000000 0.012426 0.000000 -0.009140
# 5 0.003157 0.001325 0.011179 0.000000 0.029682 0.000000
# 6 0.000000 0.000000 0.000000 -0.009140 0.000000 0.009847
#
#
# Mechanical properties :
#
#
# Convention : Reuss Voigt Hill
#
# Bulk Modulus (GPa) = 48.42843 103.48388 75.95615
# Shear Modulus (GPa) = 49.35849 150.05429 99.70639
#
# Velocity S-wave (km/s) = 4.24049 7.39366 6.02694
# Velocity P-wave (km/s) = 6.45125 10.51610 8.72373
#
# Compressibility (1/GPa) = 0.02064903
#
# Stress axis : x y z
#
# Youngs Moduli (GPa) = 108.16826 197.24255 58.00324
#
# Poissons Ratio (x) = 0.59289 0.22642
# Poissons Ratio (y) = 0.32514 -0.08448
# Poissons Ratio (z) = 0.42224 -0.28726
#
# Static dielectric constant tensor:
#      x y z
#    x 1.407170 0.000000 0.957340 
#    y 0.000000 2.286330 0.000000 
#    z 0.957340 0.000000 1.519490 
# 
# From -- ./inp_files/77640.got.cif
#   From: 2010.05.17/outbox.cif.g08.bks.cpg/sg15_39_cif.got.tgz:77640.got - 2010.06.03 18:47:42.
