data_PCOD9256128
_publ_section_title
;
Structure prediction by ZEFSAII (Michael W. Deem and Ramdas Pophale) SiO2 
 PCOD9256128
Probable space group: C 2/C
;
_chemical_formula_sum "Si O2"
_cell_formula_units_Z 64
_cell_length_a 25.125569
_cell_length_b 18.716165
_cell_length_c 20.334360
_cell_angle_alpha 90.000000
_cell_angle_beta 22.366578
_cell_angle_gamma 90.000000
_cell_volume 3638.759257
_symmetry_space_group_name_H-M "C 2/C"
_symmetry_group_IT_number 15
_symmetry_cell_setting 'monoclinic'
loop_
_space_group_symop_operation_xyz
x,y,z
-x,y,1/2-z
-x,-y,-z
x,-y,1/2+z
1/2+x,1/2+y,z
1/2-x,1/2+y,1/2-z
1/2-x,1/2-y,-z
1/2+x,1/2-y,1/2+z
loop_
_atom_site_type_symbol
_atom_site_label
_atom_site_fract_x
_atom_site_fract_y
_atom_site_fract_z
Si Si1 0.936671 0.524225 0.251984
Si Si2 0.971202 0.675249 0.403876
Si Si3 0.368860 0.471896 0.442938
Si Si4 0.655127 0.363480 0.294892
Si Si5 0.035768 0.421950 0.023108
Si Si6 0.865239 0.292578 0.648143
Si Si7 0.072873 0.831059 0.050707
Si Si8 0.245362 0.471318 0.215555
O O1 0.955659 0.607702 0.212505
O O2 0.771923 0.511888 0.435760
O O3 0.000000 0.509924 0.250000
O O4 0.012397 0.473267 0.112082
O O5 0.036915 0.685465 0.401540
O O6 0.809079 0.652920 0.590842
O O7 0.982639 0.754419 0.360161
O O8 0.500000 0.494763 0.250000
O O9 0.385076 0.387934 0.442350
O O10 0.343858 0.508679 0.542307
O O11 0.620105 0.292167 0.376877
O O12 0.543532 0.366128 0.363768
O O13 0.671152 0.432653 0.321948
O O14 0.883893 0.422294 0.161563
O O15 0.088062 0.340802 0.966520
O O16 0.156510 0.460088 0.841512
O O17 0.708270 0.310969 0.851674
#
# Coordination Sequence:
#
# PCOD9256128 Si02
#       8
#     8   8   8   8   8   8   8   8
#     4  11  23  38  56  77 103 147 192 221 256 318
#     4  10  18  35  56  78 109 142 186 217 254 326
#     4  11  24  39  52  75 115 147 176 223 274 314
#     4  10  20  30  57  88 110 134 176 226 268 320
#     4  10  17  34  61  78 100 142 187 224 258 313
#     4  10  17  35  56  83 110 136 177 225 273 314
#     4  10  21  33  51  83 115 142 170 221 274 316
#     4  10  18  35  58  80 103 144 182 219 267 317
#
# _framework density 17.588412000000002
#
# number of rings (size 3 to 8) (size 9 to 14) (size 15 to 20)
#    0.000    1.750    5.000    0.750    1.750    1.000 
#    2.250    1.250    0.000    0.750    0.000    3.500 
#    0.000    0.000    0.000    0.000    0.000    0.000 
#
# Total GULP energy -178384.525398 kJ/mol
# GULP energy per Si atom -5574.516419 kJ/mol
# Density = 1.754838 g / cm^3
# Si number density = 17.588412 Si / 1000 Ang^3
#
#
#
# Elastic Constant Matrix: (Units=GPa)
#
#
# Indices 1 2 3 4 5 6 
#
# 1 60.6856 -7.0760 21.7439 -0.0006 -13.6359 -0.0003
# 2 -7.0760 24.9964 16.3611 -0.0010 0.5470 -0.0006
# 3 21.7439 16.3611 85.8997 0.0003 0.1286 0.0008
# 4 -0.0006 -0.0010 0.0003 12.5278 0.0000 -5.4756
# 5 -13.6359 0.5470 0.1286 0.0000 21.0385 -0.0008
# 6 -0.0003 -0.0006 0.0008 -5.4756 -0.0008 11.6341
#
#
#
# Elastic Compliance Matrix: (Units=1/GPa)
#
#
# Indices 1 2 3 4 5 6 
#
# 1 0.024456 0.012166 -0.008531 0.000005 0.015587 0.000005
# 2 0.012166 0.051783 -0.012952 0.000009 0.006618 0.000008
# 3 -0.008531 -0.012952 0.016276 -0.000004 -0.005292 -0.000004
# 4 0.000005 0.000009 -0.000004 0.100496 0.000005 0.047299
# 5 0.015587 0.006618 -0.005292 0.000005 0.057495 0.000007
# 6 0.000005 0.000008 -0.000004 0.047299 0.000007 0.108215
#
#
# Mechanical properties :
#
#
# Convention : Reuss Voigt Hill
#
# Bulk Modulus (GPa) = 13.53559 25.95995 19.74777
# Shear Modulus (GPa) = 12.43838 18.41027 15.42432
#
# Velocity S-wave (km/s) = 2.66219 3.23883 2.96456
# Velocity P-wave (km/s) = 4.14272 5.36455 4.79273
#
# Compressibility (1/GPa) = 0.07387930
#
# Stress axis : x y z
#
# Youngs Moduli (GPa) = 40.88979 19.31150 61.44055
#
# Poissons Ratio (x) = -0.23494 0.52416
# Poissons Ratio (y) = -0.49746 0.79580
# Poissons Ratio (z) = 0.34883 0.25013
#
# Static dielectric constant tensor:
#      x y z
#    x 1.591480 0.000000 -0.010740 
#    y 0.000000 1.637590 0.000000 
#    z -0.010740 0.000000 1.605790 
# 
# From -- ./inp_files/258050.got.cif
#   From: 2010.05.17/outbox.cif.g08.bks.cpg/sg15_130_cif.got.tgz:258050.got - 2010.06.03 18:47:42.
