data_PCOD9256491
_publ_section_title
;
Structure prediction by ZEFSAII (Michael W. Deem and Ramdas Pophale) SiO2 
 PCOD9256491
Probable space group: C 2/C
;
_chemical_formula_sum "Si O2"
_cell_formula_units_Z 56
_cell_length_a 18.045948
_cell_length_b 12.426099
_cell_length_c 18.874192
_cell_angle_alpha 90.000000
_cell_angle_beta 148.482514
_cell_angle_gamma 90.000000
_cell_volume 2212.504667
_symmetry_space_group_name_H-M "C 2/C"
_symmetry_group_IT_number 15
_symmetry_cell_setting 'monoclinic'
loop_
_space_group_symop_operation_xyz
x,y,z
-x,y,1/2-z
-x,-y,-z
x,-y,1/2+z
1/2+x,1/2+y,z
1/2-x,1/2+y,1/2-z
1/2-x,1/2-y,-z
1/2+x,1/2-y,1/2+z
loop_
_atom_site_type_symbol
_atom_site_label
_atom_site_fract_x
_atom_site_fract_y
_atom_site_fract_z
Si Si1 0.173484 0.090017 0.231314
Si Si2 0.343806 0.173617 0.122569
Si Si3 0.026378 0.613661 0.982676
Si Si4 0.705627 0.349519 0.212398
Si Si5 0.400434 0.636065 0.486704
Si Si6 0.124330 0.425846 0.402137
Si Si7 0.880914 0.098930 0.022569
O O1 0.321438 0.151975 0.360920
O O2 0.111461 0.096670 0.102444
O O3 0.203647 0.962232 0.257634
O O4 0.041741 0.135945 0.168440
O O5 0.500000 0.219254 0.250000
O O6 0.255952 0.179653 0.123661
O O7 0.359492 0.054315 0.101548
O O8 0.250000 0.250000 0.000000
O O9 0.073724 0.593026 0.940349
O O10 0.875214 0.677340 0.860885
O O11 0.000000 0.500000 0.000000
O O12 0.683017 0.372157 0.108175
O O13 0.551097 0.304413 0.113810
O O14 0.402043 0.530183 0.536822
O O15 0.270504 0.375099 0.493959
O O16 0.000000 0.386744 0.250000
#
# Coordination Sequence:
#
# PCOD9256491 Si02
#       7
#     8   8   8   8   8   8   8
#     4   8  15  24  40  66  90 109 147 199 240 287
#     4  10  22  38  50  64  91 131 185 215 236 268
#     4  10  18  25  40  72  93 112 162 200 236 297
#     4   8  13  25  42  64  87 111 152 190 233 305
#     4   8  15  30  49  60  83 125 156 198 246 280
#     4  10  18  30  49  62  95 139 164 198 252 286
#     4   8  13  25  41  60  86 122 158 180 230 301
#
# _framework density 25.310680999999999
#
# number of rings (size 3 to 8) (size 9 to 14) (size 15 to 20)
#    0.000    3.143    1.429    1.714    6.000    0.571 
#   10.286    0.000    0.000    0.000    0.000    0.000 
#    0.000    0.000    0.000    5.143   15.429    2.571 
#
# Total GULP energy -155950.648160 kJ/mol
# GULP energy per Si atom -5569.666006 kJ/mol
# Density = 2.525307 g / cm^3
# Si number density = 25.310681 Si / 1000 Ang^3
#
#
#
# Elastic Constant Matrix: (Units=GPa)
#
#
# Indices 1 2 3 4 5 6 
#
# 1 117.0918 13.7146 38.6236 0.0000 48.3381 0.0000
# 2 13.7146 32.1925 26.1275 0.0000 19.1939 0.0000
# 3 38.6236 26.1275 204.8877 0.0002 70.5363 0.0001
# 4 0.0000 0.0000 0.0002 -41.7484 0.0000 -1.2772
# 5 48.3381 19.1939 70.5363 0.0000 57.5759 0.0000
# 6 0.0000 0.0000 0.0001 -1.2772 0.0000 16.1606
#
#
#
# Elastic Compliance Matrix: (Units=1/GPa)
#
#
# Indices 1 2 3 4 5 6 
#
# 1 0.013740 0.001039 0.002366 0.000000 -0.014780 0.000000
# 2 0.001039 0.038934 -0.000678 0.000000 -0.013020 0.000000
# 3 0.002366 -0.000678 0.008867 0.000000 -0.012623 0.000000
# 4 0.000000 0.000000 0.000000 -0.023895 0.000000 -0.001888
# 5 -0.014780 -0.013020 -0.012623 0.000000 0.049581 0.000000
# 6 0.000000 0.000000 0.000000 -0.001888 0.000000 0.061730
#
#
# Mechanical properties :
#
#
# Convention : Reuss Voigt Hill
#
# Bulk Modulus (GPa) = 14.92697 56.78925 35.85811
# Shear Modulus (GPa) = 30.15037 24.77804 27.46421
#
# Velocity S-wave (km/s) = 3.45514 3.13222 3.29763
# Velocity P-wave (km/s) = 4.67200 5.96378 5.35697
#
# Compressibility (1/GPa) = 0.06699282
#
# Stress axis : x y z
#
# Youngs Moduli (GPa) = 72.78192 25.68433 112.77904
#
# Poissons Ratio (x) = -0.02668 -0.26679
# Poissons Ratio (y) = -0.07559 0.07649
# Poissons Ratio (z) = -0.17217 0.01742
#
# Static dielectric constant tensor:
#      x y z
#    x 1.412160 0.000000 -0.167840 
#    y 0.000000 1.901460 0.000000 
#    z -0.167840 0.000000 1.981340 
# 
# From -- ./inp_files/249852.got.cif
#   From: 2010.05.17/outbox.cif.g08.bks.cpg/sg15_125_cif.got.tgz:249852.got - 2010.06.03 18:47:42.
