data_PCOD9256850
_publ_section_title
;
Structure prediction by ZEFSAII (Michael W. Deem and Ramdas Pophale) SiO2 
 PCOD9256850
Probable space group: C 2/C
;
_chemical_formula_sum "Si O2"
_cell_formula_units_Z 64
_cell_length_a 15.351893
_cell_length_b 7.921658
_cell_length_c 28.865879
_cell_angle_alpha 90.000000
_cell_angle_beta 51.573245
_cell_angle_gamma 90.000000
_cell_volume 2750.098299
_symmetry_space_group_name_H-M "C 2/C"
_symmetry_group_IT_number 15
_symmetry_cell_setting 'monoclinic'
loop_
_space_group_symop_operation_xyz
x,y,z
-x,y,1/2-z
-x,-y,-z
x,-y,1/2+z
1/2+x,1/2+y,z
1/2-x,1/2+y,1/2-z
1/2-x,1/2-y,-z
1/2+x,1/2-y,1/2+z
loop_
_atom_site_type_symbol
_atom_site_label
_atom_site_fract_x
_atom_site_fract_y
_atom_site_fract_z
Si Si1 0.430414 0.640245 0.879966
Si Si2 0.840158 0.689366 0.692045
Si Si3 0.846508 0.831623 0.075012
Si Si4 0.383025 0.366946 0.498839
Si Si5 0.064063 0.473088 0.109760
Si Si6 0.033591 0.824430 0.685997
Si Si7 0.816585 0.959579 0.180159
Si Si8 0.621212 0.997638 0.984832
O O1 0.368359 0.603176 0.949021
O O2 0.419818 0.839895 0.875486
O O3 0.412082 0.504088 0.845403
O O4 0.558822 0.603597 0.851045
O O5 0.931773 0.560360 0.642659
O O6 0.912245 0.808317 0.702333
O O7 0.799917 0.841163 0.672669
O O8 0.754501 0.590872 0.751790
O O9 0.982387 0.849905 0.038104
O O10 0.786489 0.858292 0.143514
O O11 0.820357 0.653279 0.060973
O O12 0.828888 0.982405 0.044821
O O13 0.336259 0.188710 0.531944
O O14 0.091834 0.329151 0.138329
O O15 0.114766 0.457399 0.041821
O O16 0.000000 0.801241 0.750000
O O17 0.500000 0.000000 0.000000
#
# Coordination Sequence:
#
# PCOD9256850 Si02
#       8
#     8   8   8   8   8   8   8   8
#     4   9  16  29  47  67  93 119 154 192 242 282
#     4   9  20  31  47  64 101 128 165 187 237 287
#     4   9  16  24  40  59  93 117 151 185 226 277
#     4   8  15  24  38  63  86 116 148 183 233 278
#     4   9  18  30  46  68  97 126 154 198 242 281
#     4   9  19  32  48  69  92 125 167 203 233 272
#     4  10  18  30  43  68  93 134 154 189 234 288
#     4   9  16  24  41  66  92 122 150 187 237 285
#
# _framework density 23.271895000000001
#
# number of rings (size 3 to 8) (size 9 to 14) (size 15 to 20)
#    0.750    2.250    0.000    2.250    5.250    0.500 
#    0.000    0.000    0.000    0.000    0.000    3.500 
#    0.000    4.000    0.000    0.000    0.000    0.000 
#
# Total GULP energy -178384.462412 kJ/mol
# GULP energy per Si atom -5574.514450 kJ/mol
# Density = 2.321893 g / cm^3
# Si number density = 23.271895 Si / 1000 Ang^3
#
#
#
# Elastic Constant Matrix: (Units=GPa)
#
#
# Indices 1 2 3 4 5 6 
#
# 1 49.9420 11.0866 10.1011 -0.0005 -9.5015 -0.0006
# 2 11.0866 134.4338 59.8004 -0.0012 1.9881 -0.0009
# 3 10.1011 59.8004 81.2387 -0.0001 6.5499 -0.0003
# 4 -0.0005 -0.0012 -0.0001 38.3655 -0.0003 -0.5350
# 5 -9.5015 1.9881 6.5499 -0.0003 30.3522 -0.0004
# 6 -0.0006 -0.0009 -0.0003 -0.5350 -0.0004 14.4231
#
#
#
# Elastic Compliance Matrix: (Units=1/GPa)
#
#
# Indices 1 2 3 4 5 6 
#
# 1 0.022203 -0.000658 -0.002891 0.000000 0.007617 0.000001
# 2 -0.000658 0.011113 -0.008165 0.000000 0.000828 0.000001
# 3 -0.002891 -0.008165 0.019040 0.000000 -0.004479 0.000000
# 4 0.000000 0.000000 0.000000 0.026079 0.000000 0.000967
# 5 0.007617 0.000828 -0.004479 0.000000 0.036243 0.000001
# 6 0.000001 0.000001 0.000000 0.000967 0.000001 0.069369
#
#
# Mechanical properties :
#
#
# Convention : Reuss Voigt Hill
#
# Bulk Modulus (GPa) = 34.56740 47.51006 41.03873
# Shear Modulus (GPa) = 23.02904 28.93661 25.98282
#
# Velocity S-wave (km/s) = 3.14915 3.53003 3.34502
# Velocity P-wave (km/s) = 5.30177 6.08887 5.70890
#
# Compressibility (1/GPa) = 0.02892899
#
# Stress axis : x y z
#
# Youngs Moduli (GPa) = 45.03871 89.98698 52.52009
#
# Poissons Ratio (x) = 0.05920 0.15181
# Poissons Ratio (y) = 0.02963 0.42883
# Poissons Ratio (z) = 0.13019 0.73475
#
# Static dielectric constant tensor:
#      x y z
#    x 2.067940 0.000000 0.025990 
#    y 0.000000 1.899550 0.000000 
#    z 0.025990 0.000000 1.853350 
# 
# From -- ./inp_files/281500.got.cif
#   From: 2010.05.17/outbox.cif.g08.bks.cpg/sg15_141_cif.got.tgz:281500.got - 2010.06.03 18:47:42.
