data_PCOD9256196
_publ_section_title
;
Structure prediction by ZEFSAII (Michael W. Deem and Ramdas Pophale) SiO2 
 PCOD9256196
Probable space group: C 2/C
;
_chemical_formula_sum "Si O2"
_cell_formula_units_Z 48
_cell_length_a 17.313332
_cell_length_b 8.215583
_cell_length_c 17.844401
_cell_angle_alpha 90.000000
_cell_angle_beta 120.274437
_cell_angle_gamma 90.000000
_cell_volume 2192.017383
_symmetry_space_group_name_H-M "C 2/C"
_symmetry_group_IT_number 15
_symmetry_cell_setting 'monoclinic'
loop_
_space_group_symop_operation_xyz
x,y,z
-x,y,1/2-z
-x,-y,-z
x,-y,1/2+z
1/2+x,1/2+y,z
1/2-x,1/2+y,1/2-z
1/2-x,1/2-y,-z
1/2+x,1/2-y,1/2+z
loop_
_atom_site_type_symbol
_atom_site_label
_atom_site_fract_x
_atom_site_fract_y
_atom_site_fract_z
Si Si1 0.267241 0.839865 0.401703
Si Si2 0.835368 0.021655 0.524023
Si Si3 0.656715 0.869569 0.742049
Si Si4 0.022210 0.943298 0.595891
Si Si5 0.055160 0.570602 0.596736
Si Si6 0.199093 0.120588 0.645981
O O1 0.232923 0.977857 0.440963
O O2 0.313750 0.691934 0.470844
O O3 0.181237 0.763229 0.317236
O O4 0.344180 0.895355 0.383380
O O5 0.821673 0.886285 0.452662
O O6 0.938356 0.014516 0.600039
O O7 0.698906 0.790389 0.687691
O O8 0.561876 0.937709 0.666643
O O9 0.709577 0.026055 0.797259
O O10 0.021642 0.749046 0.603111
O O11 0.120837 0.018485 0.651408
O O12 0.000000 0.000000 0.500000
O O13 0.000000 0.500000 0.500000
#
# Coordination Sequence:
#
# PCOD9256196 Si02
#       6
#     8   8   8   8   8   8
#     4  10  20  38  59  92 123 167 216 255 328 384
#     4   9  19  35  62  87 121 158 208 267 318 384
#     4  11  20  36  60  90 123 168 216 268 313 388
#     4  10  17  35  56  91 122 157 211 263 310 380
#     4  12  22  35  62  96 124 165 220 264 314 395
#     4  10  18  34  60  87 118 163 219 259 317 389
#
# _framework density 21.897637
#
# number of rings (size 3 to 8) (size 9 to 14) (size 15 to 20)
#    0.000    1.667    6.667    2.000    0.000    0.000 
#    0.000    4.167    3.667    0.000   26.000    0.000 
#    0.000    0.000    0.000    0.000    0.000    0.000 
#
# Total GULP energy -133745.733346 kJ/mol
# GULP energy per Si atom -5572.738889 kJ/mol
# Density = 2.184780 g / cm^3
# Si number density = 21.897637 Si / 1000 Ang^3
#
#
#
# Elastic Constant Matrix: (Units=GPa)
#
#
# Indices 1 2 3 4 5 6 
#
# 1 53.8556 4.2106 9.9096 0.0000 -3.6513 0.0000
# 2 4.2106 64.0277 26.0329 0.0000 -1.5022 0.0000
# 3 9.9096 26.0329 78.0246 0.0000 20.6775 0.0000
# 4 0.0000 0.0000 0.0000 37.9218 0.0000 5.1392
# 5 -3.6513 -1.5022 20.6775 0.0000 24.5467 0.0000
# 6 0.0000 0.0000 0.0000 5.1392 0.0000 16.7136
#
#
#
# Elastic Compliance Matrix: (Units=1/GPa)
#
#
# Indices 1 2 3 4 5 6 
#
# 1 0.019816 0.000714 -0.004568 0.000000 0.006839 0.000000
# 2 0.000714 0.019391 -0.008887 0.000000 0.008779 0.000000
# 3 -0.004568 -0.008887 0.021481 0.000000 -0.019319 0.000000
# 4 0.000000 0.000000 0.000000 0.027517 0.000000 -0.008461
# 5 0.006839 0.008779 -0.019319 0.000000 0.058567 0.000000
# 6 0.000000 0.000000 0.000000 -0.008461 0.000000 0.062433
#
#
# Mechanical properties :
#
#
# Convention : Reuss Voigt Hill
#
# Bulk Modulus (GPa) = 28.40253 30.69045 29.54649
# Shear Modulus (GPa) = 20.29049 26.22009 23.25529
#
# Velocity S-wave (km/s) = 3.04732 3.46409 3.26237
# Velocity P-wave (km/s) = 5.03789 5.48140 5.26432
#
# Compressibility (1/GPa) = 0.03520813
#
# Stress axis : x y z
#
# Youngs Moduli (GPa) = 50.46314 51.57154 46.55197
#
# Poissons Ratio (x) = -0.03684 0.21263
# Poissons Ratio (y) = -0.03605 0.41370
# Poissons Ratio (z) = 0.23050 0.45831
#
# Static dielectric constant tensor:
#      x y z
#    x 1.834180 0.000000 0.016970 
#    y 0.000000 1.838680 0.000000 
#    z 0.016970 0.000000 1.874950 
# 
# From -- ./inp_files/209312.got.cif
#   From: 2010.05.17/outbox.cif.g08.bks.cpg/sg15_105_cif.got.tgz:209312.got - 2010.06.03 18:47:42.
