data_PCOD9256266
_publ_section_title
;
Structure prediction by ZEFSAII (Michael W. Deem and Ramdas Pophale) SiO2 
 PCOD9256266
Probable space group: C 2/C
;
_chemical_formula_sum "Si O2"
_cell_formula_units_Z 32
_cell_length_a 10.080278
_cell_length_b 14.061761
_cell_length_c 13.990684
_cell_angle_alpha 90.000000
_cell_angle_beta 137.370232
_cell_angle_gamma 90.000000
_cell_volume 1343.091240
_symmetry_space_group_name_H-M "C 2/C"
_symmetry_group_IT_number 15
_symmetry_cell_setting 'monoclinic'
loop_
_space_group_symop_operation_xyz
x,y,z
-x,y,1/2-z
-x,-y,-z
x,-y,1/2+z
1/2+x,1/2+y,z
1/2-x,1/2+y,1/2-z
1/2-x,1/2-y,-z
1/2+x,1/2-y,1/2+z
loop_
_atom_site_type_symbol
_atom_site_label
_atom_site_fract_x
_atom_site_fract_y
_atom_site_fract_z
Si Si1 0.643523 0.650914 0.417101
Si Si2 0.785301 0.801048 0.121055
Si Si3 0.600636 0.970034 0.946477
Si Si4 0.780925 0.101651 0.343557
O O1 0.500000 0.663980 0.250000
O O2 0.750000 0.750000 0.500000
O O3 0.806433 0.571395 0.483956
O O4 0.503118 0.606534 0.425862
O O5 0.773159 0.714286 0.188981
O O6 0.000000 0.842119 0.250000
O O7 0.750000 0.750000 0.000000
O O8 0.643217 0.890000 0.048200
O O9 0.372857 0.959768 0.798992
O O10 0.726132 0.933048 0.920637
#
# Coordination Sequence:
#
# PCOD9256266 Si02
#       4
#     8   8   8   8
#     4  12  30  48  66 104 150 193 230 285 360 423
#     4  10  17  35  66 102 128 162 230 286 337 399
#     4  10  22  45  73 105 133 181 245 290 345 414
#     4  10  22  44  74 102 136 182 227 298 353 408
#
# _framework density 23.825633
#
# number of rings (size 3 to 8) (size 9 to 14) (size 15 to 20)
#    0.000    1.500    5.000    1.500    7.000    1.000 
#    4.500    0.000    0.000    0.000    0.000    0.000 
#    0.000    0.000    0.000    0.000    0.000    0.000 
#
# Total GULP energy -89315.570111 kJ/mol
# GULP energy per Si atom -5582.223132 kJ/mol
# Density = 2.377141 g / cm^3
# Si number density = 23.825633 Si / 1000 Ang^3
#
#
#
# Elastic Constant Matrix: (Units=GPa)
#
#
# Indices 1 2 3 4 5 6 
#
# 1 142.6172 26.6430 33.7753 0.0000 28.7835 0.0000
# 2 26.6430 188.8272 81.1669 0.0000 8.0424 0.0000
# 3 33.7753 81.1669 134.3910 0.0000 17.4926 0.0000
# 4 0.0000 0.0000 0.0000 37.7256 0.0000 -11.5641
# 5 28.7835 8.0424 17.4926 0.0000 37.9470 0.0000
# 6 0.0000 0.0000 0.0000 -11.5641 0.0000 4.7478
#
#
#
# Elastic Compliance Matrix: (Units=1/GPa)
#
#
# Indices 1 2 3 4 5 6 
#
# 1 0.008547 -0.000488 -0.001088 0.000000 -0.005878 0.000000
# 2 -0.000488 0.007190 -0.004329 0.000000 0.000842 0.000000
# 3 -0.001088 -0.004329 0.010747 0.000000 -0.003211 0.000000
# 4 0.000000 0.000000 0.000000 0.104608 0.000000 0.254788
# 5 -0.005878 0.000842 -0.003211 0.000000 0.032113 0.000000
# 6 0.000000 0.000000 0.000000 0.254788 0.000000 0.831198
#
#
# Mechanical properties :
#
#
# Convention : Reuss Voigt Hill
#
# Bulk Modulus (GPa) = 68.15233 83.22286 75.68760
# Shear Modulus (GPa) = 4.94509 37.70079 21.32294
#
# Velocity S-wave (km/s) = 1.44223 3.98221 2.99483
# Velocity P-wave (km/s) = 5.60715 7.49331 6.61777
#
# Compressibility (1/GPa) = 0.01467301
#
# Stress axis : x y z
#
# Youngs Moduli (GPa) = 117.00081 139.08658 93.04736
#
# Poissons Ratio (x) = 0.06784 0.10127
# Poissons Ratio (y) = 0.05707 0.40283
# Poissons Ratio (z) = 0.12734 0.60215
#
# Static dielectric constant tensor:
#      x y z
#    x 2.062220 0.000000 -0.007390 
#    y 0.000000 1.901010 0.000000 
#    z -0.007390 0.000000 1.893610 
# 
# From -- ./inp_files/198183.got.cif
#   From: 2010.05.17/outbox.cif.g08.bks.cpg/sg15_100_cif.got.tgz:198183.got - 2010.06.03 18:47:42.
