data_PCOD9256206
_publ_section_title
;
Structure prediction by ZEFSAII (Michael W. Deem and Ramdas Pophale) SiO2 
 PCOD9256206
Probable space group: C 2/C
;
_chemical_formula_sum "Si O2"
_cell_formula_units_Z 64
_cell_length_a 31.124133
_cell_length_b 19.280496
_cell_length_c 18.118438
_cell_angle_alpha 90.000000
_cell_angle_beta 18.380142
_cell_angle_gamma 90.000000
_cell_volume 3428.372024
_symmetry_space_group_name_H-M "C 2/C"
_symmetry_group_IT_number 15
_symmetry_cell_setting 'monoclinic'
loop_
_space_group_symop_operation_xyz
x,y,z
-x,y,1/2-z
-x,-y,-z
x,-y,1/2+z
1/2+x,1/2+y,z
1/2-x,1/2+y,1/2-z
1/2-x,1/2-y,-z
1/2+x,1/2-y,1/2+z
loop_
_atom_site_type_symbol
_atom_site_label
_atom_site_fract_x
_atom_site_fract_y
_atom_site_fract_z
Si Si1 0.871339 0.073202 0.134751
Si Si2 0.804019 0.216767 0.015366
Si Si3 0.618611 0.719167 0.451550
Si Si4 0.904788 0.370041 0.059445
Si Si5 0.140783 0.003080 0.696263
Si Si6 0.282081 0.140592 0.482988
Si Si7 0.595315 0.007354 0.524496
Si Si8 0.415006 0.945365 0.186434
O O1 0.878726 0.155040 0.108249
O O2 0.727834 0.047308 0.337200
O O3 0.884103 0.053381 0.199899
O O4 0.001046 0.031671 0.888538
O O5 0.746585 0.157849 0.056041
O O6 0.962112 0.223180 0.734288
O O7 0.794676 0.202533 0.116654
O O8 0.740958 0.291106 0.095502
O O9 0.656321 0.795286 0.360650
O O10 0.908703 0.380188 0.141529
O O11 0.849917 0.439228 0.108784
O O12 0.057422 0.370192 0.776963
O O13 0.203961 0.071751 0.632191
O O14 0.262583 0.974007 0.447710
O O15 0.500000 0.988670 0.750000
O O16 0.498700 0.052992 0.626907
O O17 0.500000 0.000000 0.000000
#
# Coordination Sequence:
#
# PCOD9256206 Si02
#       8
#     8   8   8   8   8   8   8   8
#     4  11  24  37  58  88 121 159 191 251 298 359
#     4   9  20  31  56  85 122 150 183 250 313 354
#     4  10  21  36  52  87 123 151 198 242 303 350
#     4  10  22  35  60  86 120 157 201 248 296 357
#     4  11  21  39  60  86 124 151 203 238 304 362
#     4  10  17  35  57  87 114 151 190 247 307 352
#     4  11  21  38  63  89 115 155 208 252 294 350
#     4  10  20  38  60  88 116 154 199 246 290 350
#
# _framework density 18.667752
#
# number of rings (size 3 to 8) (size 9 to 14) (size 15 to 20)
#    0.000    1.750    5.000    0.000    7.000    0.000 
#    0.000    0.625    0.000    0.000    0.000    0.000 
#    0.000    0.000    0.000    0.000    0.000    0.000 
#
# Total GULP energy -178291.158147 kJ/mol
# GULP energy per Si atom -5571.598692 kJ/mol
# Density = 1.862526 g / cm^3
# Si number density = 18.667752 Si / 1000 Ang^3
#
#
#
# Elastic Constant Matrix: (Units=GPa)
#
#
# Indices 1 2 3 4 5 6 
#
# 1 63.7890 29.1862 5.1727 -0.0001 4.9111 -0.0002
# 2 29.1862 95.5063 9.1161 0.0011 10.0793 -0.0002
# 3 5.1727 9.1161 74.1882 0.0012 -1.4727 0.0002
# 4 -0.0001 0.0011 0.0012 16.0450 0.0004 -2.5398
# 5 4.9111 10.0793 -1.4727 0.0004 22.3989 -0.0004
# 6 -0.0002 -0.0002 0.0002 -2.5398 -0.0004 16.3841
#
#
#
# Elastic Compliance Matrix: (Units=1/GPa)
#
#
# Indices 1 2 3 4 5 6 
#
# 1 0.018308 -0.005359 -0.000651 0.000001 -0.001645 0.000000
# 2 -0.005359 0.012719 -0.001281 -0.000001 -0.004633 0.000000
# 3 -0.000651 -0.001281 0.013714 -0.000001 0.001621 0.000000
# 4 0.000001 -0.000001 -0.000001 0.063893 -0.000001 0.009905
# 5 -0.001645 -0.004633 0.001621 -0.000001 0.047197 0.000001
# 6 0.000000 0.000000 0.000000 0.009905 0.000001 0.062570
#
#
# Mechanical properties :
#
#
# Convention : Reuss Voigt Hill
#
# Bulk Modulus (GPa) = 33.15676 35.60373 34.38024
# Shear Modulus (GPa) = 20.57297 23.63281 22.10289
#
# Velocity S-wave (km/s) = 3.32333 3.56191 3.44468
# Velocity P-wave (km/s) = 5.70317 6.00250 5.85474
#
# Compressibility (1/GPa) = 0.03015976
#
# Stress axis : x y z
#
# Youngs Moduli (GPa) = 54.62044 78.61975 72.91700
#
# Poissons Ratio (x) = 0.42133 0.04745
# Poissons Ratio (y) = 0.29272 0.09342
# Poissons Ratio (z) = 0.03554 0.10073
#
# Static dielectric constant tensor:
#      x y z
#    x 1.708550 0.000000 -0.018820 
#    y 0.000000 1.666420 0.000000 
#    z -0.018820 0.000000 1.665780 
# 
# From -- ./inp_files/225874.got.cif
#   From: 2010.05.17/outbox.cif.g08.bks.cpg/sg15_113_cif.got.tgz:225874.got - 2010.06.03 18:47:42.
