data_PCOD9256813
_publ_section_title
;
Structure prediction by ZEFSAII (Michael W. Deem and Ramdas Pophale) SiO2 
 PCOD9256813
Probable space group: C 2/C
;
_chemical_formula_sum "Si O2"
_cell_formula_units_Z 56
_cell_length_a 13.811494
_cell_length_b 28.684124
_cell_length_c 12.065605
_cell_angle_alpha 90.000000
_cell_angle_beta 142.664134
_cell_angle_gamma 90.000000
_cell_volume 2899.027265
_symmetry_space_group_name_H-M "C 2/C"
_symmetry_group_IT_number 15
_symmetry_cell_setting 'monoclinic'
loop_
_space_group_symop_operation_xyz
x,y,z
-x,y,1/2-z
-x,-y,-z
x,-y,1/2+z
1/2+x,1/2+y,z
1/2-x,1/2+y,1/2-z
1/2-x,1/2-y,-z
1/2+x,1/2-y,1/2+z
loop_
_atom_site_type_symbol
_atom_site_label
_atom_site_fract_x
_atom_site_fract_y
_atom_site_fract_z
Si Si1 0.190558 0.067171 0.902984
Si Si2 0.856097 0.206723 0.363798
Si Si3 0.311167 0.834503 0.573266
Si Si4 0.614914 0.378965 0.746938
Si Si5 0.229042 0.193574 0.748400
Si Si6 0.304353 0.594689 0.844368
Si Si7 0.195176 0.037252 0.442158
O O1 0.218016 0.075253 0.797836
O O2 0.000000 0.069429 0.750000
O O3 0.252710 0.015414 0.985634
O O4 0.267443 0.110555 0.037755
O O5 0.767905 0.192911 0.397337
O O6 0.809554 0.168370 0.229048
O O7 0.819539 0.259635 0.299302
O O8 0.043761 0.201964 0.555466
O O9 0.500000 0.828330 0.750000
O O10 0.250393 0.816310 0.398842
O O11 0.500000 0.369361 0.750000
O O12 0.493017 0.396830 0.541180
O O13 0.730257 0.421582 0.885674
O O14 0.274386 0.145959 0.725789
O O15 0.256692 0.559160 0.896698
O O16 0.000000 0.033590 0.250000
#
# Coordination Sequence:
#
# PCOD9256813 Si02
#       7
#     8   8   8   8   8   8   8
#     4  10  18  29  52  79 101 132 172 214 263 305
#     4  11  20  34  55  77 105 137 174 215 258 306
#     4  11  22  35  51  76 109 138 172 211 256 315
#     4   8  16  31  50  77 107 134 171 216 255 298
#     4  10  20  34  53  76 104 137 171 211 263 308
#     4   8  16  30  45  70 106 132 162 212 255 299
#     4   8  16  29  49  76 103 133 172 215 254 297
#
# _framework density 19.316824
#
# number of rings (size 3 to 8) (size 9 to 14) (size 15 to 20)
#    0.000    2.857    0.000    4.286    0.000    6.286 
#    0.000    6.429    0.000    9.429    0.000   13.000 
#    0.000    0.000    0.000    0.000    0.000    0.000 
#
# Total GULP energy -156029.708961 kJ/mol
# GULP energy per Si atom -5572.489606 kJ/mol
# Density = 1.927286 g / cm^3
# Si number density = 19.316824 Si / 1000 Ang^3
#
#
#
# Elastic Constant Matrix: (Units=GPa)
#
#
# Indices 1 2 3 4 5 6 
#
# 1 6.2278 15.9613 6.0101 0.0000 -0.4359 0.0000
# 2 15.9613 154.6516 21.2189 0.0000 -6.6957 0.0000
# 3 6.0101 21.2189 34.6942 0.0000 -1.1548 0.0000
# 4 0.0000 0.0000 0.0000 21.6060 0.0000 -0.2326
# 5 -0.4359 -6.6957 -1.1548 0.0000 14.3541 0.0000
# 6 0.0000 0.0000 0.0000 -0.2326 0.0000 32.5896
#
#
#
# Elastic Compliance Matrix: (Units=1/GPa)
#
#
# Indices 1 2 3 4 5 6 
#
# 1 0.242980 -0.021278 -0.029241 0.000000 -0.004900 0.000000
# 2 -0.021278 0.009049 -0.001734 0.000000 0.003435 0.000000
# 3 -0.029241 -0.001734 0.034986 0.000000 0.001118 0.000000
# 4 0.000000 0.000000 0.000000 0.046287 0.000000 0.000330
# 5 -0.004900 0.003435 0.001118 0.000000 0.071210 0.000000
# 6 0.000000 0.000000 0.000000 0.000330 0.000000 0.030687
#
#
# Mechanical properties :
#
#
# Convention : Reuss Voigt Hill
#
# Bulk Modulus (GPa) = 5.47915 31.32822 18.40369
# Shear Modulus (GPa) = 8.32581 23.86884 16.09733
#
# Velocity S-wave (km/s) = 2.07834 3.51900 2.88988
# Velocity P-wave (km/s) = 2.93291 5.72402 4.54788
#
# Compressibility (1/GPa) = 0.18251009
#
# Stress axis : x y z
#
# Youngs Moduli (GPa) = 4.11556 110.51158 28.58257
#
# Poissons Ratio (x) = 2.35143 0.83579
# Poissons Ratio (y) = 0.08757 0.04956
# Poissons Ratio (z) = 0.12034 0.19162
#
# Static dielectric constant tensor:
#      x y z
#    x 1.682440 0.000000 0.001030 
#    y 0.000000 1.727500 0.000000 
#    z 0.001030 0.000000 1.671440 
# 
# From -- ./inp_files/101134.got.cif
#   From: 2010.05.17/outbox.cif.g08.bks.cpg/sg15_51_cif.got.tgz:101134.got - 2010.06.03 18:47:42.
