data_PCOD9256295
_publ_section_title
;
Structure prediction by ZEFSAII (Michael W. Deem and Ramdas Pophale) SiO2 
 PCOD9256295
Probable space group: C 2/C
;
_chemical_formula_sum "Si O2"
_cell_formula_units_Z 60
_cell_length_a 18.894285
_cell_length_b 14.880629
_cell_length_c 12.167848
_cell_angle_alpha 90.000000
_cell_angle_beta 80.416282
_cell_angle_gamma 90.000000
_cell_volume 3373.351157
_symmetry_space_group_name_H-M "C 2/C"
_symmetry_group_IT_number 15
_symmetry_cell_setting 'monoclinic'
loop_
_space_group_symop_operation_xyz
x,y,z
-x,y,1/2-z
-x,-y,-z
x,-y,1/2+z
1/2+x,1/2+y,z
1/2-x,1/2+y,1/2-z
1/2-x,1/2-y,-z
1/2+x,1/2-y,1/2+z
loop_
_atom_site_type_symbol
_atom_site_label
_atom_site_fract_x
_atom_site_fract_y
_atom_site_fract_z
Si Si1 0.954983 0.676332 0.081447
Si Si2 0.000000 0.467883 0.750000
Si Si3 0.823374 0.259197 0.761329
Si Si4 0.611357 0.924887 0.093314
Si Si5 0.247201 0.582645 0.694274
Si Si6 0.711717 0.607819 0.399101
Si Si7 0.399744 0.735684 0.978278
Si Si8 0.326584 0.085128 0.560943
O O1 0.882289 0.701802 0.163426
O O2 0.987326 0.596067 0.148230
O O3 0.015207 0.753938 0.059779
O O4 0.934870 0.644569 0.964636
O O5 0.933282 0.531019 0.796274
O O6 0.793792 0.167592 0.717454
O O7 0.758203 0.327933 0.805737
O O8 0.863043 0.241873 0.867438
O O9 0.687634 0.891480 0.118829
O O10 0.629099 0.005973 0.005756
O O11 0.289241 0.493978 0.644123
O O12 0.203097 0.557063 0.814601
O O13 0.635727 0.652185 0.449025
O O14 0.759549 0.605851 0.497869
O O15 0.373514 0.824672 0.050325
#
# Coordination Sequence:
#
# PCOD9256295 Si02
#       8
#     8   4   8   8   8   8   8   8
#     4  12  23  37  57  87 121 153 193 238 285 356
#     4  12  20  36  56  86 122 156 182 228 308 356
#     4  11  20  39  61  85 114 154 199 238 289 334
#     4  11  24  32  53  90 124 150 181 237 302 359
#     4  11  22  36  60  85 116 154 193 240 294 336
#     4  10  20  35  60  90 112 147 204 246 276 337
#     4  11  19  36  61  86 111 150 198 243 278 339
#     4  10  17  36  57  84 116 148 191 238 286 342
#
# _framework density 17.786467999999999
#
# number of rings (size 3 to 8) (size 9 to 14) (size 15 to 20)
#    0.000    1.067    5.333    4.400    1.867    0.533 
#    0.000    0.667    0.000    0.000    0.000    0.000 
#    0.000    0.000    0.000    0.000    0.000    0.000 
#
# Total GULP energy -167477.475390 kJ/mol
# GULP energy per Si atom -5582.582513 kJ/mol
# Density = 1.774599 g / cm^3
# Si number density = 17.786468 Si / 1000 Ang^3
#
#
#
# Elastic Constant Matrix: (Units=GPa)
#
#
# Indices 1 2 3 4 5 6 
#
# 1 78.0538 44.6216 25.5707 0.0000 -4.8429 0.0000
# 2 44.6216 62.1842 21.0992 0.0000 11.1501 0.0000
# 3 25.5707 21.0992 52.4235 0.0000 -2.2298 0.0000
# 4 0.0000 0.0000 0.0000 31.7477 0.0000 -5.0573
# 5 -4.8429 11.1501 -2.2298 0.0000 21.4780 0.0000
# 6 0.0000 0.0000 0.0000 -5.0573 0.0000 30.5796
#
#
#
# Elastic Compliance Matrix: (Units=1/GPa)
#
#
# Indices 1 2 3 4 5 6 
#
# 1 0.027321 -0.021229 -0.004069 0.000000 0.016758 0.000000
# 2 -0.021229 0.037815 -0.005930 0.000000 -0.025034 0.000000
# 3 -0.004069 -0.005930 0.023643 0.000000 0.004615 0.000000
# 4 0.000000 0.000000 0.000000 0.032351 0.000000 0.005350
# 5 0.016758 -0.025034 0.004615 0.000000 0.063813 0.000000
# 6 0.000000 0.000000 0.000000 0.005350 0.000000 0.033586
#
#
# Mechanical properties :
#
#
# Convention : Reuss Voigt Hill
#
# Bulk Modulus (GPa) = 37.98906 41.69384 39.84145
# Shear Modulus (GPa) = 17.25573 23.51907 20.38740
#
# Velocity S-wave (km/s) = 3.11812 3.64029 3.38928
# Velocity P-wave (km/s) = 5.86245 6.41570 6.14530
#
# Compressibility (1/GPa) = 0.02632337
#
# Stress axis : x y z
#
# Youngs Moduli (GPa) = 36.60248 26.44448 42.29542
#
# Poissons Ratio (x) = 0.56138 0.17211
# Poissons Ratio (y) = 0.77702 0.25080
# Poissons Ratio (z) = 0.14895 0.15681
#
# Static dielectric constant tensor:
#      x y z
#    x 1.652180 0.000000 -0.014660 
#    y 0.000000 1.598150 0.000000 
#    z -0.014660 0.000000 1.618190 
# 
# From -- ./inp_files/112377.got.cif
#   From: 2010.05.17/outbox.cif.g08.bks.cpg/sg15_57_cif.got.tgz:112377.got - 2010.06.03 18:47:42.
