data_PCOD9256761
_publ_section_title
;
Structure prediction by ZEFSAII (Michael W. Deem and Ramdas Pophale) SiO2 
 PCOD9256761
Probable space group: C 2/C
;
_chemical_formula_sum "Si O2"
_cell_formula_units_Z 64
_cell_length_a 6.853064
_cell_length_b 17.085111
_cell_length_c 19.050260
_cell_angle_alpha 90.000000
_cell_angle_beta 100.634829
_cell_angle_gamma 90.000000
_cell_volume 2192.193897
_symmetry_space_group_name_H-M "C 2/C"
_symmetry_group_IT_number 15
_symmetry_cell_setting 'monoclinic'
loop_
_space_group_symop_operation_xyz
x,y,z
-x,y,1/2-z
-x,-y,-z
x,-y,1/2+z
1/2+x,1/2+y,z
1/2-x,1/2+y,1/2-z
1/2-x,1/2-y,-z
1/2+x,1/2-y,1/2+z
loop_
_atom_site_type_symbol
_atom_site_label
_atom_site_fract_x
_atom_site_fract_y
_atom_site_fract_z
Si Si1 0.777022 0.137181 0.545478
Si Si2 0.711889 0.975040 0.923556
Si Si3 0.752221 0.491385 0.345285
Si Si4 0.774738 0.232449 0.360949
Si Si5 0.267512 0.931666 0.720938
Si Si6 0.314707 0.127890 0.497664
Si Si7 0.750571 0.246438 0.896256
Si Si8 0.264031 0.851172 0.241428
O O1 0.791445 0.104324 0.466626
O O2 0.841829 0.066911 0.602715
O O3 0.815087 0.226299 0.574435
O O4 0.538280 0.131558 0.539314
O O5 0.801569 0.982801 0.851767
O O6 0.471852 0.985445 0.892300
O O7 0.758286 0.043056 0.983209
O O8 0.680530 0.567549 0.295300
O O9 0.732185 0.436259 0.273611
O O10 0.726381 0.151529 0.319347
O O11 0.704011 0.295113 0.299602
O O12 0.013439 0.238629 0.379181
O O13 0.500000 0.950084 0.750000
O O14 0.190240 0.188332 0.536132
O O15 0.323888 0.167075 0.421888
O O16 0.801676 0.192893 0.833239
O O17 0.500000 0.850468 0.250000
#
# Coordination Sequence:
#
# PCOD9256761 Si02
#       8
#     8   8   8   8   8   8   8   8
#     4   9  18  31  49  71  95 122 153 197 234 269
#     4  10  18  29  48  71  93 123 159 195 225 260
#     4   9  16  29  49  72  91 112 154 202 239 263
#     4   9  19  32  44  65  95 124 153 186 235 280
#     4  10  20  32  49  69  91 123 161 197 226 268
#     4   9  16  28  47  72  94 114 149 189 234 281
#     4   9  17  28  46  70  96 120 142 185 241 292
#     4   9  15  27  47  68  91 116 144 190 243 278
#
# _framework density 29.194496999999998
#
# number of rings (size 3 to 8) (size 9 to 14) (size 15 to 20)
#    0.000    2.750    0.000    5.625    0.000    3.500 
#    0.000    0.625    0.000    3.000    0.000    0.000 
#    0.000    0.000    0.000    0.000    0.000    0.000 
#
# Total GULP energy -178338.105315 kJ/mol
# GULP energy per Si atom -5573.065791 kJ/mol
# Density = 2.912805 g / cm^3
# Si number density = 29.194497 Si / 1000 Ang^3
#
#
#
# Elastic Constant Matrix: (Units=GPa)
#
#
# Indices 1 2 3 4 5 6 
#
# 1 75.6006 21.2456 1.2064 0.0000 21.5708 0.0000
# 2 21.2456 139.9549 107.7994 0.0000 18.2112 0.0000
# 3 1.2064 107.7994 198.2733 0.0000 -4.3002 0.0000
# 4 0.0000 0.0000 0.0000 62.5635 0.0000 -3.9389
# 5 21.5708 18.2112 -4.3002 0.0000 38.8165 0.0000
# 6 0.0000 0.0000 0.0000 -3.9389 0.0000 21.0362
#
#
#
# Elastic Compliance Matrix: (Units=1/GPa)
#
#
# Indices 1 2 3 4 5 6 
#
# 1 0.016035 -0.002078 0.000862 0.000000 -0.007840 0.000000
# 2 -0.002078 0.014466 -0.007994 0.000000 -0.006518 0.000000
# 3 0.000862 -0.007994 0.009478 0.000000 0.004321 0.000000
# 4 0.000000 0.000000 0.000000 0.016174 0.000000 0.003029
# 5 -0.007840 -0.006518 0.004321 0.000000 0.033656 0.000000
# 6 0.000000 0.000000 0.000000 0.003029 0.000000 0.048104
#
#
# Mechanical properties :
#
#
# Convention : Reuss Voigt Hill
#
# Bulk Modulus (GPa) = 46.38315 74.92575 60.65445
# Shear Modulus (GPa) = 30.57772 43.38842 36.98307
#
# Velocity S-wave (km/s) = 3.23984 3.85929 3.56305
# Velocity P-wave (km/s) = 5.46969 6.75121 6.14396
#
# Compressibility (1/GPa) = 0.02155955
#
# Stress axis : x y z
#
# Youngs Moduli (GPa) = 62.36506 69.12918 105.50697
#
# Poissons Ratio (x) = 0.14365 -0.09097
# Poissons Ratio (y) = 0.12960 0.84338
# Poissons Ratio (z) = -0.05377 0.55259
#
# Static dielectric constant tensor:
#      x y z
#    x 2.369400 0.000000 -0.071960 
#    y 0.000000 2.447300 0.000000 
#    z -0.071960 0.000000 2.358900 
# 
# From -- ./inp_files/238776.got.cif
#   From: 2010.05.17/outbox.cif.g08.bks.cpg/sg15_120_cif.got.tgz:238776.got - 2010.06.03 18:47:42.
