data_PCOD9256593
_publ_section_title
;
Structure prediction by ZEFSAII (Michael W. Deem and Ramdas Pophale) SiO2 
 PCOD9256593
Probable space group: C 2/C
;
_chemical_formula_sum "Si O2"
_cell_formula_units_Z 44
_cell_length_a 22.738033
_cell_length_b 9.328509
_cell_length_c 8.971834
_cell_angle_alpha 90.000000
_cell_angle_beta 57.999142
_cell_angle_gamma 90.000000
_cell_volume 1613.848550
_symmetry_space_group_name_H-M "C 2/C"
_symmetry_group_IT_number 15
_symmetry_cell_setting 'monoclinic'
loop_
_space_group_symop_operation_xyz
x,y,z
-x,y,1/2-z
-x,-y,-z
x,-y,1/2+z
1/2+x,1/2+y,z
1/2-x,1/2+y,1/2-z
1/2-x,1/2-y,-z
1/2+x,1/2-y,1/2+z
loop_
_atom_site_type_symbol
_atom_site_label
_atom_site_fract_x
_atom_site_fract_y
_atom_site_fract_z
Si Si1 0.174359 0.853857 0.583076
Si Si2 0.594165 0.594751 0.930777
Si Si3 0.350444 0.159761 0.358311
Si Si4 0.500000 0.869950 0.750000
Si Si5 0.260588 0.675660 0.222850
Si Si6 0.044702 0.209756 0.391476
O O1 0.134090 0.956816 0.524203
O O2 0.222189 0.775916 0.397313
O O3 0.205025 0.921584 0.692515
O O4 0.115999 0.740741 0.719872
O O5 0.628644 0.699758 0.765636
O O6 0.564627 0.455053 0.894289
O O7 0.531523 0.696582 0.075320
O O8 0.423255 0.074869 0.292930
O O9 0.310941 0.222804 0.556799
O O10 0.291694 0.097768 0.322635
O O11 0.528832 0.784038 0.569671
#
# Coordination Sequence:
#
# PCOD9256593 Si02
#       6
#     8   8   8   4   8   8
#     4  10  18  29  44  61  82 127 166 190 222 259
#     4   9  20  28  44  66  96 128 157 186 221 268
#     4   9  17  32  45  62  87 125 160 189 233 268
#     4  10  18  28  44  68  90 130 158 182 224 274
#     4   9  18  31  45  58  84 123 168 196 226 263
#     4  10  19  28  42  66 101 125 158 185 220 271
#
# _framework density 27.264019000000001
#
# number of rings (size 3 to 8) (size 9 to 14) (size 15 to 20)
#    0.000    2.545    1.818    0.545    7.636    0.000 
#    0.000    0.000    0.000    0.000    0.000    0.000 
#    0.000    0.000    0.000   81.818   44.000    0.000 
#
# Total GULP energy -122478.351786 kJ/mol
# GULP energy per Si atom -5567.197808 kJ/mol
# Density = 2.720196 g / cm^3
# Si number density = 27.264019 Si / 1000 Ang^3
#
#
#
# Elastic Constant Matrix: (Units=GPa)
#
#
# Indices 1 2 3 4 5 6 
#
# 1 186.6036 9.1827 39.7235 0.0000 16.1399 0.0000
# 2 9.1827 36.7482 17.6765 0.0000 3.0523 0.0000
# 3 39.7235 17.6765 256.2810 0.0000 0.1242 0.0000
# 4 0.0000 0.0000 0.0000 12.0923 0.0000 0.8547
# 5 16.1399 3.0523 0.1242 0.0000 53.0750 0.0000
# 6 0.0000 0.0000 0.0000 0.8547 0.0000 12.2398
#
#
#
# Elastic Compliance Matrix: (Units=1/GPa)
#
#
# Indices 1 2 3 4 5 6 
#
# 1 0.005724 -0.000894 -0.000825 0.000000 -0.001687 0.000000
# 2 -0.000894 0.028424 -0.001821 0.000000 -0.001359 0.000000
# 3 -0.000825 -0.001821 0.004155 0.000000 0.000346 0.000000
# 4 0.000000 0.000000 0.000000 0.083108 0.000000 -0.005804
# 5 -0.001687 -0.001359 0.000346 0.000000 0.019432 0.000000
# 6 0.000000 0.000000 0.000000 -0.005804 0.000000 0.082106
#
#
# Mechanical properties :
#
#
# Convention : Reuss Voigt Hill
#
# Bulk Modulus (GPa) = 32.02587 68.08867 50.05727
# Shear Modulus (GPa) = 20.79547 43.01810 31.90679
#
# Velocity S-wave (km/s) = 2.76478 3.97651 3.42466
# Velocity P-wave (km/s) = 4.68658 6.79054 5.83419
#
# Compressibility (1/GPa) = 0.03122475
#
# Stress axis : x y z
#
# Youngs Moduli (GPa) = 174.68880 35.18096 240.65792
#
# Poissons Ratio (x) = 0.03143 0.19851
# Poissons Ratio (y) = 0.15609 0.43833
# Poissons Ratio (z) = 0.14409 0.06408
#
# Static dielectric constant tensor:
#      x y z
#    x 2.678560 0.000000 -0.285170 
#    y 0.000000 2.120330 0.000000 
#    z -0.285170 0.000000 2.312060 
# 
# From -- ./inp_files/49378.got.cif
#   From: 2010.05.17/outbox.cif.g08.bks.cpg/sg15_25_cif.got.tgz:49378.got - 2010.06.03 18:47:42.
