data_PCOD9256998
_publ_section_title
;
Structure prediction by ZEFSAII (Michael W. Deem and Ramdas Pophale) SiO2 
 PCOD9256998
Probable space group: C 2/C
;
_chemical_formula_sum "Si O2"
_cell_formula_units_Z 60
_cell_length_a 19.740537
_cell_length_b 22.667449
_cell_length_c 7.857847
_cell_angle_alpha 90.000000
_cell_angle_beta 115.096980
_cell_angle_gamma 90.000000
_cell_volume 3184.178101
_symmetry_space_group_name_H-M "C 2/C"
_symmetry_group_IT_number 15
_symmetry_cell_setting 'monoclinic'
loop_
_space_group_symop_operation_xyz
x,y,z
-x,y,1/2-z
-x,-y,-z
x,-y,1/2+z
1/2+x,1/2+y,z
1/2-x,1/2+y,1/2-z
1/2-x,1/2-y,-z
1/2+x,1/2-y,1/2+z
loop_
_atom_site_type_symbol
_atom_site_label
_atom_site_fract_x
_atom_site_fract_y
_atom_site_fract_z
Si Si1 0.219502 0.408773 0.732204
Si Si2 0.905108 0.078770 0.047968
Si Si3 0.258515 0.683272 0.566092
Si Si4 0.233633 0.621178 0.874063
Si Si5 0.116666 0.526180 0.622580
Si Si6 0.570648 0.645260 0.750698
Si Si7 0.392533 0.552890 0.418480
Si Si8 0.000000 0.482371 0.750000
O O1 0.215839 0.370152 0.554516
O O2 0.157487 0.461617 0.653038
O O3 0.301823 0.439743 0.819962
O O4 0.221030 0.365357 0.897926
O O5 0.817475 0.096118 0.952759
O O6 0.941258 0.124862 0.955854
O O7 0.912341 0.014633 0.972126
O O8 0.922936 0.073644 0.266936
O O9 0.250000 0.750000 0.500000
O O10 0.230194 0.672215 0.728913
O O11 0.347728 0.673045 0.655472
O O12 0.178835 0.570225 0.751259
O O13 0.046466 0.523213 0.673382
O O14 0.071245 0.549387 0.409768
O O15 0.500000 0.680525 0.750000
O O16 0.578192 0.590635 0.891389
#
# Coordination Sequence:
#
# PCOD9256998 Si02
#       8
#     8   8   8   8   8   8   8   4
#     4  10  20  33  60  84 110 151 189 245 282 333
#     4  10  18  30  50  82 112 146 185 216 264 333
#     4  10  23  41  62  85 107 147 207 244 280 334
#     4  10  20  33  60  84 110 151 189 245 282 333
#     4  11  18  34  50  84 123 152 188 230 305 360
#     4  10  22  37  54  76 114 150 175 225 286 332
#     4  10  18  30  50  82 112 146 185 216 264 333
#     4  10  22  26  48  80 126 164 174 228 298 388
#
# _framework density 18.843166
#
# number of rings (size 3 to 8) (size 9 to 14) (size 15 to 20)
#    0.000    1.867    4.000    0.800    0.000    1.600 
#    0.000    0.000    8.800    0.000    0.000    0.000 
#    0.000    0.000    0.000    0.000    0.000    0.000 
#
# Total GULP energy -167019.105776 kJ/mol
# GULP energy per Si atom -5567.303526 kJ/mol
# Density = 1.880028 g / cm^3
# Si number density = 18.843166 Si / 1000 Ang^3
#
#
#
# Elastic Constant Matrix: (Units=GPa)
#
#
# Indices 1 2 3 4 5 6 
#
# 1 83.1992 17.8202 31.3382 0.0000 -8.3670 0.0000
# 2 17.8202 51.9821 17.9567 0.0000 1.9552 0.0000
# 3 31.3382 17.9567 108.5473 0.0000 2.4762 0.0000
# 4 0.0000 0.0000 0.0000 10.3720 0.0000 -2.8169
# 5 -8.3670 1.9552 2.4762 0.0000 31.6617 0.0000
# 6 0.0000 0.0000 0.0000 -2.8169 0.0000 9.5665
#
#
#
# Elastic Compliance Matrix: (Units=1/GPa)
#
#
# Indices 1 2 3 4 5 6 
#
# 1 0.014696 -0.003928 -0.003694 0.000000 0.004415 0.000000
# 2 -0.003928 0.021485 -0.002370 0.000000 -0.002179 0.000000
# 3 -0.003694 -0.002370 0.010709 0.000000 -0.001667 0.000000
# 4 0.000000 0.000000 0.000000 0.104794 0.000000 0.030858
# 5 0.004415 -0.002179 -0.001667 0.000000 0.033016 0.000000
# 6 0.000000 0.000000 0.000000 0.030858 0.000000 0.113618
#
#
# Mechanical properties :
#
#
# Convention : Reuss Voigt Hill
#
# Bulk Modulus (GPa) = 37.16713 41.99544 39.58128
# Shear Modulus (GPa) = 15.27786 22.09427 18.68606
#
# Velocity S-wave (km/s) = 2.85053 3.42794 3.15248
# Velocity P-wave (km/s) = 5.53184 6.16465 5.85680
#
# Compressibility (1/GPa) = 0.02690549
#
# Stress axis : x y z
#
# Youngs Moduli (GPa) = 68.04582 46.54455 93.37829
#
# Poissons Ratio (x) = 0.18283 0.34491
# Poissons Ratio (y) = 0.26729 0.22134
# Poissons Ratio (z) = 0.25134 0.11033
#
# Static dielectric constant tensor:
#      x y z
#    x 1.690360 0.000000 -0.009390 
#    y 0.000000 1.595630 0.000000 
#    z -0.009390 0.000000 1.867630 
# 
# From -- ./inp_files/50298.got.cif
#   From: 2010.05.17/outbox.cif.g08.bks.cpg/sg15_26_cif.got.tgz:50298.got - 2010.06.03 18:47:42.
