data_PCOD9256110
_publ_section_title
;
Structure prediction by ZEFSAII (Michael W. Deem and Ramdas Pophale) SiO2 
 PCOD9256110
Probable space group: C 2/C
;
_chemical_formula_sum "Si O2"
_cell_formula_units_Z 52
_cell_length_a 5.158914
_cell_length_b 29.229801
_cell_length_c 17.878506
_cell_angle_alpha 90.000000
_cell_angle_beta 94.889738
_cell_angle_gamma 90.000000
_cell_volume 2686.160186
_symmetry_space_group_name_H-M "C 2/C"
_symmetry_group_IT_number 15
_symmetry_cell_setting 'monoclinic'
loop_
_space_group_symop_operation_xyz
x,y,z
-x,y,1/2-z
-x,-y,-z
x,-y,1/2+z
1/2+x,1/2+y,z
1/2-x,1/2+y,1/2-z
1/2-x,1/2-y,-z
1/2+x,1/2-y,1/2+z
loop_
_atom_site_type_symbol
_atom_site_label
_atom_site_fract_x
_atom_site_fract_y
_atom_site_fract_z
Si Si1 0.413230 0.822276 0.829326
Si Si2 0.990774 0.605244 0.051312
Si Si3 0.579672 0.097480 0.881962
Si Si4 0.436419 0.456855 0.160444
Si Si5 0.469269 0.438752 0.880555
Si Si6 0.500000 0.170806 0.750000
Si Si7 0.500000 0.266298 0.250000
Si Si8 0.000000 0.874597 0.750000
O O1 0.500000 0.842490 0.750000
O O2 0.535405 0.847796 0.902085
O O3 0.468116 0.769008 0.819109
O O4 0.116331 0.838553 0.813876
O O5 0.742281 0.573522 0.061894
O O6 0.247890 0.580562 0.090143
O O7 0.032835 0.613334 0.965247
O O8 0.864679 0.076314 0.877784
O O9 0.547306 0.138128 0.821941
O O10 0.359166 0.059354 0.859094
O O11 0.500000 0.453322 0.250000
O O12 0.495010 0.508041 0.134934
O O13 0.372856 0.411752 0.803865
O O14 0.252459 0.202568 0.759732
#
# Coordination Sequence:
#
# PCOD9256110 Si02
#       8
#     8   8   8   8   8   4   4   4
#     4   9  19  37  63  89 125 150 190 247 316 372
#     4  11  24  40  61  95 128 164 192 252 314 365
#     4  12  26  43  63  85 126 166 211 253 301 355
#     4  12  23  42  63  90 122 170 217 256 287 346
#     4  11  22  36  63  90 127 160 210 245 300 353
#     4  12  23  44  64  87 114 165 212 246 299 370
#     4  10  22  38  69  93 112 151 203 256 302 374
#     4  10  17  34  59  92 120 166 191 242 299 380
#
# _framework density 19.358485999999999
#
# number of rings (size 3 to 8) (size 9 to 14) (size 15 to 20)
#    0.462    0.615    3.846    3.231    0.000    3.692 
#    0.000    1.538    0.000    0.000    0.000    0.000 
#    0.000    0.000    0.000    0.000    0.000    0.000 
#
# Total GULP energy -144944.516481 kJ/mol
# GULP energy per Si atom -5574.789095 kJ/mol
# Density = 1.931443 g / cm^3
# Si number density = 19.358486 Si / 1000 Ang^3
#
#
#
# Elastic Constant Matrix: (Units=GPa)
#
#
# Indices 1 2 3 4 5 6 
#
# 1 70.4627 29.6769 -9.1392 0.0000 -3.8293 0.0000
# 2 29.6769 114.5691 29.9034 0.0000 -9.3439 0.0000
# 3 -9.1392 29.9034 88.2706 0.0000 -21.4984 0.0000
# 4 0.0000 0.0000 0.0000 -0.0167 0.0000 -5.9981
# 5 -3.8293 -9.3439 -21.4984 0.0000 24.9409 0.0000
# 6 0.0000 0.0000 0.0000 -5.9981 0.0000 28.8843
#
#
#
# Elastic Compliance Matrix: (Units=1/GPa)
#
#
# Indices 1 2 3 4 5 6 
#
# 1 0.017318 -0.005340 0.004762 0.000000 0.004763 0.000000
# 2 -0.005340 0.011242 -0.004475 0.000000 -0.000465 0.000000
# 3 0.004762 -0.004475 0.016590 0.000000 0.013355 0.000000
# 4 0.000000 0.000000 0.000000 -0.792246 0.000000 -0.164516
# 5 0.004763 -0.000465 0.013355 0.000000 0.052163 0.000000
# 6 0.000000 0.000000 0.000000 -0.164516 0.000000 0.000458
#
#
# Mechanical properties :
#
#
# Convention : Reuss Voigt Hill
#
# Bulk Modulus (GPa) = 28.53544 41.57609 35.05577
# Shear Modulus (GPa) = -7.43286 25.61913 9.09313
#
# Velocity S-wave (km/s) = -1.96161 3.64181 2.16966
# Velocity P-wave (km/s) = 3.10515 6.26157 4.94213
#
# Compressibility (1/GPa) = 0.03504415
#
# Stress axis : x y z
#
# Youngs Moduli (GPa) = 57.74480 88.95531 60.27598
#
# Poissons Ratio (x) = 0.47505 -0.28704
# Poissons Ratio (y) = 0.30837 0.26971
# Poissons Ratio (z) = -0.27499 0.39803
#
# Static dielectric constant tensor:
#      x y z
#    x 3.591480 0.000000 0.366120 
#    y 0.000000 1.650060 0.000000 
#    z 0.366120 0.000000 1.753780 
# 
# From -- ./inp_files/185921.got.cif
#   From: 2010.05.17/outbox.cif.g08.bks.cpg/sg15_93_cif.got.tgz:185921.got - 2010.06.03 18:47:42.
