data_PCOD9256663
_publ_section_title
;
Structure prediction by ZEFSAII (Michael W. Deem and Ramdas Pophale) SiO2 
 PCOD9256663
Probable space group: C 2/C
;
_chemical_formula_sum "Si O2"
_cell_formula_units_Z 64
_cell_length_a 20.484410
_cell_length_b 13.861001
_cell_length_c 12.522799
_cell_angle_alpha 90.000000
_cell_angle_beta 49.077818
_cell_angle_gamma 90.000000
_cell_volume 2686.651737
_symmetry_space_group_name_H-M "C 2/C"
_symmetry_group_IT_number 15
_symmetry_cell_setting 'monoclinic'
loop_
_space_group_symop_operation_xyz
x,y,z
-x,y,1/2-z
-x,-y,-z
x,-y,1/2+z
1/2+x,1/2+y,z
1/2-x,1/2+y,1/2-z
1/2-x,1/2-y,-z
1/2+x,1/2-y,1/2+z
loop_
_atom_site_type_symbol
_atom_site_label
_atom_site_fract_x
_atom_site_fract_y
_atom_site_fract_z
Si Si1 0.438139 0.658057 0.571436
Si Si2 0.210019 0.129946 0.923093
Si Si3 0.254657 0.137618 0.110962
Si Si4 0.482492 0.044521 0.152106
Si Si5 0.436888 0.872017 0.499440
Si Si6 0.837112 0.622053 0.606552
Si Si7 0.199325 0.846895 0.089174
Si Si8 0.129765 0.144848 0.435572
O O1 0.378219 0.606840 0.546226
O O2 0.456589 0.760313 0.493849
O O3 0.375839 0.670988 0.741957
O O4 0.530865 0.620450 0.511144
O O5 0.230303 0.245807 0.900096
O O6 0.287260 0.092516 0.766718
O O7 0.213959 0.105607 0.042842
O O8 0.352640 0.105625 0.021096
O O9 0.193796 0.109309 0.274435
O O10 0.500000 0.083081 0.250000
O O11 0.416341 0.095125 0.144449
O O12 0.572090 0.071685 0.999107
O O13 0.485837 0.929417 0.141668
O O14 0.773691 0.597802 0.575484
O O15 0.857995 0.737373 0.579484
O O16 0.250000 0.750000 0.000000
O O17 0.158987 0.886958 0.022772
#
# Coordination Sequence:
#
# PCOD9256663 Si02
#       8
#     8   8   8   8   8   8   8   8
#     4  10  18  32  51  78 112 137 171 226 269 327
#     4   8  17  33  50  71  98 139 174 218 273 312
#     4   9  18  33  51  70 100 138 179 218 260 324
#     4  11  24  35  52  77 106 153 185 216 259 316
#     4  10  22  37  47  73 110 144 182 212 258 321
#     4   9  18  32  49  71 104 139 177 216 261 323
#     4   9  18  28  50  77 103 141 172 218 282 321
#     4  10  18  28  51  81 101 135 172 221 283 317
#
# _framework density 23.821472
#
# number of rings (size 3 to 8) (size 9 to 14) (size 15 to 20)
#    0.000    2.500    1.250    2.625    5.250    2.500 
#    4.500    0.000    0.000    0.000    0.000    3.500 
#    7.500    0.000    0.000    0.000    0.000    0.000 
#
# Total GULP energy -178604.280111 kJ/mol
# GULP energy per Si atom -5581.383753 kJ/mol
# Density = 2.376725 g / cm^3
# Si number density = 23.821472 Si / 1000 Ang^3
#
#
#
# Elastic Constant Matrix: (Units=GPa)
#
#
# Indices 1 2 3 4 5 6 
#
# 1 183.3354 -4.0575 52.9551 0.0000 15.9846 0.0000
# 2 -4.0575 35.3854 -6.4282 0.0000 1.9352 0.0000
# 3 52.9551 -6.4282 49.2904 0.0000 16.6721 0.0000
# 4 0.0000 0.0000 0.0000 11.4624 0.0000 -4.3865
# 5 15.9846 1.9352 16.6721 0.0000 41.4984 0.0000
# 6 0.0000 0.0000 0.0000 -4.3865 0.0000 22.8694
#
#
#
# Elastic Compliance Matrix: (Units=1/GPa)
#
#
# Indices 1 2 3 4 5 6 
#
# 1 0.007933 -0.000715 -0.008787 0.000000 0.000508 0.000000
# 2 -0.000715 0.029410 0.005756 0.000000 -0.003409 0.000000
# 3 -0.008787 0.005756 0.034053 0.000000 -0.010564 0.000000
# 4 0.000000 0.000000 0.000000 0.094153 0.000000 0.018059
# 5 0.000508 -0.003409 -0.010564 0.000000 0.028305 0.000000
# 6 0.000000 0.000000 0.000000 0.018059 0.000000 0.047190
#
#
# Mechanical properties :
#
#
# Convention : Reuss Voigt Hill
#
# Bulk Modulus (GPa) = 15.64842 39.21668 27.43255
# Shear Modulus (GPa) = 18.52974 30.20215 24.36595
#
# Velocity S-wave (km/s) = 2.79204 3.56456 3.20168
# Velocity P-wave (km/s) = 4.12035 5.78272 5.02082
#
# Compressibility (1/GPa) = 0.06390422
#
# Stress axis : x y z
#
# Youngs Moduli (GPa) = 126.06308 34.00152 29.36630
#
# Poissons Ratio (x) = 0.02430 0.25805
# Poissons Ratio (y) = 0.09008 -0.16904
# Poissons Ratio (z) = 1.10777 -0.19572
#
# Static dielectric constant tensor:
#      x y z
#    x 1.969170 0.000000 0.041830 
#    y 0.000000 2.052590 0.000000 
#    z 0.041830 0.000000 1.858760 
# 
# From -- ./inp_files/114078.got.cif
#   From: 2010.05.17/outbox.cif.g08.bks.cpg/sg15_58_cif.got.tgz:114078.got - 2010.06.03 18:47:42.
