data_PCOD9256379
_publ_section_title
;
Structure prediction by ZEFSAII (Michael W. Deem and Ramdas Pophale) SiO2 
 PCOD9256379
Probable space group: C 2/C
;
_chemical_formula_sum "Si O2"
_cell_formula_units_Z 40
_cell_length_a 9.109761
_cell_length_b 11.771720
_cell_length_c 20.098020
_cell_angle_alpha 90.000000
_cell_angle_beta 139.351644
_cell_angle_gamma 90.000000
_cell_volume 1403.969892
_symmetry_space_group_name_H-M "C 2/C"
_symmetry_group_IT_number 15
_symmetry_cell_setting 'monoclinic'
loop_
_space_group_symop_operation_xyz
x,y,z
-x,y,1/2-z
-x,-y,-z
x,-y,1/2+z
1/2+x,1/2+y,z
1/2-x,1/2+y,1/2-z
1/2-x,1/2-y,-z
1/2+x,1/2-y,1/2+z
loop_
_atom_site_type_symbol
_atom_site_label
_atom_site_fract_x
_atom_site_fract_y
_atom_site_fract_z
Si Si1 0.004914 0.589886 0.106542
Si Si2 0.508157 0.270608 0.502326
Si Si3 0.382282 0.578259 0.847080
Si Si4 0.000000 0.019621 0.250000
Si Si5 0.498411 0.823679 0.135012
Si Si6 0.500000 0.896148 0.750000
O O1 0.918691 0.663646 0.016171
O O2 0.271635 0.585844 0.183140
O O3 0.948732 0.454933 0.094158
O O4 0.965958 0.651919 0.164120
O O5 0.526160 0.378230 0.458839
O O6 0.593440 0.249119 0.606246
O O7 0.236384 0.272673 0.422199
O O8 0.513432 0.547827 0.824587
O O9 0.190097 0.665933 0.756198
O O10 0.222121 0.475616 0.815987
#
# Coordination Sequence:
#
# PCOD9256379 Si02
#       6
#     8   8   8   4   8   4
#     4  10  19  34  56  85 113 148 194 235 281 351
#     4  11  19  31  64  80 107 154 197 225 295 346
#     4  10  17  37  55  77 113 152 179 238 292 333
#     4   8  20  32  54  80 116 144 182 240 294 318
#     4   9  20  35  51  88 115 144 191 245 279 345
#     4   8  16  34  52  72 118 142 176 244 280 318
#
# _framework density 28.490639999999999
#
# number of rings (size 3 to 8) (size 9 to 14) (size 15 to 20)
#    0.000    2.800    4.000    0.600    2.800    0.800 
#    0.000    4.000    0.000    9.600    0.000    0.000 
#    0.000    0.000    0.000    0.000    0.000    0.000 
#
# Total GULP energy -112007.464496 kJ/mol
# GULP energy per Si atom -5600.373225 kJ/mol
# Density = 2.842579 g / cm^3
# Si number density = 28.490640 Si / 1000 Ang^3
#
#
#
# Elastic Constant Matrix: (Units=GPa)
#
#
# Indices 1 2 3 4 5 6 
#
# 1 201.9828 35.6438 9.1814 0.0000 -41.8692 0.0000
# 2 35.6438 129.4787 35.9917 0.0000 -17.6201 0.0000
# 3 9.1814 35.9917 126.7852 0.0000 -36.1808 0.0000
# 4 0.0000 0.0000 0.0000 30.0952 0.0000 -15.8945
# 5 -41.8692 -17.6201 -36.1808 0.0000 55.2710 0.0000
# 6 0.0000 0.0000 0.0000 -15.8945 0.0000 44.0628
#
#
#
# Elastic Compliance Matrix: (Units=1/GPa)
#
#
# Indices 1 2 3 4 5 6 
#
# 1 0.006210 -0.001400 0.001430 0.000000 0.005194 0.000000
# 2 -0.001400 0.008786 -0.002332 0.000000 0.000214 0.000000
# 3 0.001430 -0.002332 0.010505 0.000000 0.007217 0.000000
# 4 0.000000 0.000000 0.000000 0.041048 0.000000 0.014807
# 5 0.005194 0.000214 0.007217 0.000000 0.026819 0.000000
# 6 0.000000 0.000000 0.000000 0.014807 0.000000 0.028036
#
#
# Mechanical properties :
#
#
# Convention : Reuss Voigt Hill
#
# Bulk Modulus (GPa) = 47.85426 68.87562 58.36494
# Shear Modulus (GPa) = 37.60143 51.04777 44.32460
#
# Velocity S-wave (km/s) = 3.63682 4.23749 3.94859
# Velocity P-wave (km/s) = 5.87097 6.94039 6.42796
#
# Compressibility (1/GPa) = 0.02089678
#
# Stress axis : x y z
#
# Youngs Moduli (GPa) = 161.04153 113.81761 95.19151
#
# Poissons Ratio (x) = 0.15936 -0.13611
# Poissons Ratio (y) = 0.22548 0.22196
# Poissons Ratio (z) = -0.23027 0.26539
#
# Static dielectric constant tensor:
#      x y z
#    x 2.215150 0.000000 0.055210 
#    y 0.000000 2.239210 0.000000 
#    z 0.055210 0.000000 2.272050 
# 
# From -- ./inp_files/188423.got.cif
#   From: 2010.05.17/outbox.cif.g08.bks.cpg/sg15_95_cif.got.tgz:188423.got - 2010.06.03 18:47:42.
