data_PCOD9256233
_publ_section_title
;
Structure prediction by ZEFSAII (Michael W. Deem and Ramdas Pophale) SiO2 
 PCOD9256233
Probable space group: C 2/C
;
_chemical_formula_sum "Si O2"
_cell_formula_units_Z 32
_cell_length_a 24.718071
_cell_length_b 11.775814
_cell_length_c 8.550511
_cell_angle_alpha 90.000000
_cell_angle_beta 29.395081
_cell_angle_gamma 90.000000
_cell_volume 1221.596439
_symmetry_space_group_name_H-M "C 2/C"
_symmetry_group_IT_number 15
_symmetry_cell_setting 'monoclinic'
loop_
_space_group_symop_operation_xyz
x,y,z
-x,y,1/2-z
-x,-y,-z
x,-y,1/2+z
1/2+x,1/2+y,z
1/2-x,1/2+y,1/2-z
1/2-x,1/2-y,-z
1/2+x,1/2-y,1/2+z
loop_
_atom_site_type_symbol
_atom_site_label
_atom_site_fract_x
_atom_site_fract_y
_atom_site_fract_z
Si Si1 0.084605 0.034892 0.153879
Si Si2 0.657619 0.158214 0.242197
Si Si3 0.731445 0.587647 0.053695
Si Si4 0.054411 0.626848 0.845118
O O1 0.000000 0.098103 0.250000
O O2 0.177554 0.100626 0.019078
O O3 0.140442 0.928280 0.920605
O O4 0.000000 0.000000 0.500000
O O5 0.608415 0.139225 0.538861
O O6 0.559354 0.194301 0.372535
O O7 0.750000 0.250000 0.000000
O O8 0.717640 0.039300 0.060126
O O9 0.844781 0.657200 0.794091
O O10 0.000000 0.500000 0.000000
#
# Coordination Sequence:
#
# PCOD9256233 Si02
#       4
#     8   8   8   8
#     4   9  18  31  53  90 120 162 223 287 323 384
#     4  10  20  36  58  97 133 166 217 293 349 386
#     4  10  17  35  61  88 123 171 236 270 321 417
#     4   9  19  36  62  93 123 180 232 266 315 429
#
# _framework density 26.195231
#
# number of rings (size 3 to 8) (size 9 to 14) (size 15 to 20)
#    0.000    2.500    2.500    0.000    0.000    0.000 
#   13.500    0.000    0.000    4.500    0.000    0.000 
#    0.000    0.000    0.000    0.000    0.000    0.000 
#
# Total GULP energy -89280.991813 kJ/mol
# GULP energy per Si atom -5580.061988 kJ/mol
# Density = 2.613561 g / cm^3
# Si number density = 26.195231 Si / 1000 Ang^3
#
#
#
# Elastic Constant Matrix: (Units=GPa)
#
#
# Indices 1 2 3 4 5 6 
#
# 1 220.0294 4.0190 77.9639 0.0000 -60.0757 0.0000
# 2 4.0190 37.6911 24.3337 0.0000 5.2599 0.0000
# 3 77.9639 24.3337 155.2438 0.0000 -28.1312 0.0000
# 4 0.0000 0.0000 0.0000 40.6916 0.0000 0.4806
# 5 -60.0757 5.2599 -28.1312 0.0000 70.5232 0.0000
# 6 0.0000 0.0000 0.0000 0.4806 0.0000 21.7854
#
#
#
# Elastic Compliance Matrix: (Units=1/GPa)
#
#
# Indices 1 2 3 4 5 6 
#
# 1 0.006732 0.000293 -0.002578 0.000000 0.004685 0.000000
# 2 0.000293 0.030831 -0.005768 0.000000 -0.004351 0.000000
# 3 -0.002578 -0.005768 0.008968 0.000000 0.001812 0.000000
# 4 0.000000 0.000000 0.000000 0.024582 0.000000 -0.000542
# 5 0.004685 -0.004351 0.001812 0.000000 0.019218 0.000000
# 6 0.000000 0.000000 0.000000 -0.000542 0.000000 0.045914
#
#
# Mechanical properties :
#
#
# Convention : Reuss Voigt Hill
#
# Bulk Modulus (GPa) = 32.86730 69.51085 51.18907
# Shear Modulus (GPa) = 30.77046 47.04321 38.90683
#
# Velocity S-wave (km/s) = 3.43105 4.24237 3.85809
# Velocity P-wave (km/s) = 5.31699 7.11268 6.27936
#
# Compressibility (1/GPa) = 0.03042538
#
# Stress axis : x y z
#
# Youngs Moduli (GPa) = 148.54521 32.43446 111.50147
#
# Poissons Ratio (x) = -0.00949 0.28743
# Poissons Ratio (y) = -0.04348 0.64315
# Poissons Ratio (z) = 0.38292 0.18709
#
# Static dielectric constant tensor:
#      x y z
#    x 2.238210 0.000000 -0.098870 
#    y 0.000000 2.189810 0.000000 
#    z -0.098870 0.000000 2.026890 
# 
# From -- ./inp_files/37221.got.cif
#   From: 2010.05.17/outbox.cif.g08.bks.cpg/sg15_19_cif.got.tgz:37221.got - 2010.06.03 18:47:42.
