data_PCOD9256039
_publ_section_title
;
Structure prediction by ZEFSAII (Michael W. Deem and Ramdas Pophale) SiO2 
 PCOD9256039
Probable space group: C 2/C
;
_chemical_formula_sum "Si O2"
_cell_formula_units_Z 52
_cell_length_a 19.013945
_cell_length_b 19.143125
_cell_length_c 9.047506
_cell_angle_alpha 90.000000
_cell_angle_beta 133.292896
_cell_angle_gamma 90.000000
_cell_volume 2396.958308
_symmetry_space_group_name_H-M "C 2/C"
_symmetry_group_IT_number 15
_symmetry_cell_setting 'monoclinic'
loop_
_space_group_symop_operation_xyz
x,y,z
-x,y,1/2-z
-x,-y,-z
x,-y,1/2+z
1/2+x,1/2+y,z
1/2-x,1/2+y,1/2-z
1/2-x,1/2-y,-z
1/2+x,1/2-y,1/2+z
loop_
_atom_site_type_symbol
_atom_site_label
_atom_site_fract_x
_atom_site_fract_y
_atom_site_fract_z
Si Si1 0.880231 0.117409 0.954560
Si Si2 0.084542 0.405724 0.625808
Si Si3 0.267953 0.169110 0.985662
Si Si4 0.395823 0.658131 0.285088
Si Si5 0.071002 0.034105 0.980883
Si Si6 0.563835 0.207673 0.478573
Si Si7 0.500000 0.990836 0.250000
O O1 0.823239 0.134765 0.724098
O O2 0.873049 0.035546 0.987660
O O3 0.846280 0.157126 0.053670
O O4 0.990473 0.141135 0.083189
O O5 0.070966 0.443071 0.450153
O O6 0.005934 0.343362 0.530560
O O7 0.056791 0.461097 0.714491
O O8 0.187629 0.372385 0.812754
O O9 0.351596 0.166305 0.981542
O O10 0.250000 0.250000 0.000000
O O11 0.368714 0.594921 0.355498
O O12 0.392280 0.731275 0.361105
O O13 0.000000 0.060806 0.750000
O O14 0.000000 0.000000 0.000000
O O15 0.500000 0.237731 0.250000
#
# Coordination Sequence:
#
# PCOD9256039 Si02
#       7
#     8   8   8   8   8   8   4
#     4  10  20  36  55  84 123 156 199 254 284 365
#     4  10  21  42  67  95 120 163 208 264 312 375
#     4  11  23  40  57  88 129 156 201 261 317 365
#     4  10  20  36  61  84 115 166 203 235 296 366
#     4  10  17  34  55  80 112 150 195 234 280 347
#     4  10  20  38  60  85 116 160 206 252 306 371
#     4  10  20  42  74  90 116 160 222 256 310 374
#
# _framework density 21.694161999999999
#
# number of rings (size 3 to 8) (size 9 to 14) (size 15 to 20)
#    0.000    1.846    5.385    2.308    0.000    4.308 
#    2.769    0.000    0.000    0.000    0.000    0.000 
#    0.000    0.000    0.000    0.000    0.000    0.000 
#
# Total GULP energy -145174.870746 kJ/mol
# GULP energy per Si atom -5583.648875 kJ/mol
# Density = 2.164479 g / cm^3
# Si number density = 21.694162 Si / 1000 Ang^3
#
#
#
# Elastic Constant Matrix: (Units=GPa)
#
#
# Indices 1 2 3 4 5 6 
#
# 1 29.9052 -4.8968 7.1758 0.0000 -4.5384 0.0000
# 2 -4.8968 89.9587 41.9381 0.0000 -13.5893 0.0000
# 3 7.1758 41.9381 109.8153 0.0000 -6.6385 0.0000
# 4 0.0000 0.0000 0.0000 19.9197 0.0000 -8.5581
# 5 -4.5384 -13.5893 -6.6385 0.0000 28.1258 0.0000
# 6 0.0000 0.0000 0.0000 -8.5581 0.0000 19.3090
#
#
#
# Elastic Compliance Matrix: (Units=1/GPa)
#
#
# Indices 1 2 3 4 5 6 
#
# 1 0.036243 0.004834 -0.003773 0.000000 0.007293 0.000000
# 2 0.004834 0.015026 -0.005649 0.000000 0.006707 0.000000
# 3 -0.003773 -0.005649 0.011472 0.000000 -0.000630 0.000000
# 4 0.000000 0.000000 0.000000 0.062010 0.000000 0.027484
# 5 0.007293 0.006707 -0.000630 0.000000 0.039823 0.000000
# 6 0.000000 0.000000 0.000000 0.027484 0.000000 0.063971
#
#
# Mechanical properties :
#
#
# Convention : Reuss Voigt Hill
#
# Bulk Modulus (GPa) = 18.66942 35.34591 27.00767
# Shear Modulus (GPa) = 19.56373 25.83503 22.69938
#
# Velocity S-wave (km/s) = 3.00625 3.45465 3.23822
# Velocity P-wave (km/s) = 4.54692 5.67812 5.14371
#
# Compressibility (1/GPa) = 0.05356354
#
# Stress axis : x y z
#
# Youngs Moduli (GPa) = 27.59179 66.55203 87.16965
#
# Poissons Ratio (x) = -0.32169 0.32892
# Poissons Ratio (y) = -0.13337 0.49240
# Poissons Ratio (z) = 0.10411 0.37593
#
# Static dielectric constant tensor:
#      x y z
#    x 1.847440 0.000000 -0.004600 
#    y 0.000000 1.816290 0.000000 
#    z -0.004600 0.000000 1.808600 
# 
# From -- ./inp_files/63449.got.cif
#   From: 2010.05.17/outbox.cif.g08.bks.cpg/sg15_32_cif.got.tgz:63449.got - 2010.06.03 18:47:42.
