data_PCOD9256961
_publ_section_title
;
Structure prediction by ZEFSAII (Michael W. Deem and Ramdas Pophale) SiO2 
 PCOD9256961
Probable space group: C 2/C
;
_chemical_formula_sum "Si O2"
_cell_formula_units_Z 52
_cell_length_a 16.850422
_cell_length_b 21.685240
_cell_length_c 8.416078
_cell_angle_alpha 90.000000
_cell_angle_beta 69.667743
_cell_angle_gamma 90.000000
_cell_volume 2883.670640
_symmetry_space_group_name_H-M "C 2/C"
_symmetry_group_IT_number 15
_symmetry_cell_setting 'monoclinic'
loop_
_space_group_symop_operation_xyz
x,y,z
-x,y,1/2-z
-x,-y,-z
x,-y,1/2+z
1/2+x,1/2+y,z
1/2-x,1/2+y,1/2-z
1/2-x,1/2-y,-z
1/2+x,1/2-y,1/2+z
loop_
_atom_site_type_symbol
_atom_site_label
_atom_site_fract_x
_atom_site_fract_y
_atom_site_fract_z
Si Si1 0.805366 0.432486 0.265702
Si Si2 0.831394 0.559596 0.123390
Si Si3 0.508817 0.911333 0.426920
Si Si4 0.000000 0.731673 0.250000
Si Si5 0.962895 0.268388 0.111783
Si Si6 0.181258 0.684693 0.192733
Si Si7 0.767965 0.696879 0.698005
O O1 0.782240 0.500479 0.223408
O O2 0.821970 0.436201 0.441272
O O3 0.892643 0.420649 0.104439
O O4 0.751142 0.370761 0.279203
O O5 0.802327 0.622658 0.224312
O O6 0.934167 0.557469 0.079152
O O7 0.500000 0.932191 0.250000
O O8 0.495822 0.837179 0.433011
O O9 0.083887 0.690869 0.209153
O O10 0.985924 0.765025 0.429536
O O11 0.861876 0.280551 0.187186
O O12 0.000000 0.242113 0.250000
O O13 0.205403 0.746373 0.273042
O O14 0.231819 0.686449 0.992341
#
# Coordination Sequence:
#
# PCOD9256961 Si02
#       7
#     8   8   8   4   8   8   8
#     4  10  20  31  45  69 101 135 169 202 250 296
#     4  11  19  31  47  70  99 135 170 204 243 306
#     4   8  15  27  42  63  93 130 163 194 230 282
#     4  10  18  30  50  72  94 132 174 208 248 306
#     4   9  16  30  47  69  99 129 166 208 246 292
#     4  10  20  34  51  71  99 133 176 211 259 298
#     4   9  20  35  49  69 101 134 169 216 256 299
#
# _framework density 18.032572999999999
#
# number of rings (size 3 to 8) (size 9 to 14) (size 15 to 20)
#    0.000    2.462    1.538    2.308    0.000    0.615 
#    4.154    0.000    0.000    0.000    0.000    0.000 
#    2.308    5.538    0.000    0.000    0.000    0.000 
#
# Total GULP energy -144743.188300 kJ/mol
# GULP energy per Si atom -5567.045704 kJ/mol
# Density = 1.799153 g / cm^3
# Si number density = 18.032573 Si / 1000 Ang^3
#
#
#
# Elastic Constant Matrix: (Units=GPa)
#
#
# Indices 1 2 3 4 5 6 
#
# 1 30.5679 32.8147 16.5934 0.0000 11.4247 0.0000
# 2 32.8147 121.7260 31.1507 0.0000 10.7594 0.0000
# 3 16.5934 31.1507 70.0381 0.0000 19.0614 0.0000
# 4 0.0000 0.0000 0.0000 19.7076 0.0000 4.9623
# 5 11.4247 10.7594 19.0614 0.0000 15.5772 0.0000
# 6 0.0000 0.0000 0.0000 4.9623 0.0000 7.9303
#
#
#
# Elastic Compliance Matrix: (Units=1/GPa)
#
#
# Indices 1 2 3 4 5 6 
#
# 1 0.059827 -0.013327 0.001784 0.000000 -0.036857 0.000000
# 2 -0.013327 0.012282 -0.003983 0.000000 0.006165 0.000000
# 3 0.001784 -0.003983 0.022841 0.000000 -0.026507 0.000000
# 4 0.000000 0.000000 0.000000 0.060232 0.000000 -0.037690
# 5 -0.036857 0.006165 -0.026507 0.000000 0.119406 0.000000
# 6 0.000000 0.000000 0.000000 -0.037690 0.000000 0.149682
#
#
# Mechanical properties :
#
#
# Convention : Reuss Voigt Hill
#
# Bulk Modulus (GPa) = 15.64986 42.60552 29.12769
# Shear Modulus (GPa) = 10.49048 18.09456 14.29252
#
# Velocity S-wave (km/s) = 2.41457 3.17114 2.81836
# Velocity P-wave (km/s) = 4.05845 6.08987 5.17482
#
# Compressibility (1/GPa) = 0.06389834
#
# Stress axis : x y z
#
# Youngs Moduli (GPa) = 16.71477 81.41853 43.78091
#
# Poissons Ratio (x) = 1.08506 -0.07810
# Poissons Ratio (y) = 0.22276 0.17439
# Poissons Ratio (z) = -0.02982 0.32430
#
# Static dielectric constant tensor:
#      x y z
#    x 1.657830 0.000000 0.012610 
#    y 0.000000 1.655480 0.000000 
#    z 0.012610 0.000000 1.685210 
# 
# From -- ./inp_files/49666.got.cif
#   From: 2010.05.17/outbox.cif.g08.bks.cpg/sg15_25_cif.got.tgz:49666.got - 2010.06.03 18:47:42.
