data_PCOD9256103
_publ_section_title
;
Structure prediction by ZEFSAII (Michael W. Deem and Ramdas Pophale) SiO2 
 PCOD9256103
Probable space group: C 2/C
;
_chemical_formula_sum "Si O2"
_cell_formula_units_Z 32
_cell_length_a 15.366849
_cell_length_b 7.265527
_cell_length_c 11.744786
_cell_angle_alpha 90.000000
_cell_angle_beta 68.270167
_cell_angle_gamma 90.000000
_cell_volume 1218.104875
_symmetry_space_group_name_H-M "C 2/C"
_symmetry_group_IT_number 15
_symmetry_cell_setting 'monoclinic'
loop_
_space_group_symop_operation_xyz
x,y,z
-x,y,1/2-z
-x,-y,-z
x,-y,1/2+z
1/2+x,1/2+y,z
1/2-x,1/2+y,1/2-z
1/2-x,1/2-y,-z
1/2+x,1/2-y,1/2+z
loop_
_atom_site_type_symbol
_atom_site_label
_atom_site_fract_x
_atom_site_fract_y
_atom_site_fract_z
Si Si1 0.830444 0.727428 0.554895
Si Si2 0.309841 0.515237 0.760931
Si Si3 0.566436 0.324488 0.625950
Si Si4 0.532023 0.715786 0.895551
O O1 0.750000 0.750000 0.500000
O O2 0.794346 0.578284 0.663115
O O3 0.931380 0.684392 0.451866
O O4 0.829631 0.913319 0.632285
O O5 0.342928 0.385444 0.848666
O O6 0.376334 0.698731 0.728089
O O7 0.500000 0.223789 0.750000
O O8 0.509755 0.511630 0.618496
O O9 0.574833 0.239792 0.498830
#
# Coordination Sequence:
#
# PCOD9256103 Si02
#       4
#     8   8   8   8
#     4  12  22  36  61  90 121 153 200 249 293 349
#     4  11  21  36  61  92 114 158 199 245 295 352
#     4   9  14  30  59  81 105 144 207 230 276 343
#     4  10  17  34  59  84 110 153 200 238 282 358
#
# _framework density 26.270315
#
# number of rings (size 3 to 8) (size 9 to 14) (size 15 to 20)
#    0.000    1.500   10.000    0.000    0.000    0.000 
#    0.000    6.250    0.000    3.000    0.000    0.000 
#    0.000    0.000    0.000    0.000    0.000    0.000 
#
# Total GULP energy -89129.414343 kJ/mol
# GULP energy per Si atom -5570.588396 kJ/mol
# Density = 2.621052 g / cm^3
# Si number density = 26.270315 Si / 1000 Ang^3
#
#
#
# Elastic Constant Matrix: (Units=GPa)
#
#
# Indices 1 2 3 4 5 6 
#
# 1 106.7712 28.7458 53.6767 0.0000 9.0312 0.0000
# 2 28.7458 50.4982 17.1372 0.0000 -7.6465 0.0000
# 3 53.6767 17.1372 124.5526 0.0000 25.8367 0.0000
# 4 0.0000 0.0000 0.0000 19.7033 0.0000 -11.7772
# 5 9.0312 -7.6465 25.8367 0.0000 55.9377 0.0000
# 6 0.0000 0.0000 0.0000 -11.7772 0.0000 15.0548
#
#
#
# Elastic Compliance Matrix: (Units=1/GPa)
#
#
# Indices 1 2 3 4 5 6 
#
# 1 0.013515 -0.006185 -0.004806 0.000000 -0.000808 0.000000
# 2 -0.006185 0.024732 -0.001820 0.000000 0.005220 0.000000
# 3 -0.004806 -0.001820 0.011326 0.000000 -0.004704 0.000000
# 4 0.000000 0.000000 0.000000 0.095328 0.000000 0.074575
# 5 -0.000808 0.005220 -0.004704 0.000000 0.020894 0.000000
# 6 0.000000 0.000000 0.000000 0.074575 0.000000 0.124763
#
#
# Mechanical properties :
#
#
# Convention : Reuss Voigt Hill
#
# Bulk Modulus (GPa) = 41.75211 53.43793 47.59502
# Shear Modulus (GPa) = 15.42428 30.28999 22.85713
#
# Velocity S-wave (km/s) = 2.42572 3.39929 2.95290
# Velocity P-wave (km/s) = 4.87578 5.98269 5.45737
#
# Compressibility (1/GPa) = 0.02395089
#
# Stress axis : x y z
#
# Youngs Moduli (GPa) = 73.98981 40.43424 88.29100
#
# Poissons Ratio (x) = 0.25008 0.42433
# Poissons Ratio (y) = 0.45762 0.16071
# Poissons Ratio (z) = 0.35560 0.07360
#
# Static dielectric constant tensor:
#      x y z
#    x 2.086710 0.000000 -0.037810 
#    y 0.000000 2.224710 0.000000 
#    z -0.037810 0.000000 2.183520 
# 
# From -- ./inp_files/93444.got.cif
#   From: 2010.05.17/outbox.cif.g08.bks.cpg/sg15_47_cif.got.tgz:93444.got - 2010.06.03 18:47:42.
