data_PCOD9256363
_publ_section_title
;
Structure prediction by ZEFSAII (Michael W. Deem and Ramdas Pophale) SiO2 
 PCOD9256363
Probable space group: C 2/C
;
_chemical_formula_sum "Si O2"
_cell_formula_units_Z 48
_cell_length_a 13.629564
_cell_length_b 26.926331
_cell_length_c 7.793832
_cell_angle_alpha 90.000000
_cell_angle_beta 44.333254
_cell_angle_gamma 90.000000
_cell_volume 1998.858567
_symmetry_space_group_name_H-M "C 2/C"
_symmetry_group_IT_number 15
_symmetry_cell_setting 'monoclinic'
loop_
_space_group_symop_operation_xyz
x,y,z
-x,y,1/2-z
-x,-y,-z
x,-y,1/2+z
1/2+x,1/2+y,z
1/2-x,1/2+y,1/2-z
1/2-x,1/2-y,-z
1/2+x,1/2-y,1/2+z
loop_
_atom_site_type_symbol
_atom_site_label
_atom_site_fract_x
_atom_site_fract_y
_atom_site_fract_z
Si Si1 0.951248 0.585148 0.548625
Si Si2 0.098678 0.798165 0.789606
Si Si3 0.232759 0.445271 0.542746
Si Si4 0.973562 0.897486 0.051813
Si Si5 0.886856 0.311783 0.239987
Si Si6 0.798967 0.941620 0.948679
O O1 0.863369 0.556345 0.511230
O O2 0.925345 0.644224 0.561968
O O3 0.863528 0.573193 0.829401
O O4 0.113100 0.570595 0.327157
O O5 0.119667 0.742933 0.837344
O O6 0.242234 0.817734 0.526002
O O7 0.000000 0.790351 0.750000
O O8 0.024759 0.840872 0.990556
O O9 0.297354 0.499729 0.482786
O O10 0.365317 0.409936 0.338149
O O11 0.878849 0.911368 0.000739
O O12 0.112685 0.929764 0.832734
O O13 0.000000 0.313950 0.250000
#
# Coordination Sequence:
#
# PCOD9256363 Si02
#       6
#     8   8   8   8   8   8
#     4  10  20  39  53  83 119 155 195 237 293 348
#     4  10  17  36  65  88 114 149 197 250 297 340
#     4  10  21  34  57  82 118 159 190 241 289 349
#     4  10  18  34  57  85 112 145 195 246 290 339
#     4  10  21  36  61  93 115 149 198 249 292 348
#     4  10  18  34  56  81 111 156 201 233 278 344
#
# _framework density 24.013704000000001
#
# number of rings (size 3 to 8) (size 9 to 14) (size 15 to 20)
#    0.000    2.000    3.333    2.000    0.000    0.000 
#    9.000    2.500    0.000    0.000    0.000    0.000 
#    0.000    0.000    0.000    0.000    0.000    0.000 
#
# Total GULP energy -134064.474348 kJ/mol
# GULP energy per Si atom -5586.019764 kJ/mol
# Density = 2.395905 g / cm^3
# Si number density = 24.013704 Si / 1000 Ang^3
#
#
#
# Elastic Constant Matrix: (Units=GPa)
#
#
# Indices 1 2 3 4 5 6 
#
# 1 61.7115 -7.7971 34.9324 0.0000 -8.4726 0.0000
# 2 -7.7971 170.2086 46.5003 0.0000 11.0833 0.0000
# 3 34.9324 46.5003 214.4988 0.0000 -14.9313 0.0000
# 4 0.0000 0.0000 0.0000 27.6269 0.0000 -11.1656
# 5 -8.4726 11.0833 -14.9313 0.0000 49.1717 0.0000
# 6 0.0000 0.0000 0.0000 -11.1656 0.0000 -11.0117
#
#
#
# Elastic Compliance Matrix: (Units=1/GPa)
#
#
# Indices 1 2 3 4 5 6 
#
# 1 0.018490 0.001610 -0.003232 0.000000 0.001842 0.000000
# 2 0.001610 0.006556 -0.001805 0.000000 -0.001748 0.000000
# 3 -0.003232 -0.001805 0.005690 0.000000 0.001578 0.000000
# 4 0.000000 0.000000 0.000000 0.025675 0.000000 -0.026034
# 5 0.001842 -0.001748 0.001578 0.000000 0.021527 0.000000
# 6 0.000000 0.000000 0.000000 -0.026034 0.000000 -0.064415
#
#
# Mechanical properties :
#
#
# Convention : Reuss Voigt Hill
#
# Bulk Modulus (GPa) = 41.87358 65.96560 53.91959
# Shear Modulus (GPa) = 176.44246 38.00961 107.22603
#
# Velocity S-wave (km/s) = 8.58110 3.98280 6.68947
# Velocity P-wave (km/s) = 10.75433 6.97709 9.06464
#
# Compressibility (1/GPa) = 0.02388141
#
# Stress axis : x y z
#
# Youngs Moduli (GPa) = 54.08251 152.53412 175.76086
#
# Poissons Ratio (x) = -0.24559 0.56808
# Poissons Ratio (y) = -0.08708 0.31727
# Poissons Ratio (z) = 0.17480 0.27535
#
# Static dielectric constant tensor:
#      x y z
#    x 1.892610 0.000000 0.082990 
#    y 0.000000 1.979950 0.000000 
#    z 0.082990 0.000000 1.918540 
# 
# From -- ./inp_files/114562.got.cif
#   From: 2010.05.17/outbox.cif.g08.bks.cpg/sg15_58_cif.got.tgz:114562.got - 2010.06.03 18:47:42.
