data_PCOD9256300
_publ_section_title
;
Structure prediction by ZEFSAII (Michael W. Deem and Ramdas Pophale) SiO2 
 PCOD9256300
Probable space group: C 2/C
;
_chemical_formula_sum "Si O2"
_cell_formula_units_Z 32
_cell_length_a 7.039222
_cell_length_b 18.244125
_cell_length_c 13.558604
_cell_angle_alpha 90.000000
_cell_angle_beta 41.218955
_cell_angle_gamma 90.000000
_cell_volume 1147.380481
_symmetry_space_group_name_H-M "C 2/C"
_symmetry_group_IT_number 15
_symmetry_cell_setting 'monoclinic'
loop_
_space_group_symop_operation_xyz
x,y,z
-x,y,1/2-z
-x,-y,-z
x,-y,1/2+z
1/2+x,1/2+y,z
1/2-x,1/2+y,1/2-z
1/2-x,1/2-y,-z
1/2+x,1/2-y,1/2+z
loop_
_atom_site_type_symbol
_atom_site_label
_atom_site_fract_x
_atom_site_fract_y
_atom_site_fract_z
Si Si1 0.591695 0.270993 0.366796
Si Si2 0.000000 0.104163 0.750000
Si Si3 0.996277 0.162129 0.402815
Si Si4 0.725260 0.509484 0.006283
Si Si5 0.000000 0.434913 0.750000
O O1 0.250000 0.250000 0.500000
O O2 0.643211 0.338401 0.271579
O O3 0.796994 0.205619 0.251650
O O4 0.662663 0.291165 0.451608
O O5 0.174116 0.050128 0.609954
O O6 0.806743 0.092577 0.442778
O O7 0.242577 0.120265 0.369806
O O8 0.500000 0.500000 0.000000
O O9 0.022139 0.487912 0.835364
#
# Coordination Sequence:
#
# PCOD9256300 Si02
#       5
#     8   4   8   8   4
#     4  12  19  33  61  90 119 149 194 255 301 334
#     4  12  19  36  62  93 116 152 200 250 291 348
#     4  11  21  36  59  92 121 151 194 252 300 348
#     4  10  22  37  57  90 122 157 194 247 299 348
#     4  10  17  36  58  79 124 152 190 244 295 342
#
# _framework density 27.889614999999999
#
# number of rings (size 3 to 8) (size 9 to 14) (size 15 to 20)
#    0.000    1.000   10.000    0.000    0.000    0.000 
#    0.000   13.750    0.000    4.500    0.000    0.000 
#    0.000    0.000    0.000    0.000    0.000    0.000 
#
# Total GULP energy -89464.719485 kJ/mol
# GULP energy per Si atom -5591.544968 kJ/mol
# Density = 2.782614 g / cm^3
# Si number density = 27.889615 Si / 1000 Ang^3
#
#
#
# Elastic Constant Matrix: (Units=GPa)
#
#
# Indices 1 2 3 4 5 6 
#
# 1 106.9610 34.4377 32.3235 -0.0002 19.0270 0.0000
# 2 34.4377 208.8917 128.1991 0.0000 18.4971 0.0000
# 3 32.3235 128.1991 208.5529 -0.0003 22.9986 0.0001
# 4 -0.0002 0.0000 -0.0003 85.0257 0.0002 15.4974
# 5 19.0270 18.4971 22.9986 0.0002 35.2079 -0.0001
# 6 0.0000 0.0000 0.0001 15.4974 -0.0001 31.1091
#
#
#
# Elastic Compliance Matrix: (Units=1/GPa)
#
#
# Indices 1 2 3 4 5 6 
#
# 1 0.010704 -0.001034 -0.000480 0.000000 -0.004928 0.000000
# 2 -0.001034 0.007822 -0.004587 0.000000 -0.000555 0.000000
# 3 -0.000480 -0.004587 0.007968 0.000000 -0.002536 0.000000
# 4 0.000000 0.000000 0.000000 0.012936 0.000000 -0.006444
# 5 -0.004928 -0.000555 -0.002536 0.000000 0.033014 0.000000
# 6 0.000000 0.000000 0.000000 -0.006444 0.000000 0.035355
#
#
# Mechanical properties :
#
#
# Convention : Reuss Voigt Hill
#
# Bulk Modulus (GPa) = 69.96456 101.59181 85.77818
# Shear Modulus (GPa) = 40.07591 52.23156 46.15373
#
# Velocity S-wave (km/s) = 3.79482 4.33228 4.07242
# Velocity P-wave (km/s) = 6.65895 7.84412 7.27571
#
# Compressibility (1/GPa) = 0.01429295
#
# Stress axis : x y z
#
# Youngs Moduli (GPa) = 93.42579 127.85260 125.49480
#
# Poissons Ratio (x) = 0.13214 0.06026
# Poissons Ratio (y) = 0.09656 0.57559
# Poissons Ratio (z) = 0.04486 0.58641
#
# Static dielectric constant tensor:
#      x y z
#    x 2.417560 0.000000 -0.159740 
#    y 0.000000 2.239380 0.000000 
#    z -0.159740 0.000000 2.360710 
# 
# From -- ./inp_files/28404.got.cif
#   From: 2010.05.17/outbox.cif.g08.bks.cpg/sg15_15_cif.got.tgz:28404.got - 2010.06.03 18:47:42.
