data_PCOD9256545
_publ_section_title
;
Structure prediction by ZEFSAII (Michael W. Deem and Ramdas Pophale) SiO2 
 PCOD9256545
Probable space group: C 2/C
;
_chemical_formula_sum "Si O2"
_cell_formula_units_Z 60
_cell_length_a 19.267462
_cell_length_b 29.918904
_cell_length_c 5.390485
_cell_angle_alpha 90.000000
_cell_angle_beta 79.028631
_cell_angle_gamma 90.000000
_cell_volume 3050.610338
_symmetry_space_group_name_H-M "C 2/C"
_symmetry_group_IT_number 15
_symmetry_cell_setting 'monoclinic'
loop_
_space_group_symop_operation_xyz
x,y,z
-x,y,1/2-z
-x,-y,-z
x,-y,1/2+z
1/2+x,1/2+y,z
1/2-x,1/2+y,1/2-z
1/2-x,1/2-y,-z
1/2+x,1/2-y,1/2+z
loop_
_atom_site_type_symbol
_atom_site_label
_atom_site_fract_x
_atom_site_fract_y
_atom_site_fract_z
Si Si1 0.474381 0.308741 0.521622
Si Si2 0.000000 0.105675 0.250000
Si Si3 0.898012 0.514374 0.678469
Si Si4 0.599642 0.474361 0.813195
Si Si5 0.809265 0.404578 0.224974
Si Si6 0.186323 0.206310 0.283811
Si Si7 0.239368 0.448854 0.734140
Si Si8 0.226613 0.693125 0.771953
O O1 0.500000 0.288024 0.250000
O O2 0.511153 0.357834 0.524333
O O3 0.390683 0.312986 0.605684
O O4 0.500000 0.283301 0.750000
O O5 0.063910 0.073227 0.278872
O O6 0.932628 0.493384 0.416779
O O7 0.879743 0.565932 0.652114
O O8 0.822496 0.486309 0.746550
O O9 0.578778 0.505743 0.594847
O O10 0.684334 0.469875 0.769910
O O11 0.777762 0.418893 0.513066
O O12 0.818254 0.351894 0.208676
O O13 0.762267 0.420986 0.021655
O O14 0.184786 0.260430 0.272748
O O15 0.235119 0.194602 0.486635
O O16 0.218409 0.191182 0.997604
#
# Coordination Sequence:
#
# PCOD9256545 Si02
#       8
#     8   4   8   8   8   8   8   8
#     4  10  23  39  58  75  96 128 174 211 263 310
#     4  10  28  36  54  70  88 126 176 222 264 302
#     4   8  14  25  36  56  85 111 147 184 212 261
#     4  12  24  37  49  63  92 127 164 220 273 293
#     4  10  18  27  47  68  89 117 158 186 233 295
#     4  10  21  39  51  77 103 123 156 208 261 322
#     4  10  19  31  44  66  91 123 161 198 240 291
#     4  10  21  33  56  77 102 127 152 202 271 308
#
# _framework density 19.668194
#
# number of rings (size 3 to 8) (size 9 to 14) (size 15 to 20)
#    0.400    1.600    0.000    5.200    5.600    0.000 
#    0.000    0.000    0.000    0.000    0.000    0.000 
#    0.000    0.000    0.000    0.000    0.000   36.000 
#
# Total GULP energy -167240.303188 kJ/mol
# GULP energy per Si atom -5574.676773 kJ/mol
# Density = 1.962343 g / cm^3
# Si number density = 19.668194 Si / 1000 Ang^3
#
#
#
# Elastic Constant Matrix: (Units=GPa)
#
#
# Indices 1 2 3 4 5 6 
#
# 1 44.9276 -0.4633 5.3840 0.0000 5.0188 0.0000
# 2 -0.4633 88.2455 12.2988 0.0000 6.4927 0.0000
# 3 5.3840 12.2988 129.6013 0.0000 21.3055 0.0000
# 4 0.0000 0.0000 0.0000 11.0489 0.0000 -0.5348
# 5 5.0188 6.4927 21.3055 0.0000 26.6466 0.0000
# 6 0.0000 0.0000 0.0000 -0.5348 0.0000 1.0538
#
#
#
# Elastic Compliance Matrix: (Units=1/GPa)
#
#
# Indices 1 2 3 4 5 6 
#
# 1 0.022764 0.000468 -0.000307 0.000000 -0.004156 0.000000
# 2 0.000468 0.011609 -0.000739 0.000000 -0.002326 0.000000
# 3 -0.000307 -0.000739 0.008934 0.000000 -0.006905 0.000000
# 4 0.000000 0.000000 0.000000 0.092786 0.000000 0.047083
# 5 -0.004156 -0.002326 -0.006905 0.000000 0.044399 0.000000
# 6 0.000000 0.000000 0.000000 0.047083 0.000000 0.972797
#
#
# Mechanical properties :
#
#
# Convention : Reuss Voigt Hill
#
# Bulk Modulus (GPa) = 23.72386 33.02369 28.37378
# Shear Modulus (GPa) = 4.27901 24.12020 14.19961
#
# Velocity S-wave (km/s) = 1.47659 3.50573 2.68984
# Velocity P-wave (km/s) = 3.87238 5.76314 4.90964
#
# Compressibility (1/GPa) = 0.04215165
#
# Stress axis : x y z
#
# Youngs Moduli (GPa) = 43.92920 86.14320 111.93159
#
# Poissons Ratio (x) = -0.04032 0.03434
# Poissons Ratio (y) = -0.02056 0.08268
# Poissons Ratio (z) = 0.01348 0.06363
#
# Static dielectric constant tensor:
#      x y z
#    x 1.714560 0.000000 0.005670 
#    y 0.000000 1.680710 0.000000 
#    z 0.005670 0.000000 1.758200 
# 
# From -- ./inp_files/14274.got.cif
#   From: 2010.05.17/outbox.cif.g08.bks.cpg/sg15_8_cif.got.tgz:14274.got - 2010.06.03 18:47:42.
