data_PCOD9256494
_publ_section_title
;
Structure prediction by ZEFSAII (Michael W. Deem and Ramdas Pophale) SiO2 
 PCOD9256494
Probable space group: C 2/C
;
_chemical_formula_sum "Si O2"
_cell_formula_units_Z 56
_cell_length_a 18.812429
_cell_length_b 22.763920
_cell_length_c 6.903433
_cell_angle_alpha 90.000000
_cell_angle_beta 98.540838
_cell_angle_gamma 90.000000
_cell_volume 2923.572859
_symmetry_space_group_name_H-M "C 2/C"
_symmetry_group_IT_number 15
_symmetry_cell_setting 'monoclinic'
loop_
_space_group_symop_operation_xyz
x,y,z
-x,y,1/2-z
-x,-y,-z
x,-y,1/2+z
1/2+x,1/2+y,z
1/2-x,1/2+y,1/2-z
1/2-x,1/2-y,-z
1/2+x,1/2-y,1/2+z
loop_
_atom_site_type_symbol
_atom_site_label
_atom_site_fract_x
_atom_site_fract_y
_atom_site_fract_z
Si Si1 0.644149 0.145816 0.652416
Si Si2 0.559993 0.282903 0.048658
Si Si3 0.097449 0.221353 0.103350
Si Si4 0.107723 0.348660 0.599408
Si Si5 0.014846 0.568617 0.531249
Si Si6 0.792285 0.820388 0.311094
Si Si7 0.244419 0.183990 0.255811
O O1 0.615611 0.210013 0.573281
O O2 0.629553 0.147452 0.880192
O O3 0.594864 0.094996 0.541047
O O4 0.730873 0.143270 0.674623
O O5 0.475912 0.296833 0.031302
O O6 0.579195 0.283103 0.825853
O O7 0.573005 0.215374 0.113994
O O8 0.621668 0.322012 0.174132
O O9 0.171145 0.185017 0.102843
O O10 0.047325 0.396887 0.607408
O O11 0.182287 0.351754 0.748086
O O12 0.000000 0.582127 0.750000
O O13 0.000000 0.500000 0.500000
O O14 0.778784 0.831247 0.534470
O O15 0.769683 0.752194 0.268270
#
# Coordination Sequence:
#
# PCOD9256494 Si02
#       7
#     8   8   8   8   8   8   8
#     4   8  12  19  28  39  59  86 108 128 158 192
#     4   8  10  13  23  40  62  86 105 121 151 197
#     4   8  10  13  23  40  62  86 105 121 151 197
#     4   8  12  19  28  39  59  86 108 128 158 192
#     4  10  18  26  36  48  64  88 118 144 163 186
#     4   7  10  14  22  37  57  81 106 125 147 190
#     4   7  10  14  22  37  57  81 106 125 147 190
#
# _framework density 19.154644999999999
#
# number of rings (size 3 to 8) (size 9 to 14) (size 15 to 20)
#    0.000    4.000    1.429    3.429    0.000    0.000 
#    0.000    0.000    0.000    0.000    0.000    0.000 
#    0.000   11.429    0.000    0.857    0.000    1.714 
#
# Total GULP energy -156028.457738 kJ/mol
# GULP energy per Si atom -5572.444919 kJ/mol
# Density = 1.911105 g / cm^3
# Si number density = 19.154645 Si / 1000 Ang^3
#
#
#
# Elastic Constant Matrix: (Units=GPa)
#
#
# Indices 1 2 3 4 5 6 
#
# 1 152.0074 44.9798 65.2669 0.0000 52.8527 0.0000
# 2 44.9798 57.5292 29.4253 0.0000 30.1028 0.0000
# 3 65.2669 29.4253 141.7953 0.0000 45.7206 0.0000
# 4 0.0000 0.0000 0.0000 18.2250 0.0000 6.6395
# 5 52.8527 30.1028 45.7206 0.0000 62.4175 0.0000
# 6 0.0000 0.0000 0.0000 6.6395 0.0000 13.0908
#
#
#
# Elastic Compliance Matrix: (Units=1/GPa)
#
#
# Indices 1 2 3 4 5 6 
#
# 1 0.010708 -0.004454 -0.002322 0.000000 -0.005218 0.000000
# 2 -0.004454 0.025377 -0.000636 0.000000 -0.008001 0.000000
# 3 -0.002322 -0.000636 0.009846 0.000000 -0.004939 0.000000
# 4 0.000000 0.000000 0.000000 0.067306 0.000000 -0.034137
# 5 -0.005218 -0.008001 -0.004939 0.000000 0.027917 0.000000
# 6 0.000000 0.000000 0.000000 -0.034137 0.000000 0.093703
#
#
# Mechanical properties :
#
#
# Convention : Reuss Voigt Hill
#
# Bulk Modulus (GPa) = 32.14737 70.07511 51.11124
# Shear Modulus (GPa) = 19.22709 32.85731 26.04220
#
# Velocity S-wave (km/s) = 3.17169 4.14620 3.69124
# Velocity P-wave (km/s) = 5.49839 7.71910 6.70138
#
# Compressibility (1/GPa) = 0.03110675
#
# Stress axis : x y z
#
# Youngs Moduli (GPa) = 93.38919 39.40557 101.56688
#
# Poissons Ratio (x) = 0.17551 0.23583
# Poissons Ratio (y) = 0.41595 0.06461
# Poissons Ratio (z) = 0.21684 0.02507
#
# Static dielectric constant tensor:
#      x y z
#    x 1.769780 0.000000 -0.041550 
#    y 0.000000 1.595820 0.000000 
#    z -0.041550 0.000000 1.803070 
# 
# From -- ./inp_files/118960.got.cif
#   From: 2010.05.17/outbox.cif.g08.bks.cpg/sg15_60_cif.got.tgz:118960.got - 2010.06.03 18:47:42.
