data_PCOD9256612
_publ_section_title
;
Structure prediction by ZEFSAII (Michael W. Deem and Ramdas Pophale) SiO2 
 PCOD9256612
Probable space group: C 2/C
;
_chemical_formula_sum "Si O2"
_cell_formula_units_Z 56
_cell_length_a 18.296497
_cell_length_b 17.194561
_cell_length_c 18.404386
_cell_angle_alpha 90.000000
_cell_angle_beta 157.948018
_cell_angle_gamma 90.000000
_cell_volume 2173.850859
_symmetry_space_group_name_H-M "C 2/C"
_symmetry_group_IT_number 15
_symmetry_cell_setting 'monoclinic'
loop_
_space_group_symop_operation_xyz
x,y,z
-x,y,1/2-z
-x,-y,-z
x,-y,1/2+z
1/2+x,1/2+y,z
1/2-x,1/2+y,1/2-z
1/2-x,1/2-y,-z
1/2+x,1/2-y,1/2+z
loop_
_atom_site_type_symbol
_atom_site_label
_atom_site_fract_x
_atom_site_fract_y
_atom_site_fract_z
Si Si1 0.239911 0.602965 0.392975
Si Si2 0.235206 0.431666 0.331733
Si Si3 0.776284 0.665101 0.809136
Si Si4 0.263234 0.163865 0.259242
Si Si5 0.728991 0.159973 0.963894
Si Si6 0.761514 0.439254 0.891199
Si Si7 0.232850 0.388107 0.050688
O O1 0.288346 0.514669 0.414279
O O2 0.315681 0.652633 0.394878
O O3 0.305761 0.621996 0.535374
O O4 0.003570 0.611060 0.175195
O O5 0.300394 0.404977 0.311922
O O6 0.297397 0.367862 0.448452
O O7 0.998432 0.435364 0.107799
O O8 0.760398 0.744553 0.748476
O O9 0.706167 0.669675 0.828067
O O10 0.005870 0.650055 0.030012
O O11 0.192485 0.101525 0.253275
O O12 0.500000 0.141684 0.750000
O O13 0.750000 0.250000 0.000000
O O14 0.805916 0.112491 0.103233
O O15 0.713075 0.527572 0.866401
#
# Coordination Sequence:
#
# PCOD9256612 Si02
#       7
#     8   8   8   8   8   8   8
#     4   9  16  29  50  74  95 120 162 208 239 269
#     4   9  16  29  48  71  96 122 158 200 237 275
#     4  10  20  32  49  73  99 127 158 196 241 285
#     4  10  20  32  49  73  99 127 158 196 241 285
#     4  10  18  28  46  70  97 126 152 188 237 284
#     4   9  16  29  48  71  96 122 158 200 237 275
#     4   9  16  29  50  74  95 120 162 208 239 269
#
# _framework density 25.760738
#
# number of rings (size 3 to 8) (size 9 to 14) (size 15 to 20)
#    0.000    2.571    1.429    1.714    0.000    4.000 
#    0.000    0.000    0.000    5.143    0.000    0.000 
#    0.000    0.000    0.000    0.000    0.000    0.000 
#
# Total GULP energy -156594.036776 kJ/mol
# GULP energy per Si atom -5592.644171 kJ/mol
# Density = 2.570211 g / cm^3
# Si number density = 25.760738 Si / 1000 Ang^3
#
#
#
# Elastic Constant Matrix: (Units=GPa)
#
#
# Indices 1 2 3 4 5 6 
#
# 1 97.4923 -12.5152 39.6475 0.0232 -18.2380 0.0057
# 2 -12.5152 38.5343 -7.0327 0.0409 -11.4993 0.0107
# 3 39.6475 -7.0327 141.1536 0.0264 -16.0037 0.0093
# 4 0.0232 0.0409 0.0264 26.8557 0.0090 -17.8124
# 5 -18.2380 -11.4993 -16.0037 0.0090 47.5046 0.0153
# 6 0.0057 0.0107 0.0093 -17.8124 0.0153 29.9552
#
#
#
# Elastic Compliance Matrix: (Units=1/GPa)
#
#
# Indices 1 2 3 4 5 6 
#
# 1 0.013087 0.005343 -0.002800 -0.000037 0.005375 -0.000029
# 2 0.005343 0.030856 0.001160 -0.000112 0.009912 -0.000084
# 3 -0.002800 0.001160 0.008150 -0.000017 0.001951 -0.000013
# 4 -0.000037 -0.000112 -0.000017 0.061486 -0.000071 0.036562
# 5 0.005375 0.009912 0.001951 -0.000071 0.026171 -0.000060
# 6 -0.000029 -0.000084 -0.000013 0.036562 -0.000060 0.055124
#
#
# Mechanical properties :
#
#
# Convention : Reuss Voigt Hill
#
# Bulk Modulus (GPa) = 16.80668 35.26435 26.03552
# Shear Modulus (GPa) = 24.11942 38.00181 31.06062
#
# Velocity S-wave (km/s) = 3.06320 3.84498 3.47614
# Velocity P-wave (km/s) = 4.36454 5.78193 5.12250
#
# Compressibility (1/GPa) = 0.05950014
#
# Stress axis : x y z
#
# Youngs Moduli (GPa) = 76.40891 32.40854 122.69742
#
# Poissons Ratio (x) = -0.17317 0.34361
# Poissons Ratio (y) = -0.40828 -0.14236
# Poissons Ratio (z) = 0.21398 -0.03760
#
# Static dielectric constant tensor:
#      x y z
#    x 1.749780 0.000020 -0.080420 
#    y 0.000020 1.961960 0.000000 
#    z -0.080420 0.000000 1.995720 
# 
# From -- ./inp_files/56725.got.cif
#   From: 2010.05.17/outbox.cif.g08.bks.cpg/sg15_29_cif.got.tgz:56725.got - 2010.06.03 18:47:42.
