data_PCOD9256058
_publ_section_title
;
Structure prediction by ZEFSAII (Michael W. Deem and Ramdas Pophale) SiO2 
 PCOD9256058
Probable space group: C 2/C
;
_chemical_formula_sum "Si O2"
_cell_formula_units_Z 52
_cell_length_a 8.655426
_cell_length_b 19.477252
_cell_length_c 22.031328
_cell_angle_alpha 90.000000
_cell_angle_beta 136.644068
_cell_angle_gamma 90.000000
_cell_volume 2549.854286
_symmetry_space_group_name_H-M "C 2/C"
_symmetry_group_IT_number 15
_symmetry_cell_setting 'monoclinic'
loop_
_space_group_symop_operation_xyz
x,y,z
-x,y,1/2-z
-x,-y,-z
x,-y,1/2+z
1/2+x,1/2+y,z
1/2-x,1/2+y,1/2-z
1/2-x,1/2-y,-z
1/2+x,1/2-y,1/2+z
loop_
_atom_site_type_symbol
_atom_site_label
_atom_site_fract_x
_atom_site_fract_y
_atom_site_fract_z
Si Si1 0.500000 0.264746 0.750000
Si Si2 0.000000 0.106732 0.750000
Si Si3 0.211030 0.575669 0.999498
Si Si4 0.329409 0.870323 0.791532
Si Si5 0.000000 0.463329 0.250000
Si Si6 0.555440 0.154179 0.667262
Si Si7 0.787751 0.089694 0.371639
Si Si8 0.209247 0.516399 0.128272
O O1 0.718639 0.310873 0.799331
O O2 0.468543 0.216463 0.682461
O O3 0.820677 0.155244 0.730959
O O4 0.858794 0.052727 0.668120
O O5 0.074079 0.639513 0.932391
O O6 0.049075 0.510018 0.941855
O O7 0.453972 0.580151 0.037322
O O8 0.244188 0.566847 0.081254
O O9 0.233840 0.865563 0.696110
O O10 0.600218 0.878379 0.863012
O O11 0.246683 0.941275 0.798281
O O12 0.033104 0.414096 0.202302
O O13 0.198107 0.515174 0.324840
#
# Coordination Sequence:
#
# PCOD9256058 Si02
#       8
#     4   4   8   8   4   8   8   8
#     4  11  23  42  56  70 105 153 200 230 256 323
#     4  10  17  34  56  82 111 142 188 222 270 344
#     4  10  19  33  54  90 121 138 171 228 293 330
#     4  10  21  37  58  80 107 152 193 218 263 331
#     4   9  18  34  54  82 110 141 178 218 278 339
#     4  10  22  35  54  80 111 149 184 225 274 322
#     4  10  19  34  61  88 109 136 180 236 281 328
#     4  10  19  32  58  88 116 147 173 222 287 336
#
# _framework density 20.393322000000001
#
# number of rings (size 3 to 8) (size 9 to 14) (size 15 to 20)
#    0.000    2.154    0.000    6.923    0.000    3.692 
#    0.000    6.923    0.000    0.000    0.000    0.000 
#    0.000    0.000    0.000    0.000    0.000    0.000 
#
# Total GULP energy -144917.085904 kJ/mol
# GULP energy per Si atom -5573.734073 kJ/mol
# Density = 2.034691 g / cm^3
# Si number density = 20.393322 Si / 1000 Ang^3
#
#
#
# Elastic Constant Matrix: (Units=GPa)
#
#
# Indices 1 2 3 4 5 6 
#
# 1 127.1507 47.5021 33.5136 0.0000 24.0293 0.0000
# 2 47.5021 69.7354 8.3883 -0.0001 12.4112 -0.0001
# 3 33.5136 8.3883 57.3326 0.0000 26.3222 0.0000
# 4 0.0000 -0.0001 0.0000 3.7322 0.0000 -4.0505
# 5 24.0293 12.4112 26.3222 0.0000 39.9506 0.0000
# 6 0.0000 -0.0001 0.0000 -4.0505 0.0000 42.4497
#
#
#
# Elastic Compliance Matrix: (Units=1/GPa)
#
#
# Indices 1 2 3 4 5 6 
#
# 1 0.012398 -0.007517 -0.005442 0.000000 -0.001536 0.000000
# 2 -0.007517 0.019737 0.003219 0.000001 -0.003732 0.000000
# 3 -0.005442 0.003219 0.027396 0.000000 -0.015777 0.000000
# 4 0.000000 0.000001 0.000000 0.298888 0.000000 0.028519
# 5 -0.001536 -0.003732 -0.015777 0.000000 0.037509 0.000000
# 6 0.000000 0.000000 0.000000 0.028519 0.000000 0.026279
#
#
# Mechanical properties :
#
#
# Convention : Reuss Voigt Hill
#
# Bulk Modulus (GPa) = 24.96780 48.11406 36.54093
# Shear Modulus (GPa) = 10.98815 28.21415 19.60115
#
# Velocity S-wave (km/s) = 2.32375 3.72358 3.10361
# Velocity P-wave (km/s) = 4.41242 6.49084 5.54979
#
# Compressibility (1/GPa) = 0.04005159
#
# Stress axis : x y z
#
# Youngs Moduli (GPa) = 80.66092 50.66592 36.50220
#
# Poissons Ratio (x) = 0.38085 0.19864
# Poissons Ratio (y) = 0.60632 -0.11752
# Poissons Ratio (z) = 0.43895 -0.16312
#
# Static dielectric constant tensor:
#      x y z
#    x 1.816600 0.000000 -0.011130 
#    y 0.000000 1.712380 0.000000 
#    z -0.011130 0.000000 1.788340 
# 
# From -- ./inp_files/190872.got.cif
#   From: 2010.05.17/outbox.cif.g08.bks.cpg/sg15_96_cif.got.tgz:190872.got - 2010.06.03 18:47:42.
