data_PCOD9256614
_publ_section_title
;
Structure prediction by ZEFSAII (Michael W. Deem and Ramdas Pophale) SiO2 
 PCOD9256614
Probable space group: C 2/C
;
_chemical_formula_sum "Si O2"
_cell_formula_units_Z 56
_cell_length_a 22.650463
_cell_length_b 15.741669
_cell_length_c 9.689877
_cell_angle_alpha 90.000000
_cell_angle_beta 137.796691
_cell_angle_gamma 90.000000
_cell_volume 2320.932150
_symmetry_space_group_name_H-M "C 2/C"
_symmetry_group_IT_number 15
_symmetry_cell_setting 'monoclinic'
loop_
_space_group_symop_operation_xyz
x,y,z
-x,y,1/2-z
-x,-y,-z
x,-y,1/2+z
1/2+x,1/2+y,z
1/2-x,1/2+y,1/2-z
1/2-x,1/2-y,-z
1/2+x,1/2-y,1/2+z
loop_
_atom_site_type_symbol
_atom_site_label
_atom_site_fract_x
_atom_site_fract_y
_atom_site_fract_z
Si Si1 0.565882 0.685500 0.100475
Si Si2 0.479574 0.165960 0.569722
Si Si3 0.855023 0.184368 0.968970
Si Si4 0.188000 0.222752 0.080758
Si Si5 0.051500 0.950576 0.203553
Si Si6 0.723280 0.415063 0.409958
Si Si7 0.910668 0.604608 0.180767
O O1 0.555715 0.786336 0.114453
O O2 0.604003 0.656087 0.314489
O O3 0.631341 0.666886 0.088168
O O4 0.474773 0.646624 0.884558
O O5 0.500000 0.122046 0.750000
O O6 0.421746 0.246729 0.519005
O O7 0.435037 0.105653 0.383926
O O8 0.763738 0.236462 0.807861
O O9 0.831614 0.110653 0.821248
O O10 0.227531 0.167312 0.022282
O O11 0.125886 0.300753 0.923123
O O12 0.154198 0.970438 0.375257
O O13 0.000000 0.972213 0.250000
O O14 0.000000 0.000000 0.000000
O O15 0.817946 0.446626 0.522026
O O16 0.000000 0.586195 0.250000
#
# Coordination Sequence:
#
# PCOD9256614 Si02
#       7
#     8   8   8   8   8   8   8
#     4  11  21  33  52  77 118 154 191 232 291 339
#     4  10  18  28  46  73 113 157 189 220 274 340
#     4  10  19  30  49  79 116 157 187 225 275 357
#     4  11  18  31  52  79 118 160 194 220 282 355
#     4  12  27  42  62  83 111 156 202 254 299 340
#     4  11  21  36  54  79 116 156 197 241 285 344
#     4  11  19  32  52  80 116 156 193 227 274 353
#
# _framework density 24.128236000000001
#
# number of rings (size 3 to 8) (size 9 to 14) (size 15 to 20)
#    0.000    1.143    7.143    1.286    2.000    0.000 
#    0.000    0.000    0.000    0.000    0.000    1.000 
#    0.000    0.000    0.000    0.000    0.000    0.000 
#
# Total GULP energy -156105.449191 kJ/mol
# GULP energy per Si atom -5575.194614 kJ/mol
# Density = 2.407332 g / cm^3
# Si number density = 24.128236 Si / 1000 Ang^3
#
#
#
# Elastic Constant Matrix: (Units=GPa)
#
#
# Indices 1 2 3 4 5 6 
#
# 1 171.8822 5.9706 53.0108 0.0000 20.2616 0.0000
# 2 5.9706 17.7201 -6.8747 0.0000 7.2157 0.0000
# 3 53.0108 -6.8747 115.5079 0.0000 -11.3827 0.0000
# 4 0.0000 0.0000 0.0000 16.0510 0.0000 1.1191
# 5 20.2616 7.2157 -11.3827 0.0000 52.3658 0.0000
# 6 0.0000 0.0000 0.0000 1.1191 0.0000 0.1185
#
#
#
# Elastic Compliance Matrix: (Units=1/GPa)
#
#
# Indices 1 2 3 4 5 6 
#
# 1 0.007531 -0.002685 -0.003951 0.000000 -0.003403 0.000000
# 2 -0.002685 0.061649 0.004258 0.000000 -0.006531 0.000000
# 3 -0.003951 0.004258 0.011054 0.000000 0.003345 0.000000
# 4 0.000000 0.000000 0.000000 0.182238 0.000000 -1.720270
# 5 -0.003403 -0.006531 0.003345 0.000000 0.022040 0.000000
# 6 0.000000 0.000000 0.000000 -1.720270 0.000000 24.674142
#
#
# Mechanical properties :
#
#
# Convention : Reuss Voigt Hill
#
# Bulk Modulus (GPa) = 13.24909 45.48041 29.36475
# Shear Modulus (GPa) = 0.20009 30.57396 15.38702
#
# Velocity S-wave (km/s) = 0.28829 3.56356 2.52805
# Velocity P-wave (km/s) = 2.36936 5.98517 4.55171
#
# Compressibility (1/GPa) = 0.07547690
#
# Stress axis : x y z
#
# Youngs Moduli (GPa) = 132.78474 16.22089 90.46595
#
# Poissons Ratio (x) = 0.04355 0.35746
# Poissons Ratio (y) = 0.35650 -0.38518
# Poissons Ratio (z) = 0.52468 -0.06906
#
# Static dielectric constant tensor:
#      x y z
#    x 2.038990 0.000000 0.040420 
#    y 0.000000 2.073100 0.000000 
#    z 0.040420 0.000000 2.000030 
# 
# From -- ./inp_files/57933.got.cif
#   From: 2010.05.17/outbox.cif.g08.bks.cpg/sg15_29_cif.got.tgz:57933.got - 2010.06.03 18:47:42.
