data_PCOD9256790
_publ_section_title
;
Structure prediction by ZEFSAII (Michael W. Deem and Ramdas Pophale) SiO2 
 PCOD9256790
Probable space group: C 2/C
;
_chemical_formula_sum "Si O2"
_cell_formula_units_Z 44
_cell_length_a 23.576645
_cell_length_b 20.319105
_cell_length_c 5.245090
_cell_angle_alpha 90.000000
_cell_angle_beta 59.893618
_cell_angle_gamma 90.000000
_cell_volume 2173.720010
_symmetry_space_group_name_H-M "C 2/C"
_symmetry_group_IT_number 15
_symmetry_cell_setting 'monoclinic'
loop_
_space_group_symop_operation_xyz
x,y,z
-x,y,1/2-z
-x,-y,-z
x,-y,1/2+z
1/2+x,1/2+y,z
1/2-x,1/2+y,1/2-z
1/2-x,1/2-y,-z
1/2+x,1/2-y,1/2+z
loop_
_atom_site_type_symbol
_atom_site_label
_atom_site_fract_x
_atom_site_fract_y
_atom_site_fract_z
Si Si1 0.427305 0.241442 0.629348
Si Si2 0.000000 0.138667 0.750000
Si Si3 0.269200 0.458215 0.579749
Si Si4 0.425153 0.185707 0.133205
Si Si5 0.622021 0.044758 0.350589
Si Si6 0.590343 0.544498 0.841154
O O1 0.445126 0.314808 0.503180
O O2 0.393267 0.202617 0.476693
O O3 0.499502 0.208357 0.502045
O O4 0.395494 0.229679 0.973539
O O5 0.034708 0.095157 0.886078
O O6 0.271096 0.518743 0.370016
O O7 0.197584 0.429465 0.688404
O O8 0.337582 0.423430 0.360375
O O9 0.421418 0.109512 0.073211
O O10 0.612173 0.001874 0.627447
O O11 0.586035 0.487665 0.630348
#
# Coordination Sequence:
#
# PCOD9256790 Si02
#       6
#     8   4   8   8   8   8
#     4   9  20  33  47  63  93 131 160 197 231 271
#     4  10  20  34  54  72  94 130 166 184 232 294
#     4   8  16  30  45  68  99 126 149 182 236 286
#     4   9  17  33  47  66  93 125 161 195 236 272
#     4  10  18  29  50  73  94 125 159 192 238 291
#     4  10  20  32  50  77 104 121 147 197 240 279
#
# _framework density 20.241797999999999
#
# number of rings (size 3 to 8) (size 9 to 14) (size 15 to 20)
#    0.000    2.909    0.000    1.636    0.000    5.818 
#    0.000   10.909    0.000    5.455    0.000    0.000 
#    0.000    1.455    0.000    0.000    0.000    0.364 
#
# Total GULP energy -122529.838774 kJ/mol
# GULP energy per Si atom -5569.538126 kJ/mol
# Density = 2.019573 g / cm^3
# Si number density = 20.241798 Si / 1000 Ang^3
#
#
#
# Elastic Constant Matrix: (Units=GPa)
#
#
# Indices 1 2 3 4 5 6 
#
# 1 49.8940 20.6622 25.9671 0.0000 21.6578 0.0000
# 2 20.6622 52.8524 11.4287 0.0000 2.6155 0.0000
# 3 25.9671 11.4287 75.5721 0.0000 42.1765 0.0000
# 4 0.0000 0.0000 0.0000 -5.6719 0.0000 9.4571
# 5 21.6578 2.6155 42.1765 0.0000 43.4827 0.0000
# 6 0.0000 0.0000 0.0000 9.4571 0.0000 4.7798
#
#
#
# Elastic Compliance Matrix: (Units=1/GPa)
#
#
# Indices 1 2 3 4 5 6 
#
# 1 0.031340 -0.011244 -0.001600 0.000000 -0.013382 0.000000
# 2 -0.011244 0.023870 -0.004514 0.000000 0.008543 0.000000
# 3 -0.001600 -0.004514 0.030237 0.000000 -0.028260 0.000000
# 4 0.000000 0.000000 0.000000 -0.041012 0.000000 0.081144
# 5 -0.013382 0.008543 -0.028260 0.000000 0.056560 0.000000
# 6 0.000000 0.000000 0.000000 0.081144 0.000000 0.048666
#
#
# Mechanical properties :
#
#
# Convention : Reuss Voigt Hill
#
# Bulk Modulus (GPa) = 19.71227 32.71493 26.21360
# Shear Modulus (GPa) = 24.84017 16.53549 20.68783
#
# Velocity S-wave (km/s) = 3.50690 2.86124 3.20040
# Velocity P-wave (km/s) = 5.11443 5.20699 5.16092
#
# Compressibility (1/GPa) = 0.05072983
#
# Stress axis : x y z
#
# Youngs Moduli (GPa) = 31.90788 41.89406 33.07256
#
# Poissons Ratio (x) = 0.47106 0.05292
# Poissons Ratio (y) = 0.35877 0.14930
# Poissons Ratio (z) = 0.05106 0.18912
#
# Static dielectric constant tensor:
#      x y z
#    x 1.750510 0.000000 0.042760 
#    y 0.000000 1.694650 0.000000 
#    z 0.042760 0.000000 1.758090 
# 
# From -- ./inp_files/15280.got.cif
#   From: 2010.05.17/outbox.cif.g08.bks.cpg/sg15_8_cif.got.tgz:15280.got - 2010.06.03 18:47:42.
