data_PCOD9256700
_publ_section_title
;
Structure prediction by ZEFSAII (Michael W. Deem and Ramdas Pophale) SiO2 
 PCOD9256700
Probable space group: C 2/C
;
_chemical_formula_sum "Si O2"
_cell_formula_units_Z 56
_cell_length_a 16.581226
_cell_length_b 27.572488
_cell_length_c 12.303006
_cell_angle_alpha 90.000000
_cell_angle_beta 152.191227
_cell_angle_gamma 90.000000
_cell_volume 2624.073734
_symmetry_space_group_name_H-M "C 2/C"
_symmetry_group_IT_number 15
_symmetry_cell_setting 'monoclinic'
loop_
_space_group_symop_operation_xyz
x,y,z
-x,y,1/2-z
-x,-y,-z
x,-y,1/2+z
1/2+x,1/2+y,z
1/2-x,1/2+y,1/2-z
1/2-x,1/2-y,-z
1/2+x,1/2-y,1/2+z
loop_
_atom_site_type_symbol
_atom_site_label
_atom_site_fract_x
_atom_site_fract_y
_atom_site_fract_z
Si Si1 0.798384 0.479935 0.705354
Si Si2 0.877709 0.674573 0.816072
Si Si3 0.964194 0.236269 0.078306
Si Si4 0.573784 0.529287 0.694100
Si Si5 0.865677 0.572349 0.911305
Si Si6 0.815712 0.552996 0.474822
Si Si7 0.162528 0.148323 0.361419
O O1 0.605399 0.459254 0.459500
O O2 0.802903 0.538078 0.734766
O O3 0.839514 0.461822 0.878949
O O4 0.958754 0.453781 0.836277
O O5 0.709794 0.706338 0.648285
O O6 0.902514 0.626908 0.917142
O O7 0.825353 0.656593 0.633350
O O8 0.024054 0.714783 0.975432
O O9 0.000000 0.246622 0.250000
O O10 0.116200 0.196516 0.239296
O O11 0.500000 0.500000 0.500000
O O12 0.704751 0.569522 0.803521
O O13 0.705054 0.489478 0.901973
O O14 0.701520 0.601128 0.340187
O O15 0.000000 0.559022 0.750000
O O16 0.000000 0.139940 0.250000
#
# Coordination Sequence:
#
# PCOD9256700 Si02
#       7
#     8   8   8   8   8   8   8
#     4   9  19  30  49  64  89 115 151 194 235 286
#     4  10  19  30  43  59  88 121 159 196 227 263
#     4   9  19  30  39  57  88 122 156 202 231 253
#     4   8  18  31  46  62  92 112 150 193 233 285
#     4   9  17  31  46  65  80 114 156 187 231 273
#     4  10  18  29  42  69  88 117 157 195 228 272
#     4   9  19  27  42  59  87 123 160 199 226 258
#
# _framework density 21.340864
#
# number of rings (size 3 to 8) (size 9 to 14) (size 15 to 20)
#    0.000    3.429    0.000    2.571   12.000    4.000 
#    0.000    0.000    0.000    0.000    0.000    0.000 
#    0.000    0.000    0.000   20.571    0.000    2.286 
#
# Total GULP energy -156107.451420 kJ/mol
# GULP energy per Si atom -5575.266122 kJ/mol
# Density = 2.129229 g / cm^3
# Si number density = 21.340864 Si / 1000 Ang^3
#
#
#
# Elastic Constant Matrix: (Units=GPa)
#
#
# Indices 1 2 3 4 5 6 
#
# 1 46.9891 33.8833 16.1601 0.0000 29.7680 0.0000
# 2 33.8833 160.5971 19.6635 0.0000 21.6944 0.0000
# 3 16.1601 19.6635 101.0504 0.0000 27.9718 0.0000
# 4 0.0000 0.0000 0.0000 19.7605 0.0000 8.6018
# 5 29.7680 21.6944 27.9718 0.0000 33.9367 0.0000
# 6 0.0000 0.0000 0.0000 8.6018 0.0000 38.5501
#
#
#
# Elastic Compliance Matrix: (Units=1/GPa)
#
#
# Indices 1 2 3 4 5 6 
#
# 1 0.054244 -0.005564 0.005952 0.000000 -0.048930 0.000000
# 2 -0.005564 0.007388 -0.000766 0.000000 0.000789 0.000000
# 3 0.005952 -0.000766 0.013478 0.000000 -0.015840 0.000000
# 4 0.000000 0.000000 0.000000 0.056050 0.000000 -0.012507
# 5 -0.048930 0.000789 -0.015840 0.000000 0.084938 0.000000
# 6 0.000000 0.000000 0.000000 -0.012507 0.000000 0.028731
#
#
# Mechanical properties :
#
#
# Convention : Reuss Voigt Hill
#
# Bulk Modulus (GPa) = 13.44908 49.78338 31.61623
# Shear Modulus (GPa) = 18.49324 34.37811 26.43568
#
# Velocity S-wave (km/s) = 2.94694 4.01796 3.52339
# Velocity P-wave (km/s) = 4.23025 6.70102 5.60351
#
# Compressibility (1/GPa) = 0.07435454
#
# Stress axis : x y z
#
# Youngs Moduli (GPa) = 18.43523 135.35782 74.19487
#
# Poissons Ratio (x) = 0.75308 -0.44163
# Poissons Ratio (y) = 0.10257 0.05685
# Poissons Ratio (z) = -0.10973 0.10372
#
# Static dielectric constant tensor:
#      x y z
#    x 1.941420 0.000000 0.001200 
#    y 0.000000 1.811610 0.000000 
#    z 0.001200 0.000000 1.893730 
# 
# From -- ./inp_files/220381.got.cif
#   From: 2010.05.17/outbox.cif.g08.bks.cpg/sg15_111_cif.got.tgz:220381.got - 2010.06.03 18:47:42.
