data_PCOD9256937
_publ_section_title
;
Structure prediction by ZEFSAII (Michael W. Deem and Ramdas Pophale) SiO2 
 PCOD9256937
Probable space group: C 2/C
;
_chemical_formula_sum "Si O2"
_cell_formula_units_Z 48
_cell_length_a 23.129043
_cell_length_b 14.628591
_cell_length_c 18.476505
_cell_angle_alpha 90.000000
_cell_angle_beta 21.747350
_cell_angle_gamma 90.000000
_cell_volume 2316.248593
_symmetry_space_group_name_H-M "C 2/C"
_symmetry_group_IT_number 15
_symmetry_cell_setting 'monoclinic'
loop_
_space_group_symop_operation_xyz
x,y,z
-x,y,1/2-z
-x,-y,-z
x,-y,1/2+z
1/2+x,1/2+y,z
1/2-x,1/2+y,1/2-z
1/2-x,1/2-y,-z
1/2+x,1/2-y,1/2+z
loop_
_atom_site_type_symbol
_atom_site_label
_atom_site_fract_x
_atom_site_fract_y
_atom_site_fract_z
Si Si1 0.268416 0.803420 0.101885
Si Si2 0.701682 0.244250 0.343062
Si Si3 0.355695 0.556786 0.138188
Si Si4 0.954512 0.553155 0.459896
Si Si5 0.966926 0.125806 0.864343
Si Si6 0.917716 0.374352 0.159375
O O1 0.204719 0.783787 0.257591
O O2 0.406847 0.877649 0.952555
O O3 0.125544 0.837529 0.218900
O O4 0.352058 0.710746 0.980190
O O5 0.828841 0.161288 0.195537
O O6 0.756033 0.324605 0.332494
O O7 0.539459 0.196996 0.551098
O O8 0.203772 0.501905 0.338304
O O9 0.500000 0.500000 0.000000
O O10 0.380673 0.564925 0.023737
O O11 0.987123 0.606993 0.496793
O O12 0.077769 0.471854 0.306322
O O13 0.000000 0.078716 0.750000
#
# Coordination Sequence:
#
# PCOD9256937 Si02
#       6
#     8   8   8   8   8   8
#     4  10  18  32  50  69 106 142 179 209 254 316
#     4   9  17  27  45  68 100 134 168 212 264 313
#     4  10  18  30  49  71  99 138 179 223 259 298
#     4   9  17  29  48  70  98 139 177 222 256 300
#     4  11  22  34  51  76 110 150 175 204 261 325
#     4   9  17  27  42  70 100 132 164 212 275 304
#
# _framework density 20.723163
#
# number of rings (size 3 to 8) (size 9 to 14) (size 15 to 20)
#    0.000    2.333    1.667    3.500    2.333    1.333 
#    0.000    0.000    0.000    0.000    0.000    0.000 
#    0.000   22.667    0.000    0.167    0.000    0.000 
#
# Total GULP energy -133942.851055 kJ/mol
# GULP energy per Si atom -5580.952127 kJ/mol
# Density = 2.067600 g / cm^3
# Si number density = 20.723163 Si / 1000 Ang^3
#
#
#
# Elastic Constant Matrix: (Units=GPa)
#
#
# Indices 1 2 3 4 5 6 
#
# 1 35.6719 17.0737 10.6384 0.0010 -13.7048 -0.0004
# 2 17.0737 71.9540 3.5397 0.0005 -5.4486 -0.0002
# 3 10.6384 3.5397 11.9329 0.0004 -10.2363 -0.0005
# 4 0.0010 0.0005 0.0004 25.5962 -0.0007 -20.2594
# 5 -13.7048 -5.4486 -10.2363 -0.0007 33.4075 0.0007
# 6 -0.0004 -0.0002 -0.0005 -20.2594 0.0007 28.6934
#
#
#
# Elastic Compliance Matrix: (Units=1/GPa)
#
#
# Indices 1 2 3 4 5 6 
#
# 1 0.043920 -0.008371 -0.030371 -0.000003 0.007346 -0.000002
# 2 -0.008371 0.015746 0.002780 0.000000 -0.000014 0.000000
# 3 -0.030371 0.002780 0.135324 0.000003 0.029459 0.000003
# 4 -0.000003 0.000000 0.000003 0.088560 0.000000 0.062529
# 5 0.007346 -0.000014 0.029459 0.000000 0.041971 0.000000
# 6 -0.000002 0.000000 0.000003 0.062529 0.000000 0.079001
#
#
# Mechanical properties :
#
#
# Convention : Reuss Voigt Hill
#
# Bulk Modulus (GPa) = 8.12570 20.22916 14.17743
# Shear Modulus (GPa) = 9.66245 23.42655 16.54450
#
# Velocity S-wave (km/s) = 2.16166 3.36587 2.82859
# Velocity P-wave (km/s) = 3.18746 4.98881 4.18618
#
# Compressibility (1/GPa) = 0.12306638
#
# Stress axis : x y z
#
# Youngs Moduli (GPa) = 22.76879 63.50690 7.38969
#
# Poissons Ratio (x) = 0.53163 0.22443
# Poissons Ratio (y) = 0.19060 -0.02054
# Poissons Ratio (z) = 0.69150 -0.17656
#
# Static dielectric constant tensor:
#      x y z
#    x 1.764360 0.000000 -0.050890 
#    y 0.000000 1.809240 0.000000 
#    z -0.050890 0.000000 1.774720 
# 
# From -- ./inp_files/215488.got.cif
#   From: 2010.05.17/outbox.cif.g08.bks.cpg/sg15_108_cif.got.tgz:215488.got - 2010.06.03 18:47:42.
