data_PCOD9256805
_publ_section_title
;
Structure prediction by ZEFSAII (Michael W. Deem and Ramdas Pophale) SiO2 
 PCOD9256805
Probable space group: C 2/C
;
_chemical_formula_sum "Si O2"
_cell_formula_units_Z 64
_cell_length_a 20.414722
_cell_length_b 8.642958
_cell_length_c 21.513691
_cell_angle_alpha 90.000000
_cell_angle_beta 74.211046
_cell_angle_gamma 90.000000
_cell_volume 3652.733243
_symmetry_space_group_name_H-M "C 2/C"
_symmetry_group_IT_number 15
_symmetry_cell_setting 'monoclinic'
loop_
_space_group_symop_operation_xyz
x,y,z
-x,y,1/2-z
-x,-y,-z
x,-y,1/2+z
1/2+x,1/2+y,z
1/2-x,1/2+y,1/2-z
1/2-x,1/2-y,-z
1/2+x,1/2-y,1/2+z
loop_
_atom_site_type_symbol
_atom_site_label
_atom_site_fract_x
_atom_site_fract_y
_atom_site_fract_z
Si Si1 0.851381 0.211455 0.660883
Si Si2 0.599092 0.558136 0.591544
Si Si3 0.299952 0.710284 0.431251
Si Si4 0.149090 0.801411 0.951311
Si Si5 0.040594 0.009046 0.924800
Si Si6 0.833290 0.203231 0.803103
Si Si7 0.792299 0.487330 0.128277
Si Si8 0.732255 0.993929 0.133410
O O1 0.909615 0.153973 0.598908
O O2 0.869058 0.179880 0.727905
O O3 0.837005 0.392716 0.655422
O O4 0.784280 0.109399 0.661134
O O5 0.635429 0.393192 0.568819
O O6 0.621512 0.668170 0.527872
O O7 0.518801 0.524470 0.610387
O O8 0.626215 0.632701 0.648547
O O9 0.250000 0.750000 0.500000
O O10 0.255949 0.598284 0.399109
O O11 0.312540 0.871039 0.392951
O O12 0.167306 0.627494 0.927774
O O13 0.217471 0.904514 0.923903
O O14 0.093100 0.866281 0.916785
O O15 0.000000 0.000000 0.000000
O O16 0.759647 0.118034 0.819291
O O17 0.814053 0.382107 0.819554
#
# Coordination Sequence:
#
# PCOD9256805 Si02
#       8
#     8   8   8   8   8   8   8   8
#     4  10  19  36  54  74 105 142 178 219 265 324
#     4  10  20  33  51  78 107 140 180 216 267 323
#     4  10  18  29  51  79 111 138 165 219 276 318
#     4   9  17  34  53  77 106 136 175 224 265 311
#     4   9  20  37  55  73 101 141 183 219 258 313
#     4  10  20  32  53  79 108 137 173 221 271 325
#     4   9  20  31  53  84 103 136 177 221 271 320
#     4   9  18  31  52  79 105 137 170 219 272 319
#
# _framework density 17.521125999999999
#
# number of rings (size 3 to 8) (size 9 to 14) (size 15 to 20)
#    0.000    2.500    1.250    0.750    3.500    2.000 
#    0.000    5.000    0.000    0.000    0.000    0.000 
#    0.000    0.000    0.000    0.000    0.000    0.000 
#
# Total GULP energy -178149.969065 kJ/mol
# GULP energy per Si atom -5567.186533 kJ/mol
# Density = 1.748125 g / cm^3
# Si number density = 17.521126 Si / 1000 Ang^3
#
#
#
# Elastic Constant Matrix: (Units=GPa)
#
#
# Indices 1 2 3 4 5 6 
#
# 1 57.2401 16.8581 3.9101 0.0000 5.6067 0.0000
# 2 16.8581 100.2467 24.3333 0.0000 -0.1356 0.0000
# 3 3.9101 24.3333 69.1305 0.0000 1.7114 0.0000
# 4 0.0000 0.0000 0.0000 14.6126 0.0000 1.9447
# 5 5.6067 -0.1356 1.7114 0.0000 17.6427 0.0000
# 6 0.0000 0.0000 0.0000 1.9447 0.0000 11.4913
#
#
#
# Elastic Compliance Matrix: (Units=1/GPa)
#
#
# Indices 1 2 3 4 5 6 
#
# 1 0.019011 -0.003259 0.000223 0.000000 -0.006088 0.000000
# 2 -0.003259 0.011470 -0.003890 0.000000 0.001501 0.000000
# 3 0.000223 -0.003890 0.015863 0.000000 -0.001639 0.000000
# 4 0.000000 0.000000 0.000000 0.070011 0.000000 -0.011848
# 5 -0.006088 0.001501 -0.001639 0.000000 0.058786 0.000000
# 6 0.000000 0.000000 0.000000 -0.011848 0.000000 0.089027
#
#
# Mechanical properties :
#
#
# Convention : Reuss Voigt Hill
#
# Bulk Modulus (GPa) = 30.77841 35.20226 32.99034
# Shear Modulus (GPa) = 17.30994 20.85038 19.08016
#
# Velocity S-wave (km/s) = 3.14657 3.45340 3.30355
# Velocity P-wave (km/s) = 5.55030 6.00302 5.78109
#
# Compressibility (1/GPa) = 0.03249030
#
# Stress axis : x y z
#
# Youngs Moduli (GPa) = 52.60015 87.18562 63.04116
#
# Poissons Ratio (x) = 0.28417 -0.01404
# Poissons Ratio (y) = 0.17144 0.24523
# Poissons Ratio (z) = -0.01171 0.33916
#
# Static dielectric constant tensor:
#      x y z
#    x 1.627070 0.000000 0.024340 
#    y 0.000000 1.633660 0.000000 
#    z 0.024340 0.000000 1.625380 
# 
# From -- ./inp_files/251587.got.cif
#   From: 2010.05.17/outbox.cif.g08.bks.cpg/sg15_126_cif.got.tgz:251587.got - 2010.06.03 18:47:42.
