data_PCOD9256883
_publ_section_title
;
Structure prediction by ZEFSAII (Michael W. Deem and Ramdas Pophale) SiO2 
 PCOD9256883
Probable space group: C 2/C
;
_chemical_formula_sum "Si O2"
_cell_formula_units_Z 40
_cell_length_a 11.438105
_cell_length_b 21.135785
_cell_length_c 9.860857
_cell_angle_alpha 90.000000
_cell_angle_beta 76.941624
_cell_angle_gamma 90.000000
_cell_volume 2322.248348
_symmetry_space_group_name_H-M "C 2/C"
_symmetry_group_IT_number 15
_symmetry_cell_setting 'monoclinic'
loop_
_space_group_symop_operation_xyz
x,y,z
-x,y,1/2-z
-x,-y,-z
x,-y,1/2+z
1/2+x,1/2+y,z
1/2-x,1/2+y,1/2-z
1/2-x,1/2-y,-z
1/2+x,1/2-y,1/2+z
loop_
_atom_site_type_symbol
_atom_site_label
_atom_site_fract_x
_atom_site_fract_y
_atom_site_fract_z
Si Si1 0.632497 0.739085 0.200019
Si Si2 0.747705 0.812307 0.409233
Si Si3 0.072043 0.580962 0.004240
Si Si4 0.622931 0.186958 0.421537
Si Si5 0.000000 0.514878 0.750000
Si Si6 0.000000 0.215430 0.750000
O O1 0.500000 0.711159 0.250000
O O2 0.664618 0.789417 0.307430
O O3 0.740619 0.688475 0.168976
O O4 0.631412 0.781182 0.065661
O O5 0.750000 0.750000 0.500000
O O6 0.682260 0.871210 0.492853
O O7 0.884296 0.823681 0.327566
O O8 0.070446 0.555181 0.848179
O O9 0.949211 0.621634 0.055764
O O10 0.074074 0.529392 0.124539
O O11 0.548081 0.237152 0.352492
#
# Coordination Sequence:
#
# PCOD9256883 Si02
#       6
#     8   8   8   8   4   4
#     4  10  18  30  46  83 116 146 165 212 302 343
#     4  11  20  31  57  81 117 144 179 236 295 343
#     4  11  20  39  55  83 109 150 197 237 272 331
#     4  10  19  30  53  76 118 140 176 226 272 355
#     4  10  25  36  58  80 106 159 200 234 266 310
#     4  10  19  32  48  92 108 147 172 214 316 348
#
# _framework density 17.224686999999999
#
# number of rings (size 3 to 8) (size 9 to 14) (size 15 to 20)
#    0.000    1.600    4.000    1.800    2.800    0.000 
#    0.000    0.000    0.000    1.200   10.400    0.000 
#    0.000    0.000    0.000    0.000    0.000    0.000 
#
# Total GULP energy -111411.773423 kJ/mol
# GULP energy per Si atom -5570.588671 kJ/mol
# Density = 1.718548 g / cm^3
# Si number density = 17.224687 Si / 1000 Ang^3
#
#
#
# Elastic Constant Matrix: (Units=GPa)
#
#
# Indices 1 2 3 4 5 6 
#
# 1 113.8037 28.1259 9.1855 0.0000 -23.8590 0.0000
# 2 28.1259 64.9555 14.2144 0.0000 -11.2991 0.0000
# 3 9.1855 14.2144 51.0830 0.0000 6.8239 0.0000
# 4 0.0000 0.0000 0.0000 25.8875 0.0000 -4.4982
# 5 -23.8590 -11.2991 6.8239 0.0000 33.4461 0.0000
# 6 0.0000 0.0000 0.0000 -4.4982 0.0000 22.6844
#
#
#
# Elastic Compliance Matrix: (Units=1/GPa)
#
#
# Indices 1 2 3 4 5 6 
#
# 1 0.011293 -0.003124 -0.002155 0.000000 0.007440 0.000000
# 2 -0.003124 0.018835 -0.005378 0.000000 0.005232 0.000000
# 3 -0.002155 -0.005378 0.022522 0.000000 -0.007949 0.000000
# 4 0.000000 0.000000 0.000000 0.040007 0.000000 0.007933
# 5 0.007440 0.005232 -0.007949 0.000000 0.038596 0.000000
# 6 0.000000 0.000000 0.000000 0.007933 0.000000 0.045656
#
#
# Mechanical properties :
#
#
# Convention : Reuss Voigt Hill
#
# Bulk Modulus (GPa) = 31.91321 36.98820 34.45070
# Shear Modulus (GPa) = 23.96144 28.29137 26.12640
#
# Velocity S-wave (km/s) = 3.73381 4.05716 3.89884
# Velocity P-wave (km/s) = 6.09559 6.59302 6.34918
#
# Compressibility (1/GPa) = 0.03133499
#
# Stress axis : x y z
#
# Youngs Moduli (GPa) = 88.55075 53.09317 44.40110
#
# Poissons Ratio (x) = 0.16586 0.09570
# Poissons Ratio (y) = 0.27663 0.23879
# Poissons Ratio (z) = 0.19085 0.28554
#
# Static dielectric constant tensor:
#      x y z
#    x 1.588260 0.000000 -0.060480 
#    y 0.000000 1.585270 0.000000 
#    z -0.060480 0.000000 1.612010 
# 
# From -- ./inp_files/29280.got.cif
#   From: 2010.05.17/outbox.cif.g08.bks.cpg/sg15_15_cif.got.tgz:29280.got - 2010.06.03 18:47:42.
