data_PCOD9256925
_publ_section_title
;
Structure prediction by ZEFSAII (Michael W. Deem and Ramdas Pophale) SiO2 
 PCOD9256925
Probable space group: C 2/C
;
_chemical_formula_sum "Si O2"
_cell_formula_units_Z 64
_cell_length_a 26.320104
_cell_length_b 15.219573
_cell_length_c 9.139224
_cell_angle_alpha 90.000000
_cell_angle_beta 111.710412
_cell_angle_gamma 90.000000
_cell_volume 3401.305653
_symmetry_space_group_name_H-M "C 2/C"
_symmetry_group_IT_number 15
_symmetry_cell_setting 'monoclinic'
loop_
_space_group_symop_operation_xyz
x,y,z
-x,y,1/2-z
-x,-y,-z
x,-y,1/2+z
1/2+x,1/2+y,z
1/2-x,1/2+y,1/2-z
1/2-x,1/2-y,-z
1/2+x,1/2-y,1/2+z
loop_
_atom_site_type_symbol
_atom_site_label
_atom_site_fract_x
_atom_site_fract_y
_atom_site_fract_z
Si Si1 0.975408 0.083735 0.885956
Si Si2 0.762270 0.587957 0.821430
Si Si3 0.370918 0.877988 0.932021
Si Si4 0.538328 0.732923 0.413689
Si Si5 0.641668 0.511456 0.671118
Si Si6 0.782968 0.760906 0.386255
Si Si7 0.334305 0.997970 0.646025
Si Si8 0.126070 0.109690 0.387549
O O1 0.909462 0.068797 0.821869
O O2 0.000000 0.083017 0.750000
O O3 0.986831 0.176304 0.980267
O O4 0.000000 0.000000 0.000000
O O5 0.702238 0.544917 0.773945
O O6 0.751877 0.690050 0.774446
O O7 0.792437 0.548701 0.709583
O O8 0.799248 0.562911 0.998651
O O9 0.312664 0.826782 0.865551
O O10 0.372314 0.941028 0.793529
O O11 0.418538 0.805657 0.986781
O O12 0.367143 0.934775 0.076991
O O13 0.500000 0.775149 0.250000
O O14 0.569034 0.655949 0.354530
O O15 0.632962 0.520656 0.488471
O O16 0.635867 0.414957 0.731812
O O17 0.750000 0.750000 0.500000
O O18 0.830655 0.827000 0.489539
#
# Coordination Sequence:
#
# PCOD9256925 Si02
#       8
#     8   8   8   8   8   8   8   8
#     4  11  21  35  58  86 124 160 193 235 289 348
#     4  10  19  33  56  84 115 160 194 232 283 348
#     4  10  22  40  61  83 117 151 194 256 295 358
#     4  10  21  40  61  84 113 151 194 241 306 355
#     4  10  18  30  48  81 113 147 193 227 260 332
#     4  10  18  32  51  78 115 149 188 231 281 332
#     4  10  21  37  59  83 114 156 200 239 298 346
#     4   9  19  30  51  75 112 146 184 226 273 328
#
# _framework density 18.816303999999999
#
# number of rings (size 3 to 8) (size 9 to 14) (size 15 to 20)
#    0.000    2.000    1.250    4.875    1.750    0.500 
#    0.000    3.125    2.750    0.000    0.000    0.000 
#    0.000    0.000    0.000    0.000    0.000    0.000 
#
# Total GULP energy -178351.977847 kJ/mol
# GULP energy per Si atom -5573.499308 kJ/mol
# Density = 1.877348 g / cm^3
# Si number density = 18.816304 Si / 1000 Ang^3
#
#
#
# Elastic Constant Matrix: (Units=GPa)
#
#
# Indices 1 2 3 4 5 6 
#
# 1 57.5055 16.7202 38.1996 0.0000 -9.4242 0.0000
# 2 16.7202 82.2371 45.1275 0.0000 -11.8659 0.0000
# 3 38.1996 45.1275 94.2035 0.0000 -14.5783 0.0000
# 4 0.0000 0.0000 0.0000 31.0259 0.0000 0.0757
# 5 -9.4242 -11.8659 -14.5783 0.0000 23.2506 0.0000
# 6 0.0000 0.0000 0.0000 0.0757 0.0000 22.4127
#
#
#
# Elastic Compliance Matrix: (Units=1/GPa)
#
#
# Indices 1 2 3 4 5 6 
#
# 1 0.024195 0.000975 -0.009616 0.000000 0.004275 0.000000
# 2 0.000975 0.016851 -0.007836 0.000000 0.004082 0.000000
# 3 -0.009616 -0.007836 0.018878 0.000000 0.003940 0.000000
# 4 0.000000 0.000000 0.000000 0.032231 0.000000 -0.000109
# 5 0.004275 0.004082 0.003940 0.000000 0.049296 0.000000
# 6 0.000000 0.000000 0.000000 -0.000109 0.000000 0.044618
#
#
# Mechanical properties :
#
#
# Convention : Reuss Voigt Hill
#
# Bulk Modulus (GPa) = 37.08032 48.22676 42.65354
# Shear Modulus (GPa) = 21.92860 24.26444 23.09652
#
# Velocity S-wave (km/s) = 3.41751 3.59492 3.50733
# Velocity P-wave (km/s) = 5.94321 6.55112 6.25455
#
# Compressibility (1/GPa) = 0.02696849
#
# Stress axis : x y z
#
# Youngs Moduli (GPa) = 41.33135 59.34520 52.97150
#
# Poissons Ratio (x) = -0.05783 0.50939
# Poissons Ratio (y) = -0.04028 0.41507
# Poissons Ratio (z) = 0.39745 0.46501
#
# Static dielectric constant tensor:
#      x y z
#    x 1.726510 0.000000 0.036720 
#    y 0.000000 1.685570 0.000000 
#    z 0.036720 0.000000 1.665520 
# 
# From -- ./inp_files/66262.got.cif
#   From: 2010.05.17/outbox.cif.g08.bks.cpg/sg15_34_cif.got.tgz:66262.got - 2010.06.03 18:47:42.
