data_PCOD9256827
_publ_section_title
;
Structure prediction by ZEFSAII (Michael W. Deem and Ramdas Pophale) SiO2 
 PCOD9256827
Probable space group: C 2/C
;
_chemical_formula_sum "Si O2"
_cell_formula_units_Z 40
_cell_length_a 8.281066
_cell_length_b 24.506156
_cell_length_c 10.945695
_cell_angle_alpha 90.000000
_cell_angle_beta 64.209650
_cell_angle_gamma 90.000000
_cell_volume 2000.029677
_symmetry_space_group_name_H-M "C 2/C"
_symmetry_group_IT_number 15
_symmetry_cell_setting 'monoclinic'
loop_
_space_group_symop_operation_xyz
x,y,z
-x,y,1/2-z
-x,-y,-z
x,-y,1/2+z
1/2+x,1/2+y,z
1/2-x,1/2+y,1/2-z
1/2-x,1/2-y,-z
1/2+x,1/2-y,1/2+z
loop_
_atom_site_type_symbol
_atom_site_label
_atom_site_fract_x
_atom_site_fract_y
_atom_site_fract_z
Si Si1 0.462726 0.192870 0.406280
Si Si2 0.951262 0.588020 0.540148
Si Si3 0.630993 0.578952 0.820842
Si Si4 0.963952 0.187078 0.907992
Si Si5 0.663319 0.002983 0.101421
O O1 0.500000 0.187403 0.250000
O O2 0.536567 0.142478 0.458922
O O3 0.248234 0.187471 0.497597
O O4 0.526746 0.252765 0.428227
O O5 0.821497 0.597118 0.698314
O O6 0.827711 0.558480 0.477766
O O7 0.099995 0.544338 0.529303
O O8 0.500000 0.567976 0.750000
O O9 0.555247 0.630874 0.920439
O O10 0.672707 0.523765 0.880231
O O11 0.000000 0.186290 0.750000
O O12 0.500000 0.011184 0.250000
#
# Coordination Sequence:
#
# PCOD9256827 Si02
#       5
#     8   8   8   8   8
#     4  10  18  29  54  78 105 140 181 222 259 319
#     4  10  18  34  53  78 108 143 182 215 268 326
#     4  10  18  34  54  77 108 139 181 223 269 319
#     4   9  17  32  50  79 106 135 181 222 270 314
#     4   9  20  33  53  78 109 144 180 219 265 328
#
# _framework density 19.999703
#
# number of rings (size 3 to 8) (size 9 to 14) (size 15 to 20)
#    0.000    2.400    4.000    0.600    0.000    0.800 
#    0.000    1.000    0.000    0.000    0.000    0.000 
#    0.000    0.000    0.000    0.000    0.000    0.000 
#
# Total GULP energy -111432.418056 kJ/mol
# GULP energy per Si atom -5571.620903 kJ/mol
# Density = 1.995418 g / cm^3
# Si number density = 19.999703 Si / 1000 Ang^3
#
#
#
# Elastic Constant Matrix: (Units=GPa)
#
#
# Indices 1 2 3 4 5 6 
#
# 1 40.1107 24.6021 3.6914 0.0000 3.7905 0.0000
# 2 24.6021 91.5739 13.3466 0.0000 -1.0608 0.0000
# 3 3.6914 13.3466 79.8723 0.0000 -17.7575 0.0000
# 4 0.0000 0.0000 0.0000 44.9374 0.0000 -5.1059
# 5 3.7905 -1.0608 -17.7575 0.0000 19.9274 0.0000
# 6 0.0000 0.0000 0.0000 -5.1059 0.0000 18.2658
#
#
#
# Elastic Compliance Matrix: (Units=1/GPa)
#
#
# Indices 1 2 3 4 5 6 
#
# 1 0.030820 -0.008105 -0.001832 0.000000 -0.007927 0.000000
# 2 -0.008105 0.013353 -0.001691 0.000000 0.000746 0.000000
# 3 -0.001832 -0.001691 0.016143 0.000000 0.014644 0.000000
# 4 0.000000 0.000000 0.000000 0.022983 0.000000 0.006425
# 5 -0.007927 0.000746 0.014644 0.000000 0.064779 0.000000
# 6 0.000000 0.000000 0.000000 0.006425 0.000000 0.056543
#
#
# Mechanical properties :
#
#
# Convention : Reuss Voigt Hill
#
# Bulk Modulus (GPa) = 26.98378 32.75968 29.87173
# Shear Modulus (GPa) = 20.81347 27.95391 24.38369
#
# Velocity S-wave (km/s) = 3.22947 3.74266 3.49550
# Velocity P-wave (km/s) = 5.23711 5.92388 5.59105
#
# Compressibility (1/GPa) = 0.03705930
#
# Stress axis : x y z
#
# Youngs Moduli (GPa) = 32.44665 74.89166 61.94707
#
# Poissons Ratio (x) = 0.60698 0.11351
# Poissons Ratio (y) = 0.26297 0.10474
# Poissons Ratio (z) = 0.05945 0.12663
#
# Static dielectric constant tensor:
#      x y z
#    x 1.753210 0.000000 -0.009190 
#    y 0.000000 1.784620 0.000000 
#    z -0.009190 0.000000 1.720990 
# 
# From -- ./inp_files/78627.got.cif
#   From: 2010.05.17/outbox.cif.g08.bks.cpg/sg15_40_cif.got.tgz:78627.got - 2010.06.03 18:47:42.
