data_PCOD9256880
_publ_section_title
;
Structure prediction by ZEFSAII (Michael W. Deem and Ramdas Pophale) SiO2 
 PCOD9256880
Probable space group: C 2/C
;
_chemical_formula_sum "Si O2"
_cell_formula_units_Z 36
_cell_length_a 9.035335
_cell_length_b 24.095694
_cell_length_c 9.322096
_cell_angle_alpha 90.000000
_cell_angle_beta 134.649563
_cell_angle_gamma 90.000000
_cell_volume 1443.850932
_symmetry_space_group_name_H-M "C 2/C"
_symmetry_group_IT_number 15
_symmetry_cell_setting 'monoclinic'
loop_
_space_group_symop_operation_xyz
x,y,z
-x,y,1/2-z
-x,-y,-z
x,-y,1/2+z
1/2+x,1/2+y,z
1/2-x,1/2+y,1/2-z
1/2-x,1/2-y,-z
1/2+x,1/2-y,1/2+z
loop_
_atom_site_type_symbol
_atom_site_label
_atom_site_fract_x
_atom_site_fract_y
_atom_site_fract_z
Si Si1 0.014223 0.711366 0.470369
Si Si2 0.206641 0.450068 0.483428
Si Si3 0.234770 0.553664 0.348591
Si Si4 0.842568 0.171824 0.459426
Si Si5 0.500000 0.153972 0.750000
O O1 0.999522 0.777156 0.436011
O O2 0.194224 0.686299 0.492660
O O3 0.801653 0.683565 0.275593
O O4 0.054347 0.692253 0.656140
O O5 0.333220 0.500687 0.499988
O O6 0.207072 0.453834 0.656420
O O7 0.196875 0.385556 0.430779
O O8 0.000000 0.465331 0.250000
O O9 0.382749 0.606612 0.482184
O O10 0.000000 0.569781 0.250000
#
# Coordination Sequence:
#
# PCOD9256880 Si02
#       5
#     8   8   8   8   4
#     4  10  20  32  50  71 104 137 166 204 244 301
#     4   9  18  24  44  70  97 126 151 208 258 283
#     4  11  16  28  45  69 104 122 161 205 258 290
#     4  10  19  34  50  71 105 136 169 198 247 304
#     4  10  18  30  46  76 104 124 168 206 258 292
#
# _framework density 24.933323000000001
#
# number of rings (size 3 to 8) (size 9 to 14) (size 15 to 20)
#    0.667    1.333    4.444    2.667    3.111    0.889 
#    0.000    0.000    0.000    0.000    0.000    1.556 
#    6.667    0.000    0.000    0.000    0.000    0.000 
#
# Total GULP energy -100249.001745 kJ/mol
# GULP energy per Si atom -5569.388986 kJ/mol
# Density = 2.487657 g / cm^3
# Si number density = 24.933323 Si / 1000 Ang^3
#
#
#
# Elastic Constant Matrix: (Units=GPa)
#
#
# Indices 1 2 3 4 5 6 
#
# 1 42.0194 -6.3097 31.5892 0.0000 3.2329 0.0000
# 2 -6.3097 70.9404 8.3373 0.0000 25.2363 0.0000
# 3 31.5892 8.3373 119.0292 0.0000 -34.0884 0.0000
# 4 0.0000 0.0000 0.0000 34.7555 0.0000 -20.8949
# 5 3.2329 25.2363 -34.0884 0.0000 14.0862 0.0000
# 6 0.0000 0.0000 0.0000 -20.8949 0.0000 41.6601
#
#
#
# Elastic Compliance Matrix: (Units=1/GPa)
#
#
# Indices 1 2 3 4 5 6 
#
# 1 0.014278 -0.011701 0.006827 0.000000 0.034206 0.000000
# 2 -0.011701 0.000167 0.012306 0.000000 0.032166 0.000000
# 3 0.006827 0.012306 -0.003371 0.000000 -0.031771 0.000000
# 4 0.000000 0.000000 0.000000 0.041194 0.000000 0.020661
# 5 0.034206 0.032166 -0.031771 0.000000 -0.071372 0.000000
# 6 0.000000 0.000000 0.000000 0.020661 0.000000 0.034367
#
#
# Mechanical properties :
#
#
# Convention : Reuss Voigt Hill
#
# Bulk Modulus (GPa) = 38.55679 33.24695 35.90187
# Shear Modulus (GPa) = 552.82487 31.32517 292.07502
#
# Velocity S-wave (km/s) = 14.90646 3.54836 10.83498
# Velocity P-wave (km/s) = 17.65695 5.49100 13.07514
#
# Compressibility (1/GPa) = 0.02593577
#
# Stress axis : x y z
#
# Youngs Moduli (GPa) = 70.03951 6001.52411 -296.63750
#
# Poissons Ratio (x) = 70.22299 2.02502
# Poissons Ratio (y) = 0.81952 3.65029
# Poissons Ratio (z) = -0.47813 -73.85216
#
# Static dielectric constant tensor:
#      x y z
#    x 0.975120 0.000000 -0.702750 
#    y 0.000000 2.214490 0.000000 
#    z -0.702750 0.000000 1.391020 
# 
# From -- ./inp_files/33203.got.cif
#   From: 2010.05.17/outbox.cif.g08.bks.cpg/sg15_17_cif.got.tgz:33203.got - 2010.06.03 18:47:42.
