data_PCOD9256963
_publ_section_title
;
Structure prediction by ZEFSAII (Michael W. Deem and Ramdas Pophale) SiO2 
 PCOD9256963
Probable space group: C 2/C
;
_chemical_formula_sum "Si O2"
_cell_formula_units_Z 64
_cell_length_a 19.775282
_cell_length_b 20.595389
_cell_length_c 8.986871
_cell_angle_alpha 90.000000
_cell_angle_beta 83.245535
_cell_angle_gamma 90.000000
_cell_volume 3634.765295
_symmetry_space_group_name_H-M "C 2/C"
_symmetry_group_IT_number 15
_symmetry_cell_setting 'monoclinic'
loop_
_space_group_symop_operation_xyz
x,y,z
-x,y,1/2-z
-x,-y,-z
x,-y,1/2+z
1/2+x,1/2+y,z
1/2-x,1/2+y,1/2-z
1/2-x,1/2-y,-z
1/2+x,1/2-y,1/2+z
loop_
_atom_site_type_symbol
_atom_site_label
_atom_site_fract_x
_atom_site_fract_y
_atom_site_fract_z
Si Si1 0.221091 0.072053 0.002913
Si Si2 0.938121 0.920171 0.473768
Si Si3 0.921279 0.785907 0.653013
Si Si4 0.197944 0.303454 0.946579
Si Si5 0.916301 0.893762 0.134528
Si Si6 0.197195 0.946083 0.859590
Si Si7 0.229600 0.200962 0.377698
Si Si8 0.056352 0.762669 0.517692
O O1 0.278197 0.127729 0.992881
O O2 0.202355 0.058775 0.180435
O O3 0.154821 0.098440 0.932082
O O4 0.240145 0.004838 0.917369
O O5 0.931832 0.851967 0.560944
O O6 0.914991 0.912696 0.308122
O O7 0.880663 0.961377 0.572275
O O8 0.018997 0.932048 0.452003
O O9 0.842196 0.770191 0.660977
O O10 0.932703 0.797192 0.824812
O O11 0.978301 0.739262 0.563120
O O12 0.215380 0.301706 0.767311
O O13 0.250000 0.250000 0.000000
O O14 0.118847 0.286803 0.989717
O O15 0.935739 0.817247 0.110881
O O16 0.216362 0.875075 0.919928
O O17 0.250000 0.250000 0.500000
#
# Coordination Sequence:
#
# PCOD9256963 Si02
#       8
#     8   8   8   8   8   8   8   8
#     4  11  22  36  53  71 104 138 184 219 267 313
#     4   9  19  31  47  74 104 139 184 206 264 308
#     4   9  18  32  49  75 110 143 173 218 264 317
#     4  11  20  33  53  82 103 140 180 220 270 315
#     4  10  18  30  50  73 102 144 176 221 250 314
#     4  10  22  37  50  73 101 141 176 220 263 320
#     4  10  21  35  54  81 112 135 174 221 273 326
#     4  10  18  32  51  75 110 141 180 219 265 314
#
# _framework density 17.607738000000001
#
# number of rings (size 3 to 8) (size 9 to 14) (size 15 to 20)
#    0.000    2.000    2.500    2.250    3.500    3.000 
#    0.000    0.000    0.000    0.000    0.000    0.875 
#    0.000    0.000    0.000    0.000    0.000    0.000 
#
# Total GULP energy -178251.149761 kJ/mol
# GULP energy per Si atom -5570.348430 kJ/mol
# Density = 1.756766 g / cm^3
# Si number density = 17.607738 Si / 1000 Ang^3
#
#
#
# Elastic Constant Matrix: (Units=GPa)
#
#
# Indices 1 2 3 4 5 6 
#
# 1 70.4314 26.0121 16.3905 0.0000 -12.2901 0.0000
# 2 26.0121 72.1624 20.0624 0.0000 0.2460 0.0000
# 3 16.3905 20.0624 34.5754 0.0000 -3.1744 0.0000
# 4 0.0000 0.0000 0.0000 21.8932 0.0000 1.8801
# 5 -12.2901 0.2460 -3.1744 0.0000 26.9324 0.0000
# 6 0.0000 0.0000 0.0000 1.8801 0.0000 31.8963
#
#
#
# Elastic Compliance Matrix: (Units=1/GPa)
#
#
# Indices 1 2 3 4 5 6 
#
# 1 0.018758 -0.005391 -0.005028 0.000000 0.008017 0.000000
# 2 -0.005391 0.018117 -0.008288 0.000000 -0.003602 0.000000
# 3 -0.005028 -0.008288 0.036304 0.000000 0.002060 0.000000
# 4 0.000000 0.000000 0.000000 0.045909 0.000000 -0.002706
# 5 0.008017 -0.003602 0.002060 0.000000 0.041064 0.000000
# 6 0.000000 0.000000 0.000000 -0.002706 0.000000 0.031511
#
#
# Mechanical properties :
#
#
# Convention : Reuss Voigt Hill
#
# Bulk Modulus (GPa) = 27.95977 33.56658 30.76318
# Shear Modulus (GPa) = 20.74695 23.79133 22.26914
#
# Velocity S-wave (km/s) = 3.43634 3.67984 3.56017
# Velocity P-wave (km/s) = 5.62657 6.09589 5.86593
#
# Compressibility (1/GPa) = 0.03576567
#
# Stress axis : x y z
#
# Youngs Moduli (GPa) = 53.30973 55.19560 27.54520
#
# Poissons Ratio (x) = 0.29757 0.13850
# Poissons Ratio (y) = 0.28740 0.22829
# Poissons Ratio (z) = 0.26805 0.45744
#
# Static dielectric constant tensor:
#      x y z
#    x 1.334660 0.000000 -0.340590 
#    y 0.000000 1.634710 0.000000 
#    z -0.340590 0.000000 1.273110 
# 
# From -- ./inp_files/57523.got.cif
#   From: 2010.05.17/outbox.cif.g08.bks.cpg/sg15_29_cif.got.tgz:57523.got - 2010.06.03 18:47:42.
