data_PCOD9256081
_publ_section_title
;
Structure prediction by ZEFSAII (Michael W. Deem and Ramdas Pophale) SiO2 
 PCOD9256081
Probable space group: C 2/C
;
_chemical_formula_sum "Si O2"
_cell_formula_units_Z 64
_cell_length_a 10.842251
_cell_length_b 31.682055
_cell_length_c 14.385921
_cell_angle_alpha 90.000000
_cell_angle_beta 42.138578
_cell_angle_gamma 90.000000
_cell_volume 3315.470176
_symmetry_space_group_name_H-M "C 2/C"
_symmetry_group_IT_number 15
_symmetry_cell_setting 'monoclinic'
loop_
_space_group_symop_operation_xyz
x,y,z
-x,y,1/2-z
-x,-y,-z
x,-y,1/2+z
1/2+x,1/2+y,z
1/2-x,1/2+y,1/2-z
1/2-x,1/2-y,-z
1/2+x,1/2-y,1/2+z
loop_
_atom_site_type_symbol
_atom_site_label
_atom_site_fract_x
_atom_site_fract_y
_atom_site_fract_z
Si Si1 0.023770 0.852488 0.012523
Si Si2 0.841302 0.090388 0.899722
Si Si3 0.719152 0.491218 0.378240
Si Si4 0.877025 0.320144 0.723918
Si Si5 0.546858 0.981787 0.577451
Si Si6 0.116717 0.221744 0.779108
Si Si7 0.120029 0.345159 0.421460
Si Si8 0.830078 0.399588 0.280650
O O1 0.095445 0.891103 0.037248
O O2 0.984976 0.809668 0.092780
O O3 0.826850 0.869329 0.089625
O O4 0.180593 0.840490 0.853423
O O5 0.797003 0.132791 0.867939
O O6 0.000000 0.068181 0.750000
O O7 0.660712 0.061672 0.004544
O O8 0.500000 0.500000 0.500000
O O9 0.813959 0.492438 0.429046
O O10 0.745801 0.445780 0.314715
O O11 0.853455 0.521282 0.241725
O O12 0.865580 0.270601 0.705357
O O13 0.000000 0.324330 0.750000
O O14 0.973331 0.342394 0.583870
O O15 0.500000 0.000000 0.500000
O O16 0.314169 0.200455 0.649696
O O17 0.000000 0.221777 0.750000
O O18 0.087915 0.376233 0.354587
O O19 0.000000 0.406437 0.250000
#
# Coordination Sequence:
#
# PCOD9256081 Si02
#       8
#     8   8   8   8   8   8   8   8
#     4  11  21  37  63  93 127 170 211 255 320 376
#     4  12  21  37  63  91 126 166 205 257 318 389
#     4  11  25  47  67  95 128 168 214 273 335 395
#     4  11  21  33  58  99 141 158 200 264 324 386
#     4  11  26  41  68  98 128 164 218 271 327 388
#     4  10  17  34  57  93 133 175 199 246 321 400
#     4  11  21  36  61  91 130 163 211 249 320 376
#     4  11  23  44  67  80 118 172 224 257 303 388
#
# _framework density 19.303446999999998
#
# number of rings (size 3 to 8) (size 9 to 14) (size 15 to 20)
#    0.000    1.000    6.250    2.250    1.750    5.000 
#    0.000    0.625    2.750   12.000    0.000    0.000 
#    0.000    0.000    0.000    0.000    0.000    0.000 
#
# Total GULP energy -178400.587405 kJ/mol
# GULP energy per Si atom -5575.018356 kJ/mol
# Density = 1.925951 g / cm^3
# Si number density = 19.303447 Si / 1000 Ang^3
#
#
#
# Elastic Constant Matrix: (Units=GPa)
#
#
# Indices 1 2 3 4 5 6 
#
# 1 64.3355 25.3306 43.3495 0.0000 -11.7064 0.0000
# 2 25.3306 97.4361 56.5445 0.0000 -6.7236 0.0000
# 3 43.3495 56.5445 177.5205 0.0000 -11.9236 0.0000
# 4 0.0000 0.0000 0.0000 19.7181 0.0000 -7.3137
# 5 -11.7064 -6.7236 -11.9236 0.0000 22.2023 0.0000
# 6 0.0000 0.0000 0.0000 -7.3137 0.0000 15.0920
#
#
#
# Elastic Compliance Matrix: (Units=1/GPa)
#
#
# Indices 1 2 3 4 5 6 
#
# 1 0.020497 -0.002677 -0.003611 0.000000 0.008057 0.000000
# 2 -0.002677 0.013004 -0.003443 0.000000 0.000678 0.000000
# 3 -0.003611 -0.003443 0.007691 0.000000 0.001184 0.000000
# 4 0.000000 0.000000 0.000000 0.061828 0.000000 0.029963
# 5 0.008057 0.000678 0.001184 0.000000 0.050130 0.000000
# 6 0.000000 0.000000 0.000000 0.029963 0.000000 0.080780
#
#
# Mechanical properties :
#
#
# Convention : Reuss Voigt Hill
#
# Bulk Modulus (GPa) = 46.02004 65.52682 55.77343
# Shear Modulus (GPa) = 19.18387 25.67363 22.42875
#
# Velocity S-wave (km/s) = 3.15589 3.65088 3.41237
# Velocity P-wave (km/s) = 6.09685 7.19661 6.66944
#
# Compressibility (1/GPa) = 0.02172967
#
# Stress axis : x y z
#
# Youngs Moduli (GPa) = 48.78785 76.90090 130.01932
#
# Poissons Ratio (x) = 0.20585 0.46955
# Poissons Ratio (y) = 0.13060 0.44763
# Poissons Ratio (z) = 0.17619 0.26476
#
# Static dielectric constant tensor:
#      x y z
#    x 1.521880 0.000000 -0.072470 
#    y 0.000000 1.727070 0.000000 
#    z -0.072470 0.000000 1.643530 
# 
# From -- ./inp_files/149163.got.cif
#   From: 2010.05.17/outbox.cif.g08.bks.cpg/sg15_75_cif.got.tgz:149163.got - 2010.06.03 18:47:42.
