data_PCOD9256991
_publ_section_title
;
Structure prediction by ZEFSAII (Michael W. Deem and Ramdas Pophale) SiO2 
 PCOD9256991
Probable space group: C 2/C
;
_chemical_formula_sum "Si O2"
_cell_formula_units_Z 60
_cell_length_a 29.144832
_cell_length_b 13.744848
_cell_length_c 14.512572
_cell_angle_alpha 90.000000
_cell_angle_beta 33.858990
_cell_angle_gamma 90.000000
_cell_volume 3239.057842
_symmetry_space_group_name_H-M "C 2/C"
_symmetry_group_IT_number 15
_symmetry_cell_setting 'monoclinic'
loop_
_space_group_symop_operation_xyz
x,y,z
-x,y,1/2-z
-x,-y,-z
x,-y,1/2+z
1/2+x,1/2+y,z
1/2-x,1/2+y,1/2-z
1/2-x,1/2-y,-z
1/2+x,1/2-y,1/2+z
loop_
_atom_site_type_symbol
_atom_site_label
_atom_site_fract_x
_atom_site_fract_y
_atom_site_fract_z
Si Si1 0.708977 0.179241 0.994997
Si Si2 0.882986 0.766058 0.637561
Si Si3 0.665363 0.539753 0.654360
Si Si4 0.049566 0.206917 0.763039
Si Si5 0.000000 0.070085 0.250000
Si Si6 0.750210 0.351103 0.275454
Si Si7 0.357420 0.522706 0.106623
Si Si8 0.636623 0.667876 0.127084
O O1 0.743203 0.077225 0.974484
O O2 0.748471 0.194366 0.828635
O O3 0.750000 0.250000 0.000000
O O4 0.613205 0.203466 0.149296
O O5 0.839993 0.671233 0.666624
O O6 0.863122 0.772266 0.779229
O O7 0.979950 0.774466 0.455725
O O8 0.847326 0.862602 0.643428
O O9 0.607816 0.615205 0.694081
O O10 0.624496 0.521407 0.822280
O O11 0.672915 0.437626 0.592265
O O12 0.000000 0.196167 0.750000
O O13 0.045525 0.140023 0.246157
O O14 0.934097 0.004710 0.414100
O O15 0.718662 0.461595 0.309797
O O16 0.688139 0.300432 0.451681
#
# Coordination Sequence:
#
# PCOD9256991 Si02
#       8
#     8   8   8   8   4   8   8   8
#     4   9  19  35  51  77 110 141 177 222 269 320
#     4  11  21  34  52  81 110 144 182 223 277 319
#     4   9  19  34  49  74 109 143 176 216 275 327
#     4  11  20  29  54  82 106 136 177 228 277 324
#     4  10  18  30  50  80 112 140 176 216 280 326
#     4  10  20  34  52  77 109 146 182 217 261 329
#     4   9  20  32  49  75 110 142 175 219 270 323
#     4  10  21  33  52  76 112 147 175 221 265 333
#
# _framework density 18.523904999999999
#
# number of rings (size 3 to 8) (size 9 to 14) (size 15 to 20)
#    0.000    2.133    1.333    2.000    5.600    3.200 
#    0.000    0.000    0.000    0.800    0.000   22.400 
#    0.000    0.000    0.000    0.000    0.000    0.000 
#
# Total GULP energy -167108.208586 kJ/mol
# GULP energy per Si atom -5570.273620 kJ/mol
# Density = 1.848174 g / cm^3
# Si number density = 18.523905 Si / 1000 Ang^3
#
#
#
# Elastic Constant Matrix: (Units=GPa)
#
#
# Indices 1 2 3 4 5 6 
#
# 1 106.3035 32.0531 30.0355 0.0000 4.9311 0.0000
# 2 32.0531 37.5217 28.2578 0.0000 -9.8478 0.0000
# 3 30.0355 28.2578 83.7367 0.0000 6.2988 0.0000
# 4 0.0000 0.0000 0.0000 17.2811 0.0000 0.9535
# 5 4.9311 -9.8478 6.2988 0.0000 33.5465 0.0000
# 6 0.0000 0.0000 0.0000 0.9535 0.0000 12.8480
#
#
#
# Elastic Compliance Matrix: (Units=1/GPa)
#
#
# Indices 1 2 3 4 5 6 
#
# 1 0.013667 -0.013224 0.000004 0.000000 -0.005891 0.000000
# 2 -0.013224 0.055077 -0.015423 0.000000 0.021008 0.000000
# 3 0.000004 -0.015423 0.017737 0.000000 -0.007858 0.000000
# 4 0.000000 0.000000 0.000000 0.058105 0.000000 -0.004312
# 5 -0.005891 0.021008 -0.007858 0.000000 0.038318 0.000000
# 6 0.000000 0.000000 0.000000 -0.004312 0.000000 0.078153
#
#
# Mechanical properties :
#
#
# Convention : Reuss Voigt Hill
#
# Bulk Modulus (GPa) = 34.25444 45.36163 39.80804
# Shear Modulus (GPa) = 15.24049 21.88282 18.56166
#
# Velocity S-wave (km/s) = 2.87147 3.44077 3.16893
# Velocity P-wave (km/s) = 5.43378 6.35032 5.90984
#
# Compressibility (1/GPa) = 0.02919329
#
# Stress axis : x y z
#
# Youngs Moduli (GPa) = 73.17139 18.15654 56.38007
#
# Poissons Ratio (x) = 0.24010 -0.00020
# Poissons Ratio (y) = 0.96759 0.86956
# Poissons Ratio (z) = -0.00026 0.28003
#
# Static dielectric constant tensor:
#      x y z
#    x 1.683900 0.000000 0.007980 
#    y 0.000000 1.682310 0.000000 
#    z 0.007980 0.000000 1.687830 
# 
# From -- ./inp_files/153932.got.cif
#   From: 2010.05.17/outbox.cif.g08.bks.cpg/sg15_77_cif.got.tgz:153932.got - 2010.06.03 18:47:42.
