data_PCOD9256704
_publ_section_title
;
Structure prediction by ZEFSAII (Michael W. Deem and Ramdas Pophale) SiO2 
 PCOD9256704
Probable space group: C 2/C
;
_chemical_formula_sum "Si O2"
_cell_formula_units_Z 56
_cell_length_a 27.688592
_cell_length_b 18.215312
_cell_length_c 5.408742
_cell_angle_alpha 90.000000
_cell_angle_beta 125.943731
_cell_angle_gamma 90.000000
_cell_volume 2208.518064
_symmetry_space_group_name_H-M "C 2/C"
_symmetry_group_IT_number 15
_symmetry_cell_setting 'monoclinic'
loop_
_space_group_symop_operation_xyz
x,y,z
-x,y,1/2-z
-x,-y,-z
x,-y,1/2+z
1/2+x,1/2+y,z
1/2-x,1/2+y,1/2-z
1/2-x,1/2-y,-z
1/2+x,1/2-y,1/2+z
loop_
_atom_site_type_symbol
_atom_site_label
_atom_site_fract_x
_atom_site_fract_y
_atom_site_fract_z
Si Si1 0.870032 0.399314 0.902639
Si Si2 0.864933 0.781395 0.875255
Si Si3 0.815460 0.612242 0.738448
Si Si4 0.000000 0.270116 0.750000
Si Si5 0.320193 0.264736 0.236975
Si Si6 0.938175 0.955800 0.005831
Si Si7 0.000000 0.632064 0.750000
Si Si8 0.309715 0.451735 0.738382
O O1 0.829207 0.421220 0.548199
O O2 0.857983 0.310786 0.870205
O O3 0.852862 0.422387 0.126173
O O4 0.938907 0.412996 0.056538
O O5 0.834979 0.697506 0.807121
O O6 0.834781 0.805888 0.531037
O O7 0.844181 0.809799 0.078793
O O8 0.936156 0.771186 0.067271
O O9 0.747459 0.599558 0.462445
O O10 0.998250 0.318855 0.494048
O O11 0.250000 0.250000 0.000000
O O12 0.000000 0.915586 0.250000
O O13 0.939358 0.020595 0.221308
O O14 0.876233 0.919468 0.891670
O O15 0.306520 0.510178 0.499022
#
# Coordination Sequence:
#
# PCOD9256704 Si02
#       8
#     8   8   8   4   8   8   4   8
#     4  10  19  30  47  71  90 119 151 191 231 273
#     4  10  19  30  46  70  92 120 152 190 233 272
#     4  10  18  30  44  65  95 118 153 187 227 283
#     4  12  16  30  48  70  95 112 150 206 238 272
#     4  10  18  29  43  65  99 121 142 178 225 282
#     4   8  14  25  41  61  87 109 131 173 220 268
#     4  12  16  30  48  68  95 114 150 202 240 272
#     4  10  19  30  45  67  93 122 149 186 236 281
#
# _framework density 25.356369000000001
#
# number of rings (size 3 to 8) (size 9 to 14) (size 15 to 20)
#    0.000    2.000    5.714    1.286    0.000    0.000 
#    0.000    0.000    0.000    0.000    0.000   17.000 
#   68.571    0.000    0.000    0.000    0.000    0.000 
#
# Total GULP energy -156531.976831 kJ/mol
# GULP energy per Si atom -5590.427744 kJ/mol
# Density = 2.529866 g / cm^3
# Si number density = 25.356369 Si / 1000 Ang^3
#
#
#
# Elastic Constant Matrix: (Units=GPa)
#
#
# Indices 1 2 3 4 5 6 
#
# 1 145.3782 9.4016 33.2177 0.0000 2.2717 0.0000
# 2 9.4016 38.6162 -4.2873 0.0000 -0.9403 0.0000
# 3 33.2177 -4.2873 122.2504 0.0000 -14.3710 0.0000
# 4 0.0000 0.0000 0.0000 102.6687 0.0000 -154.9409
# 5 2.2717 -0.9403 -14.3710 0.0000 93.5886 0.0000
# 6 0.0000 0.0000 0.0000 -154.9409 0.0000 340.3144
#
#
#
# Elastic Compliance Matrix: (Units=1/GPa)
#
#
# Indices 1 2 3 4 5 6 
#
# 1 0.007520 -0.002086 -0.002180 0.000000 -0.000538 0.000000
# 2 -0.002086 0.026591 0.001565 0.000000 0.000558 0.000000
# 3 -0.002180 0.001565 0.008998 0.000000 0.001450 0.000000
# 4 0.000000 0.000000 0.000000 0.031127 0.000000 0.014172
# 5 -0.000538 0.000558 0.001450 0.000000 0.010926 0.000000
# 6 0.000000 0.000000 0.000000 0.014172 0.000000 0.009391
#
#
# Mechanical properties :
#
#
# Convention : Reuss Voigt Hill
#
# Bulk Modulus (GPa) = 26.52016 42.54542 34.53279
# Shear Modulus (GPa) = 44.43510 125.17520 84.80515
#
# Velocity S-wave (km/s) = 4.19074 7.03374 5.78947
# Velocity P-wave (km/s) = 5.82220 9.09836 7.63800
#
# Compressibility (1/GPa) = 0.03770716
#
# Stress axis : x y z
#
# Youngs Moduli (GPa) = 132.97930 37.60661 111.14107
#
# Poissons Ratio (x) = 0.07844 0.24226
# Poissons Ratio (y) = 0.27739 -0.17393
# Poissons Ratio (z) = 0.28986 -0.05885
#
# Static dielectric constant tensor:
#      x y z
#    x 2.078410 0.000000 -0.035920 
#    y 0.000000 2.534770 0.000000 
#    z -0.035920 0.000000 2.037750 
# 
# From -- ./inp_files/17798.got.cif
#   From: 2010.05.17/outbox.cif.g08.bks.cpg/sg15_9_cif.got.tgz:17798.got - 2010.06.03 18:47:42.
