data_PCOD9256174
_publ_section_title
;
Structure prediction by ZEFSAII (Michael W. Deem and Ramdas Pophale) SiO2 
 PCOD9256174
Probable space group: C 2/C
;
_chemical_formula_sum "Si O2"
_cell_formula_units_Z 44
_cell_length_a 12.954752
_cell_length_b 20.430034
_cell_length_c 14.704540
_cell_angle_alpha 90.000000
_cell_angle_beta 144.911592
_cell_angle_gamma 90.000000
_cell_volume 2237.156675
_symmetry_space_group_name_H-M "C 2/C"
_symmetry_group_IT_number 15
_symmetry_cell_setting 'monoclinic'
loop_
_space_group_symop_operation_xyz
x,y,z
-x,y,1/2-z
-x,-y,-z
x,-y,1/2+z
1/2+x,1/2+y,z
1/2-x,1/2+y,1/2-z
1/2-x,1/2-y,-z
1/2+x,1/2-y,1/2+z
loop_
_atom_site_type_symbol
_atom_site_label
_atom_site_fract_x
_atom_site_fract_y
_atom_site_fract_z
Si Si1 0.650060 0.665553 0.992155
Si Si2 0.506649 0.107884 0.554625
Si Si3 0.500000 0.921866 0.250000
Si Si4 0.176354 0.983860 0.495121
Si Si5 0.760043 0.795009 0.149056
Si Si6 0.224561 0.994884 0.813600
O O1 0.687286 0.590071 0.038532
O O2 0.720197 0.679260 0.940193
O O3 0.437384 0.681788 0.830864
O O4 0.742945 0.717041 0.126244
O O5 0.475501 0.117316 0.639387
O O6 0.584392 0.172344 0.564920
O O7 0.658145 0.051762 0.647470
O O8 0.330249 0.073508 0.386218
O O9 0.670380 0.969053 0.358375
O O10 0.206117 0.984651 0.406844
O O11 0.975663 0.008835 0.368263
#
# Coordination Sequence:
#
# PCOD9256174 Si02
#       6
#     8   8   4   8   8   8
#     4  10  19  33  53  79 104 146 166 232 259 322
#     4  10  18  35  50  79 105 148 175 217 262 328
#     4  10  24  30  54  80 112 142 178 220 266 306
#     4  10  17  35  50  83 108 134 174 226 267 325
#     4  10  19  34  53  75 112 138 184 206 274 316
#     4   9  17  31  58  72 110 143 167 212 282 312
#
# _framework density 19.667822000000001
#
# number of rings (size 3 to 8) (size 9 to 14) (size 15 to 20)
#    0.000    2.182    3.636    1.091    0.000    3.636 
#    0.000    0.000    0.000    1.091    0.000    0.000 
#    0.000    0.000    0.000    0.000    0.000    0.000 
#
# Total GULP energy -122849.601269 kJ/mol
# GULP energy per Si atom -5584.072785 kJ/mol
# Density = 1.962306 g / cm^3
# Si number density = 19.667822 Si / 1000 Ang^3
#
#
#
# Elastic Constant Matrix: (Units=GPa)
#
#
# Indices 1 2 3 4 5 6 
#
# 1 60.7961 27.8753 22.4676 0.0000 11.8836 0.0000
# 2 27.8753 63.9515 12.8629 0.0000 9.6240 0.0000
# 3 22.4676 12.8629 33.3155 0.0000 12.2773 0.0000
# 4 0.0000 0.0000 0.0000 6.5327 0.0000 11.5270
# 5 11.8836 9.6240 12.2773 0.0000 27.7382 0.0000
# 6 0.0000 0.0000 0.0000 11.5270 0.0000 28.0459
#
#
#
# Elastic Compliance Matrix: (Units=1/GPa)
#
#
# Indices 1 2 3 4 5 6 
#
# 1 0.025500 -0.008114 -0.013234 0.000000 -0.002252 0.000000
# 2 -0.008114 0.019836 -0.001113 0.000000 -0.002913 0.000000
# 3 -0.013234 -0.001113 0.044377 0.000000 -0.013586 0.000000
# 4 0.000000 0.000000 0.000000 0.557077 0.000000 -0.228961
# 5 -0.002252 -0.002913 -0.013586 0.000000 0.044040 0.000000
# 6 0.000000 0.000000 0.000000 -0.228961 0.000000 0.129760
#
#
# Mechanical properties :
#
#
# Convention : Reuss Voigt Hill
#
# Bulk Modulus (GPa) = 22.32593 31.60828 26.96710
# Shear Modulus (GPa) = 5.67896 18.78716 12.23306
#
# Velocity S-wave (km/s) = 1.70109 3.09402 2.49667
# Velocity P-wave (km/s) = 3.90313 5.37307 4.69597
#
# Compressibility (1/GPa) = 0.04479097
#
# Stress axis : x y z
#
# Youngs Moduli (GPa) = 39.21621 50.41358 22.53402
#
# Poissons Ratio (x) = 0.40906 0.29822
# Poissons Ratio (y) = 0.31821 0.02508
# Poissons Ratio (z) = 0.51899 0.05610
#
# Static dielectric constant tensor:
#      x y z
#    x 1.707700 0.000000 -0.010230 
#    y 0.000000 1.665770 0.000000 
#    z -0.010230 0.000000 1.722660 
# 
# From -- ./inp_files/147262.got.cif
#   From: 2010.05.17/outbox.cif.g08.bks.cpg/sg15_74_cif.got.tgz:147262.got - 2010.06.03 18:47:42.
