data_PCOD9256027
_publ_section_title
;
Structure prediction by ZEFSAII (Michael W. Deem and Ramdas Pophale) SiO2 
 PCOD9256027
Probable space group: C 2/C
;
_chemical_formula_sum "Si O2"
_cell_formula_units_Z 52
_cell_length_a 31.085224
_cell_length_b 8.424573
_cell_length_c 22.758124
_cell_angle_alpha 90.000000
_cell_angle_beta 24.411516
_cell_angle_gamma 90.000000
_cell_volume 2463.148459
_symmetry_space_group_name_H-M "C 2/C"
_symmetry_group_IT_number 15
_symmetry_cell_setting 'monoclinic'
loop_
_space_group_symop_operation_xyz
x,y,z
-x,y,1/2-z
-x,-y,-z
x,-y,1/2+z
1/2+x,1/2+y,z
1/2-x,1/2+y,1/2-z
1/2-x,1/2-y,-z
1/2+x,1/2-y,1/2+z
loop_
_atom_site_type_symbol
_atom_site_label
_atom_site_fract_x
_atom_site_fract_y
_atom_site_fract_z
Si Si1 0.559037 0.996135 0.364062
Si Si2 0.736422 0.806796 0.680248
Si Si3 0.584753 0.890277 0.549916
Si Si4 0.004101 0.193054 0.131922
Si Si5 0.500000 0.124999 0.750000
Si Si6 0.594524 0.500177 0.335939
Si Si7 0.718730 0.830987 0.840429
O O1 0.678239 0.038052 0.229097
O O2 0.514931 0.116847 0.368430
O O3 0.500000 0.000000 0.500000
O O4 0.532536 0.828281 0.368343
O O5 0.851653 0.766703 0.514201
O O6 0.657838 0.663467 0.760952
O O7 0.743583 0.806181 0.741724
O O8 0.569166 0.001459 0.626391
O O9 0.660765 0.999148 0.415937
O O10 0.955451 0.035955 0.165300
O O11 0.961560 0.255810 0.246981
O O12 0.130533 0.206626 0.972366
O O13 0.500000 0.500000 0.500000
O O14 0.677638 0.636648 0.251455
#
# Coordination Sequence:
#
# PCOD9256027 Si02
#       7
#     8   8   8   8   4   8   8
#     4  10  17  34  54  81 112 153 190 229 301 359
#     4  11  20  32  53  88 121 142 185 249 301 343
#     4   9  20  34  56  80 114 155 197 235 281 353
#     4  10  20  38  59  81 114 158 197 232 281 359
#     4   8  18  42  60  74 110 172 204 218 278 364
#     4  11  21  33  54  91 119 142 189 250 302 334
#     4   9  19  32  50  82 118 149 174 228 301 348
#
# _framework density 21.111191000000002
#
# number of rings (size 3 to 8) (size 9 to 14) (size 15 to 20)
#    0.000    2.462    4.615    0.000    4.308    0.000 
#    0.000   10.000    0.000    3.692    0.000    0.000 
#    0.000    0.000    0.000    0.000    0.000    0.000 
#
# Total GULP energy -144813.655651 kJ/mol
# GULP energy per Si atom -5569.755987 kJ/mol
# Density = 2.106314 g / cm^3
# Si number density = 21.111191 Si / 1000 Ang^3
#
#
#
# Elastic Constant Matrix: (Units=GPa)
#
#
# Indices 1 2 3 4 5 6 
#
# 1 96.3195 16.2851 37.2190 -0.0014 0.3776 0.0009
# 2 16.2851 30.4512 12.5769 -0.0099 -1.1732 0.0064
# 3 37.2190 12.5769 37.1551 -0.0095 -2.1288 0.0039
# 4 -0.0014 -0.0099 -0.0095 22.3659 0.0035 -8.0109
# 5 0.3776 -1.1732 -2.1288 0.0035 45.6796 -0.0012
# 6 0.0009 0.0064 0.0039 -8.0109 -0.0012 33.7851
#
#
#
# Elastic Compliance Matrix: (Units=1/GPa)
#
#
# Indices 1 2 3 4 5 6 
#
# 1 0.017131 -0.002428 -0.016395 -0.000007 -0.000968 0.000000
# 2 -0.002428 0.038527 -0.010580 0.000011 0.000517 -0.000003
# 3 -0.016395 -0.010580 0.047036 0.000014 0.002056 0.000000
# 4 -0.000007 0.000011 0.000014 0.048861 -0.000002 0.011586
# 5 -0.000968 0.000517 0.002056 -0.000002 0.022009 0.000000
# 6 0.000000 -0.000003 0.000000 0.011586 0.000000 0.032346
#
#
# Mechanical properties :
#
#
# Convention : Reuss Voigt Hill
#
# Bulk Modulus (GPa) = 22.78404 32.89864 27.84134
# Shear Modulus (GPa) = 17.89904 26.88910 22.39407
#
# Velocity S-wave (km/s) = 2.91494 3.57275 3.26048
# Velocity P-wave (km/s) = 4.70585 5.71286 5.23363
#
# Compressibility (1/GPa) = 0.04389038
#
# Stress axis : x y z
#
# Youngs Moduli (GPa) = 58.37222 25.95556 21.26031
#
# Poissons Ratio (x) = 0.06301 0.34855
# Poissons Ratio (y) = 0.14172 0.22493
# Poissons Ratio (z) = 0.95699 0.27461
#
# Static dielectric constant tensor:
#      x y z
#    x 1.858710 0.000000 -0.035830 
#    y 0.000000 1.876730 0.000000 
#    z -0.035830 0.000000 1.790780 
# 
# From -- ./inp_files/258835.got.cif
#   From: 2010.05.17/outbox.cif.g08.bks.cpg/sg15_130_cif.got.tgz:258835.got - 2010.06.03 18:47:42.
