data_PCOD9256285
_publ_section_title
;
Structure prediction by ZEFSAII (Michael W. Deem and Ramdas Pophale) SiO2 
 PCOD9256285
Probable space group: C 2/C
;
_chemical_formula_sum "Si O2"
_cell_formula_units_Z 56
_cell_length_a 15.538570
_cell_length_b 9.916034
_cell_length_c 16.922894
_cell_angle_alpha 90.000000
_cell_angle_beta 69.268471
_cell_angle_gamma 90.000000
_cell_volume 2438.659230
_symmetry_space_group_name_H-M "C 2/C"
_symmetry_group_IT_number 15
_symmetry_cell_setting 'monoclinic'
loop_
_space_group_symop_operation_xyz
x,y,z
-x,y,1/2-z
-x,-y,-z
x,-y,1/2+z
1/2+x,1/2+y,z
1/2-x,1/2+y,1/2-z
1/2-x,1/2-y,-z
1/2+x,1/2-y,1/2+z
loop_
_atom_site_type_symbol
_atom_site_label
_atom_site_fract_x
_atom_site_fract_y
_atom_site_fract_z
Si Si1 0.500000 0.650947 0.750000
Si Si2 0.754659 0.922117 0.773531
Si Si3 0.500000 0.932032 0.250000
Si Si4 0.183977 0.478041 0.446306
Si Si5 0.554412 0.231173 0.483860
Si Si6 0.151186 0.153444 0.820815
Si Si7 0.409989 0.145922 0.393846
Si Si8 0.903279 0.732153 0.650379
O O1 0.569193 0.594123 0.793222
O O2 0.575564 0.730998 0.671242
O O3 0.670961 0.813545 0.796278
O O4 0.832648 0.843653 0.700508
O O5 0.763531 0.955607 0.865028
O O6 0.759373 0.065602 0.727444
O O7 0.563649 0.841387 0.282553
O O8 0.442476 0.023378 0.328960
O O9 0.115703 0.602444 0.487574
O O10 0.183340 0.392674 0.528243
O O11 0.139452 0.377208 0.396239
O O12 0.618809 0.341789 0.421514
O O13 0.485162 0.177773 0.437674
O O14 0.493000 0.284816 0.574741
#
# Coordination Sequence:
#
# PCOD9256285 Si02
#       8
#     4   8   4   8   8   8   8   8
#     4   9  20  35  62  90 114 158 206 258 282 350
#     4  11  23  37  61  87 122 161 194 246 303 363
#     4  11  18  29  54  92 112 148 194 250 278 356
#     4  10  17  36  55  84 115 155 197 246 286 359
#     4   9  17  34  59  84 112 155 202 245 280 361
#     4  10  22  40  63  87 123 158 204 243 304 350
#     4   9  16  29  57  84 110 146 205 238 280 343
#     4  11  20  34  59  86 116 151 205 240 295 349
#
# _framework density 22.963438
#
# number of rings (size 3 to 8) (size 9 to 14) (size 15 to 20)
#    0.000    2.000    4.286    0.857    2.000    1.143 
#    0.000    1.429    3.143    0.000    0.000    0.000 
#    0.000    0.000    0.000    0.000    0.000    0.000 
#
# Total GULP energy -155905.264081 kJ/mol
# GULP energy per Si atom -5568.045146 kJ/mol
# Density = 2.291117 g / cm^3
# Si number density = 22.963438 Si / 1000 Ang^3
#
#
#
# Elastic Constant Matrix: (Units=GPa)
#
#
# Indices 1 2 3 4 5 6 
#
# 1 23.5384 12.6041 24.9423 0.0000 -6.8879 0.0000
# 2 12.6041 26.4147 9.9266 0.0000 -3.5545 0.0000
# 3 24.9423 9.9266 153.7786 0.0000 -30.6012 0.0000
# 4 0.0000 0.0000 0.0000 -5.6873 0.0000 -16.2327
# 5 -6.8879 -3.5545 -30.6012 0.0000 36.5608 0.0000
# 6 0.0000 0.0000 0.0000 -16.2327 0.0000 15.9643
#
#
#
# Elastic Compliance Matrix: (Units=1/GPa)
#
#
# Indices 1 2 3 4 5 6 
#
# 1 0.067789 -0.028745 -0.008584 0.000000 0.002792 0.000000
# 2 -0.028745 0.051111 0.001529 0.000000 0.000833 0.000000
# 3 -0.008584 0.001529 0.009004 0.000000 0.006068 0.000000
# 4 0.000000 0.000000 0.000000 -0.045059 0.000000 -0.045817
# 5 0.002792 0.000833 0.006068 0.000000 0.033037 0.000000
# 6 0.000000 0.000000 0.000000 -0.045817 0.000000 0.016052
#
#
# Mechanical properties :
#
#
# Convention : Reuss Voigt Hill
#
# Bulk Modulus (GPa) = 17.76073 33.18641 25.47357
# Shear Modulus (GPa) = 22.49189 19.78479 21.13834
#
# Velocity S-wave (km/s) = 3.13304 2.93845 3.03730
# Velocity P-wave (km/s) = 4.56498 5.09861 4.83916
#
# Compressibility (1/GPa) = 0.05630400
#
# Stress axis : x y z
#
# Youngs Moduli (GPa) = 14.75172 19.56515 111.06298
#
# Poissons Ratio (x) = 0.56240 0.95337
# Poissons Ratio (y) = 0.42403 -0.16980
# Poissons Ratio (z) = 0.12663 -0.02991
#
# Static dielectric constant tensor:
#      x y z
#    x 1.813890 0.000000 0.006510 
#    y 0.000000 1.921990 0.000000 
#    z 0.006510 0.000000 1.870720 
# 
# From -- ./inp_files/213828.got.cif
#   From: 2010.05.17/outbox.cif.g08.bks.cpg/sg15_107_cif.got.tgz:213828.got - 2010.06.03 18:47:42.
