data_PCOD9256696
_publ_section_title
;
Structure prediction by ZEFSAII (Michael W. Deem and Ramdas Pophale) SiO2 
 PCOD9256696
Probable space group: C 2/C
;
_chemical_formula_sum "Si O2"
_cell_formula_units_Z 64
_cell_length_a 21.455481
_cell_length_b 11.338303
_cell_length_c 19.291750
_cell_angle_alpha 90.000000
_cell_angle_beta 148.868323
_cell_angle_gamma 90.000000
_cell_volume 2426.353479
_symmetry_space_group_name_H-M "C 2/C"
_symmetry_group_IT_number 15
_symmetry_cell_setting 'monoclinic'
loop_
_space_group_symop_operation_xyz
x,y,z
-x,y,1/2-z
-x,-y,-z
x,-y,1/2+z
1/2+x,1/2+y,z
1/2-x,1/2+y,1/2-z
1/2-x,1/2-y,-z
1/2+x,1/2-y,1/2+z
loop_
_atom_site_type_symbol
_atom_site_label
_atom_site_fract_x
_atom_site_fract_y
_atom_site_fract_z
Si Si1 0.230269 0.941886 0.999470
Si Si2 0.817126 0.966043 0.292900
Si Si3 0.488547 0.299966 0.961113
Si Si4 0.631973 0.282092 0.517094
Si Si5 0.571248 0.536597 0.737324
Si Si6 0.039731 0.228233 0.360771
Si Si7 0.842243 0.548502 0.244747
Si Si8 0.921557 0.559494 0.106268
O O1 0.285250 0.982788 0.124037
O O2 0.333176 0.950912 0.038724
O O3 0.132218 0.034182 0.871890
O O4 0.170824 0.820151 0.965869
O O5 0.697138 0.994494 0.219961
O O6 0.899799 0.084907 0.374678
O O7 0.884553 0.860759 0.397640
O O8 0.821130 0.942370 0.215576
O O9 0.430590 0.235464 0.971640
O O10 0.509788 0.228469 0.909836
O O11 0.534394 0.380815 0.396261
O O12 0.763888 0.331371 0.662434
O O13 0.641158 0.183902 0.467397
O O14 0.529373 0.399588 0.697079
O O15 0.000000 0.285387 0.250000
O O16 0.982171 0.545998 0.362644
O O17 0.000000 0.576276 0.250000
#
# Coordination Sequence:
#
# PCOD9256696 Si02
#       8
#     8   8   8   8   8   8   8   8
#     4  10  18  29  40  61  94 116 143 178 217 270
#     4   8  13  26  44  61  80 106 150 184 230 259
#     4   8  13  25  43  63  83 107 143 192 234 260
#     4  10  19  29  43  59  85 120 158 188 213 255
#     4   9  17  26  45  67  82 110 146 192 223 262
#     4   9  14  24  44  70  89 106 136 188 242 266
#     4  10  18  31  44  57  85 125 149 186 215 260
#     4  10  24  30  38  61  93 132 157 171 203 273
#
# _framework density 26.377030000000001
#
# number of rings (size 3 to 8) (size 9 to 14) (size 15 to 20)
#    0.000    2.750    2.500    1.500    3.500    1.000 
#    0.000    0.625    0.000    0.000    0.000    0.000 
#    0.000   18.000    0.000    0.000    0.000    0.000 
#
# Total GULP energy -178454.395420 kJ/mol
# GULP energy per Si atom -5576.699857 kJ/mol
# Density = 2.631699 g / cm^3
# Si number density = 26.377030 Si / 1000 Ang^3
#
#
#
# Elastic Constant Matrix: (Units=GPa)
#
#
# Indices 1 2 3 4 5 6 
#
# 1 195.8416 21.2270 18.1869 0.0000 14.8120 0.0000
# 2 21.2270 74.1704 29.6116 0.0000 -5.3280 0.0000
# 3 18.1869 29.6116 44.0628 0.0000 -3.0708 0.0000
# 4 0.0000 0.0000 0.0000 29.3368 0.0000 -9.9202
# 5 14.8120 -5.3280 -3.0708 0.0000 51.8220 0.0000
# 6 0.0000 0.0000 0.0000 -9.9202 0.0000 14.1579
#
#
#
# Elastic Compliance Matrix: (Units=1/GPa)
#
#
# Indices 1 2 3 4 5 6 
#
# 1 0.005511 -0.001022 -0.001712 0.000000 -0.001782 0.000000
# 2 -0.001022 0.018686 -0.012031 0.000000 0.001500 0.000000
# 3 -0.001712 -0.012031 0.031565 0.000000 0.001123 0.000000
# 4 0.000000 0.000000 0.000000 0.044671 0.000000 0.031300
# 5 -0.001782 0.001500 0.001123 0.000000 0.020027 0.000000
# 6 0.000000 0.000000 0.000000 0.031300 0.000000 0.092564
#
#
# Mechanical properties :
#
#
# Convention : Reuss Voigt Hill
#
# Bulk Modulus (GPa) = 38.12175 50.23620 44.17897
# Shear Modulus (GPa) = 19.89678 35.39997 27.64837
#
# Velocity S-wave (km/s) = 2.74947 3.66741 3.24110
# Velocity P-wave (km/s) = 4.95615 6.08440 5.54903
#
# Compressibility (1/GPa) = 0.02623174
#
# Stress axis : x y z
#
# Youngs Moduli (GPa) = 181.46731 53.51623 31.68042
#
# Poissons Ratio (x) = 0.05467 0.05424
# Poissons Ratio (y) = 0.18537 0.38116
# Poissons Ratio (z) = 0.31071 0.64387
#
# Static dielectric constant tensor:
#      x y z
#    x 2.130540 0.000000 0.037190 
#    y 0.000000 2.109900 0.000000 
#    z 0.037190 0.000000 2.187300 
# 
# From -- ./inp_files/253454.got.cif
#   From: 2010.05.17/outbox.cif.g08.bks.cpg/sg15_127_cif.got.tgz:253454.got - 2010.06.03 18:47:42.
