data_PCOD9256662
_publ_section_title
;
Structure prediction by ZEFSAII (Michael W. Deem and Ramdas Pophale) SiO2 
 PCOD9256662
Probable space group: C 2/C
;
_chemical_formula_sum "Si O2"
_cell_formula_units_Z 52
_cell_length_a 16.041773
_cell_length_b 28.499838
_cell_length_c 9.571892
_cell_angle_alpha 90.000000
_cell_angle_beta 41.305653
_cell_angle_gamma 90.000000
_cell_volume 2888.592970
_symmetry_space_group_name_H-M "C 2/C"
_symmetry_group_IT_number 15
_symmetry_cell_setting 'monoclinic'
loop_
_space_group_symop_operation_xyz
x,y,z
-x,y,1/2-z
-x,-y,-z
x,-y,1/2+z
1/2+x,1/2+y,z
1/2-x,1/2+y,1/2-z
1/2-x,1/2-y,-z
1/2+x,1/2-y,1/2+z
loop_
_atom_site_type_symbol
_atom_site_label
_atom_site_fract_x
_atom_site_fract_y
_atom_site_fract_z
Si Si1 0.104901 0.123139 0.830488
Si Si2 0.347650 0.290089 0.423873
Si Si3 0.796537 0.948623 0.518334
Si Si4 0.805418 0.864517 0.700756
Si Si5 0.000000 0.979936 0.750000
Si Si6 0.705578 0.405167 0.499948
Si Si7 0.585330 0.978210 0.272488
O O1 0.156150 0.169249 0.688887
O O2 0.146958 0.078780 0.685080
O O3 0.146976 0.118189 0.936725
O O4 0.955305 0.126806 0.008056
O O5 0.500000 0.277939 0.250000
O O6 0.250000 0.250000 0.500000
O O7 0.294039 0.315843 0.631360
O O8 0.751144 0.908948 0.683412
O O9 0.903592 0.983816 0.447176
O O10 0.683008 0.980756 0.610364
O O11 0.765127 0.869585 0.911640
O O12 0.102163 0.943714 0.686559
O O13 0.828145 0.434023 0.298154
O O14 0.500000 0.964975 0.250000
O O15 0.500000 0.000000 0.500000
#
# Coordination Sequence:
#
# PCOD9256662 Si02
#       7
#     8   8   8   8   4   8   8
#     4  10  18  34  55  84 111 130 177 232 294 327
#     4   9  20  39  63  83 109 139 177 233 292 363
#     4  10  19  32  52  75 104 149 189 232 257 312
#     4  10  18  34  55  84 112 131 177 238 294 324
#     4  10  18  28  50  82 112 132 188 218 268 316
#     4  11  21  32  53  81 110 145 181 232 276 322
#     4  11  23  37  45  66 111 163 199 219 257 315
#
# _framework density 18.001844999999999
#
# number of rings (size 3 to 8) (size 9 to 14) (size 15 to 20)
#    0.000    1.846    3.077    2.769    0.000    4.923 
#    0.000    8.462    0.000    0.000    0.000    0.000 
#    0.000    0.000    0.000    0.000    0.000    0.000 
#
# Total GULP energy -144814.561878 kJ/mol
# GULP energy per Si atom -5569.790841 kJ/mol
# Density = 1.796087 g / cm^3
# Si number density = 18.001845 Si / 1000 Ang^3
#
#
#
# Elastic Constant Matrix: (Units=GPa)
#
#
# Indices 1 2 3 4 5 6 
#
# 1 61.0237 36.6691 4.8105 0.0000 1.9874 0.0000
# 2 36.6691 91.2078 27.1459 0.0000 -3.1565 0.0000
# 3 4.8105 27.1459 53.1593 0.0000 4.6200 0.0000
# 4 0.0000 0.0000 0.0000 13.4664 0.0000 -2.9774
# 5 1.9874 -3.1565 4.6200 0.0000 34.6411 0.0000
# 6 0.0000 0.0000 0.0000 -2.9774 0.0000 34.1427
#
#
#
# Elastic Compliance Matrix: (Units=1/GPa)
#
#
# Indices 1 2 3 4 5 6 
#
# 1 0.022232 -0.010022 0.003335 0.000000 -0.002633 0.000000
# 2 -0.010022 0.017597 -0.008365 0.000000 0.003294 0.000000
# 3 0.003335 -0.008365 0.023132 0.000000 -0.004039 0.000000
# 4 0.000000 0.000000 0.000000 0.075719 0.000000 0.006603
# 5 -0.002633 0.003294 -0.004039 0.000000 0.029857 0.000000
# 6 0.000000 0.000000 0.000000 0.006603 0.000000 0.029865
#
#
# Mechanical properties :
#
#
# Convention : Reuss Voigt Hill
#
# Bulk Modulus (GPa) = 30.43533 38.07132 34.25333
# Shear Modulus (GPa) = 20.88041 25.56772 23.22407
#
# Velocity S-wave (km/s) = 3.40943 3.77275 3.59568
# Velocity P-wave (km/s) = 5.69583 6.33819 6.02558
#
# Compressibility (1/GPa) = 0.03285655
#
# Stress axis : x y z
#
# Youngs Moduli (GPa) = 44.98011 56.82833 43.22945
#
# Poissons Ratio (x) = 0.56952 -0.14416
# Poissons Ratio (y) = 0.45078 0.36163
# Poissons Ratio (z) = -0.14999 0.47538
#
# Static dielectric constant tensor:
#      x y z
#    x 1.642030 0.000000 0.017240 
#    y 0.000000 1.623360 0.000000 
#    z 0.017240 0.000000 1.658790 
# 
# From -- ./inp_files/34177.got.cif
#   From: 2010.05.17/outbox.cif.g08.bks.cpg/sg15_18_cif.got.tgz:34177.got - 2010.06.03 18:47:42.
