data_PCOD9256293
_publ_section_title
;
Structure prediction by ZEFSAII (Michael W. Deem and Ramdas Pophale) SiO2 
 PCOD9256293
Probable space group: C 2/C
;
_chemical_formula_sum "Si O2"
_cell_formula_units_Z 52
_cell_length_a 17.498013
_cell_length_b 6.223063
_cell_length_c 24.939124
_cell_angle_alpha 90.000000
_cell_angle_beta 76.308197
_cell_angle_gamma 90.000000
_cell_volume 2638.481366
_symmetry_space_group_name_H-M "C 2/C"
_symmetry_group_IT_number 15
_symmetry_cell_setting 'monoclinic'
loop_
_space_group_symop_operation_xyz
x,y,z
-x,y,1/2-z
-x,-y,-z
x,-y,1/2+z
1/2+x,1/2+y,z
1/2-x,1/2+y,1/2-z
1/2-x,1/2-y,-z
1/2+x,1/2-y,1/2+z
loop_
_atom_site_type_symbol
_atom_site_label
_atom_site_fract_x
_atom_site_fract_y
_atom_site_fract_z
Si Si1 0.670088 0.182489 0.325144
Si Si2 0.500000 0.517454 0.750000
Si Si3 0.986663 0.555898 0.191874
Si Si4 0.792280 0.822766 0.070358
Si Si5 0.669624 0.557547 0.718926
Si Si6 0.854755 0.622680 0.372600
Si Si7 0.696986 0.437527 0.033652
O O1 0.599067 0.025521 0.318687
O O2 0.655691 0.279000 0.386172
O O3 0.679948 0.362903 0.277880
O O4 0.753664 0.063857 0.313142
O O5 0.509568 0.684575 0.798433
O O6 0.587638 0.426346 0.728922
O O7 0.000000 0.469694 0.250000
O O8 0.062140 0.499967 0.144045
O O9 0.753189 0.603176 0.055620
O O10 0.718697 0.972637 0.100606
O O11 0.835000 0.933256 0.012551
O O12 0.658785 0.767992 0.683253
O O13 0.858396 0.817015 0.414937
O O14 0.750000 0.250000 0.000000
#
# Coordination Sequence:
#
# PCOD9256293 Si02
#       7
#     8   4   8   8   8   8   8
#     4  11  19  31  53  82 114 142 191 230 276 331
#     4   6  14  30  46  68 106 146 182 198 274 328
#     4   8  17  32  50  74 115 157 173 216 289 334
#     4  10  20  32  58  86 103 140 195 240 266 331
#     4  10  18  31  51  80 110 152 176 227 278 337
#     4  10  17  36  57  77 112 150 180 222 291 331
#     4   9  19  36  58  82 108 142 193 232 281 322
#
# _framework density 19.708307999999999
#
# number of rings (size 3 to 8) (size 9 to 14) (size 15 to 20)
#    0.462    2.154    3.077    0.923    0.000    0.000 
#    0.000    2.308    3.385    9.231    0.000    0.000 
#    0.000    0.000    0.000    0.000    0.000    0.000 
#
# Total GULP energy -144741.279785 kJ/mol
# GULP energy per Si atom -5566.972299 kJ/mol
# Density = 1.966345 g / cm^3
# Si number density = 19.708308 Si / 1000 Ang^3
#
#
#
# Elastic Constant Matrix: (Units=GPa)
#
#
# Indices 1 2 3 4 5 6 
#
# 1 99.0197 12.6567 3.4208 0.0000 4.0443 0.0000
# 2 12.6567 53.1024 22.9032 0.0001 6.2118 0.0001
# 3 3.4208 22.9032 112.1611 0.0000 17.7695 0.0001
# 4 0.0000 0.0001 0.0000 18.4029 0.0001 -5.5546
# 5 4.0443 6.2118 17.7695 0.0001 19.2247 0.0001
# 6 0.0000 0.0001 0.0001 -5.5546 0.0001 17.6746
#
#
#
# Elastic Compliance Matrix: (Units=1/GPa)
#
#
# Indices 1 2 3 4 5 6 
#
# 1 0.010476 -0.002489 0.000481 0.000000 -0.001844 0.000000
# 2 -0.002489 0.021416 -0.003847 0.000000 -0.002840 0.000000
# 3 0.000481 -0.003847 0.011137 0.000000 -0.009152 0.000000
# 4 0.000000 0.000000 0.000000 0.060034 0.000000 0.018867
# 5 -0.001844 -0.002840 -0.009152 0.000000 0.061781 0.000000
# 6 0.000000 0.000000 0.000000 0.018867 0.000000 0.062508
#
#
# Mechanical properties :
#
#
# Convention : Reuss Voigt Hill
#
# Bulk Modulus (GPa) = 31.92987 38.02719 34.97853
# Shear Modulus (GPa) = 20.04003 26.08062 23.06032
#
# Velocity S-wave (km/s) = 3.19224 3.64171 3.42436
# Velocity P-wave (km/s) = 5.46110 6.08437 5.78114
#
# Compressibility (1/GPa) = 0.03131864
#
# Stress axis : x y z
#
# Youngs Moduli (GPa) = 95.45814 46.69347 89.79425
#
# Poissons Ratio (x) = 0.11620 -0.04317
# Poissons Ratio (y) = 0.23755 0.34547
# Poissons Ratio (z) = -0.04590 0.17964
#
# Static dielectric constant tensor:
#      x y z
#    x 1.725300 0.000000 -0.007210 
#    y 0.000000 1.783120 0.000000 
#    z -0.007210 0.000000 1.735680 
# 
# From -- ./inp_files/297497.got.cif
#   From: 2010.05.17/outbox.cif.g08.bks.cpg/sg15_149_cif.got.tgz:297497.got - 2010.06.03 18:47:42.
