data_PCOD9256153
_publ_section_title
;
Structure prediction by ZEFSAII (Michael W. Deem and Ramdas Pophale) SiO2 
 PCOD9256153
Probable space group: C 2/C
;
_chemical_formula_sum "Si O2"
_cell_formula_units_Z 60
_cell_length_a 21.508963
_cell_length_b 10.151851
_cell_length_c 20.249936
_cell_angle_alpha 90.000000
_cell_angle_beta 50.703306
_cell_angle_gamma 90.000000
_cell_volume 3421.843668
_symmetry_space_group_name_H-M "C 2/C"
_symmetry_group_IT_number 15
_symmetry_cell_setting 'monoclinic'
loop_
_space_group_symop_operation_xyz
x,y,z
-x,y,1/2-z
-x,-y,-z
x,-y,1/2+z
1/2+x,1/2+y,z
1/2-x,1/2+y,1/2-z
1/2-x,1/2-y,-z
1/2+x,1/2-y,1/2+z
loop_
_atom_site_type_symbol
_atom_site_label
_atom_site_fract_x
_atom_site_fract_y
_atom_site_fract_z
Si Si1 0.978994 0.220566 0.002457
Si Si2 0.121413 0.379649 0.328898
Si Si3 0.418843 0.542588 0.372113
Si Si4 0.917791 0.671131 0.184362
Si Si5 0.800307 0.900221 0.227999
Si Si6 0.122980 0.034848 0.955957
Si Si7 0.103402 0.125008 0.256257
Si Si8 0.000000 0.201721 0.750000
O O1 0.013014 0.284493 0.913310
O O2 0.052091 0.137233 0.984649
O O3 0.944556 0.328722 0.074976
O O4 0.911007 0.111578 0.034006
O O5 0.098388 0.517896 0.312587
O O6 0.206926 0.397722 0.307120
O O7 0.128303 0.263003 0.270684
O O8 0.365080 0.546896 0.473643
O O9 0.507020 0.603830 0.329318
O O10 0.382945 0.611706 0.331348
O O11 0.443392 0.396147 0.331007
O O12 0.841117 0.759981 0.215828
O O13 0.946550 0.712880 0.237157
O O14 0.809632 0.934859 0.143805
O O15 0.851142 0.008788 0.234687
#
# Coordination Sequence:
#
# PCOD9256153 Si02
#       8
#     8   8   8   8   8   8   8   4
#     4  10  19  35  58  85 109 142 199 238 269 327
#     4  12  23  35  55  88 123 142 179 240 294 335
#     4  10  17  34  64  82 104 141 204 242 253 333
#     4  11  22  36  58  86 115 149 185 239 285 325
#     4  11  21  37  59  83 115 151 190 223 287 349
#     4  10  17  34  63  84 101 148 202 236 262 328
#     4  10  19  35  58  85 104 151 192 227 275 330
#     4  10  18  34  58  84 110 146 196 234 274 330
#
# _framework density 17.534407000000002
#
# number of rings (size 3 to 8) (size 9 to 14) (size 15 to 20)
#    0.000    1.600    6.667    2.000    0.000    1.067 
#    0.000    0.667    2.933    2.400    0.000    0.000 
#    0.000    0.000    0.000    0.000    0.000    0.000 
#
# Total GULP energy -167356.419929 kJ/mol
# GULP energy per Si atom -5578.547331 kJ/mol
# Density = 1.749450 g / cm^3
# Si number density = 17.534407 Si / 1000 Ang^3
#
#
#
# Elastic Constant Matrix: (Units=GPa)
#
#
# Indices 1 2 3 4 5 6 
#
# 1 51.9459 24.7169 15.4078 0.0000 15.4149 0.0000
# 2 24.7169 111.3574 9.1781 0.0000 5.5055 0.0000
# 3 15.4078 9.1781 27.2752 0.0000 14.3497 0.0000
# 4 0.0000 0.0000 0.0000 -2.6210 0.0000 -6.4113
# 5 15.4149 5.5055 14.3497 0.0000 28.5535 0.0000
# 6 0.0000 0.0000 0.0000 -6.4113 0.0000 8.1498
#
#
#
# Elastic Compliance Matrix: (Units=1/GPa)
#
#
# Indices 1 2 3 4 5 6 
#
# 1 0.026839 -0.004784 -0.008719 0.000000 -0.009185 0.000000
# 2 -0.004784 0.010091 -0.001398 0.000000 0.001340 0.000000
# 3 -0.008719 -0.001398 0.053617 0.000000 -0.021969 0.000000
# 4 0.000000 0.000000 0.000000 -0.130468 0.000000 -0.102637
# 5 -0.009185 0.001340 -0.021969 0.000000 0.050763 0.000000
# 6 0.000000 0.000000 0.000000 -0.102637 0.000000 0.041959
#
#
# Mechanical properties :
#
#
# Convention : Reuss Voigt Hill
#
# Bulk Modulus (GPa) = 16.46233 32.13156 24.29695
# Shear Modulus (GPa) = 48.61295 16.23483 32.42389
#
# Velocity S-wave (km/s) = 5.27110 3.04614 4.30485
# Velocity P-wave (km/s) = 6.81579 5.54406 6.21255
#
# Compressibility (1/GPa) = 0.06074473
#
# Stress axis : x y z
#
# Youngs Moduli (GPa) = 37.25896 99.09799 18.65071
#
# Poissons Ratio (x) = 0.47413 0.16262
# Poissons Ratio (y) = 0.17826 0.02607
# Poissons Ratio (z) = 0.32487 0.13851
#
# Static dielectric constant tensor:
#      x y z
#    x 1.593850 0.000000 0.013500 
#    y 0.000000 1.586020 0.000000 
#    z 0.013500 0.000000 1.611060 
# 
# From -- ./inp_files/252086.got.cif
#   From: 2010.05.17/outbox.cif.g08.bks.cpg/sg15_127_cif.got.tgz:252086.got - 2010.06.03 18:47:42.
