data_PCOD9256505
_publ_section_title
;
Structure prediction by ZEFSAII (Michael W. Deem and Ramdas Pophale) SiO2 
 PCOD9256505
Probable space group: C 2/C
;
_chemical_formula_sum "Si O2"
_cell_formula_units_Z 32
_cell_length_a 7.298183
_cell_length_b 33.530033
_cell_length_c 5.326847
_cell_angle_alpha 90.000000
_cell_angle_beta 97.916535
_cell_angle_gamma 90.000000
_cell_volume 1291.100865
_symmetry_space_group_name_H-M "C 2/C"
_symmetry_group_IT_number 15
_symmetry_cell_setting 'monoclinic'
loop_
_space_group_symop_operation_xyz
x,y,z
-x,y,1/2-z
-x,-y,-z
x,-y,1/2+z
1/2+x,1/2+y,z
1/2-x,1/2+y,1/2-z
1/2-x,1/2-y,-z
1/2+x,1/2-y,1/2+z
loop_
_atom_site_type_symbol
_atom_site_label
_atom_site_fract_x
_atom_site_fract_y
_atom_site_fract_z
Si Si1 0.711645 0.775612 0.747150
Si Si2 0.223590 0.109159 0.591130
Si Si3 0.276006 0.520361 0.719148
Si Si4 0.303287 0.361032 0.912970
O O1 0.500000 0.787320 0.750000
O O2 0.750000 0.750000 0.500000
O O3 0.818656 0.816937 0.802844
O O4 0.750000 0.750000 0.000000
O O5 0.260264 0.065426 0.703597
O O6 0.299215 0.115009 0.326372
O O7 0.003659 0.118281 0.501561
O O8 0.283957 0.138803 0.825606
O O9 0.500000 0.516668 0.750000
O O10 0.209361 0.508232 0.431036
#
# Coordination Sequence:
#
# PCOD9256505 Si02
#       4
#     8   8   8   8
#     4  12  28  46  69  95 126 163 214 270 334 386
#     4  10  19  33  56  83 119 166 201 250 320 360
#     4  10  18  26  43  76 124 157 194 246 305 363
#     4  10  21  35  55  80 118 150 208 241 309 377
#
# _framework density 24.785049000000001
#
# number of rings (size 3 to 8) (size 9 to 14) (size 15 to 20)
#    0.000    1.500    2.500    3.750   17.500    0.000 
#    0.000    0.000    0.000    0.000    0.000    0.000 
#    0.000   34.000    0.000    0.000    0.000    0.000 
#
# Total GULP energy -89372.056903 kJ/mol
# GULP energy per Si atom -5585.753556 kJ/mol
# Density = 2.472864 g / cm^3
# Si number density = 24.785049 Si / 1000 Ang^3
#
#
#
# Elastic Constant Matrix: (Units=GPa)
#
#
# Indices 1 2 3 4 5 6 
#
# 1 95.9975 8.9302 20.5469 0.0000 -5.6277 0.0000
# 2 8.9302 163.4871 71.4536 0.0000 -9.5189 0.0000
# 3 20.5469 71.4536 239.5363 0.0000 -39.1337 0.0000
# 4 0.0000 0.0000 0.0000 49.1030 0.0000 -15.9727
# 5 -5.6277 -9.5189 -39.1337 0.0000 25.8764 0.0000
# 6 0.0000 0.0000 0.0000 -15.9727 0.0000 -13.3769
#
#
#
# Elastic Compliance Matrix: (Units=1/GPa)
#
#
# Indices 1 2 3 4 5 6 
#
# 1 0.010649 -0.000229 -0.000638 0.000000 0.001267 0.000000
# 2 -0.000229 0.007050 -0.002215 0.000000 -0.000806 0.000000
# 3 -0.000638 -0.002215 0.006288 0.000000 0.008556 0.000000
# 4 0.000000 0.000000 0.000000 0.014668 0.000000 -0.017514
# 5 0.001267 -0.000806 0.008556 0.000000 0.051564 0.000000
# 6 0.000000 0.000000 0.000000 -0.017514 0.000000 -0.053843
#
#
# Mechanical properties :
#
#
# Convention : Reuss Voigt Hill
#
# Bulk Modulus (GPa) = 56.10825 77.87584 66.99204
# Shear Modulus (GPa) = 103.12981 38.85984 70.99482
#
# Velocity S-wave (km/s) = 6.45755 3.96393 5.35784
# Velocity P-wave (km/s) = 8.84800 7.24148 8.08474
#
# Compressibility (1/GPa) = 0.01782269
#
# Stress axis : x y z
#
# Youngs Moduli (GPa) = 93.90468 141.83503 159.03053
#
# Poissons Ratio (x) = 0.03248 0.10150
# Poissons Ratio (y) = 0.02150 0.35229
# Poissons Ratio (z) = 0.05993 0.31420
#
# Static dielectric constant tensor:
#      x y z
#    x 2.582680 0.000000 0.027810 
#    y 0.000000 1.955290 0.000000 
#    z 0.027810 0.000000 2.072290 
# 
# From -- ./inp_files/2699.got.cif
#   From: 2010.05.17/outbox.cif.g08.bks.cpg/sg15_2_cif.got.tgz:2699.got - 2010.06.03 18:47:42.
