data_PCOD9256938
_publ_section_title
;
Structure prediction by ZEFSAII (Michael W. Deem and Ramdas Pophale) SiO2 
 PCOD9256938
Probable space group: C 2/C
;
_chemical_formula_sum "Si O2"
_cell_formula_units_Z 32
_cell_length_a 17.710446
_cell_length_b 8.832831
_cell_length_c 9.130718
_cell_angle_alpha 90.000000
_cell_angle_beta 52.979720
_cell_angle_gamma 90.000000
_cell_volume 1140.425939
_symmetry_space_group_name_H-M "C 2/C"
_symmetry_group_IT_number 15
_symmetry_cell_setting 'monoclinic'
loop_
_space_group_symop_operation_xyz
x,y,z
-x,y,1/2-z
-x,-y,-z
x,-y,1/2+z
1/2+x,1/2+y,z
1/2-x,1/2+y,1/2-z
1/2-x,1/2-y,-z
1/2+x,1/2-y,1/2+z
loop_
_atom_site_type_symbol
_atom_site_label
_atom_site_fract_x
_atom_site_fract_y
_atom_site_fract_z
Si Si1 0.462314 0.308250 0.933912
Si Si2 0.674364 0.690272 0.301370
Si Si3 0.172198 0.432054 0.076378
Si Si4 0.393689 0.728266 0.815110
O O1 0.500000 0.405540 0.750000
O O2 0.563271 0.295486 0.894513
O O3 0.407611 0.168898 0.917920
O O4 0.395769 0.343675 0.150035
O O5 0.738565 0.574957 0.135909
O O6 0.675282 0.670174 0.474802
O O7 0.704701 0.847313 0.186806
O O8 0.129691 0.592980 0.165654
O O9 0.500000 0.722690 0.750000
#
# Coordination Sequence:
#
# PCOD9256938 Si02
#       4
#     8   8   8   8
#     4   9  18  31  49  72 101 130 161 201 246 288
#     4   9  19  31  46  74 103 128 162 204 245 290
#     4  10  18  30  49  72 101 131 161 201 248 290
#     4  10  18  31  52  76  99 127 164 205 247 291
#
# _framework density 28.059691999999998
#
# number of rings (size 3 to 8) (size 9 to 14) (size 15 to 20)
#    0.000    2.500    0.000    3.750    0.000    8.000 
#    0.000    0.000    0.000    1.500    0.000   21.000 
#    0.000    6.000    0.000    2.250    0.000    0.000 
#
# Total GULP energy -89305.016033 kJ/mol
# GULP energy per Si atom -5581.563502 kJ/mol
# Density = 2.799583 g / cm^3
# Si number density = 28.059692 Si / 1000 Ang^3
#
#
#
# Elastic Constant Matrix: (Units=GPa)
#
#
# Indices 1 2 3 4 5 6 
#
# 1 145.6488 42.4311 57.2006 0.0000 -4.3651 0.0000
# 2 42.4311 97.9139 69.7984 0.0000 -20.1327 0.0000
# 3 57.2006 69.7984 349.5357 0.0000 34.5939 0.0000
# 4 0.0000 0.0000 0.0000 1.9656 0.0000 6.9939
# 5 -4.3651 -20.1327 34.5939 0.0000 57.3899 0.0000
# 6 0.0000 0.0000 0.0000 6.9939 0.0000 35.1509
#
#
#
# Elastic Compliance Matrix: (Units=1/GPa)
#
#
# Indices 1 2 3 4 5 6 
#
# 1 0.008010 -0.002956 -0.000721 0.000000 0.000007 0.000000
# 2 -0.002956 0.015290 -0.003273 0.000000 0.007112 0.000000
# 3 -0.000721 -0.003273 0.003990 0.000000 -0.003608 0.000000
# 4 0.000000 0.000000 0.000000 1.742095 0.000000 -0.346620
# 5 0.000007 0.007112 -0.003608 0.000000 0.022095 0.000000
# 6 0.000000 0.000000 0.000000 -0.346620 0.000000 0.097415
#
#
# Mechanical properties :
#
#
# Convention : Reuss Voigt Hill
#
# Bulk Modulus (GPa) = 74.68763 103.55096 89.11930
# Shear Modulus (GPa) = 2.62156 47.14584 24.88370
#
# Velocity S-wave (km/s) = 0.96763 4.10347 2.98117
# Velocity P-wave (km/s) = 5.28428 7.70942 6.60904
#
# Compressibility (1/GPa) = 0.01338910
#
# Stress axis : x y z
#
# Youngs Moduli (GPa) = 124.83778 65.40374 250.64165
#
# Poissons Ratio (x) = 0.19330 0.18082
# Poissons Ratio (y) = 0.36896 0.82045
# Poissons Ratio (z) = 0.09006 0.21409
#
# Static dielectric constant tensor:
#      x y z
#    x 2.201590 0.000000 0.037450 
#    y 0.000000 2.191170 0.000000 
#    z 0.037450 0.000000 2.259390 
# 
# From -- ./inp_files/36581.got.cif
#   From: 2010.05.17/outbox.cif.g08.bks.cpg/sg15_19_cif.got.tgz:36581.got - 2010.06.03 18:47:42.
