data_PCOD9256320
_publ_section_title
;
Structure prediction by ZEFSAII (Michael W. Deem and Ramdas Pophale) SiO2 
 PCOD9256320
Probable space group: C 2/C
;
_chemical_formula_sum "Si O2"
_cell_formula_units_Z 56
_cell_length_a 10.754350
_cell_length_b 14.174158
_cell_length_c 18.285088
_cell_angle_alpha 90.000000
_cell_angle_beta 108.544833
_cell_angle_gamma 90.000000
_cell_volume 2642.537882
_symmetry_space_group_name_H-M "C 2/C"
_symmetry_group_IT_number 15
_symmetry_cell_setting 'monoclinic'
loop_
_space_group_symop_operation_xyz
x,y,z
-x,y,1/2-z
-x,-y,-z
x,-y,1/2+z
1/2+x,1/2+y,z
1/2-x,1/2+y,1/2-z
1/2-x,1/2-y,-z
1/2+x,1/2-y,1/2+z
loop_
_atom_site_type_symbol
_atom_site_label
_atom_site_fract_x
_atom_site_fract_y
_atom_site_fract_z
Si Si1 0.396035 0.884133 0.543289
Si Si2 0.719921 0.447279 0.644903
Si Si3 0.694926 0.774202 0.756601
Si Si4 0.435783 0.705050 0.625658
Si Si5 0.453146 0.514055 0.155809
Si Si6 0.649317 0.889274 0.257872
Si Si7 0.836559 0.502279 0.388913
O O1 0.287230 0.916716 0.582175
O O2 0.405578 0.770675 0.550593
O O3 0.360716 0.929502 0.459713
O O4 0.537797 0.929123 0.590678
O O5 0.786393 0.382974 0.720882
O O6 0.564913 0.435235 0.628791
O O7 0.758508 0.555360 0.668057
O O8 0.569206 0.747242 0.685429
O O9 0.670311 0.728104 0.831565
O O10 0.815266 0.720237 0.742587
O O11 0.446486 0.593226 0.623825
O O12 0.500000 0.510220 0.250000
O O13 0.304577 0.551804 0.125392
O O14 0.500000 0.903840 0.250000
O O15 0.673901 0.940762 0.185866
#
# Coordination Sequence:
#
# PCOD9256320 Si02
#       7
#     8   8   8   8   8   8   8
#     4  10  24  39  63  86 122 166 199 243 298 374
#     4  11  22  38  62  92 117 162 201 246 307 355
#     4  10  20  35  57  91 119 145 205 249 293 351
#     4  10  17  36  59  86 113 155 198 244 292 352
#     4  12  21  37  63  90 122 154 199 263 302 339
#     4  12  21  38  63  88 118 159 203 252 294 359
#     4  11  22  41  61  89 123 156 205 246 304 354
#
# _framework density 21.191749000000002
#
# number of rings (size 3 to 8) (size 9 to 14) (size 15 to 20)
#    0.000    1.143    7.143    0.857    2.000    1.714 
#    0.000    0.000    0.000    2.571    0.000    0.000 
#    0.000    0.000    0.000    0.000    0.000    0.000 
#
# Total GULP energy -156385.199939 kJ/mol
# GULP energy per Si atom -5585.185712 kJ/mol
# Density = 2.114352 g / cm^3
# Si number density = 21.191749 Si / 1000 Ang^3
#
#
#
# Elastic Constant Matrix: (Units=GPa)
#
#
# Indices 1 2 3 4 5 6 
#
# 1 148.2958 3.5747 7.4772 0.0000 -3.3404 0.0000
# 2 3.5747 52.9605 4.9013 0.0000 -9.2258 0.0000
# 3 7.4772 4.9013 23.3380 0.0000 -5.7707 0.0000
# 4 0.0000 0.0000 0.0000 8.5385 0.0000 3.8809
# 5 -3.3404 -9.2258 -5.7707 0.0000 26.5273 0.0000
# 6 0.0000 0.0000 0.0000 3.8809 0.0000 21.0196
#
#
#
# Elastic Compliance Matrix: (Units=1/GPa)
#
#
# Indices 1 2 3 4 5 6 
#
# 1 0.006860 -0.000212 -0.002069 0.000000 0.000340 0.000000
# 2 -0.000212 0.020261 -0.002591 0.000000 0.006456 0.000000
# 3 -0.002069 -0.002591 0.046257 0.000000 0.008901 0.000000
# 4 0.000000 0.000000 0.000000 0.127845 0.000000 -0.023604
# 5 0.000340 0.006456 0.008901 0.000000 0.041921 0.000000
# 6 0.000000 0.000000 0.000000 -0.023604 0.000000 0.051933
#
#
# Mechanical properties :
#
#
# Convention : Reuss Voigt Hill
#
# Bulk Modulus (GPa) = 15.71509 28.50006 22.10757
# Shear Modulus (GPa) = 15.33591 25.12652 20.23122
#
# Velocity S-wave (km/s) = 2.69304 3.44710 3.09313
# Velocity P-wave (km/s) = 4.13542 5.41490 4.81782
#
# Compressibility (1/GPa) = 0.06363311
#
# Stress axis : x y z
#
# Youngs Moduli (GPa) = 145.76430 49.35656 21.61854
#
# Poissons Ratio (x) = 0.01048 0.04474
# Poissons Ratio (y) = 0.03095 0.05601
# Poissons Ratio (z) = 0.30164 0.12786
#
# Static dielectric constant tensor:
#      x y z
#    x 1.798690 0.000000 0.024460 
#    y 0.000000 1.764150 0.000000 
#    z 0.024460 0.000000 1.766630 
# 
# From -- ./inp_files/197958.got.cif
#   From: 2010.05.17/outbox.cif.g08.bks.cpg/sg15_99_cif.got.tgz:197958.got - 2010.06.03 18:47:42.
