data_PCOD9256248
_publ_section_title
;
Structure prediction by ZEFSAII (Michael W. Deem and Ramdas Pophale) SiO2 
 PCOD9256248
Probable space group: C 2/C
;
_chemical_formula_sum "Si O2"
_cell_formula_units_Z 56
_cell_length_a 15.830386
_cell_length_b 11.047790
_cell_length_c 28.862779
_cell_angle_alpha 90.000000
_cell_angle_beta 147.123379
_cell_angle_gamma 90.000000
_cell_volume 2740.124811
_symmetry_space_group_name_H-M "C 2/C"
_symmetry_group_IT_number 15
_symmetry_cell_setting 'monoclinic'
loop_
_space_group_symop_operation_xyz
x,y,z
-x,y,1/2-z
-x,-y,-z
x,-y,1/2+z
1/2+x,1/2+y,z
1/2-x,1/2+y,1/2-z
1/2-x,1/2-y,-z
1/2+x,1/2-y,1/2+z
loop_
_atom_site_type_symbol
_atom_site_label
_atom_site_fract_x
_atom_site_fract_y
_atom_site_fract_z
Si Si1 0.674697 0.383056 0.462926
Si Si2 0.022598 0.553052 0.903518
Si Si3 0.633205 0.634825 0.844508
Si Si4 0.837930 0.127206 0.440380
Si Si5 0.353875 0.056967 0.405134
Si Si6 0.394731 0.731516 0.988379
Si Si7 0.403817 0.085050 0.661474
O O1 0.750000 0.250000 0.500000
O O2 0.815459 0.477785 0.520130
O O3 0.576536 0.387753 0.370756
O O4 0.601411 0.399835 0.479571
O O5 0.987396 0.563648 0.832966
O O6 0.892468 0.474916 0.870324
O O7 0.049058 0.677035 0.945197
O O8 0.500000 0.681371 0.750000
O O9 0.766216 0.737075 0.907086
O O10 0.704379 0.513428 0.855198
O O11 0.973496 0.134729 0.464956
O O12 0.695272 0.033564 0.368386
O O13 0.360696 0.193338 0.425387
O O14 0.500000 0.000000 0.500000
O O15 0.229270 0.671429 0.921403
O O16 0.500000 0.129889 0.750000
#
# Coordination Sequence:
#
# PCOD9256248 Si02
#       7
#     8   8   8   8   8   8   8
#     4   9  17  32  56  88 116 155 197 234 288 358
#     4  10  19  39  65  82 115 163 203 235 295 366
#     4  11  19  32  57  93 122 146 193 260 305 336
#     4  10  20  38  61  82 116 166 207 237 287 374
#     4  10  17  35  63  86 113 149 199 245 289 351
#     4  11  20  39  66  86 115 159 210 243 291 364
#     4  11  25  41  57  87 126 158 194 252 310 352
#
# _framework density 20.437027
#
# number of rings (size 3 to 8) (size 9 to 14) (size 15 to 20)
#    0.000    1.714    5.714    2.143    0.000    0.571 
#    2.571    1.429    0.000    0.000    0.000    0.000 
#    0.000    0.000    0.000    0.000    0.000    0.000 
#
# Total GULP energy -156046.244204 kJ/mol
# GULP energy per Si atom -5573.080150 kJ/mol
# Density = 2.039051 g / cm^3
# Si number density = 20.437027 Si / 1000 Ang^3
#
#
#
# Elastic Constant Matrix: (Units=GPa)
#
#
# Indices 1 2 3 4 5 6 
#
# 1 104.4874 23.0571 32.1004 0.0000 -21.6166 0.0000
# 2 23.0571 60.4809 -4.1559 0.0000 0.4076 0.0000
# 3 32.1004 -4.1559 58.2923 0.0000 -26.6538 0.0000
# 4 0.0000 0.0000 0.0000 12.0693 0.0000 1.7605
# 5 -21.6166 0.4076 -26.6538 0.0000 25.4382 0.0000
# 6 0.0000 0.0000 0.0000 1.7605 0.0000 35.5607
#
#
#
# Elastic Compliance Matrix: (Units=1/GPa)
#
#
# Indices 1 2 3 4 5 6 
#
# 1 0.013676 -0.005597 -0.004944 0.000000 0.006531 0.000000
# 2 -0.005597 0.018953 0.004070 0.000000 -0.000796 0.000000
# 3 -0.004944 0.004070 0.034971 0.000000 0.032376 0.000000
# 4 0.000000 0.000000 0.000000 0.083458 0.000000 -0.004132
# 5 0.006531 -0.000796 0.032376 0.000000 0.078797 0.000000
# 6 0.000000 0.000000 0.000000 -0.004132 0.000000 0.028325
#
#
# Mechanical properties :
#
#
# Convention : Reuss Voigt Hill
#
# Bulk Modulus (GPa) = 18.29591 36.14042 27.21817
# Shear Modulus (GPa) = 17.28061 26.09758 21.68910
#
# Velocity S-wave (km/s) = 2.91100 3.57736 3.26124
# Velocity P-wave (km/s) = 4.50225 5.89792 5.24670
#
# Compressibility (1/GPa) = 0.05465702
#
# Stress axis : x y z
#
# Youngs Moduli (GPa) = 73.12296 52.76211 28.59480
#
# Poissons Ratio (x) = 0.29532 0.14137
# Poissons Ratio (y) = 0.40929 -0.11637
# Poissons Ratio (z) = 0.36150 -0.21472
#
# Static dielectric constant tensor:
#      x y z
#    x 1.884090 0.000000 -0.008670 
#    y 0.000000 1.793030 0.000000 
#    z -0.008670 0.000000 1.725030 
# 
# From -- ./inp_files/204136.got.cif
#   From: 2010.05.17/outbox.cif.g08.bks.cpg/sg15_103_cif.got.tgz:204136.got - 2010.06.03 18:47:42.
