data_PCOD9256190
_publ_section_title
;
Structure prediction by ZEFSAII (Michael W. Deem and Ramdas Pophale) SiO2 
 PCOD9256190
Probable space group: C 2/C
;
_chemical_formula_sum "Si O2"
_cell_formula_units_Z 56
_cell_length_a 23.911461
_cell_length_b 13.774049
_cell_length_c 7.164566
_cell_angle_alpha 90.000000
_cell_angle_beta 62.311047
_cell_angle_gamma 90.000000
_cell_volume 2089.478787
_symmetry_space_group_name_H-M "C 2/C"
_symmetry_group_IT_number 15
_symmetry_cell_setting 'monoclinic'
loop_
_space_group_symop_operation_xyz
x,y,z
-x,y,1/2-z
-x,-y,-z
x,-y,1/2+z
1/2+x,1/2+y,z
1/2-x,1/2+y,1/2-z
1/2-x,1/2-y,-z
1/2+x,1/2-y,1/2+z
loop_
_atom_site_type_symbol
_atom_site_label
_atom_site_fract_x
_atom_site_fract_y
_atom_site_fract_z
Si Si1 0.943159 0.890403 0.986228
Si Si2 0.252836 0.471597 0.936076
Si Si3 0.024933 0.322438 0.995480
Si Si4 0.342964 0.843863 0.591732
Si Si5 0.893778 0.712487 0.599632
Si Si6 0.256645 0.168949 0.690029
Si Si7 0.388203 0.579917 0.208892
O O1 0.953090 0.789273 0.071623
O O2 0.885363 0.891216 0.930442
O O3 0.000000 0.896499 0.750000
O O4 0.930320 0.983994 0.127837
O O5 0.194289 0.441859 0.898202
O O6 0.254815 0.587712 0.950131
O O7 0.319456 0.443959 0.741568
O O8 0.249250 0.396489 0.113225
O O9 0.000000 0.329038 0.250000
O O10 0.960872 0.343522 0.977602
O O11 0.094410 0.370419 0.883976
O O12 0.370055 0.808470 0.348111
O O13 0.292457 0.759170 0.730528
O O14 0.830710 0.699083 0.576076
O O15 0.912242 0.826146 0.564647
#
# Coordination Sequence:
#
# PCOD9256190 Si02
#       7
#     8   8   8   8   8   8   8
#     4  11  21  31  52  84 118 145 181 221 276 347
#     4  11  21  34  60  81 109 148 189 231 276 325
#     4   9  16  30  51  80 105 140 187 226 262 320
#     4  10  17  35  55  82 109 145 186 229 269 334
#     4  10  18  33  57  77 108 150 185 224 271 333
#     4  11  21  38  57  84 113 145 190 233 278 325
#     4  12  19  34  53  82 115 148 181 227 276 330
#
# _framework density 26.800941000000002
#
# number of rings (size 3 to 8) (size 9 to 14) (size 15 to 20)
#    0.000    1.429    7.143    3.000    0.000    0.000 
#    0.000    1.429    3.143    0.000    0.000    0.000 
#    0.000    0.000    0.000    0.000    0.000    0.000 
#
# Total GULP energy -156376.421213 kJ/mol
# GULP energy per Si atom -5584.872186 kJ/mol
# Density = 2.673994 g / cm^3
# Si number density = 26.800941 Si / 1000 Ang^3
#
#
#
# Elastic Constant Matrix: (Units=GPa)
#
#
# Indices 1 2 3 4 5 6 
#
# 1 202.5667 8.0130 16.8953 0.0000 -43.3044 0.0000
# 2 8.0130 49.6182 2.4225 0.0000 -14.8207 0.0000
# 3 16.8953 2.4225 70.4546 0.0000 -8.9709 0.0000
# 4 0.0000 0.0000 0.0000 26.4789 0.0000 -0.4988
# 5 -43.3044 -14.8207 -8.9709 0.0000 34.2153 0.0000
# 6 0.0000 0.0000 0.0000 -0.4988 0.0000 32.9032
#
#
#
# Elastic Compliance Matrix: (Units=1/GPa)
#
#
# Indices 1 2 3 4 5 6 
#
# 1 0.006911 0.001701 -0.000526 0.000000 0.009346 0.000000
# 2 0.001701 0.023585 0.000368 0.000000 0.012466 0.000000
# 3 -0.000526 0.000368 0.014734 0.000000 0.003357 0.000000
# 4 0.000000 0.000000 0.000000 0.037777 0.000000 0.000573
# 5 0.009346 0.012466 0.003357 0.000000 0.047335 0.000000
# 6 0.000000 0.000000 0.000000 0.000573 0.000000 0.030401
#
#
# Mechanical properties :
#
#
# Convention : Reuss Voigt Hill
#
# Bulk Modulus (GPa) = 20.69638 41.92237 31.30937
# Shear Modulus (GPa) = 28.77509 38.40675 33.59092
#
# Velocity S-wave (km/s) = 3.28023 3.78965 3.54411
# Velocity P-wave (km/s) = 4.69953 5.90125 5.33434
#
# Compressibility (1/GPa) = 0.04831763
#
# Stress axis : x y z
#
# Youngs Moduli (GPa) = 144.69250 42.40067 67.86819
#
# Poissons Ratio (x) = -0.07213 0.03568
# Poissons Ratio (y) = -0.24615 -0.02500
# Poissons Ratio (z) = 0.07608 -0.01562
#
# Static dielectric constant tensor:
#      x y z
#    x 2.278340 0.000000 0.032490 
#    y 0.000000 2.038010 0.000000 
#    z 0.032490 0.000000 2.166010 
# 
# From -- ./inp_files/61811.got.cif
#   From: 2010.05.17/outbox.cif.g08.bks.cpg/sg15_31_cif.got.tgz:61811.got - 2010.06.03 18:47:42.
