data_PCOD9256252
_publ_section_title
;
Structure prediction by ZEFSAII (Michael W. Deem and Ramdas Pophale) SiO2 
 PCOD9256252
Probable space group: C 2/C
;
_chemical_formula_sum "Si O2"
_cell_formula_units_Z 64
_cell_length_a 14.406497
_cell_length_b 13.026772
_cell_length_c 23.009340
_cell_angle_alpha 90.000000
_cell_angle_beta 37.075318
_cell_angle_gamma 90.000000
_cell_volume 2603.268524
_symmetry_space_group_name_H-M "C 2/C"
_symmetry_group_IT_number 15
_symmetry_cell_setting 'monoclinic'
loop_
_space_group_symop_operation_xyz
x,y,z
-x,y,1/2-z
-x,-y,-z
x,-y,1/2+z
1/2+x,1/2+y,z
1/2-x,1/2+y,1/2-z
1/2-x,1/2-y,-z
1/2+x,1/2-y,1/2+z
loop_
_atom_site_type_symbol
_atom_site_label
_atom_site_fract_x
_atom_site_fract_y
_atom_site_fract_z
Si Si1 0.606420 0.077180 0.139202
Si Si2 0.119131 0.184532 0.637335
Si Si3 0.883326 0.392084 0.653419
Si Si4 0.942878 0.045476 0.943717
Si Si5 0.330130 0.716795 0.400743
Si Si6 0.187706 0.009078 0.152392
Si Si7 0.923233 0.785247 0.045261
Si Si8 0.912619 0.823550 0.651024
O O1 0.500000 0.064119 0.250000
O O2 0.657265 0.197770 0.105986
O O3 0.504292 0.052078 0.133776
O O4 0.770312 0.022305 0.052599
O O5 0.059757 0.122397 0.610621
O O6 0.000000 0.195026 0.750000
O O7 0.237956 0.101046 0.603452
O O8 0.775354 0.464267 0.667810
O O9 0.947732 0.305639 0.578576
O O10 0.769218 0.329751 0.753485
O O11 0.031613 0.108053 0.948638
O O12 0.023541 0.939429 0.887326
O O13 0.250000 0.750000 0.500000
O O14 0.281796 0.601510 0.407306
O O15 0.253413 0.782848 0.388438
O O16 0.509266 0.718385 0.328690
O O17 0.000000 0.010647 0.250000
O O18 0.027680 0.767680 0.936115
#
# Coordination Sequence:
#
# PCOD9256252 Si02
#       8
#     8   8   8   8   8   8   8   8
#     4  11  25  43  66  94 141 179 223 283 344 406
#     4  10  20  37  63  95 123 174 225 270 332 402
#     4  11  22  41  68 101 134 174 232 285 333 399
#     4  12  22  43  68  95 136 182 224 275 346 411
#     4   9  18  34  57  89 124 163 219 272 330 392
#     4  10  17  35  63  92 122 169 224 275 325 396
#     4  10  23  36  64 101 130 167 230 276 336 407
#     4  11  21  41  72  92 134 185 225 279 344 411
#
# _framework density 24.584477
#
# number of rings (size 3 to 8) (size 9 to 14) (size 15 to 20)
#    0.000    1.500    3.750    2.250    0.000    0.000 
#    0.000    1.875   19.250    0.000    0.000    0.000 
#    0.000    0.000    0.000    0.000    0.000    0.000 
#
# Total GULP energy -178992.135424 kJ/mol
# GULP energy per Si atom -5593.504232 kJ/mol
# Density = 2.452852 g / cm^3
# Si number density = 24.584477 Si / 1000 Ang^3
#
#
#
# Elastic Constant Matrix: (Units=GPa)
#
#
# Indices 1 2 3 4 5 6 
#
# 1 153.0106 33.0930 42.2003 0.0000 5.4508 0.0000
# 2 33.0930 46.2386 25.4633 0.0000 -6.5177 0.0000
# 3 42.2003 25.4633 111.2669 -0.0003 2.0587 0.0001
# 4 0.0000 0.0000 -0.0003 18.8178 0.0001 5.5383
# 5 5.4508 -6.5177 2.0587 0.0001 31.8423 0.0000
# 6 0.0000 0.0000 0.0001 5.5383 0.0000 25.1378
#
#
#
# Elastic Compliance Matrix: (Units=1/GPa)
#
#
# Indices 1 2 3 4 5 6 
#
# 1 0.008269 -0.005203 -0.001902 0.000000 -0.002358 0.000000
# 2 -0.005203 0.028997 -0.004795 0.000000 0.007136 0.000000
# 3 -0.001902 -0.004795 0.010831 0.000000 -0.001356 0.000000
# 4 0.000000 0.000000 0.000000 0.056826 0.000000 -0.012520
# 5 -0.002358 0.007136 -0.001356 0.000000 0.033357 0.000000
# 6 0.000000 0.000000 0.000000 -0.012520 0.000000 0.042539
#
#
# Mechanical properties :
#
#
# Convention : Reuss Voigt Hill
#
# Bulk Modulus (GPa) = 41.15562 56.89214 49.02388
# Shear Modulus (GPa) = 23.50526 29.14354 26.32440
#
# Velocity S-wave (km/s) = 3.09544 3.44676 3.27582
# Velocity P-wave (km/s) = 5.43622 6.24756 5.85596
#
# Compressibility (1/GPa) = 0.02429802
#
# Stress axis : x y z
#
# Youngs Moduli (GPa) = 120.92739 34.48604 92.32707
#
# Poissons Ratio (x) = 0.17944 0.17560
# Poissons Ratio (y) = 0.62923 0.44266
# Poissons Ratio (z) = 0.23000 0.16534
#
# Static dielectric constant tensor:
#      x y z
#    x 1.999480 0.000000 -0.003800 
#    y 0.000000 1.962340 0.000000 
#    z -0.003800 0.000000 1.984120 
# 
# From -- ./inp_files/274340.got.cif
#   From: 2010.05.17/outbox.cif.g08.bks.cpg/sg15_138_cif.got.tgz:274340.got - 2010.06.03 18:47:42.
