data_PCOD9256367
_publ_section_title
;
Structure prediction by ZEFSAII (Michael W. Deem and Ramdas Pophale) SiO2 
 PCOD9256367
Probable space group: C 2/C
;
_chemical_formula_sum "Si O2"
_cell_formula_units_Z 56
_cell_length_a 16.141231
_cell_length_b 16.529289
_cell_length_c 14.983250
_cell_angle_alpha 90.000000
_cell_angle_beta 46.764727
_cell_angle_gamma 90.000000
_cell_volume 2912.423071
_symmetry_space_group_name_H-M "C 2/C"
_symmetry_group_IT_number 15
_symmetry_cell_setting 'monoclinic'
loop_
_space_group_symop_operation_xyz
x,y,z
-x,y,1/2-z
-x,-y,-z
x,-y,1/2+z
1/2+x,1/2+y,z
1/2-x,1/2+y,1/2-z
1/2-x,1/2-y,-z
1/2+x,1/2-y,1/2+z
loop_
_atom_site_type_symbol
_atom_site_label
_atom_site_fract_x
_atom_site_fract_y
_atom_site_fract_z
Si Si1 0.799334 0.497135 0.148470
Si Si2 0.034940 0.203268 0.530746
Si Si3 0.000000 0.485734 0.750000
Si Si4 0.260367 0.003223 0.972031
Si Si5 0.392568 0.441006 0.069053
Si Si6 0.500000 0.730519 0.750000
Si Si7 0.229700 0.684156 0.092953
Si Si8 0.489552 0.892966 0.568898
O O1 0.704580 0.466238 0.287345
O O2 0.865607 0.578517 0.127940
O O3 0.749500 0.508312 0.086154
O O4 0.905311 0.434282 0.062056
O O5 0.030277 0.179386 0.640120
O O6 0.168932 0.191968 0.410443
O O7 0.945171 0.147540 0.547079
O O8 0.009204 0.298000 0.545393
O O9 0.883442 0.535101 0.847158
O O10 0.998090 0.432552 0.661216
O O11 0.266805 0.907580 0.942822
O O12 0.163190 0.044993 0.986240
O O13 0.500000 0.500000 0.000000
O O14 0.396559 0.786350 0.791809
O O15 0.250000 0.750000 0.000000
#
# Coordination Sequence:
#
# PCOD9256367 Si02
#       8
#     8   8   4   8   8   4   8   8
#     4  10  23  40  66  90 122 162 211 258 310 365
#     4  11  23  34  59  89 126 160 202 251 313 377
#     4  10  17  36  66  90 126 145 200 267 318 358
#     4  11  21  39  60  88 125 161 205 251 307 372
#     4  12  26  41  57  92 131 172 199 243 316 388
#     4  10  21  32  60  90 118 153 192 263 322 362
#     4  10  19  34  55  90 119 151 191 253 322 371
#     4  10  20  40  63  98 117 160 210 264 308 363
#
# _framework density 19.227976999999999
#
# number of rings (size 3 to 8) (size 9 to 14) (size 15 to 20)
#    0.000    1.429    2.857    5.143    6.000    0.571 
#    0.000    0.714    0.000    0.000    3.714    0.000 
#    0.000    0.000    0.000    0.000    0.000    0.000 
#
# Total GULP energy -156148.233058 kJ/mol
# GULP energy per Si atom -5576.722609 kJ/mol
# Density = 1.918421 g / cm^3
# Si number density = 19.227977 Si / 1000 Ang^3
#
#
#
# Elastic Constant Matrix: (Units=GPa)
#
#
# Indices 1 2 3 4 5 6 
#
# 1 145.7260 41.5069 30.3744 0.0000 -13.2365 0.0000
# 2 41.5069 46.0297 14.5647 0.0000 -0.4188 0.0000
# 3 30.3744 14.5647 78.8641 0.0000 -19.2172 0.0000
# 4 0.0000 0.0000 0.0000 10.0637 0.0000 -2.9276
# 5 -13.2365 -0.4188 -19.2172 0.0000 27.9294 0.0000
# 6 0.0000 0.0000 0.0000 -2.9276 0.0000 34.7870
#
#
#
# Elastic Compliance Matrix: (Units=1/GPa)
#
#
# Indices 1 2 3 4 5 6 
#
# 1 0.009881 -0.008445 -0.001364 0.000000 0.003617 0.000000
# 2 -0.008445 0.030518 -0.003901 0.000000 -0.006229 0.000000
# 3 -0.001364 -0.003901 0.016525 0.000000 0.010665 0.000000
# 4 0.000000 0.000000 0.000000 0.101861 0.000000 0.008572
# 5 0.003617 -0.006229 0.010665 0.000000 0.044764 0.000000
# 6 0.000000 0.000000 0.000000 0.008572 0.000000 0.029468
#
#
# Mechanical properties :
#
#
# Convention : Reuss Voigt Hill
#
# Bulk Modulus (GPa) = 33.89620 49.27907 41.58764
# Shear Modulus (GPa) = 18.49990 26.83427 22.66709
#
# Velocity S-wave (km/s) = 3.10519 3.73981 3.43718
# Velocity P-wave (km/s) = 5.52478 6.65828 6.11784
#
# Compressibility (1/GPa) = 0.02950184
#
# Stress axis : x y z
#
# Youngs Moduli (GPa) = 101.20899 32.76731 60.51497
#
# Poissons Ratio (x) = 0.27672 0.08257
# Poissons Ratio (y) = 0.85472 0.23609
# Poissons Ratio (z) = 0.13809 0.12784
#
# Static dielectric constant tensor:
#      x y z
#    x 1.743550 0.000000 -0.037990 
#    y 0.000000 1.678240 0.000000 
#    z -0.037990 0.000000 1.791310 
# 
# From -- ./inp_files/155158.got.cif
#   From: 2010.05.17/outbox.cif.g08.bks.cpg/sg15_78_cif.got.tgz:155158.got - 2010.06.03 18:47:42.
