data_PCOD9256932
_publ_section_title
;
Structure prediction by ZEFSAII (Michael W. Deem and Ramdas Pophale) SiO2 
 PCOD9256932
Probable space group: C 2/C
;
_chemical_formula_sum "Si O2"
_cell_formula_units_Z 40
_cell_length_a 11.312562
_cell_length_b 21.883094
_cell_length_c 8.453036
_cell_angle_alpha 90.000000
_cell_angle_beta 71.413371
_cell_angle_gamma 90.000000
_cell_volume 1983.438510
_symmetry_space_group_name_H-M "C 2/C"
_symmetry_group_IT_number 15
_symmetry_cell_setting 'monoclinic'
loop_
_space_group_symop_operation_xyz
x,y,z
-x,y,1/2-z
-x,-y,-z
x,-y,1/2+z
1/2+x,1/2+y,z
1/2-x,1/2+y,1/2-z
1/2-x,1/2-y,-z
1/2+x,1/2-y,1/2+z
loop_
_atom_site_type_symbol
_atom_site_label
_atom_site_fract_x
_atom_site_fract_y
_atom_site_fract_z
Si Si1 0.332553 0.840477 0.966864
Si Si2 0.136240 0.579537 0.607793
Si Si3 0.356666 0.039456 0.256948
Si Si4 0.571310 0.796723 0.061411
Si Si5 0.861932 0.221021 0.746285
O O1 0.469338 0.830314 0.987793
O O2 0.233507 0.828878 0.147856
O O3 0.312018 0.903446 0.882258
O O4 0.320827 0.784862 0.847937
O O5 0.139750 0.552328 0.429932
O O6 0.202862 0.526964 0.682018
O O7 0.168545 0.650321 0.566802
O O8 0.000000 0.586289 0.750000
O O9 0.500000 0.034124 0.250000
O O10 0.500000 0.776325 0.250000
O O11 0.625252 0.740592 0.940560
O O12 0.000000 0.205832 0.750000
#
# Coordination Sequence:
#
# PCOD9256932 Si02
#       5
#     8   8   8   8   8
#     4  10  18  30  49  67  92 127 158 188 232 277
#     4  10  19  26  43  67 102 126 144 180 236 282
#     4  11  17  28  43  69 100 124 147 185 230 289
#     4  10  19  30  45  69 101 121 148 194 234 280
#     4   9  18  34  49  65  90 125 163 196 224 270
#
# _framework density 20.166998
#
# number of rings (size 3 to 8) (size 9 to 14) (size 15 to 20)
#    0.000    2.000    4.000    3.000    2.800    0.800 
#    0.000    0.000    0.000    0.000    0.000    1.400 
#    0.000    0.000    0.000    0.000    0.000    0.000 
#
# Total GULP energy -111441.503075 kJ/mol
# GULP energy per Si atom -5572.075154 kJ/mol
# Density = 2.012110 g / cm^3
# Si number density = 20.166998 Si / 1000 Ang^3
#
#
#
# Elastic Constant Matrix: (Units=GPa)
#
#
# Indices 1 2 3 4 5 6 
#
# 1 27.2769 21.2257 15.1633 0.0000 -3.3263 0.0000
# 2 21.2257 90.1797 49.8897 0.0000 -10.5860 0.0000
# 3 15.1633 49.8897 156.0258 0.0000 13.7354 0.0000
# 4 0.0000 0.0000 0.0000 27.1339 0.0000 8.4636
# 5 -3.3263 -10.5860 13.7354 0.0000 23.2879 0.0000
# 6 0.0000 0.0000 0.0000 8.4636 0.0000 6.9169
#
#
#
# Elastic Compliance Matrix: (Units=1/GPa)
#
#
# Indices 1 2 3 4 5 6 
#
# 1 0.045263 -0.009336 -0.001697 0.000000 0.003222 0.000000
# 2 -0.009336 0.017535 -0.005573 0.000000 0.009924 0.000000
# 3 -0.001697 -0.005573 0.009072 0.000000 -0.008126 0.000000
# 4 0.000000 0.000000 0.000000 0.059602 0.000000 -0.072929
# 5 0.003222 0.009924 -0.008126 0.000000 0.052705 0.000000
# 6 0.000000 0.000000 0.000000 -0.072929 0.000000 0.233809
#
#
# Mechanical properties :
#
#
# Convention : Reuss Voigt Hill
#
# Bulk Modulus (GPa) = 25.86954 49.56000 37.71477
# Shear Modulus (GPa) = 10.77393 23.94801 17.36097
#
# Velocity S-wave (km/s) = 2.31386 3.44973 2.93723
# Velocity P-wave (km/s) = 4.47148 6.36362 5.49954
#
# Compressibility (1/GPa) = 0.03865549
#
# Stress axis : x y z
#
# Youngs Moduli (GPa) = 22.09334 57.02996 110.23530
#
# Poissons Ratio (x) = 0.53246 0.18708
# Poissons Ratio (y) = 0.20627 0.61435
# Poissons Ratio (z) = 0.03749 0.31783
#
# Static dielectric constant tensor:
#      x y z
#    x 1.770540 0.000000 0.024610 
#    y 0.000000 1.799890 0.000000 
#    z 0.024610 0.000000 1.766020 
# 
# From -- ./inp_files/30506.got.cif
#   From: 2010.05.17/outbox.cif.g08.bks.cpg/sg15_16_cif.got.tgz:30506.got - 2010.06.03 18:47:42.
