data_PCOD9256569
_publ_section_title
;
Structure prediction by ZEFSAII (Michael W. Deem and Ramdas Pophale) SiO2 
 PCOD9256569
Probable space group: C 2/C
;
_chemical_formula_sum "Si O2"
_cell_formula_units_Z 52
_cell_length_a 27.457833
_cell_length_b 7.572997
_cell_length_c 28.097712
_cell_angle_alpha 90.000000
_cell_angle_beta 19.370234
_cell_angle_gamma 90.000000
_cell_volume 1937.816241
_symmetry_space_group_name_H-M "C 2/C"
_symmetry_group_IT_number 15
_symmetry_cell_setting 'monoclinic'
loop_
_space_group_symop_operation_xyz
x,y,z
-x,y,1/2-z
-x,-y,-z
x,-y,1/2+z
1/2+x,1/2+y,z
1/2-x,1/2+y,1/2-z
1/2-x,1/2-y,-z
1/2+x,1/2-y,1/2+z
loop_
_atom_site_type_symbol
_atom_site_label
_atom_site_fract_x
_atom_site_fract_y
_atom_site_fract_z
Si Si1 0.867187 0.835846 0.736542
Si Si2 0.500000 0.540045 0.750000
Si Si3 0.029363 0.300197 0.916708
Si Si4 0.365434 0.472174 0.466487
Si Si5 0.205211 0.355070 0.291077
Si Si6 0.784975 0.627520 0.030554
Si Si7 0.558644 0.946539 0.789040
O O1 0.814584 0.787602 0.732759
O O2 0.737771 0.900710 0.891120
O O3 0.906269 0.643250 0.722212
O O4 0.009901 0.960393 0.611081
O O5 0.565033 0.629653 0.642617
O O6 0.370153 0.426171 0.847273
O O7 0.123158 0.472687 0.846857
O O8 0.125603 0.142946 0.850062
O O9 0.018045 0.320997 0.870627
O O10 0.876839 0.301734 0.084723
O O11 0.315556 0.667232 0.493630
O O12 0.214033 0.387105 0.623942
O O13 0.914718 0.502970 0.892328
#
# Coordination Sequence:
#
# PCOD9256569 Si02
#       7
#     8   4   8   8   8   8   8
#     4   8  17  29  47  70 106 150 191 216 287 337
#     4  10  18  28  42  76 108 144 188 220 286 358
#     4  10  23  38  56  83 116 155 205 240 286 339
#     4   9  17  29  45  71 107 151 185 228 280 352
#     4  10  22  37  57  83 115 157 198 248 280 341
#     4   9  17  28  46  70 109 149 182 231 277 351
#     4   9  18  32  49  71 104 150 185 230 285 332
#
# _framework density 26.834330999999999
#
# number of rings (size 3 to 8) (size 9 to 14) (size 15 to 20)
#    0.000    2.769    0.000    1.385   12.923    1.231 
#    0.000    0.000    0.000    0.000    0.000    0.000 
#    0.000   12.308    0.000   11.077    0.000   14.769 
#
# Total GULP energy -145465.069921 kJ/mol
# GULP energy per Si atom -5594.810382 kJ/mol
# Density = 2.677325 g / cm^3
# Si number density = 26.834331 Si / 1000 Ang^3
#
#
#
# Elastic Constant Matrix: (Units=GPa)
#
#
# Indices 1 2 3 4 5 6 
#
# 1 101.0543 1.0312 34.3503 0.0094 21.5707 -0.0106
# 2 1.0312 83.3853 -2.2082 -0.0004 -1.1038 -0.0313
# 3 34.3503 -2.2082 116.2552 -0.0068 12.4259 -0.0179
# 4 0.0094 -0.0004 -0.0068 9.8750 0.0064 6.4439
# 5 21.5707 -1.1038 12.4259 0.0064 39.7773 0.0034
# 6 -0.0106 -0.0313 -0.0179 6.4439 0.0034 9.0765
#
#
#
# Elastic Compliance Matrix: (Units=1/GPa)
#
#
# Indices 1 2 3 4 5 6 
#
# 1 0.012118 -0.000304 -0.002983 -0.000030 -0.005648 0.000031
# 2 -0.000304 0.012009 0.000274 -0.000049 0.000412 0.000076
# 3 -0.002983 0.000274 0.009636 -0.000001 -0.001385 0.000018
# 4 -0.000030 -0.000049 -0.000001 0.188677 -0.000004 -0.133952
# 5 -0.005648 0.000412 -0.001385 -0.000004 0.028647 -0.000016
# 6 0.000031 0.000076 0.000018 -0.133952 -0.000016 0.205275
#
#
# Mechanical properties :
#
#
# Convention : Reuss Voigt Hill
#
# Bulk Modulus (GPa) = 36.05092 40.78237 38.41664
# Shear Modulus (GPa) = 10.60144 29.58053 20.09098
#
# Velocity S-wave (km/s) = 1.98979 3.32375 2.73921
# Velocity P-wave (km/s) = 4.32930 5.47363 4.93474
#
# Compressibility (1/GPa) = 0.02773855
#
# Stress axis : x y z
#
# Youngs Moduli (GPa) = 82.51980 83.27078 103.77391
#
# Poissons Ratio (x) = 0.02528 0.30953
# Poissons Ratio (y) = 0.02505 -0.02841
# Poissons Ratio (z) = 0.24613 -0.02279
#
# Static dielectric constant tensor:
#      x y z
#    x 2.149050 0.000000 0.029800 
#    y 0.000000 2.110730 0.000020 
#    z 0.029800 0.000020 2.069370 
# 
# From -- ./inp_files/320163.got.cif
#   From: 2010.05.17/outbox.cif.g08.bks.cpg/sg15_161_cif.got.tgz:320163.got - 2010.06.03 18:47:42.
