data_PCOD9256164
_publ_section_title
;
Structure prediction by ZEFSAII (Michael W. Deem and Ramdas Pophale) SiO2 
 PCOD9256164
Probable space group: C 2/C
;
_chemical_formula_sum "Si O2"
_cell_formula_units_Z 56
_cell_length_a 8.048537
_cell_length_b 27.954768
_cell_length_c 14.106979
_cell_angle_alpha 90.000000
_cell_angle_beta 128.222843
_cell_angle_gamma 90.000000
_cell_volume 2493.526654
_symmetry_space_group_name_H-M "C 2/C"
_symmetry_group_IT_number 15
_symmetry_cell_setting 'monoclinic'
loop_
_space_group_symop_operation_xyz
x,y,z
-x,y,1/2-z
-x,-y,-z
x,-y,1/2+z
1/2+x,1/2+y,z
1/2-x,1/2+y,1/2-z
1/2-x,1/2-y,-z
1/2+x,1/2-y,1/2+z
loop_
_atom_site_type_symbol
_atom_site_label
_atom_site_fract_x
_atom_site_fract_y
_atom_site_fract_z
Si Si1 0.116620 0.657773 0.429887
Si Si2 0.254550 0.610152 0.816849
Si Si3 0.818645 0.309164 0.351929
Si Si4 0.629762 0.981519 0.198988
Si Si5 0.296022 0.653066 0.028559
Si Si6 0.594936 0.069472 0.061842
Si Si7 0.282767 0.299827 0.793779
O O1 0.080740 0.602385 0.446138
O O2 0.882096 0.681128 0.340850
O O3 0.235363 0.683360 0.557564
O O4 0.216347 0.671627 0.365688
O O5 0.282750 0.649359 0.746378
O O6 0.303488 0.557102 0.795569
O O7 0.356424 0.629465 0.948396
O O8 0.000000 0.607493 0.750000
O O9 0.760712 0.256702 0.298064
O O10 0.071950 0.319884 0.434012
O O11 0.500000 0.992898 0.250000
O O12 0.686344 0.030510 0.166187
O O13 0.499702 0.954275 0.068134
O O14 0.262397 0.607613 0.083835
O O15 0.473331 0.687656 0.130761
#
# Coordination Sequence:
#
# PCOD9256164 Si02
#       7
#     8   8   8   8   8   8   8
#     4  10  23  42  56  86 124 160 207 244 301 368
#     4   9  16  35  59  90 119 147 200 249 292 360
#     4  10  20  38  61  87 119 159 205 245 296 361
#     4  10  17  34  66  93 116 159 198 244 310 363
#     4  10  20  39  59  91 122 154 204 253 295 358
#     4  10  20  35  64  93 116 158 206 245 300 372
#     4  11  24  37  59  86 125 167 196 251 304 350
#
# _framework density 22.458152999999999
#
# number of rings (size 3 to 8) (size 9 to 14) (size 15 to 20)
#    0.000    2.000    5.714    0.857    4.000    2.286 
#    7.714    0.000    0.000   11.143    0.000    0.000 
#    0.000    0.000    0.000    0.000    0.000    0.000 
#
# Total GULP energy -156317.835249 kJ/mol
# GULP energy per Si atom -5582.779830 kJ/mol
# Density = 2.240704 g / cm^3
# Si number density = 22.458153 Si / 1000 Ang^3
#
#
#
# Elastic Constant Matrix: (Units=GPa)
#
#
# Indices 1 2 3 4 5 6 
#
# 1 40.1703 7.5315 23.2685 0.0000 -4.8789 0.0000
# 2 7.5315 99.1553 55.8673 0.0000 -13.6586 0.0000
# 3 23.2685 55.8673 85.5113 0.0000 -27.5377 0.0000
# 4 0.0000 0.0000 0.0000 26.4165 0.0000 -9.7876
# 5 -4.8789 -13.6586 -27.5377 0.0000 42.8261 0.0000
# 6 0.0000 0.0000 0.0000 -9.7876 0.0000 6.5437
#
#
#
# Elastic Compliance Matrix: (Units=1/GPa)
#
#
# Indices 1 2 3 4 5 6 
#
# 1 0.030669 0.003953 -0.011851 0.000000 -0.002866 0.000000
# 2 0.003953 0.016612 -0.012709 0.000000 -0.002424 0.000000
# 3 -0.011851 -0.012709 0.027093 0.000000 0.012017 0.000000
# 4 0.000000 0.000000 0.000000 0.084912 0.000000 0.127006
# 5 -0.002866 -0.002424 0.012017 0.000000 0.029978 0.000000
# 6 0.000000 0.000000 0.000000 0.127006 0.000000 0.342787
#
#
# Mechanical properties :
#
#
# Convention : Reuss Voigt Hill
#
# Bulk Modulus (GPa) = 30.15743 44.24128 37.19935
# Shear Modulus (GPa) = 8.55698 24.36857 16.46277
#
# Velocity S-wave (km/s) = 1.95409 3.29761 2.71041
# Velocity P-wave (km/s) = 4.30682 5.85159 5.13760
#
# Compressibility (1/GPa) = 0.03315933
#
# Stress axis : x y z
#
# Youngs Moduli (GPa) = 32.60582 60.19790 36.91057
#
# Poissons Ratio (x) = -0.23795 0.43742
# Poissons Ratio (y) = -0.12889 0.46911
# Poissons Ratio (z) = 0.38641 0.76507
#
# Static dielectric constant tensor:
#      x y z
#    x 1.918750 0.000000 0.003930 
#    y 0.000000 1.800330 0.000000 
#    z 0.003930 0.000000 1.828610 
# 
# From -- ./inp_files/138682.got.cif
#   From: 2010.05.17/outbox.cif.g08.bks.cpg/sg15_70_cif.got.tgz:138682.got - 2010.06.03 18:47:42.
