data_PCOD9256223
_publ_section_title
;
Structure prediction by ZEFSAII (Michael W. Deem and Ramdas Pophale) SiO2 
 PCOD9256223
Probable space group: C 2/C
;
_chemical_formula_sum "Si O2"
_cell_formula_units_Z 48
_cell_length_a 9.640652
_cell_length_b 28.462166
_cell_length_c 10.650291
_cell_angle_alpha 90.000000
_cell_angle_beta 62.753613
_cell_angle_gamma 90.000000
_cell_volume 2598.125147
_symmetry_space_group_name_H-M "C 2/C"
_symmetry_group_IT_number 15
_symmetry_cell_setting 'monoclinic'
loop_
_space_group_symop_operation_xyz
x,y,z
-x,y,1/2-z
-x,-y,-z
x,-y,1/2+z
1/2+x,1/2+y,z
1/2-x,1/2+y,1/2-z
1/2-x,1/2-y,-z
1/2+x,1/2-y,1/2+z
loop_
_atom_site_type_symbol
_atom_site_label
_atom_site_fract_x
_atom_site_fract_y
_atom_site_fract_z
Si Si1 0.969224 0.601570 0.613720
Si Si2 0.169928 0.945004 0.126665
Si Si3 0.432382 0.596265 0.086048
Si Si4 0.565684 0.799476 0.080836
Si Si5 0.717310 0.443820 0.600416
Si Si6 0.440636 0.695229 0.419098
O O1 0.803412 0.580846 0.648238
O O2 0.000000 0.602846 0.750000
O O3 0.986250 0.654738 0.555801
O O4 0.106439 0.570019 0.499822
O O5 0.000000 0.934052 0.250000
O O6 0.197077 0.000742 0.125372
O O7 0.163206 0.926842 0.986682
O O8 0.342082 0.584654 0.252850
O O9 0.601136 0.571679 0.036429
O O10 0.472281 0.651345 0.053461
O O11 0.500000 0.796589 0.250000
O O12 0.531796 0.747841 0.039597
O O13 0.752050 0.809480 0.001965
O O14 0.500000 0.693889 0.250000
#
# Coordination Sequence:
#
# PCOD9256223 Si02
#       6
#     8   8   8   8   8   8
#     4  11  23  40  60  87 121 155 196 244 294 352
#     4  12  26  38  58  88 120 158 194 244 295 349
#     4  11  21  38  64  86 117 150 201 243 289 348
#     4   9  19  32  58  88 117 148 196 239 290 355
#     4  11  22  41  61  83 115 161 199 241 286 353
#     4  10  17  35  60  89 112 152 198 239 290 350
#
# _framework density 18.47486
#
# number of rings (size 3 to 8) (size 9 to 14) (size 15 to 20)
#    0.000    1.333    5.000    2.000    4.667    0.667 
#    0.000    0.833    0.000    0.000    0.000    0.000 
#    0.000    0.000    0.000    0.000    0.000    0.000 
#
# Total GULP energy -133903.271297 kJ/mol
# GULP energy per Si atom -5579.302971 kJ/mol
# Density = 1.843281 g / cm^3
# Si number density = 18.474860 Si / 1000 Ang^3
#
#
#
# Elastic Constant Matrix: (Units=GPa)
#
#
# Indices 1 2 3 4 5 6 
#
# 1 92.0508 79.1314 31.7509 0.0000 -13.4737 0.0000
# 2 79.1314 128.6333 24.4704 0.0000 -13.3192 0.0000
# 3 31.7509 24.4704 72.3676 0.0000 -21.4542 0.0000
# 4 0.0000 0.0000 0.0000 18.4185 0.0000 -5.5903
# 5 -13.4737 -13.3192 -21.4542 0.0000 34.7786 0.0000
# 6 0.0000 0.0000 0.0000 -5.5903 0.0000 -4.4314
#
#
#
# Elastic Compliance Matrix: (Units=1/GPa)
#
#
# Indices 1 2 3 4 5 6 
#
# 1 0.025484 -0.014453 -0.006128 0.000000 0.000557 0.000000
# 2 -0.014453 0.016596 0.001167 0.000000 0.001476 0.000000
# 3 -0.006128 0.001167 0.019019 0.000000 0.009805 0.000000
# 4 0.000000 0.000000 0.000000 0.039261 0.000000 -0.049528
# 5 0.000557 0.001476 0.009805 0.000000 0.035583 0.000000
# 6 0.000000 0.000000 0.000000 -0.049528 0.000000 -0.163182
#
#
# Mechanical properties :
#
#
# Convention : Reuss Voigt Hill
#
# Bulk Modulus (GPa) = 44.90321 62.63965 53.77143
# Shear Modulus (GPa) = 262.96191 20.26642 141.61416
#
# Velocity S-wave (km/s) = 11.94337 3.31565 8.76463
# Velocity P-wave (km/s) = 14.64752 6.97402 11.47142
#
# Compressibility (1/GPa) = 0.02227012
#
# Stress axis : x y z
#
# Youngs Moduli (GPa) = 39.24066 60.25499 52.57790
#
# Poissons Ratio (x) = 0.87089 0.32222
# Poissons Ratio (y) = 0.56716 -0.06137
# Poissons Ratio (z) = 0.24048 -0.07033
#
# Static dielectric constant tensor:
#      x y z
#    x 1.595890 0.000000 0.002660 
#    y 0.000000 1.678390 0.000000 
#    z 0.002660 0.000000 1.672670 
# 
# From -- ./inp_files/80506.got.cif
#   From: 2010.05.17/outbox.cif.g08.bks.cpg/sg15_41_cif.got.tgz:80506.got - 2010.06.03 18:47:42.
