data_PCOD9256571
_publ_section_title
;
Structure prediction by ZEFSAII (Michael W. Deem and Ramdas Pophale) SiO2 
 PCOD9256571
Probable space group: C 2/C
;
_chemical_formula_sum "Si O2"
_cell_formula_units_Z 56
_cell_length_a 25.121376
_cell_length_b 22.643332
_cell_length_c 20.206865
_cell_angle_alpha 90.000000
_cell_angle_beta 161.924710
_cell_angle_gamma 90.000000
_cell_volume 3566.297295
_symmetry_space_group_name_H-M "C 2/C"
_symmetry_group_IT_number 15
_symmetry_cell_setting 'monoclinic'
loop_
_space_group_symop_operation_xyz
x,y,z
-x,y,1/2-z
-x,-y,-z
x,-y,1/2+z
1/2+x,1/2+y,z
1/2-x,1/2+y,1/2-z
1/2-x,1/2-y,-z
1/2+x,1/2-y,1/2+z
loop_
_atom_site_type_symbol
_atom_site_label
_atom_site_fract_x
_atom_site_fract_y
_atom_site_fract_z
Si Si1 0.231025 0.030374 0.397787
Si Si2 0.414014 0.064915 0.892679
Si Si3 0.938695 0.099267 0.813087
Si Si4 0.397502 0.969626 0.230739
Si Si5 0.956683 0.064915 0.978018
Si Si6 0.189911 0.599267 0.315519
Si Si7 0.814223 0.316121 0.564223
O O1 0.407440 0.026929 0.564880
O O2 0.280048 0.048454 0.530048
O O3 0.098140 0.072316 0.202279
O O4 0.150159 0.964564 0.304332
O O5 0.389864 0.072317 0.785726
O O6 0.231460 0.064656 0.712920
O O7 0.545973 0.105865 0.088445
O O8 0.500000 0.000000 0.000000
O O9 0.818427 0.148530 0.639003
O O10 0.961028 0.105865 0.918555
O O11 0.123216 0.099073 0.996431
O O12 0.341813 0.035436 0.187639
O O13 0.000000 0.000000 0.000000
O O14 0.177276 0.648530 0.356700
O O15 0.750000 0.250000 0.500000
O O16 0.000000 0.316405 0.750000
#
# Coordination Sequence:
#
# PCOD9256571 Si02
#       7
#     8   8   8   8   8   8   8
#     4  10  18  28  44  66  94 125 157 192 230 277
#     4  10  18  28  43  63  89 120 155 191 229 277
#     4  11  20  32  48  65  89 121 156 193 236 278
#     4  10  18  28  44  66  94 125 157 192 230 277
#     4  10  18  28  43  63  89 120 155 191 229 277
#     4  11  20  32  48  65  89 121 156 193 236 278
#     4  12  24  38  52  70  92 120 160 200 239 278
#
# _framework density 15.70256
#
# number of rings (size 3 to 8) (size 9 to 14) (size 15 to 20)
#    0.000    1.429    1.429   10.714    0.000    1.714 
#    0.000    0.000    0.000    0.000    0.000    0.000 
#    0.000    1.143    0.000    4.286    0.000    6.571 
#
# Total GULP energy -156234.993582 kJ/mol
# GULP energy per Si atom -5579.821199 kJ/mol
# Density = 1.566682 g / cm^3
# Si number density = 15.702560 Si / 1000 Ang^3
#
#
#
# Elastic Constant Matrix: (Units=GPa)
#
#
# Indices 1 2 3 4 5 6 
#
# 1 157.1466 43.1599 91.4876 0.0000 -7.6300 0.0000
# 2 43.1599 51.1345 38.6564 0.0000 -10.6315 0.0000
# 3 91.4876 38.6564 152.8679 0.0000 -2.4700 0.0000
# 4 0.0000 0.0000 0.0000 15.8170 0.0000 1.9553
# 5 -7.6300 -10.6315 -2.4700 0.0000 43.3948 0.0000
# 6 0.0000 0.0000 0.0000 1.9553 0.0000 14.9888
#
#
#
# Elastic Compliance Matrix: (Units=1/GPa)
#
#
# Indices 1 2 3 4 5 6 
#
# 1 0.010793 -0.005142 -0.005153 0.000000 0.000345 0.000000
# 2 -0.005142 0.028058 -0.003925 0.000000 0.005747 0.000000
# 3 -0.005153 -0.003925 0.010598 0.000000 -0.001264 0.000000
# 4 0.000000 0.000000 0.000000 0.064259 0.000000 -0.008383
# 5 0.000345 0.005747 -0.001264 0.000000 0.024441 0.000000
# 6 0.000000 0.000000 0.000000 -0.008383 0.000000 0.067810
#
#
# Mechanical properties :
#
#
# Convention : Reuss Voigt Hill
#
# Bulk Modulus (GPa) = 47.60056 78.63964 63.12010
# Shear Modulus (GPa) = 20.71233 27.36313 24.03773
#
# Velocity S-wave (km/s) = 3.63580 4.17896 3.91681
# Velocity P-wave (km/s) = 6.92857 8.57173 7.79357
#
# Compressibility (1/GPa) = 0.02100815
#
# Stress axis : x y z
#
# Youngs Moduli (GPa) = 92.65632 35.63991 94.35948
#
# Poissons Ratio (x) = 0.18326 0.48625
# Poissons Ratio (y) = 0.47645 0.37036
# Poissons Ratio (z) = 0.47748 0.13989
#
# Static dielectric constant tensor:
#      x y z
#    x 1.565380 0.000000 -0.036240 
#    y 0.000000 1.494940 0.000000 
#    z -0.036240 0.000000 1.550020 
# 
# From -- ./inp_files/216911.got.cif
#   From: 2010.05.17/outbox.cif.g08.bks.cpg/sg15_109_cif.got.tgz:216911.got - 2010.06.03 18:47:42.
