data_PCOD9256549
_publ_section_title
;
Structure prediction by ZEFSAII (Michael W. Deem and Ramdas Pophale) SiO2 
 PCOD9256549
Probable space group: C 2/C
;
_chemical_formula_sum "Si O2"
_cell_formula_units_Z 40
_cell_length_a 10.109882
_cell_length_b 11.388743
_cell_length_c 12.196368
_cell_angle_alpha 90.000000
_cell_angle_beta 83.263421
_cell_angle_gamma 90.000000
_cell_volume 1394.580586
_symmetry_space_group_name_H-M "C 2/C"
_symmetry_group_IT_number 15
_symmetry_cell_setting 'monoclinic'
loop_
_space_group_symop_operation_xyz
x,y,z
-x,y,1/2-z
-x,-y,-z
x,-y,1/2+z
1/2+x,1/2+y,z
1/2-x,1/2+y,1/2-z
1/2-x,1/2-y,-z
1/2+x,1/2-y,1/2+z
loop_
_atom_site_type_symbol
_atom_site_label
_atom_site_fract_x
_atom_site_fract_y
_atom_site_fract_z
Si Si1 0.509433 0.676015 0.415377
Si Si2 0.755465 0.584418 0.132627
Si Si3 0.375720 0.100531 0.888336
Si Si4 0.230221 0.613231 0.024135
Si Si5 0.389058 0.304717 0.172974
O O1 0.398021 0.618258 0.350254
O O2 0.501544 0.812525 0.374684
O O3 0.642192 0.598626 0.408181
O O4 0.461940 0.677079 0.547852
O O5 0.760264 0.449995 0.094659
O O6 0.842154 0.668856 0.200580
O O7 0.808036 0.633848 0.010178
O O8 0.254672 0.129595 0.818546
O O9 0.390095 0.960062 0.905951
O O10 0.250000 0.750000 0.000000
O O11 0.500000 0.338511 0.250000
#
# Coordination Sequence:
#
# PCOD9256549 Si02
#       5
#     8   8   8   8   8
#     4   9  15  30  51  70  88 122 164 205 240 271
#     4   7  15  29  45  70  90 111 162 199 231 285
#     4   7  16  29  45  73  92 109 169 205 226 286
#     4  10  18  27  49  73  96 124 157 207 252 284
#     4   9  15  28  52  69  91 121 159 201 238 290
#
# _framework density 28.682456999999999
#
# number of rings (size 3 to 8) (size 9 to 14) (size 15 to 20)
#    1.200    2.400    0.000    3.000    0.000    0.800 
#    0.000    0.000    4.400    1.200    0.000    0.000 
#    0.000    0.000    0.000    0.000    0.000    0.000 
#
# Total GULP energy -111339.198030 kJ/mol
# GULP energy per Si atom -5566.959902 kJ/mol
# Density = 2.861717 g / cm^3
# Si number density = 28.682457 Si / 1000 Ang^3
#
#
#
# Elastic Constant Matrix: (Units=GPa)
#
#
# Indices 1 2 3 4 5 6 
#
# 1 98.3865 27.2555 17.2527 0.0000 10.4561 0.0000
# 2 27.2555 230.0599 9.4583 0.0000 8.8814 0.0000
# 3 17.2527 9.4583 104.0533 0.0000 5.0903 0.0000
# 4 0.0000 0.0000 0.0000 -3.3769 0.0000 21.0360
# 5 10.4561 8.8814 5.0903 0.0000 40.1122 0.0000
# 6 0.0000 0.0000 0.0000 21.0360 0.0000 23.7577
#
#
#
# Elastic Compliance Matrix: (Units=1/GPa)
#
#
# Indices 1 2 3 4 5 6 
#
# 1 0.011020 -0.001146 -0.001605 0.000000 -0.002415 0.000000
# 2 -0.001146 0.004516 -0.000187 0.000000 -0.000677 0.000000
# 3 -0.001605 -0.000187 0.009933 0.000000 -0.000801 0.000000
# 4 0.000000 0.000000 0.000000 -0.045448 0.000000 0.040242
# 5 -0.002415 -0.000677 -0.000801 0.000000 0.025811 0.000000
# 6 0.000000 0.000000 0.000000 0.040242 0.000000 0.006460
#
#
# Mechanical properties :
#
#
# Convention : Reuss Voigt Hill
#
# Bulk Modulus (GPa) = 51.04154 60.04806 55.54480
# Shear Modulus (GPa) = 202.43701 37.33416 119.88558
#
# Velocity S-wave (km/s) = 8.41023 3.61174 6.47211
# Velocity P-wave (km/s) = 10.58977 6.19466 8.67517
#
# Compressibility (1/GPa) = 0.01959189
#
# Stress axis : x y z
#
# Youngs Moduli (GPa) = 90.74731 221.41773 100.67713
#
# Poissons Ratio (x) = 0.25381 0.16157
# Poissons Ratio (y) = 0.10402 0.01886
# Poissons Ratio (z) = 0.14563 0.04148
#
# Static dielectric constant tensor:
#      x y z
#    x 2.293990 0.000000 0.063650 
#    y 0.000000 2.458270 0.000000 
#    z 0.063650 0.000000 2.262630 
# 
# From -- ./inp_files/203321.got.cif
#   From: 2010.05.17/outbox.cif.g08.bks.cpg/sg15_102_cif.got.tgz:203321.got - 2010.06.03 18:47:42.
