data_PCOD9256731
_publ_section_title
;
Structure prediction by ZEFSAII (Michael W. Deem and Ramdas Pophale) SiO2 
 PCOD9256731
Probable space group: C 2/C
;
_chemical_formula_sum "Si O2"
_cell_formula_units_Z 56
_cell_length_a 15.166914
_cell_length_b 19.496467
_cell_length_c 17.059922
_cell_angle_alpha 90.000000
_cell_angle_beta 42.108031
_cell_angle_gamma 90.000000
_cell_volume 3382.585593
_symmetry_space_group_name_H-M "C 2/C"
_symmetry_group_IT_number 15
_symmetry_cell_setting 'monoclinic'
loop_
_space_group_symop_operation_xyz
x,y,z
-x,y,1/2-z
-x,-y,-z
x,-y,1/2+z
1/2+x,1/2+y,z
1/2-x,1/2+y,1/2-z
1/2-x,1/2-y,-z
1/2+x,1/2-y,1/2+z
loop_
_atom_site_type_symbol
_atom_site_label
_atom_site_fract_x
_atom_site_fract_y
_atom_site_fract_z
Si Si1 0.533745 0.386619 0.951985
Si Si2 0.795899 0.620049 0.180861
Si Si3 0.163224 0.995218 0.972570
Si Si4 0.186596 0.454414 0.989672
Si Si5 0.867109 0.755289 0.040892
Si Si6 0.622808 0.820194 0.120398
Si Si7 0.568247 0.971082 0.786084
O O1 0.654414 0.371007 0.814182
O O2 0.595185 0.425393 0.987058
O O3 0.437133 0.442907 0.976822
O O4 0.452736 0.317123 0.018665
O O5 0.785398 0.563457 0.118396
O O6 0.850438 0.689821 0.107407
O O7 0.892889 0.590284 0.182504
O O8 0.294027 0.005341 0.832110
O O9 0.215155 0.996106 0.027550
O O10 0.196325 0.382554 0.029832
O O11 0.037846 0.481068 0.100532
O O12 0.722951 0.782315 0.111733
O O13 0.922881 0.729601 0.919829
O O14 0.500000 0.846918 0.250000
O O15 0.500000 0.948664 0.750000
#
# Coordination Sequence:
#
# PCOD9256731 Si02
#       7
#     8   8   8   8   8   8   8
#     4  10  19  34  50  73 105 140 174 202 250 312
#     4  10  21  33  51  80 102 136 165 211 258 299
#     4   9  18  32  52  75  99 138 169 207 253 298
#     4  10  18  31  52  79 102 128 166 213 257 300
#     4  10  20  31  46  73 103 138 169 205 252 306
#     4  10  18  29  45  71 104 133 166 205 259 306
#     4   9  18  34  56  77 101 131 170 210 255 304
#
# _framework density 16.555384
#
# number of rings (size 3 to 8) (size 9 to 14) (size 15 to 20)
#    0.000    2.286    1.429    2.571    0.000    0.571 
#    0.000    0.000    0.000    7.714    0.000    0.000 
#    0.000    0.000    0.000    0.000    0.000    0.000 
#
# Total GULP energy -156022.946017 kJ/mol
# GULP energy per Si atom -5572.248072 kJ/mol
# Density = 1.651770 g / cm^3
# Si number density = 16.555384 Si / 1000 Ang^3
#
#
#
# Elastic Constant Matrix: (Units=GPa)
#
#
# Indices 1 2 3 4 5 6 
#
# 1 66.1324 43.2210 30.9366 0.0000 0.3511 0.0000
# 2 43.2210 80.1351 30.9256 0.0000 -1.3330 0.0000
# 3 30.9366 30.9256 49.1167 0.0001 2.9015 0.0000
# 4 0.0000 0.0000 0.0001 25.4755 0.0000 -2.7026
# 5 0.3511 -1.3330 2.9015 0.0000 17.3469 0.0000
# 6 0.0000 0.0000 0.0000 -2.7026 0.0000 31.1860
#
#
#
# Elastic Compliance Matrix: (Units=1/GPa)
#
#
# Indices 1 2 3 4 5 6 
#
# 1 0.026773 -0.010459 -0.010300 0.000000 0.000377 0.000000
# 2 -0.010459 0.020730 -0.006637 0.000000 0.002915 0.000000
# 3 -0.010300 -0.006637 0.031354 0.000000 -0.005546 0.000000
# 4 0.000000 0.000000 0.000000 0.039618 0.000000 0.003433
# 5 0.000377 0.002915 -0.005546 0.000000 0.058791 0.000000
# 6 0.000000 0.000000 0.000000 0.003433 0.000000 0.032363
#
#
# Mechanical properties :
#
#
# Convention : Reuss Voigt Hill
#
# Bulk Modulus (GPa) = 41.55450 45.06118 43.30784
# Shear Modulus (GPa) = 18.35257 20.82174 19.58716
#
# Velocity S-wave (km/s) = 3.33311 3.55026 3.44340
# Velocity P-wave (km/s) = 6.32199 6.63953 6.48270
#
# Compressibility (1/GPa) = 0.02406478
#
# Stress axis : x y z
#
# Youngs Moduli (GPa) = 37.35114 48.24029 31.89409
#
# Poissons Ratio (x) = 0.50453 0.32852
# Poissons Ratio (y) = 0.39064 0.21167
# Poissons Ratio (z) = 0.38473 0.32016
#
# Static dielectric constant tensor:
#      x y z
#    x 1.567150 0.000000 -0.003130 
#    y 0.000000 1.567760 0.000000 
#    z -0.003130 0.000000 1.563000 
# 
# From -- ./inp_files/98396.got.cif
#   From: 2010.05.17/outbox.cif.g08.bks.cpg/sg15_50_cif.got.tgz:98396.got - 2010.06.03 18:47:42.
