data_PCOD9256645
_publ_section_title
;
Structure prediction by ZEFSAII (Michael W. Deem and Ramdas Pophale) SiO2 
 PCOD9256645
Probable space group: C 2/C
;
_chemical_formula_sum "Si O2"
_cell_formula_units_Z 64
_cell_length_a 17.238396
_cell_length_b 18.759266
_cell_length_c 13.139672
_cell_angle_alpha 90.000000
_cell_angle_beta 116.252264
_cell_angle_gamma 90.000000
_cell_volume 3810.830044
_symmetry_space_group_name_H-M "C 2/C"
_symmetry_group_IT_number 15
_symmetry_cell_setting 'monoclinic'
loop_
_space_group_symop_operation_xyz
x,y,z
-x,y,1/2-z
-x,-y,-z
x,-y,1/2+z
1/2+x,1/2+y,z
1/2-x,1/2+y,1/2-z
1/2-x,1/2-y,-z
1/2+x,1/2-y,1/2+z
loop_
_atom_site_type_symbol
_atom_site_label
_atom_site_fract_x
_atom_site_fract_y
_atom_site_fract_z
Si Si1 0.974258 0.556145 0.849945
Si Si2 0.601604 0.705520 0.316692
Si Si3 0.068263 0.597834 0.101394
Si Si4 0.178006 0.341252 0.241619
Si Si5 0.502770 0.746803 0.631057
Si Si6 0.809521 0.238977 0.437160
Si Si7 0.749625 0.848051 0.718367
Si Si8 0.344583 0.705092 0.917520
O O1 0.972368 0.472192 0.871641
O O2 0.879958 0.590197 0.808387
O O3 0.000000 0.569610 0.750000
O O4 0.038147 0.594547 0.966564
O O5 0.500000 0.691803 0.250000
O O6 0.623807 0.780919 0.273432
O O7 0.661900 0.647357 0.294117
O O8 0.627593 0.707929 0.449769
O O9 0.031449 0.670649 0.128797
O O10 0.172353 0.595604 0.171191
O O11 0.197054 0.305634 0.143628
O O12 0.268904 0.351589 0.351613
O O13 0.500000 0.733232 0.750000
O O14 0.408749 0.733303 0.528808
O O15 0.574143 0.701168 0.611108
O O16 0.750000 0.250000 0.500000
O O17 0.775859 0.173759 0.348023
O O18 0.702424 0.779515 0.638933
#
# Coordination Sequence:
#
# PCOD9256645 Si02
#       8
#     8   8   8   8   8   8   8   8
#     4  11  23  34  55  73 104 140 176 207 251 301
#     4  10  18  28  49  78 104 127 160 206 265 305
#     4  10  22  38  48  76 103 140 175 208 249 303
#     4  10  19  31  47  75 102 134 168 208 250 307
#     4  11  19  32  52  72 108 137 169 212 252 308
#     4  10  18  31  48  73  99 138 171 205 261 306
#     4   9  19  31  48  69 103 132 165 210 254 304
#     4   9  18  29  47  74 100 133 165 203 261 302
#
# _framework density 16.794242000000001
#
# number of rings (size 3 to 8) (size 9 to 14) (size 15 to 20)
#    0.000    2.250    1.250    6.000    7.000    0.000 
#    0.000    0.000    0.000    0.000    0.000    6.125 
#    0.000    0.000    0.000    0.000    0.000    0.000 
#
# Total GULP energy -178336.460775 kJ/mol
# GULP energy per Si atom -5573.014399 kJ/mol
# Density = 1.675602 g / cm^3
# Si number density = 16.794242 Si / 1000 Ang^3
#
#
#
# Elastic Constant Matrix: (Units=GPa)
#
#
# Indices 1 2 3 4 5 6 
#
# 1 127.6697 6.6382 58.6496 0.0000 4.1019 0.0000
# 2 6.6382 18.6274 10.6266 0.0000 0.9553 0.0000
# 3 58.6496 10.6266 135.1389 0.0000 -5.3328 0.0000
# 4 0.0000 0.0000 0.0000 10.0172 0.0000 5.4414
# 5 4.1019 0.9553 -5.3328 0.0000 42.8112 0.0000
# 6 0.0000 0.0000 0.0000 5.4414 0.0000 14.3349
#
#
#
# Elastic Compliance Matrix: (Units=1/GPa)
#
#
# Indices 1 2 3 4 5 6 
#
# 1 0.009895 -0.001014 -0.004272 0.000000 -0.001458 0.000000
# 2 -0.001014 0.056450 -0.004065 0.000000 -0.001669 0.000000
# 3 -0.004272 -0.004065 0.009641 0.000000 0.001701 0.000000
# 4 0.000000 0.000000 0.000000 0.125760 0.000000 -0.047737
# 5 -0.001458 -0.001669 0.001701 0.000000 0.023747 0.000000
# 6 0.000000 0.000000 0.000000 -0.047737 0.000000 0.087881
#
#
# Mechanical properties :
#
#
# Convention : Reuss Voigt Hill
#
# Bulk Modulus (GPa) = 17.45699 48.14054 32.79876
# Shear Modulus (GPa) = 14.23815 27.13409 20.68612
#
# Velocity S-wave (km/s) = 2.91486 4.02391 3.51342
# Velocity P-wave (km/s) = 4.66323 7.09340 6.00258
#
# Compressibility (1/GPa) = 0.05728366
#
# Stress axis : x y z
#
# Youngs Moduli (GPa) = 101.06320 17.71475 103.72813
#
# Poissons Ratio (x) = 0.01797 0.44313
# Poissons Ratio (y) = 0.10251 0.42161
# Poissons Ratio (z) = 0.43175 0.07200
#
# Static dielectric constant tensor:
#      x y z
#    x 1.601800 0.000000 0.014950 
#    y 0.000000 1.570060 0.000000 
#    z 0.014950 0.000000 1.577260 
# 
# From -- ./inp_files/107319.got.cif
#   From: 2010.05.17/outbox.cif.g08.bks.cpg/sg15_54_cif.got.tgz:107319.got - 2010.06.03 18:47:42.
