data_PCOD9256786
_publ_section_title
;
Structure prediction by ZEFSAII (Michael W. Deem and Ramdas Pophale) SiO2 
 PCOD9256786
Probable space group: C 2/C
;
_chemical_formula_sum "Si O2"
_cell_formula_units_Z 44
_cell_length_a 11.507436
_cell_length_b 26.998792
_cell_length_c 10.967124
_cell_angle_alpha 90.000000
_cell_angle_beta 142.792044
_cell_angle_gamma 90.000000
_cell_volume 2060.452467
_symmetry_space_group_name_H-M "C 2/C"
_symmetry_group_IT_number 15
_symmetry_cell_setting 'monoclinic'
loop_
_space_group_symop_operation_xyz
x,y,z
-x,y,1/2-z
-x,-y,-z
x,-y,1/2+z
1/2+x,1/2+y,z
1/2-x,1/2+y,1/2-z
1/2-x,1/2-y,-z
1/2+x,1/2-y,1/2+z
loop_
_atom_site_type_symbol
_atom_site_label
_atom_site_fract_x
_atom_site_fract_y
_atom_site_fract_z
Si Si1 0.500000 0.049447 0.750000
Si Si2 0.200529 0.807238 0.082449
Si Si3 0.436450 0.455282 0.576344
Si Si4 0.879838 0.061255 0.764273
Si Si5 0.461915 0.117045 0.945916
Si Si6 0.743046 0.306356 0.833882
O O1 0.288326 0.026591 0.602491
O O2 0.540021 0.082716 0.902341
O O3 0.309017 0.845620 0.257472
O O4 0.223724 0.752150 0.156748
O O5 0.283141 0.810813 0.013436
O O6 0.976439 0.816323 0.878985
O O7 0.500000 0.425632 0.750000
O O8 0.581609 0.501979 0.700126
O O9 0.451842 0.427036 0.461713
O O10 0.661880 0.080473 0.572448
O O11 0.000000 0.080412 0.750000
O O12 0.626134 0.154114 0.127260
#
# Coordination Sequence:
#
# PCOD9256786 Si02
#       6
#     4   8   8   8   8   8
#     4  10  20  32  56  88 118 148 190 248 300 346
#     4  10  18  29  49  79 114 145 182 236 300 342
#     4   9  19  39  63  85 113 153 197 250 300 342
#     4   9  20  39  59  82 120 161 193 241 294 348
#     4  11  19  33  52  82 117 148 193 236 290 348
#     4  10  18  29  50  79 115 147 182 238 298 342
#
# _framework density 21.354531000000001
#
# number of rings (size 3 to 8) (size 9 to 14) (size 15 to 20)
#    0.000    2.182    3.636    0.000    0.000    2.909 
#    0.000   26.364    0.000    1.091    0.000    0.000 
#    0.000    0.000    0.000    0.000    0.000    0.000 
#
# Total GULP energy -122613.081471 kJ/mol
# GULP energy per Si atom -5573.321885 kJ/mol
# Density = 2.130593 g / cm^3
# Si number density = 21.354531 Si / 1000 Ang^3
#
#
#
# Elastic Constant Matrix: (Units=GPa)
#
#
# Indices 1 2 3 4 5 6 
#
# 1 116.4947 27.2885 20.7188 0.0000 11.2566 0.0000
# 2 27.2885 84.4674 10.8509 0.0000 28.5030 0.0000
# 3 20.7188 10.8509 68.8532 0.0000 10.6350 0.0000
# 4 0.0000 0.0000 0.0000 21.0986 0.0000 24.6211
# 5 11.2566 28.5030 10.6350 0.0000 34.7893 0.0000
# 6 0.0000 0.0000 0.0000 24.6211 0.0000 23.6709
#
#
#
# Elastic Compliance Matrix: (Units=1/GPa)
#
#
# Indices 1 2 3 4 5 6 
#
# 1 0.009682 -0.002776 -0.002460 0.000000 -0.000106 0.000000
# 2 -0.002776 0.017177 0.000171 0.000000 -0.013228 0.000000
# 3 -0.002460 0.000171 0.015886 0.000000 -0.004201 0.000000
# 4 0.000000 0.000000 0.000000 -0.221685 0.000000 0.230584
# 5 -0.000106 -0.013228 -0.004201 0.000000 0.040900 0.000000
# 6 0.000000 0.000000 0.000000 0.230584 0.000000 -0.197594
#
#
# Mechanical properties :
#
#
# Convention : Reuss Voigt Hill
#
# Bulk Modulus (GPa) = 30.65923 43.05908 36.85915
# Shear Modulus (GPa) = -15.89153 29.97556 7.04201
#
# Velocity S-wave (km/s) = -2.73092 3.75068 1.81792
# Velocity P-wave (km/s) = 2.10820 6.24215 4.65881
#
# Compressibility (1/GPa) = 0.03261660
#
# Stress axis : x y z
#
# Youngs Moduli (GPa) = 103.28360 58.21641 62.95016
#
# Poissons Ratio (x) = 0.16161 0.15483
# Poissons Ratio (y) = 0.28672 -0.01079
# Poissons Ratio (z) = 0.25403 -0.00998
#
# Static dielectric constant tensor:
#      x y z
#    x 1.872970 0.000000 0.004190 
#    y 0.000000 1.807940 0.000000 
#    z 0.004190 0.000000 1.804290 
# 
# From -- ./inp_files/92161.got.cif
#   From: 2010.05.17/outbox.cif.g08.bks.cpg/sg15_47_cif.got.tgz:92161.got - 2010.06.03 18:47:42.
