data_PCOD9256844
_publ_section_title
;
Structure prediction by ZEFSAII (Michael W. Deem and Ramdas Pophale) SiO2 
 PCOD9256844
Probable space group: C 2/C
;
_chemical_formula_sum "Si O2"
_cell_formula_units_Z 64
_cell_length_a 17.141824
_cell_length_b 5.755621
_cell_length_c 21.275412
_cell_angle_alpha 90.000000
_cell_angle_beta 88.396450
_cell_angle_gamma 90.000000
_cell_volume 2098.249310
_symmetry_space_group_name_H-M "C 2/C"
_symmetry_group_IT_number 15
_symmetry_cell_setting 'monoclinic'
loop_
_space_group_symop_operation_xyz
x,y,z
-x,y,1/2-z
-x,-y,-z
x,-y,1/2+z
1/2+x,1/2+y,z
1/2-x,1/2+y,1/2-z
1/2-x,1/2-y,-z
1/2+x,1/2-y,1/2+z
loop_
_atom_site_type_symbol
_atom_site_label
_atom_site_fract_x
_atom_site_fract_y
_atom_site_fract_z
Si Si1 0.699902 0.047358 0.602037
Si Si2 0.095170 0.048228 0.699775
Si Si3 0.529605 0.830565 0.136603
Si Si4 0.570263 0.744846 0.481950
Si Si5 0.241608 0.942619 0.109162
Si Si6 0.573323 0.230552 0.322770
Si Si7 0.720237 0.073392 0.751733
Si Si8 0.903962 0.753935 0.041466
O O1 0.605364 0.065881 0.598248
O O2 0.736576 0.296627 0.579657
O O3 0.706636 0.031444 0.677253
O O4 0.741788 0.812107 0.576487
O O5 0.154620 0.078105 0.642103
O O6 0.119318 0.209554 0.758253
O O7 0.008780 0.136301 0.683170
O O8 0.071326 0.780837 0.696926
O O9 0.480137 0.712160 0.081572
O O10 0.461815 0.979492 0.169013
O O11 0.611911 0.497497 0.493372
O O12 0.498779 0.774778 0.532601
O O13 0.620240 0.983414 0.471396
O O14 0.297707 0.942424 0.170742
O O15 0.613353 0.305259 0.385453
O O16 0.718780 0.354785 0.746129
#
# Coordination Sequence:
#
# PCOD9256844 Si02
#       8
#     8   8   8   8   8   8   8   8
#     4   9  16  25  40  56  77  98 128 163 200 238
#     4  10  19  28  38  57  81 113 136 165 190 237
#     4  10  18  30  41  60  84 106 141 170 206 236
#     4   9  17  28  46  55  75  99 134 173 205 234
#     4   9  16  28  37  54  76 104 133 159 190 235
#     4  10  19  29  39  55  82 111 140 166 191 236
#     4   8  14  24  39  53  71  99 127 158 195 233
#     4   9  17  31  41  58  71 103 138 169 202 231
#
# _framework density 30.501617
#
# number of rings (size 3 to 8) (size 9 to 14) (size 15 to 20)
#    0.000    2.750    2.500    0.000    0.000    2.000 
#    0.000    0.000    0.000    0.000    0.000    0.000 
#    0.000    1.000    0.000    0.000    0.000  146.250 
#
# Total GULP energy -178191.843706 kJ/mol
# GULP energy per Si atom -5568.495116 kJ/mol
# Density = 3.043219 g / cm^3
# Si number density = 30.501617 Si / 1000 Ang^3
#
#
#
# Elastic Constant Matrix: (Units=GPa)
#
#
# Indices 1 2 3 4 5 6 
#
# 1 81.2704 38.3484 3.4729 0.0000 2.1856 0.0000
# 2 38.3484 220.3592 40.8605 0.0000 -3.8573 0.0000
# 3 3.4729 40.8605 116.1121 0.0000 14.9693 0.0000
# 4 0.0000 0.0000 0.0000 41.3202 0.0000 -4.4709
# 5 2.1856 -3.8573 14.9693 0.0000 31.5152 0.0000
# 6 0.0000 0.0000 0.0000 -4.4709 0.0000 50.2968
#
#
#
# Elastic Compliance Matrix: (Units=1/GPa)
#
#
# Indices 1 2 3 4 5 6 
#
# 1 0.013498 -0.002502 0.000679 0.000000 -0.001565 0.000000
# 2 -0.002502 0.005386 -0.002054 0.000000 0.001808 0.000000
# 3 0.000679 -0.002054 0.009963 0.000000 -0.005031 0.000000
# 4 0.000000 0.000000 0.000000 0.024436 0.000000 0.002172
# 5 -0.001565 0.001808 -0.005031 0.000000 0.034450 0.000000
# 6 0.000000 0.000000 0.000000 0.002172 0.000000 0.020075
#
#
# Mechanical properties :
#
#
# Convention : Reuss Voigt Hill
#
# Bulk Modulus (GPa) = 47.40907 64.78947 56.09927
# Shear Modulus (GPa) = 40.78474 46.96378 43.87426
#
# Velocity S-wave (km/s) = 3.66065 3.92818 3.79677
# Velocity P-wave (km/s) = 5.78308 6.47005 6.13619
#
# Compressibility (1/GPa) = 0.02109301
#
# Stress axis : x y z
#
# Youngs Moduli (GPa) = 74.08269 185.66785 100.36798
#
# Poissons Ratio (x) = 0.46460 -0.06811
# Poissons Ratio (y) = 0.18538 0.20612
# Poissons Ratio (z) = -0.05027 0.38129
#
# Static dielectric constant tensor:
#      x y z
#    x 2.667070 0.000000 0.032410 
#    y 0.000000 2.730930 0.000000 
#    z 0.032410 0.000000 2.369680 
# 
# From -- ./inp_files/282874.got.cif
#   From: 2010.05.17/outbox.cif.g08.bks.cpg/sg15_142_cif.got.tgz:282874.got - 2010.06.03 18:47:42.
