data_PCOD9256254
_publ_section_title
;
Structure prediction by ZEFSAII (Michael W. Deem and Ramdas Pophale) SiO2 
 PCOD9256254
Probable space group: C 2/C
;
_chemical_formula_sum "Si O2"
_cell_formula_units_Z 56
_cell_length_a 10.100861
_cell_length_b 11.514586
_cell_length_c 20.924426
_cell_angle_alpha 90.000000
_cell_angle_beta 110.518357
_cell_angle_gamma 90.000000
_cell_volume 2279.270410
_symmetry_space_group_name_H-M "C 2/C"
_symmetry_group_IT_number 15
_symmetry_cell_setting 'monoclinic'
loop_
_space_group_symop_operation_xyz
x,y,z
-x,y,1/2-z
-x,-y,-z
x,-y,1/2+z
1/2+x,1/2+y,z
1/2-x,1/2+y,1/2-z
1/2-x,1/2-y,-z
1/2+x,1/2-y,1/2+z
loop_
_atom_site_type_symbol
_atom_site_label
_atom_site_fract_x
_atom_site_fract_y
_atom_site_fract_z
Si Si1 0.645885 0.359436 0.429302
Si Si2 0.122867 0.024289 0.802734
Si Si3 0.419759 0.273139 0.494738
Si Si4 0.858983 0.731907 0.260616
Si Si5 0.289349 0.018897 0.553464
Si Si6 0.090960 0.407565 0.608375
Si Si7 0.666855 0.670199 0.118463
O O1 0.568183 0.429878 0.361403
O O2 0.538080 0.320199 0.464979
O O3 0.752437 0.442725 0.484744
O O4 0.732063 0.257972 0.406970
O O5 0.272490 0.976583 0.847115
O O6 0.000000 0.949391 0.750000
O O7 0.147762 0.133154 0.759777
O O8 0.279719 0.352906 0.465257
O O9 0.402701 0.145143 0.461800
O O10 0.505944 0.290735 0.575716
O O11 0.890853 0.700453 0.338906
O O12 0.724530 0.678800 0.200425
O O13 0.000000 0.683794 0.250000
O O14 0.453241 0.988080 0.594362
O O15 0.200983 0.955824 0.595407
#
# Coordination Sequence:
#
# PCOD9256254 Si02
#       7
#     8   8   8   8   8   8   8
#     4  10  18  39  66  88 124 170 220 256 326 397
#     4  10  24  42  64  87 121 177 209 252 330 397
#     4  11  21  37  66  95 130 159 218 278 317 387
#     4  10  20  40  65  87 116 164 217 256 317 386
#     4  11  21  36  65 101 120 164 215 271 332 375
#     4  12  23  43  63  93 135 164 210 277 326 388
#     4  10  17  35  63  93 121 166 215 269 323 382
#
# _framework density 24.569265000000001
#
# number of rings (size 3 to 8) (size 9 to 14) (size 15 to 20)
#    0.000    1.429    4.286    4.286    0.000    4.000 
#    2.571    0.714    0.000    0.000    0.000    0.000 
#    0.000    0.000    0.000    0.000    0.000    0.000 
#
# Total GULP energy -156431.824171 kJ/mol
# GULP energy per Si atom -5586.850863 kJ/mol
# Density = 2.451334 g / cm^3
# Si number density = 24.569265 Si / 1000 Ang^3
#
#
#
# Elastic Constant Matrix: (Units=GPa)
#
#
# Indices 1 2 3 4 5 6 
#
# 1 83.0548 27.5182 41.5429 0.0000 27.4030 0.0000
# 2 27.5182 70.0856 32.3207 0.0000 18.3227 0.0000
# 3 41.5429 32.3207 182.1272 0.0000 56.7107 0.0000
# 4 0.0000 0.0000 0.0000 32.7454 0.0000 8.7873
# 5 27.4030 18.3227 56.7107 0.0000 43.4696 0.0000
# 6 0.0000 0.0000 0.0000 8.7873 0.0000 29.3672
#
#
#
# Elastic Compliance Matrix: (Units=1/GPa)
#
#
# Indices 1 2 3 4 5 6 
#
# 1 0.016242 -0.004084 -0.000552 0.000000 -0.007797 0.000000
# 2 -0.004084 0.017233 -0.001122 0.000000 -0.003225 0.000000
# 3 -0.000552 -0.001122 0.009364 0.000000 -0.011395 0.000000
# 4 0.000000 0.000000 0.000000 0.033205 0.000000 -0.009936
# 5 -0.007797 -0.003225 -0.011395 0.000000 0.044145 0.000000
# 6 0.000000 0.000000 0.000000 -0.009936 0.000000 0.037025
#
#
# Mechanical properties :
#
#
# Convention : Reuss Voigt Hill
#
# Bulk Modulus (GPa) = 31.92737 59.78124 45.85430
# Shear Modulus (GPa) = 27.90623 36.70884 32.30753
#
# Velocity S-wave (km/s) = 3.37385 3.86955 3.63017
# Velocity P-wave (km/s) = 5.31038 6.65951 6.02284
#
# Compressibility (1/GPa) = 0.03132109
#
# Stress axis : x y z
#
# Youngs Moduli (GPa) = 61.56802 58.02974 106.79167
#
# Poissons Ratio (x) = 0.23701 0.05897
# Poissons Ratio (y) = 0.25146 0.11987
# Poissons Ratio (z) = 0.03400 0.06513
#
# Static dielectric constant tensor:
#      x y z
#    x 2.093530 0.000000 0.002860 
#    y 0.000000 2.124310 0.000000 
#    z 0.002860 0.000000 1.967820 
# 
# From -- ./inp_files/292300.got.cif
#   From: 2010.05.17/outbox.cif.g08.bks.cpg/sg15_147_cif.got.tgz:292300.got - 2010.06.03 18:47:42.
