data_PCOD9256967
_publ_section_title
;
Structure prediction by ZEFSAII (Michael W. Deem and Ramdas Pophale) SiO2 
 PCOD9256967
Probable space group: C 2/C
;
_chemical_formula_sum "Si O2"
_cell_formula_units_Z 40
_cell_length_a 28.172772
_cell_length_b 9.245393
_cell_length_c 9.212463
_cell_angle_alpha 90.000000
_cell_angle_beta 39.653294
_cell_angle_gamma 90.000000
_cell_volume 1531.253032
_symmetry_space_group_name_H-M "C 2/C"
_symmetry_group_IT_number 15
_symmetry_cell_setting 'monoclinic'
loop_
_space_group_symop_operation_xyz
x,y,z
-x,y,1/2-z
-x,-y,-z
x,-y,1/2+z
1/2+x,1/2+y,z
1/2-x,1/2+y,1/2-z
1/2-x,1/2-y,-z
1/2+x,1/2-y,1/2+z
loop_
_atom_site_type_symbol
_atom_site_label
_atom_site_fract_x
_atom_site_fract_y
_atom_site_fract_z
Si Si1 0.000000 0.248924 0.250000
Si Si2 0.367158 0.446682 0.599058
Si Si3 0.315805 0.797204 0.041987
Si Si4 0.348531 0.768859 0.526605
Si Si5 0.700718 0.050932 0.616496
Si Si6 0.500000 0.500000 0.000000
O O1 0.924058 0.338538 0.409984
O O2 0.995274 0.148407 0.405551
O O3 0.371798 0.327908 0.459336
O O4 0.363969 0.600221 0.524723
O O5 0.288001 0.442102 0.867417
O O6 0.435219 0.431324 0.546904
O O7 0.236159 0.717300 0.213447
O O8 0.308078 0.905698 0.196753
O O9 0.329745 0.899791 0.874294
O O10 0.338577 0.825920 0.387435
#
# Coordination Sequence:
#
# PCOD9256967 Si02
#       6
#     4   8   8   8   8   4
#     4  10  18  30  50  74 100 132 170 212 260 306
#     4   9  18  33  55  79 103 135 179 223 262 307
#     4  10  19  34  53  78 109 140 175 217 262 312
#     4   9  18  33  55  78 102 139 180 218 262 309
#     4  10  19  34  53  77 108 142 175 214 264 315
#     4  10  18  30  50  76 100 128 166 214 262 302
#
# _framework density 26.122398
#
# number of rings (size 3 to 8) (size 9 to 14) (size 15 to 20)
#    0.000    2.400    0.000    4.800    0.000    0.000 
#    0.000   26.000    0.000   15.600    0.000    0.000 
#    0.000    0.000    0.000    0.000    0.000    0.000 
#
# Total GULP energy -111434.429223 kJ/mol
# GULP energy per Si atom -5571.721461 kJ/mol
# Density = 2.606294 g / cm^3
# Si number density = 26.122398 Si / 1000 Ang^3
#
#
#
# Elastic Constant Matrix: (Units=GPa)
#
#
# Indices 1 2 3 4 5 6 
#
# 1 253.1111 70.5942 50.6117 0.0000 -12.2358 0.0000
# 2 70.5942 62.2250 -2.9574 0.0000 -6.5716 0.0000
# 3 50.6117 -2.9574 79.3859 0.0000 2.6118 0.0000
# 4 0.0000 0.0000 0.0000 21.1630 0.0000 11.7535
# 5 -12.2358 -6.5716 2.6118 0.0000 48.3914 0.0000
# 6 0.0000 0.0000 0.0000 11.7535 0.0000 59.9941
#
#
#
# Elastic Compliance Matrix: (Units=1/GPa)
#
#
# Indices 1 2 3 4 5 6 
#
# 1 0.007384 -0.008514 -0.005057 0.000000 0.000984 0.000000
# 2 -0.008514 0.026144 0.006367 0.000000 0.001054 0.000000
# 3 -0.005057 0.006367 0.016100 0.000000 -0.001283 0.000000
# 4 0.000000 0.000000 0.000000 0.053021 0.000000 -0.010387
# 5 0.000984 0.001054 -0.001283 0.000000 0.021126 0.000000
# 6 0.000000 0.000000 0.000000 -0.010387 0.000000 0.018703
#
#
# Mechanical properties :
#
#
# Convention : Reuss Voigt Hill
#
# Bulk Modulus (GPa) = 28.39279 70.13544 49.26412
# Shear Modulus (GPa) = 29.65133 44.34127 36.99630
#
# Velocity S-wave (km/s) = 3.37277 4.12447 3.76742
# Velocity P-wave (km/s) = 5.10491 7.04193 6.15016
#
# Compressibility (1/GPa) = 0.03522021
#
# Stress axis : x y z
#
# Youngs Moduli (GPa) = 135.42448 38.25036 62.11062
#
# Poissons Ratio (x) = 0.32566 0.31411
# Poissons Ratio (y) = 1.15298 -0.39547
# Poissons Ratio (z) = 0.68488 -0.24355
#
# Static dielectric constant tensor:
#      x y z
#    x 2.551360 0.000000 -0.214170 
#    y 0.000000 2.241990 0.000000 
#    z -0.214170 0.000000 2.254620 
# 
# From -- ./inp_files/109699.got.cif
#   From: 2010.05.17/outbox.cif.g08.bks.cpg/sg15_55_cif.got.tgz:109699.got - 2010.06.03 18:47:42.
