data_PCOD9256211
_publ_section_title
;
Structure prediction by ZEFSAII (Michael W. Deem and Ramdas Pophale) SiO2 
 PCOD9256211
Probable space group: C 2/C
;
_chemical_formula_sum "Si O2"
_cell_formula_units_Z 60
_cell_length_a 18.583897
_cell_length_b 12.685768
_cell_length_c 15.878773
_cell_angle_alpha 90.000000
_cell_angle_beta 66.402699
_cell_angle_gamma 90.000000
_cell_volume 3430.416472
_symmetry_space_group_name_H-M "C 2/C"
_symmetry_group_IT_number 15
_symmetry_cell_setting 'monoclinic'
loop_
_space_group_symop_operation_xyz
x,y,z
-x,y,1/2-z
-x,-y,-z
x,-y,1/2+z
1/2+x,1/2+y,z
1/2-x,1/2+y,1/2-z
1/2-x,1/2-y,-z
1/2+x,1/2-y,1/2+z
loop_
_atom_site_type_symbol
_atom_site_label
_atom_site_fract_x
_atom_site_fract_y
_atom_site_fract_z
Si Si1 0.858840 0.288877 0.287501
Si Si2 0.228028 0.039271 0.901024
Si Si3 0.445177 0.072661 0.418693
Si Si4 0.110572 0.594635 0.423196
Si Si5 0.245564 0.868336 0.768336
Si Si6 0.658420 0.720815 0.025589
Si Si7 0.299198 0.831596 0.922864
Si Si8 0.000000 0.582031 0.750000
O O1 0.795891 0.380576 0.339049
O O2 0.816547 0.210027 0.243955
O O3 0.878117 0.226911 0.365014
O O4 0.938525 0.347963 0.226193
O O5 0.205015 0.969495 0.831011
O O6 0.264752 0.951495 0.946386
O O7 0.162519 0.109228 0.976774
O O8 0.531974 0.108086 0.404841
O O9 0.387808 0.163530 0.413537
O O10 0.405080 0.011103 0.515600
O O11 0.454157 0.990734 0.337393
O O12 0.188190 0.595295 0.328953
O O13 0.121954 0.690455 0.483088
O O14 0.289154 0.813131 0.827520
O O15 0.750000 0.750000 0.000000
O O16 0.250000 0.750000 0.000000
#
# Coordination Sequence:
#
# PCOD9256211 Si02
#       8
#     8   8   8   8   8   8   8   4
#     4  11  20  36  61  88 118 154 200 248 301 352
#     4   9  19  37  56  84 115 155 199 244 285 351
#     4  11  22  35  59  92 124 149 191 252 317 345
#     4  11  20  34  59  94 117 154 195 249 304 355
#     4  10  22  34  57  92 113 162 201 238 290 358
#     4  10  17  35  58  82 119 156 200 242 293 359
#     4  10  22  40  55  84 125 159 193 242 299 354
#     4  12  20  38  60  86 128 146 192 266 300 340
#
# _framework density 17.490587999999999
#
# number of rings (size 3 to 8) (size 9 to 14) (size 15 to 20)
#    0.800    0.800    5.333    2.400    0.000    3.200 
#    0.000    0.000    0.000    3.200    0.000    0.000 
#    0.000    0.000    0.000    0.000    0.000    0.000 
#
# Total GULP energy -167108.119505 kJ/mol
# GULP energy per Si atom -5570.270650 kJ/mol
# Density = 1.745078 g / cm^3
# Si number density = 17.490588 Si / 1000 Ang^3
#
#
#
# Elastic Constant Matrix: (Units=GPa)
#
#
# Indices 1 2 3 4 5 6 
#
# 1 86.6020 37.0357 21.7238 0.0000 13.1531 0.0000
# 2 37.0357 78.4667 21.5586 0.0000 6.1565 0.0000
# 3 21.7238 21.5586 63.8910 0.0000 9.3618 0.0000
# 4 0.0000 0.0000 0.0000 38.5397 0.0000 2.4555
# 5 13.1531 6.1565 9.3618 0.0000 24.4319 0.0000
# 6 0.0000 0.0000 0.0000 2.4555 0.0000 40.2168
#
#
#
# Elastic Compliance Matrix: (Units=1/GPa)
#
#
# Indices 1 2 3 4 5 6 
#
# 1 0.015747 -0.006318 -0.002345 0.000000 -0.005987 0.000000
# 2 -0.006318 0.016659 -0.003556 0.000000 0.000566 0.000000
# 3 -0.002345 -0.003556 0.018364 0.000000 -0.004878 0.000000
# 4 0.000000 0.000000 0.000000 0.026049 0.000000 -0.001590
# 5 -0.005987 0.000566 -0.004878 0.000000 0.045880 0.000000
# 6 0.000000 0.000000 0.000000 -0.001590 0.000000 0.024962
#
#
# Mechanical properties :
#
#
# Convention : Reuss Voigt Hill
#
# Bulk Modulus (GPa) = 37.97794 43.28843 40.63318
# Shear Modulus (GPa) = 27.64344 30.54712 29.09528
#
# Velocity S-wave (km/s) = 3.97983 4.18364 4.08301
# Velocity P-wave (km/s) = 6.54822 6.93833 6.74610
#
# Compressibility (1/GPa) = 0.02633108
#
# Stress axis : x y z
#
# Youngs Moduli (GPa) = 63.50581 60.02766 54.45562
#
# Poissons Ratio (x) = 0.37927 0.12769
# Poissons Ratio (y) = 0.40125 0.19364
# Poissons Ratio (z) = 0.14891 0.21345
#
# Static dielectric constant tensor:
#      x y z
#    x 1.599610 0.000000 0.012900 
#    y 0.000000 1.601860 0.000000 
#    z 0.012900 0.000000 1.631150 
# 
# From -- ./inp_files/210273.got.cif
#   From: 2010.05.17/outbox.cif.g08.bks.cpg/sg15_106_cif.got.tgz:210273.got - 2010.06.03 18:47:42.
