data_PCOD9256396
_publ_section_title
;
Structure prediction by ZEFSAII (Michael W. Deem and Ramdas Pophale) SiO2 
 PCOD9256396
Probable space group: C 2/C
;
_chemical_formula_sum "Si O2"
_cell_formula_units_Z 60
_cell_length_a 22.631413
_cell_length_b 8.163386
_cell_length_c 18.515786
_cell_angle_alpha 90.000000
_cell_angle_beta 124.709548
_cell_angle_gamma 90.000000
_cell_volume 2812.042929
_symmetry_space_group_name_H-M "C 2/C"
_symmetry_group_IT_number 15
_symmetry_cell_setting 'monoclinic'
loop_
_space_group_symop_operation_xyz
x,y,z
-x,y,1/2-z
-x,-y,-z
x,-y,1/2+z
1/2+x,1/2+y,z
1/2-x,1/2+y,1/2-z
1/2-x,1/2-y,-z
1/2+x,1/2-y,1/2+z
loop_
_atom_site_type_symbol
_atom_site_label
_atom_site_fract_x
_atom_site_fract_y
_atom_site_fract_z
Si Si1 0.249935 0.339797 0.923919
Si Si2 0.371783 0.171724 0.260324
Si Si3 0.500000 0.860471 0.750000
Si Si4 0.456935 0.147176 0.615081
Si Si5 0.399728 0.629167 0.452182
Si Si6 0.616408 0.225091 0.715916
Si Si7 0.813748 0.698540 0.595567
Si Si8 0.053593 0.764331 0.045267
O O1 0.202898 0.266846 0.825267
O O2 0.331975 0.355580 0.956614
O O3 0.207034 0.509691 0.904970
O O4 0.250000 0.250000 0.000000
O O5 0.433695 0.221901 0.245315
O O6 0.391830 0.239256 0.352088
O O7 0.375147 0.973776 0.277325
O O8 0.467207 0.977879 0.664967
O O9 0.531863 0.245044 0.677453
O O10 0.387497 0.223100 0.603743
O O11 0.444336 0.139480 0.520403
O O12 0.375386 0.688451 0.355192
O O13 0.426720 0.442197 0.472499
O O14 0.472080 0.731665 0.518286
O O15 0.671371 0.281074 0.816380
O O16 0.750000 0.750000 0.500000
#
# Coordination Sequence:
#
# PCOD9256396 Si02
#       8
#     8   8   4   8   8   8   8   8
#     4  11  25  40  58  89 126 160 191 254 309 352
#     4  10  22  39  62  93 114 155 211 247 302 341
#     4  10  18  36  64  86 124 146 208 260 278 364
#     4  10  17  37  62  86 117 152 203 250 292 345
#     4  10  23  42  58  88 132 155 202 240 307 371
#     4   9  20  38  62  85 113 162 199 253 286 347
#     4  11  21  36  59  88 118 154 202 241 304 356
#     4  10  23  39  65  90 119 168 197 249 295 371
#
# _framework density 21.3368
#
# number of rings (size 3 to 8) (size 9 to 14) (size 15 to 20)
#    0.000    1.867    4.000    0.800    1.867   10.133 
#    0.000    0.000    2.933    0.000    0.000    0.000 
#    0.000    0.000    0.000    0.000    0.000    0.000 
#
# Total GULP energy -167310.034434 kJ/mol
# GULP energy per Si atom -5577.001148 kJ/mol
# Density = 2.128824 g / cm^3
# Si number density = 21.336800 Si / 1000 Ang^3
#
#
#
# Elastic Constant Matrix: (Units=GPa)
#
#
# Indices 1 2 3 4 5 6 
#
# 1 115.2910 18.1152 28.3902 0.0000 -1.4286 0.0000
# 2 18.1152 15.5936 13.6603 -0.0001 -8.4602 0.0000
# 3 28.3902 13.6603 157.1634 0.0000 3.4306 0.0000
# 4 0.0000 -0.0001 0.0000 -174.2785 0.0000 52.0993
# 5 -1.4286 -8.4602 3.4306 0.0000 25.2765 0.0000
# 6 0.0000 0.0000 0.0000 52.0993 0.0000 -1.4574
#
#
#
# Elastic Compliance Matrix: (Units=1/GPa)
#
#
# Indices 1 2 3 4 5 6 
#
# 1 0.011066 -0.014547 -0.000644 0.000000 -0.004156 0.000000
# 2 -0.014547 0.107131 -0.007471 0.000000 0.036049 0.000000
# 3 -0.000644 -0.007471 0.007205 0.000000 -0.003515 0.000000
# 4 0.000000 0.000000 0.000000 0.000592 0.000000 0.021176
# 5 -0.004156 0.036049 -0.003515 0.000000 0.051871 0.000000
# 6 0.000000 0.000000 0.000000 0.021176 0.000000 0.070835
#
#
# Mechanical properties :
#
#
# Convention : Reuss Voigt Hill
#
# Bulk Modulus (GPa) = 12.48754 45.37549 28.93151
# Shear Modulus (GPa) = 15.59008 -14.89974 0.34517
#
# Velocity S-wave (km/s) = 2.70602 -2.64543 0.40265
# Velocity P-wave (km/s) = 3.95331 3.46142 3.71551
#
# Compressibility (1/GPa) = 0.08007985
#
# Stress axis : x y z
#
# Youngs Moduli (GPa) = 90.36334 9.33436 138.78870
#
# Poissons Ratio (x) = 0.13578 0.08938
# Poissons Ratio (y) = 1.31449 1.03686
# Poissons Ratio (z) = 0.05819 0.06973
#
# Static dielectric constant tensor:
#      x y z
#    x 1.767270 0.000000 0.023130 
#    y 0.000000 1.902990 0.000000 
#    z 0.023130 0.000000 1.826630 
# 
# From -- ./inp_files/214319.got.cif
#   From: 2010.05.17/outbox.cif.g08.bks.cpg/sg15_108_cif.got.tgz:214319.got - 2010.06.03 18:47:42.
