data_PCOD9256576
_publ_section_title
;
Structure prediction by ZEFSAII (Michael W. Deem and Ramdas Pophale) SiO2 
 PCOD9256576
Probable space group: C 2/C
;
_chemical_formula_sum "Si O2"
_cell_formula_units_Z 48
_cell_length_a 11.282199
_cell_length_b 8.946960
_cell_length_c 18.319895
_cell_angle_alpha 90.000000
_cell_angle_beta 111.589184
_cell_angle_gamma 90.000000
_cell_volume 1719.504200
_symmetry_space_group_name_H-M "C 2/C"
_symmetry_group_IT_number 15
_symmetry_cell_setting 'monoclinic'
loop_
_space_group_symop_operation_xyz
x,y,z
-x,y,1/2-z
-x,-y,-z
x,-y,1/2+z
1/2+x,1/2+y,z
1/2-x,1/2+y,1/2-z
1/2-x,1/2-y,-z
1/2+x,1/2-y,1/2+z
loop_
_atom_site_type_symbol
_atom_site_label
_atom_site_fract_x
_atom_site_fract_y
_atom_site_fract_z
Si Si1 0.854787 0.126162 0.498028
Si Si2 0.870946 0.668530 0.333276
Si Si3 0.548235 0.571836 0.834456
Si Si4 0.010988 0.619437 0.839413
Si Si5 0.079777 0.346828 0.504775
Si Si6 0.232719 0.804911 0.664848
O O1 0.750000 0.250000 0.500000
O O2 0.892579 0.019812 0.574129
O O3 0.798660 0.079813 0.406998
O O4 0.982975 0.215295 0.505964
O O5 0.987997 0.557005 0.343878
O O6 0.824013 0.650293 0.404962
O O7 0.771352 0.622132 0.249495
O O8 0.924442 0.832253 0.329914
O O9 0.500000 0.487134 0.750000
O O10 0.655269 0.691217 0.832938
O O11 0.889284 0.704209 0.845665
O O12 0.000000 0.647388 0.750000
O O13 0.113903 0.657087 0.927022
O O14 0.000000 0.500000 0.500000
#
# Coordination Sequence:
#
# PCOD9256576 Si02
#       6
#     8   8   8   8   8   8
#     4   8  13  21  35  59  85 105 128 165 211 252
#     4   9  16  29  47  65  84 108 141 180 214 246
#     4   8  13  23  41  63  83 105 133 172 214 247
#     4  10  18  28  43  65  88 112 141 173 208 252
#     4   8  15  26  41  61  84 107 136 175 212 242
#     4   9  16  25  40  63  87 111 137 171 213 251
#
# _framework density 27.915026000000001
#
# number of rings (size 3 to 8) (size 9 to 14) (size 15 to 20)
#    0.000    3.333    0.000    1.500    0.000    1.333 
#    0.000    0.833    0.000    3.000    0.000   18.667 
#    0.000    0.000    0.000    0.000    0.000    0.000 
#
# Total GULP energy -133858.950970 kJ/mol
# GULP energy per Si atom -5577.456290 kJ/mol
# Density = 2.785149 g / cm^3
# Si number density = 27.915026 Si / 1000 Ang^3
#
#
#
# Elastic Constant Matrix: (Units=GPa)
#
#
# Indices 1 2 3 4 5 6 
#
# 1 71.9923 38.7174 30.4295 0.0000 -28.2990 0.0000
# 2 38.7174 61.6165 15.9254 0.0000 -17.8023 0.0000
# 3 30.4295 15.9254 375.3418 0.0000 -14.6307 0.0000
# 4 0.0000 0.0000 0.0000 8.6606 0.0000 -8.6867
# 5 -28.2990 -17.8023 -14.6307 0.0000 25.2093 0.0000
# 6 0.0000 0.0000 0.0000 -8.6867 0.0000 47.9749
#
#
#
# Elastic Compliance Matrix: (Units=1/GPa)
#
#
# Indices 1 2 3 4 5 6 
#
# 1 0.030595 -0.011573 -0.000992 0.000000 0.025597 0.000000
# 2 -0.011573 0.024803 0.000064 0.000000 0.004561 0.000000
# 3 -0.000992 0.000064 0.002763 0.000000 0.000535 0.000000
# 4 0.000000 0.000000 0.000000 0.141090 0.000000 0.025547
# 5 0.025597 0.004561 0.000535 0.000000 0.071933 0.000000
# 6 0.000000 0.000000 0.000000 0.025547 0.000000 0.025470
#
#
# Mechanical properties :
#
#
# Convention : Reuss Voigt Hill
#
# Bulk Modulus (GPa) = 30.15799 75.45502 52.80650
# Shear Modulus (GPa) = 15.02817 44.62751 29.82784
#
# Velocity S-wave (km/s) = 2.32276 4.00270 3.27237
# Velocity P-wave (km/s) = 4.24507 6.96068 5.76505
#
# Compressibility (1/GPa) = 0.03315871
#
# Stress axis : x y z
#
# Youngs Moduli (GPa) = 32.68488 40.31825 361.95268
#
# Poissons Ratio (x) = 0.46660 0.35891
# Poissons Ratio (y) = 0.37826 -0.02304
# Poissons Ratio (z) = 0.03241 -0.00257
#
# Static dielectric constant tensor:
#      x y z
#    x 2.263290 0.000000 0.064650 
#    y 0.000000 2.107060 0.000000 
#    z 0.064650 0.000000 2.367830 
# 
# From -- ./inp_files/197399.got.cif
#   From: 2010.05.17/outbox.cif.g08.bks.cpg/sg15_99_cif.got.tgz:197399.got - 2010.06.03 18:47:42.
