data_PCOD9256249
_publ_section_title
;
Structure prediction by ZEFSAII (Michael W. Deem and Ramdas Pophale) SiO2 
 PCOD9256249
Probable space group: C 2/C
;
_chemical_formula_sum "Si O2"
_cell_formula_units_Z 64
_cell_length_a 13.521820
_cell_length_b 20.379147
_cell_length_c 9.332669
_cell_angle_alpha 90.000000
_cell_angle_beta 69.448606
_cell_angle_gamma 90.000000
_cell_volume 2408.068250
_symmetry_space_group_name_H-M "C 2/C"
_symmetry_group_IT_number 15
_symmetry_cell_setting 'monoclinic'
loop_
_space_group_symop_operation_xyz
x,y,z
-x,y,1/2-z
-x,-y,-z
x,-y,1/2+z
1/2+x,1/2+y,z
1/2-x,1/2+y,1/2-z
1/2-x,1/2-y,-z
1/2+x,1/2-y,1/2+z
loop_
_atom_site_type_symbol
_atom_site_label
_atom_site_fract_x
_atom_site_fract_y
_atom_site_fract_z
Si Si1 0.716242 0.244810 0.184480
Si Si2 0.597915 0.591736 0.464659
Si Si3 0.729094 0.625826 0.833713
Si Si4 0.956267 0.376671 0.067265
Si Si5 0.158034 0.611795 0.159071
Si Si6 0.324566 0.068715 0.039227
Si Si7 0.548712 0.724296 0.378634
Si Si8 0.635423 0.510932 0.703375
O O1 0.682095 0.310061 0.282204
O O2 0.636056 0.185295 0.227916
O O3 0.825142 0.226878 0.206535
O O4 0.750000 0.250000 0.000000
O O5 0.717837 0.613246 0.446318
O O6 0.533225 0.659288 0.483044
O O7 0.568118 0.541699 0.606682
O O8 0.601937 0.554094 0.309597
O O9 0.847354 0.618239 0.709220
O O10 0.663221 0.564378 0.809973
O O11 0.753335 0.623263 0.991222
O O12 0.944467 0.581433 0.928978
O O13 0.981792 0.298087 0.056038
O O14 0.921277 0.400705 0.927858
O O15 0.158362 0.568474 0.298980
O O16 0.246571 0.007378 0.064163
O O17 0.500000 0.712680 0.250000
#
# Coordination Sequence:
#
# PCOD9256249 Si02
#       8
#     8   8   8   8   8   8   8   8
#     4  10  17  35  63  88 112 157 209 246 298 371
#     4  10  21  39  63  84 118 160 211 253 294 360
#     4  11  20  35  57  82 114 158 209 237 299 360
#     4  11  20  37  60  83 124 163 197 242 306 381
#     4  10  20  36  57  86 118 162 200 252 303 353
#     4  11  24  35  52  89 129 156 195 257 304 351
#     4  10  20  36  63  93 115 154 209 255 304 358
#     4  11  21  39  59  86 118 160 209 248 292 365
#
# _framework density 26.577321000000001
#
# number of rings (size 3 to 8) (size 9 to 14) (size 15 to 20)
#    0.000    1.500    5.000    3.000    0.000    1.000 
#    0.000    3.125    0.000    0.000    0.000    0.000 
#    0.000    0.000    0.000    0.000    0.000    0.000 
#
# Total GULP energy -178833.006077 kJ/mol
# GULP energy per Si atom -5588.531440 kJ/mol
# Density = 2.651683 g / cm^3
# Si number density = 26.577321 Si / 1000 Ang^3
#
#
#
# Elastic Constant Matrix: (Units=GPa)
#
#
# Indices 1 2 3 4 5 6 
#
# 1 108.8504 33.4748 51.2594 0.0000 19.7542 0.0000
# 2 33.4748 111.0853 29.6448 0.0000 5.8772 0.0000
# 3 51.2594 29.6448 114.5921 0.0000 32.6299 0.0000
# 4 0.0000 0.0000 0.0000 38.4090 0.0000 10.6849
# 5 19.7542 5.8772 32.6299 0.0000 52.2604 0.0000
# 6 0.0000 0.0000 0.0000 10.6849 0.0000 12.3059
#
#
#
# Elastic Compliance Matrix: (Units=1/GPa)
#
#
# Indices 1 2 3 4 5 6 
#
# 1 0.012312 -0.002447 -0.004412 0.000000 -0.001624 0.000000
# 2 -0.002447 0.010170 -0.001793 0.000000 0.000901 0.000000
# 3 -0.004412 -0.001793 0.012931 0.000000 -0.006204 0.000000
# 4 0.000000 0.000000 0.000000 0.034327 0.000000 -0.029805
# 5 -0.001624 0.000901 -0.006204 0.000000 0.023521 0.000000
# 6 0.000000 0.000000 0.000000 -0.029805 0.000000 0.107140
#
#
# Mechanical properties :
#
#
# Convention : Reuss Voigt Hill
#
# Bulk Modulus (GPa) = 55.22026 62.58731 58.90378
# Shear Modulus (GPa) = 22.34727 35.27166 28.80946
#
# Velocity S-wave (km/s) = 2.90287 3.64694 3.29597
# Velocity P-wave (km/s) = 5.66197 6.42914 6.05771
#
# Compressibility (1/GPa) = 0.01810930
#
# Stress axis : x y z
#
# Youngs Moduli (GPa) = 81.22342 98.32610 77.33592
#
# Poissons Ratio (x) = 0.24058 0.34120
# Poissons Ratio (y) = 0.19873 0.13866
# Poissons Ratio (z) = 0.35835 0.17630
#
# Static dielectric constant tensor:
#      x y z
#    x 2.161760 0.000000 -0.082300 
#    y 0.000000 2.128190 0.000000 
#    z -0.082300 0.000000 2.090050 
# 
# From -- ./inp_files/50239.got.cif
#   From: 2010.05.17/outbox.cif.g08.bks.cpg/sg15_26_cif.got.tgz:50239.got - 2010.06.03 18:47:42.
