data_PCOD9256876
_publ_section_title
;
Structure prediction by ZEFSAII (Michael W. Deem and Ramdas Pophale) SiO2 
 PCOD9256876
Probable space group: C 2/C
;
_chemical_formula_sum "Si O2"
_cell_formula_units_Z 56
_cell_length_a 19.801271
_cell_length_b 16.644152
_cell_length_c 16.579922
_cell_angle_alpha 90.000000
_cell_angle_beta 154.946100
_cell_angle_gamma 90.000000
_cell_volume 2313.985097
_symmetry_space_group_name_H-M "C 2/C"
_symmetry_group_IT_number 15
_symmetry_cell_setting 'monoclinic'
loop_
_space_group_symop_operation_xyz
x,y,z
-x,y,1/2-z
-x,-y,-z
x,-y,1/2+z
1/2+x,1/2+y,z
1/2-x,1/2+y,1/2-z
1/2-x,1/2-y,-z
1/2+x,1/2-y,1/2+z
loop_
_atom_site_type_symbol
_atom_site_label
_atom_site_fract_x
_atom_site_fract_y
_atom_site_fract_z
Si Si1 0.902315 0.967907 0.972164
Si Si2 0.380681 0.682212 0.769481
Si Si3 0.312793 0.180947 0.624599
Si Si4 0.157405 0.516438 0.826594
Si Si5 0.111498 0.238724 0.538510
Si Si6 0.011969 0.351819 0.876646
Si Si7 0.596543 0.100420 0.066442
O O1 0.729958 0.956630 0.744782
O O2 0.833878 0.008348 0.979748
O O3 0.995588 0.890185 0.106757
O O4 0.000000 0.000000 0.000000
O O5 0.198130 0.655879 0.555945
O O6 0.428444 0.764733 0.775377
O O7 0.398909 0.702557 0.884497
O O8 0.250000 0.250000 0.500000
O O9 0.330772 0.094334 0.601474
O O10 0.189284 0.175296 0.564325
O O11 0.462289 0.221916 0.831118
O O12 0.087032 0.427425 0.767322
O O13 0.022250 0.555534 0.621449
O O14 0.201545 0.323953 0.648095
O O15 0.001823 0.367707 0.962575
#
# Coordination Sequence:
#
# PCOD9256876 Si02
#       7
#     8   8   8   8   8   8   8
#     4  11  18  26  44  72 104 142 181 222 276 350
#     4  11  19  30  51  79 110 147 182 220 286 365
#     4  11  22  36  52  70  98 148 202 246 281 315
#     4  10  20  32  46  67 102 143 190 240 281 326
#     4  10  19  33  50  71 100 137 183 233 278 327
#     4  10  18  30  46  72 107 142 179 218 273 352
#     4   9  17  29  44  65  97 137 176 223 275 329
#
# _framework density 24.200675
#
# number of rings (size 3 to 8) (size 9 to 14) (size 15 to 20)
#    0.000    1.714    0.000   10.714    0.000    0.000 
#    0.000    0.000    0.000    0.000    0.000    0.000 
#    0.000    0.000    0.000  210.857    0.000   69.143 
#
# Total GULP energy -155964.197921 kJ/mol
# GULP energy per Si atom -5570.149926 kJ/mol
# Density = 2.414559 g / cm^3
# Si number density = 24.200675 Si / 1000 Ang^3
#
#
#
# Elastic Constant Matrix: (Units=GPa)
#
#
# Indices 1 2 3 4 5 6 
#
# 1 69.6371 65.2610 19.4561 -0.0002 15.0884 -0.0001
# 2 65.2610 290.6278 55.8911 -0.0005 24.4629 -0.0003
# 3 19.4561 55.8911 67.2436 -0.0011 24.9820 -0.0009
# 4 -0.0002 -0.0005 -0.0011 29.5739 -0.0004 1.4941
# 5 15.0884 24.4629 24.9820 -0.0004 32.3142 -0.0003
# 6 -0.0001 -0.0003 -0.0009 1.4941 -0.0003 20.9900
#
#
#
# Elastic Compliance Matrix: (Units=1/GPa)
#
#
# Indices 1 2 3 4 5 6 
#
# 1 0.019255 -0.003781 -0.000213 0.000000 -0.005964 0.000000
# 2 -0.003781 0.004848 -0.003126 0.000000 0.000512 0.000000
# 3 -0.000213 -0.003126 0.023310 0.000001 -0.015555 0.000001
# 4 0.000000 0.000000 0.000001 0.033936 0.000000 -0.002416
# 5 -0.005964 0.000512 -0.015555 0.000000 0.045369 0.000000
# 6 0.000000 0.000000 0.000001 -0.002416 0.000000 0.047814
#
#
# Mechanical properties :
#
#
# Convention : Reuss Voigt Hill
#
# Bulk Modulus (GPa) = 30.14423 78.74721 54.44572
# Shear Modulus (GPa) = 25.02153 35.70230 30.36192
#
# Velocity S-wave (km/s) = 3.21895 3.84508 3.54586
# Velocity P-wave (km/s) = 5.12821 7.23345 6.26982
#
# Compressibility (1/GPa) = 0.03317385
#
# Stress axis : x y z
#
# Youngs Moduli (GPa) = 51.93425 206.27810 42.90038
#
# Poissons Ratio (x) = 0.77990 0.00914
# Poissons Ratio (y) = 0.19635 0.13409
# Poissons Ratio (z) = 0.01106 0.64474
#
# Static dielectric constant tensor:
#      x y z
#    x 2.167330 0.000000 0.013620 
#    y 0.000000 2.099340 0.000000 
#    z 0.013620 0.000000 1.907890 
# 
# From -- ./inp_files/255929.got.cif
#   From: 2010.05.17/outbox.cif.g08.bks.cpg/sg15_128_cif.got.tgz:255929.got - 2010.06.03 18:47:42.
