data_PCOD9256201
_publ_section_title
;
Structure prediction by ZEFSAII (Michael W. Deem and Ramdas Pophale) SiO2 
 PCOD9256201
Probable space group: C 2/C
;
_chemical_formula_sum "Si O2"
_cell_formula_units_Z 56
_cell_length_a 15.891693
_cell_length_b 14.185856
_cell_length_c 12.772347
_cell_angle_alpha 90.000000
_cell_angle_beta 101.749286
_cell_angle_gamma 90.000000
_cell_volume 2819.034635
_symmetry_space_group_name_H-M "C 2/C"
_symmetry_group_IT_number 15
_symmetry_cell_setting 'monoclinic'
loop_
_space_group_symop_operation_xyz
x,y,z
-x,y,1/2-z
-x,-y,-z
x,-y,1/2+z
1/2+x,1/2+y,z
1/2-x,1/2+y,1/2-z
1/2-x,1/2-y,-z
1/2+x,1/2-y,1/2+z
loop_
_atom_site_type_symbol
_atom_site_label
_atom_site_fract_x
_atom_site_fract_y
_atom_site_fract_z
Si Si1 0.603195 0.856333 0.191490
Si Si2 0.200258 0.549771 0.543598
Si Si3 0.000000 0.002288 0.250000
Si Si4 0.876571 0.108134 0.573434
Si Si5 0.133292 0.143908 0.172910
Si Si6 0.000000 0.610020 0.250000
Si Si7 0.440233 0.054714 0.598624
Si Si8 0.824197 0.691306 0.156636
O O1 0.680484 0.904272 0.149688
O O2 0.606188 0.745979 0.206904
O O3 0.596961 0.905569 0.301959
O O4 0.520295 0.878163 0.097154
O O5 0.300549 0.530112 0.557747
O O6 0.134972 0.465507 0.501086
O O7 0.180640 0.628993 0.450500
O O8 0.921734 0.065736 0.278167
O O9 0.958502 0.934820 0.151416
O O10 0.891098 0.133760 0.456097
O O11 0.836841 0.200740 0.621601
O O12 0.238389 0.156077 0.196202
O O13 0.014770 0.542795 0.353966
O O14 0.087910 0.666793 0.261317
#
# Coordination Sequence:
#
# PCOD9256201 Si02
#       8
#     8   8   4   8   8   4   8   8
#     4  10  17  35  57  82 118 158 197 237 311 367
#     4  10  18  34  60  81 114 151 200 249 303 354
#     4  12  27  39  64  92 126 160 212 261 309 356
#     4  11  22  40  61  88 115 163 210 254 302 369
#     4  11  22  42  63  85 122 172 202 246 311 384
#     4   8  17  31  54  86 118 136 194 257 291 334
#     4   9  20  30  53  90 115 148 195 252 299 359
#     4  10  18  37  61  86 116 156 203 248 300 363
#
# _framework density 19.864955999999999
#
# number of rings (size 3 to 8) (size 9 to 14) (size 15 to 20)
#    0.000    2.000    2.857    3.000    0.000    4.571 
#    0.000    0.000    0.000    1.714    0.000    0.000 
#    0.000    0.000    0.000    0.000    0.000    0.000 
#
# Total GULP energy -155969.442583 kJ/mol
# GULP energy per Si atom -5570.337235 kJ/mol
# Density = 1.981974 g / cm^3
# Si number density = 19.864956 Si / 1000 Ang^3
#
#
#
# Elastic Constant Matrix: (Units=GPa)
#
#
# Indices 1 2 3 4 5 6 
#
# 1 98.1789 40.3414 33.1303 0.0000 4.6723 0.0000
# 2 40.3414 51.3944 18.4185 0.0000 4.7191 0.0000
# 3 33.1303 18.4185 53.7000 0.0000 4.2222 0.0000
# 4 0.0000 0.0000 0.0000 11.4978 0.0000 -3.7093
# 5 4.6723 4.7191 4.2222 0.0000 40.4360 0.0000
# 6 0.0000 0.0000 0.0000 -3.7093 0.0000 29.7792
#
#
#
# Elastic Compliance Matrix: (Units=1/GPa)
#
#
# Indices 1 2 3 4 5 6 
#
# 1 0.016918 -0.010877 -0.006708 0.000000 0.000015 0.000000
# 2 -0.010877 0.029309 -0.003199 0.000000 -0.001830 0.000000
# 3 -0.006708 -0.003199 0.023964 0.000000 -0.001354 0.000000
# 4 0.000000 0.000000 0.000000 0.090615 0.000000 0.011287
# 5 0.000015 -0.001830 -0.001354 0.000000 0.025084 0.000000
# 6 0.000000 0.000000 0.000000 0.011287 0.000000 0.034986
#
#
# Mechanical properties :
#
#
# Convention : Reuss Voigt Hill
#
# Bulk Modulus (GPa) = 34.93509 43.00596 38.97053
# Shear Modulus (GPa) = 18.38352 23.76813 21.07582
#
# Velocity S-wave (km/s) = 3.04538 3.46278 3.26076
# Velocity P-wave (km/s) = 5.47634 6.13872 5.81697
#
# Compressibility (1/GPa) = 0.02862451
#
# Stress axis : x y z
#
# Youngs Moduli (GPa) = 59.11035 34.11908 41.72942
#
# Poissons Ratio (x) = 0.37110 0.27992
# Poissons Ratio (y) = 0.64292 0.13347
# Poissons Ratio (z) = 0.39651 0.10913
#
# Static dielectric constant tensor:
#      x y z
#    x 1.792560 0.000000 0.009270 
#    y 0.000000 1.714550 0.000000 
#    z 0.009270 0.000000 1.695390 
# 
# From -- ./inp_files/153525.got.cif
#   From: 2010.05.17/outbox.cif.g08.bks.cpg/sg15_77_cif.got.tgz:153525.got - 2010.06.03 18:47:42.
