data_PCOD9256387
_publ_section_title
;
Structure prediction by ZEFSAII (Michael W. Deem and Ramdas Pophale) SiO2 
 PCOD9256387
Probable space group: C 2/C
;
_chemical_formula_sum "Si O2"
_cell_formula_units_Z 56
_cell_length_a 21.670128
_cell_length_b 9.622113
_cell_length_c 17.864263
_cell_angle_alpha 90.000000
_cell_angle_beta 142.095290
_cell_angle_gamma 90.000000
_cell_volume 2288.405283
_symmetry_space_group_name_H-M "C 2/C"
_symmetry_group_IT_number 15
_symmetry_cell_setting 'monoclinic'
loop_
_space_group_symop_operation_xyz
x,y,z
-x,y,1/2-z
-x,-y,-z
x,-y,1/2+z
1/2+x,1/2+y,z
1/2-x,1/2+y,1/2-z
1/2-x,1/2-y,-z
1/2+x,1/2-y,1/2+z
loop_
_atom_site_type_symbol
_atom_site_label
_atom_site_fract_x
_atom_site_fract_y
_atom_site_fract_z
Si Si1 0.558197 0.419010 0.375589
Si Si2 0.484347 0.653452 0.949776
Si Si3 0.712560 0.229100 0.783935
Si Si4 0.441980 0.710019 0.063605
Si Si5 0.855001 0.330059 0.124294
Si Si6 0.731045 0.446766 0.293516
Si Si7 0.762299 0.411416 0.496277
O O1 0.500000 0.354405 0.250000
O O2 0.558323 0.326279 0.450296
O O3 0.513445 0.564257 0.362542
O O4 0.660899 0.466847 0.437020
O O5 0.372451 0.642577 0.808269
O O6 0.500000 0.500000 0.000000
O O7 0.489267 0.748985 0.028050
O O8 0.636782 0.215256 0.781515
O O9 0.713877 0.390149 0.759826
O O10 0.699875 0.124396 0.702802
O O11 0.824652 0.190317 0.922999
O O12 0.428301 0.799727 0.124960
O O13 0.750000 0.250000 0.000000
O O14 0.845411 0.496864 0.115729
O O15 0.768269 0.440686 0.414156
O O16 0.750000 0.250000 0.500000
#
# Coordination Sequence:
#
# PCOD9256387 Si02
#       7
#     8   8   8   8   8   8   8
#     4  11  19  34  57  87 118 155 203 249 292 363
#     4   9  20  32  55  86 114 147 199 250 292 346
#     4  10  20  32  56  83 125 142 196 246 303 348
#     4   9  17  34  57  82 111 148 191 245 294 343
#     4  10  17  37  60  80 116 153 192 246 301 349
#     4  11  21  36  54  92 114 157 195 251 301 360
#     4  12  24  36  59  94 120 158 202 251 307 362
#
# _framework density 24.471191000000001
#
# number of rings (size 3 to 8) (size 9 to 14) (size 15 to 20)
#    0.000    1.714    7.143    0.000    2.000    0.000 
#    0.000    0.000    0.000    1.714   11.143    0.000 
#    0.000    0.000    0.000    0.000    0.000    0.000 
#
# Total GULP energy -156211.063502 kJ/mol
# GULP energy per Si atom -5578.966554 kJ/mol
# Density = 2.441549 g / cm^3
# Si number density = 24.471191 Si / 1000 Ang^3
#
#
#
# Elastic Constant Matrix: (Units=GPa)
#
#
# Indices 1 2 3 4 5 6 
#
# 1 186.9576 45.1906 37.6736 0.0000 -62.3638 0.0000
# 2 45.1906 119.9004 17.0543 0.0000 -31.0751 0.0000
# 3 37.6736 17.0543 80.6952 0.0000 -38.7540 0.0000
# 4 0.0000 0.0000 0.0000 22.9831 0.0000 -8.0594
# 5 -62.3638 -31.0751 -38.7540 0.0000 50.7735 0.0000
# 6 0.0000 0.0000 0.0000 -8.0594 0.0000 28.8197
#
#
#
# Elastic Compliance Matrix: (Units=1/GPa)
#
#
# Indices 1 2 3 4 5 6 
#
# 1 0.009251 -0.000530 0.001727 0.000000 0.012356 0.000000
# 2 -0.000530 0.010029 0.001205 0.000000 0.006407 0.000000
# 3 0.001727 0.001205 0.020056 0.000000 0.018167 0.000000
# 4 0.000000 0.000000 0.000000 0.048241 0.000000 0.013491
# 5 0.012356 0.006407 0.018167 0.000000 0.052660 0.000000
# 6 0.000000 0.000000 0.000000 0.013491 0.000000 0.038471
#
#
# Mechanical properties :
#
#
# Convention : Reuss Voigt Hill
#
# Bulk Modulus (GPa) = 22.65487 65.26556 43.96022
# Shear Modulus (GPa) = 26.50876 39.69091 33.09984
#
# Velocity S-wave (km/s) = 3.29487 4.03171 3.68177
# Velocity P-wave (km/s) = 4.87368 6.95709 6.00641
#
# Compressibility (1/GPa) = 0.04414061
#
# Stress axis : x y z
#
# Youngs Moduli (GPa) = 108.10184 99.70981 49.86007
#
# Poissons Ratio (x) = 0.05282 -0.08613
# Poissons Ratio (y) = 0.05727 -0.06007
# Poissons Ratio (z) = -0.18674 -0.12012
#
# Static dielectric constant tensor:
#      x y z
#    x 2.377350 0.000000 0.107900 
#    y 0.000000 2.148570 0.000000 
#    z 0.107900 0.000000 2.052920 
# 
# From -- ./inp_files/218652.got.cif
#   From: 2010.05.17/outbox.cif.g08.bks.cpg/sg15_110_cif.got.tgz:218652.got - 2010.06.03 18:47:42.
