data_PCOD9256983
_publ_section_title
;
Structure prediction by ZEFSAII (Michael W. Deem and Ramdas Pophale) SiO2 
 PCOD9256983
Probable space group: C 2/C
;
_chemical_formula_sum "Si O2"
_cell_formula_units_Z 52
_cell_length_a 24.497171
_cell_length_b 8.947963
_cell_length_c 13.404076
_cell_angle_alpha 90.000000
_cell_angle_beta 117.121900
_cell_angle_gamma 90.000000
_cell_volume 2615.085217
_symmetry_space_group_name_H-M "C 2/C"
_symmetry_group_IT_number 15
_symmetry_cell_setting 'monoclinic'
loop_
_space_group_symop_operation_xyz
x,y,z
-x,y,1/2-z
-x,-y,-z
x,-y,1/2+z
1/2+x,1/2+y,z
1/2-x,1/2+y,1/2-z
1/2-x,1/2-y,-z
1/2+x,1/2-y,1/2+z
loop_
_atom_site_type_symbol
_atom_site_label
_atom_site_fract_x
_atom_site_fract_y
_atom_site_fract_z
Si Si1 0.320210 0.599969 0.731473
Si Si2 0.100704 0.176383 0.435969
Si Si3 0.726292 0.296525 0.736679
Si Si4 0.700198 0.417264 0.511797
Si Si5 0.500000 0.463331 0.250000
Si Si6 0.197643 0.642618 0.907686
Si Si7 0.952585 0.886068 0.411111
O O1 0.275890 0.460678 0.717534
O O2 0.294375 0.735787 0.774662
O O3 0.318684 0.636201 0.613295
O O4 0.387073 0.549616 0.821300
O O5 0.134736 0.314201 0.410394
O O6 0.066814 0.217485 0.511526
O O7 0.154959 0.054896 0.500069
O O8 0.053721 0.078602 0.329267
O O9 0.697412 0.305745 0.602369
O O10 0.692990 0.191752 0.788563
O O11 0.769575 0.482272 0.561831
O O12 0.483296 0.356897 0.329560
O O13 0.250000 0.750000 0.000000
O O14 0.000000 0.000000 0.500000
#
# Coordination Sequence:
#
# PCOD9256983 Si02
#       7
#     8   8   8   8   4   8   8
#     4  12  22  36  56  86 121 148 193 232 289 348
#     4  10  18  30  50  77 109 142 188 231 280 331
#     4  12  21  35  55  83 119 157 182 234 285 343
#     4  11  21  34  52  83 116 152 185 233 284 343
#     4  10  18  32  48  74 110 146 186 238 284 318
#     4  10  18  32  54  75 110 153 183 224 284 338
#     4  10  20  33  53  79 111 145 184 240 284 323
#
# _framework density 19.884629
#
# number of rings (size 3 to 8) (size 9 to 14) (size 15 to 20)
#    0.000    1.231    7.692    1.385    0.000    0.000 
#    0.000    0.000    0.000    0.000    0.000    4.308 
#    0.000    0.769    0.000    0.000    0.000    0.000 
#
# Total GULP energy -144739.333344 kJ/mol
# GULP energy per Si atom -5566.897436 kJ/mol
# Density = 1.983937 g / cm^3
# Si number density = 19.884629 Si / 1000 Ang^3
#
#
#
# Elastic Constant Matrix: (Units=GPa)
#
#
# Indices 1 2 3 4 5 6 
#
# 1 113.9677 13.3748 61.2842 0.0000 -22.9210 0.0000
# 2 13.3748 15.5901 20.1402 0.0000 8.7000 0.0000
# 3 61.2842 20.1402 124.3061 0.0000 -24.2862 0.0000
# 4 0.0000 0.0000 0.0000 16.2293 0.0000 -3.4527
# 5 -22.9210 8.7000 -24.2862 0.0000 46.3990 0.0000
# 6 0.0000 0.0000 0.0000 -3.4527 0.0000 21.5082
#
#
#
# Elastic Compliance Matrix: (Units=1/GPa)
#
#
# Indices 1 2 3 4 5 6 
#
# 1 0.013247 -0.010552 -0.003516 0.000000 0.006682 0.000000
# 2 -0.010552 0.126129 -0.023250 0.000000 -0.041032 0.000000
# 3 -0.003516 -0.023250 0.015659 0.000000 0.010819 0.000000
# 4 0.000000 0.000000 0.000000 0.063796 0.000000 0.010241
# 5 0.006682 -0.041032 0.010819 0.000000 0.038210 0.000000
# 6 0.000000 0.000000 0.000000 0.010241 0.000000 0.048138
#
#
# Mechanical properties :
#
#
# Convention : Reuss Voigt Hill
#
# Bulk Modulus (GPa) = 12.43791 49.27359 30.85575
# Shear Modulus (GPa) = 12.29670 27.43162 19.86416
#
# Velocity S-wave (km/s) = 2.48947 3.71824 3.16408
# Velocity P-wave (km/s) = 3.81207 6.57779 5.37583
#
# Compressibility (1/GPa) = 0.08039938
#
# Stress axis : x y z
#
# Youngs Moduli (GPa) = 75.48707 7.92841 63.86249
#
# Poissons Ratio (x) = 0.08366 0.22453
# Poissons Ratio (y) = 0.79654 1.48479
# Poissons Ratio (z) = 0.26540 0.18433
#
# Static dielectric constant tensor:
#      x y z
#    x 1.780560 0.000000 -0.021900 
#    y 0.000000 1.704300 0.000000 
#    z -0.021900 0.000000 1.774820 
# 
# From -- ./inp_files/176273.got.cif
#   From: 2010.05.17/outbox.cif.g08.bks.cpg/sg15_89_cif.got.tgz:176273.got - 2010.06.03 18:47:42.
