data_PCOD9256279
_publ_section_title
;
Structure prediction by ZEFSAII (Michael W. Deem and Ramdas Pophale) SiO2 
 PCOD9256279
Probable space group: C 2/C
;
_chemical_formula_sum "Si O2"
_cell_formula_units_Z 48
_cell_length_a 14.250278
_cell_length_b 11.403373
_cell_length_c 19.075361
_cell_angle_alpha 90.000000
_cell_angle_beta 36.166656
_cell_angle_gamma 90.000000
_cell_volume 1829.285544
_symmetry_space_group_name_H-M "C 2/C"
_symmetry_group_IT_number 15
_symmetry_cell_setting 'monoclinic'
loop_
_space_group_symop_operation_xyz
x,y,z
-x,y,1/2-z
-x,-y,-z
x,-y,1/2+z
1/2+x,1/2+y,z
1/2-x,1/2+y,1/2-z
1/2-x,1/2-y,-z
1/2+x,1/2-y,1/2+z
loop_
_atom_site_type_symbol
_atom_site_label
_atom_site_fract_x
_atom_site_fract_y
_atom_site_fract_z
Si Si1 0.318232 0.373243 0.852448
Si Si2 0.765210 0.501494 0.461755
Si Si3 0.539349 0.890948 0.925350
Si Si4 0.224373 0.510918 0.696389
Si Si5 0.753184 0.788775 0.611879
Si Si6 0.085633 0.903206 0.293772
O O1 0.500000 0.322726 0.750000
O O2 0.229337 0.404919 0.979433
O O3 0.190351 0.328056 0.872111
O O4 0.350984 0.500481 0.798367
O O5 0.799639 0.437794 0.366470
O O6 0.825714 0.632741 0.401465
O O7 0.586536 0.550711 0.582961
O O8 0.577289 0.957788 0.829228
O O9 0.392773 0.801508 0.008962
O O10 0.500000 0.000000 0.000000
O O11 0.323097 0.391424 0.620190
O O12 0.312795 0.591347 0.697250
O O13 0.622690 0.717144 0.733610
#
# Coordination Sequence:
#
# PCOD9256279 Si02
#       6
#     8   8   8   8   8   8
#     4   9  19  35  59  83 121 166 193 248 318 359
#     4   9  20  33  55  88 112 150 205 259 296 357
#     4  11  19  38  60  84 121 168 205 245 308 377
#     4   9  20  32  56  85 111 155 206 252 291 364
#     4  10  20  32  60  84 119 153 213 247 297 366
#     4  10  17  36  54  79 116 159 197 243 306 365
#
# _framework density 26.239753
#
# number of rings (size 3 to 8) (size 9 to 14) (size 15 to 20)
#    1.000    1.333    3.333    1.500    0.000    0.667 
#    0.000    0.833    0.000    9.000    8.667    0.000 
#    0.000    0.000    0.000    0.000    0.000    0.000 
#
# Total GULP energy -133685.953428 kJ/mol
# GULP energy per Si atom -5570.248060 kJ/mol
# Density = 2.618003 g / cm^3
# Si number density = 26.239753 Si / 1000 Ang^3
#
#
#
# Elastic Constant Matrix: (Units=GPa)
#
#
# Indices 1 2 3 4 5 6 
#
# 1 141.4879 30.9806 52.5810 0.0000 20.3312 -0.0001
# 2 30.9806 51.1351 3.6543 -0.0001 3.0786 0.0002
# 3 52.5810 3.6543 117.7586 0.0000 34.6593 0.0001
# 4 0.0000 -0.0001 0.0000 24.3006 0.0000 15.8857
# 5 20.3312 3.0786 34.6593 0.0000 62.4322 -0.0001
# 6 -0.0001 0.0002 0.0001 15.8857 -0.0001 -23.7143
#
#
#
# Elastic Compliance Matrix: (Units=1/GPa)
#
#
# Indices 1 2 3 4 5 6 
#
# 1 0.009914 -0.005675 -0.004044 0.000000 -0.000704 0.000000
# 2 -0.005675 0.022878 0.001927 0.000000 -0.000350 0.000000
# 3 -0.004044 0.001927 0.011807 0.000000 -0.005333 0.000000
# 4 0.000000 0.000000 0.000000 0.028619 0.000000 0.019171
# 5 -0.000704 -0.000350 -0.005333 0.000000 0.019225 0.000000
# 6 0.000000 0.000000 0.000000 0.019171 0.000000 -0.029326
#
#
# Mechanical properties :
#
#
# Convention : Reuss Voigt Hill
#
# Bulk Modulus (GPa) = 34.46385 53.86816 44.16600
# Shear Modulus (GPa) = 56.57906 27.48141 42.03023
#
# Velocity S-wave (km/s) = 4.64856 3.23974 4.00656
# Velocity P-wave (km/s) = 6.47881 5.87949 6.18641
#
# Compressibility (1/GPa) = 0.02901591
#
# Stress axis : x y z
#
# Youngs Moduli (GPa) = 100.86445 43.71048 84.69319
#
# Poissons Ratio (x) = 0.24807 0.34246
# Poissons Ratio (y) = 0.57244 -0.16321
# Poissons Ratio (z) = 0.40785 -0.08424
#
# Static dielectric constant tensor:
#      x y z
#    x 16.680630 0.000010 0.888610 
#    y 0.000010 2.140930 0.000000 
#    z 0.888610 0.000000 2.251120 
# 
# From -- ./inp_files/243897.got.cif
#   From: 2010.05.17/outbox.cif.g08.bks.cpg/sg15_122_cif.got.tgz:243897.got - 2010.06.03 18:47:42.
