data_PCOD9256806
_publ_section_title
;
Structure prediction by ZEFSAII (Michael W. Deem and Ramdas Pophale) SiO2 
 PCOD9256806
Probable space group: C 2/C
;
_chemical_formula_sum "Si O2"
_cell_formula_units_Z 64
_cell_length_a 21.435363
_cell_length_b 12.967992
_cell_length_c 22.256846
_cell_angle_alpha 90.000000
_cell_angle_beta 144.378825
_cell_angle_gamma 90.000000
_cell_volume 3603.346578
_symmetry_space_group_name_H-M "C 2/C"
_symmetry_group_IT_number 15
_symmetry_cell_setting 'monoclinic'
loop_
_space_group_symop_operation_xyz
x,y,z
-x,y,1/2-z
-x,-y,-z
x,-y,1/2+z
1/2+x,1/2+y,z
1/2-x,1/2+y,1/2-z
1/2-x,1/2-y,-z
1/2+x,1/2-y,1/2+z
loop_
_atom_site_type_symbol
_atom_site_label
_atom_site_fract_x
_atom_site_fract_y
_atom_site_fract_z
Si Si1 0.563841 0.929740 0.242207
Si Si2 0.629652 0.950778 0.161323
Si Si3 0.432878 0.155601 0.453147
Si Si4 0.774482 0.914215 0.480617
Si Si5 0.876070 0.116880 0.873827
Si Si6 0.701442 0.816273 0.534858
Si Si7 0.529122 0.466386 0.925865
Si Si8 0.443762 0.308270 0.766805
O O1 0.500000 0.975055 0.250000
O O2 0.571635 0.969801 0.180503
O O3 0.685608 0.928403 0.360779
O O4 0.523660 0.811563 0.203478
O O5 0.749661 0.906425 0.265123
O O6 0.625328 0.060557 0.125030
O O7 0.556559 0.874372 0.063275
O O8 0.407463 0.262688 0.399893
O O9 0.381975 0.165531 0.478881
O O10 0.713270 0.907873 0.495880
O O11 0.818969 0.796251 0.510469
O O12 0.873487 0.988586 0.544464
O O13 0.913412 0.073601 0.968372
O O14 0.948015 0.055837 0.881446
O O15 0.817734 0.807936 0.656077
O O16 0.465738 0.375133 0.842707
O O17 0.500000 0.350522 0.750000
#
# Coordination Sequence:
#
# PCOD9256806 Si02
#       8
#     8   8   8   8   8   8   8   8
#     4  10  19  31  51  79 109 146 185 235 290 345
#     4  11  23  39  57  83 113 151 196 233 290 355
#     4  11  23  39  57  84 116 153 194 236 289 354
#     4  10  18  30  50  81 117 139 185 228 288 350
#     4  11  23  38  58  81 118 155 189 240 283 343
#     4  10  18  31  51  80 116 150 171 234 295 345
#     4  11  20  34  52  82 114 148 193 225 280 346
#     4  10  18  29  51  80 116 146 179 231 290 344
#
# _framework density 17.761267
#
# number of rings (size 3 to 8) (size 9 to 14) (size 15 to 20)
#    0.000    1.500    3.750    3.000    1.750    2.000 
#    0.000    0.000    0.000    0.750    0.000    2.625 
#    0.000    0.125    0.000    0.000    0.000    0.000 
#
# Total GULP energy -178385.425299 kJ/mol
# GULP energy per Si atom -5574.544541 kJ/mol
# Density = 1.772084 g / cm^3
# Si number density = 17.761267 Si / 1000 Ang^3
#
#
#
# Elastic Constant Matrix: (Units=GPa)
#
#
# Indices 1 2 3 4 5 6 
#
# 1 84.8315 47.4583 18.3462 0.0000 1.8693 0.0000
# 2 47.4583 75.9470 35.8547 0.0000 5.7587 0.0000
# 3 18.3462 35.8547 90.0599 0.0000 11.2441 0.0000
# 4 0.0000 0.0000 0.0000 20.3517 0.0000 -4.2897
# 5 1.8693 5.7587 11.2441 0.0000 31.8281 0.0000
# 6 0.0000 0.0000 0.0000 -4.2897 0.0000 24.6782
#
#
#
# Elastic Compliance Matrix: (Units=1/GPa)
#
#
# Indices 1 2 3 4 5 6 
#
# 1 0.018216 -0.011876 0.000923 0.000000 0.000753 0.000000
# 2 -0.011876 0.023971 -0.006978 0.000000 -0.001175 0.000000
# 3 0.000923 -0.006978 0.014168 0.000000 -0.003797 0.000000
# 4 0.000000 0.000000 0.000000 0.051005 0.000000 0.008866
# 5 0.000753 -0.001175 -0.003797 0.000000 0.032928 0.000000
# 6 0.000000 0.000000 0.000000 0.008866 0.000000 0.042063
#
#
# Mechanical properties :
#
#
# Convention : Reuss Voigt Hill
#
# Bulk Modulus (GPa) = 48.79366 50.46186 49.62776
# Shear Modulus (GPa) = 22.21812 25.31687 23.76750
#
# Velocity S-wave (km/s) = 3.54069 3.77954 3.66206
# Velocity P-wave (km/s) = 6.65183 6.89343 6.77371
#
# Compressibility (1/GPa) = 0.02049447
#
# Stress axis : x y z
#
# Youngs Moduli (GPa) = 54.89818 41.71675 70.58354
#
# Poissons Ratio (x) = 0.49541 -0.06517
# Poissons Ratio (y) = 0.65195 0.49250
# Poissons Ratio (z) = -0.05068 0.29108
#
# Static dielectric constant tensor:
#      x y z
#    x 1.656430 0.000000 0.017510 
#    y 0.000000 1.584790 0.000000 
#    z 0.017510 0.000000 1.665070 
# 
# From -- ./inp_files/252545.got.cif
#   From: 2010.05.17/outbox.cif.g08.bks.cpg/sg15_127_cif.got.tgz:252545.got - 2010.06.03 18:47:42.
