data_PCOD9256361
_publ_section_title
;
Structure prediction by ZEFSAII (Michael W. Deem and Ramdas Pophale) SiO2 
 PCOD9256361
Probable space group: C 2/C
;
_chemical_formula_sum "Si O2"
_cell_formula_units_Z 48
_cell_length_a 8.658855
_cell_length_b 14.784252
_cell_length_c 24.037466
_cell_angle_alpha 90.000000
_cell_angle_beta 142.702774
_cell_angle_gamma 90.000000
_cell_volume 1864.598004
_symmetry_space_group_name_H-M "C 2/C"
_symmetry_group_IT_number 15
_symmetry_cell_setting 'monoclinic'
loop_
_space_group_symop_operation_xyz
x,y,z
-x,y,1/2-z
-x,-y,-z
x,-y,1/2+z
1/2+x,1/2+y,z
1/2-x,1/2+y,1/2-z
1/2-x,1/2-y,-z
1/2+x,1/2-y,1/2+z
loop_
_atom_site_type_symbol
_atom_site_label
_atom_site_fract_x
_atom_site_fract_y
_atom_site_fract_z
Si Si1 0.706717 0.186011 0.643731
Si Si2 0.858878 0.474278 0.263058
Si Si3 0.260999 0.200013 0.061364
Si Si4 0.810836 0.267115 0.243573
Si Si5 0.811537 0.013277 0.119242
Si Si6 0.151210 0.520264 0.452091
O O1 0.614774 0.249827 0.568103
O O2 0.572883 0.223456 0.661412
O O3 0.728718 0.086492 0.620363
O O4 0.000000 0.194356 0.750000
O O5 0.757146 0.374828 0.215927
O O6 0.609756 0.525788 0.214080
O O7 0.048699 0.465663 0.369593
O O8 0.000000 0.514954 0.250000
O O9 0.552892 0.209980 0.166431
O O10 0.180804 0.098192 0.027292
O O11 0.250000 0.250000 0.000000
O O12 0.000000 0.236133 0.250000
O O13 0.596332 0.069239 0.089534
O O14 0.781441 0.020687 0.043956
#
# Coordination Sequence:
#
# PCOD9256361 Si02
#       6
#     8   8   8   8   8   8
#     4  10  17  36  65  83 119 171 209 256 329 393
#     4  11  22  38  61  90 129 170 217 272 327 392
#     4  11  21  38  62  92 126 162 215 271 328 383
#     4  10  21  37  61  89 122 170 217 257 330 398
#     4  11  20  40  64  94 125 172 222 272 325 398
#     4  11  23  36  66  96 126 167 227 273 324 392
#
# _framework density 25.742815
#
# number of rings (size 3 to 8) (size 9 to 14) (size 15 to 20)
#    0.000    1.333    6.667    0.500    0.000    4.000 
#    0.000    0.833    0.000    0.000    0.000    0.000 
#    0.000    0.000    0.000    0.000    0.000    0.000 
#
# Total GULP energy -133838.096474 kJ/mol
# GULP energy per Si atom -5576.587353 kJ/mol
# Density = 2.568422 g / cm^3
# Si number density = 25.742815 Si / 1000 Ang^3
#
#
#
# Elastic Constant Matrix: (Units=GPa)
#
#
# Indices 1 2 3 4 5 6 
#
# 1 93.4560 -10.9673 22.2154 -0.0001 -34.9096 0.0000
# 2 -10.9673 32.3405 19.9978 -0.0001 -8.0764 0.0000
# 3 22.2154 19.9978 130.3416 -0.0004 -41.1610 -0.0002
# 4 -0.0001 -0.0001 -0.0004 31.7886 -0.0001 -11.2474
# 5 -34.9096 -8.0764 -41.1610 -0.0001 50.7982 -0.0001
# 6 0.0000 0.0000 -0.0002 -11.2474 -0.0001 20.9983
#
#
#
# Elastic Compliance Matrix: (Units=1/GPa)
#
#
# Indices 1 2 3 4 5 6 
#
# 1 0.016483 0.008852 -0.000196 0.000000 0.012576 0.000000
# 2 0.008852 0.039011 -0.004857 0.000000 0.008350 0.000000
# 3 -0.000196 -0.004857 0.010972 0.000000 0.007983 0.000000
# 4 0.000000 0.000000 0.000000 0.038814 0.000000 0.020790
# 5 0.012576 0.008350 0.007983 0.000000 0.036125 0.000001
# 6 0.000000 0.000000 0.000000 0.020790 0.000001 0.058759
#
#
# Mechanical properties :
#
#
# Convention : Reuss Voigt Hill
#
# Bulk Modulus (GPa) = 13.50193 35.40329 24.45261
# Shear Modulus (GPa) = 23.01447 35.70984 29.36215
#
# Velocity S-wave (km/s) = 2.99325 3.72852 3.38093
# Velocity P-wave (km/s) = 4.14758 5.68493 4.97598
#
# Compressibility (1/GPa) = 0.07406350
#
# Stress axis : x y z
#
# Youngs Moduli (GPa) = 60.66750 25.63349 91.14200
#
# Poissons Ratio (x) = -0.22690 0.01787
# Poissons Ratio (y) = -0.53701 0.44270
# Poissons Ratio (z) = 0.01189 0.12451
#
# Static dielectric constant tensor:
#      x y z
#    x 2.184240 0.000000 0.031570 
#    y 0.000000 2.192570 0.000000 
#    z 0.031570 0.000000 1.991810 
# 
# From -- ./inp_files/232873.got.cif
#   From: 2010.05.17/outbox.cif.g08.bks.cpg/sg15_117_cif.got.tgz:232873.got - 2010.06.03 18:47:42.
