data_PCOD9256942
_publ_section_title
;
Structure prediction by ZEFSAII (Michael W. Deem and Ramdas Pophale) SiO2 
 PCOD9256942
Probable space group: C 2/C
;
_chemical_formula_sum "Si O2"
_cell_formula_units_Z 56
_cell_length_a 8.763545
_cell_length_b 21.612797
_cell_length_c 14.081724
_cell_angle_alpha 90.000000
_cell_angle_beta 115.130004
_cell_angle_gamma 90.000000
_cell_volume 2414.690464
_symmetry_space_group_name_H-M "C 2/C"
_symmetry_group_IT_number 15
_symmetry_cell_setting 'monoclinic'
loop_
_space_group_symop_operation_xyz
x,y,z
-x,y,1/2-z
-x,-y,-z
x,-y,1/2+z
1/2+x,1/2+y,z
1/2-x,1/2+y,1/2-z
1/2-x,1/2-y,-z
1/2+x,1/2-y,1/2+z
loop_
_atom_site_type_symbol
_atom_site_label
_atom_site_fract_x
_atom_site_fract_y
_atom_site_fract_z
Si Si1 0.305778 0.168049 0.183338
Si Si2 0.325905 0.479680 0.225198
Si Si3 0.862603 0.312473 0.138395
Si Si4 0.332880 0.027774 0.141140
Si Si5 0.040679 0.794763 0.969093
Si Si6 0.273478 0.617484 0.134735
Si Si7 0.022228 0.428726 0.432154
O O1 0.500000 0.189039 0.250000
O O2 0.237577 0.157200 0.272749
O O3 0.161307 0.203426 0.086635
O O4 0.305615 0.100434 0.133683
O O5 0.500000 0.447133 0.250000
O O6 0.306773 0.493955 0.332238
O O7 0.328861 0.548127 0.177729
O O8 0.170093 0.441281 0.142773
O O9 0.909804 0.271764 0.059257
O O10 0.000000 0.290150 0.250000
O O11 0.904077 0.383449 0.129199
O O12 0.660449 0.304289 0.093177
O O13 0.500000 0.019961 0.250000
O O14 0.376411 0.993043 0.056031
O O15 0.112250 0.847756 0.913743
O O16 0.086626 0.604467 0.043716
#
# Coordination Sequence:
#
# PCOD9256942 Si02
#       7
#     8   8   8   8   8   8   8
#     4  10  19  34  56  85 115 142 180 234 284 325
#     4  10  18  30  49  74 107 144 180 223 276 333
#     4  10  20  37  60  82 108 144 191 233 263 318
#     4   8  16  31  50  72 106 146 181 221 273 330
#     4  10  21  37  62  85 103 144 194 230 270 318
#     4  10  19  34  56  79 107 145 192 233 265 321
#     4  10  20  35  52  77 111 149 183 221 280 335
#
# _framework density 23.191376999999999
#
# number of rings (size 3 to 8) (size 9 to 14) (size 15 to 20)
#    0.000    2.286    0.000    5.571    0.000    0.000 
#    0.000   12.857    0.000   12.000    0.000    0.000 
#    0.000    0.000    0.000    0.000    0.000    0.000 
#
# Total GULP energy -156163.408681 kJ/mol
# GULP energy per Si atom -5577.264596 kJ/mol
# Density = 2.313859 g / cm^3
# Si number density = 23.191377 Si / 1000 Ang^3
#
#
#
# Elastic Constant Matrix: (Units=GPa)
#
#
# Indices 1 2 3 4 5 6 
#
# 1 86.3539 6.1638 34.3319 0.0000 42.5330 0.0000
# 2 6.1638 56.2968 1.1563 0.0000 13.3938 0.0000
# 3 34.3319 1.1563 111.4701 0.0000 39.3213 0.0000
# 4 0.0000 0.0000 0.0000 17.4967 0.0000 6.9875
# 5 42.5330 13.3938 39.3213 0.0000 48.5660 0.0000
# 6 0.0000 0.0000 0.0000 6.9875 0.0000 19.7375
#
#
#
# Elastic Compliance Matrix: (Units=1/GPa)
#
#
# Indices 1 2 3 4 5 6 
#
# 1 0.020619 0.002237 0.000299 0.000000 -0.018917 0.000000
# 2 0.002237 0.019689 0.002398 0.000000 -0.009331 0.000000
# 3 0.000299 0.002398 0.012850 0.000000 -0.011327 0.000000
# 4 0.000000 0.000000 0.000000 0.066565 0.000000 -0.023565
# 5 -0.018917 -0.009331 -0.011327 0.000000 0.048902 0.000000
# 6 0.000000 0.000000 0.000000 -0.023565 0.000000 0.059007
#
#
# Mechanical properties :
#
#
# Convention : Reuss Voigt Hill
#
# Bulk Modulus (GPa) = 15.86651 37.49166 26.67908
# Shear Modulus (GPa) = 20.94058 31.32463 26.13260
#
# Velocity S-wave (km/s) = 3.00817 3.67918 3.36046
# Velocity P-wave (km/s) = 4.34992 5.85233 5.15614
#
# Compressibility (1/GPa) = 0.06302585
#
# Stress axis : x y z
#
# Youngs Moduli (GPa) = 48.49910 50.79061 77.82323
#
# Poissons Ratio (x) = -0.11361 -0.02329
# Poissons Ratio (y) = -0.10849 -0.18663
# Poissons Ratio (z) = -0.01451 -0.12180
#
# Static dielectric constant tensor:
#      x y z
#    x 1.955070 0.000000 -0.000500 
#    y 0.000000 1.856860 0.000000 
#    z -0.000500 0.000000 1.993680 
# 
# From -- ./inp_files/193051.got.cif
#   From: 2010.05.17/outbox.cif.g08.bks.cpg/sg15_97_cif.got.tgz:193051.got - 2010.06.03 18:47:42.
