data_PCOD9256219
_publ_section_title
;
Structure prediction by ZEFSAII (Michael W. Deem and Ramdas Pophale) SiO2 
 PCOD9256219
Probable space group: C 2/C
;
_chemical_formula_sum "Si O2"
_cell_formula_units_Z 52
_cell_length_a 18.128644
_cell_length_b 7.548093
_cell_length_c 16.074361
_cell_angle_alpha 90.000000
_cell_angle_beta 68.249700
_cell_angle_gamma 90.000000
_cell_volume 2042.970271
_symmetry_space_group_name_H-M "C 2/C"
_symmetry_group_IT_number 15
_symmetry_cell_setting 'monoclinic'
loop_
_space_group_symop_operation_xyz
x,y,z
-x,y,1/2-z
-x,-y,-z
x,-y,1/2+z
1/2+x,1/2+y,z
1/2-x,1/2+y,1/2-z
1/2-x,1/2-y,-z
1/2+x,1/2-y,1/2+z
loop_
_atom_site_type_symbol
_atom_site_label
_atom_site_fract_x
_atom_site_fract_y
_atom_site_fract_z
Si Si1 0.678842 0.846810 0.422329
Si Si2 0.628200 0.341542 0.612258
Si Si3 0.500000 0.833181 0.750000
Si Si4 0.650583 0.248891 0.124724
Si Si5 0.433688 0.332457 0.112645
Si Si6 0.521984 0.740340 0.415497
Si Si7 0.714518 0.739601 0.904737
O O1 0.651971 0.781461 0.524854
O O2 0.760748 0.739084 0.374654
O O3 0.606482 0.835463 0.387377
O O4 0.701625 0.050913 0.421497
O O5 0.623494 0.543519 0.647587
O O6 0.542148 0.254716 0.631902
O O7 0.673186 0.352062 0.502596
O O8 0.691079 0.225643 0.637688
O O9 0.411752 0.891503 0.812701
O O10 0.524570 0.730597 0.822798
O O11 0.453580 0.535706 0.090886
O O12 0.338906 0.315773 0.150318
O O13 0.471292 0.222161 0.020188
#
# Coordination Sequence:
#
# PCOD9256219 Si02
#       7
#     8   8   4   8   8   8   8
#     4  10  19  34  57  90 115 145 187 248 284 340
#     4   9  17  34  56  85 111 143 190 238 268 345
#     4  12  20  38  58  86 110 166 188 248 280 354
#     4  10  20  35  58  83 115 152 197 229 287 345
#     4  10  20  33  60  85 114 148 200 238 281 348
#     4  10  17  35  59  89 106 146 206 238 264 349
#     4   9  19  32  56  87 117 143 183 243 290 328
#
# _framework density 25.453135
#
# number of rings (size 3 to 8) (size 9 to 14) (size 15 to 20)
#    0.000    2.154    3.077    1.846    0.000    3.692 
#    0.000    3.077    0.000    3.692    0.000    0.000 
#    0.000    0.000    0.000    0.000    0.000    0.000 
#
# Total GULP energy -145141.478488 kJ/mol
# GULP energy per Si atom -5582.364557 kJ/mol
# Density = 2.539520 g / cm^3
# Si number density = 25.453135 Si / 1000 Ang^3
#
#
#
# Elastic Constant Matrix: (Units=GPa)
#
#
# Indices 1 2 3 4 5 6 
#
# 1 270.6623 26.0302 14.8941 0.0000 -14.3314 0.0000
# 2 26.0302 56.2078 1.6364 0.0000 -5.4940 0.0002
# 3 14.8941 1.6364 32.9858 0.0000 -7.5250 0.0000
# 4 0.0000 0.0000 0.0000 -2.1551 0.0000 3.6409
# 5 -14.3314 -5.4940 -7.5250 0.0000 31.0635 0.0000
# 6 0.0000 0.0002 0.0000 3.6409 0.0000 40.8496
#
#
#
# Elastic Compliance Matrix: (Units=1/GPa)
#
#
# Indices 1 2 3 4 5 6 
#
# 1 0.004001 -0.001694 -0.001450 0.000000 0.001195 0.000000
# 2 -0.001694 0.018822 0.000436 0.000000 0.002653 0.000000
# 3 -0.001450 0.000436 0.032617 0.000000 0.007310 0.000000
# 4 0.000000 0.000000 0.000000 -0.403283 0.000000 0.035945
# 5 0.001195 0.002653 0.007310 0.000000 0.034983 0.000000
# 6 0.000000 0.000000 0.000000 0.035945 0.000000 0.021276
#
#
# Mechanical properties :
#
#
# Convention : Reuss Voigt Hill
#
# Bulk Modulus (GPa) = 19.99004 49.44193 34.71598
# Shear Modulus (GPa) = -18.55322 35.10461 8.27569
#
# Velocity S-wave (km/s) = -2.70278 3.71777 1.80510
# Velocity P-wave (km/s) = 1.36722 6.15597 4.24421
#
# Compressibility (1/GPa) = 0.05002492
#
# Stress axis : x y z
#
# Youngs Moduli (GPa) = 249.96400 53.12902 30.65929
#
# Poissons Ratio (x) = 0.08998 0.04445
# Poissons Ratio (y) = 0.42336 -0.01338
# Poissons Ratio (z) = 0.36239 -0.02318
#
# Static dielectric constant tensor:
#      x y z
#    x 2.110050 0.000000 -0.049320 
#    y 0.000000 2.143880 0.000000 
#    z -0.049320 0.000000 2.029460 
# 
# From -- ./inp_files/209015.got.cif
#   From: 2010.05.17/outbox.cif.g08.bks.cpg/sg15_105_cif.got.tgz:209015.got - 2010.06.03 18:47:42.
