data_PCOD9256985
_publ_section_title
;
Structure prediction by ZEFSAII (Michael W. Deem and Ramdas Pophale) SiO2 
 PCOD9256985
Probable space group: C 2/C
;
_chemical_formula_sum "Si O2"
_cell_formula_units_Z 40
_cell_length_a 14.057849
_cell_length_b 19.519209
_cell_length_c 8.484057
_cell_angle_alpha 90.000000
_cell_angle_beta 127.121784
_cell_angle_gamma 90.000000
_cell_volume 1856.248569
_symmetry_space_group_name_H-M "C 2/C"
_symmetry_group_IT_number 15
_symmetry_cell_setting 'monoclinic'
loop_
_space_group_symop_operation_xyz
x,y,z
-x,y,1/2-z
-x,-y,-z
x,-y,1/2+z
1/2+x,1/2+y,z
1/2-x,1/2+y,1/2-z
1/2-x,1/2-y,-z
1/2+x,1/2-y,1/2+z
loop_
_atom_site_type_symbol
_atom_site_label
_atom_site_fract_x
_atom_site_fract_y
_atom_site_fract_z
Si Si1 0.129881 0.712962 0.071810
Si Si2 0.752630 0.423343 0.815179
Si Si3 0.870120 0.287037 0.312050
Si Si4 0.747370 0.923343 0.309918
Si Si5 0.500000 0.421664 0.062367
O O1 0.148383 0.632582 0.127307
O O2 0.250001 0.750000 0.249026
O O3 0.129414 0.719639 0.879414
O O4 0.000000 0.736964 0.999308
O O5 0.772574 0.500000 0.772575
O O6 0.625157 0.394619 0.627245
O O7 0.744224 0.427781 0.994225
O O8 0.851617 0.367418 0.330542
O O9 0.874843 0.894619 0.376931
O O10 0.500000 0.420749 0.250000
O O11 0.500000 0.500000 0.000000
#
# Coordination Sequence:
#
# PCOD9256985 Si02
#       5
#     8   8   8   8   8
#     4   9  19  34  54  82 113 144 185 234 279 325
#     4  10  19  32  54  83 113 145 184 229 281 329
#     4   9  19  34  54  82 113 144 185 234 279 325
#     4  10  19  32  54  83 113 145 184 229 281 329
#     4  10  18  30  50  78 112 146 183 222 271 326
#
# _framework density 21.548836999999999
#
# number of rings (size 3 to 8) (size 9 to 14) (size 15 to 20)
#    0.000    2.400    0.000    5.400    2.800    0.800 
#    0.000    0.000    0.000    8.400    0.000    0.000 
#    0.000    0.000    0.000    0.000    0.000    0.000 
#
# Total GULP energy -111595.517936 kJ/mol
# GULP energy per Si atom -5579.775897 kJ/mol
# Density = 2.149979 g / cm^3
# Si number density = 21.548837 Si / 1000 Ang^3
#
#
#
# Elastic Constant Matrix: (Units=GPa)
#
#
# Indices 1 2 3 4 5 6 
#
# 1 89.6739 47.6375 49.3479 0.0000 40.0999 0.0000
# 2 47.6375 88.0587 37.2381 0.0000 22.2677 0.0000
# 3 49.3479 37.2381 60.3312 0.0000 22.7197 0.0000
# 4 0.0000 0.0000 0.0000 20.7099 0.0000 10.7783
# 5 40.0999 22.2677 22.7197 0.0000 48.0095 0.0000
# 6 0.0000 0.0000 0.0000 10.7783 0.0000 25.7432
#
#
#
# Elastic Compliance Matrix: (Units=1/GPa)
#
#
# Indices 1 2 3 4 5 6 
#
# 1 0.028541 -0.005714 -0.014407 0.000000 -0.014371 0.000000
# 2 -0.005714 0.016929 -0.005617 0.000000 -0.000421 0.000000
# 3 -0.014407 -0.005617 0.032020 0.000000 -0.000514 0.000000
# 4 0.000000 0.000000 0.000000 0.061739 0.000000 -0.025849
# 5 -0.014371 -0.000421 -0.000514 0.000000 0.033272 0.000000
# 6 0.000000 0.000000 0.000000 -0.025849 0.000000 0.049668
#
#
# Mechanical properties :
#
#
# Convention : Reuss Voigt Hill
#
# Bulk Modulus (GPa) = 38.43853 56.27897 47.35875
# Shear Modulus (GPa) = 17.71074 25.81521 21.76297
#
# Velocity S-wave (km/s) = 2.86997 3.46495 3.18140
# Velocity P-wave (km/s) = 5.37205 6.49473 5.95988
#
# Compressibility (1/GPa) = 0.02601557
#
# Stress axis : x y z
#
# Youngs Moduli (GPa) = 35.03685 59.07103 31.23088
#
# Poissons Ratio (x) = 0.33752 0.44993
# Poissons Ratio (y) = 0.20019 0.17541
# Poissons Ratio (z) = 0.50477 0.33178
#
# Static dielectric constant tensor:
#      x y z
#    x 1.787390 0.000000 0.052780 
#    y 0.000000 1.802400 0.000000 
#    z 0.052780 0.000000 1.762740 
# 
# From -- ./inp_files/41060.got.cif
#   From: 2010.05.17/outbox.cif.g08.bks.cpg/sg15_21_cif.got.tgz:41060.got - 2010.06.03 18:47:42.
