data_PCOD9256557
_publ_section_title
;
Structure prediction by ZEFSAII (Michael W. Deem and Ramdas Pophale) SiO2 
 PCOD9256557
Probable space group: C 2/C
;
_chemical_formula_sum "Si O2"
_cell_formula_units_Z 56
_cell_length_a 14.273298
_cell_length_b 30.735626
_cell_length_c 14.600582
_cell_angle_alpha 90.000000
_cell_angle_beta 147.951432
_cell_angle_gamma 90.000000
_cell_volume 3398.872411
_symmetry_space_group_name_H-M "C 2/C"
_symmetry_group_IT_number 15
_symmetry_cell_setting 'monoclinic'
loop_
_space_group_symop_operation_xyz
x,y,z
-x,y,1/2-z
-x,-y,-z
x,-y,1/2+z
1/2+x,1/2+y,z
1/2-x,1/2+y,1/2-z
1/2-x,1/2-y,-z
1/2+x,1/2-y,1/2+z
loop_
_atom_site_type_symbol
_atom_site_label
_atom_site_fract_x
_atom_site_fract_y
_atom_site_fract_z
Si Si1 0.145043 0.942032 0.135171
Si Si2 0.538277 0.495428 0.877137
Si Si3 0.633606 0.297496 0.496855
Si Si4 0.792215 0.883168 0.848801
Si Si5 0.766590 0.300738 0.405424
Si Si6 0.926003 0.611292 0.969577
Si Si7 0.822015 0.565968 0.070906
O O1 0.315494 0.912679 0.298754
O O2 0.143915 0.966682 0.037802
O O3 0.110819 0.979617 0.184766
O O4 0.971500 0.910817 0.988224
O O5 0.500000 0.470710 0.750000
O O6 0.660422 0.534004 0.941205
O O7 0.673100 0.332234 0.608474
O O8 0.754276 0.305549 0.506041
O O9 0.433093 0.303842 0.297141
O O10 0.662927 0.247925 0.551247
O O11 0.638264 0.893314 0.648082
O O12 0.711715 0.898094 0.879661
O O13 0.877193 0.338344 0.447444
O O14 0.849694 0.587458 0.996634
O O15 0.000000 0.542160 0.250000
#
# Coordination Sequence:
#
# PCOD9256557 Si02
#       7
#     8   8   8   8   8   8   8
#     4  10  21  34  50  73  93 130 167 200 247 295
#     4  10  19  35  52  69  98 123 163 209 248 289
#     4  10  18  28  40  66  98 131 169 200 232 281
#     4  10  19  30  47  67  97 129 168 198 237 287
#     4  10  19  26  43  65  97 134 167 201 232 280
#     4  11  18  31  49  67  95 133 164 199 241 286
#     4   9  18  30  47  69  90 129 165 198 241 290
#
# _framework density 16.476053
#
# number of rings (size 3 to 8) (size 9 to 14) (size 15 to 20)
#    0.000    2.000    4.286    0.857    0.000    1.143 
#    2.571    2.857    0.000    0.000    0.000    0.000 
#    0.000    1.143    0.000    0.000    0.000    0.000 
#
# Total GULP energy -155934.671784 kJ/mol
# GULP energy per Si atom -5569.095421 kJ/mol
# Density = 1.643855 g / cm^3
# Si number density = 16.476053 Si / 1000 Ang^3
#
#
#
# Elastic Constant Matrix: (Units=GPa)
#
#
# Indices 1 2 3 4 5 6 
#
# 1 25.3503 8.0971 16.3458 0.0000 -13.9787 0.0000
# 2 8.0971 65.4046 33.2659 0.0000 -12.7462 0.0000
# 3 16.3458 33.2659 92.5001 0.0000 -8.5243 -0.0001
# 4 0.0000 0.0000 0.0000 30.0732 0.0000 -4.9251
# 5 -13.9787 -12.7462 -8.5243 0.0000 18.7024 0.0000
# 6 0.0000 0.0000 -0.0001 -4.9251 0.0000 -23.3152
#
#
#
# Elastic Compliance Matrix: (Units=1/GPa)
#
#
# Indices 1 2 3 4 5 6 
#
# 1 0.074875 0.007020 -0.010603 0.000000 0.055916 0.000000
# 2 0.007020 0.021401 -0.007421 0.000000 0.016450 0.000000
# 3 -0.010603 -0.007421 0.014778 0.000000 -0.006247 0.000000
# 4 0.000000 0.000000 0.000000 0.032140 0.000000 -0.006789
# 5 0.055916 0.016450 -0.006247 0.000000 0.103626 0.000000
# 6 0.000000 0.000000 0.000000 -0.006789 0.000000 -0.041456
#
#
# Mechanical properties :
#
#
# Convention : Reuss Voigt Hill
#
# Bulk Modulus (GPa) = 11.23020 33.18584 22.20802
# Shear Modulus (GPa) = 19.45131 13.46182 16.45657
#
# Velocity S-wave (km/s) = 3.43969 2.86152 3.16384
# Velocity P-wave (km/s) = 4.75459 5.57703 5.18215
#
# Compressibility (1/GPa) = 0.08904562
#
# Stress axis : x y z
#
# Youngs Moduli (GPa) = 13.35561 46.72772 67.67007
#
# Poissons Ratio (x) = -0.32805 0.71752
# Poissons Ratio (y) = -0.09376 0.50218
# Poissons Ratio (z) = 0.14161 0.34676
#
# Static dielectric constant tensor:
#      x y z
#    x 1.538790 0.000000 0.001560 
#    y 0.000000 1.567880 0.000000 
#    z 0.001560 0.000000 1.644560 
# 
# From -- ./inp_files/44143.got.cif
#   From: 2010.05.17/outbox.cif.g08.bks.cpg/sg15_23_cif.got.tgz:44143.got - 2010.06.03 18:47:42.
