data_PCOD9256199
_publ_section_title
;
Structure prediction by ZEFSAII (Michael W. Deem and Ramdas Pophale) SiO2 
 PCOD9256199
Probable space group: C 2/C
;
_chemical_formula_sum "Si O2"
_cell_formula_units_Z 56
_cell_length_a 8.025176
_cell_length_b 16.293808
_cell_length_c 25.306086
_cell_angle_alpha 90.000000
_cell_angle_beta 60.455735
_cell_angle_gamma 90.000000
_cell_volume 2878.782903
_symmetry_space_group_name_H-M "C 2/C"
_symmetry_group_IT_number 15
_symmetry_cell_setting 'monoclinic'
loop_
_space_group_symop_operation_xyz
x,y,z
-x,y,1/2-z
-x,-y,-z
x,-y,1/2+z
1/2+x,1/2+y,z
1/2-x,1/2+y,1/2-z
1/2-x,1/2-y,-z
1/2+x,1/2-y,1/2+z
loop_
_atom_site_type_symbol
_atom_site_label
_atom_site_fract_x
_atom_site_fract_y
_atom_site_fract_z
Si Si1 0.036819 0.114346 0.430197
Si Si2 0.158045 0.568661 0.541941
Si Si3 0.072811 0.725581 0.322757
Si Si4 0.992337 0.715985 0.999921
Si Si5 0.791648 0.693058 0.880732
Si Si6 0.187948 0.780033 0.819761
Si Si7 0.409561 0.899526 0.927508
O O1 0.092392 0.139711 0.362124
O O2 0.214975 0.071467 0.430040
O O3 0.843680 0.066982 0.474367
O O4 0.038228 0.201769 0.461316
O O5 0.042736 0.645825 0.536841
O O6 0.221410 0.604692 0.589337
O O7 0.028854 0.487299 0.559977
O O8 0.169317 0.792555 0.346475
O O9 0.210389 0.706753 0.252179
O O10 0.862447 0.747124 0.331745
O O11 0.039419 0.644742 0.363786
O O12 0.804152 0.742117 0.062850
O O13 0.122777 0.670069 0.022942
O O14 0.012775 0.717529 0.839089
#
# Coordination Sequence:
#
# PCOD9256199 Si02
#       7
#     8   8   8   8   8   8   8
#     4  10  18  33  54  76 105 143 177 220 266 321
#     4  11  19  33  52  83 114 135 170 224 286 320
#     4   9  21  33  56  81  99 143 194 220 258 326
#     4  10  18  33  53  80 105 141 180 211 265 332
#     4  10  18  34  57  80 107 137 185 225 262 319
#     4  10  17  35  57  77 102 138 192 224 258 312
#     4  10  21  32  51  82 112 139 174 226 271 321
#
# _framework density 19.452665
#
# number of rings (size 3 to 8) (size 9 to 14) (size 15 to 20)
#    0.000    2.000    2.857    2.571    0.000    1.143 
#    0.000    0.000   12.571    0.000    7.429    0.000 
#    0.000    0.000    0.000    0.000    0.000    0.000 
#
# Total GULP energy -155893.671559 kJ/mol
# GULP energy per Si atom -5567.631127 kJ/mol
# Density = 1.940839 g / cm^3
# Si number density = 19.452665 Si / 1000 Ang^3
#
#
#
# Elastic Constant Matrix: (Units=GPa)
#
#
# Indices 1 2 3 4 5 6 
#
# 1 63.7970 18.5973 30.5069 0.0000 4.6733 0.0000
# 2 18.5973 83.6948 22.7971 0.0000 6.1571 0.0000
# 3 30.5069 22.7971 103.9981 0.0000 7.8156 0.0000
# 4 0.0000 0.0000 0.0000 11.8879 0.0000 -4.3011
# 5 4.6733 6.1571 7.8156 0.0000 29.8760 0.0000
# 6 0.0000 0.0000 0.0000 -4.3011 0.0000 13.6758
#
#
#
# Elastic Compliance Matrix: (Units=1/GPa)
#
#
# Indices 1 2 3 4 5 6 
#
# 1 0.018887 -0.002796 -0.004844 0.000000 -0.001111 0.000000
# 2 -0.002796 0.013231 -0.001946 0.000000 -0.001780 0.000000
# 3 -0.004844 -0.001946 0.011604 0.000000 -0.001877 0.000000
# 4 0.000000 0.000000 0.000000 0.094920 0.000000 0.029852
# 5 -0.001111 -0.001780 -0.001877 0.000000 0.034503 0.000000
# 6 0.000000 0.000000 0.000000 0.029852 0.000000 0.082510
#
#
# Mechanical properties :
#
#
# Convention : Reuss Voigt Hill
#
# Bulk Modulus (GPa) = 40.73336 43.92139 42.32738
# Shear Modulus (GPa) = 17.66716 23.06053 20.36385
#
# Velocity S-wave (km/s) = 3.01693 3.44680 3.23900
# Velocity P-wave (km/s) = 5.75508 6.20227 5.98286
#
# Compressibility (1/GPa) = 0.02454990
#
# Stress axis : x y z
#
# Youngs Moduli (GPa) = 52.94516 75.58292 86.17531
#
# Poissons Ratio (x) = 0.21130 0.41745
# Poissons Ratio (y) = 0.14802 0.16773
# Poissons Ratio (z) = 0.25647 0.14711
#
# Static dielectric constant tensor:
#      x y z
#    x 1.786100 0.000000 0.028410 
#    y 0.000000 1.698000 0.000000 
#    z 0.028410 0.000000 1.694290 
# 
# From -- ./inp_files/232224.got.cif
#   From: 2010.05.17/outbox.cif.g08.bks.cpg/sg15_117_cif.got.tgz:232224.got - 2010.06.03 18:47:42.
