data_PCOD9256237
_publ_section_title
;
Structure prediction by ZEFSAII (Michael W. Deem and Ramdas Pophale) SiO2 
 PCOD9256237
Probable space group: C 2/C
;
_chemical_formula_sum "Si O2"
_cell_formula_units_Z 56
_cell_length_a 15.207270
_cell_length_b 13.129713
_cell_length_c 26.728616
_cell_angle_alpha 90.000000
_cell_angle_beta 150.476613
_cell_angle_gamma 90.000000
_cell_volume 2629.874114
_symmetry_space_group_name_H-M "C 2/C"
_symmetry_group_IT_number 15
_symmetry_cell_setting 'monoclinic'
loop_
_space_group_symop_operation_xyz
x,y,z
-x,y,1/2-z
-x,-y,-z
x,-y,1/2+z
1/2+x,1/2+y,z
1/2-x,1/2+y,1/2-z
1/2-x,1/2-y,-z
1/2+x,1/2-y,1/2+z
loop_
_atom_site_type_symbol
_atom_site_label
_atom_site_fract_x
_atom_site_fract_y
_atom_site_fract_z
Si Si1 0.287749 0.778519 0.827169
Si Si2 0.918269 0.312036 0.601626
Si Si3 0.879964 0.592705 0.459325
Si Si4 0.500000 0.496221 0.250000
Si Si5 0.171119 0.457976 0.459874
Si Si6 0.850248 0.560129 0.736656
Si Si7 0.500000 0.109921 0.250000
Si Si8 0.579181 0.477149 0.685840
O O1 0.409259 0.763621 0.838582
O O2 0.404454 0.818793 0.931604
O O3 0.209084 0.672503 0.806388
O O4 0.151511 0.868523 0.743005
O O5 0.750000 0.250000 0.500000
O O6 0.893209 0.425088 0.565854
O O7 0.936901 0.326599 0.670511
O O8 0.673476 0.559252 0.352280
O O9 0.900004 0.607466 0.528269
O O10 0.000000 0.500000 0.500000
O O11 0.444276 0.450419 0.276291
O O12 0.385427 0.460709 0.564584
O O13 0.056578 0.426154 0.355623
O O14 0.850140 0.467972 0.697074
O O15 0.725355 0.521752 0.720532
#
# Coordination Sequence:
#
# PCOD9256237 Si02
#       8
#     8   8   8   4   8   8   4   8
#     4  11  22  40  67  94 139 177 230 288 346 424
#     4  11  22  45  69 100 133 184 242 281 346 429
#     4  10  17  35  61  93 129 167 215 287 344 393
#     4   8  18  29  61  92 118 168 214 269 353 382
#     4  10  20  38  66  95 131 172 221 291 347 405
#     4  11  23  43  67  97 141 186 227 289 352 418
#     4  10  24  47  71  94 154 190 216 303 363 400
#     4  10  19  39  64  95 137 178 228 291 346 412
#
# _framework density 21.293796
#
# number of rings (size 3 to 8) (size 9 to 14) (size 15 to 20)
#    0.000    1.714    4.286    1.714    0.000    4.000 
#    2.571   12.857    0.000    0.000    0.000    0.000 
#    0.000    0.000    0.000    0.000    0.000    0.000 
#
# Total GULP energy -156036.112437 kJ/mol
# GULP energy per Si atom -5572.718301 kJ/mol
# Density = 2.124533 g / cm^3
# Si number density = 21.293796 Si / 1000 Ang^3
#
#
#
# Elastic Constant Matrix: (Units=GPa)
#
#
# Indices 1 2 3 4 5 6 
#
# 1 125.9714 11.4052 40.6466 0.0000 -14.2020 0.0000
# 2 11.4052 78.9880 21.7464 0.0001 -12.2954 0.0000
# 3 40.6466 21.7464 84.2508 0.0002 -3.9792 0.0001
# 4 0.0000 0.0001 0.0002 26.4084 0.0000 11.4406
# 5 -14.2020 -12.2954 -3.9792 0.0000 32.8703 0.0000
# 6 0.0000 0.0000 0.0001 11.4406 0.0000 12.7078
#
#
#
# Elastic Compliance Matrix: (Units=1/GPa)
#
#
# Indices 1 2 3 4 5 6 
#
# 1 0.009844 0.000470 -0.004688 0.000000 0.003862 0.000000
# 2 0.000470 0.014413 -0.003704 0.000000 0.005146 0.000000
# 3 -0.004688 -0.003704 0.015012 0.000000 -0.001594 0.000000
# 4 0.000000 0.000000 0.000000 0.062078 0.000000 -0.055887
# 5 0.003862 0.005146 -0.001594 0.000000 0.033823 0.000000
# 6 0.000000 0.000000 0.000000 -0.055887 0.000000 0.129006
#
#
# Mechanical properties :
#
#
# Convention : Reuss Voigt Hill
#
# Bulk Modulus (GPa) = 42.68926 48.53406 45.61166
# Shear Modulus (GPa) = 17.37150 28.75811 23.06480
#
# Velocity S-wave (km/s) = 2.85932 3.67896 3.29473
# Velocity P-wave (km/s) = 5.56707 6.39440 5.99502
#
# Compressibility (1/GPa) = 0.02342510
#
# Stress axis : x y z
#
# Youngs Moduli (GPa) = 101.58699 69.38138 66.61364
#
# Poissons Ratio (x) = -0.03264 0.31230
# Poissons Ratio (y) = -0.04779 0.24675
# Poissons Ratio (z) = 0.47626 0.25700
#
# Static dielectric constant tensor:
#      x y z
#    x 1.850700 0.000000 -0.016360 
#    y 0.000000 1.946750 0.000000 
#    z -0.016360 0.000000 1.775510 
# 
# From -- ./inp_files/296629.got.cif
#   From: 2010.05.17/outbox.cif.g08.bks.cpg/sg15_149_cif.got.tgz:296629.got - 2010.06.03 18:47:42.
