data_PCOD9256495
_publ_section_title
;
Structure prediction by ZEFSAII (Michael W. Deem and Ramdas Pophale) SiO2 
 PCOD9256495
Probable space group: C 2/C
;
_chemical_formula_sum "Si O2"
_cell_formula_units_Z 56
_cell_length_a 8.065173
_cell_length_b 19.298505
_cell_length_c 18.361511
_cell_angle_alpha 90.000000
_cell_angle_beta 56.281380
_cell_angle_gamma 90.000000
_cell_volume 2377.119362
_symmetry_space_group_name_H-M "C 2/C"
_symmetry_group_IT_number 15
_symmetry_cell_setting 'monoclinic'
loop_
_space_group_symop_operation_xyz
x,y,z
-x,y,1/2-z
-x,-y,-z
x,-y,1/2+z
1/2+x,1/2+y,z
1/2-x,1/2+y,1/2-z
1/2-x,1/2-y,-z
1/2+x,1/2-y,1/2+z
loop_
_atom_site_type_symbol
_atom_site_label
_atom_site_fract_x
_atom_site_fract_y
_atom_site_fract_z
Si Si1 0.746044 0.061187 0.847311
Si Si2 0.254964 0.906897 0.994234
Si Si3 0.231118 0.269997 0.788348
Si Si4 0.260421 0.065285 0.961062
Si Si5 0.762099 0.598478 0.116769
Si Si6 0.331467 0.821081 0.842479
Si Si7 0.225807 0.387161 0.196698
O O1 0.503261 0.068096 0.903700
O O2 0.814066 0.088566 0.752224
O O3 0.795480 0.979243 0.843639
O O4 0.806292 0.102052 0.906469
O O5 0.497357 0.902349 0.938503
O O6 0.213282 0.859498 0.934141
O O7 0.208299 0.985525 0.985126
O O8 0.293642 0.335698 0.821050
O O9 0.293595 0.283168 0.689189
O O10 0.288923 0.195474 0.801401
O O11 0.988742 0.270260 0.842835
O O12 0.182013 0.089966 0.902366
O O13 0.194517 0.105256 0.049756
O O14 0.500000 0.863371 0.750000
O O15 0.000000 0.416653 0.250000
#
# Coordination Sequence:
#
# PCOD9256495 Si02
#       7
#     8   8   8   8   8   8   8
#     4   8  15  23  37  57  84 103 126 159 205 235
#     4   8  12  24  39  60  78  97 128 168 201 237
#     4   8  16  26  39  58  81 106 136 156 195 230
#     4   8  15  21  37  59  84 102 124 154 210 242
#     4   8  13  25  38  57  78 107 129 162 193 240
#     4   7  15  25  43  57  73 102 136 171 183 227
#     4  10  18  26  36  60  88 111 122 158 194 246
#
# _framework density 23.557925000000001
#
# number of rings (size 3 to 8) (size 9 to 14) (size 15 to 20)
#    0.857    2.857    0.000    1.714    2.000    1.143 
#    0.000    0.714    0.000    0.000    3.714    0.000 
#    0.000   11.429    0.000    0.000    0.000    0.000 
#
# Total GULP energy -156046.407001 kJ/mol
# GULP energy per Si atom -5573.085964 kJ/mol
# Density = 2.350431 g / cm^3
# Si number density = 23.557925 Si / 1000 Ang^3
#
#
#
# Elastic Constant Matrix: (Units=GPa)
#
#
# Indices 1 2 3 4 5 6 
#
# 1 73.0204 12.7449 49.6203 0.0000 11.2760 0.0000
# 2 12.7449 84.3894 70.8053 0.0000 19.7229 0.0000
# 3 49.6203 70.8053 155.7237 0.0000 23.3939 0.0000
# 4 0.0000 0.0000 0.0000 -44.4806 0.0000 11.9368
# 5 11.2760 19.7229 23.3939 0.0000 41.8747 0.0000
# 6 0.0000 0.0000 0.0000 11.9368 0.0000 10.6402
#
#
#
# Elastic Compliance Matrix: (Units=1/GPa)
#
#
# Indices 1 2 3 4 5 6 
#
# 1 0.018338 0.003929 -0.007215 0.000000 -0.002758 0.000000
# 2 0.003929 0.020825 -0.009921 0.000000 -0.005324 0.000000
# 3 -0.007215 -0.009921 0.013359 0.000000 -0.000848 0.000000
# 4 0.000000 0.000000 0.000000 -0.017279 0.000000 0.019385
# 5 -0.002758 -0.005324 -0.000848 0.000000 0.027604 0.000000
# 6 0.000000 0.000000 0.000000 0.019385 0.000000 0.072236
#
#
# Mechanical properties :
#
#
# Convention : Reuss Voigt Hill
#
# Bulk Modulus (GPa) = 38.30385 64.38606 51.34495
# Shear Modulus (GPa) = 29.37731 13.60438 21.49084
#
# Velocity S-wave (km/s) = 3.53515 2.40570 3.02363
# Velocity P-wave (km/s) = 5.74089 5.92510 5.83372
#
# Compressibility (1/GPa) = 0.02610703
#
# Stress axis : x y z
#
# Youngs Moduli (GPa) = 54.53130 48.02019 74.85616
#
# Poissons Ratio (x) = -0.18867 0.54012
# Poissons Ratio (y) = -0.21425 0.74263
# Poissons Ratio (z) = 0.39347 0.47640
#
# Static dielectric constant tensor:
#      x y z
#    x 2.018720 0.000000 -0.054740 
#    y 0.000000 1.815920 0.000000 
#    z -0.054740 0.000000 1.966370 
# 
# From -- ./inp_files/198734.got.cif
#   From: 2010.05.17/outbox.cif.g08.bks.cpg/sg15_100_cif.got.tgz:198734.got - 2010.06.03 18:47:42.
