data_PCOD9256240
_publ_section_title
;
Structure prediction by ZEFSAII (Michael W. Deem and Ramdas Pophale) SiO2 
 PCOD9256240
Probable space group: C 2/C
;
_chemical_formula_sum "Si O2"
_cell_formula_units_Z 56
_cell_length_a 13.845026
_cell_length_b 20.851007
_cell_length_c 12.048928
_cell_angle_alpha 90.000000
_cell_angle_beta 121.648392
_cell_angle_gamma 90.000000
_cell_volume 2961.036266
_symmetry_space_group_name_H-M "C 2/C"
_symmetry_group_IT_number 15
_symmetry_cell_setting 'monoclinic'
loop_
_space_group_symop_operation_xyz
x,y,z
-x,y,1/2-z
-x,-y,-z
x,-y,1/2+z
1/2+x,1/2+y,z
1/2-x,1/2+y,1/2-z
1/2-x,1/2-y,-z
1/2+x,1/2-y,1/2+z
loop_
_atom_site_type_symbol
_atom_site_label
_atom_site_fract_x
_atom_site_fract_y
_atom_site_fract_z
Si Si1 0.651230 0.888878 0.661207
Si Si2 0.293340 0.969387 0.023153
Si Si3 0.500000 0.953281 0.750000
Si Si4 0.143504 0.882670 0.092774
Si Si5 0.619667 0.540106 0.787291
Si Si6 0.146744 0.256986 0.524343
Si Si7 0.899721 0.901054 0.835066
Si Si8 0.500000 0.704745 0.250000
O O1 0.664782 0.939179 0.567797
O O2 0.549721 0.909875 0.680242
O O3 0.639770 0.820160 0.594110
O O4 0.771457 0.892773 0.800177
O O5 0.225336 0.915186 0.050690
O O6 0.397640 0.000897 0.149281
O O7 0.201766 0.024006 0.937615
O O8 0.172921 0.916045 0.225505
O O9 0.156111 0.806704 0.103780
O O10 0.011289 0.895062 0.978712
O O11 0.500000 0.569033 0.750000
O O12 0.593123 0.471128 0.715099
O O13 0.250000 0.250000 0.500000
O O14 0.040813 0.247107 0.377124
O O15 0.909971 0.845817 0.746563
#
# Coordination Sequence:
#
# PCOD9256240 Si02
#       8
#     8   8   4   8   8   8   8   4
#     4  11  23  41  64  84 129 168 207 252 302 382
#     4  11  22  42  64  91 121 159 209 259 304 371
#     4  12  28  43  58  91 130 178 202 238 324 388
#     4  11  22  36  64  96 121 152 207 265 309 361
#     4  11  20  33  59  94 124 148 188 254 320 362
#     4  11  20  41  61  91 118 157 206 252 303 354
#     4  10  17  35  62  91 119 150 192 262 318 344
#     4  10  18  33  64  95 112 146 210 258 298 350
#
# _framework density 18.912296999999999
#
# number of rings (size 3 to 8) (size 9 to 14) (size 15 to 20)
#    0.000    1.143    5.000    4.286    2.000    0.571 
#    3.857    0.000    0.000    4.286    0.000    0.000 
#    0.000    0.000    0.000    0.000    0.000    0.000 
#
# Total GULP energy -156245.481606 kJ/mol
# GULP energy per Si atom -5580.195772 kJ/mol
# Density = 1.886925 g / cm^3
# Si number density = 18.912297 Si / 1000 Ang^3
#
#
#
# Elastic Constant Matrix: (Units=GPa)
#
#
# Indices 1 2 3 4 5 6 
#
# 1 78.5743 31.2659 21.7461 0.0000 -7.0555 0.0000
# 2 31.2659 86.8361 42.5336 0.0000 1.3856 0.0000
# 3 21.7461 42.5336 42.3631 0.0000 3.0045 0.0000
# 4 0.0000 0.0000 0.0000 1.1835 0.0000 0.0400
# 5 -7.0555 1.3856 3.0045 0.0000 30.2885 0.0000
# 6 0.0000 0.0000 0.0000 0.0400 0.0000 18.8090
#
#
#
# Elastic Compliance Matrix: (Units=1/GPa)
#
#
# Indices 1 2 3 4 5 6 
#
# 1 0.015841 -0.003225 -0.005203 0.000000 0.004354 0.000000
# 2 -0.003225 0.023362 -0.021825 0.000000 0.000345 0.000000
# 3 -0.005203 -0.021825 0.048545 0.000000 -0.005029 0.000000
# 4 0.000000 0.000000 0.000000 0.844983 0.000000 -0.001797
# 5 0.004354 0.000345 -0.005029 0.000000 0.034513 0.000000
# 6 0.000000 0.000000 0.000000 -0.001797 0.000000 0.053170
#
#
# Mechanical properties :
#
#
# Convention : Reuss Voigt Hill
#
# Bulk Modulus (GPa) = 36.70588 44.31831 40.51210
# Shear Modulus (GPa) = 4.58716 17.53806 11.06261
#
# Velocity S-wave (km/s) = 1.55909 3.04852 2.42118
# Velocity P-wave (km/s) = 4.76357 5.98964 5.41144
#
# Compressibility (1/GPa) = 0.02724359
#
# Stress axis : x y z
#
# Youngs Moduli (GPa) = 63.12832 42.80530 20.59935
#
# Poissons Ratio (x) = 0.13804 0.10717
# Poissons Ratio (y) = 0.20357 0.44957
# Poissons Ratio (z) = 0.32843 0.93421
#
# Static dielectric constant tensor:
#      x y z
#    x 1.704570 0.000000 0.027200 
#    y 0.000000 1.637760 0.000000 
#    z 0.027200 0.000000 1.698200 
# 
# From -- ./inp_files/89579.got.cif
#   From: 2010.05.17/outbox.cif.g08.bks.cpg/sg15_45_cif.got.tgz:89579.got - 2010.06.03 18:47:42.
