data_PCOD9256179
_publ_section_title
;
Structure prediction by ZEFSAII (Michael W. Deem and Ramdas Pophale) SiO2 
 PCOD9256179
Probable space group: C 2/C
;
_chemical_formula_sum "Si O2"
_cell_formula_units_Z 44
_cell_length_a 7.209120
_cell_length_b 17.382460
_cell_length_c 21.960054
_cell_angle_alpha 90.000000
_cell_angle_beta 139.676735
_cell_angle_gamma 90.000000
_cell_volume 1780.729280
_symmetry_space_group_name_H-M "C 2/C"
_symmetry_group_IT_number 15
_symmetry_cell_setting 'monoclinic'
loop_
_space_group_symop_operation_xyz
x,y,z
-x,y,1/2-z
-x,-y,-z
x,-y,1/2+z
1/2+x,1/2+y,z
1/2-x,1/2+y,1/2-z
1/2-x,1/2-y,-z
1/2+x,1/2-y,1/2+z
loop_
_atom_site_type_symbol
_atom_site_label
_atom_site_fract_x
_atom_site_fract_y
_atom_site_fract_z
Si Si1 0.547059 0.042877 0.861689
Si Si2 0.474610 0.921256 0.936055
Si Si3 0.000000 0.182150 0.250000
Si Si4 0.403016 0.513932 0.344262
Si Si5 0.443632 0.171102 0.936201
Si Si6 0.902147 0.808414 0.856742
O O1 0.489227 0.117076 0.888670
O O2 0.637801 0.976385 0.931247
O O3 0.253485 0.016345 0.755459
O O4 0.779657 0.040434 0.866249
O O5 0.267014 0.868056 0.842147
O O6 0.236307 0.972124 0.913002
O O7 0.666007 0.872977 0.031359
O O8 0.105933 0.221745 0.214653
O O9 0.306487 0.602756 0.334826
O O10 0.278580 0.247005 0.873158
O O11 0.763731 0.189023 0.040623
#
# Coordination Sequence:
#
# PCOD9256179 Si02
#       6
#     8   8   4   8   8   8
#     4  11  18  33  55  84  98 141 185 219 254 328
#     4  10  17  35  52  78 103 141 170 223 263 312
#     4   8  14  28  56  64  94 144 164 194 268 304
#     4   9  20  32  58  74 109 139 180 213 269 309
#     4   9  20  30  55  79 108 137 182 217 270 314
#     4   9  17  36  49  78 110 145 170 223 269 320
#
# _framework density 24.708977000000001
#
# number of rings (size 3 to 8) (size 9 to 14) (size 15 to 20)
#    0.000    2.909    3.636    0.545    0.000    4.364 
#    0.000    0.909    8.000    0.000    0.000    0.000 
#    0.000    0.000    0.000    0.000    0.000    0.000 
#
# Total GULP energy -122744.843700 kJ/mol
# GULP energy per Si atom -5579.311077 kJ/mol
# Density = 2.465274 g / cm^3
# Si number density = 24.708977 Si / 1000 Ang^3
#
#
#
# Elastic Constant Matrix: (Units=GPa)
#
#
# Indices 1 2 3 4 5 6 
#
# 1 70.9895 11.4181 41.8728 -0.0001 0.3440 -0.0004
# 2 11.4181 61.4960 55.3046 -0.0006 -18.8721 0.0000
# 3 41.8728 55.3046 144.5817 -0.0015 -23.2570 0.0000
# 4 -0.0001 -0.0006 -0.0015 -8.0786 -0.0007 -15.9886
# 5 0.3440 -18.8721 -23.2570 -0.0007 43.3525 -0.0001
# 6 -0.0004 0.0000 0.0000 -15.9886 -0.0001 20.3386
#
#
#
# Elastic Compliance Matrix: (Units=1/GPa)
#
#
# Indices 1 2 3 4 5 6 
#
# 1 0.017425 0.001297 -0.005991 0.000000 -0.002788 0.000000
# 2 0.001297 0.026531 -0.009487 0.000000 0.006450 0.000000
# 3 -0.005991 -0.009487 0.012722 -0.000001 0.002742 -0.000001
# 4 0.000000 0.000000 -0.000001 -0.048432 -0.000001 -0.038073
# 5 -0.002788 0.006450 0.002742 -0.000001 0.027368 -0.000001
# 6 0.000000 0.000000 -0.000001 -0.038073 -0.000001 0.019237
#
#
# Mechanical properties :
#
#
# Convention : Reuss Voigt Hill
#
# Bulk Modulus (GPa) = 35.31491 54.91759 45.11625
# Shear Modulus (GPa) = 53.96513 22.35395 38.15954
#
# Velocity S-wave (km/s) = 4.67843 3.01107 3.93410
# Velocity P-wave (km/s) = 6.59598 5.86197 6.23978
#
# Compressibility (1/GPa) = 0.02831665
#
# Stress axis : x y z
#
# Youngs Moduli (GPa) = 57.38765 37.69112 78.60637
#
# Poissons Ratio (x) = -0.04889 0.47095
# Poissons Ratio (y) = -0.07444 0.74572
# Poissons Ratio (z) = 0.34382 0.35757
#
# Static dielectric constant tensor:
#      x y z
#    x 2.014220 0.000000 0.013290 
#    y 0.000000 2.104480 0.000000 
#    z 0.013290 0.000000 2.022380 
# 
# From -- ./inp_files/233327.got.cif
#   From: 2010.05.17/outbox.cif.g08.bks.cpg/sg15_117_cif.got.tgz:233327.got - 2010.06.03 18:47:42.
