data_PCOD9256837
_publ_section_title
;
Structure prediction by ZEFSAII (Michael W. Deem and Ramdas Pophale) SiO2 
 PCOD9256837
Probable space group: C 2/C
;
_chemical_formula_sum "Si O2"
_cell_formula_units_Z 40
_cell_length_a 26.580406
_cell_length_b 9.948125
_cell_length_c 9.490673
_cell_angle_alpha 90.000000
_cell_angle_beta 50.911197
_cell_angle_gamma 90.000000
_cell_volume 1947.854469
_symmetry_space_group_name_H-M "C 2/C"
_symmetry_group_IT_number 15
_symmetry_cell_setting 'monoclinic'
loop_
_space_group_symop_operation_xyz
x,y,z
-x,y,1/2-z
-x,-y,-z
x,-y,1/2+z
1/2+x,1/2+y,z
1/2-x,1/2+y,1/2-z
1/2-x,1/2-y,-z
1/2+x,1/2-y,1/2+z
loop_
_atom_site_type_symbol
_atom_site_label
_atom_site_fract_x
_atom_site_fract_y
_atom_site_fract_z
Si Si1 0.232900 0.419873 0.919813
Si Si2 0.512205 0.794611 0.881561
Si Si3 0.205344 0.118851 0.902407
Si Si4 0.935244 0.817019 0.937026
Si Si5 0.085714 0.422922 0.235480
O O1 0.228629 0.273351 0.856574
O O2 0.250032 0.529189 0.774684
O O3 0.285472 0.420707 0.951150
O O4 0.162333 0.440811 0.113622
O O5 0.500000 0.734266 0.750000
O O6 0.551434 0.933475 0.788421
O O7 0.551228 0.702631 0.922223
O O8 0.446780 0.839174 0.079676
O O9 0.131086 0.109851 0.984019
O O10 0.926857 0.667315 0.881815
O O11 0.000000 0.874141 0.750000
#
# Coordination Sequence:
#
# PCOD9256837 Si02
#       5
#     8   8   8   8   8
#     4  10  23  41  64  93 129 165 206 256 315 375
#     4  10  18  29  55  91 120 157 205 258 315 360
#     4  10  23  43  63  92 123 171 207 259 312 368
#     4   9  19  38  57  83 123 164 204 258 307 363
#     4   9  18  32  55  86 126 156 195 261 319 359
#
# _framework density 20.535415
#
# number of rings (size 3 to 8) (size 9 to 14) (size 15 to 20)
#    0.000    2.400    0.000    3.000    8.400    0.800 
#    0.000    1.000    0.000    0.000    0.000    0.000 
#    0.000    0.000    0.000    0.000    0.000    0.000 
#
# Total GULP energy -111726.935954 kJ/mol
# GULP energy per Si atom -5586.346798 kJ/mol
# Density = 2.048868 g / cm^3
# Si number density = 20.535415 Si / 1000 Ang^3
#
#
#
# Elastic Constant Matrix: (Units=GPa)
#
#
# Indices 1 2 3 4 5 6 
#
# 1 117.8261 20.1016 54.5728 0.0000 27.3155 0.0000
# 2 20.1016 38.3162 41.1739 0.0000 -0.8008 0.0000
# 3 54.5728 41.1739 70.1430 0.0000 22.6839 0.0000
# 4 0.0000 0.0000 0.0000 -0.2168 0.0000 0.9249
# 5 27.3155 -0.8008 22.6839 0.0000 24.6185 0.0000
# 6 0.0000 0.0000 0.0000 0.9249 0.0000 2.6786
#
#
#
# Elastic Compliance Matrix: (Units=1/GPa)
#
#
# Indices 1 2 3 4 5 6 
#
# 1 0.015690 0.024200 -0.029967 0.000000 0.010990 0.000000
# 2 0.024200 0.419393 -0.371414 0.000000 0.329018 0.000000
# 3 -0.029967 -0.371414 0.354329 0.000000 -0.305316 0.000000
# 4 0.000000 0.000000 0.000000 -1.864908 0.000000 0.643974
# 5 0.010990 0.329018 -0.305316 0.000000 0.320451 0.000000
# 6 0.000000 0.000000 0.000000 0.643974 0.000000 0.150959
#
#
# Mechanical properties :
#
#
# Convention : Reuss Voigt Hill
#
# Bulk Modulus (GPa) = 28.53057 50.88688 39.70872
# Shear Modulus (GPa) = 30.87180 12.77852 21.82516
#
# Velocity S-wave (km/s) = 3.88150 2.49724 3.26361
# Velocity P-wave (km/s) = 5.83195 5.75750 5.79484
#
# Compressibility (1/GPa) = 0.03505012
#
# Stress axis : x y z
#
# Youngs Moduli (GPa) = 63.73393 2.38440 2.82224
#
# Poissons Ratio (x) = -0.05770 0.08457
# Poissons Ratio (y) = -1.54234 1.04822
# Poissons Ratio (z) = 1.90989 0.88560
#
# Static dielectric constant tensor:
#      x y z
#    x 1.764850 0.000000 -0.000840 
#    y 0.000000 1.711890 0.000000 
#    z -0.000840 0.000000 1.712170 
# 
# From -- ./inp_files/60455.got.cif
#   From: 2010.05.17/outbox.cif.g08.bks.cpg/sg15_31_cif.got.tgz:60455.got - 2010.06.03 18:47:42.
