data_PCOD9256371
_publ_section_title
;
Structure prediction by ZEFSAII (Michael W. Deem and Ramdas Pophale) SiO2 
 PCOD9256371
Probable space group: C 2/C
;
_chemical_formula_sum "Si O2"
_cell_formula_units_Z 64
_cell_length_a 19.477087
_cell_length_b 11.397393
_cell_length_c 18.109567
_cell_angle_alpha 90.000000
_cell_angle_beta 38.408704
_cell_angle_gamma 90.000000
_cell_volume 2497.559014
_symmetry_space_group_name_H-M "C 2/C"
_symmetry_group_IT_number 15
_symmetry_cell_setting 'monoclinic'
loop_
_space_group_symop_operation_xyz
x,y,z
-x,y,1/2-z
-x,-y,-z
x,-y,1/2+z
1/2+x,1/2+y,z
1/2-x,1/2+y,1/2-z
1/2-x,1/2-y,-z
1/2+x,1/2-y,1/2+z
loop_
_atom_site_type_symbol
_atom_site_label
_atom_site_fract_x
_atom_site_fract_y
_atom_site_fract_z
Si Si1 0.557398 0.969773 0.277931
Si Si2 0.624385 0.326739 0.070188
Si Si3 0.012890 0.233616 0.097423
Si Si4 0.719608 0.589695 0.983963
Si Si5 0.288435 0.389935 0.841666
Si Si6 0.311915 0.862576 0.724967
Si Si7 0.942551 0.116051 0.019897
Si Si8 0.698471 0.333837 0.157791
O O1 0.500000 0.015354 0.250000
O O2 0.485286 0.865515 0.373687
O O3 0.669982 0.907137 0.156277
O O4 0.596374 0.061664 0.308156
O O5 0.692766 0.450199 0.014981
O O6 0.611422 0.300669 0.167066
O O7 0.534787 0.360707 0.084923
O O8 0.691014 0.221001 0.974527
O O9 0.906128 0.167513 0.223005
O O10 0.983615 0.223094 0.035599
O O11 0.118251 0.156006 0.030865
O O12 0.735101 0.637684 0.053496
O O13 0.199378 0.359580 0.853630
O O14 0.296484 0.530027 0.832101
O O15 0.188797 0.904029 0.855776
O O16 0.315563 0.733254 0.754588
O O17 0.000000 0.000000 0.000000
#
# Coordination Sequence:
#
# PCOD9256371 Si02
#       8
#     8   8   8   8   8   8   8   8
#     4  12  26  44  69  95 138 186 223 276 351 422
#     4   9  17  33  67  96 128 173 226 274 337 396
#     4  11  24  40  67 106 133 179 235 276 338 404
#     4  11  21  46  69  98 140 178 230 287 337 403
#     4  10  23  37  70 100 137 174 235 287 335 401
#     4  10  22  40  62  98 137 179 223 283 346 403
#     4  10  17  36  66  98 133 164 221 285 339 389
#     4   9  18  37  63  94 132 178 222 275 343 395
#
# _framework density 25.625022000000001
#
# number of rings (size 3 to 8) (size 9 to 14) (size 15 to 20)
#    0.000    1.750    3.750    1.125    5.250    2.000 
#    0.000    3.125    0.000    0.000    0.000    0.000 
#    0.000    0.000    0.000    0.000    0.000    0.000 
#
# Total GULP energy -179194.743923 kJ/mol
# GULP energy per Si atom -5599.835748 kJ/mol
# Density = 2.556670 g / cm^3
# Si number density = 25.625022 Si / 1000 Ang^3
#
#
#
# Elastic Constant Matrix: (Units=GPa)
#
#
# Indices 1 2 3 4 5 6 
#
# 1 198.1776 39.0232 34.7463 0.0000 22.3795 0.0000
# 2 39.0232 99.1434 3.7053 0.0000 -3.1064 0.0000
# 3 34.7463 3.7053 68.6047 0.0000 9.6257 0.0000
# 4 0.0000 0.0000 0.0000 22.3418 0.0000 -4.7197
# 5 22.3795 -3.1064 9.6257 0.0000 62.6668 0.0000
# 6 0.0000 0.0000 0.0000 -4.7197 0.0000 47.9487
#
#
#
# Elastic Compliance Matrix: (Units=1/GPa)
#
#
# Indices 1 2 3 4 5 6 
#
# 1 0.006218 -0.002405 -0.002750 0.000000 -0.001917 0.000000
# 2 -0.002405 0.011059 0.000433 0.000000 0.001341 0.000000
# 3 -0.002750 0.000433 0.016153 0.000000 -0.001477 0.000000
# 4 0.000000 0.000000 0.000000 0.045710 0.000000 0.004499
# 5 -0.001917 0.001341 -0.001477 0.000000 0.016936 0.000000
# 6 0.000000 0.000000 0.000000 0.004499 0.000000 0.021298
#
#
# Mechanical properties :
#
#
# Convention : Reuss Voigt Hill
#
# Bulk Modulus (GPa) = 41.69284 57.87502 49.78393
# Shear Modulus (GPa) = 37.08805 45.82152 41.45478
#
# Velocity S-wave (km/s) = 3.80852 4.23325 4.02649
# Velocity P-wave (km/s) = 5.97038 6.82116 6.40990
#
# Compressibility (1/GPa) = 0.02398494
#
# Stress axis : x y z
#
# Youngs Moduli (GPa) = 160.81631 90.42586 61.90708
#
# Poissons Ratio (x) = 0.21746 0.17027
# Poissons Ratio (y) = 0.38673 -0.02678
# Poissons Ratio (z) = 0.44232 -0.03912
#
# Static dielectric constant tensor:
#      x y z
#    x 2.052270 0.000000 -0.037930 
#    y 0.000000 1.969460 0.000000 
#    z -0.037930 0.000000 2.104670 
# 
# From -- ./inp_files/248616.got.cif
#   From: 2010.05.17/outbox.cif.g08.bks.cpg/sg15_125_cif.got.tgz:248616.got - 2010.06.03 18:47:42.
