data_PCOD9256818
_publ_section_title
;
Structure prediction by ZEFSAII (Michael W. Deem and Ramdas Pophale) SiO2 
 PCOD9256818
Probable space group: C 2/C
;
_chemical_formula_sum "Si O2"
_cell_formula_units_Z 56
_cell_length_a 26.065750
_cell_length_b 7.849924
_cell_length_c 14.191052
_cell_angle_alpha 90.000000
_cell_angle_beta 45.737452
_cell_angle_gamma 90.000000
_cell_volume 2079.475098
_symmetry_space_group_name_H-M "C 2/C"
_symmetry_group_IT_number 15
_symmetry_cell_setting 'monoclinic'
loop_
_space_group_symop_operation_xyz
x,y,z
-x,y,1/2-z
-x,-y,-z
x,-y,1/2+z
1/2+x,1/2+y,z
1/2-x,1/2+y,1/2-z
1/2-x,1/2-y,-z
1/2+x,1/2-y,1/2+z
loop_
_atom_site_type_symbol
_atom_site_label
_atom_site_fract_x
_atom_site_fract_y
_atom_site_fract_z
Si Si1 0.373395 0.029674 0.840778
Si Si2 0.534245 0.181054 0.927566
Si Si3 0.761405 0.687513 0.266967
Si Si4 0.397977 0.315653 0.182651
Si Si5 0.578822 0.463534 0.670507
Si Si6 0.737968 0.352315 0.411632
Si Si7 0.885561 0.299306 0.985239
O O1 0.385107 0.851302 0.767390
O O2 0.293092 0.103523 0.926101
O O3 0.426709 0.160036 0.721365
O O4 0.396760 0.975875 0.915518
O O5 0.591356 0.207304 0.936784
O O6 0.468377 0.305340 0.028217
O O7 0.500000 0.000000 0.000000
O O8 0.831498 0.797727 0.198733
O O9 0.765062 0.497912 0.302365
O O10 0.698338 0.765066 0.410716
O O11 0.748915 0.689635 0.171375
O O12 0.406604 0.473813 0.241139
O O13 0.500000 0.389212 0.750000
O O14 0.653697 0.377974 0.540921
O O15 0.576302 0.642083 0.614251
#
# Coordination Sequence:
#
# PCOD9256818 Si02
#       7
#     8   8   8   8   8   8   8
#     4   9  18  31  54  88 115 143 196 246 298 343
#     4  10  18  29  52  87 121 146 186 248 302 340
#     4  10  20  36  58  84 117 154 197 238 297 344
#     4   9  18  31  52  83 115 146 190 247 293 339
#     4  10  18  31  54  80 109 147 199 246 284 339
#     4  10  20  35  58  87 113 154 196 244 289 352
#     4  10  18  32  56  84 117 150 194 250 296 341
#
# _framework density 26.929874000000002
#
# number of rings (size 3 to 8) (size 9 to 14) (size 15 to 20)
#    0.000    2.286    2.857    0.857    0.000    3.429 
#    0.000    0.714    0.000    5.143    0.000    0.000 
#    0.000    0.000    0.000    0.000    0.000    0.000 
#
# Total GULP energy -156805.056321 kJ/mol
# GULP energy per Si atom -5600.180583 kJ/mol
# Density = 2.686858 g / cm^3
# Si number density = 26.929874 Si / 1000 Ang^3
#
#
#
# Elastic Constant Matrix: (Units=GPa)
#
#
# Indices 1 2 3 4 5 6 
#
# 1 131.4345 24.0622 47.9387 0.0000 -9.6598 0.0000
# 2 24.0622 65.0153 7.6780 -0.0003 -6.7568 0.0004
# 3 47.9387 7.6780 144.3774 -0.0001 -19.7922 0.0001
# 4 0.0000 -0.0003 -0.0001 33.1855 0.0000 4.8240
# 5 -9.6598 -6.7568 -19.7922 0.0000 51.3076 0.0000
# 6 0.0000 0.0004 0.0001 4.8240 0.0000 35.8902
#
#
#
# Elastic Compliance Matrix: (Units=1/GPa)
#
#
# Indices 1 2 3 4 5 6 
#
# 1 0.009232 -0.003054 -0.002872 0.000000 0.000228 0.000000
# 2 -0.003054 0.016650 0.000370 0.000000 0.001760 0.000000
# 3 -0.002872 0.000370 0.008228 0.000000 0.002682 0.000000
# 4 0.000000 0.000000 0.000000 0.030734 0.000000 -0.004131
# 5 0.000228 0.001760 0.002682 0.000000 0.020800 0.000000
# 6 0.000000 0.000000 0.000000 -0.004131 0.000000 0.028418
#
#
# Mechanical properties :
#
#
# Convention : Reuss Voigt Hill
#
# Bulk Modulus (GPa) = 43.48050 55.57610 49.52830
# Shear Modulus (GPa) = 37.63960 41.48654 39.56307
#
# Velocity S-wave (km/s) = 3.74262 3.92923 3.83706
# Velocity P-wave (km/s) = 5.90400 6.42396 6.16946
#
# Compressibility (1/GPa) = 0.02299881
#
# Stress axis : x y z
#
# Youngs Moduli (GPa) = 108.32439 60.05831 121.53999
#
# Poissons Ratio (x) = 0.18340 0.34901
# Poissons Ratio (y) = 0.33080 -0.04495
# Poissons Ratio (z) = 0.31106 -0.02221
#
# Static dielectric constant tensor:
#      x y z
#    x 2.441980 0.000000 0.061020 
#    y 0.000000 2.182060 0.000000 
#    z 0.061020 0.000000 2.086410 
# 
# From -- ./inp_files/177542.got.cif
#   From: 2010.05.17/outbox.cif.g08.bks.cpg/sg15_89_cif.got.tgz:177542.got - 2010.06.03 18:47:42.
