data_PCOD9256988
_publ_section_title
;
Structure prediction by ZEFSAII (Michael W. Deem and Ramdas Pophale) SiO2 
 PCOD9256988
Probable space group: C 2/C
;
_chemical_formula_sum "Si O2"
_cell_formula_units_Z 48
_cell_length_a 23.882724
_cell_length_b 9.770209
_cell_length_c 16.314660
_cell_angle_alpha 90.000000
_cell_angle_beta 44.367564
_cell_angle_gamma 90.000000
_cell_volume 2661.973046
_symmetry_space_group_name_H-M "C 2/C"
_symmetry_group_IT_number 15
_symmetry_cell_setting 'monoclinic'
loop_
_space_group_symop_operation_xyz
x,y,z
-x,y,1/2-z
-x,-y,-z
x,-y,1/2+z
1/2+x,1/2+y,z
1/2-x,1/2+y,1/2-z
1/2-x,1/2-y,-z
1/2+x,1/2-y,1/2+z
loop_
_atom_site_type_symbol
_atom_site_label
_atom_site_fract_x
_atom_site_fract_y
_atom_site_fract_z
Si Si1 0.796208 0.507993 0.825148
Si Si2 0.198280 0.966340 0.268300
Si Si3 0.389215 0.710258 0.236958
Si Si4 0.124809 0.987666 0.597676
Si Si5 0.182820 0.778738 0.137053
Si Si6 0.455866 0.405762 0.979814
O O1 0.765979 0.500414 0.763039
O O2 0.848343 0.643141 0.781807
O O3 0.841134 0.368454 0.802968
O O4 0.714705 0.517977 0.965276
O O5 0.221319 0.870907 0.168482
O O6 0.129554 0.880472 0.388715
O O7 0.160181 0.105448 0.270662
O O8 0.387424 0.638728 0.327987
O O9 0.480614 0.711173 0.108971
O O10 0.065190 0.981247 0.583418
O O11 0.118595 0.124241 0.659448
O O12 0.250000 0.750000 0.000000
O O13 0.500000 0.500000 0.000000
#
# Coordination Sequence:
#
# PCOD9256988 Si02
#       6
#     8   8   8   8   8   8
#     4  10  18  30  50  79 106 129 167 217 259 300
#     4   9  18  32  50  74 104 136 170 209 256 309
#     4  10  18  30  51  75  98 133 173 212 251 300
#     4   9  18  32  51  73 102 135 169 208 255 313
#     4   9  18  32  51  76 105 138 171 207 257 312
#     4   9  18  32  52  73  95 131 177 213 250 306
#
# _framework density 18.031737
#
# number of rings (size 3 to 8) (size 9 to 14) (size 15 to 20)
#    0.000    2.667    0.000    2.000    0.000    1.333 
#    0.000    0.833    0.000   12.000    0.000    0.000 
#    0.000    0.000    0.000    0.000    0.000    0.000 
#
# Total GULP energy -133655.886404 kJ/mol
# GULP energy per Si atom -5568.995267 kJ/mol
# Density = 1.799070 g / cm^3
# Si number density = 18.031737 Si / 1000 Ang^3
#
#
#
# Elastic Constant Matrix: (Units=GPa)
#
#
# Indices 1 2 3 4 5 6 
#
# 1 114.2909 54.3339 35.6871 0.0001 24.0479 -0.0001
# 2 54.3339 131.1167 34.8794 0.0004 5.7415 -0.0004
# 3 35.6871 34.8794 48.6440 0.0002 15.8989 -0.0002
# 4 0.0001 0.0004 0.0002 26.4009 -0.0001 5.0792
# 5 24.0479 5.7415 15.8989 -0.0001 30.9481 0.0001
# 6 -0.0001 -0.0004 -0.0002 5.0792 0.0001 10.8879
#
#
#
# Elastic Compliance Matrix: (Units=1/GPa)
#
#
# Indices 1 2 3 4 5 6 
#
# 1 0.013753 -0.004127 -0.004673 0.000000 -0.007521 0.000000
# 2 -0.004127 0.010775 -0.006121 0.000000 0.004352 0.000000
# 3 -0.004673 -0.006121 0.032228 0.000000 -0.011790 0.000001
# 4 0.000000 0.000000 0.000000 0.041612 0.000000 -0.019412
# 5 -0.007521 0.004352 -0.011790 0.000000 0.043405 -0.000001
# 6 0.000000 0.000000 0.000001 -0.019412 -0.000001 0.100901
#
#
# Mechanical properties :
#
#
# Convention : Reuss Voigt Hill
#
# Bulk Modulus (GPa) = 37.15387 60.42804 48.79096
# Shear Modulus (GPa) = 17.76293 24.92411 21.34352
#
# Velocity S-wave (km/s) = 3.14202 3.72188 3.44417
# Velocity P-wave (km/s) = 5.81485 7.21489 6.55237
#
# Compressibility (1/GPa) = 0.02691509
#
# Stress axis : x y z
#
# Youngs Moduli (GPa) = 72.71216 92.81158 31.02937
#
# Poissons Ratio (x) = 0.38301 0.14499
# Poissons Ratio (y) = 0.30007 0.18992
# Poissons Ratio (z) = 0.33975 0.56806
#
# Static dielectric constant tensor:
#      x y z
#    x 1.633220 0.000000 0.003060 
#    y 0.000000 1.613730 0.000000 
#    z 0.003060 0.000000 1.650800 
# 
# From -- ./inp_files/214088.got.cif
#   From: 2010.05.17/outbox.cif.g08.bks.cpg/sg15_108_cif.got.tgz:214088.got - 2010.06.03 18:47:42.
