data_PCOD9256923
_publ_section_title
;
Structure prediction by ZEFSAII (Michael W. Deem and Ramdas Pophale) SiO2 
 PCOD9256923
Probable space group: C 2/C
;
_chemical_formula_sum "Si O2"
_cell_formula_units_Z 60
_cell_length_a 13.910199
_cell_length_b 20.624344
_cell_length_c 20.833619
_cell_angle_alpha 90.000000
_cell_angle_beta 151.494722
_cell_angle_gamma 90.000000
_cell_volume 2852.428591
_symmetry_space_group_name_H-M "C 2/C"
_symmetry_group_IT_number 15
_symmetry_cell_setting 'monoclinic'
loop_
_space_group_symop_operation_xyz
x,y,z
-x,y,1/2-z
-x,-y,-z
x,-y,1/2+z
1/2+x,1/2+y,z
1/2-x,1/2+y,1/2-z
1/2-x,1/2-y,-z
1/2+x,1/2-y,1/2+z
loop_
_atom_site_type_symbol
_atom_site_label
_atom_site_fract_x
_atom_site_fract_y
_atom_site_fract_z
Si Si1 0.087348 0.019220 0.401549
Si Si2 0.000000 0.688863 0.750000
Si Si3 0.176952 0.450245 0.585219
Si Si4 0.997573 0.125220 0.671566
Si Si5 0.425140 0.376122 0.505198
Si Si6 0.036307 0.215613 0.956210
Si Si7 0.076876 0.329149 0.062232
Si Si8 0.573823 0.736958 0.171223
O O1 0.259073 0.045792 0.452804
O O2 0.079790 0.051873 0.467547
O O3 0.875855 0.032713 0.241666
O O4 0.100865 0.941325 0.409862
O O5 0.804473 0.644719 0.641363
O O6 0.027302 0.736464 0.825227
O O7 0.000000 0.500000 0.500000
O O8 0.091720 0.380234 0.554749
O O9 0.905595 0.184737 0.577572
O O10 0.237547 0.130887 0.798656
O O11 0.000000 0.125553 0.750000
O O12 0.533118 0.344935 0.505326
O O13 0.521268 0.335143 0.620350
O O14 0.810941 0.246119 0.816665
O O15 0.152709 0.277513 0.053536
O O16 0.991723 0.281101 0.065419
#
# Coordination Sequence:
#
# PCOD9256923 Si02
#       8
#     8   4   8   8   8   8   8   8
#     4  11  22  35  59  90 118 162 200 243 297 361
#     4  10  18  30  48  80 120 162 186 246 294 346
#     4  11  20  36  58  89 119 153 196 253 295 353
#     4  11  21  40  58  85 116 150 205 246 299 357
#     4  10  20  34  52  85 118 154 205 237 300 369
#     4   9  21  36  58  82 115 156 193 251 305 351
#     4  10  19  36  59  82 114 153 193 245 303 347
#     4   9  18  32  51  80 116 153 193 239 293 360
#
# _framework density 21.034707000000001
#
# number of rings (size 3 to 8) (size 9 to 14) (size 15 to 20)
#    0.000    1.867    2.667    2.000    0.000    4.267 
#    0.000    0.000    0.000    0.000    0.000    0.000 
#    0.000    0.000    0.000    0.000    0.000    0.000 
#
# Total GULP energy -167232.619770 kJ/mol
# GULP energy per Si atom -5574.420659 kJ/mol
# Density = 2.098683 g / cm^3
# Si number density = 21.034707 Si / 1000 Ang^3
#
#
#
# Elastic Constant Matrix: (Units=GPa)
#
#
# Indices 1 2 3 4 5 6 
#
# 1 70.5671 44.6554 10.7173 -0.0018 -5.7565 -0.0023
# 2 44.6554 113.0507 12.2761 0.0007 -20.5648 0.0004
# 3 10.7173 12.2761 39.1788 -0.0048 -11.6428 -0.0049
# 4 -0.0018 0.0007 -0.0048 38.0668 -0.0013 2.0379
# 5 -5.7565 -20.5648 -11.6428 -0.0013 15.8076 0.0011
# 6 -0.0023 0.0004 -0.0049 2.0379 0.0011 25.5981
#
#
#
# Elastic Compliance Matrix: (Units=1/GPa)
#
#
# Indices 1 2 3 4 5 6 
#
# 1 0.019797 -0.008693 -0.005005 0.000000 -0.007786 0.000001
# 2 -0.008693 0.015441 0.003288 0.000000 0.019344 -0.000001
# 3 -0.005005 0.003288 0.034044 0.000005 0.027529 0.000004
# 4 0.000000 0.000000 0.000005 0.026382 0.000006 -0.002100
# 5 -0.007786 0.019344 0.027529 0.000006 0.105867 -0.000001
# 6 0.000001 -0.000001 0.000004 -0.002100 -0.000001 0.039233
#
#
# Mechanical properties :
#
#
# Convention : Reuss Voigt Hill
#
# Bulk Modulus (GPa) = 20.63477 39.78825 30.21151
# Shear Modulus (GPa) = 18.00263 26.23768 22.12015
#
# Velocity S-wave (km/s) = 2.92867 3.53562 3.24636
# Velocity P-wave (km/s) = 4.61165 5.96859 5.33345
#
# Compressibility (1/GPa) = 0.04846188
#
# Stress axis : x y z
#
# Youngs Moduli (GPa) = 50.51349 64.76271 29.37379
#
# Poissons Ratio (x) = 0.56295 0.14703
# Poissons Ratio (y) = 0.43909 -0.09659
# Poissons Ratio (z) = 0.25285 -0.21295
#
# Static dielectric constant tensor:
#      x y z
#    x 1.810810 0.000000 -0.034430 
#    y 0.000000 1.790230 0.000000 
#    z -0.034430 0.000000 1.785210 
# 
# From -- ./inp_files/245460.got.cif
#   From: 2010.05.17/outbox.cif.g08.bks.cpg/sg15_123_cif.got.tgz:245460.got - 2010.06.03 18:47:42.
