data_PCOD9256631
_publ_section_title
;
Structure prediction by ZEFSAII (Michael W. Deem and Ramdas Pophale) SiO2 
 PCOD9256631
Probable space group: C 2/C
;
_chemical_formula_sum "Si O2"
_cell_formula_units_Z 64
_cell_length_a 19.264858
_cell_length_b 25.925745
_cell_length_c 8.774167
_cell_angle_alpha 90.000000
_cell_angle_beta 130.814193
_cell_angle_gamma 90.000000
_cell_volume 3316.676484
_symmetry_space_group_name_H-M "C 2/C"
_symmetry_group_IT_number 15
_symmetry_cell_setting 'monoclinic'
loop_
_space_group_symop_operation_xyz
x,y,z
-x,y,1/2-z
-x,-y,-z
x,-y,1/2+z
1/2+x,1/2+y,z
1/2-x,1/2+y,1/2-z
1/2-x,1/2-y,-z
1/2+x,1/2-y,1/2+z
loop_
_atom_site_type_symbol
_atom_site_label
_atom_site_fract_x
_atom_site_fract_y
_atom_site_fract_z
Si Si1 0.495070 0.578559 0.914415
Si Si2 0.760181 0.644572 0.822533
Si Si3 0.819128 0.959420 0.332280
Si Si4 0.071078 0.809517 0.110089
Si Si5 0.208929 0.333637 0.467839
Si Si6 0.601839 0.780861 0.892628
Si Si7 0.697149 0.566428 0.331200
Si Si8 0.886931 0.237989 0.249631
O O1 0.500000 0.556683 0.750000
O O2 0.422844 0.547585 0.916259
O O3 0.459797 0.637470 0.854684
O O4 0.595302 0.581523 0.130605
O O5 0.737125 0.586309 0.830835
O O6 0.663523 0.673672 0.659050
O O7 0.809372 0.646130 0.729805
O O8 0.820815 0.676895 0.026446
O O9 0.812104 0.947730 0.502235
O O10 0.781608 0.014923 0.232574
O O11 0.097430 0.765204 0.266411
O O12 0.986318 0.788456 0.890181
O O13 0.232116 0.386188 0.591172
O O14 0.132898 0.288655 0.383749
O O15 0.304385 0.301979 0.609004
O O16 0.500000 0.804473 0.750000
O O17 0.621585 0.756564 0.086430
#
# Coordination Sequence:
#
# PCOD9256631 Si02
#       8
#     8   8   8   8   8   8   8   8
#     4  11  20  31  48  73 103 138 170 207 249 304
#     4   9  19  32  46  73  99 130 161 204 247 296
#     4  10  22  34  49  70  96 132 175 215 252 301
#     4  10  18  28  48  73 105 132 158 201 248 303
#     4   9  18  30  49  65  97 125 172 200 242 295
#     4   9  17  30  50  72 103 126 163 197 242 304
#     4  11  20  35  49  69  96 136 173 217 255 292
#     4   9  16  30  45  73  93 127 161 200 237 300
#
# _framework density 19.296424999999999
#
# number of rings (size 3 to 8) (size 9 to 14) (size 15 to 20)
#    0.000    2.250    1.250    3.000    0.000    0.500 
#    0.000    0.000    0.000    0.000    0.000   14.000 
#    0.000    0.000    0.000    0.000    0.000    0.000 
#
# Total GULP energy -178377.745889 kJ/mol
# GULP energy per Si atom -5574.304559 kJ/mol
# Density = 1.925251 g / cm^3
# Si number density = 19.296425 Si / 1000 Ang^3
#
#
#
# Elastic Constant Matrix: (Units=GPa)
#
#
# Indices 1 2 3 4 5 6 
#
# 1 19.0146 0.5689 2.1923 0.0000 0.3916 0.0000
# 2 0.5689 95.9097 28.5541 0.0000 18.6721 0.0000
# 3 2.1923 28.5541 57.7397 0.0000 -3.4379 0.0000
# 4 0.0000 0.0000 0.0000 34.5721 0.0000 9.7309
# 5 0.3916 18.6721 -3.4379 0.0000 23.5144 0.0000
# 6 0.0000 0.0000 0.0000 9.7309 0.0000 7.4576
#
#
#
# Elastic Compliance Matrix: (Units=1/GPa)
#
#
# Indices 1 2 3 4 5 6 
#
# 1 0.052896 0.000803 -0.002518 0.000000 -0.001887 0.000000
# 2 0.000803 0.015641 -0.008581 0.000000 -0.013688 0.000000
# 3 -0.002518 -0.008581 0.022260 0.000000 0.010110 0.000000
# 4 0.000000 0.000000 0.000000 0.045715 0.000000 -0.059650
# 5 -0.001887 -0.013688 0.010110 0.000000 0.054906 0.000000
# 6 0.000000 0.000000 0.000000 -0.059650 0.000000 0.211925
#
#
# Mechanical properties :
#
#
# Convention : Reuss Voigt Hill
#
# Bulk Modulus (GPa) = 14.24361 26.14385 20.19373
# Shear Modulus (GPa) = 11.17729 22.53208 16.85468
#
# Velocity S-wave (km/s) = 2.40935 3.42084 2.95864
# Velocity P-wave (km/s) = 3.89069 5.40193 4.70735
#
# Compressibility (1/GPa) = 0.07020692
#
# Stress axis : x y z
#
# Youngs Moduli (GPa) = 18.90489 63.93401 44.92366
#
# Poissons Ratio (x) = -0.05135 0.11312
# Poissons Ratio (y) = -0.01519 0.38547
# Poissons Ratio (z) = 0.04760 0.54859
#
# Static dielectric constant tensor:
#      x y z
#    x 1.700210 0.000000 -0.015380 
#    y 0.000000 1.719410 0.000000 
#    z -0.015380 0.000000 1.694590 
# 
# From -- ./inp_files/58635.got.cif
#   From: 2010.05.17/outbox.cif.g08.bks.cpg/sg15_30_cif.got.tgz:58635.got - 2010.06.03 18:47:42.
