data_PCOD9256758
_publ_section_title
;
Structure prediction by ZEFSAII (Michael W. Deem and Ramdas Pophale) SiO2 
 PCOD9256758
Probable space group: C 2/C
;
_chemical_formula_sum "Si O2"
_cell_formula_units_Z 40
_cell_length_a 13.923335
_cell_length_b 19.704988
_cell_length_c 5.533465
_cell_angle_alpha 90.000000
_cell_angle_beta 103.889358
_cell_angle_gamma 90.000000
_cell_volume 1473.767492
_symmetry_space_group_name_H-M "C 2/C"
_symmetry_group_IT_number 15
_symmetry_cell_setting 'monoclinic'
loop_
_space_group_symop_operation_xyz
x,y,z
-x,y,1/2-z
-x,-y,-z
x,-y,1/2+z
1/2+x,1/2+y,z
1/2-x,1/2+y,1/2-z
1/2-x,1/2-y,-z
1/2+x,1/2-y,1/2+z
loop_
_atom_site_type_symbol
_atom_site_label
_atom_site_fract_x
_atom_site_fract_y
_atom_site_fract_z
Si Si1 0.278524 0.596652 0.092826
Si Si2 0.456385 0.077325 0.475901
Si Si3 0.612378 0.586189 0.842079
Si Si4 0.364463 0.252491 0.117213
Si Si5 0.602547 0.731549 0.355024
O O1 0.163562 0.580011 0.071662
O O2 0.337481 0.571468 0.367917
O O3 0.308195 0.677276 0.095211
O O4 0.320945 0.571976 0.857420
O O5 0.500000 0.105845 0.250000
O O6 0.500000 0.000000 0.500000
O O7 0.500000 0.105956 0.750000
O O8 0.500000 0.559578 0.750000
O O9 0.605563 0.668601 0.843839
O O10 0.393618 0.227316 0.396211
O O11 0.250000 0.250000 0.000000
O O12 0.399422 0.223688 0.885448
O O13 0.500000 0.690514 0.250000
#
# Coordination Sequence:
#
# PCOD9256758 Si02
#       5
#     8   8   8   8   8
#     4  10  18  32  56  81 108 140 175 228 269 314
#     4  10  21  37  57  83 108 142 186 218 263 333
#     4  10  19  33  55  85 109 139 184 224 274 335
#     4  10  18  29  48  71 103 141 177 217 263 316
#     4  10  19  33  53  78 102 136 183 223 271 332
#
# _framework density 27.141321999999999
#
# number of rings (size 3 to 8) (size 9 to 14) (size 15 to 20)
#    0.000    2.000    0.000    7.800    0.000    0.000 
#    0.000    0.000    0.000   62.400    0.000   95.200 
#    0.000    0.000    0.000    0.000    0.000    0.000 
#
# Total GULP energy -111728.847159 kJ/mol
# GULP energy per Si atom -5586.442358 kJ/mol
# Density = 2.707955 g / cm^3
# Si number density = 27.141322 Si / 1000 Ang^3
#
#
#
# Elastic Constant Matrix: (Units=GPa)
#
#
# Indices 1 2 3 4 5 6 
#
# 1 253.8512 36.2807 141.0026 0.0000 4.3454 0.0000
# 2 36.2807 102.9725 24.6196 0.0000 -14.2096 0.0000
# 3 141.0026 24.6196 358.2925 0.0000 -41.3469 0.0000
# 4 0.0000 0.0000 0.0000 317.1477 0.0000 -87.2529
# 5 4.3454 -14.2096 -41.3469 0.0000 80.1315 0.0000
# 6 0.0000 0.0000 0.0000 -87.2529 0.0000 56.7224
#
#
#
# Elastic Compliance Matrix: (Units=1/GPa)
#
#
# Indices 1 2 3 4 5 6 
#
# 1 0.005439 -0.001623 -0.002229 0.000000 -0.001733 0.000000
# 2 -0.001623 0.010528 0.000150 0.000000 0.002032 0.000000
# 3 -0.002229 0.000150 0.003908 0.000000 0.002164 0.000000
# 4 0.000000 0.000000 0.000000 0.005467 0.000000 0.008409
# 5 -0.001733 0.002032 0.002164 0.000000 0.014050 0.000000
# 6 0.000000 0.000000 0.000000 0.008409 0.000000 0.030565
#
#
# Mechanical properties :
#
#
# Convention : Reuss Voigt Hill
#
# Bulk Modulus (GPa) = 80.18887 124.32467 102.25677
# Shear Modulus (GPa) = 61.33770 125.01454 93.17612
#
# Velocity S-wave (km/s) = 4.75904 6.79416 5.86554
# Velocity P-wave (km/s) = 7.73350 10.36597 9.14495
#
# Compressibility (1/GPa) = 0.01247056
#
# Stress axis : x y z
#
# Youngs Moduli (GPa) = 183.85987 94.98805 255.91247
#
# Poissons Ratio (x) = 0.15412 0.57041
# Poissons Ratio (y) = 0.29832 -0.03829
# Poissons Ratio (z) = 0.40981 -0.01421
#
# Static dielectric constant tensor:
#      x y z
#    x 2.058620 0.000000 -0.055250 
#    y 0.000000 2.136370 0.000000 
#    z -0.055250 0.000000 2.133520 
# 
# From -- ./inp_files/5918.got.cif
#   From: 2010.05.17/outbox.cif.g08.bks.cpg/sg15_3_cif.got.tgz:5918.got - 2010.06.03 18:47:42.
