data_PCOD9256204
_publ_section_title
;
Structure prediction by ZEFSAII (Michael W. Deem and Ramdas Pophale) SiO2 
 PCOD9256204
Probable space group: C 2/C
;
_chemical_formula_sum "Si O2"
_cell_formula_units_Z 52
_cell_length_a 17.884090
_cell_length_b 10.196879
_cell_length_c 14.308625
_cell_angle_alpha 90.000000
_cell_angle_beta 111.453088
_cell_angle_gamma 90.000000
_cell_volume 2428.565481
_symmetry_space_group_name_H-M "C 2/C"
_symmetry_group_IT_number 15
_symmetry_cell_setting 'monoclinic'
loop_
_space_group_symop_operation_xyz
x,y,z
-x,y,1/2-z
-x,-y,-z
x,-y,1/2+z
1/2+x,1/2+y,z
1/2-x,1/2+y,1/2-z
1/2-x,1/2-y,-z
1/2+x,1/2-y,1/2+z
loop_
_atom_site_type_symbol
_atom_site_label
_atom_site_fract_x
_atom_site_fract_y
_atom_site_fract_z
Si Si1 0.928080 0.327164 0.582435
Si Si2 0.095663 0.604343 0.120019
Si Si3 0.716954 0.059838 0.568931
Si Si4 0.000000 0.888543 0.250000
Si Si5 0.754804 0.873414 0.432487
Si Si6 0.348110 0.625415 0.784437
Si Si7 0.916389 0.578053 0.718048
O O1 0.844266 0.326176 0.490245
O O2 0.949617 0.202185 0.654571
O O3 0.924954 0.452716 0.651396
O O4 0.005900 0.351825 0.552236
O O5 0.157222 0.560899 0.069645
O O6 0.130020 0.719842 0.201165
O O7 0.089280 0.477367 0.181032
O O8 0.776116 0.094235 0.680149
O O9 0.761796 0.002943 0.499496
O O10 0.071567 0.947835 0.218028
O O11 0.750000 0.750000 0.500000
O O12 0.819239 0.890859 0.378490
O O13 0.668108 0.860761 0.343685
O O14 0.000000 0.655796 0.750000
#
# Coordination Sequence:
#
# PCOD9256204 Si02
#       7
#     8   8   8   4   8   8   8
#     4   9  17  32  56  88 112 138 192 238 293 336
#     4  10  17  35  57  84 119 148 180 241 294 338
#     4  11  22  34  60  89 115 152 192 236 297 352
#     4  10  20  40  58  80 118 164 196 244 280 332
#     4  11  22  37  58  89 119 151 186 237 301 350
#     4  11  22  39  59  83 118 153 196 240 289 340
#     4   9  16  33  58  85 115 144 182 238 293 342
#
# _framework density 21.411816999999999
#
# number of rings (size 3 to 8) (size 9 to 14) (size 15 to 20)
#    0.000    1.846    6.923    0.462    0.000    0.615 
#    0.000    0.769    1.692    1.846    0.000    0.000 
#    0.000    0.000    0.000    0.000    0.000    0.000 
#
# Total GULP energy -144819.862769 kJ/mol
# GULP energy per Si atom -5569.994722 kJ/mol
# Density = 2.136308 g / cm^3
# Si number density = 21.411817 Si / 1000 Ang^3
#
#
#
# Elastic Constant Matrix: (Units=GPa)
#
#
# Indices 1 2 3 4 5 6 
#
# 1 160.2631 19.6536 48.3770 0.0000 -22.9419 0.0000
# 2 19.6536 13.9276 16.1298 0.0000 0.6218 0.0000
# 3 48.3770 16.1298 88.6208 0.0000 -9.9081 0.0000
# 4 0.0000 0.0000 0.0000 19.7633 0.0000 0.3871
# 5 -22.9419 0.6218 -9.9081 0.0000 25.3598 0.0000
# 6 0.0000 0.0000 0.0000 0.3871 0.0000 15.4373
#
#
#
# Elastic Compliance Matrix: (Units=1/GPa)
#
#
# Indices 1 2 3 4 5 6 
#
# 1 0.009398 -0.011018 -0.002242 0.000000 0.007896 0.000000
# 2 -0.011018 0.105945 -0.015344 0.000000 -0.018559 0.000000
# 3 -0.002242 -0.015344 0.015806 0.000000 0.004523 0.000000
# 4 0.000000 0.000000 0.000000 0.050624 0.000000 -0.001269
# 5 0.007896 -0.018559 0.004523 0.000000 0.048798 0.000000
# 6 0.000000 0.000000 0.000000 -0.001269 0.000000 0.064810
#
#
# Mechanical properties :
#
#
# Convention : Reuss Voigt Hill
#
# Bulk Modulus (GPa) = 13.52395 47.90361 30.71378
# Shear Modulus (GPa) = 13.25430 24.02214 18.63822
#
# Velocity S-wave (km/s) = 2.49071 3.35313 2.95356
# Velocity P-wave (km/s) = 3.82117 6.11656 5.09969
#
# Compressibility (1/GPa) = 0.07394288
#
# Stress axis : x y z
#
# Youngs Moduli (GPa) = 106.40540 9.43884 63.26548
#
# Poissons Ratio (x) = 0.10399 0.14185
# Poissons Ratio (y) = 1.17233 0.97072
# Poissons Ratio (z) = 0.23858 0.14483
#
# Static dielectric constant tensor:
#      x y z
#    x 1.916740 0.000000 -0.023130 
#    y 0.000000 1.825070 0.000000 
#    z -0.023130 0.000000 1.797450 
# 
# From -- ./inp_files/161059.got.cif
#   From: 2010.05.17/outbox.cif.g08.bks.cpg/sg15_81_cif.got.tgz:161059.got - 2010.06.03 18:47:42.
