data_PCOD9256560
_publ_section_title
;
Structure prediction by ZEFSAII (Michael W. Deem and Ramdas Pophale) SiO2 
 PCOD9256560
Probable space group: C 2/C
;
_chemical_formula_sum "Si O2"
_cell_formula_units_Z 64
_cell_length_a 19.856168
_cell_length_b 30.368233
_cell_length_c 7.820222
_cell_angle_alpha 90.000000
_cell_angle_beta 56.786584
_cell_angle_gamma 90.000000
_cell_volume 3945.214598
_symmetry_space_group_name_H-M "C 2/C"
_symmetry_group_IT_number 15
_symmetry_cell_setting 'monoclinic'
loop_
_space_group_symop_operation_xyz
x,y,z
-x,y,1/2-z
-x,-y,-z
x,-y,1/2+z
1/2+x,1/2+y,z
1/2-x,1/2+y,1/2-z
1/2-x,1/2-y,-z
1/2+x,1/2-y,1/2+z
loop_
_atom_site_type_symbol
_atom_site_label
_atom_site_fract_x
_atom_site_fract_y
_atom_site_fract_z
Si Si1 0.652838 0.121029 0.641826
Si Si2 0.644247 0.853271 0.751249
Si Si3 0.638254 0.261710 0.822789
Si Si4 0.408713 0.939812 0.811100
Si Si5 0.095190 0.466634 0.079165
Si Si6 0.017262 0.313118 0.427625
Si Si7 0.781371 0.188110 0.589684
Si Si8 0.295990 0.703495 0.942435
O O1 0.647594 0.134300 0.447950
O O2 0.637642 0.068558 0.646873
O O3 0.578547 0.145113 0.841953
O O4 0.733928 0.143356 0.603506
O O5 0.635207 0.893180 0.630097
O O6 0.726162 0.829189 0.597699
O O7 0.563350 0.823997 0.856353
O O8 0.560142 0.231417 0.924065
O O9 0.710433 0.225126 0.706777
O O10 0.657973 0.294578 0.639419
O O11 0.641401 0.288976 0.993407
O O12 0.500000 0.934018 0.750000
O O13 0.403891 0.951746 0.617521
O O14 0.374367 0.983331 0.948804
O O15 0.000000 0.467422 0.250000
O O16 0.000000 0.307422 0.250000
O O17 0.822905 0.188670 0.717400
O O18 0.250000 0.750000 0.000000
#
# Coordination Sequence:
#
# PCOD9256560 Si02
#       8
#     8   8   8   8   8   8   8   8
#     4   9  16  30  45  62  82 114 154 188 227 267
#     4  10  19  32  44  64  88 113 157 198 228 265
#     4   9  17  32  44  61  87 109 147 189 225 269
#     4  10  20  29  42  57  85 116 149 193 228 268
#     4  10  18  28  41  59  83 116 147 186 231 265
#     4   9  18  28  49  63  83 123 147 192 234 263
#     4   9  17  28  48  60  80 117 141 184 230 268
#     4  10  20  29  46  65  83 112 150 189 225 277
#
# _framework density 16.222186000000001
#
# number of rings (size 3 to 8) (size 9 to 14) (size 15 to 20)
#    0.000    2.500    1.250    3.375    5.250    5.000 
#    0.000    0.000    0.000    0.000    0.000    0.000 
#    0.000    0.000    0.000    0.000    0.000    5.000 
#
# Total GULP energy -178269.037244 kJ/mol
# GULP energy per Si atom -5570.907414 kJ/mol
# Density = 1.618526 g / cm^3
# Si number density = 16.222186 Si / 1000 Ang^3
#
#
#
# Elastic Constant Matrix: (Units=GPa)
#
#
# Indices 1 2 3 4 5 6 
#
# 1 49.4712 49.3516 24.5912 0.0000 17.6969 0.0000
# 2 49.3516 87.4921 14.4962 0.0000 6.3942 0.0000
# 3 24.5912 14.4962 33.6319 0.0000 18.3856 0.0000
# 4 0.0000 0.0000 0.0000 18.0805 0.0000 7.6014
# 5 17.6969 6.3942 18.3856 0.0000 17.4364 0.0000
# 6 0.0000 0.0000 0.0000 7.6014 0.0000 32.4511
#
#
#
# Elastic Compliance Matrix: (Units=1/GPa)
#
#
# Indices 1 2 3 4 5 6 
#
# 1 0.103840 -0.050855 -0.015551 0.000000 -0.070344 0.000000
# 2 -0.050855 0.037263 0.000890 0.000000 0.037011 0.000000
# 3 -0.015551 0.000890 0.076188 0.000000 -0.064879 0.000000
# 4 0.000000 0.000000 0.000000 0.061350 0.000000 -0.014371
# 5 -0.070344 0.037011 -0.064879 0.000000 0.183585 0.000000
# 6 0.000000 0.000000 0.000000 -0.014371 0.000000 0.034182
#
#
# Mechanical properties :
#
#
# Convention : Reuss Voigt Hill
#
# Bulk Modulus (GPa) = 11.59306 38.60814 25.10060
# Shear Modulus (GPa) = 7.61971 19.07066 13.34518
#
# Velocity S-wave (km/s) = 2.16963 3.43241 2.87130
# Velocity P-wave (km/s) = 3.66583 6.28966 5.14773
#
# Compressibility (1/GPa) = 0.08625851
#
# Stress axis : x y z
#
# Youngs Moduli (GPa) = 9.63022 26.83627 13.12536
#
# Poissons Ratio (x) = 1.36476 0.20412
# Poissons Ratio (y) = 0.48975 -0.01169
# Poissons Ratio (z) = 0.14976 -0.02389
#
# Static dielectric constant tensor:
#      x y z
#    x 1.571020 0.000000 0.049000 
#    y 0.000000 1.586220 0.000000 
#    z 0.049000 0.000000 1.573260 
# 
# From -- ./inp_files/58911.got.cif
#   From: 2010.05.17/outbox.cif.g08.bks.cpg/sg15_30_cif.got.tgz:58911.got - 2010.06.03 18:47:42.
