data_PCOD9256921
_publ_section_title
;
Structure prediction by ZEFSAII (Michael W. Deem and Ramdas Pophale) SiO2 
 PCOD9256921
Probable space group: C 2/C
;
_chemical_formula_sum "Si O2"
_cell_formula_units_Z 60
_cell_length_a 12.267475
_cell_length_b 22.596764
_cell_length_c 17.894664
_cell_angle_alpha 90.000000
_cell_angle_beta 37.221406
_cell_angle_gamma 90.000000
_cell_volume 3000.586607
_symmetry_space_group_name_H-M "C 2/C"
_symmetry_group_IT_number 15
_symmetry_cell_setting 'monoclinic'
loop_
_space_group_symop_operation_xyz
x,y,z
-x,y,1/2-z
-x,-y,-z
x,-y,1/2+z
1/2+x,1/2+y,z
1/2-x,1/2+y,1/2-z
1/2-x,1/2-y,-z
1/2+x,1/2-y,1/2+z
loop_
_atom_site_type_symbol
_atom_site_label
_atom_site_fract_x
_atom_site_fract_y
_atom_site_fract_z
Si Si1 0.500000 0.621512 0.750000
Si Si2 0.602610 0.587828 0.531095
Si Si3 0.613737 0.884165 0.847721
Si Si4 0.194223 0.578874 0.764366
Si Si5 0.643014 0.180067 0.894046
Si Si6 0.207351 0.984773 0.659644
Si Si7 0.788839 0.306588 0.841302
Si Si8 0.603206 0.992116 0.598675
O O1 0.591696 0.590907 0.627876
O O2 0.346863 0.661070 0.798716
O O3 0.393834 0.584331 0.619975
O O4 0.698305 0.646865 0.448244
O O5 0.724530 0.529902 0.447491
O O6 0.750760 0.925621 0.817559
O O7 0.702179 0.839289 0.742680
O O8 0.498522 0.930304 0.861261
O O9 0.489172 0.849070 0.973618
O O10 0.114973 0.642942 0.832261
O O11 0.234004 0.539658 0.818789
O O12 0.048346 0.540381 0.799574
O O13 0.660275 0.249931 0.898313
O O14 0.000000 0.986073 0.750000
O O15 0.324540 0.985645 0.520948
O O16 0.000000 0.294469 0.750000
#
# Coordination Sequence:
#
# PCOD9256921 Si02
#       8
#     4   8   8   8   8   8   8   8
#     4  10  18  30  48  78 112 142 190 224 256 344
#     4  11  21  35  55  83 118 154 193 228 297 349
#     4  11  22  37  53  85 117 147 197 235 292 349
#     4  10  20  32  55  88 111 144 195 246 281 334
#     4  11  20  33  52  81 118 152 192 219 282 352
#     4  11  19  34  62  87 106 142 201 262 286 320
#     4  12  25  35  54  82 129 165 175 228 298 371
#     4  11  17  35  57  82 116 143 194 252 277 333
#
# _framework density 19.996089999999999
#
# number of rings (size 3 to 8) (size 9 to 14) (size 15 to 20)
#    0.000    1.067    7.333    1.600    4.667    1.067 
#    0.000    2.667    2.933    0.800    0.000    0.000 
#    0.000    0.000    0.000    0.000    0.000    0.000 
#
# Total GULP energy -167278.421351 kJ/mol
# GULP energy per Si atom -5575.947378 kJ/mol
# Density = 1.995058 g / cm^3
# Si number density = 19.996090 Si / 1000 Ang^3
#
#
#
# Elastic Constant Matrix: (Units=GPa)
#
#
# Indices 1 2 3 4 5 6 
#
# 1 41.8566 36.5796 30.3950 -0.0002 -0.2078 -0.0007
# 2 36.5796 131.5066 45.8389 -0.0009 -1.7863 -0.0012
# 3 30.3950 45.8389 95.5769 -0.0142 -10.3588 -0.0089
# 4 -0.0002 -0.0009 -0.0142 -7.7854 0.0059 -50.8622
# 5 -0.2078 -1.7863 -10.3588 0.0059 16.7702 0.0041
# 6 -0.0007 -0.0012 -0.0089 -50.8622 0.0041 -85.4391
#
#
#
# Elastic Compliance Matrix: (Units=1/GPa)
#
#
# Indices 1 2 3 4 5 6 
#
# 1 0.036516 -0.007169 -0.008797 -0.000003 -0.005745 0.000002
# 2 -0.007169 0.010592 -0.002880 -0.000001 -0.000740 0.000001
# 3 -0.008797 -0.002880 0.015644 0.000005 0.009247 -0.000004
# 4 -0.000003 -0.000001 0.000005 0.044458 -0.000006 -0.026466
# 5 -0.005745 -0.000740 0.009247 -0.000006 0.065192 0.000006
# 6 0.000002 0.000001 -0.000004 -0.026466 0.000006 0.004051
#
#
# Mechanical properties :
#
#
# Convention : Reuss Voigt Hill
#
# Bulk Modulus (GPa) = 39.90514 54.95189 47.42851
# Shear Modulus (GPa) = 22.47204 -4.88241 8.79481
#
# Velocity S-wave (km/s) = 3.35598 -1.56428 2.09948
# Velocity P-wave (km/s) = 5.91748 4.92730 5.44495
#
# Compressibility (1/GPa) = 0.02505943
#
# Stress axis : x y z
#
# Youngs Moduli (GPa) = 27.38545 94.40897 63.92184
#
# Poissons Ratio (x) = 0.67680 0.56233
# Poissons Ratio (y) = 0.19632 0.18412
# Poissons Ratio (z) = 0.24091 0.27194
#
# Static dielectric constant tensor:
#      x y z
#    x 1.752050 0.000000 0.011180 
#    y 0.000000 1.757160 0.000000 
#    z 0.011180 0.000000 1.789400 
# 
# From -- ./inp_files/245439.got.cif
#   From: 2010.05.17/outbox.cif.g08.bks.cpg/sg15_123_cif.got.tgz:245439.got - 2010.06.03 18:47:42.
