data_PCOD9256629
_publ_section_title
;
Structure prediction by ZEFSAII (Michael W. Deem and Ramdas Pophale) SiO2 
 PCOD9256629
Probable space group: C 2/C
;
_chemical_formula_sum "Si O2"
_cell_formula_units_Z 48
_cell_length_a 20.348305
_cell_length_b 14.729820
_cell_length_c 14.013872
_cell_angle_alpha 90.000000
_cell_angle_beta 146.733472
_cell_angle_gamma 90.000000
_cell_volume 2304.027889
_symmetry_space_group_name_H-M "C 2/C"
_symmetry_group_IT_number 15
_symmetry_cell_setting 'monoclinic'
loop_
_space_group_symop_operation_xyz
x,y,z
-x,y,1/2-z
-x,-y,-z
x,-y,1/2+z
1/2+x,1/2+y,z
1/2-x,1/2+y,1/2-z
1/2-x,1/2-y,-z
1/2+x,1/2-y,1/2+z
loop_
_atom_site_type_symbol
_atom_site_label
_atom_site_fract_x
_atom_site_fract_y
_atom_site_fract_z
Si Si1 0.676613 0.156706 0.396273
Si Si2 0.229079 0.022891 0.718534
Si Si3 0.478171 0.624275 0.124300
Si Si4 0.075026 0.639671 0.484158
Si Si5 0.407169 0.335883 0.939720
Si Si6 0.113867 0.936849 0.284163
O O1 0.750000 0.250000 0.500000
O O2 0.614810 0.134488 0.422222
O O3 0.569277 0.151335 0.190212
O O4 0.785079 0.086138 0.516789
O O5 0.173798 0.055175 0.753056
O O6 0.155280 0.086047 0.555389
O O7 0.190327 0.916903 0.670449
O O8 0.366546 0.054686 0.889979
O O9 0.500000 0.677171 0.250000
O O10 0.530310 0.664516 0.088984
O O11 0.555563 0.532932 0.230152
O O12 0.133651 0.734108 0.590562
O O13 0.509040 0.363016 0.141695
#
# Coordination Sequence:
#
# PCOD9256629 Si02
#       6
#     8   8   8   8   8   8
#     4  10  18  28  47  83 111 127 164 204 274 342
#     4   8  17  31  46  73 102 134 171 207 262 312
#     4   9  17  30  53  74  94 132 188 228 244 294
#     4  10  19  30  50  77 113 142 158 217 270 311
#     4   9  16  31  51  74 106 138 172 212 266 310
#     4   8  15  29  47  72 103 126 159 216 265 314
#
# _framework density 20.833081
#
# number of rings (size 3 to 8) (size 9 to 14) (size 15 to 20)
#    0.000    3.000    1.667    2.000    0.000    2.667 
#    0.000    0.833    0.000    4.000   13.000    0.000 
#    0.000    0.000    0.000    0.667    0.000    0.000 
#
# Total GULP energy -133639.473073 kJ/mol
# GULP energy per Si atom -5568.311378 kJ/mol
# Density = 2.078566 g / cm^3
# Si number density = 20.833081 Si / 1000 Ang^3
#
#
#
# Elastic Constant Matrix: (Units=GPa)
#
#
# Indices 1 2 3 4 5 6 
#
# 1 55.4218 -3.5682 24.5482 0.0000 -12.8375 0.0000
# 2 -3.5682 59.4212 42.1777 0.0000 12.7573 0.0000
# 3 24.5482 42.1777 141.6658 0.0000 19.0545 0.0000
# 4 0.0000 0.0000 0.0000 23.4391 0.0000 5.4005
# 5 -12.8375 12.7573 19.0545 0.0000 33.0845 0.0000
# 6 0.0000 0.0000 0.0000 5.4005 0.0000 15.9682
#
#
#
# Elastic Compliance Matrix: (Units=1/GPa)
#
#
# Indices 1 2 3 4 5 6 
#
# 1 0.024091 0.003799 -0.006900 0.000000 0.011857 0.000000
# 2 0.003799 0.022713 -0.006982 0.000000 -0.003263 0.000000
# 3 -0.006900 -0.006982 0.011199 0.000000 -0.006435 0.000000
# 4 0.000000 0.000000 0.000000 0.046269 0.000000 -0.015649
# 5 0.011857 -0.003263 -0.006435 0.000000 0.039791 0.000000
# 6 0.000000 0.000000 0.000000 -0.015649 0.000000 0.067917
#
#
# Mechanical properties :
#
#
# Convention : Reuss Voigt Hill
#
# Bulk Modulus (GPa) = 26.42935 42.53604 34.48270
# Shear Modulus (GPa) = 20.42825 27.38843 23.90834
#
# Velocity S-wave (km/s) = 3.13480 3.62976 3.39132
# Velocity P-wave (km/s) = 5.08098 6.16674 5.65001
#
# Compressibility (1/GPa) = 0.03783672
#
# Stress axis : x y z
#
# Youngs Moduli (GPa) = 41.50937 44.02682 89.29527
#
# Poissons Ratio (x) = -0.16726 0.61617
# Poissons Ratio (y) = -0.15769 0.62344
# Poissons Ratio (z) = 0.28643 0.30739
#
# Static dielectric constant tensor:
#      x y z
#    x 1.877550 0.000000 0.017150 
#    y 0.000000 1.767840 0.000000 
#    z 0.017150 0.000000 1.845900 
# 
# From -- ./inp_files/153812.got.cif
#   From: 2010.05.17/outbox.cif.g08.bks.cpg/sg15_77_cif.got.tgz:153812.got - 2010.06.03 18:47:42.
