data_PCOD9256095
_publ_section_title
;
Structure prediction by ZEFSAII (Michael W. Deem and Ramdas Pophale) SiO2 
 PCOD9256095
Probable space group: C 2/C
;
_chemical_formula_sum "Si O2"
_cell_formula_units_Z 64
_cell_length_a 28.058080
_cell_length_b 9.787163
_cell_length_c 22.130185
_cell_angle_alpha 90.000000
_cell_angle_beta 30.129378
_cell_angle_gamma 90.000000
_cell_volume 3050.450410
_symmetry_space_group_name_H-M "C 2/C"
_symmetry_group_IT_number 15
_symmetry_cell_setting 'monoclinic'
loop_
_space_group_symop_operation_xyz
x,y,z
-x,y,1/2-z
-x,-y,-z
x,-y,1/2+z
1/2+x,1/2+y,z
1/2-x,1/2+y,1/2-z
1/2-x,1/2-y,-z
1/2+x,1/2-y,1/2+z
loop_
_atom_site_type_symbol
_atom_site_label
_atom_site_fract_x
_atom_site_fract_y
_atom_site_fract_z
Si Si1 0.266199 0.617277 0.647353
Si Si2 0.079864 0.551170 0.711954
Si Si3 0.219835 0.441180 0.457551
Si Si4 0.892411 0.257332 0.093039
Si Si5 0.558707 0.993870 0.036761
Si Si6 0.765234 0.309767 0.831228
Si Si7 0.205299 0.783335 0.612767
Si Si8 0.080607 0.783656 0.436731
O O1 0.182142 0.693652 0.775292
O O2 0.231576 0.471411 0.661056
O O3 0.280994 0.718476 0.575743
O O4 0.355742 0.612633 0.593696
O O5 0.159155 0.468483 0.585864
O O6 0.113858 0.687962 0.709219
O O7 0.000000 0.588024 0.750000
O O8 0.026661 0.472568 0.823724
O O9 0.152195 0.484729 0.475638
O O10 0.253830 0.289941 0.401553
O O11 0.302502 0.555621 0.368618
O O12 0.829213 0.203588 0.107134
O O13 0.941419 0.394480 0.015120
O O14 0.977788 0.169049 0.026367
O O15 0.562642 0.847022 0.000337
O O16 0.852055 0.260806 0.693405
O O17 0.250000 0.750000 0.500000
#
# Coordination Sequence:
#
# PCOD9256095 Si02
#       8
#     8   8   8   8   8   8   8   8
#     4  11  22  38  61  94 121 160 203 259 313 367
#     4   9  19  33  62  92 110 156 209 260 299 362
#     4   9  19  39  58  87 122 161 195 253 307 365
#     4  10  22  36  58  91 124 164 204 246 309 369
#     4  10  17  34  58  92 115 149 215 251 293 364
#     4  10  23  38  60  91 133 162 202 253 313 379
#     4  10  20  37  60  84 114 150 206 254 299 361
#     4  11  21  35  61  89 127 163 209 252 302 368
#
# _framework density 20.980508
#
# number of rings (size 3 to 8) (size 9 to 14) (size 15 to 20)
#    0.000    2.000    2.500    1.125    1.750    0.500 
#    0.000    3.750    0.000    0.000   32.500    0.000 
#    0.000    0.000    0.000    0.000    0.000    0.000 
#
# Total GULP energy -178388.151794 kJ/mol
# GULP energy per Si atom -5574.629744 kJ/mol
# Density = 2.093276 g / cm^3
# Si number density = 20.980508 Si / 1000 Ang^3
#
#
#
# Elastic Constant Matrix: (Units=GPa)
#
#
# Indices 1 2 3 4 5 6 
#
# 1 68.8951 10.8455 35.2542 0.0006 -8.0181 -0.0001
# 2 10.8455 82.2550 14.1372 0.0026 4.0897 -0.0010
# 3 35.2542 14.1372 66.4965 0.0011 0.8666 -0.0005
# 4 0.0006 0.0026 0.0011 15.7974 -0.0006 3.4015
# 5 -8.0181 4.0897 0.8666 -0.0006 33.4868 0.0002
# 6 -0.0001 -0.0010 -0.0005 3.4015 0.0002 28.5644
#
#
#
# Elastic Compliance Matrix: (Units=1/GPa)
#
#
# Indices 1 2 3 4 5 6 
#
# 1 0.020912 -0.001152 -0.010913 0.000000 0.005430 0.000000
# 2 -0.001152 0.012755 -0.002078 -0.000002 -0.001780 0.000001
# 3 -0.010913 -0.002078 0.021304 -0.000001 -0.002911 0.000000
# 4 0.000000 -0.000002 -0.000001 0.064967 0.000002 -0.007736
# 5 0.005430 -0.001780 -0.002911 0.000002 0.031455 0.000000
# 6 0.000000 0.000001 0.000000 -0.007736 0.000000 0.035930
#
#
# Mechanical properties :
#
#
# Convention : Reuss Voigt Hill
#
# Bulk Modulus (GPa) = 37.47311 37.56895 37.52103
# Shear Modulus (GPa) = 22.27133 26.06371 24.16752
#
# Velocity S-wave (km/s) = 3.26164 3.52843 3.39765
# Velocity P-wave (km/s) = 5.66428 5.87752 5.77188
#
# Compressibility (1/GPa) = 0.02668580
#
# Stress axis : x y z
#
# Youngs Moduli (GPa) = 47.81865 78.40197 46.94014
#
# Poissons Ratio (x) = 0.09030 0.51225
# Poissons Ratio (y) = 0.05507 0.09754
# Poissons Ratio (z) = 0.52184 0.16291
#
# Static dielectric constant tensor:
#      x y z
#    x 1.803160 0.000000 -0.083420 
#    y 0.000000 1.889580 0.000000 
#    z -0.083420 0.000000 1.943130 
# 
# From -- ./inp_files/284431.got.cif
#   From: 2010.05.17/outbox.cif.g08.bks.cpg/sg15_143_cif.got.tgz:284431.got - 2010.06.03 18:47:42.
