data_PCOD9256890
_publ_section_title
;
Structure prediction by ZEFSAII (Michael W. Deem and Ramdas Pophale) SiO2 
 PCOD9256890
Probable space group: C 2/C
;
_chemical_formula_sum "Si O2"
_cell_formula_units_Z 56
_cell_length_a 13.166896
_cell_length_b 23.435730
_cell_length_c 12.587249
_cell_angle_alpha 90.000000
_cell_angle_beta 42.646365
_cell_angle_gamma 90.000000
_cell_volume 2631.380726
_symmetry_space_group_name_H-M "C 2/C"
_symmetry_group_IT_number 15
_symmetry_cell_setting 'monoclinic'
loop_
_space_group_symop_operation_xyz
x,y,z
-x,y,1/2-z
-x,-y,-z
x,-y,1/2+z
1/2+x,1/2+y,z
1/2-x,1/2+y,1/2-z
1/2-x,1/2-y,-z
1/2+x,1/2-y,1/2+z
loop_
_atom_site_type_symbol
_atom_site_label
_atom_site_fract_x
_atom_site_fract_y
_atom_site_fract_z
Si Si1 0.675872 0.036658 0.092353
Si Si2 0.179672 0.659578 0.109594
Si Si3 0.152750 0.220699 0.701482
Si Si4 0.123736 0.909777 0.749505
Si Si5 0.908376 0.857969 0.064981
Si Si6 0.624565 0.537725 0.748453
Si Si7 0.324432 0.091984 0.908463
O O1 0.500000 0.034614 0.250000
O O2 0.735641 0.096074 0.095327
O O3 0.729997 0.972985 0.079279
O O4 0.718311 0.042776 0.935628
O O5 0.217329 0.715340 0.149709
O O6 0.000000 0.655133 0.250000
O O7 0.238459 0.678320 0.947792
O O8 0.112119 0.197063 0.847108
O O9 0.000000 0.221054 0.750000
O O10 0.278341 0.899822 0.567414
O O11 0.000000 0.910904 0.750000
O O12 0.121759 0.973953 0.797446
O O13 0.059903 0.864451 0.880862
O O14 0.899527 0.911846 0.151625
O O15 0.770800 0.865330 0.089726
O O16 0.500000 0.541551 0.750000
O O17 0.500000 0.096244 0.750000
#
# Coordination Sequence:
#
# PCOD9256890 Si02
#       7
#     8   8   8   8   8   8   8
#     4   9  17  32  51  71 106 157 178 219 277 324
#     4   9  18  34  55  73 111 152 175 219 278 323
#     4  10  20  34  53  82 111 150 180 227 272 332
#     4   8  17  31  47  69 104 145 184 231 266 312
#     4  11  19  31  50  77 111 148 187 227 274 330
#     4  10  18  30  47  73 108 152 181 220 269 329
#     4   9  19  36  52  72 110 153 184 227 276 322
#
# _framework density 21.281603
#
# number of rings (size 3 to 8) (size 9 to 14) (size 15 to 20)
#    0.000    2.571    1.429    1.714    0.000    0.000 
#    0.000    9.286    0.000    0.000    0.000    0.000 
#    0.000  136.000    0.000    1.143    0.000    0.000 
#
# Total GULP energy -156163.379511 kJ/mol
# GULP energy per Si atom -5577.263554 kJ/mol
# Density = 2.123317 g / cm^3
# Si number density = 21.281603 Si / 1000 Ang^3
#
#
#
# Elastic Constant Matrix: (Units=GPa)
#
#
# Indices 1 2 3 4 5 6 
#
# 1 35.1038 11.5482 17.8093 0.0000 -2.9184 0.0000
# 2 11.5482 89.8810 31.5861 0.0000 12.9198 0.0000
# 3 17.8093 31.5861 154.7264 0.0000 -17.0591 0.0000
# 4 0.0000 0.0000 0.0000 35.0790 0.0000 4.0161
# 5 -2.9184 12.9198 -17.0591 0.0000 25.6506 0.0000
# 6 0.0000 0.0000 0.0000 4.0161 0.0000 4.8666
#
#
#
# Elastic Compliance Matrix: (Units=1/GPa)
#
#
# Indices 1 2 3 4 5 6 
#
# 1 0.031253 -0.003715 -0.002418 0.000000 0.003819 0.000000
# 2 -0.003715 0.014308 -0.003598 0.000000 -0.010023 0.000000
# 3 -0.002418 -0.003598 0.008250 0.000000 0.007024 0.000000
# 4 0.000000 0.000000 0.000000 0.031481 0.000000 -0.025980
# 5 0.003819 -0.010023 0.007024 0.000000 0.049140 0.000000
# 6 0.000000 0.000000 0.000000 -0.025980 0.000000 0.226923
#
#
# Mechanical properties :
#
#
# Convention : Reuss Voigt Hill
#
# Bulk Modulus (GPa) = 29.11224 44.62205 36.86715
# Shear Modulus (GPa) = 12.74638 27.70374 20.22506
#
# Velocity S-wave (km/s) = 2.44998 3.61192 3.08613
# Velocity P-wave (km/s) = 4.65966 6.19738 5.48270
#
# Compressibility (1/GPa) = 0.03434981
#
# Stress axis : x y z
#
# Youngs Moduli (GPa) = 31.99672 69.88923 121.20663
#
# Poissons Ratio (x) = 0.25962 0.29307
# Poissons Ratio (y) = 0.11886 0.43615
# Poissons Ratio (z) = 0.07737 0.25149
#
# Static dielectric constant tensor:
#      x y z
#    x 1.784440 0.000000 -0.014090 
#    y 0.000000 1.792730 0.000000 
#    z -0.014090 0.000000 1.824200 
# 
# From -- ./inp_files/101085.got.cif
#   From: 2010.05.17/outbox.cif.g08.bks.cpg/sg15_51_cif.got.tgz:101085.got - 2010.06.03 18:47:42.
