data_PCOD9256325
_publ_section_title
;
Structure prediction by ZEFSAII (Michael W. Deem and Ramdas Pophale) SiO2 
 PCOD9256325
Probable space group: C 2/C
;
_chemical_formula_sum "Si O2"
_cell_formula_units_Z 56
_cell_length_a 16.946638
_cell_length_b 7.176992
_cell_length_c 24.169947
_cell_angle_alpha 90.000000
_cell_angle_beta 54.152724
_cell_angle_gamma 90.000000
_cell_volume 2382.857487
_symmetry_space_group_name_H-M "C 2/C"
_symmetry_group_IT_number 15
_symmetry_cell_setting 'monoclinic'
loop_
_space_group_symop_operation_xyz
x,y,z
-x,y,1/2-z
-x,-y,-z
x,-y,1/2+z
1/2+x,1/2+y,z
1/2-x,1/2+y,1/2-z
1/2-x,1/2-y,-z
1/2+x,1/2-y,1/2+z
loop_
_atom_site_type_symbol
_atom_site_label
_atom_site_fract_x
_atom_site_fract_y
_atom_site_fract_z
Si Si1 0.023924 0.285470 0.478558
Si Si2 0.846287 0.945027 0.772595
Si Si3 0.642659 0.750069 0.019089
Si Si4 0.362344 0.806796 0.961211
Si Si5 0.849231 0.626632 0.681754
Si Si6 0.005950 0.568073 0.183487
Si Si7 0.058441 0.876562 0.658056
O O1 0.086274 0.220042 0.505613
O O2 0.085728 0.286848 0.395255
O O3 0.000000 0.500000 0.500000
O O4 0.914700 0.203320 0.514096
O O5 0.830516 0.765226 0.740495
O O6 0.856039 0.913654 0.833919
O O7 0.958710 0.986101 0.710529
O O8 0.755836 0.075483 0.798546
O O9 0.591114 0.609041 0.082487
O O10 0.625775 0.970987 0.032950
O O11 0.750000 0.750000 0.000000
O O12 0.419081 0.799653 0.879603
O O13 0.250000 0.750000 0.000000
O O14 0.909155 0.454263 0.684959
O O15 0.037975 0.347697 0.173267
O O16 0.000000 0.624046 0.250000
#
# Coordination Sequence:
#
# PCOD9256325 Si02
#       7
#     8   8   8   8   8   8   8
#     4  10  19  37  59  83 116 152 193 232 288 357
#     4  10  20  34  59  81 116 148 189 238 286 335
#     4  10  20  36  64  84 103 156 202 231 282 346
#     4  10  22  38  58  86 122 152 186 241 301 343
#     4  11  20  36  61  88 111 152 193 236 286 343
#     4  10  17  36  60  79 110 157 192 225 282 354
#     4   9  17  36  55  79 115 147 191 233 275 345
#
# _framework density 23.501194999999999
#
# number of rings (size 3 to 8) (size 9 to 14) (size 15 to 20)
#    0.000    2.000    8.571    0.000    4.000    1.143 
#    0.000    2.143    3.143    0.000    0.000    0.000 
#    0.000    0.000    0.000    0.000    0.000    0.000 
#
# Total GULP energy -155919.614970 kJ/mol
# GULP energy per Si atom -5568.557678 kJ/mol
# Density = 2.344770 g / cm^3
# Si number density = 23.501195 Si / 1000 Ang^3
#
#
#
# Elastic Constant Matrix: (Units=GPa)
#
#
# Indices 1 2 3 4 5 6 
#
# 1 264.4945 29.3828 72.9102 0.0004 16.0049 0.0011
# 2 29.3828 54.6455 15.7289 0.0024 -2.1667 0.0014
# 3 72.9102 15.7289 88.6622 0.0002 16.0405 0.0001
# 4 0.0004 0.0024 0.0002 25.5277 0.0002 -2.3497
# 5 16.0049 -2.1667 16.0405 0.0002 36.2533 0.0003
# 6 0.0011 0.0014 0.0001 -2.3497 0.0003 40.4025
#
#
#
# Elastic Compliance Matrix: (Units=1/GPa)
#
#
# Indices 1 2 3 4 5 6 
#
# 1 0.005032 -0.001661 -0.003721 0.000000 -0.000674 0.000000
# 2 -0.001661 0.020117 -0.002775 -0.000002 0.003164 -0.000001
# 3 -0.003721 -0.002775 0.015831 0.000000 -0.005528 0.000000
# 4 0.000000 -0.000002 0.000000 0.039384 0.000000 0.002290
# 5 -0.000674 0.003164 -0.005528 0.000000 0.030516 0.000000
# 6 0.000000 -0.000001 0.000000 0.002290 0.000000 0.024884
#
#
# Mechanical properties :
#
#
# Convention : Reuss Voigt Hill
#
# Bulk Modulus (GPa) = 40.54291 71.53847 56.04069
# Shear Modulus (GPa) = 31.19120 39.75538 35.47329
#
# Velocity S-wave (km/s) = 3.64705 4.11741 3.88935
# Velocity P-wave (km/s) = 5.91807 7.28770 6.63830
#
# Compressibility (1/GPa) = 0.02466523
#
# Stress axis : x y z
#
# Youngs Moduli (GPa) = 198.73019 49.70858 63.16630
#
# Poissons Ratio (x) = 0.08258 0.23506
# Poissons Ratio (y) = 0.33015 0.17529
# Poissons Ratio (z) = 0.73952 0.13794
#
# Static dielectric constant tensor:
#      x y z
#    x 1.926860 0.000000 -0.049660 
#    y 0.000000 1.952260 0.000000 
#    z -0.049660 0.000000 1.953090 
# 
# From -- ./inp_files/273041.got.cif
#   From: 2010.05.17/outbox.cif.g08.bks.cpg/sg15_137_cif.got.tgz:273041.got - 2010.06.03 18:47:42.
