data_PCOD9256404
_publ_section_title
;
Structure prediction by ZEFSAII (Michael W. Deem and Ramdas Pophale) SiO2 
 PCOD9256404
Probable space group: C 2/C
;
_chemical_formula_sum "Si O2"
_cell_formula_units_Z 52
_cell_length_a 15.276717
_cell_length_b 16.262305
_cell_length_c 13.537778
_cell_angle_alpha 90.000000
_cell_angle_beta 139.775325
_cell_angle_gamma 90.000000
_cell_volume 2171.943526
_symmetry_space_group_name_H-M "C 2/C"
_symmetry_group_IT_number 15
_symmetry_cell_setting 'monoclinic'
loop_
_space_group_symop_operation_xyz
x,y,z
-x,y,1/2-z
-x,-y,-z
x,-y,1/2+z
1/2+x,1/2+y,z
1/2-x,1/2+y,1/2-z
1/2-x,1/2-y,-z
1/2+x,1/2-y,1/2+z
loop_
_atom_site_type_symbol
_atom_site_label
_atom_site_fract_x
_atom_site_fract_y
_atom_site_fract_z
Si Si1 0.976370 0.323677 0.386129
Si Si2 0.500000 0.376231 0.250000
Si Si3 0.068311 0.408226 0.944522
Si Si4 0.813193 0.473264 0.188165
Si Si5 0.674780 0.488108 0.261297
Si Si6 0.778171 0.173972 0.223305
Si Si7 0.248172 0.360794 0.927732
O O1 0.939698 0.353889 0.465302
O O2 0.904525 0.392256 0.252961
O O3 0.891885 0.240989 0.296847
O O4 0.140543 0.316933 0.538183
O O5 0.569693 0.432468 0.227036
O O6 0.619409 0.325767 0.404450
O O7 0.125819 0.358668 0.900862
O O8 0.930029 0.459182 0.815706
O O9 0.178544 0.478331 0.061594
O O10 0.705722 0.451630 0.180075
O O11 0.726669 0.538645 0.050679
O O12 0.654187 0.584755 0.235014
O O13 0.740024 0.174769 0.309184
#
# Coordination Sequence:
#
# PCOD9256404 Si02
#       7
#     8   4   8   8   8   8   8
#     4  11  22  36  59  90 121 163 199 239 302 360
#     4  10  22  36  58  90 118 148 196 264 304 346
#     4  10  17  37  64  87 110 147 213 248 274 353
#     4  10  18  36  65  85 105 157 213 242 275 357
#     4   9  18  36  60  81 114 150 196 246 296 347
#     4  11  23  38  57  87 125 163 192 246 304 369
#     4  10  22  35  61  90 118 152 196 251 306 346
#
# _framework density 23.941690000000001
#
# number of rings (size 3 to 8) (size 9 to 14) (size 15 to 20)
#    0.000    1.846    4.615    1.385    0.000    8.000 
#    0.000    0.000    3.385    2.769    0.000    0.000 
#    0.000    0.000    0.000    0.000    0.000    0.000 
#
# Total GULP energy -144794.984716 kJ/mol
# GULP energy per Si atom -5569.037874 kJ/mol
# Density = 2.388720 g / cm^3
# Si number density = 23.941690 Si / 1000 Ang^3
#
#
#
# Elastic Constant Matrix: (Units=GPa)
#
#
# Indices 1 2 3 4 5 6 
#
# 1 77.4772 -0.2457 -14.2423 0.0000 9.3001 0.0000
# 2 -0.2457 98.3626 18.8788 0.0000 4.5202 0.0000
# 3 -14.2423 18.8788 85.9557 0.0000 10.3784 0.0000
# 4 0.0000 0.0000 0.0000 20.1500 0.0000 -2.9300
# 5 9.3001 4.5202 10.3784 0.0000 23.7083 0.0000
# 6 0.0000 0.0000 0.0000 -2.9300 0.0000 -10.8676
#
#
#
# Elastic Compliance Matrix: (Units=1/GPa)
#
#
# Indices 1 2 3 4 5 6 
#
# 1 0.014352 -0.000272 0.003285 0.000000 -0.007016 0.000000
# 2 -0.000272 0.010644 -0.002271 0.000000 -0.000929 0.000000
# 3 0.003285 -0.002271 0.013493 0.000000 -0.006762 0.000000
# 4 0.000000 0.000000 0.000000 0.047756 0.000000 -0.012875
# 5 -0.007016 -0.000929 -0.006762 0.000000 0.048069 0.000000
# 6 0.000000 0.000000 0.000000 -0.012875 0.000000 -0.088545
#
#
# Mechanical properties :
#
#
# Convention : Reuss Voigt Hill
#
# Bulk Modulus (GPa) = 25.01635 30.06411 27.54023
# Shear Modulus (GPa) = 86.78999 23.75843 55.27421
#
# Velocity S-wave (km/s) = 6.02738 3.15357 4.81011
# Velocity P-wave (km/s) = 7.67532 5.08375 6.50980
#
# Compressibility (1/GPa) = 0.03997386
#
# Stress axis : x y z
#
# Youngs Moduli (GPa) = 69.67566 93.94695 74.10998
#
# Poissons Ratio (x) = 0.02557 -0.24345
# Poissons Ratio (y) = 0.01897 0.16829
# Poissons Ratio (z) = -0.22888 0.21334
#
# Static dielectric constant tensor:
#      x y z
#    x 1.977810 0.000000 -0.075950 
#    y 0.000000 1.923480 0.000000 
#    z -0.075950 0.000000 2.057050 
# 
# From -- ./inp_files/211698.got.cif
#   From: 2010.05.17/outbox.cif.g08.bks.cpg/sg15_106_cif.got.tgz:211698.got - 2010.06.03 18:47:42.
