data_PCOD9256811
_publ_section_title
;
Structure prediction by ZEFSAII (Michael W. Deem and Ramdas Pophale) SiO2 
 PCOD9256811
Probable space group: C 2/C
;
_chemical_formula_sum "Si O2"
_cell_formula_units_Z 36
_cell_length_a 15.089229
_cell_length_b 6.776569
_cell_length_c 20.665052
_cell_angle_alpha 90.000000
_cell_angle_beta 45.108851
_cell_angle_gamma 90.000000
_cell_volume 1497.000446
_symmetry_space_group_name_H-M "C 2/C"
_symmetry_group_IT_number 15
_symmetry_cell_setting 'monoclinic'
loop_
_space_group_symop_operation_xyz
x,y,z
-x,y,1/2-z
-x,-y,-z
x,-y,1/2+z
1/2+x,1/2+y,z
1/2-x,1/2+y,1/2-z
1/2-x,1/2-y,-z
1/2+x,1/2-y,1/2+z
loop_
_atom_site_type_symbol
_atom_site_label
_atom_site_fract_x
_atom_site_fract_y
_atom_site_fract_z
Si Si1 0.996288 0.345393 0.159599
Si Si2 0.000000 0.280558 0.750000
Si Si3 0.713738 0.788155 0.134380
Si Si4 0.755120 0.243595 0.074482
Si Si5 0.493098 0.263673 0.993378
O O1 0.479970 0.801910 0.093610
O O2 0.880184 0.255428 0.258293
O O3 0.994531 0.569969 0.190165
O O4 0.128218 0.249255 0.114858
O O5 0.870531 0.163759 0.828423
O O6 0.849469 0.704307 0.079425
O O7 0.742012 0.021311 0.108612
O O8 0.750000 0.250000 0.000000
O O9 0.893251 0.314300 0.021932
O O10 0.500000 0.500000 0.000000
#
# Coordination Sequence:
#
# PCOD9256811 Si02
#       5
#     8   4   8   8   8
#     4   8  15  31  52  72  96 130 166 195 240 301
#     4   8  18  36  52  66  98 140 164 196 246 304
#     4   8  17  32  51  72  97 131 163 200 245 296
#     4   9  18  32  50  72 100 130 162 204 249 288
#     4  10  18  29  52  77  97 125 163 210 249 282
#
# _framework density 24.048089000000001
#
# number of rings (size 3 to 8) (size 9 to 14) (size 15 to 20)
#    0.000    4.000    0.000    0.667    0.000    1.778 
#    0.000    4.444    0.000   74.667    0.000    0.000 
#    0.000    0.000    0.000    0.000    0.000    0.000 
#
# Total GULP energy -100333.865165 kJ/mol
# GULP energy per Si atom -5574.103620 kJ/mol
# Density = 2.399335 g / cm^3
# Si number density = 24.048089 Si / 1000 Ang^3
#
#
#
# Elastic Constant Matrix: (Units=GPa)
#
#
# Indices 1 2 3 4 5 6 
#
# 1 207.4838 -11.4661 114.7441 0.0000 -38.5172 0.0000
# 2 -11.4661 93.7717 4.0749 0.0000 -7.3170 -0.0002
# 3 114.7441 4.0749 186.9691 0.0000 -36.5762 0.0000
# 4 0.0000 0.0000 0.0000 5.8195 0.0000 12.9361
# 5 -38.5172 -7.3170 -36.5762 0.0000 49.4954 0.0000
# 6 0.0000 -0.0002 0.0000 12.9361 0.0000 -6.5734
#
#
#
# Elastic Compliance Matrix: (Units=1/GPa)
#
#
# Indices 1 2 3 4 5 6 
#
# 1 0.007810 0.001385 -0.004201 0.000000 0.003177 0.000000
# 2 0.001385 0.011036 -0.000655 0.000000 0.002225 0.000000
# 3 -0.004201 -0.000655 0.008513 0.000000 0.002925 0.000000
# 4 0.000000 0.000000 0.000000 0.031972 0.000000 0.062920
# 5 0.003177 0.002225 0.002925 0.000000 0.025167 0.000000
# 6 0.000000 0.000000 0.000000 0.062920 0.000000 -0.028305
#
#
# Mechanical properties :
#
#
# Convention : Reuss Voigt Hill
#
# Bulk Modulus (GPa) = 48.98160 78.10339 63.54249
# Shear Modulus (GPa) = 71.48943 35.13974 53.31458
#
# Velocity S-wave (km/s) = 5.45823 3.82675 4.71361
# Velocity P-wave (km/s) = 7.75470 7.21622 7.49030
#
# Compressibility (1/GPa) = 0.02041583
#
# Stress axis : x y z
#
# Youngs Moduli (GPa) = 128.04847 90.61480 117.46274
#
# Poissons Ratio (x) = -0.12554 0.49350
# Poissons Ratio (y) = -0.17740 0.07699
# Poissons Ratio (z) = 0.53798 0.05939
#
# Static dielectric constant tensor:
#      x y z
#    x 1.950020 0.000000 -0.055800 
#    y 0.000000 1.999340 0.000000 
#    z -0.055800 0.000000 1.978050 
# 
# From -- ./inp_files/273335.got.cif
#   From: 2010.05.17/outbox.cif.g08.bks.cpg/sg15_137_cif.got.tgz:273335.got - 2010.06.03 18:47:42.
