data_PCOD9256952
_publ_section_title
;
Structure prediction by ZEFSAII (Michael W. Deem and Ramdas Pophale) SiO2 
 PCOD9256952
Probable space group: C 2/C
;
_chemical_formula_sum "Si O2"
_cell_formula_units_Z 64
_cell_length_a 27.705994
_cell_length_b 19.950212
_cell_length_c 18.568150
_cell_angle_alpha 90.000000
_cell_angle_beta 161.132494
_cell_angle_gamma 90.000000
_cell_volume 3318.976202
_symmetry_space_group_name_H-M "C 2/C"
_symmetry_group_IT_number 15
_symmetry_cell_setting 'monoclinic'
loop_
_space_group_symop_operation_xyz
x,y,z
-x,y,1/2-z
-x,-y,-z
x,-y,1/2+z
1/2+x,1/2+y,z
1/2-x,1/2+y,1/2-z
1/2-x,1/2-y,-z
1/2+x,1/2-y,1/2+z
loop_
_atom_site_type_symbol
_atom_site_label
_atom_site_fract_x
_atom_site_fract_y
_atom_site_fract_z
Si Si1 0.194742 0.921368 0.783598
Si Si2 0.163208 0.934384 0.197154
Si Si3 0.843537 0.194212 0.174042
Si Si4 0.843400 0.829334 0.899245
Si Si5 0.804899 0.831580 0.139416
Si Si6 0.362655 0.210072 0.831046
Si Si7 0.901424 0.115577 0.046806
Si Si8 0.811723 0.675029 0.173170
O O1 0.239849 0.872946 0.913827
O O2 0.229609 0.879898 0.760998
O O3 0.014615 0.929183 0.537105
O O4 0.238630 0.998227 0.834076
O O5 0.226411 0.872983 0.332706
O O6 0.162745 0.928578 0.109795
O O7 0.899046 0.232604 0.323888
O O8 0.981724 0.167697 0.323494
O O9 0.750000 0.250000 0.000000
O O10 0.807089 0.753306 0.821597
O O11 0.788109 0.846767 0.900501
O O12 0.021391 0.835339 0.139705
O O13 0.772510 0.753871 0.108199
O O14 0.717841 0.857024 0.946157
O O15 0.237727 0.160348 0.624469
O O16 0.514085 0.171872 0.062387
O O17 0.000000 0.082766 0.250000
#
# Coordination Sequence:
#
# PCOD9256952 Si02
#       8
#     8   8   8   8   8   8   8   8
#     4   8  17  31  53  76 103 139 171 216 273 309
#     4   9  17  34  51  75 108 138 178 222 260 321
#     4  10  18  32  52  81 111 128 169 225 277 326
#     4   9  16  30  50  75 105 130 170 217 263 316
#     4   9  18  30  50  77 105 139 173 218 261 318
#     4  10  19  31  49  78 106 138 164 217 278 319
#     4  11  20  32  52  79 104 137 179 224 272 326
#     4  10  18  30  49  78 107 134 174 215 272 311
#
# _framework density 19.283054
#
# number of rings (size 3 to 8) (size 9 to 14) (size 15 to 20)
#    0.000    2.500    1.250    4.125    0.000    0.000 
#    0.000    6.875    0.000    0.750   16.250    0.000 
#    0.000    0.000    0.000    0.000    0.000    0.000 
#
# Total GULP energy -178134.809856 kJ/mol
# GULP energy per Si atom -5566.712808 kJ/mol
# Density = 1.923917 g / cm^3
# Si number density = 19.283054 Si / 1000 Ang^3
#
#
#
# Elastic Constant Matrix: (Units=GPa)
#
#
# Indices 1 2 3 4 5 6 
#
# 1 79.0551 16.1931 15.7110 0.0000 -18.3270 0.0000
# 2 16.1931 69.0875 16.0549 0.0000 -10.4888 0.0000
# 3 15.7110 16.0549 44.2675 0.0000 -22.5655 0.0000
# 4 0.0000 0.0000 0.0000 16.6287 0.0000 -7.4649
# 5 -18.3270 -10.4888 -22.5655 0.0000 24.3355 0.0000
# 6 0.0000 0.0000 0.0000 -7.4649 0.0000 14.8912
#
#
#
# Elastic Compliance Matrix: (Units=1/GPa)
#
#
# Indices 1 2 3 4 5 6 
#
# 1 0.015626 -0.002149 0.001441 0.000000 0.012179 0.000000
# 2 -0.002149 0.016206 -0.004512 0.000000 0.001183 0.000000
# 3 0.001441 -0.004512 0.044141 0.000000 0.040071 0.000000
# 4 0.000000 0.000000 0.000000 0.077600 0.000000 0.038900
# 5 0.012179 0.001183 0.040071 0.000000 0.087931 0.000000
# 6 0.000000 0.000000 0.000000 0.038900 0.000000 0.086655
#
#
# Mechanical properties :
#
#
# Convention : Reuss Voigt Hill
#
# Bulk Modulus (GPa) = 15.25894 32.03646 23.64770
# Shear Modulus (GPa) = 13.87184 20.80116 17.33650
#
# Velocity S-wave (km/s) = 2.68504 3.28796 3.00168
# Velocity P-wave (km/s) = 4.18842 5.57352 4.92986
#
# Compressibility (1/GPa) = 0.06553534
#
# Stress axis : x y z
#
# Youngs Moduli (GPa) = 63.99437 61.70507 22.65454
#
# Poissons Ratio (x) = 0.13258 -0.03265
# Poissons Ratio (y) = 0.13750 0.10222
# Poissons Ratio (z) = -0.09224 0.27842
#
# Static dielectric constant tensor:
#      x y z
#    x 1.732500 0.000000 -0.039100 
#    y 0.000000 1.696650 0.000000 
#    z -0.039100 0.000000 1.694570 
# 
# From -- ./inp_files/223171.got.cif
#   From: 2010.05.17/outbox.cif.g08.bks.cpg/sg15_112_cif.got.tgz:223171.got - 2010.06.03 18:47:42.
