data_PCOD9256796
_publ_section_title
;
Structure prediction by ZEFSAII (Michael W. Deem and Ramdas Pophale) SiO2 
 PCOD9256796
Probable space group: C 2/C
;
_chemical_formula_sum "Si O2"
_cell_formula_units_Z 60
_cell_length_a 33.028055
_cell_length_b 13.225548
_cell_length_c 12.750210
_cell_angle_alpha 90.000000
_cell_angle_beta 31.319386
_cell_angle_gamma 90.000000
_cell_volume 2895.057068
_symmetry_space_group_name_H-M "C 2/C"
_symmetry_group_IT_number 15
_symmetry_cell_setting 'monoclinic'
loop_
_space_group_symop_operation_xyz
x,y,z
-x,y,1/2-z
-x,-y,-z
x,-y,1/2+z
1/2+x,1/2+y,z
1/2-x,1/2+y,1/2-z
1/2-x,1/2-y,-z
1/2+x,1/2-y,1/2+z
loop_
_atom_site_type_symbol
_atom_site_label
_atom_site_fract_x
_atom_site_fract_y
_atom_site_fract_z
Si Si1 0.024538 0.434424 0.309294
Si Si2 0.733225 0.849451 0.162112
Si Si3 0.196442 0.001540 0.645829
Si Si4 0.818633 0.798625 0.417507
Si Si5 0.163916 0.411745 0.537768
Si Si6 0.827605 0.850025 0.625872
Si Si7 0.500000 0.256900 0.250000
Si Si8 0.930937 0.619892 0.579681
O O1 0.049263 0.356520 0.344022
O O2 0.000000 0.396166 0.250000
O O3 0.953560 0.502944 0.509218
O O4 0.096883 0.513083 0.146824
O O5 0.715006 0.888122 0.320529
O O6 0.730688 0.727986 0.184228
O O7 0.656430 0.863607 0.261696
O O8 0.797235 0.917059 0.960535
O O9 0.166987 0.948866 0.816153
O O10 0.151199 0.103876 0.712972
O O11 0.282518 0.038164 0.491795
O O12 0.750000 0.750000 0.500000
O O13 0.863101 0.696639 0.355391
O O14 0.794447 0.851001 0.581439
O O15 0.917872 0.814042 0.417225
O O16 0.481781 0.185869 0.388603
#
# Coordination Sequence:
#
# PCOD9256796 Si02
#       8
#     8   8   8   8   8   8   4   8
#     4  11  18  29  50  84 116 155 195 223 277 347
#     4  10  18  32  52  79 118 148 184 234 283 341
#     4  11  20  34  53  84 112 149 196 236 286 335
#     4   9  20  36  56  79 113 149 186 228 289 339
#     4  10  19  33  52  81 119 152 185 230 284 349
#     4  10  21  37  59  82 109 149 199 242 287 347
#     4  10  20  40  58  80 110 152 198 242 298 342
#     4  10  18  29  50  78 116 151 184 226 277 349
#
# _framework density 20.724979999999999
#
# number of rings (size 3 to 8) (size 9 to 14) (size 15 to 20)
#    0.000    1.867    3.333    2.800    0.000    0.000 
#    0.000    0.667    0.000    0.000    0.000    0.933 
#    0.000    0.000    0.000    0.000    0.000    0.000 
#
# Total GULP energy -167043.455685 kJ/mol
# GULP energy per Si atom -5568.115189 kJ/mol
# Density = 2.067781 g / cm^3
# Si number density = 20.724980 Si / 1000 Ang^3
#
#
#
# Elastic Constant Matrix: (Units=GPa)
#
#
# Indices 1 2 3 4 5 6 
#
# 1 97.7008 23.6044 18.0381 0.0000 33.6802 0.0000
# 2 23.6044 85.3339 30.2531 0.0000 22.5845 0.0000
# 3 18.0381 30.2531 42.9456 0.0000 13.8648 0.0000
# 4 0.0000 0.0000 0.0000 12.6003 0.0000 9.3068
# 5 33.6802 22.5845 13.8648 0.0000 35.6383 0.0000
# 6 0.0000 0.0000 0.0000 9.3068 0.0000 22.8624
#
#
#
# Elastic Compliance Matrix: (Units=1/GPa)
#
#
# Indices 1 2 3 4 5 6 
#
# 1 0.015333 0.000146 -0.002099 0.000000 -0.013767 0.000000
# 2 0.000146 0.017023 -0.009750 0.000000 -0.007132 0.000000
# 3 -0.002099 -0.009750 0.032480 0.000000 -0.004474 0.000000
# 4 0.000000 0.000000 0.000000 0.113486 0.000000 -0.046198
# 5 -0.013767 -0.007132 -0.004474 0.000000 0.047331 0.000000
# 6 0.000000 0.000000 0.000000 -0.046198 0.000000 0.062546
#
#
# Mechanical properties :
#
#
# Convention : Reuss Voigt Hill
#
# Bulk Modulus (GPa) = 24.13710 41.08572 32.61141
# Shear Modulus (GPa) = 15.36506 24.49252 19.92879
#
# Velocity S-wave (km/s) = 2.72578 3.44144 3.10430
# Velocity P-wave (km/s) = 4.64523 5.97149 5.34962
#
# Compressibility (1/GPa) = 0.04142999
#
# Stress axis : x y z
#
# Youngs Moduli (GPa) = 65.21719 58.74520 30.78843
#
# Poissons Ratio (x) = -0.00859 0.06462
# Poissons Ratio (y) = -0.00954 0.30020
# Poissons Ratio (z) = 0.13687 0.57279
#
# Static dielectric constant tensor:
#      x y z
#    x 1.770780 0.000000 0.018320 
#    y 0.000000 1.816450 0.000000 
#    z 0.018320 0.000000 1.791010 
# 
# From -- ./inp_files/126446.got.cif
#   From: 2010.05.17/outbox.cif.g08.bks.cpg/sg15_64_cif.got.tgz:126446.got - 2010.06.03 18:47:42.
