data_PCOD9256567
_publ_section_title
;
Structure prediction by ZEFSAII (Michael W. Deem and Ramdas Pophale) SiO2 
 PCOD9256567
Probable space group: C 2/C
;
_chemical_formula_sum "Si O2"
_cell_formula_units_Z 40
_cell_length_a 7.080741
_cell_length_b 24.451666
_cell_length_c 13.587252
_cell_angle_alpha 90.000000
_cell_angle_beta 136.607773
_cell_angle_gamma 90.000000
_cell_volume 1616.101137
_symmetry_space_group_name_H-M "C 2/C"
_symmetry_group_IT_number 15
_symmetry_cell_setting 'monoclinic'
loop_
_space_group_symop_operation_xyz
x,y,z
-x,y,1/2-z
-x,-y,-z
x,-y,1/2+z
1/2+x,1/2+y,z
1/2-x,1/2+y,1/2-z
1/2-x,1/2-y,-z
1/2+x,1/2-y,1/2+z
loop_
_atom_site_type_symbol
_atom_site_label
_atom_site_fract_x
_atom_site_fract_y
_atom_site_fract_z
Si Si1 0.280995 0.971456 0.790683
Si Si2 0.273797 0.661422 0.782201
Si Si3 0.047822 0.226721 0.157139
Si Si4 0.433829 0.615109 0.431351
Si Si5 0.487330 0.917760 0.439782
O O1 0.000000 0.975313 0.750000
O O2 0.225795 0.938086 0.669851
O O3 0.398474 0.032524 0.834160
O O4 0.487913 0.938682 0.940331
O O5 0.000000 0.658425 0.750000
O O6 0.271730 0.725184 0.755137
O O7 0.212374 0.631303 0.657923
O O8 0.494648 0.627927 0.928979
O O9 0.159808 0.174575 0.141497
O O10 0.000000 0.206703 0.250000
O O11 0.750000 0.250000 0.000000
O O12 0.719532 0.604488 0.482630
#
# Coordination Sequence:
#
# PCOD9256567 Si02
#       5
#     8   8   8   8   8
#     4   9  18  28  43  59  81 116 148 178 205 244
#     4   9  17  26  39  62  88 111 133 169 209 261
#     4  11  16  25  40  63  89 116 130 165 215 265
#     4  10  18  28  42  64  92 115 136 172 213 255
#     4   9  16  29  41  58  85 112 147 175 206 249
#
# _framework density 24.750927000000001
#
# number of rings (size 3 to 8) (size 9 to 14) (size 15 to 20)
#    0.000    2.400    6.000    1.800    0.000    0.800 
#    0.000    0.000    0.000    0.000    0.000    0.000 
#    0.000   83.200    0.000    0.000    0.000    0.000 
#
# Total GULP energy -111592.575528 kJ/mol
# GULP energy per Si atom -5579.628776 kJ/mol
# Density = 2.469459 g / cm^3
# Si number density = 24.750927 Si / 1000 Ang^3
#
#
#
# Elastic Constant Matrix: (Units=GPa)
#
#
# Indices 1 2 3 4 5 6 
#
# 1 65.5816 -9.9498 7.4318 0.0000 10.4874 0.0000
# 2 -9.9498 94.3933 15.5100 0.0000 8.5408 0.0000
# 3 7.4318 15.5100 87.7097 0.0000 -10.8181 0.0000
# 4 0.0000 0.0000 0.0000 66.2892 0.0000 -4.7882
# 5 10.4874 8.5408 -10.8181 0.0000 34.5020 0.0000
# 6 0.0000 0.0000 0.0000 -4.7882 0.0000 -2.6372
#
#
#
# Elastic Compliance Matrix: (Units=1/GPa)
#
#
# Indices 1 2 3 4 5 6 
#
# 1 0.017085 0.002873 -0.002792 0.000000 -0.006780 0.000000
# 2 0.002873 0.011801 -0.002911 0.000000 -0.004707 0.000000
# 3 -0.002792 -0.002911 0.012843 0.000000 0.005596 0.000000
# 4 0.000000 0.000000 0.000000 0.013336 0.000000 -0.024214
# 5 -0.006780 -0.004707 0.005596 0.000000 0.033965 0.000000
# 6 0.000000 0.000000 0.000000 -0.024214 0.000000 -0.335228
#
#
# Mechanical properties :
#
#
# Convention : Reuss Voigt Hill
#
# Bulk Modulus (GPa) = 27.72462 30.40762 29.06612
# Shear Modulus (GPa) = -21.88031 35.27697 6.69833
#
# Velocity S-wave (km/s) = -2.97647 3.77938 1.64687
# Velocity P-wave (km/s) = 0.76600 5.59974 3.92239
#
# Compressibility (1/GPa) = 0.03606902
#
# Stress axis : x y z
#
# Youngs Moduli (GPa) = 58.53226 84.73843 77.86489
#
# Poissons Ratio (x) = -0.24346 0.21739
# Poissons Ratio (y) = -0.16816 0.22665
# Poissons Ratio (z) = 0.16341 0.24666
#
# Static dielectric constant tensor:
#      x y z
#    x 2.007900 0.000000 0.065100 
#    y 0.000000 1.933740 0.000000 
#    z 0.065100 0.000000 2.040600 
# 
# From -- ./inp_files/31330.got.cif
#   From: 2010.05.17/outbox.cif.g08.bks.cpg/sg15_16_cif.got.tgz:31330.got - 2010.06.03 18:47:42.
