data_PCOD9256226
_publ_section_title
;
Structure prediction by ZEFSAII (Michael W. Deem and Ramdas Pophale) SiO2 
 PCOD9256226
Probable space group: C 2/C
;
_chemical_formula_sum "Si O2"
_cell_formula_units_Z 52
_cell_length_a 9.887980
_cell_length_b 16.702662
_cell_length_c 18.446320
_cell_angle_alpha 90.000000
_cell_angle_beta 61.282130
_cell_angle_gamma 90.000000
_cell_volume 2671.780607
_symmetry_space_group_name_H-M "C 2/C"
_symmetry_group_IT_number 15
_symmetry_cell_setting 'monoclinic'
loop_
_space_group_symop_operation_xyz
x,y,z
-x,y,1/2-z
-x,-y,-z
x,-y,1/2+z
1/2+x,1/2+y,z
1/2-x,1/2+y,1/2-z
1/2-x,1/2-y,-z
1/2+x,1/2-y,1/2+z
loop_
_atom_site_type_symbol
_atom_site_label
_atom_site_fract_x
_atom_site_fract_y
_atom_site_fract_z
Si Si1 0.000000 0.764413 0.750000
Si Si2 0.162263 0.107317 0.313741
Si Si3 0.654612 0.852682 0.589122
Si Si4 0.444248 0.317397 0.414667
Si Si5 0.072884 0.983444 0.152326
Si Si6 0.727898 0.749315 0.919467
Si Si7 0.350526 0.075255 0.125274
O O1 0.915401 0.819452 0.710925
O O2 0.870671 0.720647 0.831864
O O3 0.258983 0.127388 0.359419
O O4 0.281237 0.072686 0.224125
O O5 0.024309 0.046693 0.369854
O O6 0.566844 0.767928 0.622631
O O7 0.784742 0.835718 0.496186
O O8 0.533367 0.917689 0.589920
O O9 0.466619 0.393686 0.358724
O O10 0.580557 0.303975 0.436905
O O11 0.000000 0.999175 0.250000
O O12 0.253830 0.006397 0.108847
O O13 0.697509 0.841010 0.901099
O O14 0.750000 0.750000 0.000000
#
# Coordination Sequence:
#
# PCOD9256226 Si02
#       7
#     4   8   8   8   8   8   8
#     4  10  18  34  62  86 110 162 208 234 310 366
#     4  10  17  35  61  83 106 153 200 240 286 361
#     4  10  21  37  57  85 116 153 199 237 290 359
#     4  10  23  36  56  87 120 151 195 245 300 349
#     4  10  20  38  60  83 116 151 194 246 299 351
#     4  10  19  36  58  86 118 155 200 253 289 362
#     4   9  19  36  58  83 112 153 199 235 295 355
#
# _framework density 19.462675999999998
#
# number of rings (size 3 to 8) (size 9 to 14) (size 15 to 20)
#    0.000    2.154    3.846    1.385    0.000    4.923 
#    0.000    0.000   10.154    0.000    0.000    0.000 
#    0.000    0.000    0.000    0.000    0.000    0.000 
#
# Total GULP energy -144814.448092 kJ/mol
# GULP energy per Si atom -5569.786465 kJ/mol
# Density = 1.941838 g / cm^3
# Si number density = 19.462676 Si / 1000 Ang^3
#
#
#
# Elastic Constant Matrix: (Units=GPa)
#
#
# Indices 1 2 3 4 5 6 
#
# 1 153.3986 39.4024 26.3901 0.0000 8.1633 0.0000
# 2 39.4024 50.8199 4.3584 0.0000 9.4857 0.0000
# 3 26.3901 4.3584 28.7243 0.0000 4.3611 0.0000
# 4 0.0000 0.0000 0.0000 21.1877 0.0000 1.7609
# 5 8.1633 9.4857 4.3611 0.0000 36.6544 0.0000
# 6 0.0000 0.0000 0.0000 1.7609 0.0000 21.0150
#
#
#
# Elastic Compliance Matrix: (Units=1/GPa)
#
#
# Indices 1 2 3 4 5 6 
#
# 1 0.009611 -0.006884 -0.007873 0.000000 0.000578 0.000000
# 2 -0.006884 0.025767 0.003254 0.000000 -0.005522 0.000000
# 3 -0.007873 0.003254 0.042177 0.000000 -0.004107 0.000000
# 4 0.000000 0.000000 0.000000 0.047528 0.000000 -0.003982
# 5 0.000578 -0.005522 -0.004107 0.000000 0.029071 0.000000
# 6 0.000000 0.000000 0.000000 -0.003982 0.000000 0.047919
#
#
# Mechanical properties :
#
#
# Convention : Reuss Voigt Hill
#
# Bulk Modulus (GPa) = 18.33283 41.47162 29.90223
# Shear Modulus (GPa) = 20.55395 26.62422 23.58908
#
# Velocity S-wave (km/s) = 3.25325 3.70261 3.48518
# Velocity P-wave (km/s) = 4.85298 6.29553 5.62072
#
# Compressibility (1/GPa) = 0.05454696
#
# Stress axis : x y z
#
# Youngs Moduli (GPa) = 104.04713 38.80974 23.70968
#
# Poissons Ratio (x) = 0.26718 0.18667
# Poissons Ratio (y) = 0.71630 -0.07715
# Poissons Ratio (z) = 0.81918 -0.12628
#
# Static dielectric constant tensor:
#      x y z
#    x 1.729030 0.000000 -0.038790 
#    y 0.000000 1.707890 0.000000 
#    z -0.038790 0.000000 1.680760 
# 
# From -- ./inp_files/190325.got.cif
#   From: 2010.05.17/outbox.cif.g08.bks.cpg/sg15_96_cif.got.tgz:190325.got - 2010.06.03 18:47:42.
