data_PCOD9256596
_publ_section_title
;
Structure prediction by ZEFSAII (Michael W. Deem and Ramdas Pophale) SiO2 
 PCOD9256596
Probable space group: C 2/C
;
_chemical_formula_sum "Si O2"
_cell_formula_units_Z 40
_cell_length_a 12.352770
_cell_length_b 9.052450
_cell_length_c 29.441579
_cell_angle_alpha 90.000000
_cell_angle_beta 27.358037
_cell_angle_gamma 90.000000
_cell_volume 1512.947374
_symmetry_space_group_name_H-M "C 2/C"
_symmetry_group_IT_number 15
_symmetry_cell_setting 'monoclinic'
loop_
_space_group_symop_operation_xyz
x,y,z
-x,y,1/2-z
-x,-y,-z
x,-y,1/2+z
1/2+x,1/2+y,z
1/2-x,1/2+y,1/2-z
1/2-x,1/2-y,-z
1/2+x,1/2-y,1/2+z
loop_
_atom_site_type_symbol
_atom_site_label
_atom_site_fract_x
_atom_site_fract_y
_atom_site_fract_z
Si Si1 0.657998 0.066393 0.886673
Si Si2 0.851425 0.337484 0.760898
Si Si3 0.229775 0.768235 0.952396
Si Si4 0.790890 0.264898 0.355171
Si Si5 0.856484 0.136957 0.425215
O O1 0.752453 0.171134 0.810895
O O2 0.720225 0.156753 0.910230
O O3 0.752538 0.901091 0.849765
O O4 0.376562 0.039240 0.992388
O O5 0.608424 0.427120 0.844469
O O6 0.000000 0.372844 0.750000
O O7 0.027431 0.348777 0.652844
O O8 0.250000 0.750000 0.000000
O O9 0.966678 0.837157 0.045850
O O10 0.889287 0.230871 0.367928
O O11 0.000000 0.336917 0.250000
O O12 0.750000 0.250000 0.500000
#
# Coordination Sequence:
#
# PCOD9256596 Si02
#       5
#     8   8   8   8   8
#     4   9  19  33  51  74 100 128 164 207 250 290
#     4   9  17  31  48  71  99 132 163 199 247 298
#     4  10  18  28  44  71 102 128 157 199 245 292
#     4  11  20  32  51  78 102 128 165 208 249 290
#     4   9  17  30  48  72 100 130 163 203 246 292
#
# _framework density 26.438461
#
# number of rings (size 3 to 8) (size 9 to 14) (size 15 to 20)
#    0.000    2.400    0.000    6.600    0.000    0.000 
#    0.000    0.000    0.000    0.000    0.000  214.200 
#    0.000    0.000    0.000    0.000    0.000    0.000 
#
# Total GULP energy -111481.179077 kJ/mol
# GULP energy per Si atom -5574.058954 kJ/mol
# Density = 2.637829 g / cm^3
# Si number density = 26.438461 Si / 1000 Ang^3
#
#
#
# Elastic Constant Matrix: (Units=GPa)
#
#
# Indices 1 2 3 4 5 6 
#
# 1 128.2849 2.1673 73.8803 -0.0206 -14.5196 -0.0079
# 2 2.1673 70.7966 25.3565 -0.0049 3.6259 -0.0011
# 3 73.8803 25.3565 278.3087 -0.0612 -17.7306 -0.0265
# 4 -0.0206 -0.0049 -0.0612 19.8103 -0.0132 17.9037
# 5 -14.5196 3.6259 -17.7306 -0.0132 67.9354 0.0000
# 6 -0.0079 -0.0011 -0.0265 17.9037 0.0000 24.9578
#
#
#
# Elastic Compliance Matrix: (Units=1/GPa)
#
#
# Indices 1 2 3 4 5 6 
#
# 1 0.009344 0.000521 -0.002443 0.000008 0.001332 -0.000005
# 2 0.000521 0.014719 -0.001548 -0.000002 -0.001078 0.000000
# 3 -0.002443 -0.001548 0.004428 0.000022 0.000716 -0.000012
# 4 0.000008 -0.000002 0.000022 0.143536 0.000036 -0.102966
# 5 0.001332 -0.001078 0.000716 0.000036 0.015249 -0.000024
# 6 -0.000005 0.000000 -0.000012 -0.102966 -0.000024 0.113931
#
#
# Mechanical properties :
#
#
# Convention : Reuss Voigt Hill
#
# Bulk Modulus (GPa) = 46.40257 75.57759 60.99008
# Shear Modulus (GPa) = 15.85635 47.60645 31.73140
#
# Velocity S-wave (km/s) = 2.45163 4.24801 3.46815
# Velocity P-wave (km/s) = 5.05996 7.26010 6.25749
#
# Compressibility (1/GPa) = 0.02155053
#
# Stress axis : x y z
#
# Youngs Moduli (GPa) = 107.01969 67.94096 225.81780
#
# Poissons Ratio (x) = -0.03538 0.55170
# Poissons Ratio (y) = -0.05573 0.34955
# Poissons Ratio (z) = 0.26146 0.10517
#
# Static dielectric constant tensor:
#      x y z
#    x 2.129390 -0.000010 -0.047470 
#    y -0.000010 2.200620 -0.000030 
#    z -0.047470 -0.000030 2.083520 
# 
# From -- ./inp_files/133902.got.cif
#   From: 2010.05.17/outbox.cif.g08.bks.cpg/sg15_67_cif.got.tgz:133902.got - 2010.06.03 18:47:42.
