data_PCOD9256421
_publ_section_title
;
Structure prediction by ZEFSAII (Michael W. Deem and Ramdas Pophale) SiO2 
 PCOD9256421
Probable space group: C 2/C
;
_chemical_formula_sum "Si O2"
_cell_formula_units_Z 56
_cell_length_a 18.828158
_cell_length_b 14.714542
_cell_length_c 8.544310
_cell_angle_alpha 90.000000
_cell_angle_beta 106.258463
_cell_angle_gamma 90.000000
_cell_volume 2272.514501
_symmetry_space_group_name_H-M "C 2/C"
_symmetry_group_IT_number 15
_symmetry_cell_setting 'monoclinic'
loop_
_space_group_symop_operation_xyz
x,y,z
-x,y,1/2-z
-x,-y,-z
x,-y,1/2+z
1/2+x,1/2+y,z
1/2-x,1/2+y,1/2-z
1/2-x,1/2-y,-z
1/2+x,1/2-y,1/2+z
loop_
_atom_site_type_symbol
_atom_site_label
_atom_site_fract_x
_atom_site_fract_y
_atom_site_fract_z
Si Si1 0.164950 0.739936 0.989933
Si Si2 0.262041 0.448989 0.973426
Si Si3 0.545205 0.152601 0.064858
Si Si4 0.644280 0.684015 0.145933
Si Si5 0.840777 0.906549 0.336016
Si Si6 0.996640 0.864631 0.434458
Si Si7 0.891195 0.372592 0.546596
O O1 0.131999 0.790724 0.818347
O O2 0.250000 0.750000 0.000000
O O3 0.114917 0.651166 0.989411
O O4 0.164450 0.798316 0.149342
O O5 0.319511 0.434126 0.149700
O O6 0.282334 0.372208 0.855479
O O7 0.281598 0.544984 0.909948
O O8 0.179825 0.437201 0.988524
O O9 0.518909 0.258129 0.037224
O O10 0.578270 0.136832 0.257736
O O11 0.466296 0.101469 0.997271
O O12 0.575882 0.620119 0.057268
O O13 0.639389 0.777100 0.042428
O O14 0.925394 0.921910 0.439940
O O15 0.000000 0.872046 0.250000
#
# Coordination Sequence:
#
# PCOD9256421 Si02
#       7
#     8   8   8   8   8   8   8
#     4  11  22  38  62  95 127 152 199 261 314 372
#     4  12  23  39  59  84 121 168 211 250 306 369
#     4   9  18  35  61  91 119 152 198 257 307 361
#     4  11  20  35  63  92 119 163 202 251 314 365
#     4  11  25  40  56  83 122 160 203 254 306 371
#     4  10  17  38  58  84 121 150 200 251 298 369
#     4  10  19  36  63  87 116 158 208 251 301 368
#
# _framework density 24.642306000000001
#
# number of rings (size 3 to 8) (size 9 to 14) (size 15 to 20)
#    0.000    1.429    4.286    3.857    0.000    5.714 
#    0.000    0.000    0.000    7.714    0.000    0.000 
#    0.000    0.000    0.000    0.000    0.000    0.000 
#
# Total GULP energy -156263.003892 kJ/mol
# GULP energy per Si atom -5580.821568 kJ/mol
# Density = 2.458622 g / cm^3
# Si number density = 24.642306 Si / 1000 Ang^3
#
#
#
# Elastic Constant Matrix: (Units=GPa)
#
#
# Indices 1 2 3 4 5 6 
#
# 1 201.1004 30.7300 12.5819 0.0000 12.3375 0.0000
# 2 30.7300 45.4680 -9.4643 0.0000 6.0616 0.0000
# 3 12.5819 -9.4643 72.6106 0.0000 2.7676 0.0000
# 4 0.0000 0.0000 0.0000 4.5062 0.0000 -10.5295
# 5 12.3375 6.0616 2.7676 0.0000 27.8703 0.0000
# 6 0.0000 0.0000 0.0000 -10.5295 0.0000 24.5312
#
#
#
# Elastic Compliance Matrix: (Units=1/GPa)
#
#
# Indices 1 2 3 4 5 6 
#
# 1 0.005770 -0.003999 -0.001462 0.000000 -0.001539 0.000000
# 2 -0.003999 0.026164 0.004269 0.000000 -0.004344 0.000000
# 3 -0.001462 0.004269 0.014648 0.000000 -0.001736 0.000000
# 4 0.000000 0.000000 0.000000-74.842802 0.000000-32.124585
# 5 -0.001539 -0.004344 -0.001736 0.000000 0.037679 0.000000
# 6 0.000000 0.000000 0.000000-32.124585 0.000000-13.747990
#
#
# Mechanical properties :
#
#
# Convention : Reuss Voigt Hill
#
# Bulk Modulus (GPa) = 22.62599 42.98604 32.80601
# Shear Modulus (GPa) = -0.05650 30.40363 15.17356
#
# Velocity S-wave (km/s) = -0.15159 3.51636 2.48413
# Velocity P-wave (km/s) = 3.02838 5.82823 4.64431
#
# Compressibility (1/GPa) = 0.04419696
#
# Stress axis : x y z
#
# Youngs Moduli (GPa) = 173.32271 38.22092 68.26859
#
# Poissons Ratio (x) = 0.15283 0.09983
# Poissons Ratio (y) = 0.69305 -0.29142
# Poissons Ratio (z) = 0.25345 -0.16315
#
# Static dielectric constant tensor:
#      x y z
#    x 2.058870 0.000000 0.058930 
#    y 0.000000 1.960590 0.000000 
#    z 0.058930 0.000000 1.874260 
# 
# From -- ./inp_files/49135.got.cif
#   From: 2010.05.17/outbox.cif.g08.bks.cpg/sg15_25_cif.got.tgz:49135.got - 2010.06.03 18:47:42.
