data_PCOD9256916
_publ_section_title
;
Structure prediction by ZEFSAII (Michael W. Deem and Ramdas Pophale) SiO2 
 PCOD9256916
Probable space group: C 2/C
;
_chemical_formula_sum "Si O2"
_cell_formula_units_Z 56
_cell_length_a 23.830969
_cell_length_b 12.759330
_cell_length_c 21.380808
_cell_angle_alpha 90.000000
_cell_angle_beta 148.345199
_cell_angle_gamma 90.000000
_cell_volume 3411.833002
_symmetry_space_group_name_H-M "C 2/C"
_symmetry_group_IT_number 15
_symmetry_cell_setting 'monoclinic'
loop_
_space_group_symop_operation_xyz
x,y,z
-x,y,1/2-z
-x,-y,-z
x,-y,1/2+z
1/2+x,1/2+y,z
1/2-x,1/2+y,1/2-z
1/2-x,1/2-y,-z
1/2+x,1/2-y,1/2+z
loop_
_atom_site_type_symbol
_atom_site_label
_atom_site_fract_x
_atom_site_fract_y
_atom_site_fract_z
Si Si1 0.172200 0.262079 0.182894
Si Si2 0.031009 0.286426 0.924121
Si Si3 0.696546 0.866573 0.780130
Si Si4 0.551661 0.580659 0.729871
Si Si5 0.763088 0.696913 0.945890
Si Si6 0.050185 0.907608 0.628570
Si Si7 0.172905 0.049896 0.641554
O O1 0.268020 0.186739 0.251037
O O2 0.110902 0.203571 0.180959
O O3 0.233290 0.370889 0.250063
O O4 0.088070 0.268264 0.045207
O O5 0.930650 0.363424 0.836494
O O6 0.994731 0.174804 0.858779
O O7 0.117367 0.334259 0.958401
O O8 0.734659 0.788068 0.869902
O O9 0.767271 0.970452 0.848712
O O10 0.500000 0.585287 0.750000
O O11 0.676808 0.606521 0.855832
O O12 0.539729 0.470392 0.683344
O O13 0.750000 0.750000 0.000000
O O14 0.930425 0.896859 0.487637
O O15 0.119400 0.984884 0.648243
#
# Coordination Sequence:
#
# PCOD9256916 Si02
#       7
#     8   8   8   8   8   8   8
#     4  10  19  32  51  74 105 138 173 216 263 301
#     4  10  18  31  47  78 110 133 167 213 267 319
#     4   9  19  29  48  75 104 134 168 207 261 315
#     4  11  20  31  52  77 103 139 176 213 259 310
#     4  10  18  30  48  75 108 138 165 207 258 309
#     4  10  19  33  53  76 102 134 177 214 256 316
#     4  10  19  34  53  76 104 136 170 216 264 313
#
# _framework density 16.413464000000001
#
# number of rings (size 3 to 8) (size 9 to 14) (size 15 to 20)
#    0.000    2.000    1.429    6.857    0.000    0.571 
#    0.000    1.429    0.000    0.857    3.714    0.000 
#    0.000    0.000    0.000    0.000    0.000    0.000 
#
# Total GULP energy -155877.860144 kJ/mol
# GULP energy per Si atom -5567.066434 kJ/mol
# Density = 1.637611 g / cm^3
# Si number density = 16.413464 Si / 1000 Ang^3
#
#
#
# Elastic Constant Matrix: (Units=GPa)
#
#
# Indices 1 2 3 4 5 6 
#
# 1 69.5917 20.0062 34.7184 0.0000 17.2821 0.0000
# 2 20.0062 29.2460 16.4504 0.0000 6.5550 0.0000
# 3 34.7184 16.4504 77.8099 0.0000 24.5571 0.0000
# 4 0.0000 0.0000 0.0000 17.4482 0.0000 5.3564
# 5 17.2821 6.5550 24.5571 0.0000 32.7333 0.0000
# 6 0.0000 0.0000 0.0000 5.3564 0.0000 21.2388
#
#
#
# Elastic Compliance Matrix: (Units=1/GPa)
#
#
# Indices 1 2 3 4 5 6 
#
# 1 0.021463 -0.010292 -0.005863 0.000000 -0.004872 0.000000
# 2 -0.010292 0.043856 -0.004747 0.000000 0.000213 0.000000
# 3 -0.005863 -0.004747 0.019908 0.000000 -0.010889 0.000000
# 4 0.000000 0.000000 0.000000 0.062122 0.000000 -0.015667
# 5 -0.004872 0.000213 -0.010889 0.000000 0.041249 0.000000
# 6 0.000000 0.000000 0.000000 -0.015667 0.000000 0.051035
#
#
# Mechanical properties :
#
#
# Convention : Reuss Voigt Hill
#
# Bulk Modulus (GPa) = 23.02938 35.44421 29.23679
# Shear Modulus (GPa) = 16.89691 21.31555 19.10623
#
# Velocity S-wave (km/s) = 3.21199 3.60761 3.41553
# Velocity P-wave (km/s) = 5.27419 6.24456 5.77978
#
# Compressibility (1/GPa) = 0.04342280
#
# Stress axis : x y z
#
# Youngs Moduli (GPa) = 46.59101 22.80213 50.23052
#
# Poissons Ratio (x) = 0.23469 0.29451
# Poissons Ratio (y) = 0.47953 0.23842
# Poissons Ratio (z) = 0.27317 0.10823
#
# Static dielectric constant tensor:
#      x y z
#    x 1.589020 0.000000 0.007470 
#    y 0.000000 1.574680 0.000000 
#    z 0.007470 0.000000 1.598290 
# 
# From -- ./inp_files/117463.got.cif
#   From: 2010.05.17/outbox.cif.g08.bks.cpg/sg15_59_cif.got.tgz:117463.got - 2010.06.03 18:47:42.
