data_PCOD9256112
_publ_section_title
;
Structure prediction by ZEFSAII (Michael W. Deem and Ramdas Pophale) SiO2 
 PCOD9256112
Probable space group: C 2/C
;
_chemical_formula_sum "Si O2"
_cell_formula_units_Z 48
_cell_length_a 19.119134
_cell_length_b 7.362218
_cell_length_c 17.411280
_cell_angle_alpha 90.000000
_cell_angle_beta 130.531666
_cell_angle_gamma 90.000000
_cell_volume 1862.721771
_symmetry_space_group_name_H-M "C 2/C"
_symmetry_group_IT_number 15
_symmetry_cell_setting 'monoclinic'
loop_
_space_group_symop_operation_xyz
x,y,z
-x,y,1/2-z
-x,-y,-z
x,-y,1/2+z
1/2+x,1/2+y,z
1/2-x,1/2+y,1/2-z
1/2-x,1/2-y,-z
1/2+x,1/2-y,1/2+z
loop_
_atom_site_type_symbol
_atom_site_label
_atom_site_fract_x
_atom_site_fract_y
_atom_site_fract_z
Si Si1 0.319530 0.327097 0.640454
Si Si2 0.652220 0.695391 0.890978
Si Si3 0.425076 0.057090 0.633819
Si Si4 0.363177 0.688890 0.341603
Si Si5 0.851604 0.783816 0.295350
Si Si6 0.382549 0.028031 0.445715
O O1 0.362974 0.480228 0.615612
O O2 0.329527 0.141578 0.599858
O O3 0.376063 0.289017 0.758991
O O4 0.222720 0.418224 0.600375
O O5 0.638524 0.722645 0.789146
O O6 0.583854 0.839821 0.878446
O O7 0.750000 0.750000 0.000000
O O8 0.500000 0.102563 0.750000
O O9 0.438642 0.113522 0.555985
O O10 0.256337 0.746683 0.271855
O O11 0.375170 0.472241 0.355326
O O12 0.399556 0.817954 0.435520
O O13 0.897974 0.625101 0.375967
#
# Coordination Sequence:
#
# PCOD9256112 Si02
#       6
#     8   8   8   8   8   8
#     4  10  22  38  65  95 122 158 209 257 307 371
#     4  11  21  39  66  95 120 163 213 261 310 370
#     4  12  27  42  59  89 131 171 209 259 313 373
#     4  10  17  34  59  97 121 146 197 265 314 357
#     4  10  19  31  59  94 124 149 198 264 310 363
#     4  11  21  37  62  92 120 162 201 256 313 365
#
# _framework density 25.768744999999999
#
# number of rings (size 3 to 8) (size 9 to 14) (size 15 to 20)
#    0.000    1.333    6.667    1.500    2.333    2.000 
#    0.000    3.333    0.000    4.000    0.000    0.000 
#    0.000    0.000    0.000    0.000    0.000    0.000 
#
# Total GULP energy -133802.649312 kJ/mol
# GULP energy per Si atom -5575.110388 kJ/mol
# Density = 2.571009 g / cm^3
# Si number density = 25.768745 Si / 1000 Ang^3
#
#
#
# Elastic Constant Matrix: (Units=GPa)
#
#
# Indices 1 2 3 4 5 6 
#
# 1 52.7079 25.6211 16.0519 0.0000 3.8684 0.0000
# 2 25.6211 94.2145 25.5348 0.0000 -26.0075 0.0000
# 3 16.0519 25.5348 111.1328 0.0000 -21.2443 0.0000
# 4 0.0000 0.0000 0.0000 25.9245 0.0000 -18.8446
# 5 3.8684 -26.0075 -21.2443 0.0000 34.6078 0.0000
# 6 0.0000 0.0000 0.0000 -18.8446 0.0000 29.7351
#
#
#
# Elastic Compliance Matrix: (Units=1/GPa)
#
#
# Indices 1 2 3 4 5 6 
#
# 1 0.025560 -0.009266 -0.003897 0.000000 -0.012213 0.000000
# 2 -0.009266 0.016921 0.000090 0.000000 0.013807 0.000000
# 3 -0.003897 0.000090 0.010918 0.000000 0.007205 0.000000
# 4 0.000000 0.000000 0.000000 0.071522 0.000000 0.045327
# 5 -0.012213 0.013807 0.007205 0.000000 0.045059 0.000000
# 6 0.000000 0.000000 0.000000 0.045327 0.000000 0.062356
#
#
# Mechanical properties :
#
#
# Convention : Reuss Voigt Hill
#
# Bulk Modulus (GPa) = 36.69504 43.60785 40.15145
# Shear Modulus (GPa) = 18.68694 30.77663 24.73178
#
# Velocity S-wave (km/s) = 2.69584 3.45967 3.10136
# Velocity P-wave (km/s) = 4.89501 5.73747 5.33290
#
# Compressibility (1/GPa) = 0.02725164
#
# Stress axis : x y z
#
# Youngs Moduli (GPa) = 39.12393 59.09888 91.59262
#
# Poissons Ratio (x) = 0.54760 0.35698
# Poissons Ratio (y) = 0.36251 -0.00822
# Poissons Ratio (z) = 0.15248 -0.00531
#
# Static dielectric constant tensor:
#      x y z
#    x 2.036450 0.000000 0.061710 
#    y 0.000000 2.029300 0.000000 
#    z 0.061710 0.000000 2.094510 
# 
# From -- ./inp_files/214089.got.cif
#   From: 2010.05.17/outbox.cif.g08.bks.cpg/sg15_108_cif.got.tgz:214089.got - 2010.06.03 18:47:42.
