data_PCOD9256692
_publ_section_title
;
Structure prediction by ZEFSAII (Michael W. Deem and Ramdas Pophale) SiO2 
 PCOD9256692
Probable space group: C 2/C
;
_chemical_formula_sum "Si O2"
_cell_formula_units_Z 60
_cell_length_a 15.499912
_cell_length_b 8.384114
_cell_length_c 24.181187
_cell_angle_alpha 90.000000
_cell_angle_beta 49.429356
_cell_angle_gamma 90.000000
_cell_volume 2386.995666
_symmetry_space_group_name_H-M "C 2/C"
_symmetry_group_IT_number 15
_symmetry_cell_setting 'monoclinic'
loop_
_space_group_symop_operation_xyz
x,y,z
-x,y,1/2-z
-x,-y,-z
x,-y,1/2+z
1/2+x,1/2+y,z
1/2-x,1/2+y,1/2-z
1/2-x,1/2-y,-z
1/2+x,1/2-y,1/2+z
loop_
_atom_site_type_symbol
_atom_site_label
_atom_site_fract_x
_atom_site_fract_y
_atom_site_fract_z
Si Si1 0.404528 0.598749 0.875423
Si Si2 0.759944 0.309558 0.363548
Si Si3 0.258896 0.936983 0.480424
Si Si4 0.500000 0.639735 0.250000
Si Si5 0.112354 0.358796 0.352997
Si Si6 0.220752 0.960739 0.785326
Si Si7 0.031302 0.414043 0.800037
Si Si8 0.165055 0.523764 0.940823
O O1 0.483722 0.476522 0.809238
O O2 0.288391 0.610588 0.888080
O O3 0.335728 0.873084 0.757438
O O4 0.357793 0.523947 0.951976
O O5 0.774687 0.433104 0.408380
O O6 0.884059 0.241069 0.296339
O O7 0.729816 0.959738 0.291224
O O8 0.703773 0.394510 0.334799
O O9 0.250000 0.750000 0.500000
O O10 0.186062 0.658729 0.413523
O O11 0.347490 0.014448 0.487389
O O12 0.128956 0.175427 0.331045
O O13 0.029590 0.433836 0.341377
O O14 0.086446 0.391962 0.428196
O O15 0.463690 0.767044 0.853157
O O16 0.000000 0.442289 0.750000
#
# Coordination Sequence:
#
# PCOD9256692 Si02
#       8
#     8   8   8   4   8   8   8   8
#     4   9  17  33  61  94 125 163 215 268 326 371
#     4  10  19  34  55  96 125 168 219 265 313 382
#     4   8  16  32  59  88 130 169 222 255 306 401
#     4  10  18  28  60  96 130 154 214 280 320 360
#     4  10  21  35  56  86 124 160 212 262 332 385
#     4  10  23  35  58  86 129 160 209 269 330 379
#     4  10  21  35  60  92 122 161 208 277 328 377
#     4   8  17  34  61  85 120 167 209 259 309 395
#
# _framework density 25.136199999999999
#
# number of rings (size 3 to 8) (size 9 to 14) (size 15 to 20)
#    1.600    1.067    2.000    1.600    2.800    0.000 
#    0.000    0.667    0.000    4.000   10.400    0.000 
#    0.000    0.000    0.000    0.000    0.000    0.000 
#
# Total GULP energy -167508.895806 kJ/mol
# GULP energy per Si atom -5583.629860 kJ/mol
# Density = 2.507899 g / cm^3
# Si number density = 25.136200 Si / 1000 Ang^3
#
#
#
# Elastic Constant Matrix: (Units=GPa)
#
#
# Indices 1 2 3 4 5 6 
#
# 1 54.7470 13.9505 10.5359 0.0000 6.0331 0.0001
# 2 13.9505 94.5570 11.8785 0.0000 -17.3068 0.0002
# 3 10.5359 11.8785 127.8177 0.0000 1.2863 0.0000
# 4 0.0000 0.0000 0.0000 38.1090 0.0000 2.9959
# 5 6.0331 -17.3068 1.2863 0.0000 30.3709 0.0000
# 6 0.0001 0.0002 0.0000 2.9959 0.0000 33.6151
#
#
#
# Elastic Compliance Matrix: (Units=1/GPa)
#
#
# Indices 1 2 3 4 5 6 
#
# 1 0.020198 -0.003963 -0.001234 0.000000 -0.006218 0.000000
# 2 -0.003963 0.012761 -0.000941 0.000000 0.008099 0.000000
# 3 -0.001234 -0.000941 0.008019 0.000000 -0.000631 0.000000
# 4 0.000000 0.000000 0.000000 0.026426 0.000000 -0.002355
# 5 -0.006218 0.008099 -0.000631 0.000000 0.038803 0.000000
# 6 0.000000 0.000000 0.000000 -0.002355 0.000000 0.029958
#
#
# Mechanical properties :
#
#
# Convention : Reuss Voigt Hill
#
# Bulk Modulus (GPa) = 34.84003 38.87239 36.85621
# Shear Modulus (GPa) = 31.64370 36.46947 34.05659
#
# Velocity S-wave (km/s) = 3.55193 3.81317 3.68487
# Velocity P-wave (km/s) = 5.54186 5.90637 5.72702
#
# Compressibility (1/GPa) = 0.02870262
#
# Stress axis : x y z
#
# Youngs Moduli (GPa) = 49.50869 78.36466 124.70175
#
# Poissons Ratio (x) = 0.31057 0.15389
# Poissons Ratio (y) = 0.19621 0.11731
# Poissons Ratio (z) = 0.06110 0.07372
#
# Static dielectric constant tensor:
#      x y z
#    x 2.073440 0.000000 -0.010430 
#    y 0.000000 1.956230 0.000000 
#    z -0.010430 0.000000 1.987510 
# 
# From -- ./inp_files/248135.got.cif
#   From: 2010.05.17/outbox.cif.g08.bks.cpg/sg15_125_cif.got.tgz:248135.got - 2010.06.03 18:47:42.
