data_PCOD9256492
_publ_section_title
;
Structure prediction by ZEFSAII (Michael W. Deem and Ramdas Pophale) SiO2 
 PCOD9256492
Probable space group: C 2/C
;
_chemical_formula_sum "Si O2"
_cell_formula_units_Z 48
_cell_length_a 22.975357
_cell_length_b 7.650091
_cell_length_c 10.849796
_cell_angle_alpha 90.000000
_cell_angle_beta 111.387203
_cell_angle_gamma 90.000000
_cell_volume 1775.677782
_symmetry_space_group_name_H-M "C 2/C"
_symmetry_group_IT_number 15
_symmetry_cell_setting 'monoclinic'
loop_
_space_group_symop_operation_xyz
x,y,z
-x,y,1/2-z
-x,-y,-z
x,-y,1/2+z
1/2+x,1/2+y,z
1/2-x,1/2+y,1/2-z
1/2-x,1/2-y,-z
1/2+x,1/2-y,1/2+z
loop_
_atom_site_type_symbol
_atom_site_label
_atom_site_fract_x
_atom_site_fract_y
_atom_site_fract_z
Si Si1 0.338016 0.787187 0.657942
Si Si2 0.808741 0.840192 0.736680
Si Si3 0.502686 0.325213 0.882728
Si Si4 0.639893 0.533640 0.484908
Si Si5 0.790243 0.439295 0.399092
Si Si6 0.034395 0.227241 0.652574
O O1 0.369358 0.656573 0.581853
O O2 0.272335 0.684583 0.632241
O O3 0.320298 0.948140 0.556450
O O4 0.395194 0.803560 0.795714
O O5 0.832257 0.867237 0.614944
O O6 0.824186 0.657587 0.813113
O O7 0.734711 0.874794 0.662065
O O8 0.827869 0.982321 0.859223
O O9 0.500000 0.231651 0.750000
O O10 0.574403 0.378081 0.957201
O O11 0.465418 0.510147 0.842832
O O12 0.490874 0.229026 0.001041
O O13 0.000000 0.284373 0.750000
#
# Coordination Sequence:
#
# PCOD9256492 Si02
#       6
#     8   8   8   8   8   8
#     4   9  16  32  47  70  99 145 174 205 248 331
#     4  10  21  34  52  76 103 144 175 220 257 314
#     4  10  18  25  41  72 106 136 163 205 267 318
#     4  10  18  30  47  69 108 136 170 208 263 309
#     4   9  19  32  53  72 105 137 181 214 264 301
#     4  10  18  27  45  69 102 136 176 202 259 318
#
# _framework density 27.031931
#
# number of rings (size 3 to 8) (size 9 to 14) (size 15 to 20)
#    0.000    2.333    3.333    3.000    2.333    0.667 
#    0.000    0.000    0.000    0.000    0.000    1.167 
#    0.000    2.667    0.000    0.000    0.000    0.000 
#
# Total GULP energy -133762.518543 kJ/mol
# GULP energy per Si atom -5573.438273 kJ/mol
# Density = 2.697040 g / cm^3
# Si number density = 27.031931 Si / 1000 Ang^3
#
#
#
# Elastic Constant Matrix: (Units=GPa)
#
#
# Indices 1 2 3 4 5 6 
#
# 1 83.9471 16.4287 48.7995 0.0000 -14.6297 0.0000
# 2 16.4287 46.4117 24.9681 0.0000 -6.2117 0.0000
# 3 48.7995 24.9681 219.1593 0.0000 -17.1891 0.0000
# 4 0.0000 0.0000 0.0000 20.3602 0.0000 2.4580
# 5 -14.6297 -6.2117 -17.1891 0.0000 46.8603 0.0000
# 6 0.0000 0.0000 0.0000 2.4580 0.0000 7.2708
#
#
#
# Elastic Compliance Matrix: (Units=1/GPa)
#
#
# Indices 1 2 3 4 5 6 
#
# 1 0.014649 -0.003346 -0.002632 0.000000 0.003164 0.000000
# 2 -0.003346 0.023929 -0.001868 0.000000 0.001442 0.000000
# 3 -0.002632 -0.001868 0.005434 0.000000 0.000924 0.000000
# 4 0.000000 0.000000 0.000000 0.051205 0.000000 -0.017310
# 5 0.003164 0.001442 0.000924 0.000000 0.022858 0.000000
# 6 0.000000 0.000000 0.000000 -0.017310 0.000000 0.143389
#
#
# Mechanical properties :
#
#
# Convention : Reuss Voigt Hill
#
# Bulk Modulus (GPa) = 35.31152 58.87896 47.09524
# Shear Modulus (GPa) = 17.44620 32.18638 24.81629
#
# Velocity S-wave (km/s) = 2.54321 3.45437 3.03320
# Velocity P-wave (km/s) = 4.65995 6.14319 5.45224
#
# Compressibility (1/GPa) = 0.02831937
#
# Stress axis : x y z
#
# Youngs Moduli (GPa) = 68.26537 41.79109 184.01517
#
# Poissons Ratio (x) = 0.13982 0.48441
# Poissons Ratio (y) = 0.22839 0.34375
# Poissons Ratio (z) = 0.17971 0.07807
#
# Static dielectric constant tensor:
#      x y z
#    x 2.273150 0.000000 -0.068280 
#    y 0.000000 2.155120 0.000000 
#    z -0.068280 0.000000 2.286790 
# 
# From -- ./inp_files/116961.got.cif
#   From: 2010.05.17/outbox.cif.g08.bks.cpg/sg15_59_cif.got.tgz:116961.got - 2010.06.03 18:47:42.
