data_PCOD9256726
_publ_section_title
;
Structure prediction by ZEFSAII (Michael W. Deem and Ramdas Pophale) SiO2 
 PCOD9256726
Probable space group: C 2/C
;
_chemical_formula_sum "Si O2"
_cell_formula_units_Z 64
_cell_length_a 19.147660
_cell_length_b 28.393964
_cell_length_c 16.190265
_cell_angle_alpha 90.000000
_cell_angle_beta 157.695577
_cell_angle_gamma 90.000000
_cell_volume 3340.711977
_symmetry_space_group_name_H-M "C 2/C"
_symmetry_group_IT_number 15
_symmetry_cell_setting 'monoclinic'
loop_
_space_group_symop_operation_xyz
x,y,z
-x,y,1/2-z
-x,-y,-z
x,-y,1/2+z
1/2+x,1/2+y,z
1/2-x,1/2+y,1/2-z
1/2-x,1/2-y,-z
1/2+x,1/2-y,1/2+z
loop_
_atom_site_type_symbol
_atom_site_label
_atom_site_fract_x
_atom_site_fract_y
_atom_site_fract_z
Si Si1 0.158919 0.287952 0.722379
Si Si2 0.810764 0.479255 0.497656
Si Si3 0.728992 0.110705 0.241619
Si Si4 0.033397 0.958342 0.603468
Si Si5 0.305435 0.809248 0.564034
Si Si6 0.815691 0.415770 0.334771
Si Si7 0.187692 0.900885 0.485990
Si Si8 0.240206 0.187037 0.809368
O O1 0.239105 0.332072 0.758240
O O2 0.262069 0.286002 0.924771
O O3 0.149686 0.235256 0.676304
O O4 0.953658 0.302938 0.522281
O O5 0.659081 0.518470 0.311074
O O6 0.842408 0.448823 0.446561
O O7 0.720835 0.445014 0.466080
O O8 0.000000 0.494909 0.750000
O O9 0.841074 0.084189 0.294165
O O10 0.816693 0.091029 0.422484
O O11 0.514656 0.095326 0.013212
O O12 0.825016 0.939561 0.384023
O O13 0.000000 0.000000 0.500000
O O14 0.500000 0.788244 0.750000
O O15 0.342481 0.862533 0.636263
O O16 0.197861 0.812802 0.360798
O O17 0.718316 0.366457 0.254943
O O18 0.000000 0.877825 0.250000
#
# Coordination Sequence:
#
# PCOD9256726 Si02
#       8
#     8   8   8   8   8   8   8   8
#     4   9  20  28  45  70  97 137 179 216 252 301
#     4  11  20  37  54  74 100 136 178 223 266 315
#     4  10  21  37  51  76 105 141 177 220 266 309
#     4  10  23  37  55  78 101 140 182 216 274 319
#     4   9  17  29  41  59  98 136 177 215 255 286
#     4  10  20  36  56  70 109 143 170 221 264 311
#     4  11  19  29  50  73  97 135 184 217 256 306
#     4  10  18  29  45  69  97 141 176 215 257 296
#
# _framework density 19.157592999999999
#
# number of rings (size 3 to 8) (size 9 to 14) (size 15 to 20)
#    0.000    2.000    2.500    3.000    1.750    3.000 
#    2.250    0.625    0.000    0.000    0.000    0.000 
#    0.000    1.000    0.000    0.000    0.000    0.000 
#
# Total GULP energy -178223.069283 kJ/mol
# GULP energy per Si atom -5569.470915 kJ/mol
# Density = 1.911399 g / cm^3
# Si number density = 19.157593 Si / 1000 Ang^3
#
#
#
# Elastic Constant Matrix: (Units=GPa)
#
#
# Indices 1 2 3 4 5 6 
#
# 1 9.4342 5.6594 11.1859 0.0000 -3.4595 0.0000
# 2 5.6594 74.9825 40.5250 0.0000 -9.8301 0.0000
# 3 11.1859 40.5250 102.6282 0.0000 -4.5592 0.0001
# 4 0.0000 0.0000 0.0000 35.2789 0.0000 -0.4921
# 5 -3.4595 -9.8301 -4.5592 0.0000 15.7488 0.0000
# 6 0.0000 0.0000 0.0001 -0.4921 0.0000 35.2747
#
#
#
# Elastic Compliance Matrix: (Units=1/GPa)
#
#
# Indices 1 2 3 4 5 6 
#
# 1 0.130737 0.000686 -0.013398 0.000000 0.025269 0.000000
# 2 0.000686 0.018241 -0.006853 0.000000 0.009552 0.000000
# 3 -0.013398 -0.006853 0.013767 0.000000 -0.003235 0.000000
# 4 0.000000 0.000000 0.000000 0.028351 0.000000 0.000396
# 5 0.025269 0.009552 -0.003235 0.000000 0.074074 0.000000
# 6 0.000000 0.000000 0.000000 0.000396 0.000000 0.028354
#
#
# Mechanical properties :
#
#
# Convention : Reuss Voigt Hill
#
# Bulk Modulus (GPa) = 8.08966 33.53173 20.81069
# Shear Modulus (GPa) = 13.37403 25.90545 19.63974
#
# Velocity S-wave (km/s) = 2.64504 3.68126 3.20530
# Velocity P-wave (km/s) = 3.68241 5.96741 4.95833
#
# Compressibility (1/GPa) = 0.12361461
#
# Stress axis : x y z
#
# Youngs Moduli (GPa) = 7.64893 54.82205 72.63935
#
# Poissons Ratio (x) = -0.03762 0.97322
# Poissons Ratio (y) = -0.00525 0.49781
# Poissons Ratio (z) = 0.10248 0.37571
#
# Static dielectric constant tensor:
#      x y z
#    x 1.672110 0.000000 0.044830 
#    y 0.000000 1.746940 0.000000 
#    z 0.044830 0.000000 1.771820 
# 
# From -- ./inp_files/217194.got.cif
#   From: 2010.05.17/outbox.cif.g08.bks.cpg/sg15_109_cif.got.tgz:217194.got - 2010.06.03 18:47:42.
