data_PCOD9256269
_publ_section_title
;
Structure prediction by ZEFSAII (Michael W. Deem and Ramdas Pophale) SiO2 
 PCOD9256269
Probable space group: C 2/C
;
_chemical_formula_sum "Si O2"
_cell_formula_units_Z 36
_cell_length_a 16.057087
_cell_length_b 19.352756
_cell_length_c 5.294926
_cell_angle_alpha 90.000000
_cell_angle_beta 118.700623
_cell_angle_gamma 90.000000
_cell_volume 1443.241005
_symmetry_space_group_name_H-M "C 2/C"
_symmetry_group_IT_number 15
_symmetry_cell_setting 'monoclinic'
loop_
_space_group_symop_operation_xyz
x,y,z
-x,y,1/2-z
-x,-y,-z
x,-y,1/2+z
1/2+x,1/2+y,z
1/2-x,1/2+y,1/2-z
1/2-x,1/2-y,-z
1/2+x,1/2-y,1/2+z
loop_
_atom_site_type_symbol
_atom_site_label
_atom_site_fract_x
_atom_site_fract_y
_atom_site_fract_z
Si Si1 0.000000 0.562787 0.750000
Si Si2 0.694917 0.928422 0.682560
Si Si3 0.000000 0.147651 0.250000
Si Si4 0.500000 0.263241 0.250000
Si Si5 0.867377 0.643389 0.899101
Si Si6 0.621430 0.522988 0.498831
O O1 0.903941 0.529594 0.508855
O O2 0.965227 0.609855 0.932030
O O3 0.694811 0.874238 0.445593
O O4 0.778699 0.983696 0.798957
O O5 0.683909 0.889722 0.932523
O O6 0.016769 0.192819 0.522573
O O7 0.091912 0.097768 0.350365
O O8 0.593552 0.217454 0.455620
O O9 0.581729 0.526085 0.723038
#
# Coordination Sequence:
#
# PCOD9256269 Si02
#       6
#     4   8   4   4   8   8
#     4   8  17  32  64 107 139 175 222 286 380 426
#     4  10  19  36  68 102 148 178 239 299 362 433
#     4  12  27  43  74 104 144 200 238 296 366 438
#     4  12  20  41  74 113 147 179 244 298 372 458
#     4  10  17  35  67 111 138 184 220 301 374 426
#     4  12  26  48  69  97 140 203 250 303 346 424
#
# _framework density 24.943857000000001
#
# number of rings (size 3 to 8) (size 9 to 14) (size 15 to 20)
#    1.333    0.000    2.222    5.333    0.000    0.000 
#    0.000    1.111    0.000   26.667    0.000    0.000 
#    0.000   10.667    0.000    0.000    0.000    0.000 
#
# Total GULP energy -100242.405964 kJ/mol
# GULP energy per Si atom -5569.022554 kJ/mol
# Density = 2.488708 g / cm^3
# Si number density = 24.943857 Si / 1000 Ang^3
#
#
#
# Elastic Constant Matrix: (Units=GPa)
#
#
# Indices 1 2 3 4 5 6 
#
# 1 131.3032 38.8185 52.3305 0.0000 12.8108 0.0000
# 2 38.8185 131.1973 71.3883 0.0000 -7.3867 0.0000
# 3 52.3305 71.3883 220.5753 0.0000 -33.1461 0.0000
# 4 0.0000 0.0000 0.0000 55.0991 0.0000 -20.3355
# 5 12.8108 -7.3867 -33.1461 0.0000 62.6108 0.0000
# 6 0.0000 0.0000 0.0000 -20.3355 0.0000 35.9569
#
#
#
# Elastic Compliance Matrix: (Units=1/GPa)
#
#
# Indices 1 2 3 4 5 6 
#
# 1 0.009302 -0.001783 -0.002116 0.000000 -0.003234 0.000000
# 2 -0.001783 0.009610 -0.002675 0.000000 0.000083 0.000000
# 3 -0.002116 -0.002675 0.006430 0.000000 0.003522 0.000000
# 4 0.000000 0.000000 0.000000 0.022937 0.000000 0.012972
# 5 -0.003234 0.000083 0.003522 0.000000 0.018507 0.000000
# 6 0.000000 0.000000 0.000000 0.012972 0.000000 0.035147
#
#
# Mechanical properties :
#
#
# Convention : Reuss Voigt Hill
#
# Bulk Modulus (GPa) = 82.00070 89.79449 85.89759
# Shear Modulus (GPa) = 41.96563 52.10261 47.03412
#
# Velocity S-wave (km/s) = 4.10616 4.57529 4.34706
# Velocity P-wave (km/s) = 7.44488 7.99924 7.72703
#
# Compressibility (1/GPa) = 0.01219502
#
# Stress axis : x y z
#
# Youngs Moduli (GPa) = 107.50630 104.06134 155.51204
#
# Poissons Ratio (x) = 0.18555 0.32901
# Poissons Ratio (y) = 0.19169 0.41595
# Poissons Ratio (z) = 0.22744 0.27833
#
# Static dielectric constant tensor:
#      x y z
#    x 2.381550 0.000000 -0.010750 
#    y 0.000000 1.961310 0.000000 
#    z -0.010750 0.000000 2.039750 
# 
# From -- ./inp_files/13040.got.cif
#   From: 2010.05.17/outbox.cif.g08.bks.cpg/sg15_7_cif.got.tgz:13040.got - 2010.06.03 18:47:42.
