data_PCOD9256617
_publ_section_title
;
Structure prediction by ZEFSAII (Michael W. Deem and Ramdas Pophale) SiO2 
 PCOD9256617
Probable space group: C 2/C
;
_chemical_formula_sum "Si O2"
_cell_formula_units_Z 60
_cell_length_a 12.801131
_cell_length_b 19.168643
_cell_length_c 18.048415
_cell_angle_alpha 90.000000
_cell_angle_beta 43.859822
_cell_angle_gamma 90.000000
_cell_volume 3068.647984
_symmetry_space_group_name_H-M "C 2/C"
_symmetry_group_IT_number 15
_symmetry_cell_setting 'monoclinic'
loop_
_space_group_symop_operation_xyz
x,y,z
-x,y,1/2-z
-x,-y,-z
x,-y,1/2+z
1/2+x,1/2+y,z
1/2-x,1/2+y,1/2-z
1/2-x,1/2-y,-z
1/2+x,1/2-y,1/2+z
loop_
_atom_site_type_symbol
_atom_site_label
_atom_site_fract_x
_atom_site_fract_y
_atom_site_fract_z
Si Si1 0.781804 0.128388 0.206325
Si Si2 0.057772 0.008449 0.304474
Si Si3 0.845040 0.911433 0.505048
Si Si4 0.080247 0.241480 0.560315
Si Si5 0.000000 0.776662 0.250000
Si Si6 0.535589 0.934703 0.580016
Si Si7 0.879334 0.568153 0.637700
Si Si8 0.678004 0.787557 0.361424
O O1 0.901600 0.088329 0.197028
O O2 0.810007 0.094956 0.110132
O O3 0.617477 0.106271 0.321230
O O4 0.806670 0.211653 0.184070
O O5 0.000000 0.000669 0.250000
O O6 0.215030 0.966267 0.230439
O O7 0.938817 0.975629 0.423401
O O8 0.940756 0.841653 0.435837
O O9 0.682606 0.910193 0.548466
O O10 0.250000 0.250000 0.500000
O O11 0.002605 0.267494 0.674082
O O12 0.065513 0.275682 0.488491
O O13 0.837989 0.812432 0.318535
O O14 0.575413 0.930693 0.472536
O O15 0.496486 0.015943 0.616316
O O16 0.873058 0.648999 0.663345
#
# Coordination Sequence:
#
# PCOD9256617 Si02
#       8
#     8   8   8   8   4   8   8   8
#     4  10  24  37  55  86 116 148 184 236 288 339
#     4  11  22  39  60  81 111 153 194 230 281 339
#     4  11  20  35  58  80 114 149 186 232 281 340
#     4   9  19  27  44  77 109 136 170 213 279 334
#     4  10  18  28  46  76 110 146 172 212 282 338
#     4  10  20  35  58  85 115 148 191 231 283 336
#     4  10  21  36  56  88 114 149 190 235 280 339
#     4  10  21  32  51  79 116 142 179 228 283 337
#
# _framework density 19.552585000000001
#
# number of rings (size 3 to 8) (size 9 to 14) (size 15 to 20)
#    0.000    1.867    1.333    3.200    9.333    0.000 
#    0.000    0.000    0.000    4.000    0.000    0.000 
#    0.000    0.000    0.000    0.000    0.000    0.000 
#
# Total GULP energy -167055.620929 kJ/mol
# GULP energy per Si atom -5568.520698 kJ/mol
# Density = 1.950808 g / cm^3
# Si number density = 19.552585 Si / 1000 Ang^3
#
#
#
# Elastic Constant Matrix: (Units=GPa)
#
#
# Indices 1 2 3 4 5 6 
#
# 1 22.6752 15.7891 0.3830 -0.0002 -5.7803 0.0002
# 2 15.7891 127.7003 13.5214 -0.0011 -11.9081 0.0004
# 3 0.3830 13.5214 91.3860 -0.0012 -3.3919 0.0009
# 4 -0.0002 -0.0011 -0.0012 -36.0961 -0.0002 -7.3095
# 5 -5.7803 -11.9081 -3.3919 -0.0002 17.2609 -0.0003
# 6 0.0002 0.0004 0.0009 -7.3095 -0.0003 26.1382
#
#
#
# Elastic Compliance Matrix: (Units=1/GPa)
#
#
# Indices 1 2 3 4 5 6 
#
# 1 0.051189 -0.005155 0.001060 0.000000 0.013794 0.000000
# 2 -0.005155 0.008986 -0.001150 0.000000 0.004247 0.000000
# 3 0.001060 -0.001150 0.011174 0.000000 0.001757 0.000000
# 4 0.000000 0.000000 0.000000 -0.026219 -0.000001 -0.007332
# 5 0.013794 0.004247 0.001757 -0.000001 0.065829 0.000000
# 6 0.000000 0.000000 0.000000 -0.007332 0.000000 0.036208
#
#
# Mechanical properties :
#
#
# Convention : Reuss Voigt Hill
#
# Bulk Modulus (GPa) = 16.43161 33.46094 24.94627
# Shear Modulus (GPa) = 28.09889 15.59846 21.84868
#
# Velocity S-wave (km/s) = 3.79501 2.82755 3.34643
# Velocity P-wave (km/s) = 5.25594 5.27356 5.26476
#
# Compressibility (1/GPa) = 0.06085830
#
# Stress axis : x y z
#
# Youngs Moduli (GPa) = 19.53541 111.28360 89.49690
#
# Poissons Ratio (x) = 0.57367 -0.09488
# Poissons Ratio (y) = 0.10071 0.10295
# Poissons Ratio (z) = -0.02071 0.12801
#
# Static dielectric constant tensor:
#      x y z
#    x 1.646350 0.000000 -0.030260 
#    y 0.000000 1.786710 0.000000 
#    z -0.030260 0.000000 1.848650 
# 
# From -- ./inp_files/244909.got.cif
#   From: 2010.05.17/outbox.cif.g08.bks.cpg/sg15_123_cif.got.tgz:244909.got - 2010.06.03 18:47:42.
