data_PCOD9256884
_publ_section_title
;
Structure prediction by ZEFSAII (Michael W. Deem and Ramdas Pophale) SiO2 
 PCOD9256884
Probable space group: C 2/C
;
_chemical_formula_sum "Si O2"
_cell_formula_units_Z 60
_cell_length_a 8.465794
_cell_length_b 15.253096
_cell_length_c 26.040488
_cell_angle_alpha 90.000000
_cell_angle_beta 41.209312
_cell_angle_gamma 90.000000
_cell_volume 2215.318361
_symmetry_space_group_name_H-M "C 2/C"
_symmetry_group_IT_number 15
_symmetry_cell_setting 'monoclinic'
loop_
_space_group_symop_operation_xyz
x,y,z
-x,y,1/2-z
-x,-y,-z
x,-y,1/2+z
1/2+x,1/2+y,z
1/2-x,1/2+y,1/2-z
1/2-x,1/2-y,-z
1/2+x,1/2-y,1/2+z
loop_
_atom_site_type_symbol
_atom_site_label
_atom_site_fract_x
_atom_site_fract_y
_atom_site_fract_z
Si Si1 0.080381 0.141923 0.856924
Si Si2 0.330239 0.847717 0.966355
Si Si3 0.737252 0.844546 0.361075
Si Si4 0.148751 0.409407 0.967241
Si Si5 0.371879 0.983896 0.733826
Si Si6 0.014330 0.909188 0.964863
Si Si7 0.890433 0.654497 0.866898
Si Si8 0.000000 0.987890 0.750000
O O1 0.212599 0.058855 0.800907
O O2 0.280279 0.190106 0.841591
O O3 0.872552 0.108158 0.946451
O O4 0.952846 0.192818 0.841904
O O5 0.591920 0.870329 0.924731
O O6 0.271514 0.873035 0.921903
O O7 0.250000 0.750000 0.000000
O O8 0.516919 0.852686 0.453825
O O9 0.622990 0.805931 0.337431
O O10 0.831929 0.942202 0.322519
O O11 0.406617 0.413144 0.933216
O O12 0.000000 0.500000 0.000000
O O13 0.500000 0.936195 0.750000
O O14 0.548020 0.050857 0.659444
O O15 0.181765 0.938635 0.742990
O O16 0.826454 0.845511 0.039920
O O17 0.000000 0.000000 0.000000
#
# Coordination Sequence:
#
# PCOD9256884 Si02
#       8
#     8   8   8   8   8   8   8   4
#     4   8  14  24  38  56  84 116 138 178 234 272
#     4  10  20  32  46  68  97 126 159 198 234 285
#     4   8  14  22  36  57  83 114 139 181 227 274
#     4  10  18  30  47  67  93 129 161 191 234 285
#     4   8  12  20  34  54  81 109 134 178 232 270
#     4  10  18  30  47  67  95 132 160 193 238 285
#     4   8  14  22  36  59  85 111 143 184 226 269
#     4   8  12  20  32  52  82 110 130 176 236 268
#
# _framework density 27.084140999999999
#
# number of rings (size 3 to 8) (size 9 to 14) (size 15 to 20)
#    0.000    3.200    1.333    0.000    0.000    0.533 
#    0.000    0.000    0.000    0.000    0.000    0.000 
#   10.000    0.000  134.267    0.133    0.000    0.400 
#
# Total GULP energy -167039.852175 kJ/mol
# GULP energy per Si atom -5567.995073 kJ/mol
# Density = 2.702250 g / cm^3
# Si number density = 27.084141 Si / 1000 Ang^3
#
#
#
# Elastic Constant Matrix: (Units=GPa)
#
#
# Indices 1 2 3 4 5 6 
#
# 1 432.6667 35.8249 -6.7817 -0.0004 11.4130 -0.0006
# 2 35.8249 62.3586 -2.9338 -0.0003 2.4159 -0.0005
# 3 -6.7817 -2.9338 76.2741 -0.0042 -5.7555 0.0003
# 4 -0.0004 -0.0003 -0.0042 3.9132 0.0037 -1.2335
# 5 11.4130 2.4159 -5.7555 0.0037 18.8384 -0.0007
# 6 -0.0006 -0.0005 0.0003 -1.2335 -0.0007 -7.1752
#
#
#
# Elastic Compliance Matrix: (Units=1/GPa)
#
#
# Indices 1 2 3 4 5 6 
#
# 1 0.002459 -0.001359 0.000069 0.000001 -0.001294 0.000000
# 2 -0.001359 0.016885 0.000437 0.000002 -0.001208 -0.000001
# 3 0.000069 0.000437 0.013436 0.000010 0.004007 -0.000002
# 4 0.000001 0.000002 0.000010 0.242410 -0.000048 -0.041673
# 5 -0.001294 -0.001208 0.004007 -0.000048 0.055246 0.000003
# 6 0.000000 -0.000001 -0.000002 -0.041673 0.000003 -0.132205
#
#
# Mechanical properties :
#
#
# Convention : Reuss Voigt Hill
#
# Bulk Modulus (GPa) = 32.18218 69.27978 50.73098
# Shear Modulus (GPa) = 23.77608 39.46129 31.61868
#
# Velocity S-wave (km/s) = 2.96608 3.82119 3.42047
# Velocity P-wave (km/s) = 4.86192 6.71593 5.86268
#
# Compressibility (1/GPa) = 0.03107310
#
# Stress axis : x y z
#
# Youngs Moduli (GPa) = 406.66565 59.22562 74.42734
#
# Poissons Ratio (x) = 0.08051 -0.00511
# Poissons Ratio (y) = 0.55279 -0.03256
# Poissons Ratio (z) = -0.02793 -0.02591
#
# Static dielectric constant tensor:
#      x y z
#    x 2.312300 0.000000 0.017530 
#    y 0.000000 2.115720 -0.000010 
#    z 0.017530 -0.000010 2.248150 
# 
# From -- ./inp_files/289429.got.cif
#   From: 2010.05.17/outbox.cif.g08.bks.cpg/sg15_145_cif.got.tgz:289429.got - 2010.06.03 18:47:42.
