data_PCOD9256698
_publ_section_title
;
Structure prediction by ZEFSAII (Michael W. Deem and Ramdas Pophale) SiO2 
 PCOD9256698
Probable space group: C 2/C
;
_chemical_formula_sum "Si O2"
_cell_formula_units_Z 36
_cell_length_a 19.014751
_cell_length_b 15.327662
_cell_length_c 5.554250
_cell_angle_alpha 90.000000
_cell_angle_beta 62.099014
_cell_angle_gamma 90.000000
_cell_volume 1430.622766
_symmetry_space_group_name_H-M "C 2/C"
_symmetry_group_IT_number 15
_symmetry_cell_setting 'monoclinic'
loop_
_space_group_symop_operation_xyz
x,y,z
-x,y,1/2-z
-x,-y,-z
x,-y,1/2+z
1/2+x,1/2+y,z
1/2-x,1/2+y,1/2-z
1/2-x,1/2-y,-z
1/2+x,1/2-y,1/2+z
loop_
_atom_site_type_symbol
_atom_site_label
_atom_site_fract_x
_atom_site_fract_y
_atom_site_fract_z
Si Si1 0.429910 0.171887 0.674247
Si Si2 0.500000 0.948191 0.750000
Si Si3 0.697936 0.338513 0.119679
Si Si4 0.985732 0.853486 0.023804
Si Si5 0.256103 0.855037 0.527851
O O1 0.500000 0.151746 0.750000
O O2 0.430422 0.121171 0.418031
O O3 0.450560 0.272693 0.584686
O O4 0.349754 0.137345 0.921445
O O5 0.500000 0.000000 0.500000
O O6 0.605385 0.320033 0.322071
O O7 0.729262 0.388403 0.308056
O O8 0.750000 0.250000 0.000000
O O9 0.708592 0.383331 0.841143
O O10 0.000000 0.901219 0.250000
O O11 0.000000 0.900340 0.750000
O O12 0.250000 0.750000 0.500000
#
# Coordination Sequence:
#
# PCOD9256698 Si02
#       5
#     8   4   8   8   8
#     4  11  22  35  56  70  98 136 181 217 256 298
#     4  12  26  40  52  72  96 130 188 240 258 280
#     4  10  18  29  41  66 100 118 163 208 237 293
#     4  11  19  29  47  70  93 136 173 206 238 298
#     4  10  20  30  47  71  98 123 165 213 249 307
#
# _framework density 25.163868000000001
#
# number of rings (size 3 to 8) (size 9 to 14) (size 15 to 20)
#    0.000    1.333    2.222    9.333    3.111    0.000 
#    0.000    0.000    0.000    0.000    0.000    0.000 
#    0.000    0.000    0.000    0.000    0.000  231.111 
#
# Total GULP energy -100292.873714 kJ/mol
# GULP energy per Si atom -5571.826317 kJ/mol
# Density = 2.510659 g / cm^3
# Si number density = 25.163868 Si / 1000 Ang^3
#
#
#
# Elastic Constant Matrix: (Units=GPa)
#
#
# Indices 1 2 3 4 5 6 
#
# 1 126.0208 -3.7478 76.9240 0.0000 21.2923 0.0000
# 2 -3.7478 58.6763 19.9468 0.0000 17.8170 0.0000
# 3 76.9240 19.9468 247.9339 0.0000 40.0110 0.0000
# 4 0.0000 0.0000 0.0000 -0.1568 0.0000 -0.4500
# 5 21.2923 17.8170 40.0110 0.0000 70.0849 0.0000
# 6 0.0000 0.0000 0.0000 -0.4500 0.0000 -12.0799
#
#
#
# Elastic Compliance Matrix: (Units=1/GPa)
#
#
# Indices 1 2 3 4 5 6 
#
# 1 0.010178 0.002269 -0.003027 0.000000 -0.001941 0.000000
# 2 0.002269 0.019120 -0.001483 0.000000 -0.004703 0.000000
# 3 -0.003027 -0.001483 0.005378 0.000000 -0.001774 0.000000
# 4 0.000000 0.000000 0.000000 -7.141025 0.000000 0.266028
# 5 -0.001941 -0.004703 -0.001774 0.000000 0.017066 0.000000
# 6 0.000000 0.000000 0.000000 0.266028 0.000000 -0.092693
#
#
# Mechanical properties :
#
#
# Convention : Reuss Voigt Hill
#
# Bulk Modulus (GPa) = 33.12053 68.76411 50.94232
# Shear Modulus (GPa) = -0.69760 34.20352 16.75296
#
# Velocity S-wave (km/s) = -0.52709 3.69078 2.58302
# Velocity P-wave (km/s) = 3.58051 6.74895 5.40224
#
# Compressibility (1/GPa) = 0.03019275
#
# Stress axis : x y z
#
# Youngs Moduli (GPa) = 98.24688 52.30173 185.93888
#
# Poissons Ratio (x) = -0.11865 0.56289
# Poissons Ratio (y) = -0.22288 0.27576
# Poissons Ratio (z) = 0.29742 0.07757
#
# Static dielectric constant tensor:
#      x y z
#    x 4.021180 0.000000 -0.439580 
#    y 0.000000 2.134540 0.000000 
#    z -0.439580 0.000000 2.231760 
# 
# From -- ./inp_files/7147.got.cif
#   From: 2010.05.17/outbox.cif.g08.bks.cpg/sg15_4_cif.got.tgz:7147.got - 2010.06.03 18:47:42.
