data_PCOD9256032
_publ_section_title
;
Structure prediction by ZEFSAII (Michael W. Deem and Ramdas Pophale) SiO2 
 PCOD9256032
Probable space group: C 2/C
;
_chemical_formula_sum "Si O2"
_cell_formula_units_Z 56
_cell_length_a 16.151082
_cell_length_b 8.862601
_cell_length_c 19.597472
_cell_angle_alpha 90.000000
_cell_angle_beta 115.792145
_cell_angle_gamma 90.000000
_cell_volume 2525.736004
_symmetry_space_group_name_H-M "C 2/C"
_symmetry_group_IT_number 15
_symmetry_cell_setting 'monoclinic'
loop_
_space_group_symop_operation_xyz
x,y,z
-x,y,1/2-z
-x,-y,-z
x,-y,1/2+z
1/2+x,1/2+y,z
1/2-x,1/2+y,1/2-z
1/2-x,1/2-y,-z
1/2+x,1/2-y,1/2+z
loop_
_atom_site_type_symbol
_atom_site_label
_atom_site_fract_x
_atom_site_fract_y
_atom_site_fract_z
Si Si1 0.392554 0.145898 0.296839
Si Si2 0.787808 0.135898 0.433257
Si Si3 0.629644 0.065578 0.591819
Si Si4 0.118167 0.080720 0.624026
Si Si5 0.579358 0.482781 0.909031
Si Si6 0.401724 0.215801 0.143824
Si Si7 0.424851 0.798231 0.016742
O O1 0.350237 0.302493 0.307753
O O2 0.392170 0.146330 0.215664
O O3 0.502132 0.162987 0.353837
O O4 0.352713 0.013539 0.329029
O O5 0.807169 0.297921 0.407795
O O6 0.863741 0.077930 0.513757
O O7 0.685997 0.148834 0.426518
O O8 0.800544 0.019052 0.376038
O O9 0.526969 0.135700 0.560326
O O10 0.633623 0.936621 0.534638
O O11 0.078663 0.179556 0.546953
O O12 0.030315 0.985285 0.617199
O O13 0.594745 0.600249 0.852148
O O14 0.605670 0.306362 0.929654
#
# Coordination Sequence:
#
# PCOD9256032 Si02
#       7
#     8   8   8   8   8   8   8
#     4   9  21  39  55  71 107 159 177 213 277 342
#     4  11  19  32  59  88 103 132 188 243 260 308
#     4  10  18  31  59  85 105 131 185 231 269 307
#     4   9  16  32  58  78 106 140 188 218 267 325
#     4  10  17  34  54  83 110 146 178 214 277 342
#     4  10  22  36  55  74 112 150 184 212 276 335
#     4   9  16  29  54  84 108 134 174 223 269 322
#
# _framework density 22.171755000000001
#
# number of rings (size 3 to 8) (size 9 to 14) (size 15 to 20)
#    0.000    2.286    2.857    1.286    2.000    1.143 
#    0.000    0.714   12.571    0.000    0.000    0.000 
#    0.000    0.000    0.000    0.000    0.000    0.000 
#
# Total GULP energy -156085.311687 kJ/mol
# GULP energy per Si atom -5574.475417 kJ/mol
# Density = 2.212129 g / cm^3
# Si number density = 22.171755 Si / 1000 Ang^3
#
#
#
# Elastic Constant Matrix: (Units=GPa)
#
#
# Indices 1 2 3 4 5 6 
#
# 1 52.5925 28.7076 14.4721 0.0000 -2.2985 0.0000
# 2 28.7076 116.0217 22.0088 0.0000 -10.0064 0.0000
# 3 14.4721 22.0088 31.0151 0.0000 -10.9636 0.0000
# 4 0.0000 0.0000 0.0000 16.4722 0.0000 -15.6827
# 5 -2.2985 -10.0064 -10.9636 0.0000 20.6616 0.0000
# 6 0.0000 0.0000 0.0000 -15.6827 0.0000 36.9727
#
#
#
# Elastic Compliance Matrix: (Units=1/GPa)
#
#
# Indices 1 2 3 4 5 6 
#
# 1 0.023905 -0.004492 -0.009596 0.000000 -0.004608 0.000000
# 2 -0.004492 0.010833 -0.004817 0.000000 0.002191 0.000000
# 3 -0.009596 -0.004817 0.047926 0.000000 0.022030 0.000000
# 4 0.000000 0.000000 0.000000 0.101833 0.000000 0.043195
# 5 -0.004608 0.002191 0.022030 0.000000 0.060637 0.000000
# 6 0.000000 0.000000 0.000000 0.043195 0.000000 0.045369
#
#
# Mechanical properties :
#
#
# Convention : Reuss Voigt Hill
#
# Bulk Modulus (GPa) = 22.29429 36.66737 29.48083
# Shear Modulus (GPa) = 14.56604 23.78402 19.17503
#
# Velocity S-wave (km/s) = 2.56591 3.27879 2.94401
# Velocity P-wave (km/s) = 4.34231 5.55947 4.98815
#
# Compressibility (1/GPa) = 0.04485454
#
# Stress axis : x y z
#
# Youngs Moduli (GPa) = 41.83185 92.30821 20.86566
#
# Poissons Ratio (x) = 0.41466 0.20022
# Poissons Ratio (y) = 0.18791 0.10051
# Poissons Ratio (z) = 0.40141 0.44465
#
# Static dielectric constant tensor:
#      x y z
#    x 1.819560 0.000000 0.008780 
#    y 0.000000 1.840250 0.000000 
#    z 0.008780 0.000000 1.914270 
# 
# From -- ./inp_files/276343.got.cif
#   From: 2010.05.17/outbox.cif.g08.bks.cpg/sg15_139_cif.got.tgz:276343.got - 2010.06.03 18:47:42.
