data_PCOD9256184
_publ_section_title
;
Structure prediction by ZEFSAII (Michael W. Deem and Ramdas Pophale) SiO2 
 PCOD9256184
Probable space group: C 2/C
;
_chemical_formula_sum "Si O2"
_cell_formula_units_Z 52
_cell_length_a 14.223394
_cell_length_b 17.850547
_cell_length_c 12.380872
_cell_angle_alpha 90.000000
_cell_angle_beta 119.329915
_cell_angle_gamma 90.000000
_cell_volume 2740.499091
_symmetry_space_group_name_H-M "C 2/C"
_symmetry_group_IT_number 15
_symmetry_cell_setting 'monoclinic'
loop_
_space_group_symop_operation_xyz
x,y,z
-x,y,1/2-z
-x,-y,-z
x,-y,1/2+z
1/2+x,1/2+y,z
1/2-x,1/2+y,1/2-z
1/2-x,1/2-y,-z
1/2+x,1/2-y,1/2+z
loop_
_atom_site_type_symbol
_atom_site_label
_atom_site_fract_x
_atom_site_fract_y
_atom_site_fract_z
Si Si1 0.237667 0.356828 0.667034
Si Si2 0.084799 0.763721 0.659216
Si Si3 0.302716 0.835962 0.441075
Si Si4 0.874032 0.278452 0.700174
Si Si5 0.629357 0.805377 0.404066
Si Si6 0.382322 0.989407 0.380297
Si Si7 0.500000 0.938861 0.250000
O O1 0.355978 0.341618 0.783165
O O2 0.156836 0.311453 0.700699
O O3 0.225317 0.320627 0.540482
O O4 0.196778 0.441365 0.643663
O O5 0.117559 0.727033 0.565328
O O6 0.141685 0.711250 0.783997
O O7 0.957625 0.756417 0.605213
O O8 0.185928 0.801130 0.349242
O O9 0.323542 0.833429 0.580432
O O10 0.331004 0.913965 0.400764
O O11 0.000000 0.274069 0.750000
O O12 0.561542 0.883079 0.366327
O O13 0.412457 0.983101 0.270232
O O14 0.500000 0.000000 0.500000
#
# Coordination Sequence:
#
# PCOD9256184 Si02
#       7
#     8   8   8   8   8   8   4
#     4  11  22  30  53  83 100 137 172 212 260 317
#     4   9  18  34  52  75 101 135 174 208 255 306
#     4  10  20  36  52  78 107 140 169 220 264 307
#     4  10  21  35  55  77 103 139 186 209 251 314
#     4  10  17  35  55  72 106 129 172 215 258 299
#     4  12  21  33  52  77 114 131 167 216 277 312
#     4  10  20  32  50  76 104 144 152 212 278 314
#
# _framework density 18.974646
#
# number of rings (size 3 to 8) (size 9 to 14) (size 15 to 20)
#    0.000    1.846    4.615    2.308    3.231    0.000 
#    0.000    0.000    3.385    0.000    0.000    5.385 
#    0.000    0.000    0.000    0.000    0.000    0.000 
#
# Total GULP energy -144921.158782 kJ/mol
# GULP energy per Si atom -5573.890722 kJ/mol
# Density = 1.893146 g / cm^3
# Si number density = 18.974646 Si / 1000 Ang^3
#
#
#
# Elastic Constant Matrix: (Units=GPa)
#
#
# Indices 1 2 3 4 5 6 
#
# 1 59.1593 22.4131 4.5262 0.0000 -0.9413 0.0000
# 2 22.4131 96.8770 18.7795 0.0000 7.5819 0.0000
# 3 4.5262 18.7795 47.1685 0.0000 -4.1559 0.0000
# 4 0.0000 0.0000 0.0000 9.8237 0.0000 -1.7909
# 5 -0.9413 7.5819 -4.1559 0.0000 33.4962 0.0000
# 6 0.0000 0.0000 0.0000 -1.7909 0.0000 27.4382
#
#
#
# Elastic Compliance Matrix: (Units=1/GPa)
#
#
# Indices 1 2 3 4 5 6 
#
# 1 0.018604 -0.004449 0.000122 0.000000 0.001545 0.000000
# 2 -0.004449 0.012581 -0.004898 0.000000 -0.003580 0.000000
# 3 0.000122 -0.004898 0.023494 0.000000 0.004027 0.000000
# 4 0.000000 0.000000 0.000000 0.103021 0.000000 0.006724
# 5 0.001545 -0.003580 0.004027 0.000000 0.031208 0.000000
# 6 0.000000 0.000000 0.000000 0.006724 0.000000 0.036884
#
#
# Mechanical properties :
#
#
# Convention : Reuss Voigt Hill
#
# Bulk Modulus (GPa) = 27.60108 32.73805 30.16956
# Shear Modulus (GPa) = 19.50710 24.65069 22.07889
#
# Velocity S-wave (km/s) = 3.20982 3.60827 3.41486
# Velocity P-wave (km/s) = 5.32120 5.88647 5.61095
#
# Compressibility (1/GPa) = 0.03623046
#
# Stress axis : x y z
#
# Youngs Moduli (GPa) = 53.75118 79.48341 42.56486
#
# Poissons Ratio (x) = 0.35361 -0.00520
# Poissons Ratio (y) = 0.23913 0.20847
# Poissons Ratio (z) = -0.00656 0.38928
#
# Static dielectric constant tensor:
#      x y z
#    x 1.706540 0.000000 -0.007640 
#    y 0.000000 1.694450 0.000000 
#    z -0.007640 0.000000 1.720170 
# 
# From -- ./inp_files/98455.got.cif
#   From: 2010.05.17/outbox.cif.g08.bks.cpg/sg15_50_cif.got.tgz:98455.got - 2010.06.03 18:47:42.
