data_PCOD9256005
_publ_section_title
;
Structure prediction by ZEFSAII (Michael W. Deem and Ramdas Pophale) SiO2 
 PCOD9256005
Probable space group: C 2/C
;
_chemical_formula_sum "Si O2"
_cell_formula_units_Z 44
_cell_length_a 24.655958
_cell_length_b 13.182638
_cell_length_c 8.338676
_cell_angle_alpha 90.000000
_cell_angle_beta 129.464598
_cell_angle_gamma 90.000000
_cell_volume 2092.417908
_symmetry_space_group_name_H-M "C 2/C"
_symmetry_group_IT_number 15
_symmetry_cell_setting 'monoclinic'
loop_
_space_group_symop_operation_xyz
x,y,z
-x,y,1/2-z
-x,-y,-z
x,-y,1/2+z
1/2+x,1/2+y,z
1/2-x,1/2+y,1/2-z
1/2-x,1/2-y,-z
1/2+x,1/2-y,1/2+z
loop_
_atom_site_type_symbol
_atom_site_label
_atom_site_fract_x
_atom_site_fract_y
_atom_site_fract_z
Si Si1 0.673438 0.621146 0.762685
Si Si2 0.197654 0.702302 0.708314
Si Si3 0.214146 0.080523 0.210268
Si Si4 0.592765 0.800532 0.717695
Si Si5 0.000000 0.409223 0.750000
Si Si6 0.856795 0.496027 0.873703
O O1 0.732724 0.675558 0.764385
O O2 0.663118 0.509034 0.672161
O O3 0.607737 0.698117 0.648643
O O4 0.701653 0.604094 0.997676
O O5 0.207135 0.814888 0.795673
O O6 0.134277 0.715220 0.461698
O O7 0.171659 0.602575 0.752505
O O8 0.292059 0.034240 0.365370
O O9 0.516069 0.838032 0.626686
O O10 0.629405 0.897034 0.704962
O O11 0.931579 0.477705 0.593899
#
# Coordination Sequence:
#
# PCOD9256005 Si02
#       6
#     8   8   8   8   4   8
#     4  10  18  32  55  77 109 140 173 222 267 318
#     4   9  17  31  52  76 105 142 168 216 272 325
#     4  10  18  33  54  81 109 140 173 216 275 320
#     4  10  17  34  51  72 103 145 181 213 256 322
#     4  10  22  30  50  76 106 148 178 212 262 308
#     4  10  18  31  51  77 107 133 177 215 260 317
#
# _framework density 21.028303000000001
#
# number of rings (size 3 to 8) (size 9 to 14) (size 15 to 20)
#    0.000    2.182    3.636    1.636    0.000    0.000 
#    0.000    7.273    0.000    9.818    0.000    5.091 
#    0.000    0.000    0.000    0.000    0.000    0.000 
#
# Total GULP energy -122553.640964 kJ/mol
# GULP energy per Si atom -5570.620044 kJ/mol
# Density = 2.098044 g / cm^3
# Si number density = 21.028303 Si / 1000 Ang^3
#
#
#
# Elastic Constant Matrix: (Units=GPa)
#
#
# Indices 1 2 3 4 5 6 
#
# 1 55.1865 52.2945 6.8962 0.0000 1.7426 0.0000
# 2 52.2945 204.3660 16.5663 0.0000 4.3252 0.0000
# 3 6.8962 16.5663 32.8447 0.0000 9.6268 0.0000
# 4 0.0000 0.0000 0.0000 5.9061 0.0000 7.3173
# 5 1.7426 4.3252 9.6268 0.0000 18.9634 0.0000
# 6 0.0000 0.0000 0.0000 7.3173 0.0000 21.5955
#
#
#
# Elastic Compliance Matrix: (Units=1/GPa)
#
#
# Indices 1 2 3 4 5 6 
#
# 1 0.024050 -0.005989 -0.002093 0.000000 0.000218 0.000000
# 2 -0.005989 0.006594 -0.002101 0.000000 0.000113 0.000000
# 3 -0.002093 -0.002101 0.037299 0.000000 -0.018263 0.000000
# 4 0.000000 0.000000 0.000000 0.291827 0.000000 -0.098881
# 5 0.000218 0.000113 -0.018263 0.000000 0.061959 0.000000
# 6 0.000000 0.000000 0.000000 -0.098881 0.000000 0.079810
#
#
# Mechanical properties :
#
#
# Convention : Reuss Voigt Hill
#
# Bulk Modulus (GPa) = 21.01913 49.32345 35.17129
# Shear Modulus (GPa) = 9.29776 23.73568 16.51672
#
# Velocity S-wave (km/s) = 2.10503 3.36333 2.80563
# Velocity P-wave (km/s) = 3.99068 6.21203 5.22086
#
# Compressibility (1/GPa) = 0.04757571
#
# Stress axis : x y z
#
# Youngs Moduli (GPa) = 41.57957 151.66079 26.81063
#
# Poissons Ratio (x) = 0.90831 0.05611
# Poissons Ratio (y) = 0.24902 0.05634
# Poissons Ratio (z) = 0.08702 0.31871
#
# Static dielectric constant tensor:
#      x y z
#    x 1.786990 0.000000 -0.042720 
#    y 0.000000 1.850060 0.000000 
#    z -0.042720 0.000000 1.812720 
# 
# From -- ./inp_files/65658.got.cif
#   From: 2010.05.17/outbox.cif.g08.bks.cpg/sg15_33_cif.got.tgz:65658.got - 2010.06.03 18:47:42.
