data_PCOD9256478
_publ_section_title
;
Structure prediction by ZEFSAII (Michael W. Deem and Ramdas Pophale) SiO2 
 PCOD9256478
Probable space group: C 2/C
;
_chemical_formula_sum "Si O2"
_cell_formula_units_Z 32
_cell_length_a 5.028974
_cell_length_b 19.359804
_cell_length_c 11.899003
_cell_angle_alpha 90.000000
_cell_angle_beta 102.707381
_cell_angle_gamma 90.000000
_cell_volume 1130.110633
_symmetry_space_group_name_H-M "C 2/C"
_symmetry_group_IT_number 15
_symmetry_cell_setting 'monoclinic'
loop_
_space_group_symop_operation_xyz
x,y,z
-x,y,1/2-z
-x,-y,-z
x,-y,1/2+z
1/2+x,1/2+y,z
1/2-x,1/2+y,1/2-z
1/2-x,1/2-y,-z
1/2+x,1/2-y,1/2+z
loop_
_atom_site_type_symbol
_atom_site_label
_atom_site_fract_x
_atom_site_fract_y
_atom_site_fract_z
Si Si1 0.500000 0.694196 0.750000
Si Si2 0.304224 0.955995 0.903562
Si Si3 0.547117 0.626498 0.550469
Si Si4 0.500000 0.942250 0.250000
Si Si5 0.216687 0.814617 0.857155
O O1 0.360336 0.649204 0.637669
O O2 0.316602 0.746629 0.804958
O O3 0.425500 0.878817 0.890567
O O4 0.297481 0.004460 0.795416
O O5 0.042942 0.933765 0.955496
O O6 0.500000 0.000000 0.000000
O O7 0.810659 0.603138 0.649624
O O8 0.581390 0.690465 0.467221
O O9 0.000000 0.845582 0.750000
#
# Coordination Sequence:
#
# PCOD9256478 Si02
#       5
#     4   8   8   4   8
#     4  12  23  44  66  94 143 180 220 276 330 380
#     4   8  18  40  69  93 128 171 218 269 333 390
#     4   9  23  40  64 103 126 180 228 263 337 399
#     4  10  17  44  72  90 139 172 212 294 334 382
#     4  10  23  44  68 100 135 171 224 272 331 401
#
# _framework density 28.315809000000002
#
# number of rings (size 3 to 8) (size 9 to 14) (size 15 to 20)
#    1.500    1.000    0.000    1.500    1.750    1.000 
#    6.750    2.500    0.000    0.000    0.000    0.000 
#    0.000    0.000    0.000    0.000    0.000    0.000 
#
# Total GULP energy -89118.816577 kJ/mol
# GULP energy per Si atom -5569.926036 kJ/mol
# Density = 2.825136 g / cm^3
# Si number density = 28.315809 Si / 1000 Ang^3
#
#
#
# Elastic Constant Matrix: (Units=GPa)
#
#
# Indices 1 2 3 4 5 6 
#
# 1 55.9654 25.9740 44.7510 0.0000 -18.2296 0.0000
# 2 25.9740 144.0498 54.3124 0.0000 -30.7644 0.0000
# 3 44.7510 54.3124 257.1601 0.0000 -39.6330 0.0000
# 4 0.0000 0.0000 0.0000 -71.5273 0.0000 1.8337
# 5 -18.2296 -30.7644 -39.6330 0.0000 35.4934 0.0000
# 6 0.0000 0.0000 0.0000 1.8337 0.0000 36.3009
#
#
#
# Elastic Compliance Matrix: (Units=1/GPa)
#
#
# Indices 1 2 3 4 5 6 
#
# 1 0.023111 -0.001578 -0.002500 0.000000 0.007711 0.000000
# 2 -0.001578 0.008765 -0.000641 0.000000 0.006071 0.000000
# 3 -0.002500 -0.000641 0.005044 0.000000 0.003792 0.000000
# 4 0.000000 0.000000 0.000000 -0.013963 0.000000 0.000705
# 5 0.007711 0.006071 0.003792 0.000000 0.041631 0.000000
# 6 0.000000 0.000000 0.000000 0.000705 0.000000 0.027512
#
#
# Mechanical properties :
#
#
# Convention : Reuss Voigt Hill
#
# Bulk Modulus (GPa) = 36.38797 78.58333 57.48565
# Shear Modulus (GPa) = 45.16786 22.19593 33.68190
#
# Velocity S-wave (km/s) = 3.99826 2.80281 3.45267
# Velocity P-wave (km/s) = 5.84752 6.18765 6.01999
#
# Compressibility (1/GPa) = 0.02748161
#
# Stress axis : x y z
#
# Youngs Moduli (GPa) = 43.26887 114.09344 198.27469
#
# Poissons Ratio (x) = 0.18002 0.49573
# Poissons Ratio (y) = 0.06827 0.12708
# Poissons Ratio (z) = 0.10818 0.07312
#
# Static dielectric constant tensor:
#      x y z
#    x 2.341890 0.000000 -0.020310 
#    y 0.000000 2.412400 0.000000 
#    z -0.020310 0.000000 2.278280 
# 
# From -- ./inp_files/72255.got.cif
#   From: 2010.05.17/outbox.cif.g08.bks.cpg/sg15_37_cif.got.tgz:72255.got - 2010.06.03 18:47:42.
