data_PCOD9256448
_publ_section_title
;
Structure prediction by ZEFSAII (Michael W. Deem and Ramdas Pophale) SiO2 
 PCOD9256448
Probable space group: C 2/C
;
_chemical_formula_sum "Si O2"
_cell_formula_units_Z 56
_cell_length_a 22.941892
_cell_length_b 14.852654
_cell_length_c 9.040639
_cell_angle_alpha 90.000000
_cell_angle_beta 120.465775
_cell_angle_gamma 90.000000
_cell_volume 2655.250613
_symmetry_space_group_name_H-M "C 2/C"
_symmetry_group_IT_number 15
_symmetry_cell_setting 'monoclinic'
loop_
_space_group_symop_operation_xyz
x,y,z
-x,y,1/2-z
-x,-y,-z
x,-y,1/2+z
1/2+x,1/2+y,z
1/2-x,1/2+y,1/2-z
1/2-x,1/2-y,-z
1/2+x,1/2-y,1/2+z
loop_
_atom_site_type_symbol
_atom_site_label
_atom_site_fract_x
_atom_site_fract_y
_atom_site_fract_z
Si Si1 0.500000 0.275885 0.250000
Si Si2 0.698624 0.368089 0.675039
Si Si3 0.083834 0.154141 0.595971
Si Si4 0.000000 0.065386 0.250000
Si Si5 0.376624 0.818167 0.512984
Si Si6 0.644505 0.506824 0.836893
Si Si7 0.055821 0.505619 0.448762
Si Si8 0.856355 0.340285 0.844330
O O1 0.447750 0.327531 0.283922
O O2 0.546844 0.216520 0.413457
O O3 0.668168 0.266790 0.602181
O O4 0.673521 0.416266 0.795666
O O5 0.680503 0.436014 0.514078
O O6 0.778925 0.357868 0.781640
O O7 0.022172 0.123460 0.417446
O O8 0.137716 0.076080 0.691045
O O9 0.119273 0.241448 0.578396
O O10 0.068174 0.013912 0.293407
O O11 0.385267 0.918353 0.458527
O O12 0.363745 0.836719 0.672596
O O13 0.096579 0.412233 0.512809
O O14 0.000000 0.523026 0.250000
O O15 0.000000 0.500000 0.500000
#
# Coordination Sequence:
#
# PCOD9256448 Si02
#       8
#     4   8   8   4   8   8   8   8
#     4  10  17  38  69  98 122 172 231 274 331 412
#     4  12  27  45  73 101 141 187 233 276 359 426
#     4  11  23  41  67  99 137 176 225 284 351 407
#     4  12  25  42  67 110 140 172 223 308 353 392
#     4  11  22  44  72  99 134 188 229 283 345 421
#     4  12  25  44  71 106 137 179 232 293 344 427
#     4  12  24  45  71 105 136 181 240 296 345 396
#     4  11  26  44  71 100 138 189 234 282 342 432
#
# _framework density 21.090287
#
# number of rings (size 3 to 8) (size 9 to 14) (size 15 to 20)
#    0.000    0.571    6.429    3.000    3.000    0.000 
#    0.000    0.714    0.000    0.000    0.000    0.000 
#    0.000    0.000    0.000    0.000    0.000    0.000 
#
# Total GULP energy -155890.629624 kJ/mol
# GULP energy per Si atom -5567.522487 kJ/mol
# Density = 2.104229 g / cm^3
# Si number density = 21.090287 Si / 1000 Ang^3
#
#
#
# Elastic Constant Matrix: (Units=GPa)
#
#
# Indices 1 2 3 4 5 6 
#
# 1 93.0125 48.0747 6.6319 0.0000 24.5899 0.0000
# 2 48.0747 137.4066 26.8248 0.0000 11.6051 0.0000
# 3 6.6319 26.8248 43.4925 0.0000 11.9418 0.0000
# 4 0.0000 0.0000 0.0000 53.6160 0.0000 20.9698
# 5 24.5899 11.6051 11.9418 0.0000 38.0849 0.0000
# 6 0.0000 0.0000 0.0000 20.9698 0.0000 37.3906
#
#
#
# Elastic Compliance Matrix: (Units=1/GPa)
#
#
# Indices 1 2 3 4 5 6 
#
# 1 0.015874 -0.005436 0.003602 0.000000 -0.009722 0.000000
# 2 -0.005436 0.010171 -0.006080 0.000000 0.002317 0.000000
# 3 0.003602 -0.006080 0.028803 0.000000 -0.009504 0.000000
# 4 0.000000 0.000000 0.000000 0.023892 0.000000 -0.013399
# 5 -0.009722 0.002317 -0.009504 0.000000 0.034809 0.000000
# 6 0.000000 0.000000 0.000000 -0.013399 0.000000 0.034259
#
#
# Mechanical properties :
#
#
# Convention : Reuss Voigt Hill
#
# Bulk Modulus (GPa) = 25.62862 48.55270 37.09066
# Shear Modulus (GPa) = 28.30555 38.64365 33.47460
#
# Velocity S-wave (km/s) = 3.66746 4.28518 3.98830
# Velocity P-wave (km/s) = 5.48743 6.89601 6.23165
#
# Compressibility (1/GPa) = 0.03901888
#
# Stress axis : x y z
#
# Youngs Moduli (GPa) = 62.99437 98.31970 34.71856
#
# Poissons Ratio (x) = 0.53447 -0.12504
# Poissons Ratio (y) = 0.34244 0.21110
# Poissons Ratio (z) = -0.22688 0.59782
#
# Static dielectric constant tensor:
#      x y z
#    x 1.696420 0.000000 -0.023430 
#    y 0.000000 1.896260 0.000000 
#    z -0.023430 0.000000 1.725580 
# 
# From -- ./inp_files/62018.got.cif
#   From: 2010.05.17/outbox.cif.g08.bks.cpg/sg15_32_cif.got.tgz:62018.got - 2010.06.03 18:47:42.
