data_PCOD9256901
_publ_section_title
;
Structure prediction by ZEFSAII (Michael W. Deem and Ramdas Pophale) SiO2 
 PCOD9256901
Probable space group: C 2/C
;
_chemical_formula_sum "Si O2"
_cell_formula_units_Z 52
_cell_length_a 18.946145
_cell_length_b 22.617862
_cell_length_c 14.955585
_cell_angle_alpha 90.000000
_cell_angle_beta 26.350711
_cell_angle_gamma 90.000000
_cell_volume 2844.632703
_symmetry_space_group_name_H-M "C 2/C"
_symmetry_group_IT_number 15
_symmetry_cell_setting 'monoclinic'
loop_
_space_group_symop_operation_xyz
x,y,z
-x,y,1/2-z
-x,-y,-z
x,-y,1/2+z
1/2+x,1/2+y,z
1/2-x,1/2+y,1/2-z
1/2-x,1/2-y,-z
1/2+x,1/2-y,1/2+z
loop_
_atom_site_type_symbol
_atom_site_label
_atom_site_fract_x
_atom_site_fract_y
_atom_site_fract_z
Si Si1 0.253822 0.038940 0.457963
Si Si2 0.000000 0.140323 0.750000
Si Si3 0.897002 0.833712 0.562086
Si Si4 0.875253 0.540311 0.509932
Si Si5 0.364246 0.246528 0.195155
Si Si6 0.645988 0.474038 0.891162
Si Si7 0.899380 0.671900 0.453015
O O1 0.156019 0.099335 0.587458
O O2 0.291159 0.015064 0.514834
O O3 0.433498 0.042957 0.215621
O O4 0.150443 0.012474 0.493015
O O5 0.043128 0.173077 0.609612
O O6 0.740096 0.794454 0.750383
O O7 0.865166 0.903014 0.607576
O O8 0.033008 0.800030 0.462934
O O9 0.804657 0.502079 0.669495
O O10 0.831834 0.609736 0.565181
O O11 0.239925 0.280669 0.400463
O O12 0.480208 0.201851 0.114187
O O13 0.500000 0.500000 0.000000
O O14 0.000000 0.659851 0.250000
#
# Coordination Sequence:
#
# PCOD9256901 Si02
#       7
#     8   4   8   8   8   8   8
#     4  10  20  34  51  78 107 144 183 225 271 317
#     4  10  18  30  48  70 110 148 180 220 246 316
#     4  10  22  33  50  72 108 140 189 216 266 316
#     4  11  21  35  56  75 109 148 186 232 278 319
#     4  10  22  30  45  73 104 148 186 214 249 321
#     4  11  22  37  55  77 108 148 187 230 278 324
#     4  11  19  30  46  71 107 143 182 213 259 309
#
# _framework density 18.28004
#
# number of rings (size 3 to 8) (size 9 to 14) (size 15 to 20)
#    0.000    1.538    1.538    6.462    6.462    0.000 
#    0.000    0.000    0.000    0.000    0.000    0.000 
#    0.000   41.846    0.000    0.000    0.000    0.000 
#
# Total GULP energy -144803.346524 kJ/mol
# GULP energy per Si atom -5569.359482 kJ/mol
# Density = 1.823843 g / cm^3
# Si number density = 18.280040 Si / 1000 Ang^3
#
#
#
# Elastic Constant Matrix: (Units=GPa)
#
#
# Indices 1 2 3 4 5 6 
#
# 1 72.4737 20.0999 16.2706 -0.0054 -12.8531 0.0044
# 2 20.0999 106.3481 36.6697 -0.0063 0.9932 0.0063
# 3 16.2706 36.6697 63.9567 -0.0039 -15.7047 0.0061
# 4 -0.0054 -0.0063 -0.0039 39.0612 0.0037 -7.8684
# 5 -12.8531 0.9932 -15.7047 0.0037 29.2951 -0.0049
# 6 0.0044 0.0063 0.0061 -7.8684 -0.0049 24.2757
#
#
#
# Elastic Compliance Matrix: (Units=1/GPa)
#
#
# Indices 1 2 3 4 5 6 
#
# 1 0.015935 -0.002790 -0.000822 0.000001 0.006645 0.000000
# 2 -0.002790 0.012774 -0.008086 0.000001 -0.005992 -0.000002
# 3 -0.000822 -0.008086 0.023561 -0.000001 0.012544 -0.000001
# 4 0.000001 0.000001 -0.000001 0.027389 -0.000002 0.008878
# 5 0.006645 -0.005992 0.012544 -0.000002 0.043979 0.000005
# 6 0.000000 -0.000002 -0.000001 0.008878 0.000005 0.044071
#
#
# Mechanical properties :
#
#
# Convention : Reuss Voigt Hill
#
# Bulk Modulus (GPa) = 34.63349 43.20654 38.92001
# Shear Modulus (GPa) = 24.90899 29.84227 27.37563
#
# Velocity S-wave (km/s) = 3.69539 4.04481 3.87404
# Velocity P-wave (km/s) = 6.09878 6.74546 6.43025
#
# Compressibility (1/GPa) = 0.02887379
#
# Stress axis : x y z
#
# Youngs Moduli (GPa) = 62.75456 78.28141 42.44311
#
# Poissons Ratio (x) = 0.21842 0.03490
# Poissons Ratio (y) = 0.17510 0.34318
# Poissons Ratio (z) = 0.05161 0.63296
#
# Static dielectric constant tensor:
#      x y z
#    x 1.674560 -0.000010 -0.066520 
#    y -0.000010 1.636390 0.000010 
#    z -0.066520 0.000010 1.686990 
# 
# From -- ./inp_files/51040.got.cif
#   From: 2010.05.17/outbox.cif.g08.bks.cpg/sg15_26_cif.got.tgz:51040.got - 2010.06.03 18:47:42.
