data_PCOD9256040
_publ_section_title
;
Structure prediction by ZEFSAII (Michael W. Deem and Ramdas Pophale) SiO2 
 PCOD9256040
Probable space group: C 2/C
;
_chemical_formula_sum "Si O2"
_cell_formula_units_Z 56
_cell_length_a 9.725174
_cell_length_b 19.121491
_cell_length_c 16.352615
_cell_angle_alpha 90.000000
_cell_angle_beta 49.622262
_cell_angle_gamma 90.000000
_cell_volume 2316.549877
_symmetry_space_group_name_H-M "C 2/C"
_symmetry_group_IT_number 15
_symmetry_cell_setting 'monoclinic'
loop_
_space_group_symop_operation_xyz
x,y,z
-x,y,1/2-z
-x,-y,-z
x,-y,1/2+z
1/2+x,1/2+y,z
1/2-x,1/2+y,1/2-z
1/2-x,1/2-y,-z
1/2+x,1/2-y,1/2+z
loop_
_atom_site_type_symbol
_atom_site_label
_atom_site_fract_x
_atom_site_fract_y
_atom_site_fract_z
Si Si1 0.040789 0.250567 0.362727
Si Si2 0.260087 0.650243 0.661099
Si Si3 0.729010 0.152536 0.476073
Si Si4 0.787789 0.505216 0.328636
Si Si5 0.383979 0.508653 0.422490
Si Si6 0.324123 0.203697 0.361530
Si Si7 0.156641 0.145498 0.580028
O O1 0.155358 0.291953 0.252481
O O2 0.156225 0.193705 0.367051
O O3 0.877732 0.206519 0.387889
O O4 0.960786 0.307754 0.458437
O O5 0.245362 0.652141 0.569070
O O6 0.188384 0.574034 0.712923
O O7 0.467196 0.653743 0.606012
O O8 0.776011 0.075201 0.428531
O O9 0.599312 0.526349 0.351777
O O10 0.706571 0.504810 0.452630
O O11 0.000000 0.531337 0.250000
O O12 0.347087 0.434973 0.390328
O O13 0.500000 0.179249 0.250000
O O14 0.303067 0.165100 0.454985
O O15 0.334764 0.288242 0.364150
#
# Coordination Sequence:
#
# PCOD9256040 Si02
#       7
#     8   8   8   8   8   8   8
#     4  11  21  34  59  84 108 153 191 227 280 346
#     4  10  17  34  55  82 112 143 185 228 280 331
#     4  10  21  37  57  85 115 145 188 239 285 331
#     4   9  17  29  53  82 109 142 178 228 285 334
#     4   9  19  36  54  80 117 142 183 236 289 328
#     4  11  22  38  56  83 115 150 194 228 281 343
#     4  10  21  37  58  82 115 152 182 239 282 332
#
# _framework density 24.17388
#
# number of rings (size 3 to 8) (size 9 to 14) (size 15 to 20)
#    0.000    2.000    2.857    3.000    0.000    0.571 
#    0.000    0.714    0.000    3.429    0.000    0.000 
#    0.000    0.000    0.000    0.000    0.000    0.000 
#
# Total GULP energy -156163.213911 kJ/mol
# GULP energy per Si atom -5577.257640 kJ/mol
# Density = 2.411886 g / cm^3
# Si number density = 24.173880 Si / 1000 Ang^3
#
#
#
# Elastic Constant Matrix: (Units=GPa)
#
#
# Indices 1 2 3 4 5 6 
#
# 1 41.5978 0.0792 14.5846 0.0000 -21.9414 0.0000
# 2 0.0792 163.3992 25.6082 0.0000 -3.7816 0.0000
# 3 14.5846 25.6082 129.9846 0.0000 -26.7734 0.0000
# 4 0.0000 0.0000 0.0000 1.6102 0.0000 12.5413
# 5 -21.9414 -3.7816 -26.7734 0.0000 33.3753 0.0000
# 6 0.0000 0.0000 0.0000 12.5413 0.0000 -11.9697
#
#
#
# Elastic Compliance Matrix: (Units=1/GPa)
#
#
# Indices 1 2 3 4 5 6 
#
# 1 0.036942 0.000415 0.000941 0.000000 0.025088 0.000000
# 2 0.000415 0.006323 -0.001304 0.000000 -0.000057 0.000000
# 3 0.000941 -0.001304 0.009513 0.000000 0.008102 0.000000
# 4 0.000000 0.000000 0.000000 0.067795 0.000000 0.071033
# 5 0.025088 -0.000057 0.008102 0.000000 0.052948 0.000000
# 6 0.000000 0.000000 0.000000 0.071033 0.000000 -0.009120
#
#
# Mechanical properties :
#
#
# Convention : Reuss Voigt Hill
#
# Bulk Modulus (GPa) = 18.90992 46.16950 32.53971
# Shear Modulus (GPa) = 27.48376 24.25047 25.86711
#
# Velocity S-wave (km/s) = 3.37548 3.17072 3.27470
# Velocity P-wave (km/s) = 4.79909 5.70482 5.27145
#
# Compressibility (1/GPa) = 0.05288231
#
# Stress axis : x y z
#
# Youngs Moduli (GPa) = 27.06941 158.15726 105.11485
#
# Poissons Ratio (x) = -0.06568 -0.09887
# Poissons Ratio (y) = -0.01124 0.13706
# Poissons Ratio (z) = -0.02546 0.20622
#
# Static dielectric constant tensor:
#      x y z
#    x 1.955280 0.000000 -0.043250 
#    y 0.000000 2.000720 0.000000 
#    z -0.043250 0.000000 1.952170 
# 
# From -- ./inp_files/240194.got.cif
#   From: 2010.05.17/outbox.cif.g08.bks.cpg/sg15_121_cif.got.tgz:240194.got - 2010.06.03 18:47:42.
