data_PCOD9256008
_publ_section_title
;
Structure prediction by ZEFSAII (Michael W. Deem and Ramdas Pophale) SiO2 
 PCOD9256008
Probable space group: C 2/C
;
_chemical_formula_sum "Si O2"
_cell_formula_units_Z 64
_cell_length_a 25.081588
_cell_length_b 18.312814
_cell_length_c 9.497722
_cell_angle_alpha 90.000000
_cell_angle_beta 135.734990
_cell_angle_gamma 90.000000
_cell_volume 3044.888238
_symmetry_space_group_name_H-M "C 2/C"
_symmetry_group_IT_number 15
_symmetry_cell_setting 'monoclinic'
loop_
_space_group_symop_operation_xyz
x,y,z
-x,y,1/2-z
-x,-y,-z
x,-y,1/2+z
1/2+x,1/2+y,z
1/2-x,1/2+y,1/2-z
1/2-x,1/2-y,-z
1/2+x,1/2-y,1/2+z
loop_
_atom_site_type_symbol
_atom_site_label
_atom_site_fract_x
_atom_site_fract_y
_atom_site_fract_z
Si Si1 0.259654 0.391568 0.725642
Si Si2 0.705182 0.276411 0.121522
Si Si3 0.636181 0.917292 0.704281
Si Si4 0.826076 0.387026 0.214209
Si Si5 0.585116 0.017872 0.394979
Si Si6 0.917091 0.842083 0.074513
Si Si7 0.932832 0.260476 0.336366
Si Si8 0.107350 0.750948 0.190121
O O1 0.240305 0.304889 0.683076
O O2 0.219797 0.421494 0.791315
O O3 0.220616 0.419163 0.507754
O O4 0.350088 0.396903 0.905514
O O5 0.767433 0.330977 0.178307
O O6 0.671994 0.286575 0.214224
O O7 0.629203 0.276039 0.882617
O O8 0.609955 0.969385 0.781735
O O9 0.626696 0.834852 0.741826
O O10 0.585465 0.938192 0.470506
O O11 0.856706 0.439145 0.393997
O O12 0.899646 0.341942 0.296103
O O13 0.500000 0.048327 0.250000
O O14 0.895467 0.797081 0.173192
O O15 0.000000 0.877643 0.250000
O O16 0.926331 0.781322 0.971771
O O17 0.021391 0.252441 0.462889
#
# Coordination Sequence:
#
# PCOD9256008 Si02
#       8
#     8   8   8   8   8   8   8   8
#     4  10  20  37  58  86 118 155 198 244 300 363
#     4  10  19  31  52  82 116 153 194 239 301 359
#     4  11  25  40  59  84 115 163 206 255 294 339
#     4  11  20  36  60  81 118 163 200 243 297 351
#     4  12  26  43  60  84 119 162 214 255 287 342
#     4  10  19  33  55  87 125 154 187 237 303 369
#     4  10  17  34  51  82 115 158 190 233 303 358
#     4  10  22  32  56  87 121 152 196 250 300 358
#
# _framework density 21.018834999999999
#
# number of rings (size 3 to 8) (size 9 to 14) (size 15 to 20)
#    0.000    1.500    2.500    3.750    1.750    5.000 
#    0.000    0.000    0.000    0.000    0.000    5.250 
#    0.000    0.000    0.000    0.000    0.000    0.000 
#
# Total GULP energy -178657.285679 kJ/mol
# GULP energy per Si atom -5583.040177 kJ/mol
# Density = 2.097099 g / cm^3
# Si number density = 21.018835 Si / 1000 Ang^3
#
#
#
# Elastic Constant Matrix: (Units=GPa)
#
#
# Indices 1 2 3 4 5 6 
#
# 1 123.3074 17.1454 41.9075 0.0000 -8.4105 0.0000
# 2 17.1454 26.8479 2.8730 0.0000 2.1303 0.0000
# 3 41.9075 2.8730 88.0761 0.0000 11.2799 0.0000
# 4 0.0000 0.0000 0.0000 26.5210 0.0000 -0.6881
# 5 -8.4105 2.1303 11.2799 0.0000 43.1503 0.0000
# 6 0.0000 0.0000 0.0000 -0.6881 0.0000 20.4974
#
#
#
# Elastic Compliance Matrix: (Units=1/GPa)
#
#
# Indices 1 2 3 4 5 6 
#
# 1 0.011263 -0.006907 -0.005648 0.000000 0.004013 0.000000
# 2 -0.006907 0.041717 0.002444 0.000000 -0.004045 0.000000
# 3 -0.005648 0.002444 0.014607 0.000000 -0.005040 0.000000
# 4 0.000000 0.000000 0.000000 0.037739 0.000000 0.001267
# 5 0.004013 -0.004045 -0.005040 0.000000 0.025474 0.000000
# 6 0.000000 0.000000 0.000000 0.001267 0.000000 0.048829
#
#
# Mechanical properties :
#
#
# Convention : Reuss Voigt Hill
#
# Bulk Modulus (GPa) = 21.11267 40.23147 30.67207
# Shear Modulus (GPa) = 23.18677 29.78745 26.48711
#
# Velocity S-wave (km/s) = 3.32496 3.76863 3.55373
# Velocity P-wave (km/s) = 4.98066 6.17406 5.60919
#
# Compressibility (1/GPa) = 0.04736493
#
# Stress axis : x y z
#
# Youngs Moduli (GPa) = 88.78328 23.97098 68.46100
#
# Poissons Ratio (x) = 0.16557 0.38666
# Poissons Ratio (y) = 0.61322 -0.16729
# Poissons Ratio (z) = 0.50143 -0.05857
#
# Static dielectric constant tensor:
#      x y z
#    x 1.787000 0.000000 0.000640 
#    y 0.000000 1.776110 0.000000 
#    z 0.000640 0.000000 1.801100 
# 
# From -- ./inp_files/63414.got.cif
#   From: 2010.05.17/outbox.cif.g08.bks.cpg/sg15_32_cif.got.tgz:63414.got - 2010.06.03 18:47:42.
