data_PCOD9256092
_publ_section_title
;
Structure prediction by ZEFSAII (Michael W. Deem and Ramdas Pophale) SiO2 
 PCOD9256092
Probable space group: C 2/C
;
_chemical_formula_sum "Si O2"
_cell_formula_units_Z 60
_cell_length_a 8.497181
_cell_length_b 20.081828
_cell_length_c 17.951422
_cell_angle_alpha 90.000000
_cell_angle_beta 47.444494
_cell_angle_gamma 90.000000
_cell_volume 2256.430449
_symmetry_space_group_name_H-M "C 2/C"
_symmetry_group_IT_number 15
_symmetry_cell_setting 'monoclinic'
loop_
_space_group_symop_operation_xyz
x,y,z
-x,y,1/2-z
-x,-y,-z
x,-y,1/2+z
1/2+x,1/2+y,z
1/2-x,1/2+y,1/2-z
1/2-x,1/2-y,-z
1/2+x,1/2-y,1/2+z
loop_
_atom_site_type_symbol
_atom_site_label
_atom_site_fract_x
_atom_site_fract_y
_atom_site_fract_z
Si Si1 0.824113 0.151004 0.917249
Si Si2 0.057349 0.021868 0.564911
Si Si3 0.000000 0.622370 0.250000
Si Si4 0.156030 0.096815 0.112425
Si Si5 0.521655 0.030958 0.373591
Si Si6 0.960448 0.383001 0.127530
Si Si7 0.868638 0.753460 0.882384
Si Si8 0.038760 0.715435 0.361438
O O1 0.725632 0.123809 0.873135
O O2 0.921906 0.221361 0.865938
O O3 0.991478 0.098028 0.898572
O O4 0.635756 0.171617 0.036080
O O5 0.316376 0.024790 0.493480
O O6 0.994049 0.961268 0.639075
O O7 0.000000 0.000000 0.500000
O O8 0.919852 0.571551 0.337705
O O9 0.122609 0.672733 0.265375
O O10 0.292114 0.068912 0.139563
O O11 0.054899 0.169883 0.152526
O O12 0.322391 0.109316 0.991191
O O13 0.572263 0.956521 0.328104
O O14 0.987152 0.313452 0.163410
O O15 0.696636 0.754007 0.871521
O O16 0.750000 0.750000 0.000000
#
# Coordination Sequence:
#
# PCOD9256092 Si02
#       8
#     8   8   4   8   8   8   8   8
#     4  11  20  37  57  95 120 153 213 262 317 357
#     4  11  21  32  60  97 123 148 202 270 312 352
#     4  12  22  44  60  84 124 176 216 234 318 412
#     4  10  17  34  58  87 119 156 203 243 313 362
#     4  11  20  38  61  84 116 173 209 244 306 388
#     4  10  18  33  59  87 117 143 203 266 303 352
#     4  10  18  33  56  94 116 153 198 265 303 353
#     4  11  23  35  62  88 123 168 201 257 318 383
#
# _framework density 26.590671
#
# number of rings (size 3 to 8) (size 9 to 14) (size 15 to 20)
#    0.000    1.333    8.000    0.800    5.600    0.000 
#    0.000    1.333    0.000    2.400    0.000    0.000 
#    0.000    0.000    0.000    0.000    0.000    0.000 
#
# Total GULP energy -167502.342889 kJ/mol
# GULP energy per Si atom -5583.411430 kJ/mol
# Density = 2.653015 g / cm^3
# Si number density = 26.590671 Si / 1000 Ang^3
#
#
#
# Elastic Constant Matrix: (Units=GPa)
#
#
# Indices 1 2 3 4 5 6 
#
# 1 99.6995 57.2949 39.6825 0.0000 24.0160 0.0000
# 2 57.2949 235.0525 46.7345 0.0000 17.2093 0.0000
# 3 39.6825 46.7345 92.0740 0.0000 21.2767 0.0000
# 4 0.0000 0.0000 0.0000 34.8626 0.0000 23.0499
# 5 24.0160 17.2093 21.2767 0.0000 31.0303 0.0000
# 6 0.0000 0.0000 0.0000 23.0499 0.0000 53.2572
#
#
#
# Elastic Compliance Matrix: (Units=1/GPa)
#
#
# Indices 1 2 3 4 5 6 
#
# 1 0.014534 -0.002322 -0.003308 0.000000 -0.007693 0.000000
# 2 -0.002322 0.005138 -0.001621 0.000000 0.000059 0.000000
# 3 -0.003308 -0.001621 0.014628 0.000000 -0.006571 0.000000
# 4 0.000000 0.000000 0.000000 0.040182 0.000000 -0.017391
# 5 -0.007693 0.000059 -0.006571 0.000000 0.042653 0.000000
# 6 0.000000 0.000000 0.000000 -0.017391 0.000000 0.026304
#
#
# Mechanical properties :
#
#
# Convention : Reuss Voigt Hill
#
# Bulk Modulus (GPa) = 50.50805 79.36109 64.93457
# Shear Modulus (GPa) = 30.38772 42.70430 36.54601
#
# Velocity S-wave (km/s) = 3.38419 4.01183 3.71130
# Velocity P-wave (km/s) = 5.85715 7.16728 6.54508
#
# Compressibility (1/GPa) = 0.01979882
#
# Stress axis : x y z
#
# Youngs Moduli (GPa) = 68.80359 194.61623 68.36409
#
# Poissons Ratio (x) = 0.45187 0.22613
# Poissons Ratio (y) = 0.15975 0.11082
# Poissons Ratio (z) = 0.22759 0.31547
#
# Static dielectric constant tensor:
#      x y z
#    x 2.076600 0.000000 -0.078470 
#    y 0.000000 2.217270 0.000000 
#    z -0.078470 0.000000 2.144860 
# 
# From -- ./inp_files/192095.got.cif
#   From: 2010.05.17/outbox.cif.g08.bks.cpg/sg15_97_cif.got.tgz:192095.got - 2010.06.03 18:47:42.
