data_PCOD9256613
_publ_section_title
;
Structure prediction by ZEFSAII (Michael W. Deem and Ramdas Pophale) SiO2 
 PCOD9256613
Probable space group: C 2/C
;
_chemical_formula_sum "Si O2"
_cell_formula_units_Z 48
_cell_length_a 17.644894
_cell_length_b 7.312582
_cell_length_c 14.957547
_cell_angle_alpha 90.000000
_cell_angle_beta 112.216210
_cell_angle_gamma 90.000000
_cell_volume 1786.694511
_symmetry_space_group_name_H-M "C 2/C"
_symmetry_group_IT_number 15
_symmetry_cell_setting 'monoclinic'
loop_
_space_group_symop_operation_xyz
x,y,z
-x,y,1/2-z
-x,-y,-z
x,-y,1/2+z
1/2+x,1/2+y,z
1/2-x,1/2+y,1/2-z
1/2-x,1/2-y,-z
1/2+x,1/2-y,1/2+z
loop_
_atom_site_type_symbol
_atom_site_label
_atom_site_fract_x
_atom_site_fract_y
_atom_site_fract_z
Si Si1 0.135515 0.277525 0.182928
Si Si2 0.805317 0.013428 0.571507
Si Si3 0.970088 0.746662 0.399438
Si Si4 0.692921 0.615186 0.719511
Si Si5 0.365671 0.106401 0.014877
Si Si6 0.469464 0.349541 0.609642
O O1 0.215903 0.339584 0.271814
O O2 0.124967 0.391588 0.087819
O O3 0.046946 0.254884 0.187258
O O4 0.160990 0.072053 0.162446
O O5 0.801389 0.076654 0.672679
O O6 0.711903 0.978231 0.499381
O O7 0.835611 0.192009 0.531041
O O8 0.875435 0.861054 0.596432
O O9 0.876718 0.732872 0.325237
O O10 0.968090 0.785805 0.505032
O O11 0.040794 0.598926 0.408562
O O12 0.001638 0.938146 0.371403
#
# Coordination Sequence:
#
# PCOD9256613 Si02
#       6
#     8   8   8   8   8   8
#     4   9  18  30  45  67  98 127 157 194 242 288
#     4   9  15  24  44  70  92 116 159 202 230 266
#     4   8  14  25  42  62  91 123 153 186 237 286
#     4  10  18  28  46  72  94 121 161 203 234 278
#     4   8  15  27  42  67  97 122 152 201 244 274
#     4   8  14  26  43  65  90 122 156 190 231 284
#
# _framework density 26.86525
#
# number of rings (size 3 to 8) (size 9 to 14) (size 15 to 20)
#    0.000    3.333    0.000    3.000    0.000    6.000 
#    0.000    0.000    0.000   13.000    0.000   32.667 
#    0.000    0.000    0.000    0.000    0.000    0.000 
#
# Total GULP energy -134036.358589 kJ/mol
# GULP energy per Si atom -5584.848275 kJ/mol
# Density = 2.680410 g / cm^3
# Si number density = 26.865250 Si / 1000 Ang^3
#
#
#
# Elastic Constant Matrix: (Units=GPa)
#
#
# Indices 1 2 3 4 5 6 
#
# 1 167.9189 56.5177 67.0227 0.0000 63.5546 0.0000
# 2 56.5177 71.5716 37.2123 0.0000 29.3974 0.0000
# 3 67.0227 37.2123 99.0295 0.0000 57.7236 0.0000
# 4 0.0000 0.0000 0.0000 30.5820 0.0000 17.7543
# 5 63.5546 29.3974 57.7236 0.0000 77.7237 0.0000
# 6 0.0000 0.0000 0.0000 17.7543 0.0000 27.6990
#
#
#
# Elastic Compliance Matrix: (Units=1/GPa)
#
#
# Indices 1 2 3 4 5 6 
#
# 1 0.010423 -0.005013 -0.002306 0.000000 -0.004914 0.000000
# 2 -0.005013 0.020192 -0.003760 0.000000 -0.000745 0.000000
# 3 -0.002306 -0.003760 0.019650 0.000000 -0.011286 0.000000
# 4 0.000000 0.000000 0.000000 0.052078 0.000000 -0.033380
# 5 -0.004914 -0.000745 -0.011286 0.000000 0.025548 0.000000
# 6 0.000000 0.000000 0.000000 -0.033380 0.000000 0.057498
#
#
# Mechanical properties :
#
#
# Convention : Reuss Voigt Hill
#
# Bulk Modulus (GPa) = 35.57943 73.33616 54.45779
# Shear Modulus (GPa) = 23.05035 39.05210 31.05123
#
# Velocity S-wave (km/s) = 2.93234 3.81678 3.40341
# Velocity P-wave (km/s) = 4.97365 6.83965 5.97989
#
# Compressibility (1/GPa) = 0.02810613
#
# Stress axis : x y z
#
# Youngs Moduli (GPa) = 95.94266 49.52465 50.89040
#
# Poissons Ratio (x) = 0.24828 0.11735
# Poissons Ratio (y) = 0.48099 0.19136
# Poissons Ratio (z) = 0.22124 0.18622
#
# Static dielectric constant tensor:
#      x y z
#    x 2.113700 0.000000 0.078500 
#    y 0.000000 2.213920 0.000000 
#    z 0.078500 0.000000 2.110090 
# 
# From -- ./inp_files/248215.got.cif
#   From: 2010.05.17/outbox.cif.g08.bks.cpg/sg15_125_cif.got.tgz:248215.got - 2010.06.03 18:47:42.
