data_PCOD9256958
_publ_section_title
;
Structure prediction by ZEFSAII (Michael W. Deem and Ramdas Pophale) SiO2 
 PCOD9256958
Probable space group: C 2/C
;
_chemical_formula_sum "Si O2"
_cell_formula_units_Z 56
_cell_length_a 7.933256
_cell_length_b 23.686236
_cell_length_c 18.911363
_cell_angle_alpha 90.000000
_cell_angle_beta 43.209946
_cell_angle_gamma 90.000000
_cell_volume 2433.066383
_symmetry_space_group_name_H-M "C 2/C"
_symmetry_group_IT_number 15
_symmetry_cell_setting 'monoclinic'
loop_
_space_group_symop_operation_xyz
x,y,z
-x,y,1/2-z
-x,-y,-z
x,-y,1/2+z
1/2+x,1/2+y,z
1/2-x,1/2+y,1/2-z
1/2-x,1/2-y,-z
1/2+x,1/2-y,1/2+z
loop_
_atom_site_type_symbol
_atom_site_label
_atom_site_fract_x
_atom_site_fract_y
_atom_site_fract_z
Si Si1 0.876091 0.930913 0.987856
Si Si2 0.462323 0.312604 0.993987
Si Si3 0.398816 0.802223 0.105734
Si Si4 0.716783 0.020531 0.330794
Si Si5 0.076103 0.583244 0.972453
Si Si6 0.693502 0.533509 0.840391
Si Si7 0.780722 0.157150 0.694955
O O1 0.045592 0.876158 0.948473
O O2 0.691531 0.917128 0.982280
O O3 0.730805 0.939933 0.106103
O O4 0.998791 0.988611 0.927319
O O5 0.620014 0.260399 0.919014
O O6 0.185697 0.307668 0.044739
O O7 0.429177 0.311594 0.088343
O O8 0.342541 0.852767 0.067736
O O9 0.238789 0.812733 0.224392
O O10 0.708589 0.965594 0.385348
O O11 0.676629 0.002182 0.261563
O O12 0.000000 0.042612 0.250000
O O13 0.497158 0.060756 0.427128
O O14 0.624339 0.592831 0.825169
O O15 0.500000 0.153784 0.750000
#
# Coordination Sequence:
#
# PCOD9256958 Si02
#       7
#     8   8   8   8   8   8   8
#     4   9  18  32  50  75  99 129 167 212 249 291
#     4   8  16  27  44  69  96 119 162 199 245 294
#     4   9  15  29  45  67  96 131 156 195 245 299
#     4  11  21  33  47  72 105 133 165 206 250 303
#     4  10  20  33  50  72 106 132 167 205 249 306
#     4  10  18  30  50  71 100 129 168 203 247 294
#     4   9  16  28  47  70  96 129 166 201 248 296
#
# _framework density 23.016223
#
# number of rings (size 3 to 8) (size 9 to 14) (size 15 to 20)
#    0.000    2.571    2.857    0.857    0.000    0.000 
#    2.571    0.714    0.000    0.000    0.000    5.000 
#    0.000    0.000    0.000    0.000    0.000    0.000 
#
# Total GULP energy -156062.137764 kJ/mol
# GULP energy per Si atom -5573.647777 kJ/mol
# Density = 2.296384 g / cm^3
# Si number density = 23.016223 Si / 1000 Ang^3
#
#
#
# Elastic Constant Matrix: (Units=GPa)
#
#
# Indices 1 2 3 4 5 6 
#
# 1 -2.4818 74.0305 40.6397 0.0000 3.3239 0.0000
# 2 74.0305 92.7977 58.8202 0.0000 22.0252 0.0000
# 3 40.6397 58.8202 141.4405 0.0001 45.4481 0.0000
# 4 0.0000 0.0000 0.0001 41.2833 -0.0001 7.3825
# 5 3.3239 22.0252 45.4481 -0.0001 27.1064 0.0000
# 6 0.0000 0.0000 0.0000 7.3825 0.0000 16.7366
#
#
#
# Elastic Compliance Matrix: (Units=1/GPa)
#
#
# Indices 1 2 3 4 5 6 
#
# 1 -0.013467 0.011874 0.003254 0.000000 -0.013453 0.000000
# 2 0.011874 0.004333 -0.007836 0.000000 0.008162 0.000000
# 3 0.003254 -0.007836 0.016208 0.000000 -0.021208 0.000000
# 4 0.000000 0.000000 0.000000 0.026297 0.000000 -0.011600
# 5 -0.013453 0.008162 -0.021208 0.000000 0.067467 0.000000
# 6 0.000000 0.000000 0.000000 -0.011600 0.000000 0.064866
#
#
# Mechanical properties :
#
#
# Convention : Reuss Voigt Hill
#
# Bulk Modulus (GPa) = 46.17141 64.30413 55.23777
# Shear Modulus (GPa) = 31.57753 20.90967 26.24360
#
# Velocity S-wave (km/s) = 3.70803 3.01736 3.38038
# Velocity P-wave (km/s) = 6.19972 6.33550 6.26798
#
# Compressibility (1/GPa) = 0.02165843
#
# Stress axis : x y z
#
# Youngs Moduli (GPa) = -74.25387 230.76096 61.69624
#
# Poissons Ratio (x) = -2.74005 -0.20078
# Poissons Ratio (y) = 0.88169 0.48348
# Poissons Ratio (z) = 0.24165 1.80835
#
# Static dielectric constant tensor:
#      x y z
#    x 2.081680 0.000000 -0.074720 
#    y 0.000000 1.868970 0.000000 
#    z -0.074720 0.000000 1.854790 
# 
# From -- ./inp_files/240605.got.cif
#   From: 2010.05.17/outbox.cif.g08.bks.cpg/sg15_121_cif.got.tgz:240605.got - 2010.06.03 18:47:42.
