data_PCOD9256218
_publ_section_title
;
Structure prediction by ZEFSAII (Michael W. Deem and Ramdas Pophale) SiO2 
 PCOD9256218
Probable space group: C 2/C
;
_chemical_formula_sum "Si O2"
_cell_formula_units_Z 56
_cell_length_a 21.433182
_cell_length_b 10.342547
_cell_length_c 12.798057
_cell_angle_alpha 90.000000
_cell_angle_beta 56.701007
_cell_angle_gamma 90.000000
_cell_volume 2371.206631
_symmetry_space_group_name_H-M "C 2/C"
_symmetry_group_IT_number 15
_symmetry_cell_setting 'monoclinic'
loop_
_space_group_symop_operation_xyz
x,y,z
-x,y,1/2-z
-x,-y,-z
x,-y,1/2+z
1/2+x,1/2+y,z
1/2-x,1/2+y,1/2-z
1/2-x,1/2-y,-z
1/2+x,1/2-y,1/2+z
loop_
_atom_site_type_symbol
_atom_site_label
_atom_site_fract_x
_atom_site_fract_y
_atom_site_fract_z
Si Si1 0.847492 0.805893 0.010248
Si Si2 0.032247 0.315552 0.581449
Si Si3 0.685389 0.729044 0.186204
Si Si4 0.624627 0.739664 0.677825
Si Si5 0.669072 0.984366 0.757412
Si Si6 0.455679 0.898199 0.458345
Si Si7 0.168509 0.020592 0.793803
O O1 0.774038 0.740552 0.129668
O O2 0.914704 0.708581 0.929642
O O3 0.871426 0.913793 0.070316
O O4 0.818532 0.840061 0.923045
O O5 0.103720 0.253458 0.573954
O O6 0.028052 0.468837 0.614970
O O7 0.957549 0.249111 0.693482
O O8 0.019533 0.329600 0.468797
O O9 0.656787 0.876025 0.214593
O O10 0.644501 0.626174 0.296289
O O11 0.660125 0.613998 0.700460
O O12 0.670052 0.867023 0.673368
O O13 0.745693 0.007419 0.748895
O O14 0.606021 0.942787 0.898073
#
# Coordination Sequence:
#
# PCOD9256218 Si02
#       7
#     8   8   8   8   8   8   8
#     4  10  19  36  57  81 121 155 192 232 300 353
#     4   9  19  32  59  84 109 149 200 242 282 331
#     4  10  21  33  57  84 116 158 185 233 301 366
#     4  10  19  36  58  85 112 151 195 244 289 347
#     4  10  18  34  56  84 116 147 191 246 292 341
#     4  10  17  35  59  88 108 150 200 253 285 337
#     4  11  19  36  56  82 123 153 186 238 304 352
#
# _framework density 23.616668000000001
#
# number of rings (size 3 to 8) (size 9 to 14) (size 15 to 20)
#    0.000    2.000    4.286    1.714    0.000    0.000 
#    2.571    0.714    0.000   18.857    0.000    0.000 
#    0.000    0.000    0.000    0.000    0.000    0.000 
#
# Total GULP energy -156029.897195 kJ/mol
# GULP energy per Si atom -5572.496328 kJ/mol
# Density = 2.356292 g / cm^3
# Si number density = 23.616668 Si / 1000 Ang^3
#
#
#
# Elastic Constant Matrix: (Units=GPa)
#
#
# Indices 1 2 3 4 5 6 
#
# 1 117.8523 42.1953 6.8085 0.0000 9.8464 0.0000
# 2 42.1953 137.6883 9.4113 0.0000 11.8440 0.0000
# 3 6.8085 9.4113 27.0140 0.0000 6.5720 0.0000
# 4 0.0000 0.0000 0.0000 16.9866 0.0000 -5.8997
# 5 9.8464 11.8440 6.5720 0.0000 17.4041 0.0000
# 6 0.0000 0.0000 0.0000 -5.8997 0.0000 17.4641
#
#
#
# Elastic Compliance Matrix: (Units=1/GPa)
#
#
# Indices 1 2 3 4 5 6 
#
# 1 0.009762 -0.002646 -0.000697 0.000000 -0.003459 0.000000
# 2 -0.002646 0.008491 -0.001376 0.000000 -0.003762 0.000000
# 3 -0.000697 -0.001376 0.041127 0.000000 -0.014199 0.000000
# 4 0.000000 0.000000 0.000000 0.066696 0.000000 0.022531
# 5 -0.003459 -0.003762 -0.014199 0.000000 0.067336 0.000000
# 6 0.000000 0.000000 0.000000 0.022531 0.000000 0.064872
#
#
# Mechanical properties :
#
#
# Convention : Reuss Voigt Hill
#
# Bulk Modulus (GPa) = 20.02336 44.37611 32.19974
# Shear Modulus (GPa) = 17.58268 25.31358 21.44813
#
# Velocity S-wave (km/s) = 2.73152 3.27747 3.01687
# Velocity P-wave (km/s) = 4.29478 5.75789 5.07930
#
# Compressibility (1/GPa) = 0.04994166
#
# Stress axis : x y z
#
# Youngs Moduli (GPa) = 102.43855 117.76548 24.31476
#
# Poissons Ratio (x) = 0.31166 0.01695
# Poissons Ratio (y) = 0.27110 0.03346
# Poissons Ratio (z) = 0.07139 0.16206
#
# Static dielectric constant tensor:
#      x y z
#    x 1.939060 0.000000 0.011110 
#    y 0.000000 1.949540 0.000000 
#    z 0.011110 0.000000 1.953990 
# 
# From -- ./inp_files/172261.got.cif
#   From: 2010.05.17/outbox.cif.g08.bks.cpg/sg15_87_cif.got.tgz:172261.got - 2010.06.03 18:47:42.
