data_PCOD9256803
_publ_section_title
;
Structure prediction by ZEFSAII (Michael W. Deem and Ramdas Pophale) SiO2 
 PCOD9256803
Probable space group: C 2/C
;
_chemical_formula_sum "Si O2"
_cell_formula_units_Z 44
_cell_length_a 14.805753
_cell_length_b 14.318496
_cell_length_c 22.315856
_cell_angle_alpha 90.000000
_cell_angle_beta 156.371827
_cell_angle_gamma 90.000000
_cell_volume 1896.132578
_symmetry_space_group_name_H-M "C 2/C"
_symmetry_group_IT_number 15
_symmetry_cell_setting 'monoclinic'
loop_
_space_group_symop_operation_xyz
x,y,z
-x,y,1/2-z
-x,-y,-z
x,-y,1/2+z
1/2+x,1/2+y,z
1/2-x,1/2+y,1/2-z
1/2-x,1/2-y,-z
1/2+x,1/2-y,1/2+z
loop_
_atom_site_type_symbol
_atom_site_label
_atom_site_fract_x
_atom_site_fract_y
_atom_site_fract_z
Si Si1 0.548380 0.389223 0.081077
Si Si2 0.316649 0.580330 0.191034
Si Si3 0.689394 0.858948 0.958005
Si Si4 0.670006 0.865774 0.137910
Si Si5 0.667445 0.395364 0.665141
Si Si6 0.500000 0.363721 0.250000
O O1 0.725075 0.340644 0.233957
O O2 0.641306 0.494253 0.136132
O O3 0.306486 0.392270 0.968133
O O4 0.501693 0.351171 0.986491
O O5 0.500000 0.583350 0.250000
O O6 0.244112 0.473137 0.164574
O O7 0.387894 0.621429 0.298915
O O8 0.093555 0.632210 0.031540
O O9 0.428927 0.874513 0.811465
O O10 0.750000 0.750000 0.000000
O O11 0.833444 0.907753 0.098802
O O12 0.815645 0.809191 0.177494
#
# Coordination Sequence:
#
# PCOD9256803 Si02
#       6
#     8   8   8   8   8   4
#     4   9  21  35  57  85 121 163 204 257 320 369
#     4  10  18  29  51  78 114 158 194 247 301 362
#     4  11  23  37  60  92 130 164 203 261 325 380
#     4   9  17  30  49  77 115 146 201 249 300 361
#     4  10  20  37  56  86 123 162 208 260 309 375
#     4  10  18  34  52  86 112 160 196 246 314 358
#
# _framework density 23.205128999999999
#
# number of rings (size 3 to 8) (size 9 to 14) (size 15 to 20)
#    0.000    2.182    2.727    0.545    2.545    0.000 
#    0.000    2.727    0.000    0.000    0.000   22.909 
#    0.000    0.000    0.000    0.000    0.000    0.000 
#
# Total GULP energy -122715.092223 kJ/mol
# GULP energy per Si atom -5577.958737 kJ/mol
# Density = 2.315231 g / cm^3
# Si number density = 23.205129 Si / 1000 Ang^3
#
#
#
# Elastic Constant Matrix: (Units=GPa)
#
#
# Indices 1 2 3 4 5 6 
#
# 1 187.1082 21.9189 116.7043 -0.0026 -32.2491 -0.0017
# 2 21.9189 75.4165 24.4941 0.0221 22.4089 0.0043
# 3 116.7043 24.4941 170.8614 0.0161 -16.0445 -0.0123
# 4 -0.0026 0.0221 0.0161 18.0791 -0.0042 8.0311
# 5 -32.2491 22.4089 -16.0445 -0.0042 50.0930 -0.0033
# 6 -0.0017 0.0043 -0.0123 8.0311 -0.0033 14.5934
#
#
#
# Elastic Compliance Matrix: (Units=1/GPa)
#
#
# Indices 1 2 3 4 5 6 
#
# 1 0.010667 -0.002879 -0.006297 0.000017 0.006139 -0.000011
# 2 -0.002879 0.017629 -0.001521 -0.000025 -0.010227 0.000005
# 3 -0.006297 -0.001521 0.010367 -0.000016 -0.000053 0.000017
# 4 0.000017 -0.000025 -0.000016 0.073210 0.000021 -0.040289
# 5 0.006139 -0.010227 -0.000053 0.000021 0.028473 -0.000001
# 6 -0.000011 0.000005 0.000017 -0.040289 -0.000001 0.090696
#
#
# Mechanical properties :
#
#
# Convention : Reuss Voigt Hill
#
# Bulk Modulus (GPa) = 57.90691 84.40231 71.15461
# Shear Modulus (GPa) = 19.36532 34.57102 26.96817
#
# Velocity S-wave (km/s) = 2.89195 3.86398 3.41275
# Velocity P-wave (km/s) = 6.01330 7.50722 6.80140
#
# Compressibility (1/GPa) = 0.01726910
#
# Stress axis : x y z
#
# Youngs Moduli (GPa) = 93.74310 56.72341 96.46096
#
# Poissons Ratio (x) = 0.16332 0.60742
# Poissons Ratio (y) = 0.26990 0.14672
# Poissons Ratio (z) = 0.59031 0.08628
#
# Static dielectric constant tensor:
#      x y z
#    x 1.976710 0.000050 -0.066710 
#    y 0.000050 2.011830 0.000040 
#    z -0.066710 0.000040 1.880230 
# 
# From -- ./inp_files/275027.got.cif
#   From: 2010.05.17/outbox.cif.g08.bks.cpg/sg15_138_cif.got.tgz:275027.got - 2010.06.03 18:47:42.
