data_PCOD9256599
_publ_section_title
;
Structure prediction by ZEFSAII (Michael W. Deem and Ramdas Pophale) SiO2 
 PCOD9256599
Probable space group: C 2/C
;
_chemical_formula_sum "Si O2"
_cell_formula_units_Z 56
_cell_length_a 27.926355
_cell_length_b 9.369052
_cell_length_c 8.210298
_cell_angle_alpha 90.000000
_cell_angle_beta 70.912350
_cell_angle_gamma 90.000000
_cell_volume 2030.063199
_symmetry_space_group_name_H-M "C 2/C"
_symmetry_group_IT_number 15
_symmetry_cell_setting 'monoclinic'
loop_
_space_group_symop_operation_xyz
x,y,z
-x,y,1/2-z
-x,-y,-z
x,-y,1/2+z
1/2+x,1/2+y,z
1/2-x,1/2+y,1/2-z
1/2-x,1/2-y,-z
1/2+x,1/2-y,1/2+z
loop_
_atom_site_type_symbol
_atom_site_label
_atom_site_fract_x
_atom_site_fract_y
_atom_site_fract_z
Si Si1 0.152071 0.467467 0.398316
Si Si2 0.422013 0.597318 0.068205
Si Si3 0.722775 0.236667 0.287579
Si Si4 0.647971 0.683404 0.621561
Si Si5 0.500000 0.621018 0.250000
Si Si6 0.930775 0.312279 0.555423
Si Si7 0.326289 0.272928 0.830087
Si Si8 0.000000 0.278193 0.750000
O O1 0.196988 0.581980 0.337197
O O2 0.148922 0.336406 0.527578
O O3 0.100915 0.556115 0.471365
O O4 0.158169 0.391780 0.214289
O O5 0.464046 0.541286 0.156435
O O6 0.379624 0.655804 0.238918
O O7 0.378647 0.572370 0.972136
O O8 0.460289 0.691693 0.910938
O O9 0.702199 0.323053 0.153728
O O10 0.701425 0.313806 0.473332
O O11 0.782199 0.211256 0.242970
O O12 0.609469 0.703149 0.816931
O O13 0.462595 0.721650 0.393008
O O14 0.966969 0.364333 0.659223
#
# Coordination Sequence:
#
# PCOD9256599 Si02
#       8
#     8   8   8   8   4   8   8   4
#     4  10  19  33  48  67  95 129 160 195 238 281
#     4   9  17  30  44  66  93 125 165 196 229 272
#     4  10  19  33  51  69  92 129 163 196 238 284
#     4   9  18  31  47  65  93 126 159 197 236 278
#     4  10  18  28  45  62  88 126 167 200 225 264
#     4   9  17  30  43  61  89 125 164 198 227 265
#     4  10  21  34  50  71  95 128 163 195 238 284
#     4   8  16  30  45  62  88 126 167 202 227 262
#
# _framework density 27.585346000000001
#
# number of rings (size 3 to 8) (size 9 to 14) (size 15 to 20)
#    0.000    2.571    0.000    3.429    0.000    4.571 
#    0.000   32.143    0.000    0.000    0.000    0.000 
#    0.000    0.000    0.000  174.857    0.000   23.214 
#
# Total GULP energy -156139.479669 kJ/mol
# GULP energy per Si atom -5576.409988 kJ/mol
# Density = 2.752256 g / cm^3
# Si number density = 27.585346 Si / 1000 Ang^3
#
#
#
# Elastic Constant Matrix: (Units=GPa)
#
#
# Indices 1 2 3 4 5 6 
#
# 1 248.9755 58.9901 64.7914 0.0000 21.5805 0.0000
# 2 58.9901 71.5764 40.3478 0.0000 4.1321 0.0000
# 3 64.7914 40.3478 106.4644 0.0000 4.6724 0.0000
# 4 0.0000 0.0000 0.0000 53.8040 0.0000 -41.6182
# 5 21.5805 4.1321 4.6724 0.0000 72.6785 0.0000
# 6 0.0000 0.0000 0.0000 -41.6182 0.0000 151.8176
#
#
#
# Elastic Compliance Matrix: (Units=1/GPa)
#
#
# Indices 1 2 3 4 5 6 
#
# 1 0.005425 -0.003264 -0.002007 0.000000 -0.001296 0.000000
# 2 -0.003264 0.019755 -0.005509 0.000000 0.000200 0.000000
# 3 -0.002007 -0.005509 0.012698 0.000000 0.000093 0.000000
# 4 0.000000 0.000000 0.000000 0.023588 0.000000 0.006466
# 5 -0.001296 0.000200 0.000093 0.000000 0.014127 0.000000
# 6 0.000000 0.000000 0.000000 0.006466 0.000000 0.008359
#
#
# Mechanical properties :
#
#
# Convention : Reuss Voigt Hill
#
# Bulk Modulus (GPa) = 61.28690 83.91944 72.60317
# Shear Modulus (GPa) = 45.06451 73.18582 59.12517
#
# Velocity S-wave (km/s) = 4.04622 5.15638 4.63466
# Velocity P-wave (km/s) = 6.64037 8.12027 7.41732
#
# Compressibility (1/GPa) = 0.01631670
#
# Stress axis : x y z
#
# Youngs Moduli (GPa) = 184.34581 50.61920 78.75195
#
# Poissons Ratio (x) = 0.16524 0.15807
# Poissons Ratio (y) = 0.60178 0.43385
# Poissons Ratio (z) = 0.37003 0.27886
#
# Static dielectric constant tensor:
#      x y z
#    x 2.147210 0.000000 0.070210 
#    y 0.000000 2.216450 0.000000 
#    z 0.070210 0.000000 2.222590 
# 
# From -- ./inp_files/65941.got.cif
#   From: 2010.05.17/outbox.cif.g08.bks.cpg/sg15_33_cif.got.tgz:65941.got - 2010.06.03 18:47:42.
