data_PCOD9256891
_publ_section_title
;
Structure prediction by ZEFSAII (Michael W. Deem and Ramdas Pophale) SiO2 
 PCOD9256891
Probable space group: C 2/C
;
_chemical_formula_sum "Si O2"
_cell_formula_units_Z 48
_cell_length_a 17.223532
_cell_length_b 28.964503
_cell_length_c 9.259725
_cell_angle_alpha 90.000000
_cell_angle_beta 155.111289
_cell_angle_gamma 90.000000
_cell_volume 1944.110895
_symmetry_space_group_name_H-M "C 2/C"
_symmetry_group_IT_number 15
_symmetry_cell_setting 'monoclinic'
loop_
_space_group_symop_operation_xyz
x,y,z
-x,y,1/2-z
-x,-y,-z
x,-y,1/2+z
1/2+x,1/2+y,z
1/2-x,1/2+y,1/2-z
1/2-x,1/2-y,-z
1/2+x,1/2-y,1/2+z
loop_
_atom_site_type_symbol
_atom_site_label
_atom_site_fract_x
_atom_site_fract_y
_atom_site_fract_z
Si Si1 0.311925 0.592573 0.733954
Si Si2 0.638826 0.422667 0.595710
Si Si3 0.913305 0.365917 0.919532
Si Si4 0.860533 0.506734 0.895942
Si Si5 0.786406 0.769386 0.900546
Si Si6 0.818386 0.675071 0.835338
O O1 0.511697 0.573770 0.022038
O O2 0.178543 0.604141 0.370300
O O3 0.211983 0.556381 0.672211
O O4 0.328904 0.641943 0.838112
O O5 0.500000 0.397788 0.250000
O O6 0.826513 0.393914 0.908463
O O7 0.690884 0.471874 0.615059
O O8 0.830655 0.315238 0.808199
O O9 0.112077 0.350915 0.190929
O O10 0.000000 0.489057 0.250000
O O11 0.000000 0.500000 0.000000
O O12 0.754069 0.727997 0.730888
O O13 0.000000 0.782155 0.250000
O O14 0.750000 0.750000 0.000000
O O15 0.000000 0.675870 0.250000
#
# Coordination Sequence:
#
# PCOD9256891 Si02
#       6
#     8   8   8   8   8   8
#     4  10  18  32  50  72 105 141 184 233 285 336
#     4  10  21  35  55  81 110 149 192 238 290 342
#     4  10  18  30  47  73 112 155 186 228 293 352
#     4  12  24  40  61  83 113 152 197 243 296 354
#     4  11  16  24  39  68 106 150 187 222 283 355
#     4   9  16  25  39  65 101 145 181 217 278 347
#
# _framework density 24.689948000000001
#
# number of rings (size 3 to 8) (size 9 to 14) (size 15 to 20)
#    0.000    1.667    5.000    6.500    0.000    0.000 
#    0.000    0.000    0.000    0.000    0.000    0.000 
#    0.000   13.333    0.000    0.000    0.000    0.500 
#
# Total GULP energy -133774.717389 kJ/mol
# GULP energy per Si atom -5573.946558 kJ/mol
# Density = 2.463375 g / cm^3
# Si number density = 24.689948 Si / 1000 Ang^3
#
#
#
# Elastic Constant Matrix: (Units=GPa)
#
#
# Indices 1 2 3 4 5 6 
#
# 1 145.0420 40.2035 32.2741 0.0000 46.2309 0.0000
# 2 40.2035 159.3878 12.6872 0.0000 30.0941 0.0000
# 3 32.2741 12.6872 66.1193 0.0000 29.2175 -0.0001
# 4 0.0000 0.0000 0.0000 10.8321 0.0000 27.7163
# 5 46.2309 30.0941 29.2175 0.0000 44.0006 0.0000
# 6 0.0000 0.0000 -0.0001 27.7163 0.0000 44.3000
#
#
#
# Elastic Compliance Matrix: (Units=1/GPa)
#
#
# Indices 1 2 3 4 5 6 
#
# 1 0.010433 -0.000669 -0.000456 0.000000 -0.010201 0.000000
# 2 -0.000669 0.007307 0.001164 0.000000 -0.005067 0.000000
# 3 -0.000456 0.001164 0.021602 0.000000 -0.014661 0.000000
# 4 0.000000 0.000000 0.000000 -0.153641 0.000000 0.096126
# 5 -0.010201 -0.005067 -0.014661 0.000000 0.046646 0.000000
# 6 0.000000 0.000000 0.000000 0.096126 0.000000 -0.037568
#
#
# Mechanical properties :
#
#
# Convention : Reuss Voigt Hill
#
# Bulk Modulus (GPa) = 25.36889 60.09763 42.73326
# Shear Modulus (GPa) = -54.25478 38.85216 -7.70131
#
# Velocity S-wave (km/s) = -4.69278 3.97117 -1.76804
# Velocity P-wave (km/s) = 4.36641 6.73949 3.63009
#
# Compressibility (1/GPa) = 0.03941836
#
# Stress axis : x y z
#
# Youngs Moduli (GPa) = 95.84835 136.85686 46.29179
#
# Poissons Ratio (x) = 0.09158 0.02113
# Poissons Ratio (y) = 0.06414 -0.05387
# Poissons Ratio (z) = 0.04374 -0.15926
#
# Static dielectric constant tensor:
#      x y z
#    x 1.990670 0.000000 0.094590 
#    y 0.000000 2.051760 0.000000 
#    z 0.094590 0.000000 1.777180 
# 
# From -- ./inp_files/108292.got.cif
#   From: 2010.05.17/outbox.cif.g08.bks.cpg/sg15_55_cif.got.tgz:108292.got - 2010.06.03 18:47:42.
