data_PCOD9256472
_publ_section_title
;
Structure prediction by ZEFSAII (Michael W. Deem and Ramdas Pophale) SiO2 
 PCOD9256472
Probable space group: C 2/C
;
_chemical_formula_sum "Si O2"
_cell_formula_units_Z 40
_cell_length_a 12.863510
_cell_length_b 8.798004
_cell_length_c 16.271017
_cell_angle_alpha 90.000000
_cell_angle_beta 59.801181
_cell_angle_gamma 90.000000
_cell_volume 1591.532104
_symmetry_space_group_name_H-M "C 2/C"
_symmetry_group_IT_number 15
_symmetry_cell_setting 'monoclinic'
loop_
_space_group_symop_operation_xyz
x,y,z
-x,y,1/2-z
-x,-y,-z
x,-y,1/2+z
1/2+x,1/2+y,z
1/2-x,1/2+y,1/2-z
1/2-x,1/2-y,-z
1/2+x,1/2-y,1/2+z
loop_
_atom_site_type_symbol
_atom_site_label
_atom_site_fract_x
_atom_site_fract_y
_atom_site_fract_z
Si Si1 0.164891 0.205534 0.955779
Si Si2 0.000000 0.532725 0.250000
Si Si3 0.500000 0.543406 0.250000
Si Si4 0.709885 0.901870 0.562424
Si Si5 0.433354 0.217591 0.642087
Si Si6 0.735419 0.993020 0.381725
O O1 0.027152 0.234489 0.033822
O O2 0.198253 0.026444 0.933358
O O3 0.250000 0.250000 0.000000
O O4 0.204548 0.329825 0.871452
O O5 0.888407 0.625298 0.328764
O O6 0.974648 0.419542 0.184913
O O7 0.559758 0.640233 0.299696
O O8 0.378630 0.474636 0.336916
O O9 0.750000 0.750000 0.500000
O O10 0.663908 0.981726 0.496578
O O11 0.313756 0.144487 0.652780
#
# Coordination Sequence:
#
# PCOD9256472 Si02
#       6
#     8   4   4   8   8   8
#     4  10  17  40  70 101 135 192 246 306 380 447
#     4  11  22  41  70 102 145 187 252 314 371 453
#     4  11  22  43  72 112 157 189 258 314 369 461
#     4  11  24  43  66 102 151 197 242 320 385 436
#     4  11  21  40  77 109 141 196 254 312 380 460
#     4  11  23  42  74 103 145 202 252 310 382 456
#
# _framework density 25.133013999999999
#
# number of rings (size 3 to 8) (size 9 to 14) (size 15 to 20)
#    0.000    1.200    8.000    1.800    0.000    2.400 
#    0.000    1.000    4.400    0.000    0.000    0.000 
#    0.000    0.000    0.000    0.000    0.000    0.000 
#
# Total GULP energy -111365.746646 kJ/mol
# GULP energy per Si atom -5568.287332 kJ/mol
# Density = 2.507581 g / cm^3
# Si number density = 25.133014 Si / 1000 Ang^3
#
#
#
# Elastic Constant Matrix: (Units=GPa)
#
#
# Indices 1 2 3 4 5 6 
#
# 1 82.6303 32.4625 39.0666 0.0000 -9.4235 0.0000
# 2 32.4625 144.8699 59.8221 0.0000 -24.8074 0.0000
# 3 39.0666 59.8221 179.9793 0.0000 -41.0926 0.0000
# 4 0.0000 0.0000 0.0000 1058.2079 0.0000 251.9573
# 5 -9.4235 -24.8074 -41.0926 0.0000 24.5368 0.0000
# 6 0.0000 0.0000 0.0000 251.9573 0.0000 103.1217
#
#
#
# Elastic Compliance Matrix: (Units=1/GPa)
#
#
# Indices 1 2 3 4 5 6 
#
# 1 0.014083 -0.002304 -0.002571 0.000000 -0.001227 0.000000
# 2 -0.002304 0.008940 -0.000987 0.000000 0.006500 0.000000
# 3 -0.002571 -0.000987 0.009697 0.000000 0.014254 0.000000
# 4 0.000000 0.000000 0.000000 0.002259 0.000000 -0.005520
# 5 -0.001227 0.006500 0.014254 0.000000 0.070728 0.000000
# 6 0.000000 0.000000 0.000000 -0.005520 0.000000 0.023185
#
#
# Mechanical properties :
#
#
# Convention : Reuss Voigt Hill
#
# Bulk Modulus (GPa) = 47.63073 74.46466 61.04770
# Shear Modulus (GPa) = 33.87188 255.58184 144.72686
#
# Velocity S-wave (km/s) = 3.67509 10.09517 7.59667
# Velocity P-wave (km/s) = 6.08285 12.86763 10.06421
#
# Compressibility (1/GPa) = 0.02099485
#
# Stress axis : x y z
#
# Youngs Moduli (GPa) = 71.00767 111.85953 103.12555
#
# Poissons Ratio (x) = 0.25773 0.26515
# Poissons Ratio (y) = 0.16361 0.10180
# Poissons Ratio (z) = 0.18257 0.11043
#
# Static dielectric constant tensor:
#      x y z
#    x 2.263940 0.000000 0.058920 
#    y 0.000000 2.254360 0.000000 
#    z 0.058920 0.000000 2.126080 
# 
# From -- ./inp_files/242248.got.cif
#   From: 2010.05.17/outbox.cif.g08.bks.cpg/sg15_122_cif.got.tgz:242248.got - 2010.06.03 18:47:42.
