data_PCOD9256405
_publ_section_title
;
Structure prediction by ZEFSAII (Michael W. Deem and Ramdas Pophale) SiO2 
 PCOD9256405
Probable space group: C 2/C
;
_chemical_formula_sum "Si O2"
_cell_formula_units_Z 56
_cell_length_a 18.906961
_cell_length_b 7.796671
_cell_length_c 21.191431
_cell_angle_alpha 90.000000
_cell_angle_beta 55.667682
_cell_angle_gamma 90.000000
_cell_volume 2579.620033
_symmetry_space_group_name_H-M "C 2/C"
_symmetry_group_IT_number 15
_symmetry_cell_setting 'monoclinic'
loop_
_space_group_symop_operation_xyz
x,y,z
-x,y,1/2-z
-x,-y,-z
x,-y,1/2+z
1/2+x,1/2+y,z
1/2-x,1/2+y,1/2-z
1/2-x,1/2-y,-z
1/2+x,1/2-y,1/2+z
loop_
_atom_site_type_symbol
_atom_site_label
_atom_site_fract_x
_atom_site_fract_y
_atom_site_fract_z
Si Si1 0.904300 0.271460 0.038618
Si Si2 0.656153 0.893788 0.095844
Si Si3 0.749978 0.767410 0.839886
Si Si4 0.816196 0.090764 0.971131
Si Si5 0.402078 0.249470 0.316646
Si Si6 0.241093 0.839293 0.203284
Si Si7 0.414605 0.825592 0.495831
O O1 0.826702 0.265868 0.127488
O O2 0.908937 0.465852 0.007561
O O3 0.879670 0.136863 0.996476
O O4 0.995318 0.252465 0.026302
O O5 0.677343 0.797153 0.149466
O O6 0.610652 0.071588 0.138888
O O7 0.602033 0.797521 0.069784
O O8 0.748516 0.940673 0.017746
O O9 0.745520 0.669944 0.776008
O O10 0.660489 0.753924 0.922322
O O11 0.763510 0.964291 0.815308
O O12 0.867144 0.101072 0.880402
O O13 0.750000 0.250000 0.000000
O O14 0.500000 0.273911 0.250000
O O15 0.340437 0.245371 0.286673
#
# Coordination Sequence:
#
# PCOD9256405 Si02
#       7
#     8   8   8   8   8   8   8
#     4  10  19  37  64  94 125 165 210 268 312 383
#     4  11  21  42  67  94 126 178 219 261 324 389
#     4  11  25  41  66  90 130 171 213 272 327 387
#     4  10  17  37  64  90 125 164 208 255 316 379
#     4  11  23  38  69  98 127 170 215 261 319 397
#     4  11  23  43  61  95 131 168 210 271 337 382
#     4  10  21  36  64  98 123 161 226 262 311 390
#
# _framework density 21.708624
#
# number of rings (size 3 to 8) (size 9 to 14) (size 15 to 20)
#    0.000    1.429    5.714    2.143    2.000    2.286 
#    0.000    4.286    0.000    0.000    0.000    0.000 
#    0.000    0.000    0.000    0.000    0.000    0.000 
#
# Total GULP energy -156628.865590 kJ/mol
# GULP energy per Si atom -5593.888057 kJ/mol
# Density = 2.165921 g / cm^3
# Si number density = 21.708624 Si / 1000 Ang^3
#
#
#
# Elastic Constant Matrix: (Units=GPa)
#
#
# Indices 1 2 3 4 5 6 
#
# 1 178.3504 19.4099 71.8392 0.0001 23.9130 0.0004
# 2 19.4099 36.2301 21.2877 0.0001 3.4688 0.0006
# 3 71.8392 21.2877 122.1591 0.0000 19.8153 0.0000
# 4 0.0001 0.0001 0.0000 30.9716 0.0000 10.6914
# 5 23.9130 3.4688 19.8153 0.0000 48.0288 0.0001
# 6 0.0004 0.0006 0.0000 10.6914 0.0001 31.3247
#
#
#
# Elastic Compliance Matrix: (Units=1/GPa)
#
#
# Indices 1 2 3 4 5 6 
#
# 1 0.007617 -0.001613 -0.003860 0.000000 -0.002083 0.000000
# 2 -0.001613 0.031091 -0.004539 0.000000 0.000430 -0.000001
# 3 -0.003860 -0.004539 0.011663 0.000000 -0.002562 0.000000
# 4 0.000000 0.000000 0.000000 0.036600 0.000000 -0.012492
# 5 -0.002083 0.000430 -0.002562 0.000000 0.022884 0.000000
# 6 0.000000 -0.000001 0.000000 -0.012492 0.000000 0.036187
#
#
# Mechanical properties :
#
#
# Convention : Reuss Voigt Hill
#
# Bulk Modulus (GPa) = 32.95344 62.42370 47.68857
# Shear Modulus (GPa) = 28.37973 37.01188 32.69581
#
# Velocity S-wave (km/s) = 3.61959 4.13357 3.88509
# Velocity P-wave (km/s) = 5.71676 7.18328 6.49157
#
# Compressibility (1/GPa) = 0.03034584
#
# Stress axis : x y z
#
# Youngs Moduli (GPa) = 131.29086 32.16322 85.74295
#
# Poissons Ratio (x) = 0.05188 0.33099
# Poissons Ratio (y) = 0.21177 0.38921
# Poissons Ratio (z) = 0.50681 0.14600
#
# Static dielectric constant tensor:
#      x y z
#    x 1.772810 0.000000 0.029220 
#    y 0.000000 1.883840 0.000000 
#    z 0.029220 0.000000 1.770080 
# 
# From -- ./inp_files/247336.got.cif
#   From: 2010.05.17/outbox.cif.g08.bks.cpg/sg15_124_cif.got.tgz:247336.got - 2010.06.03 18:47:42.
