data_PCOD9256354
_publ_section_title
;
Structure prediction by ZEFSAII (Michael W. Deem and Ramdas Pophale) SiO2 
 PCOD9256354
Probable space group: C 2/C
;
_chemical_formula_sum "Si O2"
_cell_formula_units_Z 52
_cell_length_a 21.744291
_cell_length_b 7.383381
_cell_length_c 21.619774
_cell_angle_alpha 90.000000
_cell_angle_beta 145.631717
_cell_angle_gamma 90.000000
_cell_volume 1959.401541
_symmetry_space_group_name_H-M "C 2/C"
_symmetry_group_IT_number 15
_symmetry_cell_setting 'monoclinic'
loop_
_space_group_symop_operation_xyz
x,y,z
-x,y,1/2-z
-x,-y,-z
x,-y,1/2+z
1/2+x,1/2+y,z
1/2-x,1/2+y,1/2-z
1/2-x,1/2-y,-z
1/2+x,1/2-y,1/2+z
loop_
_atom_site_type_symbol
_atom_site_label
_atom_site_fract_x
_atom_site_fract_y
_atom_site_fract_z
Si Si1 0.400294 0.735182 0.454144
Si Si2 0.676156 0.651948 0.971534
Si Si3 0.582486 0.303114 0.279318
Si Si4 0.736869 0.538531 0.334373
Si Si5 0.143543 0.755734 0.969510
Si Si6 0.000000 0.438925 0.250000
Si Si7 0.377356 0.329813 0.413816
O O1 0.375674 0.713289 0.505963
O O2 0.369488 0.543733 0.396391
O O3 0.528536 0.758016 0.549090
O O4 0.322247 0.901798 0.373790
O O5 0.553041 0.637710 0.833096
O O6 0.705392 0.438835 0.003011
O O7 0.796069 0.765266 0.080574
O O8 0.628651 0.428173 0.261849
O O9 0.558707 0.084592 0.253027
O O10 0.778019 0.604063 0.436759
O O11 0.761454 0.727062 0.319304
O O12 0.072536 0.683552 0.854463
O O13 0.078375 0.805727 0.978388
#
# Coordination Sequence:
#
# PCOD9256354 Si02
#       7
#     8   8   8   8   8   4   8
#     4  10  17  36  63  94 124 155 211 269 319 378
#     4  11  21  39  61  96 126 168 209 267 325 385
#     4  10  24  37  55  88 129 171 208 262 334 378
#     4  10  19  39  59  93 125 168 215 269 312 390
#     4   9  22  37  61  96 130 161 223 266 318 395
#     4  10  22  40  56  94 130 176 202 268 334 388
#     4   8  20  35  60 100 118 161 215 263 315 383
#
# _framework density 26.538716000000001
#
# number of rings (size 3 to 8) (size 9 to 14) (size 15 to 20)
#    1.385    0.923    1.538    1.385    1.077    0.615 
#    2.769    0.000    0.000    0.000   28.000    0.000 
#    0.000    0.000    0.000    0.000    0.000    0.308 
#
# Total GULP energy -144972.883292 kJ/mol
# GULP energy per Si atom -5575.880127 kJ/mol
# Density = 2.647831 g / cm^3
# Si number density = 26.538716 Si / 1000 Ang^3
#
#
#
# Elastic Constant Matrix: (Units=GPa)
#
#
# Indices 1 2 3 4 5 6 
#
# 1 153.2237 38.6784 49.0490 0.0000 45.8670 0.0000
# 2 38.6784 181.6857 44.5285 0.0000 22.6649 0.0000
# 3 49.0490 44.5285 113.9576 0.0000 17.2304 0.0000
# 4 0.0000 0.0000 0.0000 40.7504 0.0000 0.8466
# 5 45.8670 22.6649 17.2304 0.0000 47.3809 0.0000
# 6 0.0000 0.0000 0.0000 0.8466 0.0000 43.3351
#
#
#
# Elastic Compliance Matrix: (Units=1/GPa)
#
#
# Indices 1 2 3 4 5 6 
#
# 1 0.010113 -0.000372 -0.002915 0.000000 -0.008553 0.000000
# 2 -0.000372 0.006318 -0.002017 0.000000 -0.001929 0.000000
# 3 -0.002915 -0.002017 0.010841 0.000000 -0.000156 0.000000
# 4 0.000000 0.000000 0.000000 0.024550 0.000000 -0.000480
# 5 -0.008553 -0.001929 -0.000156 0.000000 0.030364 0.000000
# 6 0.000000 0.000000 0.000000 -0.000480 0.000000 0.023085
#
#
# Mechanical properties :
#
#
# Convention : Reuss Voigt Hill
#
# Bulk Modulus (GPa) = 60.00202 79.26433 69.63317
# Shear Modulus (GPa) = 41.17443 47.40068 44.28756
#
# Velocity S-wave (km/s) = 3.94316 4.23081 4.08952
# Velocity P-wave (km/s) = 6.58709 7.33475 6.97095
#
# Compressibility (1/GPa) = 0.01666611
#
# Stress axis : x y z
#
# Youngs Moduli (GPa) = 98.87856 158.27421 92.23847
#
# Poissons Ratio (x) = 0.05884 0.26883
# Poissons Ratio (y) = 0.03676 0.18606
# Poissons Ratio (z) = 0.28819 0.31926
#
# Static dielectric constant tensor:
#      x y z
#    x 2.064410 0.000000 -0.016200 
#    y 0.000000 2.001060 0.000000 
#    z -0.016200 0.000000 2.152770 
# 
# From -- ./inp_files/320206.got.cif
#   From: 2010.05.17/outbox.cif.g08.bks.cpg/sg15_161_cif.got.tgz:320206.got - 2010.06.03 18:47:42.
