data_PCOD9256401
_publ_section_title
;
Structure prediction by ZEFSAII (Michael W. Deem and Ramdas Pophale) SiO2 
 PCOD9256401
Probable space group: C 2/C
;
_chemical_formula_sum "Si O2"
_cell_formula_units_Z 48
_cell_length_a 9.603414
_cell_length_b 16.361452
_cell_length_c 16.862397
_cell_angle_alpha 90.000000
_cell_angle_beta 125.739681
_cell_angle_gamma 90.000000
_cell_volume 2150.558283
_symmetry_space_group_name_H-M "C 2/C"
_symmetry_group_IT_number 15
_symmetry_cell_setting 'monoclinic'
loop_
_space_group_symop_operation_xyz
x,y,z
-x,y,1/2-z
-x,-y,-z
x,-y,1/2+z
1/2+x,1/2+y,z
1/2-x,1/2+y,1/2-z
1/2-x,1/2-y,-z
1/2+x,1/2-y,1/2+z
loop_
_atom_site_type_symbol
_atom_site_label
_atom_site_fract_x
_atom_site_fract_y
_atom_site_fract_z
Si Si1 0.911674 0.717051 0.977005
Si Si2 0.509038 0.740802 0.838546
Si Si3 0.324836 0.665594 0.989529
Si Si4 0.894864 0.553617 0.900848
Si Si5 0.778885 0.911861 0.308851
Si Si6 0.067991 0.970830 0.855649
O O1 0.010948 0.700877 0.092668
O O2 0.983644 0.804587 0.974425
O O3 0.706594 0.713447 0.915607
O O4 0.957921 0.645463 0.933321
O O5 0.500000 0.780860 0.750000
O O6 0.373693 0.666327 0.797571
O O7 0.240585 0.625038 0.882967
O O8 0.250000 0.750000 0.000000
O O9 0.344649 0.597438 0.062385
O O10 0.868182 0.549401 0.796700
O O11 0.703038 0.537710 0.869613
O O12 0.000000 0.500000 0.000000
O O13 0.923070 0.982588 0.357808
O O14 0.000000 0.933953 0.750000
#
# Coordination Sequence:
#
# PCOD9256401 Si02
#       6
#     8   8   8   8   8   8
#     4  10  21  35  62  90 118 157 211 264 310 383
#     4  10  17  37  63  88 113 157 210 260 316 371
#     4  11  24  40  60  95 132 165 205 265 330 388
#     4  11  21  39  63  91 121 163 217 269 315 380
#     4  10  20  40  67  85 121 173 214 252 326 388
#     4  10  21  41  64  86 123 172 212 250 319 391
#
# _framework density 22.319785
#
# number of rings (size 3 to 8) (size 9 to 14) (size 15 to 20)
#    0.000    1.667    3.333    2.000    0.000    1.333 
#    6.000    2.500    0.000    0.000    0.000    0.000 
#    0.000    0.000    0.000    0.000    0.000    0.000 
#
# Total GULP energy -133665.230788 kJ/mol
# GULP energy per Si atom -5569.384616 kJ/mol
# Density = 2.226898 g / cm^3
# Si number density = 22.319785 Si / 1000 Ang^3
#
#
#
# Elastic Constant Matrix: (Units=GPa)
#
#
# Indices 1 2 3 4 5 6 
#
# 1 56.1727 16.1268 35.2522 0.0000 -13.5525 0.0000
# 2 16.1268 68.3024 51.2919 0.0000 -16.4581 0.0000
# 3 35.2522 51.2919 171.2377 0.0000 -27.5708 0.0000
# 4 0.0000 0.0000 0.0000 38.0267 0.0000 0.0808
# 5 -13.5525 -16.4581 -27.5708 0.0000 33.7224 0.0000
# 6 0.0000 0.0000 0.0000 0.0808 0.0000 32.8045
#
#
#
# Elastic Compliance Matrix: (Units=1/GPa)
#
#
# Indices 1 2 3 4 5 6 
#
# 1 0.021471 -0.001425 -0.003128 0.000000 0.005376 0.000000
# 2 -0.001425 0.019841 -0.004817 0.000000 0.005172 0.000000
# 3 -0.003128 -0.004817 0.008459 0.000000 0.003308 0.000000
# 4 0.000000 0.000000 0.000000 0.026297 0.000000 -0.000065
# 5 0.005376 0.005172 0.003308 0.000000 0.037044 0.000000
# 6 0.000000 0.000000 0.000000 -0.000065 0.000000 0.030484
#
#
# Mechanical properties :
#
#
# Convention : Reuss Voigt Hill
#
# Bulk Modulus (GPa) = 32.22519 55.67273 43.94896
# Shear Modulus (GPa) = 28.95530 33.78017 31.36773
#
# Velocity S-wave (km/s) = 3.60570 3.89455 3.75290
# Velocity P-wave (km/s) = 5.63951 6.72463 6.20583
#
# Compressibility (1/GPa) = 0.03103163
#
# Stress axis : x y z
#
# Youngs Moduli (GPa) = 46.57361 50.40112 118.21462
#
# Poissons Ratio (x) = 0.07184 0.36974
# Poissons Ratio (y) = 0.06639 0.56942
# Poissons Ratio (z) = 0.14567 0.24277
#
# Static dielectric constant tensor:
#      x y z
#    x 1.976030 0.000000 -0.008460 
#    y 0.000000 1.774410 0.000000 
#    z -0.008460 0.000000 1.890710 
# 
# From -- ./inp_files/199339.got.cif
#   From: 2010.05.17/outbox.cif.g08.bks.cpg/sg15_100_cif.got.tgz:199339.got - 2010.06.03 18:47:42.
