data_PCOD9256445
_publ_section_title
;
Structure prediction by ZEFSAII (Michael W. Deem and Ramdas Pophale) SiO2 
 PCOD9256445
Probable space group: C 2/C
;
_chemical_formula_sum "Si O2"
_cell_formula_units_Z 40
_cell_length_a 15.872455
_cell_length_b 21.423338
_cell_length_c 5.316747
_cell_angle_alpha 90.000000
_cell_angle_beta 70.387568
_cell_angle_gamma 90.000000
_cell_volume 1703.025153
_symmetry_space_group_name_H-M "C 2/C"
_symmetry_group_IT_number 15
_symmetry_cell_setting 'monoclinic'
loop_
_space_group_symop_operation_xyz
x,y,z
-x,y,1/2-z
-x,-y,-z
x,-y,1/2+z
1/2+x,1/2+y,z
1/2-x,1/2+y,1/2-z
1/2-x,1/2-y,-z
1/2+x,1/2-y,1/2+z
loop_
_atom_site_type_symbol
_atom_site_label
_atom_site_fract_x
_atom_site_fract_y
_atom_site_fract_z
Si Si1 0.862628 0.632272 0.027020
Si Si2 0.058333 0.113040 0.439942
Si Si3 0.399761 0.254037 0.727763
Si Si4 0.500000 0.814845 0.750000
Si Si5 0.728244 0.538342 0.385571
Si Si6 0.500000 0.041781 0.750000
O O1 0.842887 0.700272 0.923959
O O2 0.906357 0.580313 0.805309
O O3 0.787746 0.599216 0.265808
O O4 0.952095 0.643645 0.096912
O O5 0.117239 0.173032 0.286620
O O6 0.125393 0.059294 0.456311
O O7 0.000000 0.096734 0.250000
O O8 0.000000 0.129457 0.750000
O O9 0.500000 0.252879 0.750000
O O10 0.419742 0.227246 0.433132
O O11 0.744750 0.510883 0.644331
O O12 0.500000 0.000000 0.500000
#
# Coordination Sequence:
#
# PCOD9256445 Si02
#       6
#     8   8   8   4   8   4
#     4  11  23  39  64  96 140 179 219 271 325 394
#     4  11  24  47  76 100 127 172 227 288 354 399
#     4   9  19  37  68 101 132 168 220 277 333 403
#     4  10  17  38  66  98 132 175 214 262 328 408
#     4  12  29  48  66  98 139 178 230 285 327 396
#     4  12  23  34  56  86 124 181 220 240 302 386
#
# _framework density 23.487615000000002
#
# number of rings (size 3 to 8) (size 9 to 14) (size 15 to 20)
#    0.000    1.200    4.000    3.000    2.800    3.200 
#    0.000    1.000    0.000    0.000    0.000    0.000 
#    0.000    0.000    0.000    0.000    0.000    0.000 
#
# Total GULP energy -111528.802895 kJ/mol
# GULP energy per Si atom -5576.440145 kJ/mol
# Density = 2.343416 g / cm^3
# Si number density = 23.487615 Si / 1000 Ang^3
#
#
#
# Elastic Constant Matrix: (Units=GPa)
#
#
# Indices 1 2 3 4 5 6 
#
# 1 41.3975 18.1736 7.2852 0.0000 1.9391 0.0000
# 2 18.1736 56.7068 12.6259 0.0000 0.1804 0.0000
# 3 7.2852 12.6259 76.5760 0.0000 13.0548 0.0000
# 4 0.0000 0.0000 0.0000 18.2907 0.0000 4.3623
# 5 1.9391 0.1804 13.0548 0.0000 25.1614 0.0000
# 6 0.0000 0.0000 0.0000 4.3623 0.0000 27.4833
#
#
#
# Elastic Compliance Matrix: (Units=1/GPa)
#
#
# Indices 1 2 3 4 5 6 
#
# 1 0.028284 -0.008847 -0.000956 0.000000 -0.001620 0.000000
# 2 -0.008847 0.021131 -0.002998 0.000000 0.002086 0.000000
# 3 -0.000956 -0.002998 0.014950 0.000000 -0.007662 0.000000
# 4 0.000000 0.000000 0.000000 0.056824 0.000000 -0.009019
# 5 -0.001620 0.002086 -0.007662 0.000000 0.043828 0.000000
# 6 0.000000 0.000000 0.000000 -0.009019 0.000000 0.037817
#
#
# Mechanical properties :
#
#
# Convention : Reuss Voigt Hill
#
# Bulk Modulus (GPa) = 25.79723 27.87219 26.83471
# Shear Modulus (GPa) = 20.71624 23.29345 22.00485
#
# Velocity S-wave (km/s) = 2.97308 3.15260 3.06415
# Velocity P-wave (km/s) = 4.77418 5.01441 4.89577
#
# Compressibility (1/GPa) = 0.03876386
#
# Stress axis : x y z
#
# Youngs Moduli (GPa) = 35.35592 47.32474 66.88806
#
# Poissons Ratio (x) = 0.41866 0.06394
# Poissons Ratio (y) = 0.31278 0.20053
# Poissons Ratio (z) = 0.03380 0.14188
#
# Static dielectric constant tensor:
#      x y z
#    x -0.264760 0.000000 -2.019020 
#    y 0.000000 2.019510 0.000000 
#    z -2.019020 0.000000 0.143620 
# 
# From -- ./inp_files/10152.got.cif
#   From: 2010.05.17/outbox.cif.g08.bks.cpg/sg15_6_cif.got.tgz:10152.got - 2010.06.03 18:47:42.
