data_PCOD9256621
_publ_section_title
;
Structure prediction by ZEFSAII (Michael W. Deem and Ramdas Pophale) SiO2 
 PCOD9256621
Probable space group: C 2/C
;
_chemical_formula_sum "Si O2"
_cell_formula_units_Z 64
_cell_length_a 24.227433
_cell_length_b 16.997401
_cell_length_c 10.275632
_cell_angle_alpha 90.000000
_cell_angle_beta 82.484042
_cell_angle_gamma 90.000000
_cell_volume 4195.184723
_symmetry_space_group_name_H-M "C 2/C"
_symmetry_group_IT_number 15
_symmetry_cell_setting 'monoclinic'
loop_
_space_group_symop_operation_xyz
x,y,z
-x,y,1/2-z
-x,-y,-z
x,-y,1/2+z
1/2+x,1/2+y,z
1/2-x,1/2+y,1/2-z
1/2-x,1/2-y,-z
1/2+x,1/2-y,1/2+z
loop_
_atom_site_type_symbol
_atom_site_label
_atom_site_fract_x
_atom_site_fract_y
_atom_site_fract_z
Si Si1 0.226770 0.152964 0.868603
Si Si2 0.121798 0.398939 0.437456
Si Si3 0.663554 0.798615 0.002980
Si Si4 0.436613 0.838865 0.291441
Si Si5 0.320215 0.048377 0.160417
Si Si6 0.254186 0.164982 0.560705
Si Si7 0.536991 0.013359 0.117940
Si Si8 0.748355 0.486401 0.937859
O O1 0.184403 0.215127 0.943362
O O2 0.232316 0.165584 0.713899
O O3 0.213636 0.061447 0.900229
O O4 0.287784 0.171201 0.913001
O O5 0.090872 0.345639 0.342115
O O6 0.131546 0.483767 0.364864
O O7 0.180949 0.361584 0.454529
O O8 0.084250 0.423306 0.570660
O O9 0.662291 0.864177 0.887984
O O10 0.605631 0.795108 0.098603
O O11 0.500000 0.810882 0.250000
O O12 0.440316 0.927431 0.349256
O O13 0.290497 0.035915 0.307540
O O14 0.278621 0.019272 0.058277
O O15 0.250000 0.250000 0.500000
O O16 0.222901 0.096720 0.488855
O O17 0.500000 0.040509 0.250000
O O18 0.500000 0.000000 0.000000
#
# Coordination Sequence:
#
# PCOD9256621 Si02
#       8
#     8   8   8   8   8   8   8   8
#     4  10  19  34  47  74  98 134 177 217 259 327
#     4  11  19  33  49  67 107 137 186 221 255 309
#     4  10  19  31  51  69 102 135 173 211 267 306
#     4  11  20  33  49  70 103 144 180 224 257 316
#     4  10  18  28  47  69  93 140 171 205 258 302
#     4  11  22  34  50  76 107 140 184 224 273 319
#     4  11  21  32  48  74 103 141 191 223 253 309
#     4  10  18  32  49  68 101 135 170 211 260 320
#
# _framework density 15.255585
#
# number of rings (size 3 to 8) (size 9 to 14) (size 15 to 20)
#    0.000    1.500    7.500    1.500    1.750    0.000 
#    2.250    0.000    0.000    0.000    0.000    0.000 
#    0.000    5.000    0.000    0.000    0.000    0.000 
#
# Total GULP energy -178336.152827 kJ/mol
# GULP energy per Si atom -5573.004776 kJ/mol
# Density = 1.522086 g / cm^3
# Si number density = 15.255585 Si / 1000 Ang^3
#
#
#
# Elastic Constant Matrix: (Units=GPa)
#
#
# Indices 1 2 3 4 5 6 
#
# 1 62.8653 30.5759 20.1570 0.0000 -16.3877 0.0000
# 2 30.5759 108.2911 35.6002 0.0000 -10.6806 0.0000
# 3 20.1570 35.6002 89.1365 0.0000 -15.5885 0.0000
# 4 0.0000 0.0000 0.0000 19.6853 0.0000 -5.1283
# 5 -16.3877 -10.6806 -15.5885 0.0000 27.4241 0.0000
# 6 0.0000 0.0000 0.0000 -5.1283 0.0000 20.3385
#
#
#
# Elastic Compliance Matrix: (Units=1/GPa)
#
#
# Indices 1 2 3 4 5 6 
#
# 1 0.021173 -0.004587 -0.001172 0.000000 0.010199 0.000000
# 2 -0.004587 0.011715 -0.003690 0.000000 -0.000276 0.000000
# 3 -0.001172 -0.003690 0.013973 0.000000 0.005805 0.000000
# 4 0.000000 0.000000 0.000000 0.054371 0.000000 0.013710
# 5 0.010199 -0.000276 0.005805 0.000000 0.045751 0.000000
# 6 0.000000 0.000000 0.000000 0.013710 0.000000 0.052625
#
#
# Mechanical properties :
#
#
# Convention : Reuss Voigt Hill
#
# Bulk Modulus (GPa) = 35.76206 48.10657 41.93431
# Shear Modulus (GPa) = 21.94653 25.08688 23.51671
#
# Velocity S-wave (km/s) = 3.79699 4.05957 3.93047
# Velocity P-wave (km/s) = 6.53572 7.31954 6.93871
#
# Compressibility (1/GPa) = 0.02796260
#
# Stress axis : x y z
#
# Youngs Moduli (GPa) = 47.23098 85.35850 71.56796
#
# Poissons Ratio (x) = 0.39152 0.08390
# Poissons Ratio (y) = 0.21664 0.26408
# Poissons Ratio (z) = 0.05537 0.31497
#
# Static dielectric constant tensor:
#      x y z
#    x 1.521490 0.000000 0.005590 
#    y 0.000000 1.517980 0.000000 
#    z 0.005590 0.000000 1.547280 
# 
# From -- ./inp_files/62494.got.cif
#   From: 2010.05.17/outbox.cif.g08.bks.cpg/sg15_32_cif.got.tgz:62494.got - 2010.06.03 18:47:42.
