data_PCOD9256431
_publ_section_title
;
Structure prediction by ZEFSAII (Michael W. Deem and Ramdas Pophale) SiO2 
 PCOD9256431
Probable space group: C 2/C
;
_chemical_formula_sum "Si O2"
_cell_formula_units_Z 40
_cell_length_a 5.490692
_cell_length_b 24.502515
_cell_length_c 14.346409
_cell_angle_alpha 90.000000
_cell_angle_beta 129.519530
_cell_angle_gamma 90.000000
_cell_volume 1488.897967
_symmetry_space_group_name_H-M "C 2/C"
_symmetry_group_IT_number 15
_symmetry_cell_setting 'monoclinic'
loop_
_space_group_symop_operation_xyz
x,y,z
-x,y,1/2-z
-x,-y,-z
x,-y,1/2+z
1/2+x,1/2+y,z
1/2-x,1/2+y,1/2-z
1/2-x,1/2-y,-z
1/2+x,1/2-y,1/2+z
loop_
_atom_site_type_symbol
_atom_site_label
_atom_site_fract_x
_atom_site_fract_y
_atom_site_fract_z
Si Si1 0.000000 0.731487 0.750000
Si Si2 0.157188 0.344289 0.453063
Si Si3 0.577182 0.440791 0.094063
Si Si4 0.968199 0.617944 0.391132
Si Si5 0.500000 0.201558 0.250000
Si Si6 0.500000 0.962478 0.750000
Si Si7 0.000000 0.123536 0.750000
O O1 0.792343 0.696099 0.623334
O O2 0.238807 0.764538 0.742051
O O3 0.224082 0.346755 0.580370
O O4 0.773365 0.341317 0.362077
O O5 0.274454 0.403396 0.449057
O O6 0.731844 0.500139 0.136279
O O7 0.665933 0.414575 0.215171
O O8 0.208142 0.424387 0.999734
O O9 0.140940 0.662416 0.366159
O O10 0.822271 0.576777 0.279855
#
# Coordination Sequence:
#
# PCOD9256431 Si02
#       7
#     4   8   8   8   4   4   4
#     4  12  25  46  80 102 145 195 247 296 370 436
#     4  11  22  41  71 102 137 186 237 304 354 431
#     4  11  21  41  70  99 137 188 239 291 362 433
#     4  10  27  45  67 102 151 183 239 306 359 425
#     4  11  29  50  69 110 149 192 242 310 362 428
#     4  11  21  48  65 104 142 193 239 293 360 440
#     4  10  17  38  62  98 142 172 234 301 350 410
#
# _framework density 26.865507000000001
#
# number of rings (size 3 to 8) (size 9 to 14) (size 15 to 20)
#    0.000    1.200    4.000    1.200    5.600    2.400 
#    3.600    0.000    0.000    0.000    0.000    0.000 
#    0.000    0.000    0.000    0.000    0.000    0.000 
#
# Total GULP energy -111540.321980 kJ/mol
# GULP energy per Si atom -5577.016099 kJ/mol
# Density = 2.680436 g / cm^3
# Si number density = 26.865507 Si / 1000 Ang^3
#
#
#
# Elastic Constant Matrix: (Units=GPa)
#
#
# Indices 1 2 3 4 5 6 
#
# 1 134.6190 61.8833 40.5231 0.0000 -49.9477 0.0000
# 2 61.8833 142.6372 66.8349 0.0000 -28.9591 0.0000
# 3 40.5231 66.8349 115.7198 0.0000 -41.0319 0.0000
# 4 0.0000 0.0000 0.0000 27.8171 0.0000 21.9024
# 5 -49.9477 -28.9591 -41.0319 0.0000 62.9352 0.0000
# 6 0.0000 0.0000 0.0000 21.9024 0.0000 -21.2973
#
#
#
# Elastic Compliance Matrix: (Units=1/GPa)
#
#
# Indices 1 2 3 4 5 6 
#
# 1 0.012094 -0.004045 0.001099 0.000000 0.008453 0.000000
# 2 -0.004045 0.011018 -0.005577 0.000000 -0.001777 0.000000
# 3 0.001099 -0.005577 0.014148 0.000000 0.007530 0.000000
# 4 0.000000 0.000000 0.000000 0.019864 0.000000 0.020429
# 5 0.008453 -0.001777 0.007530 0.000000 0.026689 0.000000
# 6 0.000000 0.000000 0.000000 0.020429 0.000000 -0.025945
#
#
# Mechanical properties :
#
#
# Convention : Reuss Voigt Hill
#
# Bulk Modulus (GPa) = 49.47562 81.27319 65.37440
# Shear Modulus (GPa) = 61.23460 28.80664 45.02062
#
# Velocity S-wave (km/s) = 4.77938 3.27808 4.09807
# Velocity P-wave (km/s) = 6.99376 6.68171 6.83952
#
# Compressibility (1/GPa) = 0.02021198
#
# Stress axis : x y z
#
# Youngs Moduli (GPa) = 82.68893 90.75664 70.68231
#
# Poissons Ratio (x) = 0.36716 -0.07766
# Poissons Ratio (y) = 0.33452 0.39421
# Poissons Ratio (z) = -0.09085 0.50616
#
# Static dielectric constant tensor:
#      x y z
#    x 2.133560 0.000000 0.109930 
#    y 0.000000 2.105750 0.000000 
#    z 0.109930 0.000000 2.386100 
# 
# From -- ./inp_files/73393.got.cif
#   From: 2010.05.17/outbox.cif.g08.bks.cpg/sg15_37_cif.got.tgz:73393.got - 2010.06.03 18:47:42.
