data_PCOD9256281
_publ_section_title
;
Structure prediction by ZEFSAII (Michael W. Deem and Ramdas Pophale) SiO2 
 PCOD9256281
Probable space group: C 2/C
;
_chemical_formula_sum "Si O2"
_cell_formula_units_Z 64
_cell_length_a 22.697281
_cell_length_b 9.220615
_cell_length_c 24.871737
_cell_angle_alpha 90.000000
_cell_angle_beta 132.688262
_cell_angle_gamma 90.000000
_cell_volume 3826.121850
_symmetry_space_group_name_H-M "C 2/C"
_symmetry_group_IT_number 15
_symmetry_cell_setting 'monoclinic'
loop_
_space_group_symop_operation_xyz
x,y,z
-x,y,1/2-z
-x,-y,-z
x,-y,1/2+z
1/2+x,1/2+y,z
1/2-x,1/2+y,1/2-z
1/2-x,1/2-y,-z
1/2+x,1/2-y,1/2+z
loop_
_atom_site_type_symbol
_atom_site_label
_atom_site_fract_x
_atom_site_fract_y
_atom_site_fract_z
Si Si1 0.378220 0.306953 0.063804
Si Si2 0.763075 0.140242 0.585767
Si Si3 0.742608 0.190683 0.698057
Si Si4 0.580044 0.653824 0.068287
Si Si5 0.163984 0.393833 0.667675
Si Si6 0.919944 0.921029 0.521845
Si Si7 0.659048 0.126254 0.039897
Si Si8 0.023756 0.613213 0.443037
O O1 0.341805 0.326025 0.100179
O O2 0.407520 0.460581 0.059916
O O3 0.447511 0.190687 0.094235
O O4 0.305354 0.247359 0.980795
O O5 0.770497 0.165124 0.653873
O O6 0.727813 0.976507 0.557040
O O7 0.661573 0.284901 0.642539
O O8 0.807235 0.271992 0.773740
O O9 0.715283 0.039302 0.706961
O O10 0.511803 0.627512 0.070289
O O11 0.544384 0.770782 0.003194
O O12 0.596605 0.507398 0.044480
O O13 0.177912 0.350753 0.614317
O O14 0.069374 0.422258 0.614761
O O15 0.863446 0.783038 0.496438
O O16 0.579546 0.025457 0.987630
#
# Coordination Sequence:
#
# PCOD9256281 Si02
#       8
#     8   8   8   8   8   8   8   8
#     4   9  18  32  55  74  98 140 185 213 255 304
#     4   9  18  36  50  71 106 142 173 217 257 318
#     4  11  22  35  50  80 109 137 167 219 269 321
#     4  10  18  32  50  76 111 132 172 217 262 305
#     4  11  22  31  52  77 110 139 170 212 274 323
#     4  10  18  26  52  81 103 132 172 228 253 307
#     4  10  18  31  53  77 108 137 174 221 269 309
#     4  10  17  36  55  77 101 145 182 211 257 319
#
# _framework density 16.727121
#
# number of rings (size 3 to 8) (size 9 to 14) (size 15 to 20)
#    0.000    2.000    6.250    1.125    1.750    0.500 
#    0.000    0.625    0.000    0.000    0.000    3.500 
#    0.000    0.000    0.000    0.000    0.000    0.000 
#
# Total GULP energy -178382.944905 kJ/mol
# GULP energy per Si atom -5574.467028 kJ/mol
# Density = 1.668905 g / cm^3
# Si number density = 16.727121 Si / 1000 Ang^3
#
#
#
# Elastic Constant Matrix: (Units=GPa)
#
#
# Indices 1 2 3 4 5 6 
#
# 1 77.4692 9.3752 1.8370 0.0000 -10.9847 0.0000
# 2 9.3752 76.7853 12.0584 0.0000 -9.6740 0.0000
# 3 1.8370 12.0584 35.3151 0.0000 -2.9586 0.0000
# 4 0.0000 0.0000 0.0000 20.4606 0.0000 3.2602
# 5 -10.9847 -9.6740 -2.9586 0.0000 7.7534 0.0000
# 6 0.0000 0.0000 0.0000 3.2602 0.0000 19.8938
#
#
#
# Elastic Compliance Matrix: (Units=1/GPa)
#
#
# Indices 1 2 3 4 5 6 
#
# 1 0.016255 0.000974 0.000881 0.000000 0.024581 0.000000
# 2 0.000974 0.016016 -0.003853 0.000000 0.019892 0.000000
# 3 0.000881 -0.003853 0.030255 0.000000 0.007986 0.000000
# 4 0.000000 0.000000 0.000000 0.050185 0.000000 -0.008224
# 5 0.024581 0.019892 0.007986 0.000000 0.191667 0.000000
# 6 0.000000 0.000000 0.000000 -0.008224 0.000000 0.051615
#
#
# Mechanical properties :
#
#
# Convention : Reuss Voigt Hill
#
# Bulk Modulus (GPa) = 17.08513 26.23453 21.65983
# Shear Modulus (GPa) = 13.17531 20.70818 16.94174
#
# Velocity S-wave (km/s) = 2.80958 3.52234 3.18595
# Velocity P-wave (km/s) = 4.55644 5.67982 5.14886
#
# Compressibility (1/GPa) = 0.05853044
#
# Stress axis : x y z
#
# Youngs Moduli (GPa) = 61.51958 62.43890 33.05209
#
# Poissons Ratio (x) = -0.06080 -0.02913
# Poissons Ratio (y) = -0.05991 0.12734
# Poissons Ratio (z) = -0.05421 0.24056
#
# Static dielectric constant tensor:
#      x y z
#    x 1.580060 0.000000 0.005910 
#    y 0.000000 1.591810 0.000000 
#    z 0.005910 0.000000 1.534560 
# 
# From -- ./inp_files/279595.got.cif
#   From: 2010.05.17/outbox.cif.g08.bks.cpg/sg15_140_cif.got.tgz:279595.got - 2010.06.03 18:47:42.
