data_PCOD9256987
_publ_section_title
;
Structure prediction by ZEFSAII (Michael W. Deem and Ramdas Pophale) SiO2 
 PCOD9256987
Probable space group: C 2/C
;
_chemical_formula_sum "Si O2"
_cell_formula_units_Z 52
_cell_length_a 10.706322
_cell_length_b 12.404175
_cell_length_c 24.858309
_cell_angle_alpha 90.000000
_cell_angle_beta 145.691475
_cell_angle_gamma 90.000000
_cell_volume 1860.751920
_symmetry_space_group_name_H-M "C 2/C"
_symmetry_group_IT_number 15
_symmetry_cell_setting 'monoclinic'
loop_
_space_group_symop_operation_xyz
x,y,z
-x,y,1/2-z
-x,-y,-z
x,-y,1/2+z
1/2+x,1/2+y,z
1/2-x,1/2+y,1/2-z
1/2-x,1/2-y,-z
1/2+x,1/2-y,1/2+z
loop_
_atom_site_type_symbol
_atom_site_label
_atom_site_fract_x
_atom_site_fract_y
_atom_site_fract_z
Si Si1 0.343612 0.926376 0.821249
Si Si2 0.449065 0.711448 0.494778
Si Si3 0.327007 0.917316 0.970553
Si Si4 0.730727 0.844169 0.817231
Si Si5 0.500000 0.749327 0.250000
Si Si6 0.474679 0.147607 0.854299
Si Si7 0.825365 0.888000 0.050663
O O1 0.346506 0.921591 0.757675
O O2 0.591015 0.904372 0.933958
O O3 0.181443 0.839570 0.791356
O O4 0.305454 0.054032 0.814645
O O5 0.627311 0.801582 0.539791
O O6 0.364433 0.630197 0.419023
O O7 0.238626 0.789939 0.433473
O O8 0.498888 0.650089 0.567896
O O9 0.332211 0.883816 0.035510
O O10 0.124195 0.001355 0.900284
O O11 0.500000 0.000000 0.000000
O O12 0.500000 0.788996 0.750000
O O13 0.884476 0.759630 0.842535
O O14 0.475798 0.831815 0.190388
#
# Coordination Sequence:
#
# PCOD9256987 Si02
#       7
#     8   8   8   8   4   8   8
#     4  10  20  34  53  75 103 137 172 211 259 306
#     4   9  16  27  46  73 102 122 166 215 241 303
#     4   8  15  28  47  72  96 127 169 202 247 304
#     4  10  18  30  50  79 100 127 176 213 252 311
#     4  10  22  36  48  80 110 130 176 218 250 314
#     4   9  20  33  52  73 102 142 163 213 267 295
#     4   9  16  28  47  73  94 134 165 201 257 296
#
# _framework density 27.945694
#
# number of rings (size 3 to 8) (size 9 to 14) (size 15 to 20)
#    0.000    2.769    1.538    0.000    2.154    0.000 
#    0.000    0.000    0.000   23.077    4.000   16.154 
#    0.000    0.000    0.000    0.000    0.000    0.000 
#
# Total GULP energy -144770.942808 kJ/mol
# GULP energy per Si atom -5568.113185 kJ/mol
# Density = 2.788209 g / cm^3
# Si number density = 27.945694 Si / 1000 Ang^3
#
#
#
# Elastic Constant Matrix: (Units=GPa)
#
#
# Indices 1 2 3 4 5 6 
#
# 1 143.6277 29.8869 59.0916 0.0000 -23.3594 0.0000
# 2 29.8869 96.0002 23.1823 0.0000 -2.2324 0.0000
# 3 59.0916 23.1823 77.5375 0.0000 -14.4981 0.0000
# 4 0.0000 0.0000 0.0000 14.6209 0.0000 -3.6890
# 5 -23.3594 -2.2324 -14.4981 0.0000 48.0236 0.0000
# 6 0.0000 0.0000 0.0000 -3.6890 0.0000 43.9640
#
#
#
# Elastic Compliance Matrix: (Units=1/GPa)
#
#
# Indices 1 2 3 4 5 6 
#
# 1 0.010705 -0.001539 -0.007141 0.000000 0.002980 0.000000
# 2 -0.001539 0.011461 -0.002431 0.000000 -0.000950 0.000000
# 3 -0.007141 -0.002431 0.019496 0.000000 0.002299 0.000000
# 4 0.000000 0.000000 0.000000 0.069875 0.000000 0.005863
# 5 0.002980 -0.000950 0.002299 0.000000 0.022922 0.000000
# 6 0.000000 0.000000 0.000000 0.005863 0.000000 0.023238
#
#
# Mechanical properties :
#
#
# Convention : Reuss Voigt Hill
#
# Bulk Modulus (GPa) = 51.44249 60.16521 55.80385
# Shear Modulus (GPa) = 26.82399 34.98867 30.90633
#
# Velocity S-wave (km/s) = 3.10152 3.54223 3.32918
# Velocity P-wave (km/s) = 5.59231 6.18918 5.89830
#
# Compressibility (1/GPa) = 0.01943918
#
# Stress axis : x y z
#
# Youngs Moduli (GPa) = 93.41054 87.25400 51.29195
#
# Poissons Ratio (x) = 0.13429 0.36629
# Poissons Ratio (y) = 0.14376 0.12470
# Poissons Ratio (z) = 0.66708 0.21214
#
# Static dielectric constant tensor:
#      x y z
#    x 2.251890 0.000000 -0.098640 
#    y 0.000000 2.184610 0.000000 
#    z -0.098640 0.000000 2.447370 
# 
# From -- ./inp_files/288497.got.cif
#   From: 2010.05.17/outbox.cif.g08.bks.cpg/sg15_145_cif.got.tgz:288497.got - 2010.06.03 18:47:42.
