data_PCOD9256652
_publ_section_title
;
Structure prediction by ZEFSAII (Michael W. Deem and Ramdas Pophale) SiO2 
 PCOD9256652
Probable space group: C 2/C
;
_chemical_formula_sum "Si O2"
_cell_formula_units_Z 52
_cell_length_a 17.731865
_cell_length_b 17.736113
_cell_length_c 13.525994
_cell_angle_alpha 90.000000
_cell_angle_beta 42.229219
_cell_angle_gamma 90.000000
_cell_volume 2859.004528
_symmetry_space_group_name_H-M "C 2/C"
_symmetry_group_IT_number 15
_symmetry_cell_setting 'monoclinic'
loop_
_space_group_symop_operation_xyz
x,y,z
-x,y,1/2-z
-x,-y,-z
x,-y,1/2+z
1/2+x,1/2+y,z
1/2-x,1/2+y,1/2-z
1/2-x,1/2-y,-z
1/2+x,1/2-y,1/2+z
loop_
_atom_site_type_symbol
_atom_site_label
_atom_site_fract_x
_atom_site_fract_y
_atom_site_fract_z
Si Si1 0.171234 0.097360 0.031573
Si Si2 0.757730 0.375618 0.660857
Si Si3 0.472664 0.964533 0.391306
Si Si4 0.500000 0.285265 0.750000
Si Si5 0.830737 0.289554 0.266516
Si Si6 0.368121 0.494250 0.600969
Si Si7 0.346193 0.921131 0.127460
O O1 0.195437 0.091895 0.123579
O O2 0.071727 0.156920 0.115439
O O3 0.271471 0.144569 0.886183
O O4 0.146270 0.021274 0.998129
O O5 0.885264 0.403065 0.521446
O O6 0.743088 0.285693 0.675048
O O7 0.690435 0.414843 0.815647
O O8 0.500000 0.952400 0.250000
O O9 0.584101 0.961120 0.350137
O O10 0.407249 0.043363 0.473325
O O11 0.569283 0.236280 0.759606
O O12 0.858184 0.332525 0.138180
O O13 0.500000 0.500000 0.500000
O O14 0.283664 0.552537 0.740559
#
# Coordination Sequence:
#
# PCOD9256652 Si02
#       7
#     8   8   8   4   8   8   8
#     4  10  20  32  46  78 103 132 175 203 258 321
#     4  10  20  33  53  81 105 141 174 215 272 308
#     4  10  19  34  55  77 108 146 176 221 264 312
#     4  10  18  28  50  74 106 138 156 210 272 306
#     4  10  20  31  47  78 109 135 168 217 265 316
#     4  10  19  34  50  71 105 139 174 214 257 310
#     4   9  21  33  50  81 105 138 186 213 263 324
#
# _framework density 18.188148000000002
#
# number of rings (size 3 to 8) (size 9 to 14) (size 15 to 20)
#    0.000    2.154    0.000    5.538    5.385    0.000 
#    0.000    0.000    0.000    0.000   10.000   12.923 
#    0.000    0.000    0.000    0.000    0.000    0.000 
#
# Total GULP energy -144799.381742 kJ/mol
# GULP energy per Si atom -5569.206990 kJ/mol
# Density = 1.814675 g / cm^3
# Si number density = 18.188148 Si / 1000 Ang^3
#
#
#
# Elastic Constant Matrix: (Units=GPa)
#
#
# Indices 1 2 3 4 5 6 
#
# 1 49.4528 31.4405 25.3704 0.0000 -13.3664 0.0000
# 2 31.4405 89.6231 35.3448 0.0000 5.7512 0.0000
# 3 25.3704 35.3448 87.1563 0.0000 -17.6370 0.0000
# 4 0.0000 0.0000 0.0000 29.8988 0.0000 8.4818
# 5 -13.3664 5.7512 -17.6370 0.0000 23.8155 0.0000
# 6 0.0000 0.0000 0.0000 8.4818 0.0000 0.2801
#
#
#
# Elastic Compliance Matrix: (Units=1/GPa)
#
#
# Indices 1 2 3 4 5 6 
#
# 1 0.035299 -0.013895 0.000056 0.000000 0.023208 0.000000
# 2 -0.013895 0.020380 -0.007992 0.000000 -0.018638 0.000000
# 3 0.000056 -0.007992 0.017756 0.000000 0.015111 0.000000
# 4 0.000000 0.000000 0.000000 -0.004407 0.000000 0.133434
# 5 0.023208 -0.018638 0.015111 0.000000 0.070707 0.000000
# 6 0.000000 0.000000 0.000000 0.133434 0.000000 -0.470363
#
#
# Mechanical properties :
#
#
# Convention : Reuss Voigt Hill
#
# Bulk Modulus (GPa) = 33.58596 45.61597 39.60096
# Shear Modulus (GPa) = -18.04784 19.73733 0.84475
#
# Velocity S-wave (km/s) = -3.15347 3.29777 0.68224
# Velocity P-wave (km/s) = 2.29058 6.29563 4.73717
#
# Compressibility (1/GPa) = 0.02977435
#
# Stress axis : x y z
#
# Youngs Moduli (GPa) = 28.32921 49.06773 56.31830
#
# Poissons Ratio (x) = 0.68178 -0.00315
# Poissons Ratio (y) = 0.39362 0.45009
# Poissons Ratio (z) = -0.00158 0.39214
#
# Static dielectric constant tensor:
#      x y z
#    x 1.647860 0.000000 -0.021920 
#    y 0.000000 1.663740 0.000000 
#    z -0.021920 0.000000 1.867680 
# 
# From -- ./inp_files/162902.got.cif
#   From: 2010.05.17/outbox.cif.g08.bks.cpg/sg15_82_cif.got.tgz:162902.got - 2010.06.03 18:47:42.
