data_PCOD9256414
_publ_section_title
;
Structure prediction by ZEFSAII (Michael W. Deem and Ramdas Pophale) SiO2 
 PCOD9256414
Probable space group: C 2/C
;
_chemical_formula_sum "Si O2"
_cell_formula_units_Z 64
_cell_length_a 22.271750
_cell_length_b 8.143396
_cell_length_c 24.303796
_cell_angle_alpha 90.000000
_cell_angle_beta 37.376732
_cell_angle_gamma 90.000000
_cell_volume 2675.843710
_symmetry_space_group_name_H-M "C 2/C"
_symmetry_group_IT_number 15
_symmetry_cell_setting 'monoclinic'
loop_
_space_group_symop_operation_xyz
x,y,z
-x,y,1/2-z
-x,-y,-z
x,-y,1/2+z
1/2+x,1/2+y,z
1/2-x,1/2+y,1/2-z
1/2-x,1/2-y,-z
1/2+x,1/2-y,1/2+z
loop_
_atom_site_type_symbol
_atom_site_label
_atom_site_fract_x
_atom_site_fract_y
_atom_site_fract_z
Si Si1 0.905618 0.004164 0.790996
Si Si2 0.109268 0.421272 0.867321
Si Si3 0.466801 0.960683 0.393329
Si Si4 0.292707 0.142268 0.102847
Si Si5 0.441534 0.721250 0.048533
Si Si6 0.342982 0.176671 0.398744
Si Si7 0.002356 0.082104 0.118063
Si Si8 0.807385 0.020036 0.066719
O O1 0.894803 0.169979 0.832618
O O2 0.000000 0.915681 0.750000
O O3 0.800956 0.913223 0.864369
O O4 0.931379 0.021559 0.707990
O O5 0.208797 0.390352 0.830007
O O6 0.089496 0.607525 0.901782
O O7 0.068233 0.444434 0.835674
O O8 0.035909 0.279611 0.944123
O O9 0.388594 0.942618 0.502732
O O10 0.490611 0.769550 0.364799
O O11 0.410340 0.062404 0.388022
O O12 0.301218 0.336756 0.093211
O O13 0.471503 0.601336 0.076701
O O14 0.353561 0.645776 0.076788
O O15 0.250000 0.250000 0.500000
O O16 0.294454 0.072653 0.385160
O O17 0.108797 0.996584 0.041468
#
# Coordination Sequence:
#
# PCOD9256414 Si02
#       8
#     8   8   8   8   8   8   8   8
#     4  12  28  48  63  97 149 185 226 298 365 420
#     4  10  17  37  72 105 139 169 233 305 334 402
#     4  10  20  40  75 106 132 186 243 285 346 426
#     4  11  21  41  69 103 137 183 229 293 349 419
#     4  10  17  37  68 105 139 173 233 288 343 412
#     4  12  24  43  72 104 134 186 248 287 345 427
#     4  10  23  41  69 103 141 186 223 295 375 411
#     4  11  23  39  74 106 133 178 246 289 337 438
#
# _framework density 23.917688999999999
#
# number of rings (size 3 to 8) (size 9 to 14) (size 15 to 20)
#    0.000    1.250    6.250    2.625    1.750    1.000 
#    2.250    3.750    0.000    0.000    0.000    0.000 
#    0.000    0.000    0.000    0.000    0.000    0.000 
#
# Total GULP energy -178671.342562 kJ/mol
# GULP energy per Si atom -5583.479455 kJ/mol
# Density = 2.386325 g / cm^3
# Si number density = 23.917689 Si / 1000 Ang^3
#
#
#
# Elastic Constant Matrix: (Units=GPa)
#
#
# Indices 1 2 3 4 5 6 
#
# 1 203.7478 71.4405 13.6229 -0.0003 0.3837 -0.0006
# 2 71.4405 92.2571 23.1424 0.0010 10.6530 -0.0040
# 3 13.6229 23.1424 47.2653 0.0001 10.4782 -0.0001
# 4 -0.0003 0.0010 0.0001 15.3727 0.0001 8.1153
# 5 0.3837 10.6530 10.4782 0.0001 25.3222 0.0003
# 6 -0.0006 -0.0040 -0.0001 8.1153 0.0003 37.3479
#
#
#
# Elastic Compliance Matrix: (Units=1/GPa)
#
#
# Indices 1 2 3 4 5 6 
#
# 1 0.006860 -0.005636 0.000308 0.000001 0.002140 -0.000001
# 2 -0.005636 0.017194 -0.005736 -0.000002 -0.004775 0.000002
# 3 0.000308 -0.005736 0.025700 0.000000 -0.008226 -0.000001
# 4 0.000001 -0.000002 0.000000 0.073479 0.000001 -0.015966
# 5 0.002140 -0.004775 -0.008226 0.000001 0.044871 -0.000001
# 6 -0.000001 0.000002 -0.000001 -0.015966 -0.000001 0.030245
#
#
# Mechanical properties :
#
#
# Convention : Reuss Voigt Hill
#
# Bulk Modulus (GPa) = 36.19701 62.18687 49.19194
# Shear Modulus (GPa) = 21.76896 31.27952 26.52424
#
# Velocity S-wave (km/s) = 3.02016 3.62027 3.33375
# Velocity P-wave (km/s) = 5.22768 6.59788 5.95234
#
# Compressibility (1/GPa) = 0.02762659
#
# Stress axis : x y z
#
# Youngs Moduli (GPa) = 145.78023 58.16021 38.90994
#
# Poissons Ratio (x) = 0.32781 -0.01199
# Poissons Ratio (y) = 0.82165 0.22317
# Poissons Ratio (z) = -0.04493 0.33359
#
# Static dielectric constant tensor:
#      x y z
#    x 1.978290 0.000000 0.002170 
#    y 0.000000 1.884990 0.000000 
#    z 0.002170 0.000000 1.987310 
# 
# From -- ./inp_files/279565.got.cif
#   From: 2010.05.17/outbox.cif.g08.bks.cpg/sg15_140_cif.got.tgz:279565.got - 2010.06.03 18:47:42.
