data_PCOD9256476
_publ_section_title
;
Structure prediction by ZEFSAII (Michael W. Deem and Ramdas Pophale) SiO2 
 PCOD9256476
Probable space group: C 2/C
;
_chemical_formula_sum "Si O2"
_cell_formula_units_Z 52
_cell_length_a 7.891767
_cell_length_b 23.248157
_cell_length_c 20.659935
_cell_angle_alpha 90.000000
_cell_angle_beta 36.996211
_cell_angle_gamma 90.000000
_cell_volume 2280.954617
_symmetry_space_group_name_H-M "C 2/C"
_symmetry_group_IT_number 15
_symmetry_cell_setting 'monoclinic'
loop_
_space_group_symop_operation_xyz
x,y,z
-x,y,1/2-z
-x,-y,-z
x,-y,1/2+z
1/2+x,1/2+y,z
1/2-x,1/2+y,1/2-z
1/2-x,1/2-y,-z
1/2+x,1/2-y,1/2+z
loop_
_atom_site_type_symbol
_atom_site_label
_atom_site_fract_x
_atom_site_fract_y
_atom_site_fract_z
Si Si1 0.369516 0.515570 0.700133
Si Si2 0.998103 0.228169 0.172393
Si Si3 0.716119 0.374968 0.083548
Si Si4 0.273925 0.037081 0.902039
Si Si5 0.358882 0.604047 0.363960
Si Si6 0.500000 0.286860 0.250000
Si Si7 0.259869 0.340707 0.118479
O O1 0.572410 0.567638 0.656706
O O2 0.263039 0.537250 0.663762
O O3 0.528349 0.455689 0.641804
O O4 0.076219 0.510559 0.829366
O O5 0.704267 0.250635 0.233855
O O6 0.000000 0.222227 0.250000
O O7 0.051014 0.164146 0.130723
O O8 0.225712 0.279500 0.093273
O O9 0.694655 0.327056 0.145550
O O10 0.537886 0.349678 0.076990
O O11 0.023345 0.392232 0.965897
O O12 0.268689 0.104652 0.920540
O O13 0.000000 0.000000 0.000000
O O14 0.500000 0.602552 0.250000
O O15 0.000000 0.342945 0.250000
#
# Coordination Sequence:
#
# PCOD9256476 Si02
#       7
#     8   8   8   8   8   4   8
#     4  10  22  41  59  98 132 164 232 274 332 417
#     4  10  22  45  66 100 138 178 231 275 338 413
#     4  11  23  41  70  99 127 182 232 277 343 405
#     4  10  20  36  68  94 128 175 216 281 349 393
#     4  11  27  43  60  95 144 181 220 281 350 405
#     4  12  22  40  78  98 132 176 234 288 328 404
#     4  10  17  42  66  95 128 167 233 271 324 415
#
# _framework density 22.797471999999999
#
# number of rings (size 3 to 8) (size 9 to 14) (size 15 to 20)
#    0.000    1.538    6.154    0.462    5.385    4.923 
#    0.000    0.000    0.000    0.000    0.000    0.000 
#    0.000    0.000    0.000    0.000    0.000    0.000 
#
# Total GULP energy -145073.429522 kJ/mol
# GULP energy per Si atom -5579.747289 kJ/mol
# Density = 2.274558 g / cm^3
# Si number density = 22.797472 Si / 1000 Ang^3
#
#
#
# Elastic Constant Matrix: (Units=GPa)
#
#
# Indices 1 2 3 4 5 6 
#
# 1 82.9694 37.5889 28.9953 0.0000 -22.9051 0.0001
# 2 37.5889 163.2065 17.0266 0.0004 -24.8476 0.0001
# 3 28.9953 17.0266 113.2427 0.0051 -27.0046 -0.0001
# 4 0.0000 0.0004 0.0051 22.3051 -0.0005 -1.1171
# 5 -22.9051 -24.8476 -27.0046 -0.0005 29.7980 -0.0001
# 6 0.0001 0.0001 -0.0001 -1.1171 -0.0001 17.3203
#
#
#
# Elastic Compliance Matrix: (Units=1/GPa)
#
#
# Indices 1 2 3 4 5 6 
#
# 1 0.016114 -0.002154 -0.001629 0.000001 0.009114 0.000000
# 2 -0.002154 0.007323 0.000653 0.000000 0.005042 0.000000
# 3 -0.001629 0.000653 0.011457 -0.000002 0.009675 0.000000
# 4 0.000001 0.000000 -0.000002 0.044978 -0.000001 0.002901
# 5 0.009114 0.005042 0.009675 -0.000001 0.053538 0.000000
# 6 0.000000 0.000000 0.000000 0.002901 0.000000 0.057923
#
#
# Mechanical properties :
#
#
# Convention : Reuss Voigt Hill
#
# Bulk Modulus (GPa) = 34.92294 58.51558 46.71926
# Shear Modulus (GPa) = 24.13874 32.27187 28.20531
#
# Velocity S-wave (km/s) = 3.25750 3.76651 3.52122
# Velocity P-wave (km/s) = 5.43143 6.68123 6.08848
#
# Compressibility (1/GPa) = 0.02863448
#
# Stress axis : x y z
#
# Youngs Moduli (GPa) = 62.05913 136.55959 87.28576
#
# Poissons Ratio (x) = 0.29410 0.14215
# Poissons Ratio (y) = 0.13365 -0.05699
# Poissons Ratio (z) = 0.10106 -0.08916
#
# Static dielectric constant tensor:
#      x y z
#    x 1.916930 0.000000 0.143550 
#    y 0.000000 1.908400 0.000000 
#    z 0.143550 0.000000 2.212850 
# 
# From -- ./inp_files/290233.got.cif
#   From: 2010.05.17/outbox.cif.g08.bks.cpg/sg15_146_cif.got.tgz:290233.got - 2010.06.03 18:47:42.
