data_PCOD9256919
_publ_section_title
;
Structure prediction by ZEFSAII (Michael W. Deem and Ramdas Pophale) SiO2 
 PCOD9256919
Probable space group: C 2/C
;
_chemical_formula_sum "Si O2"
_cell_formula_units_Z 60
_cell_length_a 11.261737
_cell_length_b 19.251068
_cell_length_c 21.672287
_cell_angle_alpha 90.000000
_cell_angle_beta 44.855095
_cell_angle_gamma 90.000000
_cell_volume 3313.971819
_symmetry_space_group_name_H-M "C 2/C"
_symmetry_group_IT_number 15
_symmetry_cell_setting 'monoclinic'
loop_
_space_group_symop_operation_xyz
x,y,z
-x,y,1/2-z
-x,-y,-z
x,-y,1/2+z
1/2+x,1/2+y,z
1/2-x,1/2+y,1/2-z
1/2-x,1/2-y,-z
1/2+x,1/2-y,1/2+z
loop_
_atom_site_type_symbol
_atom_site_label
_atom_site_fract_x
_atom_site_fract_y
_atom_site_fract_z
Si Si1 0.974110 0.595502 0.896178
Si Si2 0.760015 0.739561 0.131527
Si Si3 0.500000 0.491187 0.250000
Si Si4 0.857096 0.114671 0.566385
Si Si5 0.292912 0.532468 0.715428
Si Si6 0.929675 0.108164 0.121875
Si Si7 0.256525 0.911013 0.589150
Si Si8 0.081404 0.744708 0.823839
O O1 0.812926 0.601541 0.910437
O O2 0.114297 0.550048 0.810997
O O3 0.053857 0.673236 0.870643
O O4 0.907092 0.568990 0.987094
O O5 0.876018 0.802046 0.066016
O O6 0.810318 0.659709 0.103962
O O7 0.593474 0.745113 0.149683
O O8 0.713369 0.757558 0.219056
O O9 0.563208 0.451391 0.286772
O O10 0.335853 0.536873 0.329801
O O11 0.830047 0.077533 0.641151
O O12 0.014217 0.090081 0.467962
O O13 0.308918 0.451373 0.691803
O O14 0.877339 0.187841 0.150722
O O15 0.099615 0.103609 0.100660
#
# Coordination Sequence:
#
# PCOD9256919 Si02
#       8
#     8   8   4   8   8   8   8   8
#     4  10  19  30  51  77 102 122 162 208 258 289
#     4   9  14  24  47  72 106 125 148 195 255 302
#     4  10  22  36  48  66 100 142 176 192 232 292
#     4  10  18  30  48  77 104 130 156 201 254 304
#     4  11  20  33  47  71 100 136 169 201 238 292
#     4   9  18  29  47  70 106 136 162 189 248 308
#     4   9  17  31  48  72  99 130 161 203 246 300
#     4   9  15  27  44  74 102 131 152 194 248 301
#
# _framework density 18.105163000000001
#
# number of rings (size 3 to 8) (size 9 to 14) (size 15 to 20)
#    0.000    2.400    1.333    4.000    0.000    3.733 
#    0.000    0.000    0.000    0.000    3.467    3.733 
#    0.000    0.267    0.000    0.000    0.000    0.000 
#
# Total GULP energy -167016.197699 kJ/mol
# GULP energy per Si atom -5567.206590 kJ/mol
# Density = 1.806396 g / cm^3
# Si number density = 18.105163 Si / 1000 Ang^3
#
#
#
# Elastic Constant Matrix: (Units=GPa)
#
#
# Indices 1 2 3 4 5 6 
#
# 1 27.2127 16.7693 7.3931 0.0013 12.3711 0.0005
# 2 16.7693 73.7840 43.9141 0.0020 -0.1490 0.0005
# 3 7.3931 43.9141 103.1896 0.0047 11.2649 0.0019
# 4 0.0013 0.0020 0.0047 17.7404 0.0002 4.0136
# 5 12.3711 -0.1490 11.2649 0.0002 17.6689 -0.0003
# 6 0.0005 0.0005 0.0019 4.0136 -0.0003 18.1313
#
#
#
# Elastic Compliance Matrix: (Units=1/GPa)
#
#
# Indices 1 2 3 4 5 6 
#
# 1 0.076372 -0.024361 0.011560 -0.000005 -0.061049 -0.000002
# 2 -0.024361 0.026424 -0.012238 0.000002 0.025082 0.000001
# 3 0.011560 -0.012238 0.016085 -0.000003 -0.018452 -0.000001
# 4 -0.000005 0.000002 -0.000003 0.059340 0.000005 -0.013136
# 5 -0.061049 0.025082 -0.018452 0.000005 0.111316 0.000004
# 6 -0.000002 0.000001 -0.000001 -0.013136 0.000004 0.058061
#
#
# Mechanical properties :
#
#
# Convention : Reuss Voigt Hill
#
# Bulk Modulus (GPa) = 14.53417 37.81547 26.17482
# Shear Modulus (GPa) = 11.88747 19.78212 15.83479
#
# Velocity S-wave (km/s) = 2.56516 3.30907 2.96057
# Velocity P-wave (km/s) = 4.10103 5.96086 5.11617
#
# Compressibility (1/GPa) = 0.06880338
#
# Stress axis : x y z
#
# Youngs Moduli (GPa) = 13.09380 37.84438 62.16933
#
# Poissons Ratio (x) = 0.92192 -0.71867
# Poissons Ratio (y) = 0.31898 0.76082
# Poissons Ratio (z) = -0.15136 0.46314
#
# Static dielectric constant tensor:
#      x y z
#    x 1.610280 0.000000 0.026540 
#    y 0.000000 1.658660 0.000000 
#    z 0.026540 0.000000 1.656240 
# 
# From -- ./inp_files/270597.got.cif
#   From: 2010.05.17/outbox.cif.g08.bks.cpg/sg15_136_cif.got.tgz:270597.got - 2010.06.03 18:47:42.
