data_PCOD9256871
_publ_section_title
;
Structure prediction by ZEFSAII (Michael W. Deem and Ramdas Pophale) SiO2 
 PCOD9256871
Probable space group: C 2/C
;
_chemical_formula_sum "Si O2"
_cell_formula_units_Z 56
_cell_length_a 13.572052
_cell_length_b 24.716086
_cell_length_c 9.810800
_cell_angle_alpha 90.000000
_cell_angle_beta 72.777723
_cell_angle_gamma 90.000000
_cell_volume 3143.455161
_symmetry_space_group_name_H-M "C 2/C"
_symmetry_group_IT_number 15
_symmetry_cell_setting 'monoclinic'
loop_
_space_group_symop_operation_xyz
x,y,z
-x,y,1/2-z
-x,-y,-z
x,-y,1/2+z
1/2+x,1/2+y,z
1/2-x,1/2+y,1/2-z
1/2-x,1/2-y,-z
1/2+x,1/2-y,1/2+z
loop_
_atom_site_type_symbol
_atom_site_label
_atom_site_fract_x
_atom_site_fract_y
_atom_site_fract_z
Si Si1 0.614058 0.734251 0.652709
Si Si2 0.944288 0.900477 0.906165
Si Si3 0.158824 0.063464 0.429876
Si Si4 0.121137 0.990663 0.204118
Si Si5 0.207517 0.816134 0.859331
Si Si6 0.617473 0.754648 0.155965
Si Si7 0.186880 0.814544 0.388186
O O1 0.500000 0.746613 0.750000
O O2 0.687788 0.786621 0.634264
O O3 0.622580 0.706094 0.502254
O O4 0.660437 0.691653 0.741634
O O5 0.886479 0.951404 0.867493
O O6 0.000000 0.873269 0.750000
O O7 0.038147 0.921045 0.959960
O O8 0.865752 0.865779 0.023562
O O9 0.166926 0.009653 0.330637
O O10 0.213714 0.118931 0.359664
O O11 0.180184 0.049133 0.578205
O O12 0.000000 0.973262 0.250000
O O13 0.172884 0.790653 0.729564
O O14 0.500000 0.761889 0.250000
O O15 0.691135 0.806641 0.142844
O O16 0.632071 0.734212 0.995719
#
# Coordination Sequence:
#
# PCOD9256871 Si02
#       7
#     8   8   8   8   8   8   8
#     4  10  20  33  48  70  97 125 161 196 224 275
#     4   9  16  28  44  65  96 124 151 189 230 276
#     4  10  18  30  46  64  92 122 149 190 234 280
#     4   9  18  29  43  65  92 120 151 186 232 282
#     4  10  21  33  47  70  98 128 157 189 238 278
#     4  10  18  31  46  67  98 126 159 197 229 273
#     4  10  19  28  48  71  89 128 167 188 230 281
#
# _framework density 17.814791
#
# number of rings (size 3 to 8) (size 9 to 14) (size 15 to 20)
#    0.000    2.571    0.000    6.429    0.000    3.429 
#    0.000    0.000    0.000    0.000    0.000    2.000 
#    0.000    0.000    0.000   11.286    0.000    0.000 
#
# Total GULP energy -155994.585246 kJ/mol
# GULP energy per Si atom -5571.235187 kJ/mol
# Density = 1.777424 g / cm^3
# Si number density = 17.814791 Si / 1000 Ang^3
#
#
#
# Elastic Constant Matrix: (Units=GPa)
#
#
# Indices 1 2 3 4 5 6 
#
# 1 44.9574 0.1070 6.2503 0.0000 -14.9175 0.0000
# 2 0.1070 20.4807 20.1626 0.0000 -0.2321 0.0000
# 3 6.2503 20.1626 81.1083 0.0000 1.7975 0.0000
# 4 0.0000 0.0000 0.0000 30.9238 0.0000 -5.5086
# 5 -14.9175 -0.2321 1.7975 0.0000 26.5690 0.0000
# 6 0.0000 0.0000 0.0000 -5.5086 0.0000 10.4250
#
#
#
# Elastic Compliance Matrix: (Units=1/GPa)
#
#
# Indices 1 2 3 4 5 6 
#
# 1 0.028000 0.003320 -0.003337 0.000000 0.015976 0.000000
# 2 0.003320 0.065114 -0.016521 0.000000 0.003551 0.000000
# 3 -0.003337 -0.016521 0.016763 0.000000 -0.003152 0.000000
# 4 0.000000 0.000000 0.000000 0.035698 0.000000 0.018863
# 5 0.015976 0.003551 -0.003152 0.000000 0.046852 0.000000
# 6 0.000000 0.000000 0.000000 0.018863 0.000000 0.105891
#
#
# Mechanical properties :
#
#
# Convention : Reuss Voigt Hill
#
# Bulk Modulus (GPa) = 13.02064 22.17623 17.59843
# Shear Modulus (GPa) = 14.00582 21.58531 17.79557
#
# Velocity S-wave (km/s) = 2.80695 3.48465 3.16400
# Velocity P-wave (km/s) = 4.22257 5.35403 4.82160
#
# Compressibility (1/GPa) = 0.07680115
#
# Stress axis : x y z
#
# Youngs Moduli (GPa) = 35.71379 15.35770 59.65463
#
# Poissons Ratio (x) = -0.05099 0.19907
# Poissons Ratio (y) = -0.11857 0.98556
# Poissons Ratio (z) = 0.11918 0.25373
#
# Static dielectric constant tensor:
#      x y z
#    x 1.612780 0.000000 0.021640 
#    y 0.000000 1.651260 0.000000 
#    z 0.021640 0.000000 1.690040 
# 
# From -- ./inp_files/43121.got.cif
#   From: 2010.05.17/outbox.cif.g08.bks.cpg/sg15_22_cif.got.tgz:43121.got - 2010.06.03 18:47:42.
