data_PCOD9256451
_publ_section_title
;
Structure prediction by ZEFSAII (Michael W. Deem and Ramdas Pophale) SiO2 
 PCOD9256451
Probable space group: C 2/C
;
_chemical_formula_sum "Si O2"
_cell_formula_units_Z 40
_cell_length_a 9.766674
_cell_length_b 10.529297
_cell_length_c 17.718165
_cell_angle_alpha 90.000000
_cell_angle_beta 105.588583
_cell_angle_gamma 90.000000
_cell_volume 1755.046218
_symmetry_space_group_name_H-M "C 2/C"
_symmetry_group_IT_number 15
_symmetry_cell_setting 'monoclinic'
loop_
_space_group_symop_operation_xyz
x,y,z
-x,y,1/2-z
-x,-y,-z
x,-y,1/2+z
1/2+x,1/2+y,z
1/2-x,1/2+y,1/2-z
1/2-x,1/2-y,-z
1/2+x,1/2-y,1/2+z
loop_
_atom_site_type_symbol
_atom_site_label
_atom_site_fract_x
_atom_site_fract_y
_atom_site_fract_z
Si Si1 0.500000 0.822308 0.250000
Si Si2 0.549858 0.390331 0.131884
Si Si3 0.290539 0.591766 0.241555
Si Si4 0.500000 0.815399 0.750000
Si Si5 0.698474 0.560615 0.430737
Si Si6 0.342132 0.851956 0.086216
O O1 0.368337 0.728153 0.248412
O O2 0.455531 0.890267 0.166288
O O3 0.608033 0.496120 0.199120
O O4 0.500363 0.272818 0.175411
O O5 0.417989 0.453784 0.069331
O O6 0.684172 0.357675 0.099786
O O7 0.264419 0.546802 0.152041
O O8 0.144967 0.607778 0.264127
O O9 0.631369 0.702939 0.427179
O O10 0.828032 0.565961 0.508573
#
# Coordination Sequence:
#
# PCOD9256451 Si02
#       6
#     4   8   8   4   8   8
#     4  10  17  39  58  84 118 162 197 251 300 348
#     4  12  20  39  65  89 124 167 204 246 308 368
#     4  11  21  38  62  92 124 160 208 252 299 370
#     4  12  23  37  62  94 124 166 201 253 304 356
#     4  10  19  36  61  95 121 159 210 248 303 367
#     4  10  21  34  65  92 120 163 206 252 304 361
#
# _framework density 22.791423999999999
#
# number of rings (size 3 to 8) (size 9 to 14) (size 15 to 20)
#    0.000    1.200   10.000    0.600    0.000    0.800 
#    0.000    0.000    0.000   19.200    0.000    0.000 
#    0.000    0.000    0.000    0.000    0.000    0.000 
#
# Total GULP energy -111847.496380 kJ/mol
# GULP energy per Si atom -5592.374819 kJ/mol
# Density = 2.273955 g / cm^3
# Si number density = 22.791424 Si / 1000 Ang^3
#
#
#
# Elastic Constant Matrix: (Units=GPa)
#
#
# Indices 1 2 3 4 5 6 
#
# 1 91.6717 6.2222 12.5793 0.0000 -0.7291 0.0000
# 2 6.2222 35.5267 7.8084 0.0000 8.7788 0.0000
# 3 12.5793 7.8084 136.3149 0.0000 25.4665 0.0000
# 4 0.0000 0.0000 0.0000 11.9695 0.0000 0.2356
# 5 -0.7291 8.7788 25.4665 0.0000 34.6211 0.0000
# 6 0.0000 0.0000 0.0000 0.2356 0.0000 34.1784
#
#
#
# Elastic Compliance Matrix: (Units=1/GPa)
#
#
# Indices 1 2 3 4 5 6 
#
# 1 0.011234 -0.002112 -0.001229 0.000000 0.001676 0.000000
# 2 -0.002112 0.030440 -0.000114 0.000000 -0.007679 0.000000
# 3 -0.001229 -0.000114 0.008643 0.000000 -0.006355 0.000000
# 4 0.000000 0.000000 0.000000 0.083557 0.000000 -0.000576
# 5 0.001676 -0.007679 -0.006355 0.000000 0.035541 0.000000
# 6 0.000000 0.000000 0.000000 -0.000576 0.000000 0.029262
#
#
# Mechanical properties :
#
#
# Convention : Reuss Voigt Hill
#
# Bulk Modulus (GPa) = 23.03722 35.19258 29.11490
# Shear Modulus (GPa) = 22.72151 31.94737 27.33444
#
# Velocity S-wave (km/s) = 3.16085 3.74803 3.46689
# Velocity P-wave (km/s) = 4.84263 5.84850 5.36917
#
# Compressibility (1/GPa) = 0.04340801
#
# Stress axis : x y z
#
# Youngs Moduli (GPa) = 89.01738 32.85120 115.69980
#
# Poissons Ratio (x) = 0.06937 0.14217
# Poissons Ratio (y) = 0.18796 0.01321
# Poissons Ratio (z) = 0.10938 0.00375
#
# Static dielectric constant tensor:
#      x y z
#    x 1.837660 0.000000 0.002100 
#    y 0.000000 1.872580 0.000000 
#    z 0.002100 0.000000 1.900100 
# 
# From -- ./inp_files/187844.got.cif
#   From: 2010.05.17/outbox.cif.g08.bks.cpg/sg15_94_cif.got.tgz:187844.got - 2010.06.03 18:47:42.
