data_PCOD9256329
_publ_section_title
;
Structure prediction by ZEFSAII (Michael W. Deem and Ramdas Pophale) SiO2 
 PCOD9256329
Probable space group: C 2/C
;
_chemical_formula_sum "Si O2"
_cell_formula_units_Z 48
_cell_length_a 15.052790
_cell_length_b 11.641773
_cell_length_c 32.807328
_cell_angle_alpha 90.000000
_cell_angle_beta 155.493293
_cell_angle_gamma 90.000000
_cell_volume 2384.764433
_symmetry_space_group_name_H-M "C 2/C"
_symmetry_group_IT_number 15
_symmetry_cell_setting 'monoclinic'
loop_
_space_group_symop_operation_xyz
x,y,z
-x,y,1/2-z
-x,-y,-z
x,-y,1/2+z
1/2+x,1/2+y,z
1/2-x,1/2+y,1/2-z
1/2-x,1/2-y,-z
1/2+x,1/2-y,1/2+z
loop_
_atom_site_type_symbol
_atom_site_label
_atom_site_fract_x
_atom_site_fract_y
_atom_site_fract_z
Si Si1 0.207513 0.469426 0.867292
Si Si2 0.219708 0.206286 0.890525
Si Si3 0.327807 0.876445 0.519689
Si Si4 0.564632 0.477157 0.614970
Si Si5 0.951900 0.465868 0.333911
Si Si6 0.707760 0.788329 0.171079
O O1 0.258681 0.343283 0.905794
O O2 0.385015 0.515756 0.910459
O O3 0.000000 0.454509 0.750000
O O4 0.134627 0.543301 0.875496
O O5 0.338613 0.137029 0.975623
O O6 0.291289 0.169167 0.875295
O O7 0.960761 0.200804 0.788174
O O8 0.250000 0.750000 0.500000
O O9 0.526169 0.917660 0.629989
O O10 0.157431 0.974522 0.461279
O O11 0.738189 0.529347 0.718087
O O12 0.616881 0.341232 0.635554
O O13 0.933249 0.364098 0.357916
#
# Coordination Sequence:
#
# PCOD9256329 Si02
#       6
#     8   8   8   8   8   8
#     4   9  16  35  59  86 108 154 198 234 287 340
#     4  10  17  36  60  85 112 155 203 223 288 357
#     4  12  23  36  62  93 113 149 202 243 286 343
#     4  10  21  38  62  84 120 150 191 248 286 340
#     4  11  21  35  61  87 117 149 196 238 293 339
#     4  10  19  37  62  80 117 165 189 234 292 346
#
# _framework density 20.127773000000001
#
# number of rings (size 3 to 8) (size 9 to 14) (size 15 to 20)
#    0.000    1.667    8.333    0.000    0.000    2.000 
#    0.000    0.000    3.667    0.000    0.000    0.000 
#    0.000    0.000    0.000    0.000    0.000    0.000 
#
# Total GULP energy -133846.203135 kJ/mol
# GULP energy per Si atom -5576.925131 kJ/mol
# Density = 2.008196 g / cm^3
# Si number density = 20.127773 Si / 1000 Ang^3
#
#
#
# Elastic Constant Matrix: (Units=GPa)
#
#
# Indices 1 2 3 4 5 6 
#
# 1 147.1484 55.9715 33.2375 -0.0005 -29.3700 -0.0004
# 2 55.9715 60.9240 4.2998 -0.0001 -10.0001 -0.0003
# 3 33.2375 4.2998 53.5255 -0.0058 -14.3057 -0.0004
# 4 -0.0005 -0.0001 -0.0058 16.7204 -0.0010 -2.2550
# 5 -29.3700 -10.0001 -14.3057 -0.0010 29.5285 -0.0001
# 6 -0.0004 -0.0003 -0.0004 -2.2550 -0.0001 43.1945
#
#
#
# Elastic Compliance Matrix: (Units=1/GPa)
#
#
# Indices 1 2 3 4 5 6 
#
# 1 0.013698 -0.011011 -0.005717 -0.000001 0.007126 0.000000
# 2 -0.011011 0.026233 0.004799 0.000002 0.000257 0.000000
# 3 -0.005717 0.004799 0.023850 0.000009 0.007494 0.000001
# 4 -0.000001 0.000002 0.000009 0.060231 0.000005 0.003144
# 5 0.007126 0.000257 0.007494 0.000005 0.044670 0.000001
# 6 0.000000 0.000000 0.000001 0.003144 0.000001 0.023315
#
#
# Mechanical properties :
#
#
# Convention : Reuss Voigt Hill
#
# Bulk Modulus (GPa) = 25.04832 49.84618 37.44725
# Shear Modulus (GPa) = 21.81841 29.09461 25.45651
#
# Velocity S-wave (km/s) = 3.29598 3.80609 3.56018
# Velocity P-wave (km/s) = 5.19195 6.64332 5.96197
#
# Compressibility (1/GPa) = 0.03992284
#
# Stress axis : x y z
#
# Youngs Moduli (GPa) = 73.00455 38.11922 41.92882
#
# Poissons Ratio (x) = 0.41974 0.23970
# Poissons Ratio (y) = 0.80387 -0.20121
# Poissons Ratio (z) = 0.41736 -0.18293
#
# Static dielectric constant tensor:
#      x y z
#    x 1.741980 0.000000 -0.003600 
#    y 0.000000 1.685550 0.000000 
#    z -0.003600 0.000000 1.806570 
# 
# From -- ./inp_files/152009.got.cif
#   From: 2010.05.17/outbox.cif.g08.bks.cpg/sg15_77_cif.got.tgz:152009.got - 2010.06.03 18:47:42.
