data_PCOD9256156
_publ_section_title
;
Structure prediction by ZEFSAII (Michael W. Deem and Ramdas Pophale) SiO2 
 PCOD9256156
Probable space group: C 2/C
;
_chemical_formula_sum "Si O2"
_cell_formula_units_Z 48
_cell_length_a 20.165471
_cell_length_b 7.055335
_cell_length_c 19.231585
_cell_angle_alpha 90.000000
_cell_angle_beta 41.768579
_cell_angle_gamma 90.000000
_cell_volume 1822.618932
_symmetry_space_group_name_H-M "C 2/C"
_symmetry_group_IT_number 15
_symmetry_cell_setting 'monoclinic'
loop_
_space_group_symop_operation_xyz
x,y,z
-x,y,1/2-z
-x,-y,-z
x,-y,1/2+z
1/2+x,1/2+y,z
1/2-x,1/2+y,1/2-z
1/2-x,1/2-y,-z
1/2+x,1/2-y,1/2+z
loop_
_atom_site_type_symbol
_atom_site_label
_atom_site_fract_x
_atom_site_fract_y
_atom_site_fract_z
Si Si1 0.413146 0.878133 0.105453
Si Si2 0.726079 0.157697 0.668246
Si Si3 0.948091 0.938426 0.970859
Si Si4 0.778329 0.565341 0.585590
Si Si5 0.605142 0.888744 0.132207
Si Si6 0.598444 0.430779 0.132324
O O1 0.334671 0.949007 0.224421
O O2 0.336697 0.827454 0.101826
O O3 0.474952 0.731256 0.106461
O O4 0.500000 0.000000 0.000000
O O5 0.842772 0.132885 0.579497
O O6 0.720318 0.388026 0.668341
O O7 0.688951 0.077029 0.624252
O O8 0.928521 0.095467 0.927499
O O9 0.000000 0.000000 0.000000
O O10 0.859708 0.484956 0.466522
O O11 0.692259 0.647191 0.602007
O O12 0.500000 0.939076 0.250000
O O13 0.607901 0.660645 0.121860
O O14 0.500000 0.377679 0.250000
#
# Coordination Sequence:
#
# PCOD9256156 Si02
#       6
#     8   8   8   8   8   8
#     4  12  25  42  64 101 136 169 222 277 331 394
#     4  11  22  38  64  95 130 169 213 273 332 384
#     4  12  25  41  63  96 131 172 218 268 331 402
#     4  11  20  39  65  97 126 168 219 276 325 384
#     4  10  17  34  63  93 122 161 218 274 317 378
#     4  10  19  36  61  89 122 168 217 265 319 384
#
# _framework density 26.335730999999999
#
# number of rings (size 3 to 8) (size 9 to 14) (size 15 to 20)
#    0.000    1.000    5.000    5.000    4.667    0.000 
#    0.000    0.833    0.000    1.000    0.000    0.000 
#    0.000    0.000    0.000    0.000    0.000    0.000 
#
# Total GULP energy -134040.631260 kJ/mol
# GULP energy per Si atom -5585.026302 kJ/mol
# Density = 2.627579 g / cm^3
# Si number density = 26.335731 Si / 1000 Ang^3
#
#
#
# Elastic Constant Matrix: (Units=GPa)
#
#
# Indices 1 2 3 4 5 6 
#
# 1 229.2095 14.8448 30.7720 0.0000 -9.3818 -0.0001
# 2 14.8448 74.8783 8.4075 -0.0005 2.0313 -0.0003
# 3 30.7720 8.4075 155.0356 -0.0002 -6.6368 0.0001
# 4 0.0000 -0.0005 -0.0002 14.1422 0.0001 10.5921
# 5 -9.3818 2.0313 -6.6368 0.0001 57.4771 -0.0001
# 6 -0.0001 -0.0003 0.0001 10.5921 -0.0001 16.4314
#
#
#
# Elastic Compliance Matrix: (Units=1/GPa)
#
#
# Indices 1 2 3 4 5 6 
#
# 1 0.004556 -0.000828 -0.000830 0.000000 0.000677 0.000000
# 2 -0.000828 0.013606 -0.000603 0.000000 -0.000686 0.000000
# 3 -0.000830 -0.000603 0.006676 0.000000 0.000657 0.000000
# 4 0.000000 0.000000 0.000000 0.136719 0.000000 -0.088132
# 5 0.000677 -0.000686 0.000657 0.000000 0.017609 0.000000
# 6 0.000000 0.000000 0.000000 -0.088132 0.000000 0.117672
#
#
# Mechanical properties :
#
#
# Convention : Reuss Voigt Hill
#
# Bulk Modulus (GPa) = 49.22689 63.01911 56.12300
# Shear Modulus (GPa) = 16.22690 44.61674 30.42182
#
# Velocity S-wave (km/s) = 2.48494 4.12047 3.40244
# Velocity P-wave (km/s) = 5.19287 6.82780 6.06567
#
# Compressibility (1/GPa) = 0.02031410
#
# Stress axis : x y z
#
# Youngs Moduli (GPa) = 219.50767 73.49966 149.79629
#
# Poissons Ratio (x) = 0.06088 0.12438
# Poissons Ratio (y) = 0.18182 0.09029
# Poissons Ratio (z) = 0.18226 0.04430
#
# Static dielectric constant tensor:
#      x y z
#    x 2.123920 0.000010 0.104020 
#    y 0.000010 0.880380 0.000020 
#    z 0.104020 0.000020 2.054570 
# 
# From -- ./inp_files/210174.got.cif
#   From: 2010.05.17/outbox.cif.g08.bks.cpg/sg15_106_cif.got.tgz:210174.got - 2010.06.03 18:47:42.
