data_PCOD9256924
_publ_section_title
;
Structure prediction by ZEFSAII (Michael W. Deem and Ramdas Pophale) SiO2 
 PCOD9256924
Probable space group: C 2/C
;
_chemical_formula_sum "Si O2"
_cell_formula_units_Z 56
_cell_length_a 32.041848
_cell_length_b 15.351664
_cell_length_c 11.295984
_cell_angle_alpha 90.000000
_cell_angle_beta 36.913683
_cell_angle_gamma 90.000000
_cell_volume 3337.263477
_symmetry_space_group_name_H-M "C 2/C"
_symmetry_group_IT_number 15
_symmetry_cell_setting 'monoclinic'
loop_
_space_group_symop_operation_xyz
x,y,z
-x,y,1/2-z
-x,-y,-z
x,-y,1/2+z
1/2+x,1/2+y,z
1/2-x,1/2+y,1/2-z
1/2-x,1/2-y,-z
1/2+x,1/2-y,1/2+z
loop_
_atom_site_type_symbol
_atom_site_label
_atom_site_fract_x
_atom_site_fract_y
_atom_site_fract_z
Si Si1 0.069059 0.010107 0.032774
Si Si2 0.963852 0.191730 0.949603
Si Si3 0.403194 0.344372 0.204745
Si Si4 0.276001 0.617528 0.171858
Si Si5 0.687082 0.682628 0.156072
Si Si6 0.797276 0.768149 0.278753
Si Si7 0.698184 0.429510 0.395014
O O1 0.129764 0.030758 0.987663
O O2 0.000000 0.046753 0.250000
O O3 0.054921 0.909264 0.038003
O O4 0.084954 0.059926 0.875778
O O5 0.000000 0.229785 0.750000
O O6 0.024565 0.190631 0.908838
O O7 0.888565 0.227796 0.156590
O O8 0.343947 0.353678 0.440268
O O9 0.372074 0.288269 0.166596
O O10 0.215088 0.684919 0.275733
O O11 0.250000 0.750000 0.000000
O O12 0.257517 0.517241 0.187040
O O13 0.704668 0.629734 0.235284
O O14 0.684064 0.619350 0.049738
O O15 0.750000 0.750000 0.000000
O O16 0.775527 0.854827 0.255304
#
# Coordination Sequence:
#
# PCOD9256924 Si02
#       7
#     8   8   8   8   8   8   8
#     4  10  18  30  48  81 112 146 181 212 258 347
#     4  11  19  32  51  79 110 150 181 220 275 341
#     4  10  19  33  53  74 112 150 184 218 273 336
#     4  11  20  37  52  79 114 148 195 228 279 333
#     4  12  23  36  54  81 121 143 190 241 271 334
#     4   9  21  35  52  77 113 147 192 232 269 340
#     4  11  21  33  54  78 110 158 181 225 285 322
#
# _framework density 16.780214999999998
#
# number of rings (size 3 to 8) (size 9 to 14) (size 15 to 20)
#    0.000    1.429    4.286    3.000    4.000    0.000 
#    0.000    0.000    0.000    0.000    0.000    1.000 
#    8.571    0.000    0.000    0.000    0.000    0.000 
#
# Total GULP energy -156072.744873 kJ/mol
# GULP energy per Si atom -5574.026603 kJ/mol
# Density = 1.674202 g / cm^3
# Si number density = 16.780215 Si / 1000 Ang^3
#
#
#
# Elastic Constant Matrix: (Units=GPa)
#
#
# Indices 1 2 3 4 5 6 
#
# 1 87.0455 28.4336 26.5902 0.0000 -0.0917 0.0000
# 2 28.4336 74.4303 32.4582 0.0000 -9.8854 0.0000
# 3 26.5902 32.4582 77.3559 0.0000 -3.1345 0.0000
# 4 0.0000 0.0000 0.0000 23.6955 0.0000 1.0936
# 5 -0.0917 -9.8854 -3.1345 0.0000 25.9760 0.0000
# 6 0.0000 0.0000 0.0000 1.0936 0.0000 20.2534
#
#
#
# Elastic Compliance Matrix: (Units=1/GPa)
#
#
# Indices 1 2 3 4 5 6 
#
# 1 0.013789 -0.004187 -0.003060 0.000000 -0.001914 0.000000
# 2 -0.004187 0.018522 -0.006077 0.000000 0.006301 0.000000
# 3 -0.003060 -0.006077 0.016516 0.000000 -0.000331 0.000000
# 4 0.000000 0.000000 0.000000 0.042308 0.000000 -0.002284
# 5 -0.001914 0.006301 -0.000331 0.000000 0.040848 0.000000
# 6 0.000000 0.000000 0.000000 -0.002284 0.000000 0.049498
#
#
# Mechanical properties :
#
#
# Convention : Reuss Voigt Hill
#
# Bulk Modulus (GPa) = 45.09146 45.97730 45.53438
# Shear Modulus (GPa) = 23.19950 24.07495 23.63722
#
# Velocity S-wave (km/s) = 3.72230 3.79188 3.75725
# Velocity P-wave (km/s) = 6.73826 6.82864 6.78360
#
# Compressibility (1/GPa) = 0.02217715
#
# Stress axis : x y z
#
# Youngs Moduli (GPa) = 72.52230 53.99001 60.54818
#
# Poissons Ratio (x) = 0.22607 0.18530
# Poissons Ratio (y) = 0.30366 0.36796
# Poissons Ratio (z) = 0.22195 0.32810
#
# Static dielectric constant tensor:
#      x y z
#    x 1.606730 0.000000 0.011480 
#    y 0.000000 1.582050 0.000000 
#    z 0.011480 0.000000 1.628660 
# 
# From -- ./inp_files/123318.got.cif
#   From: 2010.05.17/outbox.cif.g08.bks.cpg/sg15_62_cif.got.tgz:123318.got - 2010.06.03 18:47:42.
