data_PCOD9256424
_publ_section_title
;
Structure prediction by ZEFSAII (Michael W. Deem and Ramdas Pophale) SiO2 
 PCOD9256424
Probable space group: C 2/C
;
_chemical_formula_sum "Si O2"
_cell_formula_units_Z 44
_cell_length_a 8.376494
_cell_length_b 17.949412
_cell_length_c 13.374480
_cell_angle_alpha 90.000000
_cell_angle_beta 104.357968
_cell_angle_gamma 90.000000
_cell_volume 1948.085462
_symmetry_space_group_name_H-M "C 2/C"
_symmetry_group_IT_number 15
_symmetry_cell_setting 'monoclinic'
loop_
_space_group_symop_operation_xyz
x,y,z
-x,y,1/2-z
-x,-y,-z
x,-y,1/2+z
1/2+x,1/2+y,z
1/2-x,1/2+y,1/2-z
1/2-x,1/2-y,-z
1/2+x,1/2-y,1/2+z
loop_
_atom_site_type_symbol
_atom_site_label
_atom_site_fract_x
_atom_site_fract_y
_atom_site_fract_z
Si Si1 0.512678 0.114421 0.062237
Si Si2 0.165298 0.069870 0.311932
Si Si3 0.651962 0.991161 0.332703
Si Si4 0.500000 0.773518 0.750000
Si Si5 0.002792 0.943472 0.091941
Si Si6 0.735793 0.312713 0.413849
O O1 0.708403 0.100148 0.085904
O O2 0.419847 0.038570 0.085480
O O3 0.509202 0.174343 0.153219
O O4 0.410854 0.144390 0.951356
O O5 0.271054 0.054468 0.229080
O O6 0.000000 0.112155 0.250000
O O7 0.098841 0.991189 0.342621
O O8 0.500000 0.957366 0.250000
O O9 0.802613 0.934658 0.363187
O O10 0.340514 0.721769 0.699569
O O11 0.904317 0.868409 0.066894
O O12 0.000000 0.000000 0.000000
O O13 0.750000 0.250000 0.500000
#
# Coordination Sequence:
#
# PCOD9256424 Si02
#       6
#     8   8   8   4   8   8
#     4  10  17  38  60  89 109 159 204 247 301 363
#     4   9  19  31  59  89 115 149 195 251 302 352
#     4   9  17  34  58  86 117 147 194 252 299 351
#     4  10  20  36  60  80 120 158 202 250 296 382
#     4  11  21  36  56  92 122 151 200 265 297 343
#     4  10  23  36  58  87 118 161 202 239 303 384
#
# _framework density 22.586276999999999
#
# number of rings (size 3 to 8) (size 9 to 14) (size 15 to 20)
#    0.000    2.182    4.545    0.000    3.818    0.727 
#    0.000    0.000    0.000   14.182    0.000    0.000 
#    0.000    0.000    0.000    0.000    0.000    0.000 
#
# Total GULP energy -122552.840226 kJ/mol
# GULP energy per Si atom -5570.583647 kJ/mol
# Density = 2.253487 g / cm^3
# Si number density = 22.586277 Si / 1000 Ang^3
#
#
#
# Elastic Constant Matrix: (Units=GPa)
#
#
# Indices 1 2 3 4 5 6 
#
# 1 127.4695 34.5452 51.1062 0.0000 57.4717 0.0000
# 2 34.5452 83.6266 35.5142 0.0000 24.2475 0.0000
# 3 51.1062 35.5142 95.6816 0.0000 37.2711 0.0000
# 4 0.0000 0.0000 0.0000 34.8643 0.0000 19.0034
# 5 57.4717 24.2475 37.2711 0.0000 66.3112 0.0000
# 6 0.0000 0.0000 0.0000 19.0034 0.0000 12.0580
#
#
#
# Elastic Compliance Matrix: (Units=1/GPa)
#
#
# Indices 1 2 3 4 5 6 
#
# 1 0.013892 -0.001631 -0.003018 0.000000 -0.009747 0.000000
# 2 -0.001631 0.014822 -0.003930 0.000000 -0.001797 0.000000
# 3 -0.003018 -0.003930 0.015291 0.000000 -0.004542 0.000000
# 4 0.000000 0.000000 0.000000 0.203463 0.000000 -0.320658
# 5 -0.009747 -0.001797 -0.004542 0.000000 0.026739 0.000000
# 6 0.000000 0.000000 0.000000 -0.320658 0.000000 0.588290
#
#
# Mechanical properties :
#
#
# Convention : Reuss Voigt Hill
#
# Bulk Modulus (GPa) = 37.24763 61.01209 49.12986
# Shear Modulus (GPa) = 5.62681 35.02083 20.32382
#
# Velocity S-wave (km/s) = 1.58008 3.94196 3.00297
# Velocity P-wave (km/s) = 4.45600 6.91305 5.81576
#
# Compressibility (1/GPa) = 0.02684734
#
# Stress axis : x y z
#
# Youngs Moduli (GPa) = 71.98597 67.46832 65.39691
#
# Poissons Ratio (x) = 0.11002 0.19735
# Poissons Ratio (y) = 0.11738 0.25703
# Poissons Ratio (z) = 0.21723 0.26517
#
# Static dielectric constant tensor:
#      x y z
#    x 1.891250 0.000000 0.057980 
#    y 0.000000 1.869750 0.000000 
#    z 0.057980 0.000000 1.939660 
# 
# From -- ./inp_files/190033.got.cif
#   From: 2010.05.17/outbox.cif.g08.bks.cpg/sg15_96_cif.got.tgz:190033.got - 2010.06.03 18:47:42.
