data_PCOD9256262
_publ_section_title
;
Structure prediction by ZEFSAII (Michael W. Deem and Ramdas Pophale) SiO2 
 PCOD9256262
Probable space group: C 2/C
;
_chemical_formula_sum "Si O2"
_cell_formula_units_Z 64
_cell_length_a 14.424003
_cell_length_b 14.469168
_cell_length_c 16.363173
_cell_angle_alpha 90.000000
_cell_angle_beta 53.982243
_cell_angle_gamma 90.000000
_cell_volume 2762.210097
_symmetry_space_group_name_H-M "C 2/C"
_symmetry_group_IT_number 15
_symmetry_cell_setting 'monoclinic'
loop_
_space_group_symop_operation_xyz
x,y,z
-x,y,1/2-z
-x,-y,-z
x,-y,1/2+z
1/2+x,1/2+y,z
1/2-x,1/2+y,1/2-z
1/2-x,1/2-y,-z
1/2+x,1/2-y,1/2+z
loop_
_atom_site_type_symbol
_atom_site_label
_atom_site_fract_x
_atom_site_fract_y
_atom_site_fract_z
Si Si1 0.197899 0.455194 0.379881
Si Si2 0.260990 0.357283 0.820938
Si Si3 0.829968 0.805195 0.226505
Si Si4 0.490574 0.841141 0.465917
Si Si5 0.124521 0.793607 0.584998
Si Si6 0.577030 0.250587 0.087214
Si Si7 0.619600 0.445727 0.449477
Si Si8 0.241640 0.591098 0.034664
O O1 0.266235 0.535477 0.297538
O O2 0.268018 0.362489 0.326974
O O3 0.070846 0.430617 0.413489
O O4 0.203968 0.467576 0.474302
O O5 0.246134 0.282349 0.759081
O O6 0.360915 0.325843 0.829798
O O7 0.136127 0.358802 0.931729
O O8 0.848810 0.873093 0.138436
O O9 0.953850 0.771110 0.187299
O O10 0.467991 0.782030 0.396139
O O11 0.551375 0.783576 0.507231
O O12 0.250000 0.750000 0.500000
O O13 0.107423 0.882117 0.536403
O O14 0.643014 0.167449 0.097910
O O15 0.649837 0.343872 0.042671
O O16 0.500000 0.500000 0.500000
O O17 0.719415 0.520369 0.415900
#
# Coordination Sequence:
#
# PCOD9256262 Si02
#       8
#     8   8   8   8   8   8   8   8
#     4  11  23  38  60  92 123 164 206 264 321 372
#     4  10  20  40  62  88 118 166 215 255 305 395
#     4  11  23  41  59  89 137 156 199 275 332 353
#     4   9  18  36  65  87 116 161 208 251 306 377
#     4  10  17  35  65  90 113 153 206 252 297 354
#     4   9  18  38  56  87 118 160 199 253 300 377
#     4  12  20  37  65  93 123 163 211 257 304 382
#     4  10  20  35  64  89 116 161 223 241 297 389
#
# _framework density 23.169851999999999
#
# number of rings (size 3 to 8) (size 9 to 14) (size 15 to 20)
#    0.000    1.750    6.250    0.375    0.000    0.500 
#    9.000    0.625    0.000    0.000    0.000    0.000 
#    0.000    0.000    0.000    0.000    0.000    0.000 
#
# Total GULP energy -178850.775439 kJ/mol
# GULP energy per Si atom -5589.086732 kJ/mol
# Density = 2.311712 g / cm^3
# Si number density = 23.169852 Si / 1000 Ang^3
#
#
#
# Elastic Constant Matrix: (Units=GPa)
#
#
# Indices 1 2 3 4 5 6 
#
# 1 139.7782 45.6842 16.0729 0.0000 6.5197 0.0000
# 2 45.6842 107.4613 -0.0252 0.0000 11.8093 0.0000
# 3 16.0729 -0.0252 28.1683 0.0000 1.2858 0.0000
# 4 0.0000 0.0000 0.0000 25.0456 0.0000 6.8187
# 5 6.5197 11.8093 1.2858 0.0000 26.5859 0.0000
# 6 0.0000 0.0000 0.0000 6.8187 0.0000 60.4659
#
#
#
# Elastic Compliance Matrix: (Units=1/GPa)
#
#
# Indices 1 2 3 4 5 6 
#
# 1 0.008997 -0.003796 -0.005125 0.000000 -0.000272 0.000000
# 2 -0.003796 0.011386 0.002370 0.000000 -0.004241 0.000000
# 3 -0.005125 0.002370 0.038503 0.000000 -0.001658 0.000000
# 4 0.000000 0.000000 0.000000 0.041192 0.000000 -0.004645
# 5 -0.000272 -0.004241 -0.001658 0.000000 0.039645 0.000000
# 6 0.000000 0.000000 0.000000 -0.004645 0.000000 0.017062
#
#
# Mechanical properties :
#
#
# Convention : Reuss Voigt Hill
#
# Bulk Modulus (GPa) = 21.84161 44.31905 33.08033
# Shear Modulus (GPa) = 27.00549 36.66455 31.83502
#
# Velocity S-wave (km/s) = 3.41771 3.98229 3.71075
# Velocity P-wave (km/s) = 5.00215 6.34935 5.71558
#
# Compressibility (1/GPa) = 0.04578417
#
# Stress axis : x y z
#
# Youngs Moduli (GPa) = 111.15027 87.82636 25.97211
#
# Poissons Ratio (x) = 0.33339 0.13310
# Poissons Ratio (y) = 0.42193 -0.06155
# Poissons Ratio (z) = 0.56960 -0.20813
#
# Static dielectric constant tensor:
#      x y z
#    x 1.881110 0.000000 -0.020350 
#    y 0.000000 2.169090 0.000000 
#    z -0.020350 0.000000 1.896140 
# 
# From -- ./inp_files/205416.got.cif
#   From: 2010.05.17/outbox.cif.g08.bks.cpg/sg15_103_cif.got.tgz:205416.got - 2010.06.03 18:47:42.
