data_PCOD9256286
_publ_section_title
;
Structure prediction by ZEFSAII (Michael W. Deem and Ramdas Pophale) SiO2 
 PCOD9256286
Probable space group: C 2/C
;
_chemical_formula_sum "Si O2"
_cell_formula_units_Z 64
_cell_length_a 9.115417
_cell_length_b 21.684881
_cell_length_c 23.149334
_cell_angle_alpha 90.000000
_cell_angle_beta 50.643456
_cell_angle_gamma 90.000000
_cell_volume 3538.117262
_symmetry_space_group_name_H-M "C 2/C"
_symmetry_group_IT_number 15
_symmetry_cell_setting 'monoclinic'
loop_
_space_group_symop_operation_xyz
x,y,z
-x,y,1/2-z
-x,-y,-z
x,-y,1/2+z
1/2+x,1/2+y,z
1/2-x,1/2+y,1/2-z
1/2-x,1/2-y,-z
1/2+x,1/2-y,1/2+z
loop_
_atom_site_type_symbol
_atom_site_label
_atom_site_fract_x
_atom_site_fract_y
_atom_site_fract_z
Si Si1 0.619088 0.207156 0.478811
Si Si2 0.893097 0.183734 0.064016
Si Si3 0.832817 0.911256 0.958204
Si Si4 0.192378 0.065930 0.170958
Si Si5 0.735416 0.347543 0.029613
Si Si6 0.457095 0.269598 0.326599
Si Si7 0.088415 0.479757 0.539152
Si Si8 0.209650 0.211636 0.181504
O O1 0.550775 0.263385 0.534736
O O2 0.683039 0.145196 0.494386
O O3 0.434403 0.187524 0.487274
O O4 0.762041 0.226256 0.392973
O O5 0.699021 0.214130 0.134671
O O6 0.971606 0.120031 0.070049
O O7 0.871180 0.175172 0.000826
O O8 0.851250 0.931718 0.886851
O O9 0.737198 0.966439 0.018150
O O10 0.399543 0.033186 0.124873
O O11 0.221872 0.136986 0.183378
O O12 0.000000 0.042070 0.250000
O O13 0.623875 0.326440 0.114850
O O14 0.793518 0.417841 0.003270
O O15 0.500000 0.286692 0.250000
O O16 0.638021 0.243528 0.315505
O O17 0.000000 0.500000 0.500000
O O18 0.000000 0.230995 0.250000
#
# Coordination Sequence:
#
# PCOD9256286 Si02
#       8
#     8   8   8   8   8   8   8   8
#     4  10  17  36  56  78 113 148 186 224 285 338
#     4  11  21  35  59  85 120 144 186 242 292 337
#     4  10  21  33  56  91 107 149 198 238 271 332
#     4   9  18  32  57  81 114 147 193 236 289 325
#     4  11  19  39  59  79 113 156 184 233 291 339
#     4  11  23  35  54  90 117 148 186 234 298 345
#     4  10  18  37  60  79 111 150 203 237 265 344
#     4  10  18  33  54  80 113 148 184 228 287 346
#
# _framework density 18.088718
#
# number of rings (size 3 to 8) (size 9 to 14) (size 15 to 20)
#    0.000    1.750    6.250    1.125    5.250    0.500 
#    0.000    2.500    0.000    0.000    0.000    0.000 
#    0.000    0.000    0.000    0.000    0.000    0.000 
#
# Total GULP energy -178257.214298 kJ/mol
# GULP energy per Si atom -5570.537947 kJ/mol
# Density = 1.804755 g / cm^3
# Si number density = 18.088718 Si / 1000 Ang^3
#
#
#
# Elastic Constant Matrix: (Units=GPa)
#
#
# Indices 1 2 3 4 5 6 
#
# 1 56.3926 36.6760 39.0427 0.0000 -8.7603 0.0000
# 2 36.6760 85.4184 47.5871 0.0000 -12.4034 0.0000
# 3 39.0427 47.5871 125.1657 0.0000 -16.4459 0.0000
# 4 0.0000 0.0000 0.0000 18.4722 0.0000 -5.2474
# 5 -8.7603 -12.4034 -16.4459 0.0000 32.2427 0.0000
# 6 0.0000 0.0000 0.0000 -5.2474 0.0000 29.2897
#
#
#
# Elastic Compliance Matrix: (Units=1/GPa)
#
#
# Indices 1 2 3 4 5 6 
#
# 1 0.026995 -0.008617 -0.004948 0.000000 0.001496 0.000000
# 2 -0.008617 0.017887 -0.003768 0.000000 0.002617 0.000000
# 3 -0.004948 -0.003768 0.011360 0.000000 0.003000 0.000000
# 4 0.000000 0.000000 0.000000 0.057038 0.000000 0.010219
# 5 0.001496 0.002617 0.003000 0.000000 0.033958 0.000000
# 6 0.000000 0.000000 0.000000 0.010219 0.000000 0.035972
#
#
# Mechanical properties :
#
#
# Convention : Reuss Voigt Hill
#
# Bulk Modulus (GPa) = 46.35121 57.06536 51.70828
# Shear Modulus (GPa) = 22.21544 25.57898 23.89721
#
# Velocity S-wave (km/s) = 3.50828 3.76451 3.63865
# Velocity P-wave (km/s) = 6.48774 7.10714 6.80449
#
# Compressibility (1/GPa) = 0.02157441
#
# Stress axis : x y z
#
# Youngs Moduli (GPa) = 37.04375 55.90806 88.03030
#
# Poissons Ratio (x) = 0.48177 0.43556
# Poissons Ratio (y) = 0.31921 0.33174
# Poissons Ratio (z) = 0.18329 0.21069
#
# Static dielectric constant tensor:
#      x y z
#    x 1.671140 0.000000 -0.011950 
#    y 0.000000 1.664890 0.000000 
#    z -0.011950 0.000000 1.651510 
# 
# From -- ./inp_files/266088.got.cif
#   From: 2010.05.17/outbox.cif.g08.bks.cpg/sg15_134_cif.got.tgz:266088.got - 2010.06.03 18:47:42.
