data_PCOD9256705
_publ_section_title
;
Structure prediction by ZEFSAII (Michael W. Deem and Ramdas Pophale) SiO2 
 PCOD9256705
Probable space group: C 2/C
;
_chemical_formula_sum "Si O2"
_cell_formula_units_Z 60
_cell_length_a 32.642415
_cell_length_b 16.844795
_cell_length_c 9.615009
_cell_angle_alpha 90.000000
_cell_angle_beta 136.872538
_cell_angle_gamma 90.000000
_cell_volume 3614.221744
_symmetry_space_group_name_H-M "C 2/C"
_symmetry_group_IT_number 15
_symmetry_cell_setting 'monoclinic'
loop_
_space_group_symop_operation_xyz
x,y,z
-x,y,1/2-z
-x,-y,-z
x,-y,1/2+z
1/2+x,1/2+y,z
1/2-x,1/2+y,1/2-z
1/2-x,1/2-y,-z
1/2+x,1/2-y,1/2+z
loop_
_atom_site_type_symbol
_atom_site_label
_atom_site_fract_x
_atom_site_fract_y
_atom_site_fract_z
Si Si1 0.336630 0.809474 0.976958
Si Si2 0.251467 0.512830 0.887970
Si Si3 0.076392 0.556044 0.691130
Si Si4 0.178272 0.560459 0.455706
Si Si5 0.800788 0.816429 0.593241
Si Si6 0.680736 0.767024 0.867537
Si Si7 0.195969 0.134381 0.104424
Si Si8 0.500000 0.982803 0.750000
O O1 0.352599 0.789709 0.857114
O O2 0.267534 0.842048 0.796166
O O3 0.377853 0.874128 0.154447
O O4 0.338378 0.728646 0.069703
O O5 0.195821 0.523838 0.646539
O O6 0.227788 0.469038 0.967111
O O7 0.300003 0.456518 0.933329
O O8 0.273626 0.601309 0.971560
O O9 0.115386 0.476980 0.758087
O O10 0.040022 0.568685 0.457541
O O11 0.036862 0.536214 0.729922
O O12 0.178352 0.655108 0.457286
O O13 0.750000 0.750000 0.500000
O O14 0.830383 0.842179 0.811800
O O15 0.750000 0.750000 0.000000
O O16 0.664279 0.688676 0.910929
#
# Coordination Sequence:
#
# PCOD9256705 Si02
#       8
#     8   8   8   8   8   8   8   4
#     4  10  18  33  48  63  93 128 170 200 235 298
#     4  12  19  29  45  69  97 137 172 203 224 272
#     4  11  21  37  51  73  92 127 167 209 266 302
#     4  12  19  30  50  65  94 135 176 196 235 301
#     4  10  20  30  42  66  97 127 170 207 229 270
#     4  10  18  29  43  67  95 130 173 203 226 265
#     4  10  19  30  41  70  99 132 174 199 230 263
#     4  10  24  36  52  70  96 114 160 232 268 302
#
# _framework density 16.601084
#
# number of rings (size 3 to 8) (size 9 to 14) (size 15 to 20)
#    0.000    1.333    5.333    4.800    0.000    1.067 
#    0.000    0.000    0.000    0.000    0.000    0.000 
#    0.000    0.000    0.000   40.800    0.000    0.000 
#
# Total GULP energy -167124.498768 kJ/mol
# GULP energy per Si atom -5570.816626 kJ/mol
# Density = 1.656330 g / cm^3
# Si number density = 16.601084 Si / 1000 Ang^3
#
#
#
# Elastic Constant Matrix: (Units=GPa)
#
#
# Indices 1 2 3 4 5 6 
#
# 1 20.3679 7.5104 4.3825 0.0000 -9.0706 0.0000
# 2 7.5104 105.7213 20.4733 0.0000 -3.9366 0.0000
# 3 4.3825 20.4733 79.8605 0.0000 -17.2700 0.0000
# 4 0.0000 0.0000 0.0000 23.7062 0.0000 -10.4137
# 5 -9.0706 -3.9366 -17.2700 0.0000 20.6833 0.0000
# 6 0.0000 0.0000 0.0000 -10.4137 0.0000 16.4915
#
#
#
# Elastic Compliance Matrix: (Units=1/GPa)
#
#
# Indices 1 2 3 4 5 6 
#
# 1 0.063300 -0.004173 0.004183 0.000000 0.030458 0.000000
# 2 -0.004173 0.010229 -0.002890 0.000000 -0.002296 0.000000
# 3 0.004183 -0.002890 0.016244 0.000000 0.014848 0.000000
# 4 0.000000 0.000000 0.000000 0.058376 0.000000 0.036862
# 5 0.030458 -0.002296 0.014848 0.000000 0.073666 0.000000
# 6 0.000000 0.000000 0.000000 0.036862 0.000000 0.083914
#
#
# Mechanical properties :
#
#
# Convention : Reuss Voigt Hill
#
# Bulk Modulus (GPa) = 11.90290 30.07579 20.98934
# Shear Modulus (GPa) = 14.72786 23.74844 19.23815
#
# Velocity S-wave (km/s) = 2.98176 3.78635 3.40788
# Velocity P-wave (km/s) = 4.36349 6.10502 5.30619
#
# Compressibility (1/GPa) = 0.08401317
#
# Stress axis : x y z
#
# Youngs Moduli (GPa) = 15.79786 97.75730 61.56116
#
# Poissons Ratio (x) = 0.40791 -0.25749
# Poissons Ratio (y) = 0.06592 0.17791
# Poissons Ratio (z) = -0.06608 0.28252
#
# Static dielectric constant tensor:
#      x y z
#    x 1.608970 0.000000 -0.038770 
#    y 0.000000 1.652910 0.000000 
#    z -0.038770 0.000000 1.605150 
# 
# From -- ./inp_files/70404.got.cif
#   From: 2010.05.17/outbox.cif.g08.bks.cpg/sg15_36_cif.got.tgz:70404.got - 2010.06.03 18:47:42.
