data_PCOD9256083
_publ_section_title
;
Structure prediction by ZEFSAII (Michael W. Deem and Ramdas Pophale) SiO2 
 PCOD9256083
Probable space group: C 2/C
;
_chemical_formula_sum "Si O2"
_cell_formula_units_Z 56
_cell_length_a 33.840379
_cell_length_b 9.352022
_cell_length_c 15.269841
_cell_angle_alpha 90.000000
_cell_angle_beta 38.079355
_cell_angle_gamma 90.000000
_cell_volume 2980.478680
_symmetry_space_group_name_H-M "C 2/C"
_symmetry_group_IT_number 15
_symmetry_cell_setting 'monoclinic'
loop_
_space_group_symop_operation_xyz
x,y,z
-x,y,1/2-z
-x,-y,-z
x,-y,1/2+z
1/2+x,1/2+y,z
1/2-x,1/2+y,1/2-z
1/2-x,1/2-y,-z
1/2+x,1/2-y,1/2+z
loop_
_atom_site_type_symbol
_atom_site_label
_atom_site_fract_x
_atom_site_fract_y
_atom_site_fract_z
Si Si1 0.426144 0.503879 0.863622
Si Si2 0.265219 0.970643 0.400390
Si Si3 0.357962 0.811805 0.672033
Si Si4 0.692630 0.980305 0.986014
Si Si5 0.202482 0.927028 0.329653
Si Si6 0.930493 0.325852 0.377614
Si Si7 0.655924 0.702638 0.614791
O O1 0.500000 0.547463 0.750000
O O2 0.431096 0.333658 0.835111
O O3 0.396616 0.609486 0.843766
O O4 0.368017 0.500351 0.037637
O O5 0.329896 0.034120 0.245243
O O6 0.282476 0.910165 0.466024
O O7 0.219903 0.106483 0.502218
O O8 0.228473 0.898425 0.382921
O O9 0.306956 0.720870 0.704827
O O10 0.417489 0.814948 0.503998
O O11 0.366896 0.731007 0.747146
O O12 0.672857 0.144554 0.042784
O O13 0.628763 0.907226 0.061470
O O14 0.747706 0.984195 0.815903
O O15 0.000000 0.394650 0.250000
#
# Coordination Sequence:
#
# PCOD9256083 Si02
#       7
#     8   8   8   8   8   8   8
#     4   9  21  38  55  78 115 150 184 220 276 334
#     4  10  18  32  55  90 110 139 184 232 279 326
#     4  10  17  34  58  78 108 151 183 222 278 334
#     4  11  19  34  62  86 110 138 187 237 277 320
#     4  10  18  32  58  83 110 142 183 228 277 319
#     4  10  22  39  56  77 117 154 175 219 288 339
#     4  10  19  34  61  85 106 139 195 235 264 323
#
# _framework density 18.788927999999999
#
# number of rings (size 3 to 8) (size 9 to 14) (size 15 to 20)
#    0.000    2.000    4.286    0.857    0.000    0.571 
#    0.000   17.143    3.143    0.000    0.000    0.000 
#    0.000    0.000    0.000    0.000    0.000    0.000 
#
# Total GULP energy -155935.941506 kJ/mol
# GULP energy per Si atom -5569.140768 kJ/mol
# Density = 1.874616 g / cm^3
# Si number density = 18.788928 Si / 1000 Ang^3
#
#
#
# Elastic Constant Matrix: (Units=GPa)
#
#
# Indices 1 2 3 4 5 6 
#
# 1 102.6639 31.2273 73.7318 0.0001 3.0200 0.0000
# 2 31.2273 32.9162 21.3771 -0.0003 -1.5191 0.0000
# 3 73.7318 21.3771 124.7077 -0.0002 -4.0111 0.0000
# 4 0.0001 -0.0003 -0.0002 16.8322 0.0000 -4.5296
# 5 3.0200 -1.5191 -4.0111 0.0000 35.0094 0.0000
# 6 0.0000 0.0000 0.0000 -4.5296 0.0000 28.6206
#
#
#
# Elastic Compliance Matrix: (Units=1/GPa)
#
#
# Indices 1 2 3 4 5 6 
#
# 1 0.021620 -0.013843 -0.010528 -0.000001 -0.003672 0.000000
# 2 -0.013843 0.043073 0.000903 0.000001 0.003167 0.000000
# 3 -0.010528 0.000903 0.014171 0.000000 0.002571 0.000000
# 4 -0.000001 0.000001 0.000000 0.062053 0.000000 0.009821
# 5 -0.003672 0.003167 0.002571 0.000000 0.029312 0.000000
# 6 0.000000 0.000000 0.000000 0.009821 0.000000 0.036494
#
#
# Mechanical properties :
#
#
# Convention : Reuss Voigt Hill
#
# Bulk Modulus (GPa) = 31.32038 56.99558 44.15798
# Shear Modulus (GPa) = 18.91781 25.02255 21.97018
#
# Velocity S-wave (km/s) = 3.17655 3.65330 3.42323
# Velocity P-wave (km/s) = 5.49179 6.94233 6.25922
#
# Compressibility (1/GPa) = 0.03192809
#
# Stress axis : x y z
#
# Youngs Moduli (GPa) = 46.25338 23.21659 70.56647
#
# Poissons Ratio (x) = 0.32139 0.74290
# Poissons Ratio (y) = 0.64029 -0.06372
# Poissons Ratio (z) = 0.48694 -0.02096
#
# Static dielectric constant tensor:
#      x y z
#    x 1.670930 0.000000 0.002770 
#    y 0.000000 1.690670 0.000000 
#    z 0.002770 0.000000 1.680200 
# 
# From -- ./inp_files/181547.got.cif
#   From: 2010.05.17/outbox.cif.g08.bks.cpg/sg15_91_cif.got.tgz:181547.got - 2010.06.03 18:47:42.
