data_PCOD9256665
_publ_section_title
;
Structure prediction by ZEFSAII (Michael W. Deem and Ramdas Pophale) SiO2 
 PCOD9256665
Probable space group: C 2/C
;
_chemical_formula_sum "Si O2"
_cell_formula_units_Z 44
_cell_length_a 24.112272
_cell_length_b 6.632601
_cell_length_c 13.372878
_cell_angle_alpha 90.000000
_cell_angle_beta 44.346054
_cell_angle_gamma 90.000000
_cell_volume 1494.920357
_symmetry_space_group_name_H-M "C 2/C"
_symmetry_group_IT_number 15
_symmetry_cell_setting 'monoclinic'
loop_
_space_group_symop_operation_xyz
x,y,z
-x,y,1/2-z
-x,-y,-z
x,-y,1/2+z
1/2+x,1/2+y,z
1/2-x,1/2+y,1/2-z
1/2-x,1/2-y,-z
1/2+x,1/2-y,1/2+z
loop_
_atom_site_type_symbol
_atom_site_label
_atom_site_fract_x
_atom_site_fract_y
_atom_site_fract_z
Si Si1 0.084648 0.632272 0.510876
Si Si2 0.267329 0.650330 0.256083
Si Si3 0.740846 0.969922 0.587693
Si Si4 0.380904 0.431486 0.757814
Si Si5 0.000000 0.036855 0.250000
Si Si6 0.931869 0.543920 0.197773
O O1 0.177429 0.592310 0.400400
O O2 0.068936 0.639330 0.412034
O O3 0.062700 0.823095 0.608336
O O4 0.022189 0.456668 0.621798
O O5 0.275415 0.850211 0.312620
O O6 0.271991 0.683886 0.131409
O O7 0.344208 0.526764 0.195819
O O8 0.803411 0.043776 0.427057
O O9 0.656998 0.903438 0.648743
O O10 0.448266 0.563117 0.728057
O O11 0.419236 0.206217 0.708284
#
# Coordination Sequence:
#
# PCOD9256665 Si02
#       6
#     8   8   8   8   4   8
#     4   9  16  26  46  78 105 127 173 218 263 304
#     4  10  19  33  53  78 106 137 179 223 262 314
#     4  10  19  33  53  78 107 138 182 217 263 319
#     4  10  19  33  52  74 102 145 180 213 264 320
#     4  10  18  28  52  76 106 138 184 218 258 320
#     4   8  16  28  46  73 105 132 166 219 260 300
#
# _framework density 29.433005999999999
#
# number of rings (size 3 to 8) (size 9 to 14) (size 15 to 20)
#    0.000    2.545    1.818    2.182    2.545    0.000 
#    0.000    1.818    0.000    0.000    0.000    0.000 
#    0.000    0.000    0.000    0.000    0.000    0.000 
#
# Total GULP energy -122820.001252 kJ/mol
# GULP energy per Si atom -5582.727330 kJ/mol
# Density = 2.936602 g / cm^3
# Si number density = 29.433006 Si / 1000 Ang^3
#
#
#
# Elastic Constant Matrix: (Units=GPa)
#
#
# Indices 1 2 3 4 5 6 
#
# 1 173.7353 2.5517 34.8455 -0.0001 -39.3397 0.0003
# 2 2.5517 70.2206 25.4747 -0.0001 -0.3509 0.0004
# 3 34.8455 25.4747 169.5392 -0.0002 6.5678 0.0000
# 4 -0.0001 -0.0001 -0.0002 38.3219 0.0002 5.9014
# 5 -39.3397 -0.3509 6.5678 0.0002 60.1300 0.0001
# 6 0.0003 0.0004 0.0000 5.9014 0.0001 41.6040
#
#
#
# Elastic Compliance Matrix: (Units=1/GPa)
#
#
# Indices 1 2 3 4 5 6 
#
# 1 0.007208 0.000390 -0.001730 0.000000 0.004907 0.000000
# 2 0.000390 0.015090 -0.002371 0.000000 0.000602 0.000000
# 3 -0.001730 -0.002371 0.006683 0.000000 -0.001876 0.000000
# 4 0.000000 0.000000 0.000000 0.026677 0.000000 -0.003784
# 5 0.004907 0.000602 -0.001876 0.000000 0.020050 0.000000
# 6 0.000000 0.000000 0.000000 -0.003784 0.000000 0.024573
#
#
# Mechanical properties :
#
#
# Convention : Reuss Voigt Hill
#
# Bulk Modulus (GPa) = 46.38387 59.91541 53.14964
# Shear Modulus (GPa) = 43.52016 51.38606 47.45311
#
# Velocity S-wave (km/s) = 3.84945 4.18289 4.01963
# Velocity P-wave (km/s) = 5.96247 6.61283 6.29605
#
# Compressibility (1/GPa) = 0.02155922
#
# Stress axis : x y z
#
# Youngs Moduli (GPa) = 138.72746 66.27002 149.63592
#
# Poissons Ratio (x) = -0.02586 0.25891
# Poissons Ratio (y) = -0.05414 0.35477
# Poissons Ratio (z) = 0.24004 0.15712
#
# Static dielectric constant tensor:
#      x y z
#    x 2.694040 0.000000 0.010640 
#    y 0.000000 2.774540 0.000000 
#    z 0.010640 0.000000 2.173670 
# 
# From -- ./inp_files/176437.got.cif
#   From: 2010.05.17/outbox.cif.g08.bks.cpg/sg15_89_cif.got.tgz:176437.got - 2010.06.03 18:47:42.
