data_PCOD9256109
_publ_section_title
;
Structure prediction by ZEFSAII (Michael W. Deem and Ramdas Pophale) SiO2 
 PCOD9256109
Probable space group: C 2/C
;
_chemical_formula_sum "Si O2"
_cell_formula_units_Z 48
_cell_length_a 26.467515
_cell_length_b 7.137922
_cell_length_c 14.070523
_cell_angle_alpha 90.000000
_cell_angle_beta 139.379841
_cell_angle_gamma 90.000000
_cell_volume 1730.628132
_symmetry_space_group_name_H-M "C 2/C"
_symmetry_group_IT_number 15
_symmetry_cell_setting 'monoclinic'
loop_
_space_group_symop_operation_xyz
x,y,z
-x,y,1/2-z
-x,-y,-z
x,-y,1/2+z
1/2+x,1/2+y,z
1/2-x,1/2+y,1/2-z
1/2-x,1/2-y,-z
1/2+x,1/2-y,1/2+z
loop_
_atom_site_type_symbol
_atom_site_label
_atom_site_fract_x
_atom_site_fract_y
_atom_site_fract_z
Si Si1 0.002007 0.049693 0.868470
Si Si2 0.755349 0.419320 0.343082
Si Si3 0.409047 0.264842 0.390132
Si Si4 0.261030 0.140036 0.634886
Si Si5 0.424682 0.993165 0.586648
Si Si6 0.374882 0.724756 0.169246
O O1 0.967381 0.221204 0.882426
O O2 0.000000 0.052970 0.750000
O O3 0.939733 0.893131 0.809924
O O4 0.077344 0.951998 0.022756
O O5 0.682638 0.289483 0.269065
O O6 0.745109 0.632135 0.364158
O O7 0.752717 0.437004 0.225921
O O8 0.846768 0.366616 0.488922
O O9 0.425393 0.084617 0.481781
O O10 0.339788 0.121098 0.689392
O O11 0.190511 0.088053 0.466519
O O12 0.500000 0.916741 0.750000
O O13 0.409277 0.174668 0.628210
#
# Coordination Sequence:
#
# PCOD9256109 Si02
#       6
#     8   8   8   8   8   8
#     4  11  19  32  59  93 128 156 221 276 308 364
#     4  11  20  37  60  96 129 164 221 257 319 381
#     4  11  20  33  60  98 124 168 213 267 313 376
#     4  10  21  33  61  93 128 170 213 265 317 385
#     4  11  21  39  65  91 129 170 221 258 317 392
#     4  10  17  34  59  89 120 166 221 255 310 379
#
# _framework density 27.735596000000001
#
# number of rings (size 3 to 8) (size 9 to 14) (size 15 to 20)
#    0.000    1.333    8.333    0.000    0.000    0.000 
#    0.000    0.833    0.000   29.000    0.000    0.000 
#    0.000    0.000    0.000    0.000    0.000    0.000 
#
# Total GULP energy -134022.740424 kJ/mol
# GULP energy per Si atom -5584.280851 kJ/mol
# Density = 2.767247 g / cm^3
# Si number density = 27.735596 Si / 1000 Ang^3
#
#
#
# Elastic Constant Matrix: (Units=GPa)
#
#
# Indices 1 2 3 4 5 6 
#
# 1 137.9104 17.8404 60.5758 0.0000 -22.1921 0.0000
# 2 17.8404 60.2696 18.8578 0.0000 9.2903 0.0000
# 3 60.5758 18.8578 168.5583 0.0000 20.9415 0.0000
# 4 0.0000 0.0000 0.0000 13.3573 0.0000 -3.5005
# 5 -22.1921 9.2903 20.9415 0.0000 57.8664 0.0000
# 6 0.0000 0.0000 0.0000 -3.5005 0.0000 24.0019
#
#
#
# Elastic Compliance Matrix: (Units=1/GPa)
#
#
# Indices 1 2 3 4 5 6 
#
# 1 0.010380 -0.002682 -0.004166 0.000000 0.005919 0.000000
# 2 -0.002682 0.018149 -0.000604 0.000000 -0.003724 0.000000
# 3 -0.004166 -0.000604 0.008045 0.000000 -0.004412 0.000000
# 4 0.000000 0.000000 0.000000 0.077840 0.000000 0.011352
# 5 0.005919 -0.003724 -0.004412 0.000000 0.021746 0.000000
# 6 0.000000 0.000000 0.000000 0.011352 0.000000 0.043319
#
#
# Mechanical properties :
#
#
# Convention : Reuss Voigt Hill
#
# Bulk Modulus (GPa) = 46.14329 62.36513 54.25421
# Shear Modulus (GPa) = 24.80078 37.00940 30.90509
#
# Velocity S-wave (km/s) = 2.99354 3.65686 3.34170
# Velocity P-wave (km/s) = 5.34989 6.35331 5.87307
#
# Compressibility (1/GPa) = 0.02167162
#
# Stress axis : x y z
#
# Youngs Moduli (GPa) = 96.33722 55.09979 124.29320
#
# Poissons Ratio (x) = 0.14776 0.51777
# Poissons Ratio (y) = 0.25834 0.07509
# Poissons Ratio (z) = 0.40132 0.03329
#
# Static dielectric constant tensor:
#      x y z
#    x 2.237840 0.000000 0.116470 
#    y 0.000000 2.175850 0.000000 
#    z 0.116470 0.000000 2.203770 
# 
# From -- ./inp_files/176992.got.cif
#   From: 2010.05.17/outbox.cif.g08.bks.cpg/sg15_89_cif.got.tgz:176992.got - 2010.06.03 18:47:42.
