data_PCOD9256685
_publ_section_title
;
Structure prediction by ZEFSAII (Michael W. Deem and Ramdas Pophale) SiO2 
 PCOD9256685
Probable space group: C 2/C
;
_chemical_formula_sum "Si O2"
_cell_formula_units_Z 64
_cell_length_a 20.461127
_cell_length_b 8.735688
_cell_length_c 26.933549
_cell_angle_alpha 90.000000
_cell_angle_beta 45.565231
_cell_angle_gamma 90.000000
_cell_volume 3437.539026
_symmetry_space_group_name_H-M "C 2/C"
_symmetry_group_IT_number 15
_symmetry_cell_setting 'monoclinic'
loop_
_space_group_symop_operation_xyz
x,y,z
-x,y,1/2-z
-x,-y,-z
x,-y,1/2+z
1/2+x,1/2+y,z
1/2-x,1/2+y,1/2-z
1/2-x,1/2-y,-z
1/2+x,1/2-y,1/2+z
loop_
_atom_site_type_symbol
_atom_site_label
_atom_site_fract_x
_atom_site_fract_y
_atom_site_fract_z
Si Si1 0.091835 0.712066 0.172829
Si Si2 0.361883 0.029283 0.774544
Si Si3 0.410683 0.692099 0.592449
Si Si4 0.260613 0.103526 0.626368
Si Si5 0.291190 0.330601 0.781295
Si Si6 0.666830 0.621975 0.353670
Si Si7 0.072652 0.415638 0.997803
Si Si8 0.508962 0.100111 0.119252
O O1 0.108078 0.547399 0.190246
O O2 0.179988 0.814735 0.138790
O O3 0.075013 0.681199 0.123974
O O4 0.000000 0.773169 0.250000
O O5 0.352581 0.211468 0.779575
O O6 0.262597 0.961777 0.814731
O O7 0.426759 0.963156 0.696990
O O8 0.312372 0.764569 0.661567
O O9 0.407334 0.509709 0.598180
O O10 0.479389 0.773619 0.594249
O O11 0.424305 0.748489 0.528574
O O12 0.328583 0.228976 0.614464
O O13 0.326844 0.989527 0.561833
O O14 0.214040 0.001237 0.694233
O O15 0.328842 0.329975 0.705728
O O16 0.043686 0.455251 0.068852
O O17 0.000000 0.500000 0.000000
#
# Coordination Sequence:
#
# PCOD9256685 Si02
#       8
#     8   8   8   8   8   8   8   8
#     4   9  20  34  55  75 107 142 175 223 267 321
#     4   9  18  32  51  79 103 132 176 217 274 322
#     4   9  18  32  51  81 106 132 177 217 274 321
#     4  10  20  35  52  81 108 139 181 220 269 320
#     4  10  18  28  55  79 104 131 169 228 276 322
#     4  10  18  28  55  80 107 132 166 229 281 322
#     4   9  20  34  55  76 107 146 181 225 264 320
#     4  10  18  35  55  71 108 146 183 210 271 326
#
# _framework density 18.617971000000001
#
# number of rings (size 3 to 8) (size 9 to 14) (size 15 to 20)
#    0.000    2.500    1.250    1.500    7.000    0.500 
#    0.000    4.375    0.000   12.000    0.000    0.000 
#    0.000    0.000    0.000    0.000    0.000    0.000 
#
# Total GULP energy -178293.676416 kJ/mol
# GULP energy per Si atom -5571.677388 kJ/mol
# Density = 1.857560 g / cm^3
# Si number density = 18.617971 Si / 1000 Ang^3
#
#
#
# Elastic Constant Matrix: (Units=GPa)
#
#
# Indices 1 2 3 4 5 6 
#
# 1 90.8704 30.0942 23.7602 0.0000 13.6310 0.0000
# 2 30.0942 82.6573 7.3672 0.0000 7.4770 0.0000
# 3 23.7602 7.3672 36.9748 0.0000 10.4619 0.0000
# 4 0.0000 0.0000 0.0000 -4.2055 0.0000 -15.4613
# 5 13.6310 7.4770 10.4619 0.0000 21.5732 0.0000
# 6 0.0000 0.0000 0.0000 -15.4613 0.0000 9.8428
#
#
#
# Elastic Compliance Matrix: (Units=1/GPa)
#
#
# Indices 1 2 3 4 5 6 
#
# 1 0.015109 -0.004432 -0.007603 0.000000 -0.004324 0.000000
# 2 -0.004432 0.013859 0.000757 0.000000 -0.002370 0.000000
# 3 -0.007603 0.000757 0.035345 0.000000 -0.012599 0.000000
# 4 0.000000 0.000000 0.000000 -0.035097 0.000000 -0.055131
# 5 -0.004324 -0.002370 -0.012599 0.000000 0.056017 0.000000
# 6 0.000000 0.000000 0.000000 -0.055131 0.000000 0.014996
#
#
# Mechanical properties :
#
#
# Convention : Reuss Voigt Hill
#
# Bulk Modulus (GPa) = 23.94760 36.99396 30.47078
# Shear Modulus (GPa) = 36.57572 15.39416 25.98494
#
# Velocity S-wave (km/s) = 4.43712 2.87861 3.73995
# Velocity P-wave (km/s) = 6.25630 5.56432 5.92043
#
# Compressibility (1/GPa) = 0.04175784
#
# Stress axis : x y z
#
# Youngs Moduli (GPa) = 66.18578 72.15671 28.29254
#
# Poissons Ratio (x) = 0.31981 0.21510
# Poissons Ratio (y) = 0.29335 -0.02143
# Poissons Ratio (z) = 0.50319 -0.05466
#
# Static dielectric constant tensor:
#      x y z
#    x 1.640490 0.000000 -0.022310 
#    y 0.000000 1.683670 0.000000 
#    z -0.022310 0.000000 1.671120 
# 
# From -- ./inp_files/300352.got.cif
#   From: 2010.05.17/outbox.cif.g08.bks.cpg/sg15_151_cif.got.tgz:300352.got - 2010.06.03 18:47:42.
