data_PCOD9256782
_publ_section_title
;
Structure prediction by ZEFSAII (Michael W. Deem and Ramdas Pophale) SiO2 
 PCOD9256782
Probable space group: C 2/C
;
_chemical_formula_sum "Si O2"
_cell_formula_units_Z 64
_cell_length_a 16.744094
_cell_length_b 13.836840
_cell_length_c 28.858048
_cell_angle_alpha 90.000000
_cell_angle_beta 31.990766
_cell_angle_gamma 90.000000
_cell_volume 3542.119430
_symmetry_space_group_name_H-M "C 2/C"
_symmetry_group_IT_number 15
_symmetry_cell_setting 'monoclinic'
loop_
_space_group_symop_operation_xyz
x,y,z
-x,y,1/2-z
-x,-y,-z
x,-y,1/2+z
1/2+x,1/2+y,z
1/2-x,1/2+y,1/2-z
1/2-x,1/2-y,-z
1/2+x,1/2-y,1/2+z
loop_
_atom_site_type_symbol
_atom_site_label
_atom_site_fract_x
_atom_site_fract_y
_atom_site_fract_z
Si Si1 0.407889 0.692882 0.750527
Si Si2 0.279771 0.947263 0.737680
Si Si3 0.964519 0.979592 0.370654
Si Si4 0.684793 0.989356 0.946141
Si Si5 0.883018 0.585827 0.613174
Si Si6 0.945535 0.667655 0.430261
Si Si7 0.647039 0.091393 0.197792
Si Si8 0.692747 0.366790 0.976629
O O1 0.500000 0.656115 0.750000
O O2 0.479081 0.626619 0.675368
O O3 0.229030 0.674177 0.838398
O O4 0.417808 0.807347 0.749674
O O5 0.383919 0.858969 0.668071
O O6 0.281662 0.955599 0.792074
O O7 0.359338 0.040085 0.675117
O O8 0.108664 0.952270 0.804601
O O9 0.843125 0.020332 0.393862
O O10 0.886735 0.955813 0.457955
O O11 0.685087 0.010286 0.891380
O O12 0.612668 0.086091 0.005111
O O13 0.560002 0.906936 0.016472
O O14 0.837475 0.656704 0.438314
O O15 0.912010 0.771693 0.468680
O O16 0.500000 0.037750 0.250000
O O17 0.755328 0.111812 0.101046
#
# Coordination Sequence:
#
# PCOD9256782 Si02
#       8
#     8   8   8   8   8   8   8   8
#     4  10  18  29  49  76 101 126 157 214 269 305
#     4  10  20  32  45  72 108 137 169 203 255 311
#     4  10  20  31  49  74 109 133 168 210 253 322
#     4   9  16  28  47  75 101 132 159 204 266 306
#     4   9  17  29  48  71 104 129 162 205 259 316
#     4   9  17  30  49  76 105 129 167 212 267 311
#     4  11  21  32  50  74 104 138 169 211 256 306
#     4  10  19  30  51  73 101 139 167 211 257 305
#
# _framework density 18.068277999999999
#
# number of rings (size 3 to 8) (size 9 to 14) (size 15 to 20)
#    0.000    2.250    2.500    1.500    7.000    0.500 
#    0.000    0.000    0.000    0.750    0.000    0.000 
#   26.250    0.000    0.000    0.000    0.000    0.000 
#
# Total GULP energy -178179.200472 kJ/mol
# GULP energy per Si atom -5568.100015 kJ/mol
# Density = 1.802715 g / cm^3
# Si number density = 18.068278 Si / 1000 Ang^3
#
#
#
# Elastic Constant Matrix: (Units=GPa)
#
#
# Indices 1 2 3 4 5 6 
#
# 1 101.9327 15.6539 46.1276 0.0000 1.0191 0.0000
# 2 15.6539 13.3299 12.3950 -0.0002 -1.1339 0.0000
# 3 46.1276 12.3950 93.2884 -0.0007 2.1767 -0.0001
# 4 0.0000 -0.0002 -0.0007 18.0546 0.0000 -5.6781
# 5 1.0191 -1.1339 2.1767 0.0000 46.9196 0.0001
# 6 0.0000 0.0000 -0.0001 -5.6781 0.0001 17.4414
#
#
#
# Elastic Compliance Matrix: (Units=1/GPa)
#
#
# Indices 1 2 3 4 5 6 
#
# 1 0.014019 -0.011470 -0.005400 0.000000 -0.000331 0.000000
# 2 -0.011470 0.095296 -0.007058 0.000001 0.002880 0.000000
# 3 -0.005400 -0.007058 0.014344 0.000001 -0.000719 0.000000
# 4 0.000000 0.000001 0.000001 0.061705 0.000000 0.020088
# 5 -0.000331 0.002880 -0.000719 0.000000 0.021423 0.000000
# 6 0.000000 0.000000 0.000000 0.020088 0.000000 0.063875
#
#
# Mechanical properties :
#
#
# Convention : Reuss Voigt Hill
#
# Bulk Modulus (GPa) = 13.19190 39.65600 26.42395
# Shear Modulus (GPa) = 14.54399 25.44143 19.99271
#
# Velocity S-wave (km/s) = 2.84024 3.75650 3.33003
# Velocity P-wave (km/s) = 4.25122 6.38831 5.42602
#
# Compressibility (1/GPa) = 0.07580406
#
# Stress axis : x y z
#
# Youngs Moduli (GPa) = 71.33259 10.49363 69.71517
#
# Poissons Ratio (x) = 0.12036 0.37647
# Poissons Ratio (y) = 0.81817 0.49202
# Poissons Ratio (z) = 0.38520 0.07406
#
# Static dielectric constant tensor:
#      x y z
#    x 1.658350 0.000000 0.010350 
#    y 0.000000 1.626910 0.000000 
#    z 0.010350 0.000000 1.689830 
# 
# From -- ./inp_files/296410.got.cif
#   From: 2010.05.17/outbox.cif.g08.bks.cpg/sg15_149_cif.got.tgz:296410.got - 2010.06.03 18:47:42.
