data_PCOD9256231
_publ_section_title
;
Structure prediction by ZEFSAII (Michael W. Deem and Ramdas Pophale) SiO2 
 PCOD9256231
Probable space group: C 2/C
;
_chemical_formula_sum "Si O2"
_cell_formula_units_Z 60
_cell_length_a 22.319327
_cell_length_b 8.359576
_cell_length_c 23.869206
_cell_angle_alpha 90.000000
_cell_angle_beta 142.603814
_cell_angle_gamma 90.000000
_cell_volume 2704.724381
_symmetry_space_group_name_H-M "C 2/C"
_symmetry_group_IT_number 15
_symmetry_cell_setting 'monoclinic'
loop_
_space_group_symop_operation_xyz
x,y,z
-x,y,1/2-z
-x,-y,-z
x,-y,1/2+z
1/2+x,1/2+y,z
1/2-x,1/2+y,1/2-z
1/2-x,1/2-y,-z
1/2+x,1/2-y,1/2+z
loop_
_atom_site_type_symbol
_atom_site_label
_atom_site_fract_x
_atom_site_fract_y
_atom_site_fract_z
Si Si1 0.140407 0.424769 0.413684
Si Si2 0.610601 0.856950 0.118826
Si Si3 0.974176 0.223653 0.339315
Si Si4 0.500000 0.818272 0.750000
Si Si5 0.606934 0.385115 0.234551
Si Si6 0.818799 0.473688 0.928806
Si Si7 0.272410 0.852346 0.133612
Si Si8 0.223596 0.386372 0.774397
O O1 0.171724 0.488199 0.497537
O O2 0.221600 0.372822 0.428649
O O3 0.067976 0.276378 0.373329
O O4 0.077807 0.564200 0.337384
O O5 0.526292 0.817564 0.101453
O O6 0.673821 0.694376 0.164518
O O7 0.601550 0.929426 0.049733
O O8 0.684147 0.984371 0.202042
O O9 0.878639 0.289362 0.234625
O O10 0.957721 0.034906 0.333765
O O11 0.448381 0.706544 0.757135
O O12 0.712545 0.450964 0.334030
O O13 0.639453 0.248947 0.215155
O O14 0.805613 0.283643 0.906951
O O15 0.260435 0.021130 0.155325
#
# Coordination Sequence:
#
# PCOD9256231 Si02
#       8
#     8   8   8   4   8   8   8   8
#     4  12  22  41  60  90 123 166 196 255 303 369
#     4  10  19  36  58  89 119 161 202 253 292 369
#     4  10  21  36  63  83 119 158 206 242 303 354
#     4  12  22  38  64  84 128 154 202 242 306 372
#     4  10  22  38  58  96 114 162 198 252 295 364
#     4  10  24  37  61  91 124 159 205 250 309 343
#     4  10  19  38  59  88 116 161 201 249 296 367
#     4  10  17  35  61  86 120 151 209 243 301 349
#
# _framework density 22.183406999999999
#
# number of rings (size 3 to 8) (size 9 to 14) (size 15 to 20)
#    0.000    1.600    2.667    4.400    3.733    1.067 
#    0.000    0.000    0.000    2.400    0.000    0.000 
#    0.000    0.000    0.000    0.000    0.000    0.000 
#
# Total GULP energy -167647.713994 kJ/mol
# GULP energy per Si atom -5588.257133 kJ/mol
# Density = 2.213292 g / cm^3
# Si number density = 22.183407 Si / 1000 Ang^3
#
#
#
# Elastic Constant Matrix: (Units=GPa)
#
#
# Indices 1 2 3 4 5 6 
#
# 1 81.6763 35.2189 4.2309 0.0000 -14.6371 0.0000
# 2 35.2189 120.5485 16.5102 0.0000 -8.2195 0.0000
# 3 4.2309 16.5102 53.8561 0.0000 -12.8002 0.0000
# 4 0.0000 0.0000 0.0000 18.2247 0.0000 -12.3398
# 5 -14.6371 -8.2195 -12.8002 0.0000 25.0767 0.0000
# 6 0.0000 0.0000 0.0000 -12.3398 0.0000 34.1338
#
#
#
# Elastic Compliance Matrix: (Units=1/GPa)
#
#
# Indices 1 2 3 4 5 6 
#
# 1 0.015532 -0.004235 0.002166 0.000000 0.008783 0.000000
# 2 -0.004235 0.009877 -0.002860 0.000000 -0.000695 0.000000
# 3 0.002166 -0.002860 0.022024 0.000000 0.011569 0.000000
# 4 0.000000 0.000000 0.000000 0.072655 0.000000 0.026266
# 5 0.008783 -0.000695 0.011569 0.000000 0.050682 0.000000
# 6 0.000000 0.000000 0.000000 0.026266 0.000000 0.038792
#
#
# Mechanical properties :
#
#
# Convention : Reuss Voigt Hill
#
# Bulk Modulus (GPa) = 26.61481 40.88898 33.75189
# Shear Modulus (GPa) = 21.55676 28.82843 25.19260
#
# Velocity S-wave (km/s) = 3.12067 3.60884 3.37360
# Velocity P-wave (km/s) = 5.00085 5.98642 5.51569
#
# Compressibility (1/GPa) = 0.03757307
#
# Stress axis : x y z
#
# Youngs Moduli (GPa) = 64.38513 101.24342 45.40432
#
# Poissons Ratio (x) = 0.42880 -0.09833
# Poissons Ratio (y) = 0.27270 0.12987
# Poissons Ratio (z) = -0.13944 0.28959
#
# Static dielectric constant tensor:
#      x y z
#    x 1.830790 0.000000 -0.014340 
#    y 0.000000 1.817690 0.000000 
#    z -0.014340 0.000000 1.830650 
# 
# From -- ./inp_files/252126.got.cif
#   From: 2010.05.17/outbox.cif.g08.bks.cpg/sg15_127_cif.got.tgz:252126.got - 2010.06.03 18:47:42.
