data_PCOD9256383
_publ_section_title
;
Structure prediction by ZEFSAII (Michael W. Deem and Ramdas Pophale) SiO2 
 PCOD9256383
Probable space group: C 2/C
;
_chemical_formula_sum "Si O2"
_cell_formula_units_Z 60
_cell_length_a 23.212711
_cell_length_b 17.750939
_cell_length_c 11.239896
_cell_angle_alpha 90.000000
_cell_angle_beta 41.314919
_cell_angle_gamma 90.000000
_cell_volume 3057.617878
_symmetry_space_group_name_H-M "C 2/C"
_symmetry_group_IT_number 15
_symmetry_cell_setting 'monoclinic'
loop_
_space_group_symop_operation_xyz
x,y,z
-x,y,1/2-z
-x,-y,-z
x,-y,1/2+z
1/2+x,1/2+y,z
1/2-x,1/2+y,1/2-z
1/2-x,1/2-y,-z
1/2+x,1/2-y,1/2+z
loop_
_atom_site_type_symbol
_atom_site_label
_atom_site_fract_x
_atom_site_fract_y
_atom_site_fract_z
Si Si1 0.654530 0.358253 0.893989
Si Si2 0.096489 0.973853 0.546438
Si Si3 0.384054 0.628725 0.704721
Si Si4 0.000000 0.834406 0.250000
Si Si5 0.067899 0.294658 0.963621
Si Si6 0.700505 0.639812 0.050055
Si Si7 0.221981 0.331531 0.592039
Si Si8 0.377809 0.802836 0.354565
O O1 0.663580 0.363184 0.740796
O O2 0.740398 0.338543 0.833071
O O3 0.624879 0.440509 0.984024
O O4 0.582118 0.298924 0.054194
O O5 0.095553 0.935818 0.419139
O O6 0.162654 0.926405 0.527253
O O7 0.000000 0.968500 0.750000
O O8 0.450381 0.628937 0.713064
O O9 0.401238 0.708245 0.610039
O O10 0.285212 0.619020 0.909349
O O11 0.118562 0.337418 0.776813
O O12 0.095972 0.324113 0.051282
O O13 0.963359 0.296585 0.138962
O O14 0.665810 0.720535 0.059186
O O15 0.804624 0.645472 0.906160
O O16 0.250000 0.250000 0.500000
#
# Coordination Sequence:
#
# PCOD9256383 Si02
#       8
#     8   8   8   4   8   8   8   8
#     4  11  22  35  53  83 117 160 193 232 291 352
#     4  12  24  37  58  85 125 164 194 235 293 366
#     4  10  21  35  56  84 117 162 189 236 294 360
#     4  10  20  34  48  76 116 150 196 218 272 352
#     4  10  17  37  58  88 111 152 195 242 306 341
#     4  11  23  37  57  89 120 150 199 247 292 349
#     4   9  20  36  57  81 117 153 195 241 297 350
#     4  10  20  34  62  88 116 147 197 254 292 344
#
# _framework density 19.623118999999999
#
# number of rings (size 3 to 8) (size 9 to 14) (size 15 to 20)
#    0.000    1.600    3.333    2.400    3.733    1.067 
#    0.000    0.000    0.000    0.800    3.467    0.000 
#    0.000    0.000    0.000    0.000    0.000    0.000 
#
# Total GULP energy -167023.366146 kJ/mol
# GULP energy per Si atom -5567.445538 kJ/mol
# Density = 1.957846 g / cm^3
# Si number density = 19.623119 Si / 1000 Ang^3
#
#
#
# Elastic Constant Matrix: (Units=GPa)
#
#
# Indices 1 2 3 4 5 6 
#
# 1 85.8916 18.1363 29.1459 0.0000 5.8450 0.0000
# 2 18.1363 27.9071 4.8550 0.0000 -0.1391 0.0000
# 3 29.1459 4.8550 143.5703 0.0000 -13.5380 0.0000
# 4 0.0000 0.0000 0.0000 11.2604 0.0000 -11.3097
# 5 5.8450 -0.1391 -13.5380 0.0000 40.6541 0.0000
# 6 0.0000 0.0000 0.0000 -11.3097 0.0000 3.3085
#
#
#
# Elastic Compliance Matrix: (Units=1/GPa)
#
#
# Indices 1 2 3 4 5 6 
#
# 1 0.014797 -0.009111 -0.002993 0.000000 -0.003155 0.000000
# 2 -0.009111 0.041659 0.000597 0.000000 0.001651 0.000000
# 3 -0.002993 0.000597 0.007840 0.000000 0.003043 0.000000
# 4 0.000000 0.000000 0.000000 -0.036497 0.000000 -0.124758
# 5 -0.003155 0.001651 0.003043 0.000000 0.026070 0.000000
# 6 0.000000 0.000000 0.000000 -0.124758 0.000000 -0.124214
#
#
# Mechanical properties :
#
#
# Convention : Reuss Voigt Hill
#
# Bulk Modulus (GPa) = 24.22505 40.18258 32.20382
# Shear Modulus (GPa) = -148.94563 24.72673 -62.10945
#
# Velocity S-wave (km/s) = -8.72169 3.55361 -5.63204
# Velocity P-wave (km/s) = 9.43673 6.11222 5.08393
#
# Compressibility (1/GPa) = 0.04127958
#
# Stress axis : x y z
#
# Youngs Moduli (GPa) = 67.58174 24.00450 127.55652
#
# Poissons Ratio (x) = 0.21871 0.38182
# Poissons Ratio (y) = 0.61575 -0.07610
# Poissons Ratio (z) = 0.20229 -0.01432
#
# Static dielectric constant tensor:
#      x y z
#    x 1.716490 0.000000 -0.028270 
#    y 0.000000 1.715400 0.000000 
#    z -0.028270 0.000000 1.787750 
# 
# From -- ./inp_files/119437.got.cif
#   From: 2010.05.17/outbox.cif.g08.bks.cpg/sg15_60_cif.got.tgz:119437.got - 2010.06.03 18:47:42.
