data_PCOD9256435
_publ_section_title
;
Structure prediction by ZEFSAII (Michael W. Deem and Ramdas Pophale) SiO2 
 PCOD9256435
Probable space group: C 2/C
;
_chemical_formula_sum "Si O2"
_cell_formula_units_Z 56
_cell_length_a 27.158940
_cell_length_b 19.210262
_cell_length_c 8.884709
_cell_angle_alpha 90.000000
_cell_angle_beta 30.812777
_cell_angle_gamma 90.000000
_cell_volume 2374.422797
_symmetry_space_group_name_H-M "C 2/C"
_symmetry_group_IT_number 15
_symmetry_cell_setting 'monoclinic'
loop_
_space_group_symop_operation_xyz
x,y,z
-x,y,1/2-z
-x,-y,-z
x,-y,1/2+z
1/2+x,1/2+y,z
1/2-x,1/2+y,1/2-z
1/2-x,1/2-y,-z
1/2+x,1/2-y,1/2+z
loop_
_atom_site_type_symbol
_atom_site_label
_atom_site_fract_x
_atom_site_fract_y
_atom_site_fract_z
Si Si1 0.420411 0.905115 0.246225
Si Si2 0.314464 0.565236 0.615726
Si Si3 0.648183 0.268165 0.853190
Si Si4 0.454576 0.752744 0.167339
Si Si5 0.288134 0.414977 0.826320
Si Si6 0.751275 0.293746 0.146819
Si Si7 0.500000 0.639969 0.250000
Si Si8 0.500000 0.987378 0.750000
O O1 0.470155 0.833229 0.163739
O O2 0.313968 0.888592 0.468034
O O3 0.422600 0.960449 0.376931
O O4 0.466835 0.940809 0.976910
O O5 0.294173 0.573061 0.490682
O O6 0.247267 0.622840 0.873339
O O7 0.419774 0.590920 0.389067
O O8 0.303752 0.487527 0.701939
O O9 0.750000 0.250000 0.500000
O O10 0.564454 0.248853 0.959229
O O11 0.642443 0.350921 0.892522
O O12 0.662070 0.227698 0.971350
O O13 0.351060 0.726559 0.506644
O O14 0.525890 0.695364 0.049437
O O15 0.750000 0.250000 0.000000
#
# Coordination Sequence:
#
# PCOD9256435 Si02
#       8
#     8   8   8   8   8   8   4   4
#     4  11  21  41  64  92 130 163 210 257 333 395
#     4  11  25  39  62  95 128 172 214 266 329 384
#     4  10  17  38  63  88 115 165 211 259 319 372
#     4  10  19  39  68  81 120 176 208 262 326 379
#     4  12  22  40  67  94 124 168 215 265 323 378
#     4  10  20  36  61  93 121 151 217 273 310 379
#     4  10  21  44  60  89 128 172 220 264 318 385
#     4  10  25  38  58  99 130 162 196 258 334 417
#
# _framework density 23.584679999999999
#
# number of rings (size 3 to 8) (size 9 to 14) (size 15 to 20)
#    0.000    1.429    7.143    1.286    2.000    1.714 
#    0.000    8.571    0.000    0.000    0.000    0.000 
#    0.000    0.000    0.000    0.000    0.000    0.000 
#
# Total GULP energy -156479.945536 kJ/mol
# GULP energy per Si atom -5588.569483 kJ/mol
# Density = 2.353100 g / cm^3
# Si number density = 23.584680 Si / 1000 Ang^3
#
#
#
# Elastic Constant Matrix: (Units=GPa)
#
#
# Indices 1 2 3 4 5 6 
#
# 1 157.3151 18.4263 4.4691 0.0000 1.8641 0.0000
# 2 18.4263 170.7956 0.2367 0.0000 5.9182 0.0000
# 3 4.4691 0.2367 33.0539 0.0000 7.6985 0.0000
# 4 0.0000 0.0000 0.0000 2955.8598 0.0000 -718.5950
# 5 1.8641 5.9182 7.6985 0.0000 15.0882 0.0000
# 6 0.0000 0.0000 0.0000 -718.5950 0.0000 230.7179
#
#
#
# Elastic Compliance Matrix: (Units=1/GPa)
#
#
# Indices 1 2 3 4 5 6 
#
# 1 0.006463 -0.000693 -0.000847 0.000000 -0.000095 0.000000
# 2 -0.000693 0.006019 0.000659 0.000000 -0.002612 0.000000
# 3 -0.000847 0.000659 0.034499 0.000000 -0.017756 0.000000
# 4 0.000000 0.000000 0.000000 0.001393 0.000000 0.004340
# 5 -0.000095 -0.002612 -0.017756 0.000000 0.076373 0.000000
# 6 0.000000 0.000000 0.000000 0.004340 0.000000 0.017850
#
#
# Mechanical properties :
#
#
# Convention : Reuss Voigt Hill
#
# Bulk Modulus (GPa) = 22.11428 45.26984 33.69206
# Shear Modulus (GPa) = 31.36122 662.86869 347.11495
#
# Velocity S-wave (km/s) = 3.65050 16.78300 12.14486
# Velocity P-wave (km/s) = 5.21202 19.86945 14.52515
#
# Compressibility (1/GPa) = 0.04521965
#
# Stress axis : x y z
#
# Youngs Moduli (GPa) = 154.72697 166.13292 28.98637
#
# Poissons Ratio (x) = 0.11510 0.02455
# Poissons Ratio (y) = 0.10720 -0.01910
# Poissons Ratio (z) = 0.13103 -0.10945
#
# Static dielectric constant tensor:
#      x y z
#    x 1.906550 0.000000 -0.061530 
#    y 0.000000 1.885850 0.000000 
#    z -0.061530 0.000000 2.013470 
# 
# From -- ./inp_files/67150.got.cif
#   From: 2010.05.17/outbox.cif.g08.bks.cpg/sg15_34_cif.got.tgz:67150.got - 2010.06.03 18:47:42.
