data_PCOD9256229
_publ_section_title
;
Structure prediction by ZEFSAII (Michael W. Deem and Ramdas Pophale) SiO2 
 PCOD9256229
Probable space group: C 2/C
;
_chemical_formula_sum "Si O2"
_cell_formula_units_Z 56
_cell_length_a 22.230812
_cell_length_b 16.351515
_cell_length_c 25.037626
_cell_angle_alpha 90.000000
_cell_angle_beta 17.824875
_cell_angle_gamma 90.000000
_cell_volume 2786.006107
_symmetry_space_group_name_H-M "C 2/C"
_symmetry_group_IT_number 15
_symmetry_cell_setting 'monoclinic'
loop_
_space_group_symop_operation_xyz
x,y,z
-x,y,1/2-z
-x,-y,-z
x,-y,1/2+z
1/2+x,1/2+y,z
1/2-x,1/2+y,1/2-z
1/2-x,1/2-y,-z
1/2+x,1/2-y,1/2+z
loop_
_atom_site_type_symbol
_atom_site_label
_atom_site_fract_x
_atom_site_fract_y
_atom_site_fract_z
Si Si1 0.977858 0.379129 0.413902
Si Si2 0.627742 0.399678 0.983736
Si Si3 0.314487 0.343767 0.445435
Si Si4 0.482565 0.991292 0.825302
Si Si5 0.805959 0.760013 0.124997
Si Si6 0.794718 0.161689 0.196928
Si Si7 0.197964 0.017555 0.796892
O O1 0.113192 0.309266 0.272616
O O2 0.133584 0.427029 0.320016
O O3 0.898286 0.443292 0.438273
O O4 0.828641 0.324519 0.574109
O O5 0.689068 0.343701 0.880877
O O6 0.797814 0.468957 0.840729
O O7 0.637941 0.360814 0.033015
O O8 0.409634 0.435993 0.160043
O O9 0.500000 0.355197 0.250000
O O10 0.250000 0.250000 0.500000
O O11 0.145040 0.408003 0.570840
O O12 0.500000 0.023297 0.750000
O O13 0.816545 0.734458 0.178978
O O14 0.987449 0.821216 0.964317
O O15 0.720035 0.073472 0.279754
O O16 0.000000 0.000000 0.000000
#
# Coordination Sequence:
#
# PCOD9256229 Si02
#       7
#     8   8   8   8   8   8   8
#     4  11  20  41  58  90 124 161 200 250 310 362
#     4  10  19  38  62  84 118 160 201 243 297 355
#     4  11  25  44  60  90 122 159 206 250 295 355
#     4  10  21  40  67  85 115 166 205 247 301 361
#     4  10  22  33  56  86 129 150 196 249 303 363
#     4  10  19  35  53  86 116 156 189 239 301 361
#     4  10  17  35  61  85 120 156 196 239 306 368
#
# _framework density 20.100459000000001
#
# number of rings (size 3 to 8) (size 9 to 14) (size 15 to 20)
#    0.000    1.714    5.714    1.286    0.000    4.000 
#    2.571    2.143    0.000    0.000    0.000    0.000 
#    0.000    0.000    0.000    0.000    0.000    0.000 
#
# Total GULP energy -156021.575327 kJ/mol
# GULP energy per Si atom -5572.199119 kJ/mol
# Density = 2.005471 g / cm^3
# Si number density = 20.100459 Si / 1000 Ang^3
#
#
#
# Elastic Constant Matrix: (Units=GPa)
#
#
# Indices 1 2 3 4 5 6 
#
# 1 97.3630 49.6323 15.9998 -0.0017 1.2711 0.0073
# 2 49.6323 116.8282 18.8348 0.0438 3.9836 0.0042
# 3 15.9998 18.8348 39.3021 -0.0660 4.7350 0.0112
# 4 -0.0017 0.0438 -0.0660 28.4979 0.0046 10.1632
# 5 1.2711 3.9836 4.7350 0.0046 23.5688 -0.0033
# 6 0.0073 0.0042 0.0112 10.1632 -0.0033 33.2166
#
#
#
# Elastic Compliance Matrix: (Units=1/GPa)
#
#
# Indices 1 2 3 4 5 6 
#
# 1 0.013434 -0.005242 -0.003050 0.000002 0.000774 -0.000002
# 2 -0.005242 0.011333 -0.003177 -0.000028 -0.000994 0.000009
# 3 -0.003050 -0.003177 0.028822 0.000085 -0.005089 -0.000035
# 4 0.000002 -0.000028 0.000085 0.039389 -0.000022 -0.012052
# 5 0.000774 -0.000994 -0.005089 -0.000022 0.043578 0.000013
# 6 -0.000002 0.000009 -0.000035 -0.012052 0.000013 0.033793
#
#
# Mechanical properties :
#
#
# Convention : Reuss Voigt Hill
#
# Bulk Modulus (GPa) = 32.62682 46.93634 39.78158
# Shear Modulus (GPa) = 24.56971 28.32507 26.44739
#
# Velocity S-wave (km/s) = 3.50000 3.75797 3.63128
# Velocity P-wave (km/s) = 5.70968 6.49857 6.11685
#
# Compressibility (1/GPa) = 0.03064963
#
# Stress axis : x y z
#
# Youngs Moduli (GPa) = 74.43734 88.24063 34.69632
#
# Poissons Ratio (x) = 0.46255 0.10583
# Poissons Ratio (y) = 0.39019 0.11024
# Poissons Ratio (z) = 0.22705 0.28036
#
# Static dielectric constant tensor:
#      x y z
#    x 1.728050 -0.000020 0.037820 
#    y -0.000020 1.767530 0.000030 
#    z 0.037820 0.000030 1.784250 
# 
# From -- ./inp_files/280401.got.cif
#   From: 2010.05.17/outbox.cif.g08.bks.cpg/sg15_141_cif.got.tgz:280401.got - 2010.06.03 18:47:42.
