data_PCOD9256670
_publ_section_title
;
Structure prediction by ZEFSAII (Michael W. Deem and Ramdas Pophale) SiO2 
 PCOD9256670
Probable space group: C 2/C
;
_chemical_formula_sum "Si O2"
_cell_formula_units_Z 60
_cell_length_a 13.988563
_cell_length_b 21.089336
_cell_length_c 14.692939
_cell_angle_alpha 90.000000
_cell_angle_beta 125.782693
_cell_angle_gamma 90.000000
_cell_volume 3516.367815
_symmetry_space_group_name_H-M "C 2/C"
_symmetry_group_IT_number 15
_symmetry_cell_setting 'monoclinic'
loop_
_space_group_symop_operation_xyz
x,y,z
-x,y,1/2-z
-x,-y,-z
x,-y,1/2+z
1/2+x,1/2+y,z
1/2-x,1/2+y,1/2-z
1/2-x,1/2-y,-z
1/2+x,1/2-y,1/2+z
loop_
_atom_site_type_symbol
_atom_site_label
_atom_site_fract_x
_atom_site_fract_y
_atom_site_fract_z
Si Si1 0.586095 0.804407 0.381283
Si Si2 0.193996 0.039069 0.415601
Si Si3 0.053791 0.472661 0.678648
Si Si4 0.860715 0.833702 0.523846
Si Si5 0.949209 0.586088 0.505661
Si Si6 0.977958 0.098032 0.934775
Si Si7 0.000000 0.941350 0.250000
Si Si8 0.190094 0.981207 0.608933
O O1 0.500000 0.818958 0.250000
O O2 0.719924 0.825662 0.433686
O O3 0.590476 0.729643 0.403420
O O4 0.548879 0.844495 0.449464
O O5 0.124098 0.102810 0.406813
O O6 0.314342 0.060648 0.435872
O O7 0.226792 0.004478 0.528598
O O8 0.111458 0.989356 0.317761
O O9 0.012241 0.423032 0.577515
O O10 0.193678 0.468130 0.770387
O O11 0.000000 0.466618 0.750000
O O12 0.021392 0.539855 0.613578
O O13 0.921355 0.845878 0.460662
O O14 0.996598 0.101498 0.837816
O O15 0.888755 0.038615 0.896913
O O16 0.101265 0.077322 0.048795
#
# Coordination Sequence:
#
# PCOD9256670 Si02
#       8
#     8   8   8   8   8   8   4   8
#     4  10  21  38  55  79 103 139 176 231 264 310
#     4   9  17  31  49  80 107 135 171 223 258 328
#     4  11  20  33  52  77 108 143 170 219 267 328
#     4   9  20  36  54  76 107 134 184 213 267 312
#     4  10  21  32  52  78 106 137 179 214 268 319
#     4   9  18  32  49  77 105 142 170 220 256 327
#     4  10  18  28  52  80 112 136 174 210 270 316
#     4   9  17  31  49  73 108 139 170 208 276 309
#
# _framework density 17.063061999999999
#
# number of rings (size 3 to 8) (size 9 to 14) (size 15 to 20)
#    0.000    2.400    1.333    2.000    4.667    0.000 
#    4.800    0.000    1.467    0.000    0.000    1.867 
#    0.000    0.000    0.000    0.000    0.000    0.000 
#
# Total GULP energy -167196.078501 kJ/mol
# GULP energy per Si atom -5573.202617 kJ/mol
# Density = 1.702423 g / cm^3
# Si number density = 17.063062 Si / 1000 Ang^3
#
#
#
# Elastic Constant Matrix: (Units=GPa)
#
#
# Indices 1 2 3 4 5 6 
#
# 1 61.7261 16.3731 39.7888 0.0000 -14.0169 0.0000
# 2 16.3731 52.1950 20.8881 0.0000 -5.1275 0.0000
# 3 39.7888 20.8881 95.0031 0.0000 -5.0784 0.0000
# 4 0.0000 0.0000 0.0000 9.1739 0.0000 -4.5975
# 5 -14.0169 -5.1275 -5.0784 0.0000 19.8195 0.0000
# 6 0.0000 0.0000 0.0000 -4.5975 0.0000 17.6327
#
#
#
# Elastic Compliance Matrix: (Units=1/GPa)
#
#
# Indices 1 2 3 4 5 6 
#
# 1 0.026842 -0.002975 -0.009748 0.000000 0.015716 0.000000
# 2 -0.002975 0.021707 -0.003385 0.000000 0.002644 0.000000
# 3 -0.009748 -0.003385 0.015145 0.000000 -0.003889 0.000000
# 4 0.000000 0.000000 0.000000 0.125389 0.000000 0.032694
# 5 0.015716 0.002644 -0.003889 0.000000 0.061258 0.000000
# 6 0.000000 0.000000 0.000000 0.032694 0.000000 0.065237
#
#
# Mechanical properties :
#
#
# Convention : Reuss Voigt Hill
#
# Bulk Modulus (GPa) = 31.76874 40.33602 36.05238
# Shear Modulus (GPa) = 13.95532 18.11685 16.03609
#
# Velocity S-wave (km/s) = 2.86294 3.26200 3.06896
# Velocity P-wave (km/s) = 5.43943 6.15453 5.80800
#
# Compressibility (1/GPa) = 0.03147748
#
# Stress axis : x y z
#
# Youngs Moduli (GPa) = 37.25509 46.06874 66.02924
#
# Poissons Ratio (x) = 0.13707 0.64362
# Poissons Ratio (y) = 0.11084 0.22352
# Poissons Ratio (z) = 0.36315 0.15595
#
# Static dielectric constant tensor:
#      x y z
#    x 1.622100 0.000000 -0.013240 
#    y 0.000000 1.562600 0.000000 
#    z -0.013240 0.000000 1.589030 
# 
# From -- ./inp_files/156010.got.cif
#   From: 2010.05.17/outbox.cif.g08.bks.cpg/sg15_79_cif.got.tgz:156010.got - 2010.06.03 18:47:42.
