data_PCOD9256969
_publ_section_title
;
Structure prediction by ZEFSAII (Michael W. Deem and Ramdas Pophale) SiO2 
 PCOD9256969
Probable space group: C 2/C
;
_chemical_formula_sum "Si O2"
_cell_formula_units_Z 52
_cell_length_a 24.271508
_cell_length_b 12.082384
_cell_length_c 16.960089
_cell_angle_alpha 90.000000
_cell_angle_beta 151.888416
_cell_angle_gamma 90.000000
_cell_volume 2343.547650
_symmetry_space_group_name_H-M "C 2/C"
_symmetry_group_IT_number 15
_symmetry_cell_setting 'monoclinic'
loop_
_space_group_symop_operation_xyz
x,y,z
-x,y,1/2-z
-x,-y,-z
x,-y,1/2+z
1/2+x,1/2+y,z
1/2-x,1/2+y,1/2-z
1/2-x,1/2-y,-z
1/2+x,1/2-y,1/2+z
loop_
_atom_site_type_symbol
_atom_site_label
_atom_site_fract_x
_atom_site_fract_y
_atom_site_fract_z
Si Si1 0.928239 0.161433 0.416579
Si Si2 0.362231 0.310288 0.416223
Si Si3 0.000000 0.248328 0.750000
Si Si4 0.788441 0.840521 0.880738
Si Si5 0.279017 0.194332 0.619069
Si Si6 0.008308 0.410534 0.355882
Si Si7 0.455541 0.871330 0.849329
O O1 0.038515 0.121313 0.504885
O O2 0.981801 0.273678 0.523313
O O3 0.857248 0.100533 0.395738
O O4 0.832602 0.203037 0.234793
O O5 0.263791 0.270983 0.229045
O O6 0.312368 0.358459 0.435019
O O7 0.420631 0.195284 0.523338
O O8 0.891467 0.183311 0.573424
O O9 0.941509 0.322610 0.743963
O O10 0.670923 0.889468 0.770389
O O11 0.250000 0.250000 0.500000
O O12 0.377884 0.108259 0.722103
O O13 0.039280 0.523208 0.440755
O O14 0.000000 0.416829 0.250000
#
# Coordination Sequence:
#
# PCOD9256969 Si02
#       7
#     8   8   4   8   8   8   8
#     4   8  18  31  50  75 104 136 173 212 253 308
#     4   9  18  33  51  77 106 135 178 217 259 309
#     4  10  18  32  54  78 106 142 174 212 256 318
#     4   9  18  32  51  78 105 138 174 213 259 313
#     4  10  18  30  50  74 104 139 171 209 263 308
#     4  11  20  32  54  82 108 134 172 224 265 306
#     4  10  19  33  52  82 110 133 172 220 268 306
#
# _framework density 22.188582
#
# number of rings (size 3 to 8) (size 9 to 14) (size 15 to 20)
#    0.000    2.462    2.308    0.462    0.000    5.538 
#    0.000    0.000    0.000    4.615    0.000    0.000 
#    0.000    0.000    0.000    0.000    0.000    0.000 
#
# Total GULP energy -144763.708654 kJ/mol
# GULP energy per Si atom -5567.834948 kJ/mol
# Density = 2.213808 g / cm^3
# Si number density = 22.188582 Si / 1000 Ang^3
#
#
#
# Elastic Constant Matrix: (Units=GPa)
#
#
# Indices 1 2 3 4 5 6 
#
# 1 199.4319 24.9405 56.6398 0.0000 18.7290 0.0000
# 2 24.9405 32.7226 1.8736 0.0000 3.7309 0.0000
# 3 56.6398 1.8736 83.5271 0.0000 -1.7572 0.0000
# 4 0.0000 0.0000 0.0000 2.5289 0.0000 9.3564
# 5 18.7290 3.7309 -1.7572 0.0000 52.2168 0.0000
# 6 0.0000 0.0000 0.0000 9.3564 0.0000 20.3669
#
#
#
# Elastic Compliance Matrix: (Units=1/GPa)
#
#
# Indices 1 2 3 4 5 6 
#
# 1 0.007237 -0.004965 -0.004847 0.000000 -0.002404 0.000000
# 2 -0.004965 0.034262 0.002586 0.000000 -0.000580 0.000000
# 3 -0.004847 0.002586 0.015244 0.000000 0.002067 0.000000
# 4 0.000000 0.000000 0.000000 -0.565196 0.000000 0.259645
# 5 -0.002404 -0.000580 0.002067 0.000000 0.020124 0.000000
# 6 0.000000 0.000000 0.000000 0.259645 0.000000 -0.070179
#
#
# Mechanical properties :
#
#
# Convention : Reuss Voigt Hill
#
# Bulk Modulus (GPa) = 23.64498 53.62105 38.63301
# Shear Modulus (GPa) = -9.43472 30.50436 10.53482
#
# Velocity S-wave (km/s) = -2.06429 3.71182 2.18132
# Velocity P-wave (km/s) = 2.23557 6.52600 4.87783
#
# Compressibility (1/GPa) = 0.04229228
#
# Stress axis : x y z
#
# Youngs Moduli (GPa) = 138.17001 29.18685 65.59801
#
# Poissons Ratio (x) = 0.14490 0.31795
# Poissons Ratio (y) = 0.68596 -0.16962
# Poissons Ratio (z) = 0.66970 -0.07547
#
# Static dielectric constant tensor:
#      x y z
#    x 1.961840 0.000000 0.001450 
#    y 0.000000 1.923420 0.000000 
#    z 0.001450 0.000000 1.854450 
# 
# From -- ./inp_files/211106.got.cif
#   From: 2010.05.17/outbox.cif.g08.bks.cpg/sg15_106_cif.got.tgz:211106.got - 2010.06.03 18:47:42.
