data_PCOD9256600
_publ_section_title
;
Structure prediction by ZEFSAII (Michael W. Deem and Ramdas Pophale) SiO2 
 PCOD9256600
Probable space group: C 2/C
;
_chemical_formula_sum "Si O2"
_cell_formula_units_Z 48
_cell_length_a 16.573043
_cell_length_b 16.064233
_cell_length_c 24.602923
_cell_angle_alpha 90.000000
_cell_angle_beta 28.923822
_cell_angle_gamma 90.000000
_cell_volume 3167.939366
_symmetry_space_group_name_H-M "C 2/C"
_symmetry_group_IT_number 15
_symmetry_cell_setting 'monoclinic'
loop_
_space_group_symop_operation_xyz
x,y,z
-x,y,1/2-z
-x,-y,-z
x,-y,1/2+z
1/2+x,1/2+y,z
1/2-x,1/2+y,1/2-z
1/2-x,1/2-y,-z
1/2+x,1/2-y,1/2+z
loop_
_atom_site_type_symbol
_atom_site_label
_atom_site_fract_x
_atom_site_fract_y
_atom_site_fract_z
Si Si1 0.692211 0.055244 0.148500
Si Si2 0.532635 0.664124 0.463613
Si Si3 0.539627 0.478238 0.583784
Si Si4 0.906842 0.843186 0.861850
Si Si5 0.978008 0.298389 0.409295
Si Si6 0.764401 0.087033 0.695982
O O1 0.500000 0.071527 0.250000
O O2 0.796659 0.134150 0.108987
O O3 0.709335 0.982122 0.183865
O O4 0.792290 0.022729 0.036455
O O5 0.494012 0.593612 0.441170
O O6 0.534419 0.750150 0.430432
O O7 0.381687 0.653691 0.595342
O O8 0.556311 0.430829 0.630429
O O9 0.385853 0.541205 0.667224
O O10 0.965794 0.769577 0.867797
O O11 0.000000 0.835682 0.750000
O O12 0.708362 0.832512 0.972614
O O13 0.107445 0.368609 0.315141
#
# Coordination Sequence:
#
# PCOD9256600 Si02
#       6
#     8   8   8   8   8   8
#     4   9  15  26  47  68  85 110 146 183 213 250
#     4   8  16  28  42  65  91 114 142 177 216 253
#     4   8  16  29  43  63  90 116 143 178 215 251
#     4  10  19  29  43  66  93 114 140 180 216 252
#     4  10  18  28  45  66  89 118 143 170 217 263
#     4   9  16  28  46  65  87 114 144 178 216 257
#
# _framework density 15.151805
#
# number of rings (size 3 to 8) (size 9 to 14) (size 15 to 20)
#    0.000    3.000    0.000    4.000    0.000    3.333 
#    0.000    0.833    0.000    7.000    0.000    0.000 
#    0.000    0.000    0.000    0.000    0.000    0.000 
#
# Total GULP energy -133649.453381 kJ/mol
# GULP energy per Si atom -5568.727224 kJ/mol
# Density = 1.511732 g / cm^3
# Si number density = 15.151805 Si / 1000 Ang^3
#
#
#
# Elastic Constant Matrix: (Units=GPa)
#
#
# Indices 1 2 3 4 5 6 
#
# 1 67.7559 30.6603 59.6381 -0.0003 -0.6535 0.0004
# 2 30.6603 53.6321 48.6600 -0.0006 4.3575 0.0004
# 3 59.6381 48.6600 131.0650 0.0014 -6.2597 0.0020
# 4 -0.0003 -0.0006 0.0014 19.3927 0.0007 4.7805
# 5 -0.6535 4.3575 -6.2597 0.0007 24.9813 -0.0007
# 6 0.0004 0.0004 0.0020 4.7805 -0.0007 14.7624
#
#
#
# Elastic Compliance Matrix: (Units=1/GPa)
#
#
# Indices 1 2 3 4 5 6 
#
# 1 0.025931 -0.006087 -0.009571 0.000001 -0.000658 0.000001
# 2 -0.006087 0.031052 -0.009134 0.000002 -0.007864 0.000000
# 3 -0.009571 -0.009134 0.015627 -0.000001 0.005259 -0.000001
# 4 0.000001 0.000002 -0.000001 0.056039 -0.000003 -0.018147
# 5 -0.000658 -0.007864 0.005259 -0.000003 0.042702 0.000002
# 6 0.000001 0.000000 -0.000001 -0.018147 0.000002 0.073616
#
#
# Mechanical properties :
#
#
# Convention : Reuss Voigt Hill
#
# Bulk Modulus (GPa) = 43.43000 58.92998 51.17999
# Shear Modulus (GPa) = 16.54382 19.39359 17.96871
#
# Velocity S-wave (km/s) = 3.30793 3.58152 3.44744
# Velocity P-wave (km/s) = 6.58144 7.48870 7.04968
#
# Compressibility (1/GPa) = 0.02302556
#
# Stress axis : x y z
#
# Youngs Moduli (GPa) = 38.56351 32.20413 63.99105
#
# Poissons Ratio (x) = 0.19604 0.61245
# Poissons Ratio (y) = 0.23475 0.58451
# Poissons Ratio (z) = 0.36908 0.29416
#
# Static dielectric constant tensor:
#      x y z
#    x 1.502230 0.000000 -0.000750 
#    y 0.000000 1.502550 0.000000 
#    z -0.000750 0.000000 1.483380 
# 
# From -- ./inp_files/96188.got.cif
#   From: 2010.05.17/outbox.cif.g08.bks.cpg/sg15_49_cif.got.tgz:96188.got - 2010.06.03 18:47:42.
