data_PCOD9256855
_publ_section_title
;
Structure prediction by ZEFSAII (Michael W. Deem and Ramdas Pophale) SiO2 
 PCOD9256855
Probable space group: C 2/C
;
_chemical_formula_sum "Si O2"
_cell_formula_units_Z 56
_cell_length_a 16.058428
_cell_length_b 25.613097
_cell_length_c 17.318418
_cell_angle_alpha 90.000000
_cell_angle_beta 153.078947
_cell_angle_gamma 90.000000
_cell_volume 3225.103526
_symmetry_space_group_name_H-M "C 2/C"
_symmetry_group_IT_number 15
_symmetry_cell_setting 'monoclinic'
loop_
_space_group_symop_operation_xyz
x,y,z
-x,y,1/2-z
-x,-y,-z
x,-y,1/2+z
1/2+x,1/2+y,z
1/2-x,1/2+y,1/2-z
1/2-x,1/2-y,-z
1/2+x,1/2-y,1/2+z
loop_
_atom_site_type_symbol
_atom_site_label
_atom_site_fract_x
_atom_site_fract_y
_atom_site_fract_z
Si Si1 0.168960 0.892270 0.564841
Si Si2 0.189730 0.960506 0.440039
Si Si3 0.583840 0.447202 0.034564
Si Si4 0.937060 0.387889 0.551249
Si Si5 0.137612 0.931388 0.807663
Si Si6 0.699766 0.689642 0.950985
Si Si7 0.463117 0.944630 0.423095
O O1 0.186701 0.944500 0.526365
O O2 0.345111 0.886976 0.764520
O O3 0.186751 0.844395 0.519067
O O4 0.994354 0.900815 0.474989
O O5 0.364588 0.933383 0.547473
O O6 0.000000 0.935561 0.250000
O O7 0.182120 0.018140 0.399021
O O8 0.804586 0.450419 0.227301
O O9 0.500000 0.500000 0.000000
O O10 0.487337 0.441771 0.871382
O O11 0.844439 0.337461 0.512402
O O12 0.882580 0.405476 0.421150
O O13 0.000000 0.898469 0.750000
O O14 0.344409 0.920779 0.948704
O O15 0.500000 0.686447 0.750000
O O16 0.750000 0.750000 0.000000
O O17 0.500000 0.000000 0.500000
#
# Coordination Sequence:
#
# PCOD9256855 Si02
#       7
#     8   8   8   8   8   8   8
#     4  11  21  34  54  76 104 149 186 226 275 331
#     4  10  18  30  44  69  99 133 182 219 261 318
#     4  12  21  35  52  73 103 143 189 234 273 326
#     4  11  19  34  53  76 103 146 186 226 274 327
#     4  11  23  36  48  71 105 138 183 233 277 319
#     4  11  22  37  55  83 116 149 184 228 275 337
#     4  12  21  35  52  74 103 142 189 234 273 326
#
# _framework density 17.363783999999999
#
# number of rings (size 3 to 8) (size 9 to 14) (size 15 to 20)
#    0.000    0.857    4.286    7.714    0.000    0.571 
#    5.143    0.000    0.000    0.000    0.000    0.000 
#    0.000    1.143    0.571    0.000    0.000    0.000 
#
# Total GULP energy -155926.528604 kJ/mol
# GULP energy per Si atom -5568.804593 kJ/mol
# Density = 1.732426 g / cm^3
# Si number density = 17.363784 Si / 1000 Ang^3
#
#
#
# Elastic Constant Matrix: (Units=GPa)
#
#
# Indices 1 2 3 4 5 6 
#
# 1 99.8282 20.4029 22.0405 0.0001 1.3311 0.0000
# 2 20.4029 63.3818 4.0900 0.0000 -6.0286 0.0000
# 3 22.0405 4.0900 118.9882 0.0002 8.5017 0.0001
# 4 0.0001 0.0000 0.0002 16.8389 0.0001 -1.4462
# 5 1.3311 -6.0286 8.5017 0.0001 34.1206 0.0001
# 6 0.0000 0.0000 0.0001 -1.4462 0.0001 12.3931
#
#
#
# Elastic Compliance Matrix: (Units=1/GPa)
#
#
# Indices 1 2 3 4 5 6 
#
# 1 0.011167 -0.003527 -0.001905 0.000000 -0.000584 0.000000
# 2 -0.003527 0.017230 -0.000169 0.000000 0.003224 0.000000
# 3 -0.001905 -0.000169 0.008919 0.000000 -0.002178 0.000000
# 4 0.000000 0.000000 0.000000 0.059988 0.000000 0.007000
# 5 -0.000584 0.003224 -0.002178 0.000000 0.030443 0.000000
# 6 0.000000 0.000000 0.000000 0.007000 0.000000 0.081507
#
#
# Mechanical properties :
#
#
# Convention : Reuss Voigt Hill
#
# Bulk Modulus (GPa) = 38.29690 41.69610 39.99650
# Shear Modulus (GPa) = 21.81876 28.38151 25.10014
#
# Velocity S-wave (km/s) = 3.54866 4.04731 3.80616
# Velocity P-wave (km/s) = 6.23651 6.77542 6.51155
#
# Compressibility (1/GPa) = 0.02611177
#
# Stress axis : x y z
#
# Youngs Moduli (GPa) = 89.55296 58.03692 112.12569
#
# Poissons Ratio (x) = 0.20471 0.21365
# Poissons Ratio (y) = 0.31587 0.01898
# Poissons Ratio (z) = 0.17064 0.00982
#
# Static dielectric constant tensor:
#      x y z
#    x 1.684810 0.000000 0.018940 
#    y 0.000000 1.613260 0.000000 
#    z 0.018940 0.000000 1.604350 
# 
# From -- ./inp_files/157232.got.cif
#   From: 2010.05.17/outbox.cif.g08.bks.cpg/sg15_79_cif.got.tgz:157232.got - 2010.06.03 18:47:42.
