data_PCOD9256737
_publ_section_title
;
Structure prediction by ZEFSAII (Michael W. Deem and Ramdas Pophale) SiO2 
 PCOD9256737
Probable space group: C 2/C
;
_chemical_formula_sum "Si O2"
_cell_formula_units_Z 56
_cell_length_a 9.608818
_cell_length_b 24.157880
_cell_length_c 9.882023
_cell_angle_alpha 90.000000
_cell_angle_beta 87.166327
_cell_angle_gamma 90.000000
_cell_volume 2291.096023
_symmetry_space_group_name_H-M "C 2/C"
_symmetry_group_IT_number 15
_symmetry_cell_setting 'monoclinic'
loop_
_space_group_symop_operation_xyz
x,y,z
-x,y,1/2-z
-x,-y,-z
x,-y,1/2+z
1/2+x,1/2+y,z
1/2-x,1/2+y,1/2-z
1/2-x,1/2-y,-z
1/2+x,1/2-y,1/2+z
loop_
_atom_site_type_symbol
_atom_site_label
_atom_site_fract_x
_atom_site_fract_y
_atom_site_fract_z
Si Si1 0.836590 0.556178 0.337152
Si Si2 0.979322 0.167322 0.477687
Si Si3 0.989177 0.382092 0.464299
Si Si4 0.604033 0.769540 0.578891
Si Si5 0.777183 0.835298 0.763171
Si Si6 0.418909 0.552126 0.940112
Si Si7 0.801369 0.432259 0.265602
O O1 0.970823 0.580932 0.407009
O O2 0.774528 0.601683 0.238454
O O3 0.717788 0.553378 0.458153
O O4 0.853574 0.494834 0.282952
O O5 0.013878 0.214452 0.582647
O O6 0.100559 0.168621 0.355643
O O7 0.990708 0.106642 0.537550
O O8 0.839312 0.179591 0.403594
O O9 0.024056 0.318601 0.501399
O O10 0.106822 0.399197 0.348564
O O11 0.843377 0.399544 0.401439
O O12 0.750000 0.750000 0.500000
O O13 0.654892 0.796370 0.715975
O O14 0.351164 0.556995 0.792934
O O15 0.500000 0.500000 0.000000
#
# Coordination Sequence:
#
# PCOD9256737 Si02
#       7
#     8   8   8   8   8   8   8
#     4   9  17  31  46  63  93 127 156 191 240 291
#     4   9  16  26  41  61  88 119 146 184 234 283
#     4   9  19  30  44  71  95 121 159 195 236 296
#     4   9  16  27  42  63  93 120 149 190 236 288
#     4   8  15  25  39  58  83 119 148 176 227 281
#     4  10  20  31  45  70  97 124 165 202 238 293
#     4  10  18  29  46  65  95 127 153 197 243 282
#
# _framework density 24.442450000000001
#
# number of rings (size 3 to 8) (size 9 to 14) (size 15 to 20)
#    0.000    2.857    0.000    3.857    0.000    7.429 
#    0.000    0.000    0.000    0.000    0.000    1.000 
#    0.000   75.429    0.000    0.000    0.000    0.000 
#
# Total GULP energy -156457.760614 kJ/mol
# GULP energy per Si atom -5587.777165 kJ/mol
# Density = 2.438682 g / cm^3
# Si number density = 24.442450 Si / 1000 Ang^3
#
#
#
# Elastic Constant Matrix: (Units=GPa)
#
#
# Indices 1 2 3 4 5 6 
#
# 1 121.3486 48.2947 58.6567 0.0000 36.6223 0.0000
# 2 48.2947 204.5685 65.6406 0.0000 41.4099 0.0000
# 3 58.6567 65.6406 95.1843 0.0000 48.7534 0.0000
# 4 0.0000 0.0000 0.0000 25.3066 0.0000 2.9610
# 5 36.6223 41.4099 48.7534 0.0000 60.7989 0.0000
# 6 0.0000 0.0000 0.0000 2.9610 0.0000 -12.7224
#
#
#
# Elastic Compliance Matrix: (Units=1/GPa)
#
#
# Indices 1 2 3 4 5 6 
#
# 1 0.011943 -0.000486 -0.005955 0.000000 -0.002087 0.000000
# 2 -0.000486 0.006365 -0.003427 0.000000 -0.001294 0.000000
# 3 -0.005955 -0.003427 0.022920 0.000000 -0.012458 0.000000
# 4 0.000000 0.000000 0.000000 0.038468 0.000000 0.008953
# 5 -0.002087 -0.001294 -0.012458 0.000000 0.028576 0.000000
# 6 0.000000 0.000000 0.000000 0.008953 0.000000 -0.076518
#
#
# Mechanical properties :
#
#
# Convention : Reuss Voigt Hill
#
# Bulk Modulus (GPa) = 46.53081 85.14281 65.83681
# Shear Modulus (GPa) = 85.24662 31.24391 58.24527
#
# Velocity S-wave (km/s) = 5.91204 3.57916 4.88685
# Velocity P-wave (km/s) = 8.10439 7.21042 7.67044
#
# Compressibility (1/GPa) = 0.02149113
#
# Stress axis : x y z
#
# Youngs Moduli (GPa) = 83.73294 157.11871 43.63018
#
# Poissons Ratio (x) = 0.07636 0.25984
# Poissons Ratio (y) = 0.04070 0.14950
# Poissons Ratio (z) = 0.49866 0.53839
#
# Static dielectric constant tensor:
#      x y z
#    x 2.087720 0.000000 -0.067110 
#    y 0.000000 1.842140 0.000000 
#    z -0.067110 0.000000 1.980560 
# 
# From -- ./inp_files/89055.got.cif
#   From: 2010.05.17/outbox.cif.g08.bks.cpg/sg15_45_cif.got.tgz:89055.got - 2010.06.03 18:47:42.
