data_PCOD9256394
_publ_section_title
;
Structure prediction by ZEFSAII (Michael W. Deem and Ramdas Pophale) SiO2 
 PCOD9256394
Probable space group: C 2/C
;
_chemical_formula_sum "Si O2"
_cell_formula_units_Z 60
_cell_length_a 12.010012
_cell_length_b 15.583511
_cell_length_c 16.808897
_cell_angle_alpha 90.000000
_cell_angle_beta 106.426999
_cell_angle_gamma 90.000000
_cell_volume 3017.508182
_symmetry_space_group_name_H-M "C 2/C"
_symmetry_group_IT_number 15
_symmetry_cell_setting 'monoclinic'
loop_
_space_group_symop_operation_xyz
x,y,z
-x,y,1/2-z
-x,-y,-z
x,-y,1/2+z
1/2+x,1/2+y,z
1/2-x,1/2+y,1/2-z
1/2-x,1/2-y,-z
1/2+x,1/2-y,1/2+z
loop_
_atom_site_type_symbol
_atom_site_label
_atom_site_fract_x
_atom_site_fract_y
_atom_site_fract_z
Si Si1 0.500000 0.905041 0.250000
Si Si2 0.995212 0.393346 0.076146
Si Si3 0.300926 0.992239 0.468175
Si Si4 0.760844 0.494348 0.698635
Si Si5 0.946393 0.247667 0.523301
Si Si6 0.540159 0.563781 0.579019
Si Si7 0.768408 0.343209 0.584864
Si Si8 0.894705 0.969409 0.680108
O O1 0.499436 0.856901 0.165893
O O2 0.613938 0.964083 0.270835
O O3 0.111085 0.447946 0.077810
O O4 0.983544 0.320276 0.007937
O O5 0.886717 0.456338 0.043204
O O6 0.201356 0.051519 0.408396
O O7 0.251794 0.912172 0.509270
O O8 0.674580 0.545537 0.622730
O O9 0.770678 0.398417 0.665019
O O10 0.692732 0.495753 0.767869
O O11 0.884310 0.290592 0.587174
O O12 0.839696 0.220475 0.443943
O O13 0.015801 0.161871 0.554375
O O14 0.500000 0.500000 0.500000
O O15 0.469389 0.538719 0.644995
O O16 0.000000 0.920357 0.750000
#
# Coordination Sequence:
#
# PCOD9256394 Si02
#       8
#     4   8   8   8   8   8   8   8
#     4  12  22  40  64  92 136 174 212 264 336 390
#     4  10  22  34  63  90 129 167 210 264 326 376
#     4  10  17  37  61  91 120 165 216 255 309 395
#     4  11  22  37  65  94 127 170 213 265 327 392
#     4  10  21  37  65  95 126 165 224 275 311 384
#     4  11  21  41  68  93 123 173 224 263 322 393
#     4  10  19  36  65  93 122 166 220 265 316 378
#     4  10  21  35  63  96 126 159 216 269 312 378
#
# _framework density 19.883956000000001
#
# number of rings (size 3 to 8) (size 9 to 14) (size 15 to 20)
#    0.000    1.600    5.333    0.000    0.000    0.000 
#    0.000    2.000   19.067    0.000    0.000    0.000 
#    0.000    0.000    0.000    0.000    0.000    0.000 
#
# Total GULP energy -167077.192280 kJ/mol
# GULP energy per Si atom -5569.239743 kJ/mol
# Density = 1.983870 g / cm^3
# Si number density = 19.883956 Si / 1000 Ang^3
#
#
#
# Elastic Constant Matrix: (Units=GPa)
#
#
# Indices 1 2 3 4 5 6 
#
# 1 103.8767 15.4962 23.2099 0.0000 1.1069 0.0000
# 2 15.4962 66.7473 6.3459 0.0000 -4.1662 0.0000
# 3 23.2099 6.3459 66.8060 0.0000 -0.8778 0.0000
# 4 0.0000 0.0000 0.0000 4.4286 0.0000 2.6666
# 5 1.1069 -4.1662 -0.8778 0.0000 35.0241 0.0000
# 6 0.0000 0.0000 0.0000 2.6666 0.0000 24.5108
#
#
#
# Elastic Compliance Matrix: (Units=1/GPa)
#
#
# Indices 1 2 3 4 5 6 
#
# 1 0.010753 -0.002203 -0.003536 0.000000 -0.000691 0.000000
# 2 -0.002203 0.015680 -0.000699 0.000000 0.001917 0.000000
# 3 -0.003536 -0.000699 0.016269 0.000000 0.000436 0.000000
# 4 0.000000 0.000000 0.000000 0.241633 0.000000 -0.026288
# 5 -0.000691 0.001917 0.000436 0.000000 0.028813 0.000000
# 6 0.000000 0.000000 0.000000 -0.026288 0.000000 0.043658
#
#
# Mechanical properties :
#
#
# Convention : Reuss Voigt Hill
#
# Bulk Modulus (GPa) = 33.52751 36.39267 34.96009
# Shear Modulus (GPa) = 13.17098 25.61790 19.39444
#
# Velocity S-wave (km/s) = 2.57649 3.59328 3.12650
# Velocity P-wave (km/s) = 5.07437 5.96304 5.53656
#
# Compressibility (1/GPa) = 0.02982625
#
# Stress axis : x y z
#
# Youngs Moduli (GPa) = 92.99883 63.77752 61.46601
#
# Poissons Ratio (x) = 0.14053 0.21732
# Poissons Ratio (y) = 0.20491 0.04295
# Poissons Ratio (z) = 0.32880 0.04456
#
# Static dielectric constant tensor:
#      x y z
#    x 1.722620 0.000000 -0.009520 
#    y 0.000000 1.653500 0.000000 
#    z -0.009520 0.000000 1.757430 
# 
# From -- ./inp_files/198375.got.cif
#   From: 2010.05.17/outbox.cif.g08.bks.cpg/sg15_100_cif.got.tgz:198375.got - 2010.06.03 18:47:42.
