data_PCOD9256135
_publ_section_title
;
Structure prediction by ZEFSAII (Michael W. Deem and Ramdas Pophale) SiO2 
 PCOD9256135
Probable space group: C 2/C
;
_chemical_formula_sum "Si O2"
_cell_formula_units_Z 48
_cell_length_a 7.620643
_cell_length_b 21.021321
_cell_length_c 14.446353
_cell_angle_alpha 90.000000
_cell_angle_beta 78.114623
_cell_angle_gamma 90.000000
_cell_volume 2264.633902
_symmetry_space_group_name_H-M "C 2/C"
_symmetry_group_IT_number 15
_symmetry_cell_setting 'monoclinic'
loop_
_space_group_symop_operation_xyz
x,y,z
-x,y,1/2-z
-x,-y,-z
x,-y,1/2+z
1/2+x,1/2+y,z
1/2-x,1/2+y,1/2-z
1/2-x,1/2-y,-z
1/2+x,1/2-y,1/2+z
loop_
_atom_site_type_symbol
_atom_site_label
_atom_site_fract_x
_atom_site_fract_y
_atom_site_fract_z
Si Si1 0.293820 0.311653 0.708086
Si Si2 0.548265 0.731113 0.036396
Si Si3 0.429734 0.374850 0.410004
Si Si4 0.000000 0.028921 0.750000
Si Si5 0.833010 0.564238 0.194779
Si Si6 0.500000 0.277349 0.250000
Si Si7 0.410963 0.141453 0.455120
O O1 0.474778 0.282574 0.647578
O O2 0.293222 0.377490 0.759903
O O3 0.178732 0.330165 0.628246
O O4 0.160200 0.264061 0.775255
O O5 0.520628 0.665229 0.982640
O O6 0.450063 0.794102 0.007851
O O7 0.750000 0.750000 0.000000
O O8 0.528774 0.428986 0.340375
O O9 0.404116 0.320587 0.335544
O O10 0.240776 0.396603 0.472130
O O11 0.187283 0.992074 0.709507
O O12 0.000000 0.553590 0.250000
O O13 0.931312 0.593631 0.093145
#
# Coordination Sequence:
#
# PCOD9256135 Si02
#       7
#     8   8   8   4   8   4   8
#     4  10  17  34  61  86 117 152 195 251 310 363
#     4  11  21  34  59  99 124 146 193 259 316 376
#     4  10  21  39  59  87 119 163 195 241 320 357
#     4  11  26  42  62  82 128 167 212 248 282 373
#     4  10  22  41  62  86 117 169 213 249 295 361
#     4  11  14  34  64  82 112 151 198 242 314 377
#     4  10  18  37  63  84 117 153 198 248 312 365
#
# _framework density 21.19548
#
# number of rings (size 3 to 8) (size 9 to 14) (size 15 to 20)
#    0.000    1.667    5.833    1.000    2.333    0.667 
#    3.000    7.500    0.000    0.000    0.000    0.000 
#    0.000    0.000    0.000    0.000    0.000    0.000 
#
# Total GULP energy -133675.106615 kJ/mol
# GULP energy per Si atom -5569.796109 kJ/mol
# Density = 2.114724 g / cm^3
# Si number density = 21.195480 Si / 1000 Ang^3
#
#
#
# Elastic Constant Matrix: (Units=GPa)
#
#
# Indices 1 2 3 4 5 6 
#
# 1 79.6636 31.2865 35.9258 0.0000 -37.0971 0.0000
# 2 31.2865 88.4836 42.0470 0.0000 -21.8670 0.0000
# 3 35.9258 42.0470 131.2777 0.0000 -43.1608 0.0000
# 4 0.0000 0.0000 0.0000 9.0606 0.0000 -29.6056
# 5 -37.0971 -21.8670 -43.1608 0.0000 34.4237 0.0000
# 6 0.0000 0.0000 0.0000 -29.6056 0.0000 14.1163
#
#
#
# Elastic Compliance Matrix: (Units=1/GPa)
#
#
# Indices 1 2 3 4 5 6 
#
# 1 0.027089 -0.003669 0.004412 0.000000 0.032394 0.000000
# 2 -0.003669 0.014421 -0.003238 0.000000 0.001147 0.000000
# 3 0.004412 -0.003238 0.014179 0.000000 0.020476 0.000000
# 4 0.000000 0.000000 0.000000 -0.018857 0.000000 -0.039549
# 5 0.032394 0.001147 0.020476 0.000000 0.090362 0.000000
# 6 0.000000 0.000000 0.000000 -0.039549 0.000000 -0.012104
#
#
# Mechanical properties :
#
#
# Convention : Reuss Voigt Hill
#
# Bulk Modulus (GPa) = 19.72397 57.54926 38.63662
# Shear Modulus (GPa) = 36.50188 24.19783 30.34986
#
# Velocity S-wave (km/s) = 4.15439 3.38250 3.78815
# Velocity P-wave (km/s) = 5.68664 6.51657 6.11570
#
# Compressibility (1/GPa) = 0.05069972
#
# Stress axis : x y z
#
# Youngs Moduli (GPa) = 36.91510 69.34367 70.52706
#
# Poissons Ratio (x) = 0.25445 -0.31120
# Poissons Ratio (y) = 0.13546 0.22834
# Poissons Ratio (z) = -0.16289 0.22451
#
# Static dielectric constant tensor:
#      x y z
#    x 1.858060 0.000000 0.022140 
#    y 0.000000 1.804090 0.000000 
#    z 0.022140 0.000000 1.801030 
# 
# From -- ./inp_files/191529.got.cif
#   From: 2010.05.17/outbox.cif.g08.bks.cpg/sg15_96_cif.got.tgz:191529.got - 2010.06.03 18:47:42.
