data_PCOD9256072
_publ_section_title
;
Structure prediction by ZEFSAII (Michael W. Deem and Ramdas Pophale) SiO2 
 PCOD9256072
Probable space group: C 2/C
;
_chemical_formula_sum "Si O2"
_cell_formula_units_Z 48
_cell_length_a 14.212338
_cell_length_b 12.503966
_cell_length_c 14.827144
_cell_angle_alpha 90.000000
_cell_angle_beta 84.343740
_cell_angle_gamma 90.000000
_cell_volume 2622.111267
_symmetry_space_group_name_H-M "C 2/C"
_symmetry_group_IT_number 15
_symmetry_cell_setting 'monoclinic'
loop_
_space_group_symop_operation_xyz
x,y,z
-x,y,1/2-z
-x,-y,-z
x,-y,1/2+z
1/2+x,1/2+y,z
1/2-x,1/2+y,1/2-z
1/2-x,1/2-y,-z
1/2+x,1/2-y,1/2+z
loop_
_atom_site_type_symbol
_atom_site_label
_atom_site_fract_x
_atom_site_fract_y
_atom_site_fract_z
Si Si1 0.603249 0.254289 0.955623
Si Si2 0.924747 0.982650 0.588793
Si Si3 0.892832 0.285824 0.511025
Si Si4 0.292834 0.360802 0.382521
Si Si5 0.586652 0.316584 0.297041
Si Si6 0.215616 0.921647 0.526471
O O1 0.583719 0.357309 0.893908
O O2 0.687470 0.180881 0.912323
O O3 0.502245 0.198635 0.977722
O O4 0.639797 0.305164 0.047642
O O5 0.947332 0.066474 0.664381
O O6 0.823805 0.020940 0.559279
O O7 0.000000 0.000000 0.500000
O O8 0.888656 0.248562 0.615783
O O9 0.847772 0.185679 0.459521
O O10 0.822926 0.384550 0.506025
O O11 0.328434 0.329483 0.280778
O O12 0.297623 0.488440 0.396644
O O13 0.500000 0.266778 0.250000
#
# Coordination Sequence:
#
# PCOD9256072 Si02
#       6
#     8   8   8   8   8   8
#     4  10  19  35  54  79 106 143 177 220 267 323
#     4  10  17  34  57  78 103 136 183 226 265 314
#     4  10  19  34  58  76 107 141 185 218 264 326
#     4  10  21  33  52  80 112 136 179 221 271 323
#     4  11  19  31  55  82 106 135 180 232 269 306
#     4   9  19  34  54  79 104 143 181 213 271 326
#
# _framework density 18.305859000000002
#
# number of rings (size 3 to 8) (size 9 to 14) (size 15 to 20)
#    0.000    2.000    5.000    1.000    0.000    2.000 
#    0.000    0.000    0.000    0.000    0.000    0.000 
#    0.000    0.000    0.000    0.000    0.000    0.000 
#
# Total GULP energy -133769.890839 kJ/mol
# GULP energy per Si atom -5573.745452 kJ/mol
# Density = 1.826419 g / cm^3
# Si number density = 18.305859 Si / 1000 Ang^3
#
#
#
# Elastic Constant Matrix: (Units=GPa)
#
#
# Indices 1 2 3 4 5 6 
#
# 1 151.7352 30.2486 35.9672 0.0000 -12.2352 0.0000
# 2 30.2486 34.8211 21.8394 0.0000 -1.1214 0.0000
# 3 35.9672 21.8394 58.7875 0.0000 -15.8499 0.0000
# 4 0.0000 0.0000 0.0000 18.2337 0.0000 1.6405
# 5 -12.2352 -1.1214 -15.8499 0.0000 25.1347 0.0000
# 6 0.0000 0.0000 0.0000 1.6405 0.0000 30.3939
#
#
#
# Elastic Compliance Matrix: (Units=1/GPa)
#
#
# Indices 1 2 3 4 5 6 
#
# 1 0.008510 -0.005802 -0.002414 0.000000 0.002361 0.000000
# 2 -0.005802 0.042990 -0.015260 0.000000 -0.010529 0.000000
# 3 -0.002414 -0.015260 0.028502 0.000000 0.016117 0.000000
# 4 0.000000 0.000000 0.000000 0.055111 0.000000 -0.002975
# 5 0.002361 -0.010529 0.016117 0.000000 0.050629 0.000000
# 6 0.000000 0.000000 0.000000 -0.002975 0.000000 0.033062
#
#
# Mechanical properties :
#
#
# Convention : Reuss Voigt Hill
#
# Bulk Modulus (GPa) = 30.25765 46.82826 38.54295
# Shear Modulus (GPa) = 18.06540 25.23834 21.65187
#
# Velocity S-wave (km/s) = 3.14485 3.71712 3.44289
# Velocity P-wave (km/s) = 5.45450 6.63771 6.07498
#
# Compressibility (1/GPa) = 0.03304950
#
# Stress axis : x y z
#
# Youngs Moduli (GPa) = 117.51207 23.26125 35.08530
#
# Poissons Ratio (x) = 0.13496 0.08471
# Poissons Ratio (y) = 0.68180 0.53539
# Poissons Ratio (z) = 0.28373 0.35496
#
# Static dielectric constant tensor:
#      x y z
#    x 1.662560 0.000000 0.027060 
#    y 0.000000 1.658550 0.000000 
#    z 0.027060 0.000000 1.638730 
# 
# From -- ./inp_files/152028.got.cif
#   From: 2010.05.17/outbox.cif.g08.bks.cpg/sg15_77_cif.got.tgz:152028.got - 2010.06.03 18:47:42.
