data_PCOD9256105
_publ_section_title
;
Structure prediction by ZEFSAII (Michael W. Deem and Ramdas Pophale) SiO2 
 PCOD9256105
Probable space group: C 2/C
;
_chemical_formula_sum "Si O2"
_cell_formula_units_Z 56
_cell_length_a 15.982374
_cell_length_b 9.661067
_cell_length_c 18.325466
_cell_angle_alpha 90.000000
_cell_angle_beta 64.921603
_cell_angle_gamma 90.000000
_cell_volume 2562.828403
_symmetry_space_group_name_H-M "C 2/C"
_symmetry_group_IT_number 15
_symmetry_cell_setting 'monoclinic'
loop_
_space_group_symop_operation_xyz
x,y,z
-x,y,1/2-z
-x,-y,-z
x,-y,1/2+z
1/2+x,1/2+y,z
1/2-x,1/2+y,1/2-z
1/2-x,1/2-y,-z
1/2+x,1/2-y,1/2+z
loop_
_atom_site_type_symbol
_atom_site_label
_atom_site_fract_x
_atom_site_fract_y
_atom_site_fract_z
Si Si1 0.500000 0.956472 0.750000
Si Si2 0.138736 0.469675 0.983683
Si Si3 0.495661 0.587517 0.911492
Si Si4 0.840709 0.010419 0.390729
Si Si5 0.000000 0.062229 0.750000
Si Si6 0.042751 0.384654 0.382154
Si Si7 0.622574 0.633287 0.416638
Si Si8 0.171702 0.675401 0.106395
O O1 0.410150 0.871229 0.809706
O O2 0.466920 0.046736 0.693048
O O3 0.243161 0.416749 0.932072
O O4 0.097363 0.521332 0.921826
O O5 0.151924 0.593738 0.038334
O O6 0.061925 0.372742 0.048431
O O7 0.415635 0.470136 0.927150
O O8 0.512259 0.639535 0.823086
O O9 0.586757 0.516085 0.906077
O O10 0.446533 0.677133 0.991081
O O11 0.906786 0.026836 0.296210
O O12 0.823629 0.842607 0.400508
O O13 0.099160 0.242463 0.362510
O O14 0.727572 0.633093 0.402186
#
# Coordination Sequence:
#
# PCOD9256105 Si02
#       8
#     4   8   8   8   4   8   8   8
#     4  10  25  39  54  88 126 154 195 245 292 364
#     4  10  19  35  61  85 110 150 204 241 279 347
#     4   9  21  35  59  87 116 148 202 245 288 352
#     4  10  17  34  59  86 108 149 191 251 282 338
#     4   8  19  33  52  80 118 140 187 249 288 324
#     4  10  22  38  58  86 121 157 194 241 299 356
#     4  11  20  38  62  86 118 163 192 238 302 356
#     4  11  19  36  62  85 114 153 199 243 294 338
#
# _framework density 21.850859
#
# number of rings (size 3 to 8) (size 9 to 14) (size 15 to 20)
#    0.857    1.143    2.857    1.714    0.000    1.714 
#    0.000    0.714    0.000    0.000    0.000    0.000 
#    0.000    0.000    0.000    0.000    0.000    0.000 
#
# Total GULP energy -155891.578601 kJ/mol
# GULP energy per Si atom -5567.556379 kJ/mol
# Density = 2.180113 g / cm^3
# Si number density = 21.850859 Si / 1000 Ang^3
#
#
#
# Elastic Constant Matrix: (Units=GPa)
#
#
# Indices 1 2 3 4 5 6 
#
# 1 148.0301 38.2036 48.7974 0.0000 6.3640 0.0000
# 2 38.2036 37.4590 23.5471 0.0000 9.5173 0.0000
# 3 48.7974 23.5471 137.2246 0.0000 4.3399 0.0000
# 4 0.0000 0.0000 0.0000 12.9730 0.0000 3.3773
# 5 6.3640 9.5173 4.3399 0.0000 35.3562 0.0000
# 6 0.0000 0.0000 0.0000 3.3773 0.0000 34.0761
#
#
#
# Elastic Compliance Matrix: (Units=1/GPa)
#
#
# Indices 1 2 3 4 5 6 
#
# 1 0.009636 -0.008833 -0.001939 0.000000 0.000881 0.000000
# 2 -0.008833 0.040114 -0.003465 0.000000 -0.008783 0.000000
# 3 -0.001939 -0.003465 0.008564 0.000000 0.000230 0.000000
# 4 0.000000 0.000000 0.000000 0.079125 0.000000 -0.007842
# 5 0.000881 -0.008783 0.000230 0.000000 0.030461 0.000000
# 6 0.000000 0.000000 0.000000 -0.007842 0.000000 0.030123
#
#
# Mechanical properties :
#
#
# Convention : Reuss Voigt Hill
#
# Bulk Modulus (GPa) = 33.51058 60.42331 46.96694
# Shear Modulus (GPa) = 21.14676 30.62542 25.88609
#
# Velocity S-wave (km/s) = 3.11429 3.74781 3.44564
# Velocity P-wave (km/s) = 5.31987 6.81474 6.11317
#
# Compressibility (1/GPa) = 0.02984132
#
# Stress axis : x y z
#
# Youngs Moduli (GPa) = 103.77500 24.92913 116.76792
#
# Poissons Ratio (x) = 0.22020 0.22640
# Poissons Ratio (y) = 0.91663 0.40455
# Poissons Ratio (z) = 0.20120 0.08637
#
# Static dielectric constant tensor:
#      x y z
#    x 1.816470 0.000000 0.005340 
#    y 0.000000 1.840180 0.000000 
#    z 0.005340 0.000000 1.881770 
# 
# From -- ./inp_files/203990.got.cif
#   From: 2010.05.17/outbox.cif.g08.bks.cpg/sg15_102_cif.got.tgz:203990.got - 2010.06.03 18:47:42.
