data_PCOD9256710
_publ_section_title
;
Structure prediction by ZEFSAII (Michael W. Deem and Ramdas Pophale) SiO2 
 PCOD9256710
Probable space group: C 2/C
;
_chemical_formula_sum "Si O2"
_cell_formula_units_Z 48
_cell_length_a 24.815484
_cell_length_b 14.211904
_cell_length_c 26.150353
_cell_angle_alpha 90.000000
_cell_angle_beta 18.378714
_cell_angle_gamma 90.000000
_cell_volume 2907.848108
_symmetry_space_group_name_H-M "C 2/C"
_symmetry_group_IT_number 15
_symmetry_cell_setting 'monoclinic'
loop_
_space_group_symop_operation_xyz
x,y,z
-x,y,1/2-z
-x,-y,-z
x,-y,1/2+z
1/2+x,1/2+y,z
1/2-x,1/2+y,1/2-z
1/2-x,1/2-y,-z
1/2+x,1/2-y,1/2+z
loop_
_atom_site_type_symbol
_atom_site_label
_atom_site_fract_x
_atom_site_fract_y
_atom_site_fract_z
Si Si1 0.170541 0.644869 0.804884
Si Si2 0.003353 0.642302 0.305878
Si Si3 0.114335 0.459374 0.801916
Si Si4 0.615193 0.357616 0.194038
Si Si5 0.718146 0.540686 0.698099
Si Si6 0.280167 0.144811 0.195253
O O1 0.183240 0.564235 0.750301
O O2 0.282989 0.609874 0.751938
O O3 0.213744 0.750035 0.750112
O O4 0.975486 0.643348 0.000068
O O5 0.809867 0.641880 0.499959
O O6 0.000000 0.611202 0.250000
O O7 0.113130 0.578710 0.245606
O O8 0.067120 0.749948 0.249894
O O9 0.213212 0.390201 0.751867
O O10 0.915561 0.459234 0.000007
O O11 0.500000 0.388689 0.250000
O O12 0.604350 0.421193 0.254379
O O13 0.683739 0.435838 0.749794
#
# Coordination Sequence:
#
# PCOD9256710 Si02
#       6
#     8   8   8   8   8   8
#     4   9  16  29  46  65  86 112 141 173 210 252
#     4  10  18  29  44  64  87 114 142 173 209 250
#     4   8  16  29  45  62  87 117 141 166 210 259
#     4  10  18  29  44  64  87 114 142 173 209 250
#     4   8  16  29  45  62  87 117 141 166 210 259
#     4   9  16  29  46  65  86 112 141 173 210 252
#
# _framework density 16.507052000000002
#
# number of rings (size 3 to 8) (size 9 to 14) (size 15 to 20)
#    0.000    3.000    0.000    5.000    0.000    0.000 
#    0.000    8.333    0.000    1.000    0.000    7.000 
#    0.000    0.000    0.000    0.000    0.000    0.000 
#
# Total GULP energy -133719.363504 kJ/mol
# GULP energy per Si atom -5571.640146 kJ/mol
# Density = 1.646948 g / cm^3
# Si number density = 16.507052 Si / 1000 Ang^3
#
#
#
# Elastic Constant Matrix: (Units=GPa)
#
#
# Indices 1 2 3 4 5 6 
#
# 1 167.9370 94.1791 19.0329 0.0055 8.5128 -0.0022
# 2 94.1791 127.1860 12.1166 0.0027 7.3601 -0.0041
# 3 19.0329 12.1166 17.8841 0.0228 4.9964 -0.0117
# 4 0.0055 0.0027 0.0228 22.3982 -0.0222 0.4928
# 5 8.5128 7.3601 4.9964 -0.0222 27.4119 0.0055
# 6 -0.0022 -0.0041 -0.0117 0.4928 0.0055 27.7288
#
#
#
# Elastic Compliance Matrix: (Units=1/GPa)
#
#
# Indices 1 2 3 4 5 6 
#
# 1 0.010853 -0.007408 -0.006475 0.000005 -0.000201 -0.000003
# 2 -0.007408 0.013505 -0.000943 0.000000 -0.001153 0.000001
# 3 -0.006475 -0.000943 0.066183 -0.000076 -0.009799 0.000031
# 4 0.000005 0.000000 -0.000076 0.044664 0.000049 -0.000794
# 5 -0.000201 -0.001153 -0.009799 0.000049 0.038639 -0.000013
# 6 -0.000003 0.000001 0.000031 -0.000794 -0.000013 0.036078
#
#
# Mechanical properties :
#
#
# Convention : Reuss Voigt Hill
#
# Bulk Modulus (GPa) = 16.42355 62.62936 39.52646
# Shear Modulus (GPa) = 19.24035 28.01966 23.63000
#
# Velocity S-wave (km/s) = 3.41777 4.12446 3.78763
# Velocity P-wave (km/s) = 5.05429 7.79134 6.56699
#
# Compressibility (1/GPa) = 0.06088818
#
# Stress axis : x y z
#
# Youngs Moduli (GPa) = 92.13979 74.04863 15.10956
#
# Poissons Ratio (x) = 0.54855 0.09784
# Poissons Ratio (y) = 0.68257 0.01425
# Poissons Ratio (z) = 0.59661 0.06985
#
# Static dielectric constant tensor:
#      x y z
#    x 1.565070 0.000000 -0.001480 
#    y 0.000000 1.541980 0.000010 
#    z -0.001480 0.000010 1.581510 
# 
# From -- ./inp_files/58398.got.cif
#   From: 2010.05.17/outbox.cif.g08.bks.cpg/sg15_30_cif.got.tgz:58398.got - 2010.06.03 18:47:42.
