data_PCOD9256168
_publ_section_title
;
Structure prediction by ZEFSAII (Michael W. Deem and Ramdas Pophale) SiO2 
 PCOD9256168
Probable space group: C 2/C
;
_chemical_formula_sum "Si O2"
_cell_formula_units_Z 64
_cell_length_a 17.974098
_cell_length_b 20.232933
_cell_length_c 22.675463
_cell_angle_alpha 90.000000
_cell_angle_beta 158.996493
_cell_angle_gamma 90.000000
_cell_volume 2955.701130
_symmetry_space_group_name_H-M "C 2/C"
_symmetry_group_IT_number 15
_symmetry_cell_setting 'monoclinic'
loop_
_space_group_symop_operation_xyz
x,y,z
-x,y,1/2-z
-x,-y,-z
x,-y,1/2+z
1/2+x,1/2+y,z
1/2-x,1/2+y,1/2-z
1/2-x,1/2-y,-z
1/2+x,1/2-y,1/2+z
loop_
_atom_site_type_symbol
_atom_site_label
_atom_site_fract_x
_atom_site_fract_y
_atom_site_fract_z
Si Si1 0.404545 0.826365 0.519673
Si Si2 0.133824 0.607191 0.716610
Si Si3 0.369806 0.954870 0.805483
Si Si4 0.339869 0.291375 0.278016
Si Si5 0.037689 0.913607 0.933346
Si Si6 0.714682 0.173690 0.438303
Si Si7 0.817072 0.676211 0.565786
Si Si8 0.289263 0.031235 0.108951
O O1 0.439471 0.904986 0.544884
O O2 0.624206 0.786238 0.681970
O O3 0.277445 0.802367 0.369817
O O4 0.290514 0.808559 0.496768
O O5 0.099858 0.533799 0.663727
O O6 0.224645 0.662905 0.740084
O O7 0.925103 0.635542 0.592437
O O8 0.311365 0.596749 0.898072
O O9 0.293510 0.948910 0.680724
O O10 0.194308 0.923124 0.716922
O O11 0.577817 0.313375 0.444580
O O12 0.116155 0.860177 0.944691
O O13 0.098661 0.985497 0.954118
O O14 0.701121 0.094280 0.424816
O O15 0.000000 0.302813 0.750000
O O16 0.750000 0.750000 0.500000
O O17 0.000000 0.679377 0.750000
O O18 0.500000 0.991087 0.250000
#
# Coordination Sequence:
#
# PCOD9256168 Si02
#       8
#     8   8   8   8   8   8   8   8
#     4  12  27  41  66  93 138 174 225 271 336 401
#     4  10  23  42  69  98 137 168 231 281 340 398
#     4  11  21  40  65 103 128 175 219 283 333 397
#     4  12  27  44  64  94 134 183 218 275 332 405
#     4  10  20  36  68 100 130 167 225 277 338 395
#     4  11  21  41  69  96 131 169 218 265 326 403
#     4  10  23  42  67  97 133 178 224 283 334 404
#     4  10  17  34  67  98 128 164 215 273 326 389
#
# _framework density 21.653068999999999
#
# number of rings (size 3 to 8) (size 9 to 14) (size 15 to 20)
#    0.000    1.250    2.500    6.375    3.500    1.500 
#    0.000    0.000    0.000    0.000    0.000    0.000 
#    0.000    0.000    0.000    0.000    0.000    0.000 
#
# Total GULP energy -178697.888956 kJ/mol
# GULP energy per Si atom -5584.309030 kJ/mol
# Density = 2.160379 g / cm^3
# Si number density = 21.653069 Si / 1000 Ang^3
#
#
#
# Elastic Constant Matrix: (Units=GPa)
#
#
# Indices 1 2 3 4 5 6 
#
# 1 120.8366 53.6194 37.7281 -0.0212 26.8596 -0.0010
# 2 53.6194 129.7910 26.6536 -0.0605 8.2505 -0.0127
# 3 37.7281 26.6536 47.3462 0.0275 13.0020 0.0055
# 4 -0.0212 -0.0605 0.0275 27.5767 -0.0222 8.4814
# 5 26.8596 8.2505 13.0020 -0.0222 37.6850 -0.0005
# 6 -0.0010 -0.0127 0.0055 8.4814 -0.0005 35.8894
#
#
#
# Elastic Compliance Matrix: (Units=1/GPa)
#
#
# Indices 1 2 3 4 5 6 
#
# 1 0.013530 -0.003764 -0.006894 0.000004 -0.006441 -0.000001
# 2 -0.003764 0.009761 -0.002922 0.000023 0.001554 -0.000002
# 3 -0.006894 -0.002922 0.029532 -0.000046 -0.004636 0.000005
# 4 0.000004 0.000023 -0.000046 0.039105 0.000031 -0.009241
# 5 -0.006441 0.001554 -0.004636 0.000031 0.032386 -0.000006
# 6 -0.000001 -0.000002 0.000005 -0.009241 -0.000006 0.030047
#
#
# Mechanical properties :
#
#
# Convention : Reuss Voigt Hill
#
# Bulk Modulus (GPa) = 38.96617 59.33069 49.14843
# Shear Modulus (GPa) = 26.30523 32.22841 29.26682
#
# Velocity S-wave (km/s) = 3.48925 3.86216 3.68043
# Velocity P-wave (km/s) = 5.85388 6.88102 6.38813
#
# Compressibility (1/GPa) = 0.02566328
#
# Stress axis : x y z
#
# Youngs Moduli (GPa) = 73.90933 102.44661 33.86115
#
# Poissons Ratio (x) = 0.38566 0.23342
# Poissons Ratio (y) = 0.27823 0.09895
# Poissons Ratio (z) = 0.50950 0.29936
#
# Static dielectric constant tensor:
#      x y z
#    x 1.835880 -0.000020 0.047290 
#    y -0.000020 1.871040 -0.000030 
#    z 0.047290 -0.000030 1.795880 
# 
# From -- ./inp_files/278136.got.cif
#   From: 2010.05.17/outbox.cif.g08.bks.cpg/sg15_140_cif.got.tgz:278136.got - 2010.06.03 18:47:42.
