data_PCOD9256656
_publ_section_title
;
Structure prediction by ZEFSAII (Michael W. Deem and Ramdas Pophale) SiO2 
 PCOD9256656
Probable space group: C 2/C
;
_chemical_formula_sum "Si O2"
_cell_formula_units_Z 48
_cell_length_a 14.569079
_cell_length_b 8.046830
_cell_length_c 14.832145
_cell_angle_alpha 90.000000
_cell_angle_beta 93.390664
_cell_angle_gamma 90.000000
_cell_volume 1735.801179
_symmetry_space_group_name_H-M "C 2/C"
_symmetry_group_IT_number 15
_symmetry_cell_setting 'monoclinic'
loop_
_space_group_symop_operation_xyz
x,y,z
-x,y,1/2-z
-x,-y,-z
x,-y,1/2+z
1/2+x,1/2+y,z
1/2-x,1/2+y,1/2-z
1/2-x,1/2-y,-z
1/2+x,1/2-y,1/2+z
loop_
_atom_site_type_symbol
_atom_site_label
_atom_site_fract_x
_atom_site_fract_y
_atom_site_fract_z
Si Si1 0.391392 0.352623 0.091937
Si Si2 0.454833 0.916034 0.838632
Si Si3 0.285009 0.706225 0.755931
Si Si4 0.318987 0.474468 0.429412
Si Si5 0.083866 0.212885 0.320789
Si Si6 0.627381 0.105963 0.991710
O O1 0.473557 0.227936 0.122847
O O2 0.303240 0.311794 0.150660
O O3 0.413527 0.535803 0.129861
O O4 0.376395 0.385433 0.984752
O O5 0.500000 0.984306 0.750000
O O6 0.358151 0.844474 0.791978
O O7 0.418492 0.991016 0.929942
O O8 0.315921 0.548806 0.821514
O O9 0.181634 0.743672 0.780439
O O10 0.347130 0.289011 0.467015
O O11 0.216709 0.489518 0.462876
O O12 0.073112 0.351150 0.398044
O O13 0.000000 0.196431 0.250000
#
# Coordination Sequence:
#
# PCOD9256656 Si02
#       6
#     8   8   8   8   8   8
#     4  10  18  28  50  77  95 120 157 197 235 274
#     4   9  16  26  44  72 101 120 146 190 239 278
#     4   9  18  31  46  69 102 126 150 194 240 281
#     4   8  15  28  46  67  93 126 157 186 233 283
#     4  10  19  31  50  71  93 126 162 194 232 276
#     4   8  15  28  45  67  95 125 154 190 233 281
#
# _framework density 27.652937000000001
#
# number of rings (size 3 to 8) (size 9 to 14) (size 15 to 20)
#    0.000    3.000    0.000    4.500    0.000    7.333 
#    0.000    0.000    0.000   23.000    0.000    0.000 
#    0.000    0.000    0.000    0.000    0.000    0.000 
#
# Total GULP energy -134326.762237 kJ/mol
# GULP energy per Si atom -5596.948427 kJ/mol
# Density = 2.759000 g / cm^3
# Si number density = 27.652937 Si / 1000 Ang^3
#
#
#
# Elastic Constant Matrix: (Units=GPa)
#
#
# Indices 1 2 3 4 5 6 
#
# 1 120.0430 7.9280 46.9237 0.0000 -23.4168 0.0000
# 2 7.9280 85.3306 27.8523 0.0000 -1.8742 0.0000
# 3 46.9237 27.8523 153.4681 0.0000 -2.5408 0.0000
# 4 0.0000 0.0000 0.0000 245.4045 0.0000 -62.5956
# 5 -23.4168 -1.8742 -2.5408 0.0000 48.2055 0.0000
# 6 0.0000 0.0000 0.0000 -62.5956 0.0000 32.3453
#
#
#
# Elastic Compliance Matrix: (Units=1/GPa)
#
#
# Indices 1 2 3 4 5 6 
#
# 1 0.010523 0.000164 -0.003165 0.000000 0.004951 0.000000
# 2 0.000164 0.012466 -0.002305 0.000000 0.000443 0.000000
# 3 -0.003165 -0.002305 0.007882 0.000000 -0.001212 0.000000
# 4 0.000000 0.000000 0.000000 0.008047 0.000000 0.015573
# 5 0.004951 0.000443 -0.001212 0.000000 0.023103 0.000000
# 6 0.000000 0.000000 0.000000 0.015573 0.000000 0.061054
#
#
# Mechanical properties :
#
#
# Convention : Reuss Voigt Hill
#
# Bulk Modulus (GPa) = 49.36264 58.24997 53.80631
# Shear Modulus (GPa) = 35.60245 83.60025 59.60135
#
# Velocity S-wave (km/s) = 3.59203 5.50432 4.64760
# Velocity P-wave (km/s) = 5.92394 7.84265 6.94983
#
# Compressibility (1/GPa) = 0.02025823
#
# Stress axis : x y z
#
# Youngs Moduli (GPa) = 95.03404 80.21783 126.86979
#
# Poissons Ratio (x) = -0.01317 0.40156
# Poissons Ratio (y) = -0.01561 0.29247
# Poissons Ratio (z) = 0.30080 0.18493
#
# Static dielectric constant tensor:
#      x y z
#    x 2.311340 0.000000 0.084850 
#    y 0.000000 2.225450 0.000000 
#    z 0.084850 0.000000 2.147900 
# 
# From -- ./inp_files/143539.got.cif
#   From: 2010.05.17/outbox.cif.g08.bks.cpg/sg15_72_cif.got.tgz:143539.got - 2010.06.03 18:47:42.
