data_PCOD9256006
_publ_section_title
;
Structure prediction by ZEFSAII (Michael W. Deem and Ramdas Pophale) SiO2 
 PCOD9256006
Probable space group: C 2/C
;
_chemical_formula_sum "Si O2"
_cell_formula_units_Z 48
_cell_length_a 29.034411
_cell_length_b 4.914545
_cell_length_c 19.889707
_cell_angle_alpha 90.000000
_cell_angle_beta 117.624875
_cell_angle_gamma 90.000000
_cell_volume 2514.546078
_symmetry_space_group_name_H-M "C 2/C"
_symmetry_group_IT_number 15
_symmetry_cell_setting 'monoclinic'
loop_
_space_group_symop_operation_xyz
x,y,z
-x,y,1/2-z
-x,-y,-z
x,-y,1/2+z
1/2+x,1/2+y,z
1/2-x,1/2+y,1/2-z
1/2-x,1/2-y,-z
1/2+x,1/2-y,1/2+z
loop_
_atom_site_type_symbol
_atom_site_label
_atom_site_fract_x
_atom_site_fract_y
_atom_site_fract_z
Si Si1 0.748175 0.124072 0.703765
Si Si2 0.633423 0.180992 0.630735
Si Si3 0.053776 0.586079 0.270177
Si Si4 0.362554 0.320156 0.269191
Si Si5 0.036845 0.834023 0.474288
Si Si6 0.976323 0.667215 0.625103
O O1 0.749372 0.809485 0.726798
O O2 0.691202 0.189144 0.637313
O O3 0.802271 0.197483 0.704995
O O4 0.627544 0.889838 0.662584
O O5 0.589653 0.260761 0.548347
O O6 0.630969 0.390150 0.691246
O O7 0.097975 0.749859 0.263216
O O8 0.065591 0.446952 0.349400
O O9 0.000000 0.750774 0.250000
O O10 0.030078 0.357361 0.203347
O O11 0.016514 0.550919 0.430001
O O12 0.040181 0.045012 0.414768
O O13 0.000000 0.000000 0.500000
#
# Coordination Sequence:
#
# PCOD9256006 Si02
#       6
#     8   8   8   8   8   8
#     4   8  16  29  47  72  96 121 157 199 238 279
#     4  10  20  29  52  75 101 124 156 200 246 289
#     4   8  20  36  52  70  97 129 167 202 227 283
#     4  10  17  34  51  74  96 127 162 199 242 277
#     4  12  20  32  49  70 101 127 155 194 246 291
#     4   9  22  33  47  71  95 127 162 194 236 280
#
# _framework density 19.088933000000001
#
# number of rings (size 3 to 8) (size 9 to 14) (size 15 to 20)
#    1.000    1.333    0.000    3.500    0.000    4.000 
#    0.000    0.000    0.000    2.000    0.000    0.000 
#    0.000    0.000    0.000    0.000    0.000    0.000 
#
# Total GULP energy -133658.042579 kJ/mol
# GULP energy per Si atom -5569.085107 kJ/mol
# Density = 1.904549 g / cm^3
# Si number density = 19.088933 Si / 1000 Ang^3
#
#
#
# Elastic Constant Matrix: (Units=GPa)
#
#
# Indices 1 2 3 4 5 6 
#
# 1 106.9621 -5.1656 17.4152 -0.0019 7.3640 0.0015
# 2 -5.1656 60.3226 3.9437 -0.0057 0.0820 0.0006
# 3 17.4152 3.9437 61.4002 -0.0006 5.0271 0.0016
# 4 -0.0019 -0.0057 -0.0006 10.6246 0.0002 2.0488
# 5 7.3640 0.0820 5.0271 0.0002 21.4683 -0.0003
# 6 0.0015 0.0006 0.0016 2.0488 -0.0003 16.8804
#
#
#
# Elastic Compliance Matrix: (Units=1/GPa)
#
#
# Indices 1 2 3 4 5 6 
#
# 1 0.010030 0.001038 -0.002681 0.000002 -0.002817 -0.000001
# 2 0.001038 0.016756 -0.001362 0.000009 -0.000101 -0.000002
# 3 -0.002681 -0.001362 0.017392 0.000000 -0.003148 -0.000001
# 4 0.000002 0.000009 0.000000 0.096376 -0.000002 -0.011697
# 5 -0.002817 -0.000101 -0.003148 -0.000002 0.048284 0.000002
# 6 -0.000001 -0.000002 -0.000001 -0.011697 0.000002 0.060660
#
#
# Mechanical properties :
#
#
# Convention : Reuss Voigt Hill
#
# Bulk Modulus (GPa) = 26.20061 29.00795 27.60428
# Shear Modulus (GPa) = 18.64068 23.96077 21.30073
#
# Velocity S-wave (km/s) = 3.12832 3.54675 3.34408
# Velocity P-wave (km/s) = 5.17724 5.65701 5.42244
#
# Compressibility (1/GPa) = 0.03816705
#
# Stress axis : x y z
#
# Youngs Moduli (GPa) = 99.70460 59.68150 57.49712
#
# Poissons Ratio (x) = -0.06195 0.15414
# Poissons Ratio (y) = -0.10349 0.07833
# Poissons Ratio (z) = 0.26729 0.08131
#
# Static dielectric constant tensor:
#      x y z
#    x 1.727540 0.000000 0.009170 
#    y 0.000000 1.705640 0.000000 
#    z 0.009170 0.000000 1.673140 
# 
# From -- ./inp_files/258336.got.cif
#   From: 2010.05.17/outbox.cif.g08.bks.cpg/sg15_130_cif.got.tgz:258336.got - 2010.06.03 18:47:42.
