data_PCOD9256222
_publ_section_title
;
Structure prediction by ZEFSAII (Michael W. Deem and Ramdas Pophale) SiO2 
 PCOD9256222
Probable space group: C 2/C
;
_chemical_formula_sum "Si O2"
_cell_formula_units_Z 60
_cell_length_a 13.757271
_cell_length_b 15.476174
_cell_length_c 21.356801
_cell_angle_alpha 90.000000
_cell_angle_beta 140.702317
_cell_angle_gamma 90.000000
_cell_volume 2879.887900
_symmetry_space_group_name_H-M "C 2/C"
_symmetry_group_IT_number 15
_symmetry_cell_setting 'monoclinic'
loop_
_space_group_symop_operation_xyz
x,y,z
-x,y,1/2-z
-x,-y,-z
x,-y,1/2+z
1/2+x,1/2+y,z
1/2-x,1/2+y,1/2-z
1/2-x,1/2-y,-z
1/2+x,1/2-y,1/2+z
loop_
_atom_site_type_symbol
_atom_site_label
_atom_site_fract_x
_atom_site_fract_y
_atom_site_fract_z
Si Si1 0.882850 0.358498 0.239449
Si Si2 0.028772 0.658598 0.396132
Si Si3 0.240450 0.103180 0.890600
Si Si4 0.569741 0.278547 0.911526
Si Si5 0.135544 0.737723 0.073381
Si Si6 0.211165 0.079299 0.416737
Si Si7 0.556124 0.033471 0.619015
Si Si8 0.500000 0.746718 0.750000
O O1 0.741217 0.321359 0.131456
O O2 0.848048 0.419276 0.279753
O O3 0.000000 0.402681 0.250000
O O4 0.971175 0.276303 0.313944
O O5 0.192743 0.639717 0.510566
O O6 0.947723 0.724861 0.402913
O O7 0.941644 0.567590 0.364461
O O8 0.025814 0.694560 0.324538
O O9 0.378327 0.068168 0.914380
O O10 0.141602 0.179644 0.811827
O O11 0.158005 0.012378 0.864100
O O12 0.584295 0.377086 0.897643
O O13 0.750000 0.250000 0.000000
O O14 0.522826 0.254917 0.958597
O O15 0.240015 0.653272 0.109295
O O16 0.376259 0.061380 0.532610
#
# Coordination Sequence:
#
# PCOD9256222 Si02
#       8
#     8   8   8   8   8   8   8   4
#     4  12  20  28  54  88 121 151 180 250 307 346
#     4  11  23  43  64  84 118 161 211 250 294 359
#     4  11  22  42  67  82 119 163 206 245 300 364
#     4  10  18  32  51  90 124 141 187 234 306 363
#     4  11  19  35  58  84 120 152 192 246 301 352
#     4  10  17  35  60  88 112 153 197 240 288 361
#     4  11  20  37  62  88 109 159 213 241 285 362
#     4  12  28  42  60  96 122 160 206 256 310 362
#
# _framework density 20.834143999999998
#
# number of rings (size 3 to 8) (size 9 to 14) (size 15 to 20)
#    0.000    1.067    8.000    2.000    0.933    1.067 
#    0.000    0.000    0.000    0.800    0.000    0.000 
#    0.000    0.000    0.000    0.000    0.000    0.000 
#
# Total GULP energy -167327.890158 kJ/mol
# GULP energy per Si atom -5577.596339 kJ/mol
# Density = 2.078672 g / cm^3
# Si number density = 20.834144 Si / 1000 Ang^3
#
#
#
# Elastic Constant Matrix: (Units=GPa)
#
#
# Indices 1 2 3 4 5 6 
#
# 1 64.2512 25.4315 15.0337 0.0000 -26.9559 0.0000
# 2 25.4315 85.3571 19.5549 0.0000 -7.6747 0.0000
# 3 15.0337 19.5549 68.8807 0.0000 -20.1065 0.0000
# 4 0.0000 0.0000 0.0000 23.1873 0.0000 -7.6487
# 5 -26.9559 -7.6747 -20.1065 0.0000 32.5002 0.0000
# 6 0.0000 0.0000 0.0000 -7.6487 0.0000 25.7180
#
#
#
# Elastic Compliance Matrix: (Units=1/GPa)
#
#
# Indices 1 2 3 4 5 6 
#
# 1 0.026973 -0.006602 0.002517 0.000000 0.022370 0.000000
# 2 -0.006602 0.014169 -0.003909 0.000000 -0.004548 0.000000
# 3 0.002517 -0.003909 0.018816 0.000000 0.012805 0.000000
# 4 0.000000 0.000000 0.000000 0.047818 0.000000 0.014221
# 5 0.022370 -0.004548 0.012805 0.000000 0.056171 0.000000
# 6 0.000000 0.000000 0.000000 0.014221 0.000000 0.043113
#
#
# Mechanical properties :
#
#
# Convention : Reuss Voigt Hill
#
# Bulk Modulus (GPa) = 22.74256 37.61434 30.17845
# Shear Modulus (GPa) = 21.03445 26.84568 23.94006
#
# Velocity S-wave (km/s) = 3.18089 3.59352 3.39348
# Velocity P-wave (km/s) = 4.94272 5.94233 5.46542
#
# Compressibility (1/GPa) = 0.04397043
#
# Stress axis : x y z
#
# Youngs Moduli (GPa) = 37.07398 70.57621 53.14565
#
# Poissons Ratio (x) = 0.46592 -0.13377
# Poissons Ratio (y) = 0.24475 0.20776
# Poissons Ratio (z) = -0.09331 0.27590
#
# Static dielectric constant tensor:
#      x y z
#    x 1.803430 0.000000 0.005740 
#    y 0.000000 1.779180 0.000000 
#    z 0.005740 0.000000 1.773470 
# 
# From -- ./inp_files/244723.got.cif
#   From: 2010.05.17/outbox.cif.g08.bks.cpg/sg15_123_cif.got.tgz:244723.got - 2010.06.03 18:47:42.
