data_PCOD9256729
_publ_section_title
;
Structure prediction by ZEFSAII (Michael W. Deem and Ramdas Pophale) SiO2 
 PCOD9256729
Probable space group: C 2/C
;
_chemical_formula_sum "Si O2"
_cell_formula_units_Z 56
_cell_length_a 20.951748
_cell_length_b 13.765083
_cell_length_c 17.070731
_cell_angle_alpha 90.000000
_cell_angle_beta 36.233378
_cell_angle_gamma 90.000000
_cell_volume 2910.008758
_symmetry_space_group_name_H-M "C 2/C"
_symmetry_group_IT_number 15
_symmetry_cell_setting 'monoclinic'
loop_
_space_group_symop_operation_xyz
x,y,z
-x,y,1/2-z
-x,-y,-z
x,-y,1/2+z
1/2+x,1/2+y,z
1/2-x,1/2+y,1/2-z
1/2-x,1/2-y,-z
1/2+x,1/2-y,1/2+z
loop_
_atom_site_type_symbol
_atom_site_label
_atom_site_fract_x
_atom_site_fract_y
_atom_site_fract_z
Si Si1 0.438607 0.839032 0.421307
Si Si2 0.256281 0.133070 0.993580
Si Si3 0.100051 0.543873 0.853044
Si Si4 0.725092 0.132015 0.267775
Si Si5 0.216032 0.151512 0.740914
Si Si6 0.402969 0.620300 0.480709
Si Si7 0.875622 0.968570 0.738635
O O1 0.375895 0.884405 0.409555
O O2 0.548381 0.892248 0.335848
O O3 0.355854 0.852188 0.577332
O O4 0.451836 0.722942 0.400755
O O5 0.205808 0.101435 0.961032
O O6 0.176267 0.086570 0.136590
O O7 0.250000 0.250000 0.000000
O O8 0.175078 0.451176 0.762697
O O9 0.170023 0.610874 0.841195
O O10 0.000000 0.500000 0.000000
O O11 0.731122 0.233603 0.216796
O O12 0.832019 0.089313 0.204215
O O13 0.171418 0.077696 0.719964
O O14 0.132503 0.136530 0.895260
O O15 0.495902 0.540535 0.383405
#
# Coordination Sequence:
#
# PCOD9256729 Si02
#       7
#     8   8   8   8   8   8   8
#     4   8  15  27  45  68  97 129 161 201 254 305
#     4   9  18  31  47  72 102 130 165 211 262 316
#     4   9  16  29  48  69  98 136 174 214 259 304
#     4   8  16  28  44  70  99 126 165 211 252 297
#     4  10  19  30  46  73 102 130 170 216 257 309
#     4  10  18  29  45  70 104 135 163 203 259 317
#     4  10  18  30  48  70 100 136 168 206 259 316
#
# _framework density 19.243928
#
# number of rings (size 3 to 8) (size 9 to 14) (size 15 to 20)
#    0.000    2.857    0.000    3.429    0.000    0.000 
#    0.000    2.143    0.000    0.000    0.000   13.000 
#    0.000    0.000    0.000    0.000    0.000    0.000 
#
# Total GULP energy -156046.662268 kJ/mol
# GULP energy per Si atom -5573.095081 kJ/mol
# Density = 1.920013 g / cm^3
# Si number density = 19.243928 Si / 1000 Ang^3
#
#
#
# Elastic Constant Matrix: (Units=GPa)
#
#
# Indices 1 2 3 4 5 6 
#
# 1 79.7072 40.8421 10.9177 0.0000 -25.0076 0.0000
# 2 40.8421 117.3596 13.3347 0.0000 -10.4697 0.0000
# 3 10.9177 13.3347 28.6520 0.0000 -4.9438 0.0000
# 4 0.0000 0.0000 0.0000 14.6687 0.0000 1.3397
# 5 -25.0076 -10.4697 -4.9438 0.0000 31.3410 0.0000
# 6 0.0000 0.0000 0.0000 1.3397 0.0000 29.4232
#
#
#
# Elastic Compliance Matrix: (Units=1/GPa)
#
#
# Indices 1 2 3 4 5 6 
#
# 1 0.020005 -0.005428 -0.002730 0.000000 0.013719 0.000000
# 2 -0.005428 0.010650 -0.003106 0.000000 -0.001263 0.000000
# 3 -0.002730 -0.003106 0.037863 0.000000 0.002757 0.000000
# 4 0.000000 0.000000 0.000000 0.068457 0.000000 -0.003117
# 5 0.013719 -0.001263 0.002757 0.000000 0.042866 0.000000
# 6 0.000000 0.000000 0.000000 -0.003117 0.000000 0.034129
#
#
# Mechanical properties :
#
#
# Convention : Reuss Voigt Hill
#
# Bulk Modulus (GPa) = 21.74351 39.54532 30.64442
# Shear Modulus (GPa) = 19.85477 25.79484 22.82481
#
# Velocity S-wave (km/s) = 3.21556 3.66514 3.44769
# Velocity P-wave (km/s) = 5.01097 6.20525 5.63981
#
# Compressibility (1/GPa) = 0.04599072
#
# Stress axis : x y z
#
# Youngs Moduli (GPa) = 49.98673 93.89635 26.41101
#
# Poissons Ratio (x) = 0.50967 0.07209
# Poissons Ratio (y) = 0.27133 0.08204
# Poissons Ratio (z) = 0.13644 0.29166
#
# Static dielectric constant tensor:
#      x y z
#    x 1.703230 0.000000 -0.001610 
#    y 0.000000 1.695180 0.000000 
#    z -0.001610 0.000000 1.702810 
# 
# From -- ./inp_files/255263.got.cif
#   From: 2010.05.17/outbox.cif.g08.bks.cpg/sg15_128_cif.got.tgz:255263.got - 2010.06.03 18:47:42.
