data_PCOD9256093
_publ_section_title
;
Structure prediction by ZEFSAII (Michael W. Deem and Ramdas Pophale) SiO2 
 PCOD9256093
Probable space group: C 2/C
;
_chemical_formula_sum "Si O2"
_cell_formula_units_Z 52
_cell_length_a 8.838277
_cell_length_b 11.348604
_cell_length_c 24.622660
_cell_angle_alpha 90.000000
_cell_angle_beta 84.569061
_cell_angle_gamma 90.000000
_cell_volume 2458.618147
_symmetry_space_group_name_H-M "C 2/C"
_symmetry_group_IT_number 15
_symmetry_cell_setting 'monoclinic'
loop_
_space_group_symop_operation_xyz
x,y,z
-x,y,1/2-z
-x,-y,-z
x,-y,1/2+z
1/2+x,1/2+y,z
1/2-x,1/2+y,1/2-z
1/2-x,1/2-y,-z
1/2+x,1/2-y,1/2+z
loop_
_atom_site_type_symbol
_atom_site_label
_atom_site_fract_x
_atom_site_fract_y
_atom_site_fract_z
Si Si1 0.911184 0.116220 0.913487
Si Si2 0.498916 0.009153 0.336591
Si Si3 0.096548 0.797604 0.976462
Si Si4 0.500000 0.788749 0.750000
Si Si5 0.092706 0.544357 0.946785
Si Si6 0.280176 0.209759 0.679853
Si Si7 0.344973 0.448577 0.631045
O O1 0.775107 0.037362 0.943768
O O2 0.815496 0.195552 0.873939
O O3 0.991661 0.167367 0.965103
O O4 0.024555 0.044761 0.871973
O O5 0.548772 0.030292 0.396352
O O6 0.600135 0.895796 0.316468
O O7 0.531291 0.121145 0.298324
O O8 0.317244 0.995794 0.347631
O O9 0.041227 0.682492 0.945426
O O10 0.136719 0.897701 0.931492
O O11 0.250000 0.750000 0.000000
O O12 0.650232 0.716185 0.729825
O O13 0.000000 0.500000 0.000000
O O14 0.361391 0.335676 0.669795
#
# Coordination Sequence:
#
# PCOD9256093 Si02
#       7
#     8   8   8   4   8   8   8
#     4  10  21  36  60  88 123 165 201 242 304 363
#     4  10  21  41  63  90 118 160 199 253 304 361
#     4  10  17  34  58  87 126 168 192 241 298 358
#     4  10  24  38  70  82 118 162 200 254 310 364
#     4  10  20  36  62  90 129 159 204 250 304 363
#     4  10  22  44  61  87 121 153 206 253 309 355
#     4  11  20  38  62  89 127 161 200 248 300 367
#
# _framework density 21.150091
#
# number of rings (size 3 to 8) (size 9 to 14) (size 15 to 20)
#    0.000    1.846    4.615    2.308    2.154    2.462 
#    2.769    4.615    0.000    0.000    0.000    0.000 
#    0.000    0.000    0.000    0.000    0.000    0.000 
#
# Total GULP energy -144790.591298 kJ/mol
# GULP energy per Si atom -5568.868896 kJ/mol
# Density = 2.110195 g / cm^3
# Si number density = 21.150091 Si / 1000 Ang^3
#
#
#
# Elastic Constant Matrix: (Units=GPa)
#
#
# Indices 1 2 3 4 5 6 
#
# 1 57.1810 33.7091 29.3369 0.0000 -33.2610 0.0000
# 2 33.7091 59.1822 24.0519 0.0000 -18.9722 0.0000
# 3 29.3369 24.0519 84.0859 0.0000 -30.2874 0.0000
# 4 0.0000 0.0000 0.0000 37.8554 0.0000 -13.6639
# 5 -33.2610 -18.9722 -30.2874 0.0000 40.8732 0.0000
# 6 0.0000 0.0000 0.0000 -13.6639 0.0000 35.3453
#
#
#
# Elastic Compliance Matrix: (Units=1/GPa)
#
#
# Indices 1 2 3 4 5 6 
#
# 1 0.042609 -0.015302 -0.000761 0.000000 0.027007 0.000000
# 2 -0.015302 0.026006 -0.003052 0.000000 -0.002643 0.000000
# 3 -0.000761 -0.003052 0.016775 0.000000 0.010395 0.000000
# 4 0.000000 0.000000 0.000000 0.030700 0.000000 0.011868
# 5 0.027007 -0.002643 0.010395 0.000000 0.052919 0.000000
# 6 0.000000 0.000000 0.000000 0.011868 0.000000 0.032880
#
#
# Mechanical properties :
#
#
# Convention : Reuss Voigt Hill
#
# Bulk Modulus (GPa) = 21.20460 41.62722 31.41591
# Shear Modulus (GPa) = 19.54347 30.37153 24.95750
#
# Velocity S-wave (km/s) = 3.04310 3.79357 3.43887
# Velocity P-wave (km/s) = 4.73231 6.23801 5.53659
#
# Compressibility (1/GPa) = 0.04715959
#
# Stress axis : x y z
#
# Youngs Moduli (GPa) = 23.46920 38.45255 59.61186
#
# Poissons Ratio (x) = 0.58842 0.04538
# Poissons Ratio (y) = 0.35914 0.18192
# Poissons Ratio (z) = 0.01787 0.11735
#
# Static dielectric constant tensor:
#      x y z
#    x -0.507050 0.000000 -0.849010 
#    y 0.000000 1.855430 0.000000 
#    z -0.849010 0.000000 1.542650 
# 
# From -- ./inp_files/287636.got.cif
#   From: 2010.05.17/outbox.cif.g08.bks.cpg/sg15_144_cif.got.tgz:287636.got - 2010.06.03 18:47:42.
