data_PCOD9256823
_publ_section_title
;
Structure prediction by ZEFSAII (Michael W. Deem and Ramdas Pophale) SiO2 
 PCOD9256823
Probable space group: C 2/C
;
_chemical_formula_sum "Si O2"
_cell_formula_units_Z 52
_cell_length_a 13.221522
_cell_length_b 17.777372
_cell_length_c 14.202232
_cell_angle_alpha 90.000000
_cell_angle_beta 65.205806
_cell_angle_gamma 90.000000
_cell_volume 3030.437637
_symmetry_space_group_name_H-M "C 2/C"
_symmetry_group_IT_number 15
_symmetry_cell_setting 'monoclinic'
loop_
_space_group_symop_operation_xyz
x,y,z
-x,y,1/2-z
-x,-y,-z
x,-y,1/2+z
1/2+x,1/2+y,z
1/2-x,1/2+y,1/2-z
1/2-x,1/2-y,-z
1/2+x,1/2-y,1/2+z
loop_
_atom_site_type_symbol
_atom_site_label
_atom_site_fract_x
_atom_site_fract_y
_atom_site_fract_z
Si Si1 0.122778 0.981115 0.197440
Si Si2 0.858211 0.872989 0.679528
Si Si3 0.434775 0.257072 0.916925
Si Si4 0.869904 0.008461 0.024852
Si Si5 0.268188 0.770634 0.641515
Si Si6 0.000000 0.625991 0.750000
Si Si7 0.764382 0.599155 0.792768
O O1 0.113316 0.059039 0.259501
O O2 0.000000 0.944502 0.250000
O O3 0.148846 0.992475 0.078458
O O4 0.213874 0.931814 0.216015
O O5 0.833013 0.914952 0.591455
O O6 0.754403 0.829582 0.766694
O O7 0.963232 0.816246 0.625925
O O8 0.330324 0.287783 0.896091
O O9 0.471493 0.181875 0.847691
O O10 0.382907 0.235429 0.038425
O O11 0.807767 0.939278 0.097460
O O12 0.000000 0.000000 0.000000
O O13 0.245484 0.688423 0.693082
O O14 0.892505 0.579565 0.761716
#
# Coordination Sequence:
#
# PCOD9256823 Si02
#       7
#     8   8   8   8   8   4   8
#     4  11  22  35  56  88 119 148 189 238 302 338
#     4  11  20  35  57  87 116 142 193 251 290 341
#     4  10  18  29  53  84 111 141 180 248 293 324
#     4  11  22  35  58  85 117 154 189 246 294 342
#     4  10  20  30  55  83 112 146 189 240 295 331
#     4  10  20  36  54  84 114 150 186 236 292 346
#     4  10  21  37  56  84 118 146 194 236 288 357
#
# _framework density 17.159237999999998
#
# number of rings (size 3 to 8) (size 9 to 14) (size 15 to 20)
#    0.000    1.538    6.154    1.846    6.462    0.000 
#    0.000    1.538    0.000    0.000    2.000    0.000 
#    0.000    0.000    0.000    0.000    0.000    0.000 
#
# Total GULP energy -144997.298272 kJ/mol
# GULP energy per Si atom -5576.819164 kJ/mol
# Density = 1.712018 g / cm^3
# Si number density = 17.159238 Si / 1000 Ang^3
#
#
#
# Elastic Constant Matrix: (Units=GPa)
#
#
# Indices 1 2 3 4 5 6 
#
# 1 81.1480 26.8902 32.4843 0.0000 0.7502 0.0000
# 2 26.8902 54.1999 25.0267 0.0000 -0.5949 0.0000
# 3 32.4843 25.0267 115.0676 0.0000 6.8047 0.0000
# 4 0.0000 0.0000 0.0000 24.5768 0.0000 -5.2523
# 5 0.7502 -0.5949 6.8047 0.0000 27.7525 0.0000
# 6 0.0000 0.0000 0.0000 -5.2523 0.0000 20.9739
#
#
#
# Elastic Compliance Matrix: (Units=1/GPa)
#
#
# Indices 1 2 3 4 5 6 
#
# 1 0.015646 -0.006354 -0.003046 0.000000 0.000188 0.000000
# 2 -0.006354 0.023157 -0.003331 0.000000 0.001485 0.000000
# 3 -0.003046 -0.003331 0.010425 0.000000 -0.002545 0.000000
# 4 0.000000 0.000000 0.000000 0.042989 0.000000 0.010765
# 5 0.000188 0.001485 -0.002545 0.000000 0.036684 0.000000
# 6 0.000000 0.000000 0.000000 0.010765 0.000000 0.050374
#
#
# Mechanical properties :
#
#
# Convention : Reuss Voigt Hill
#
# Bulk Modulus (GPa) = 42.07498 46.57977 44.32738
# Shear Modulus (GPa) = 23.51172 25.72825 24.61999
#
# Velocity S-wave (km/s) = 3.70565 3.87639 3.79198
# Velocity P-wave (km/s) = 6.54848 6.87311 6.71276
#
# Compressibility (1/GPa) = 0.02376709
#
# Stress axis : x y z
#
# Youngs Moduli (GPa) = 63.91244 43.18384 95.91960
#
# Poissons Ratio (x) = 0.27439 0.29219
# Poissons Ratio (y) = 0.40610 0.31946
# Poissons Ratio (z) = 0.19469 0.14383
#
# Static dielectric constant tensor:
#      x y z
#    x 1.580110 0.000000 -0.014340 
#    y 0.000000 1.586230 0.000000 
#    z -0.014340 0.000000 1.615790 
# 
# From -- ./inp_files/153882.got.cif
#   From: 2010.05.17/outbox.cif.g08.bks.cpg/sg15_77_cif.got.tgz:153882.got - 2010.06.03 18:47:42.
