data_PCOD9256785
_publ_section_title
;
Structure prediction by ZEFSAII (Michael W. Deem and Ramdas Pophale) SiO2 
 PCOD9256785
Probable space group: C 2/C
;
_chemical_formula_sum "Si O2"
_cell_formula_units_Z 60
_cell_length_a 6.289205
_cell_length_b 22.896768
_cell_length_c 27.090008
_cell_angle_alpha 90.000000
_cell_angle_beta 124.536911
_cell_angle_gamma 90.000000
_cell_volume 3213.515230
_symmetry_space_group_name_H-M "C 2/C"
_symmetry_group_IT_number 15
_symmetry_cell_setting 'monoclinic'
loop_
_space_group_symop_operation_xyz
x,y,z
-x,y,1/2-z
-x,-y,-z
x,-y,1/2+z
1/2+x,1/2+y,z
1/2-x,1/2+y,1/2-z
1/2-x,1/2-y,-z
1/2+x,1/2-y,1/2+z
loop_
_atom_site_type_symbol
_atom_site_label
_atom_site_fract_x
_atom_site_fract_y
_atom_site_fract_z
Si Si1 0.112688 0.599181 0.568146
Si Si2 0.444824 0.501165 0.648322
Si Si3 0.273864 0.097644 0.312289
Si Si4 0.407965 0.576760 0.050642
Si Si5 0.670201 0.212757 0.940931
Si Si6 0.500000 0.040067 0.250000
Si Si7 0.819394 0.860363 0.995183
Si Si8 0.713996 0.180219 0.097801
O O1 0.296456 0.562401 0.627819
O O2 0.251535 0.602552 0.533798
O O3 0.836436 0.569134 0.518484
O O4 0.051042 0.665368 0.577384
O O5 0.266231 0.456721 0.655935
O O6 0.455415 0.476534 0.593580
O O7 0.734725 0.496575 0.708620
O O8 0.471842 0.080494 0.295128
O O9 0.302902 0.154624 0.349701
O O10 0.000000 0.104518 0.250000
O O11 0.333351 0.630866 0.077090
O O12 0.643150 0.598294 0.047614
O O13 0.635891 0.260363 0.893553
O O14 0.917926 0.173587 0.962048
O O15 0.750000 0.250000 0.000000
O O16 0.585009 0.815444 0.957090
#
# Coordination Sequence:
#
# PCOD9256785 Si02
#       8
#     8   8   8   8   8   4   8   8
#     4  10  21  31  48  80 110 148 180 215 270 331
#     4  10  20  35  52  77 112 139 181 228 278 332
#     4   9  20  37  57  81 104 134 179 233 290 329
#     4   9  18  31  49  76 113 145 171 215 275 333
#     4  11  19  33  49  77 114 147 186 213 264 337
#     4  10  20  36  56  80 102 136 190 232 286 350
#     4  10  18  29  49  78 108 144 181 210 264 329
#     4  10  18  31  53  79 108 144 173 225 272 323
#
# _framework density 18.671142
#
# number of rings (size 3 to 8) (size 9 to 14) (size 15 to 20)
#    0.000    2.133    4.000    1.600    0.000    2.667 
#    0.000    0.000    0.000    0.000   13.867    0.000 
#    0.000    0.000    0.000    0.000    0.000    0.000 
#
# Total GULP energy -167214.355966 kJ/mol
# GULP energy per Si atom -5573.811866 kJ/mol
# Density = 1.862865 g / cm^3
# Si number density = 18.671142 Si / 1000 Ang^3
#
#
#
# Elastic Constant Matrix: (Units=GPa)
#
#
# Indices 1 2 3 4 5 6 
#
# 1 86.2863 31.9796 19.4825 0.0000 -15.4976 0.0000
# 2 31.9796 94.8894 42.5733 0.0000 -3.1438 0.0000
# 3 19.4825 42.5733 58.7754 0.0000 -9.5651 0.0000
# 4 0.0000 0.0000 0.0000 18.1889 0.0000 3.9959
# 5 -15.4976 -3.1438 -9.5651 0.0000 23.3038 0.0000
# 6 0.0000 0.0000 0.0000 3.9959 0.0000 16.0703
#
#
#
# Elastic Compliance Matrix: (Units=1/GPa)
#
#
# Indices 1 2 3 4 5 6 
#
# 1 0.015032 -0.004746 -0.000024 0.000000 0.009347 0.000000
# 2 -0.004746 0.017273 -0.011865 0.000000 -0.005696 0.000000
# 3 -0.000024 -0.011865 0.027168 0.000000 0.009534 0.000000
# 4 0.000000 0.000000 0.000000 0.058155 0.000000 -0.014460
# 5 0.009347 -0.005696 0.009534 0.000000 0.052272 0.000000
# 6 0.000000 0.000000 0.000000 -0.014460 0.000000 0.065822
#
#
# Mechanical properties :
#
#
# Convention : Reuss Voigt Hill
#
# Bulk Modulus (GPa) = 38.16380 47.55800 42.86090
# Shear Modulus (GPa) = 18.00327 21.24032 19.62180
#
# Velocity S-wave (km/s) = 3.10857 3.37649 3.24530
# Velocity P-wave (km/s) = 5.77656 6.38182 6.08672
#
# Compressibility (1/GPa) = 0.02620284
#
# Stress axis : x y z
#
# Youngs Moduli (GPa) = 66.52309 57.89475 36.80798
#
# Poissons Ratio (x) = 0.27475 0.00089
# Poissons Ratio (y) = 0.31570 0.43673
# Poissons Ratio (z) = 0.00162 0.68693
#
# Static dielectric constant tensor:
#      x y z
#    x 1.703560 0.000000 -0.006800 
#    y 0.000000 1.672300 0.000000 
#    z -0.006800 0.000000 1.679210 
# 
# From -- ./inp_files/286673.got.cif
#   From: 2010.05.17/outbox.cif.g08.bks.cpg/sg15_144_cif.got.tgz:286673.got - 2010.06.03 18:47:42.
