data_PCOD9256482
_publ_section_title
;
Structure prediction by ZEFSAII (Michael W. Deem and Ramdas Pophale) SiO2 
 PCOD9256482
Probable space group: C 2/C
;
_chemical_formula_sum "Si O2"
_cell_formula_units_Z 56
_cell_length_a 23.833607
_cell_length_b 8.826712
_cell_length_c 13.224990
_cell_angle_alpha 90.000000
_cell_angle_beta 129.023952
_cell_angle_gamma 90.000000
_cell_volume 2161.422139
_symmetry_space_group_name_H-M "C 2/C"
_symmetry_group_IT_number 15
_symmetry_cell_setting 'monoclinic'
loop_
_space_group_symop_operation_xyz
x,y,z
-x,y,1/2-z
-x,-y,-z
x,-y,1/2+z
1/2+x,1/2+y,z
1/2-x,1/2+y,1/2-z
1/2-x,1/2-y,-z
1/2+x,1/2-y,1/2+z
loop_
_atom_site_type_symbol
_atom_site_label
_atom_site_fract_x
_atom_site_fract_y
_atom_site_fract_z
Si Si1 0.477080 0.040370 0.612638
Si Si2 0.675113 0.467504 0.855423
Si Si3 0.288643 0.631663 0.875016
Si Si4 0.864733 0.627266 0.743431
Si Si5 0.174777 0.469588 0.533109
Si Si6 0.559049 0.647144 0.499144
Si Si7 0.967432 0.865225 0.316347
O O1 0.500000 0.995563 0.750000
O O2 0.554890 0.060431 0.644852
O O3 0.399141 0.959164 0.506287
O O4 0.447437 0.213640 0.583561
O O5 0.641578 0.312313 0.767852
O O6 0.746425 0.545130 0.888356
O O7 0.613779 0.590332 0.798129
O O8 0.695991 0.412406 0.991306
O O9 0.205267 0.584625 0.767013
O O10 0.299476 0.813139 0.883529
O O11 0.360503 0.578200 0.898002
O O12 0.846127 0.569878 0.608217
O O13 0.510082 0.516262 0.398341
O O14 0.534313 0.718732 0.578409
O O15 0.000000 0.807698 0.250000
#
# Coordination Sequence:
#
# PCOD9256482 Si02
#       7
#     8   8   8   8   8   8   8
#     4   9  13  22  37  57  81  94 108 145 176 216
#     4   9  13  22  32  46  72  96 118 141 171 208
#     4   8  13  22  33  49  69  92 120 142 169 216
#     4   8  12  18  34  52  70  94 109 137 183 213
#     4   7  13  18  32  52  69  94 113 133 179 222
#     4  10  18  24  34  50  72 100 128 137 169 211
#     4  11  19  25  34  48  72 107 125 142 165 199
#
# _framework density 25.908867999999998
#
# number of rings (size 3 to 8) (size 9 to 14) (size 15 to 20)
#    0.000    3.143    2.857    3.000    0.000    0.000 
#    0.000    0.000    0.000    0.000    0.000    2.000 
#    0.000    0.000    0.000    0.000    0.000    0.000 
#
# Total GULP energy -155970.797274 kJ/mol
# GULP energy per Si atom -5570.385617 kJ/mol
# Density = 2.584990 g / cm^3
# Si number density = 25.908868 Si / 1000 Ang^3
#
#
#
# Elastic Constant Matrix: (Units=GPa)
#
#
# Indices 1 2 3 4 5 6 
#
# 1 255.0675 17.3266 73.4849 0.0000 31.1741 0.0000
# 2 17.3266 44.3041 29.0018 0.0000 5.3712 0.0000
# 3 73.4849 29.0018 107.7724 0.0000 36.2865 0.0000
# 4 0.0000 0.0000 0.0000 -0.5452 0.0000 9.5005
# 5 31.1741 5.3712 36.2865 0.0000 67.8568 0.0000
# 6 0.0000 0.0000 0.0000 9.5005 0.0000 8.5192
#
#
#
# Elastic Compliance Matrix: (Units=1/GPa)
#
#
# Indices 1 2 3 4 5 6 
#
# 1 0.004899 0.000263 -0.003228 0.000000 -0.000546 0.000000
# 2 0.000263 0.027675 -0.008352 0.000000 0.002155 0.000000
# 3 -0.003228 -0.008352 0.015861 0.000000 -0.006338 0.000000
# 4 0.000000 0.000000 0.000000 -0.089766 0.000000 0.100106
# 5 -0.000546 0.002155 -0.006338 0.000000 0.018206 0.000000
# 6 0.000000 0.000000 0.000000 0.100106 0.000000 0.005745
#
#
# Mechanical properties :
#
#
# Convention : Reuss Voigt Hill
#
# Bulk Modulus (GPa) = 38.75781 71.86341 55.31061
# Shear Modulus (GPa) = 360.90378 34.32152 197.61265
#
# Velocity S-wave (km/s) = 11.81524 3.64359 8.74287
# Velocity P-wave (km/s) = 14.18185 6.74524 11.10457
#
# Compressibility (1/GPa) = 0.02580125
#
# Stress axis : x y z
#
# Youngs Moduli (GPa) = 204.11381 36.13422 63.04742
#
# Poissons Ratio (x) = -0.00950 0.20349
# Poissons Ratio (y) = -0.05368 0.52658
# Poissons Ratio (z) = 0.65880 0.30180
#
# Static dielectric constant tensor:
#      x y z
#    x 2.317350 0.000000 0.006050 
#    y 0.000000 1.947550 0.000000 
#    z 0.006050 0.000000 2.054160 
# 
# From -- ./inp_files/119096.got.cif
#   From: 2010.05.17/outbox.cif.g08.bks.cpg/sg15_60_cif.got.tgz:119096.got - 2010.06.03 18:47:42.
