data_PCOD9256657
_publ_section_title
;
Structure prediction by ZEFSAII (Michael W. Deem and Ramdas Pophale) SiO2 
 PCOD9256657
Probable space group: C 2/C
;
_chemical_formula_sum "Si O2"
_cell_formula_units_Z 28
_cell_length_a 12.690404
_cell_length_b 8.595797
_cell_length_c 8.969742
_cell_angle_alpha 90.000000
_cell_angle_beta 81.321904
_cell_angle_gamma 90.000000
_cell_volume 967.254840
_symmetry_space_group_name_H-M "C 2/C"
_symmetry_group_IT_number 15
_symmetry_cell_setting 'monoclinic'
loop_
_space_group_symop_operation_xyz
x,y,z
-x,y,1/2-z
-x,-y,-z
x,-y,1/2+z
1/2+x,1/2+y,z
1/2-x,1/2+y,1/2-z
1/2-x,1/2-y,-z
1/2+x,1/2-y,1/2+z
loop_
_atom_site_type_symbol
_atom_site_label
_atom_site_fract_x
_atom_site_fract_y
_atom_site_fract_z
Si Si1 0.500000 0.246353 0.250000
Si Si2 0.333644 0.950205 0.983522
Si Si3 0.849727 0.169867 0.177952
Si Si4 0.591246 0.304412 0.517837
O O1 0.578436 0.141591 0.134819
O O2 0.575573 0.342597 0.346134
O O3 0.225729 0.931108 0.911600
O O4 0.379071 0.121513 0.993831
O O5 0.322304 0.849274 0.137181
O O6 0.837694 0.140929 0.356325
O O7 0.972503 0.162808 0.103314
#
# Coordination Sequence:
#
# PCOD9256657 Si02
#       4
#     4   8   8   8
#     4  10  18  28  50  78 108 142 180 224 270 318
#     4  10  18  31  52  80 110 143 182 224 268 323
#     4   9  19  32  51  79 111 146 181 218 274 327
#     4  10  18  33  53  78 111 144 179 226 271 320
#
# _framework density 28.947904000000001
#
# number of rings (size 3 to 8) (size 9 to 14) (size 15 to 20)
#    0.000    2.286    0.000    6.857    0.000    1.143 
#    0.000    0.000    0.000    3.429    0.000   32.000 
#    0.000    2.286    0.000    0.000    0.000    0.000 
#
# Total GULP energy -78489.711160 kJ/mol
# GULP energy per Si atom -5606.407940 kJ/mol
# Density = 2.888202 g / cm^3
# Si number density = 28.947904 Si / 1000 Ang^3
#
#
#
# Elastic Constant Matrix: (Units=GPa)
#
#
# Indices 1 2 3 4 5 6 
#
# 1 177.3694 45.4661 54.5199 0.0000 24.7735 0.0000
# 2 45.4661 147.7712 59.5015 0.0000 20.4593 0.0000
# 3 54.5199 59.5015 209.5623 0.0000 48.2408 0.0000
# 4 0.0000 0.0000 0.0000 197.7621 0.0000 24.2404
# 5 24.7735 20.4593 48.2408 0.0000 73.4331 0.0000
# 6 0.0000 0.0000 0.0000 24.2404 0.0000 53.6273
#
#
#
# Elastic Compliance Matrix: (Units=1/GPa)
#
#
# Indices 1 2 3 4 5 6 
#
# 1 0.006473 -0.001426 -0.001023 0.000000 -0.001115 0.000000
# 2 -0.001426 0.007998 -0.001765 0.000000 -0.000588 0.000000
# 3 -0.001023 -0.001765 0.006299 0.000000 -0.003301 0.000000
# 4 0.000000 0.000000 0.000000 0.005353 0.000000 -0.002420
# 5 -0.001115 -0.000588 -0.003301 0.000000 0.016327 0.000000
# 6 0.000000 0.000000 0.000000 -0.002420 0.000000 0.019741
#
#
# Mechanical properties :
#
#
# Convention : Reuss Voigt Hill
#
# Bulk Modulus (GPa) = 81.00853 94.85312 87.93082
# Shear Modulus (GPa) = 66.90628 89.97885 78.44256
#
# Velocity S-wave (km/s) = 4.81278 5.58126 5.21121
# Velocity P-wave (km/s) = 7.67651 8.62392 8.16397
#
# Compressibility (1/GPa) = 0.01234438
#
# Stress axis : x y z
#
# Youngs Moduli (GPa) = 154.47691 125.03459 158.75801
#
# Poissons Ratio (x) = 0.17825 0.16237
# Poissons Ratio (y) = 0.22022 0.28014
# Poissons Ratio (z) = 0.15799 0.22063
#
# Static dielectric constant tensor:
#      x y z
#    x 2.350760 0.000000 0.053770 
#    y 0.000000 2.232680 0.000000 
#    z 0.053770 0.000000 2.241270 
# 
# From -- ./inp_files/36338.got.cif
#   From: 2010.05.17/outbox.cif.g08.bks.cpg/sg15_19_cif.got.tgz:36338.got - 2010.06.03 18:47:42.
