data_PCOD9256836
_publ_section_title
;
Structure prediction by ZEFSAII (Michael W. Deem and Ramdas Pophale) SiO2 
 PCOD9256836
Probable space group: C 2/C
;
_chemical_formula_sum "Si O2"
_cell_formula_units_Z 60
_cell_length_a 11.004356
_cell_length_b 20.099676
_cell_length_c 23.799787
_cell_angle_alpha 90.000000
_cell_angle_beta 35.847999
_cell_angle_gamma 90.000000
_cell_volume 3082.870022
_symmetry_space_group_name_H-M "C 2/C"
_symmetry_group_IT_number 15
_symmetry_cell_setting 'monoclinic'
loop_
_space_group_symop_operation_xyz
x,y,z
-x,y,1/2-z
-x,-y,-z
x,-y,1/2+z
1/2+x,1/2+y,z
1/2-x,1/2+y,1/2-z
1/2-x,1/2-y,-z
1/2+x,1/2-y,1/2+z
loop_
_atom_site_type_symbol
_atom_site_label
_atom_site_fract_x
_atom_site_fract_y
_atom_site_fract_z
Si Si1 0.071367 0.429127 0.516381
Si Si2 0.043390 0.687461 0.112474
Si Si3 0.684461 0.471821 0.861805
Si Si4 0.937055 0.069843 0.681350
Si Si5 0.959619 0.186028 0.581147
Si Si6 0.733991 0.584982 0.930505
Si Si7 0.000000 0.353939 0.750000
Si Si8 0.074611 0.425006 0.396130
O O1 0.029443 0.381475 0.584343
O O2 0.316168 0.443102 0.412737
O O3 0.013420 0.393176 0.479156
O O4 0.961197 0.497685 0.573987
O O5 0.917078 0.742152 0.124189
O O6 0.973794 0.686543 0.202847
O O7 0.294176 0.694821 0.022606
O O8 0.672225 0.505249 0.805443
O O9 0.779116 0.529384 0.866118
O O10 0.809336 0.404900 0.824120
O O11 0.452251 0.451804 0.966674
O O12 0.921431 0.131912 0.644472
O O13 0.806836 0.085356 0.785995
O O14 0.844872 0.152235 0.570984
O O15 0.921849 0.594767 0.902859
#
# Coordination Sequence:
#
# PCOD9256836 Si02
#       8
#     8   8   8   8   8   8   4   8
#     4  10  21  37  56  83 129 149 192 244 297 353
#     4  10  20  38  56  84 114 151 188 244 293 341
#     4  10  18  29  55  85 114 142 185 257 292 334
#     4  10  19  35  57  87 116 152 197 242 291 357
#     4   9  20  37  56  79 117 149 186 245 292 334
#     4  10  18  34  54  81 117 152 191 232 299 349
#     4  12  20  32  62  96 112 144 204 250 298 362
#     4  11  21  34  57  88 116 163 190 238 301 355
#
# _framework density 19.462384
#
# number of rings (size 3 to 8) (size 9 to 14) (size 15 to 20)
#    0.000    1.867    2.667    2.800    0.000    1.600 
#    7.200    0.667    0.000    1.600    0.000    0.000 
#    0.000    0.000    0.000    0.000    0.000    0.000 
#
# Total GULP energy -167056.873564 kJ/mol
# GULP energy per Si atom -5568.562452 kJ/mol
# Density = 1.941809 g / cm^3
# Si number density = 19.462384 Si / 1000 Ang^3
#
#
#
# Elastic Constant Matrix: (Units=GPa)
#
#
# Indices 1 2 3 4 5 6 
#
# 1 91.1576 26.4032 22.3491 -0.0014 11.6218 0.0122
# 2 26.4032 36.9576 6.0785 0.0093 5.1931 -0.0138
# 3 22.3491 6.0785 70.8752 0.0107 11.1003 -0.0280
# 4 -0.0014 0.0093 0.0107 6.7359 -0.0002 -0.2404
# 5 11.6218 5.1931 11.1003 -0.0002 31.3255 -0.0094
# 6 0.0122 -0.0138 -0.0280 -0.2404 -0.0094 -6.1926
#
#
#
# Elastic Compliance Matrix: (Units=1/GPa)
#
#
# Indices 1 2 3 4 5 6 
#
# 1 0.014993 -0.009759 -0.003465 0.000024 -0.002717 0.000070
# 2 -0.009759 0.034264 0.000488 -0.000053 -0.002233 -0.000092
# 3 -0.003465 0.000488 0.015851 -0.000029 -0.004412 -0.000072
# 4 0.000024 -0.000053 -0.000029 0.148254 0.000009 -0.005754
# 5 -0.002717 -0.002233 -0.004412 0.000009 0.034864 -0.000033
# 6 0.000070 -0.000092 -0.000072 -0.005754 -0.000033 -0.161260
#
#
# Mechanical properties :
#
#
# Convention : Reuss Voigt Hill
#
# Bulk Modulus (GPa) = 25.23002 34.29466 29.76234
# Shear Modulus (GPa) = 39.79330 15.98439 27.88885
#
# Velocity S-wave (km/s) = 4.52666 2.86894 3.78955
# Velocity P-wave (km/s) = 6.34921 5.35104 5.87138
#
# Compressibility (1/GPa) = 0.03963532
#
# Stress axis : x y z
#
# Youngs Moduli (GPa) = 66.69950 29.18546 63.08704
#
# Poissons Ratio (x) = 0.28483 0.21861
# Poissons Ratio (y) = 0.65094 -0.03082
# Poissons Ratio (z) = 0.23112 -0.01426
#
# Static dielectric constant tensor:
#      x y z
#    x 1.762610 0.000010 -0.005890 
#    y 0.000010 1.670880 0.000000 
#    z -0.005890 0.000000 1.753540 
# 
# From -- ./inp_files/270590.got.cif
#   From: 2010.05.17/outbox.cif.g08.bks.cpg/sg15_136_cif.got.tgz:270590.got - 2010.06.03 18:47:42.
