data_PCOD9256041
_publ_section_title
;
Structure prediction by ZEFSAII (Michael W. Deem and Ramdas Pophale) SiO2 
 PCOD9256041
Probable space group: C 2/C
;
_chemical_formula_sum "Si O2"
_cell_formula_units_Z 36
_cell_length_a 8.785220
_cell_length_b 15.290955
_cell_length_c 20.847034
_cell_angle_alpha 90.000000
_cell_angle_beta 145.110595
_cell_angle_gamma 90.000000
_cell_volume 1601.854826
_symmetry_space_group_name_H-M "C 2/C"
_symmetry_group_IT_number 15
_symmetry_cell_setting 'monoclinic'
loop_
_space_group_symop_operation_xyz
x,y,z
-x,y,1/2-z
-x,-y,-z
x,-y,1/2+z
1/2+x,1/2+y,z
1/2-x,1/2+y,1/2-z
1/2-x,1/2-y,-z
1/2+x,1/2-y,1/2+z
loop_
_atom_site_type_symbol
_atom_site_label
_atom_site_fract_x
_atom_site_fract_y
_atom_site_fract_z
Si Si1 0.910116 0.820137 0.511442
Si Si2 0.196554 0.208194 0.666608
Si Si3 0.500000 0.530004 0.250000
Si Si4 0.293101 0.872173 0.747632
Si Si5 0.073590 0.446174 0.170987
O O1 0.750000 0.750000 0.500000
O O2 0.955755 0.795301 0.453227
O O3 0.704708 0.900593 0.436596
O O4 0.179945 0.841752 0.641189
O O5 0.500000 0.227512 0.750000
O O6 0.106224 0.287845 0.679575
O O7 0.239131 0.117822 0.721020
O O8 0.463502 0.590379 0.299784
O O9 0.239570 0.469453 0.164288
O O10 0.466388 0.959652 0.810217
#
# Coordination Sequence:
#
# PCOD9256041 Si02
#       5
#     8   8   4   8   8
#     4  11  19  33  63  86 100 155 189 223 281 322
#     4  10  17  34  55  83 109 139 194 227 261 331
#     4   8  18  36  50  78 114 146 174 232 278 310
#     4  10  18  36  55  85 110 146 183 233 275 318
#     4   9  20  33  56  81 117 138 189 235 260 339
#
# _framework density 22.473946999999999
#
# number of rings (size 3 to 8) (size 9 to 14) (size 15 to 20)
#    1.333    0.889    5.556    0.000    0.000    1.778 
#    0.000    0.000    7.333    2.667    0.000    0.000 
#    0.000    0.000    0.000    0.000    0.000    0.000 
#
# Total GULP energy -100324.448327 kJ/mol
# GULP energy per Si atom -5573.580463 kJ/mol
# Density = 2.242279 g / cm^3
# Si number density = 22.473947 Si / 1000 Ang^3
#
#
#
# Elastic Constant Matrix: (Units=GPa)
#
#
# Indices 1 2 3 4 5 6 
#
# 1 60.1569 6.3177 3.4305 -0.0002 -11.2137 -0.0002
# 2 6.3177 128.5042 26.5707 -0.0003 -8.5876 -0.0005
# 3 3.4305 26.5707 105.2564 0.0001 -18.6322 -0.0001
# 4 -0.0002 -0.0003 0.0001 26.7413 0.0002 3.6642
# 5 -11.2137 -8.5876 -18.6322 0.0002 27.8944 0.0004
# 6 -0.0002 -0.0005 -0.0001 3.6642 0.0004 23.4471
#
#
#
# Elastic Compliance Matrix: (Units=1/GPa)
#
#
# Indices 1 2 3 4 5 6 
#
# 1 0.018066 -0.000563 0.000917 0.000000 0.007701 0.000000
# 2 -0.000563 0.008270 -0.001881 0.000000 0.001063 0.000000
# 3 0.000917 -0.001881 0.011237 0.000000 0.007295 0.000000
# 4 0.000000 0.000000 0.000000 0.038214 0.000000 -0.005972
# 5 0.007701 0.001063 0.007295 0.000000 0.044146 -0.000001
# 6 0.000000 0.000000 0.000000 -0.005972 -0.000001 0.043582
#
#
# Mechanical properties :
#
#
# Convention : Reuss Voigt Hill
#
# Bulk Modulus (GPa) = 28.97101 40.72839 34.84970
# Shear Modulus (GPa) = 28.07815 32.78981 30.43398
#
# Velocity S-wave (km/s) = 3.53847 3.82385 3.68392
# Velocity P-wave (km/s) = 5.44181 6.13658 5.79961
#
# Compressibility (1/GPa) = 0.03451727
#
# Stress axis : x y z
#
# Youngs Moduli (GPa) = 55.35366 120.92625 88.99219
#
# Poissons Ratio (x) = 0.06809 -0.08157
# Poissons Ratio (y) = 0.03117 0.16739
# Poissons Ratio (z) = -0.05074 0.22746
#
# Static dielectric constant tensor:
#      x y z
#    x 1.946530 0.000000 -0.044280 
#    y 0.000000 1.857470 0.000000 
#    z -0.044280 0.000000 1.818080 
# 
# From -- ./inp_files/142673.got.cif
#   From: 2010.05.17/outbox.cif.g08.bks.cpg/sg15_72_cif.got.tgz:142673.got - 2010.06.03 18:47:42.
