data_PCOD9256810
_publ_section_title
;
Structure prediction by ZEFSAII (Michael W. Deem and Ramdas Pophale) SiO2 
 PCOD9256810
Probable space group: C 2/C
;
_chemical_formula_sum "Si O2"
_cell_formula_units_Z 48
_cell_length_a 19.406658
_cell_length_b 15.737368
_cell_length_c 9.046197
_cell_angle_alpha 90.000000
_cell_angle_beta 108.277344
_cell_angle_gamma 90.000000
_cell_volume 2623.412190
_symmetry_space_group_name_H-M "C 2/C"
_symmetry_group_IT_number 15
_symmetry_cell_setting 'monoclinic'
loop_
_space_group_symop_operation_xyz
x,y,z
-x,y,1/2-z
-x,-y,-z
x,-y,1/2+z
1/2+x,1/2+y,z
1/2-x,1/2+y,1/2-z
1/2-x,1/2-y,-z
1/2+x,1/2-y,1/2+z
loop_
_atom_site_type_symbol
_atom_site_label
_atom_site_fract_x
_atom_site_fract_y
_atom_site_fract_z
Si Si1 0.232776 0.024434 0.171282
Si Si2 0.987833 0.092268 0.066014
Si Si3 0.346737 0.362556 0.303060
Si Si4 0.199629 0.266333 0.294882
Si Si5 0.376650 0.673330 0.496043
Si Si6 0.282642 0.890117 0.965183
O O1 0.184792 0.958463 0.236247
O O2 0.262582 0.966257 0.060812
O O3 0.180272 0.097049 0.074861
O O4 0.295215 0.066755 0.314964
O O5 0.047961 0.150467 0.029136
O O6 0.000000 0.087473 0.250000
O O7 0.908858 0.126836 0.967680
O O8 0.000000 0.000000 0.000000
O O9 0.277541 0.305811 0.301081
O O10 0.379771 0.324662 0.174823
O O11 0.154880 0.253304 0.115478
O O12 0.216695 0.174659 0.378604
O O13 0.168043 0.328081 0.400933
#
# Coordination Sequence:
#
# PCOD9256810 Si02
#       6
#     8   8   8   8   8   8
#     4  10  18  29  52  74 104 141 186 224 266 323
#     4  12  26  34  52  78 114 154 189 224 269 331
#     4  11  21  36  53  78 109 149 188 228 274 327
#     4   9  21  32  56  73 113 144 190 231 281 322
#     4  11  21  36  53  78 109 149 188 228 274 327
#     4   9  18  32  48  77 104 148 178 232 276 317
#
# _framework density 18.296782
#
# number of rings (size 3 to 8) (size 9 to 14) (size 15 to 20)
#    0.000    1.667    3.333    2.000   11.667    0.000 
#    0.000    0.000    0.000    0.000    0.000    0.000 
#    0.000   33.333    0.000    0.000    0.000    0.000 
#
# Total GULP energy -133635.665209 kJ/mol
# GULP energy per Si atom -5568.152717 kJ/mol
# Density = 1.825514 g / cm^3
# Si number density = 18.296782 Si / 1000 Ang^3
#
#
#
# Elastic Constant Matrix: (Units=GPa)
#
#
# Indices 1 2 3 4 5 6 
#
# 1 53.3574 10.1358 29.6440 0.0000 2.0509 0.0000
# 2 10.1358 53.9191 33.7378 0.0000 7.4318 0.0000
# 3 29.6440 33.7378 139.4198 0.0000 -5.7430 0.0000
# 4 0.0000 0.0000 0.0000 36.8518 0.0000 -4.2416
# 5 2.0509 7.4318 -5.7430 0.0000 23.7049 0.0000
# 6 0.0000 0.0000 0.0000 -4.2416 0.0000 21.3987
#
#
#
# Elastic Compliance Matrix: (Units=1/GPa)
#
#
# Indices 1 2 3 4 5 6 
#
# 1 0.021493 -0.000877 -0.004467 0.000000 -0.002667 0.000000
# 2 -0.000877 0.023599 -0.005884 0.000000 -0.008748 0.000000
# 3 -0.004467 -0.005884 0.009735 0.000000 0.004590 0.000000
# 4 0.000000 0.000000 0.000000 0.027769 0.000000 0.005504
# 5 -0.002667 -0.008748 0.004590 0.000000 0.046271 0.000000
# 6 0.000000 0.000000 0.000000 0.005504 0.000000 0.047823
#
#
# Mechanical properties :
#
#
# Convention : Reuss Voigt Hill
#
# Bulk Modulus (GPa) = 30.89404 43.74794 37.32099
# Shear Modulus (GPa) = 23.81654 27.93634 25.87644
#
# Velocity S-wave (km/s) = 3.61179 3.91172 3.76475
# Velocity P-wave (km/s) = 5.85790 6.66065 6.27213
#
# Compressibility (1/GPa) = 0.03236871
#
# Stress axis : x y z
#
# Youngs Moduli (GPa) = 46.52746 42.37468 102.71689
#
# Poissons Ratio (x) = 0.03718 0.45888
# Poissons Ratio (y) = 0.04082 0.60443
# Poissons Ratio (z) = 0.20786 0.24935
#
# Static dielectric constant tensor:
#      x y z
#    x 1.630790 0.000000 -0.026950 
#    y 0.000000 1.673810 0.000000 
#    z -0.026950 0.000000 1.711170 
# 
# From -- ./inp_files/56259.got.cif
#   From: 2010.05.17/outbox.cif.g08.bks.cpg/sg15_29_cif.got.tgz:56259.got - 2010.06.03 18:47:42.
