data_PCOD9256887
_publ_section_title
;
Structure prediction by ZEFSAII (Michael W. Deem and Ramdas Pophale) SiO2 
 PCOD9256887
Probable space group: C 2/C
;
_chemical_formula_sum "Si O2"
_cell_formula_units_Z 60
_cell_length_a 15.091835
_cell_length_b 22.158623
_cell_length_c 20.256546
_cell_angle_alpha 90.000000
_cell_angle_beta 31.453781
_cell_angle_gamma 90.000000
_cell_volume 3534.785805
_symmetry_space_group_name_H-M "C 2/C"
_symmetry_group_IT_number 15
_symmetry_cell_setting 'monoclinic'
loop_
_space_group_symop_operation_xyz
x,y,z
-x,y,1/2-z
-x,-y,-z
x,-y,1/2+z
1/2+x,1/2+y,z
1/2-x,1/2+y,1/2-z
1/2-x,1/2-y,-z
1/2+x,1/2-y,1/2+z
loop_
_atom_site_type_symbol
_atom_site_label
_atom_site_fract_x
_atom_site_fract_y
_atom_site_fract_z
Si Si1 0.721157 0.153909 0.500981
Si Si2 0.064711 0.524297 0.373112
Si Si3 0.796240 0.739601 0.869549
Si Si4 0.170662 0.356732 0.253626
Si Si5 0.837636 0.409505 0.102958
Si Si6 0.304887 0.516951 0.614072
Si Si7 0.000000 0.061927 0.750000
Si Si8 0.281922 0.477824 0.973874
O O1 0.727509 0.194451 0.431227
O O2 0.777532 0.195821 0.526152
O O3 0.526980 0.136553 0.640542
O O4 0.820911 0.091891 0.433801
O O5 0.150342 0.475421 0.368097
O O6 0.190790 0.527423 0.231399
O O7 0.002624 0.584122 0.450935
O O8 0.889268 0.495835 0.456475
O O9 0.766839 0.705183 0.819528
O O10 0.000000 0.743894 0.750000
O O11 0.167782 0.361962 0.334390
O O12 0.267739 0.414865 0.163033
O O13 0.665184 0.403582 0.171265
O O14 0.500000 0.500000 0.500000
O O15 0.257670 0.514457 0.567224
O O16 0.068752 0.019930 0.647448
#
# Coordination Sequence:
#
# PCOD9256887 Si02
#       8
#     8   8   8   8   8   8   4   8
#     4  10  18  30  47  70  96 135 175 204 255 306
#     4   9  18  29  47  67  94 132 176 205 244 320
#     4   9  19  31  47  71 100 127 176 219 248 310
#     4  10  18  33  52  65  99 138 166 213 268 303
#     4   9  17  32  47  69  97 132 169 213 254 320
#     4  11  20  30  46  71 101 136 180 212 247 308
#     4  10  22  30  44  76 108 128 172 212 256 312
#     4  11  18  30  48  68 100 142 168 205 260 301
#
# _framework density 16.974153999999999
#
# number of rings (size 3 to 8) (size 9 to 14) (size 15 to 20)
#    0.000    2.133    4.000    2.000    0.933    0.000 
#    0.000    0.000    0.000    0.000    0.000    0.933 
#    0.000    0.000    0.000    0.000    0.000    0.400 
#
# Total GULP energy -167062.370734 kJ/mol
# GULP energy per Si atom -5568.745691 kJ/mol
# Density = 1.693552 g / cm^3
# Si number density = 16.974154 Si / 1000 Ang^3
#
#
#
# Elastic Constant Matrix: (Units=GPa)
#
#
# Indices 1 2 3 4 5 6 
#
# 1 77.7037 19.8203 22.8571 0.0037 13.7510 -0.0015
# 2 19.8203 42.0372 26.0550 0.0101 15.9548 -0.0024
# 3 22.8571 26.0550 77.2155 0.0273 16.9072 -0.0091
# 4 0.0037 0.0101 0.0273 23.3713 -0.0086 11.0561
# 5 13.7510 15.9548 16.9072 -0.0086 33.6634 0.0019
# 6 -0.0015 -0.0024 -0.0091 11.0561 0.0019 22.4540
#
#
#
# Elastic Compliance Matrix: (Units=1/GPa)
#
#
# Indices 1 2 3 4 5 6 
#
# 1 0.015246 -0.004673 -0.002312 0.000002 -0.002852 -0.000001
# 2 -0.004673 0.035058 -0.008119 -0.000012 -0.010629 0.000007
# 3 -0.002312 -0.008119 0.017219 -0.000027 -0.003856 0.000020
# 4 0.000002 -0.000012 -0.000027 0.055780 0.000034 -0.027465
# 5 -0.002852 -0.010629 -0.003856 0.000034 0.037845 -0.000023
# 6 -0.000001 0.000007 0.000020 -0.027465 -0.000023 0.058059
#
#
# Mechanical properties :
#
#
# Convention : Reuss Voigt Hill
#
# Bulk Modulus (GPa) = 26.79862 37.15791 31.97827
# Shear Modulus (GPa) = 19.09457 24.44602 21.77029
#
# Velocity S-wave (km/s) = 3.35762 3.79910 3.58516
# Velocity P-wave (km/s) = 5.55461 6.41737 6.00151
#
# Compressibility (1/GPa) = 0.03731535
#
# Stress axis : x y z
#
# Youngs Moduli (GPa) = 65.59037 28.52387 58.07532
#
# Poissons Ratio (x) = 0.13330 0.13426
# Poissons Ratio (y) = 0.30652 0.47152
# Poissons Ratio (z) = 0.15163 0.23159
#
# Static dielectric constant tensor:
#      x y z
#    x 1.599620 0.000000 0.031850 
#    y 0.000000 1.578810 0.000000 
#    z 0.031850 0.000000 1.616800 
# 
# From -- ./inp_files/245579.got.cif
#   From: 2010.05.17/outbox.cif.g08.bks.cpg/sg15_123_cif.got.tgz:245579.got - 2010.06.03 18:47:42.
