data_PCOD9256337
_publ_section_title
;
Structure prediction by ZEFSAII (Michael W. Deem and Ramdas Pophale) SiO2 
 PCOD9256337
Probable space group: C 2/C
;
_chemical_formula_sum "Si O2"
_cell_formula_units_Z 60
_cell_length_a 23.367098
_cell_length_b 17.384839
_cell_length_c 12.352093
_cell_angle_alpha 90.000000
_cell_angle_beta 35.563730
_cell_angle_gamma 90.000000
_cell_volume 2918.411169
_symmetry_space_group_name_H-M "C 2/C"
_symmetry_group_IT_number 15
_symmetry_cell_setting 'monoclinic'
loop_
_space_group_symop_operation_xyz
x,y,z
-x,y,1/2-z
-x,-y,-z
x,-y,1/2+z
1/2+x,1/2+y,z
1/2-x,1/2+y,1/2-z
1/2-x,1/2-y,-z
1/2+x,1/2-y,1/2+z
loop_
_atom_site_type_symbol
_atom_site_label
_atom_site_fract_x
_atom_site_fract_y
_atom_site_fract_z
Si Si1 0.878078 0.351825 0.132245
Si Si2 0.857854 0.786176 0.810263
Si Si3 0.778772 0.923187 0.794844
Si Si4 0.140161 0.873589 0.487169
Si Si5 0.175558 0.956279 0.009369
Si Si6 0.587873 0.561576 0.858658
Si Si7 0.870374 0.476738 0.318596
Si Si8 0.000000 0.595234 0.250000
O O1 0.905447 0.275916 0.158016
O O2 0.759086 0.359930 0.298661
O O3 0.908952 0.421562 0.164624
O O4 0.929008 0.357077 0.937838
O O5 0.841776 0.863997 0.767416
O O6 0.750000 0.750000 0.000000
O O7 0.896278 0.812884 0.867760
O O8 0.796915 0.909567 0.640660
O O9 0.818480 0.009463 0.750960
O O10 0.672420 0.924968 0.015618
O O11 0.088321 0.873374 0.449758
O O12 0.126671 0.960926 0.553928
O O13 0.278617 0.980176 0.904234
O O14 0.107772 0.916007 0.203953
O O15 0.500000 0.500000 0.000000
O O16 0.940387 0.539060 0.262395
#
# Coordination Sequence:
#
# PCOD9256337 Si02
#       8
#     8   8   8   8   8   8   8   4
#     4  10  20  34  57  84 111 157 193 228 297 350
#     4  10  17  36  61  79 107 152 204 221 275 355
#     4  10  18  33  57  82 105 149 195 238 275 343
#     4   9  17  33  57  79 104 150 198 233 271 352
#     4   9  17  32  53  83 108 138 192 240 288 334
#     4  10  19  31  52  82 116 140 183 243 302 332
#     4  10  18  35  56  83 112 147 190 241 290 336
#     4  12  22  32  56  90 126 142 182 254 292 350
#
# _framework density 20.559132000000002
#
# number of rings (size 3 to 8) (size 9 to 14) (size 15 to 20)
#    0.000    2.133    5.333    3.600    0.000    2.133 
#    0.000    1.333    2.933    8.800    0.000    0.000 
#    0.000    0.000    0.000    0.000    0.000    0.000 
#
# Total GULP energy -167192.554853 kJ/mol
# GULP energy per Si atom -5573.085162 kJ/mol
# Density = 2.051234 g / cm^3
# Si number density = 20.559132 Si / 1000 Ang^3
#
#
#
# Elastic Constant Matrix: (Units=GPa)
#
#
# Indices 1 2 3 4 5 6 
#
# 1 69.3575 11.6039 50.2218 0.0000 31.2889 0.0000
# 2 11.6039 42.8091 31.4852 0.0000 14.7257 0.0000
# 3 50.2218 31.4852 135.8648 0.0000 46.3558 0.0000
# 4 0.0000 0.0000 0.0000 12.3666 0.0000 5.1775
# 5 31.2889 14.7257 46.3558 0.0000 37.5840 0.0000
# 6 0.0000 0.0000 0.0000 5.1775 0.0000 21.3996
#
#
#
# Elastic Compliance Matrix: (Units=1/GPa)
#
#
# Indices 1 2 3 4 5 6 
#
# 1 0.024159 0.001823 -0.003879 0.000000 -0.016042 0.000000
# 2 0.001823 0.028886 -0.005160 0.000000 -0.006471 0.000000
# 3 -0.003879 -0.005160 0.014155 0.000000 -0.012207 0.000000
# 4 0.000000 0.000000 0.000000 0.089977 0.000000 -0.021769
# 5 -0.016042 -0.006471 -0.012207 0.000000 0.057554 0.000000
# 6 0.000000 0.000000 0.000000 -0.021769 0.000000 0.051997
#
#
# Mechanical properties :
#
#
# Convention : Reuss Voigt Hill
#
# Bulk Modulus (GPa) = 18.95110 48.29482 33.62296
# Shear Modulus (GPa) = 16.73637 24.58476 20.66057
#
# Velocity S-wave (km/s) = 2.85627 3.46180 3.17351
# Velocity P-wave (km/s) = 4.48504 6.28653 5.46058
#
# Compressibility (1/GPa) = 0.05276739
#
# Stress axis : x y z
#
# Youngs Moduli (GPa) = 41.39236 34.61830 70.64610
#
# Poissons Ratio (x) = -0.06310 0.27406
# Poissons Ratio (y) = -0.07545 0.36454
# Poissons Ratio (z) = 0.16057 0.17863
#
# Static dielectric constant tensor:
#      x y z
#    x 1.767790 0.000000 0.020780 
#    y 0.000000 1.735400 0.000000 
#    z 0.020780 0.000000 1.901710 
# 
# From -- ./inp_files/119429.got.cif
#   From: 2010.05.17/outbox.cif.g08.bks.cpg/sg15_60_cif.got.tgz:119429.got - 2010.06.03 18:47:42.
