data_PCOD9256057
_publ_section_title
;
Structure prediction by ZEFSAII (Michael W. Deem and Ramdas Pophale) SiO2 
 PCOD9256057
Probable space group: C 2/C
;
_chemical_formula_sum "Si O2"
_cell_formula_units_Z 52
_cell_length_a 17.153801
_cell_length_b 7.202986
_cell_length_c 18.776625
_cell_angle_alpha 90.000000
_cell_angle_beta 61.274645
_cell_angle_gamma 90.000000
_cell_volume 2034.497518
_symmetry_space_group_name_H-M "C 2/C"
_symmetry_group_IT_number 15
_symmetry_cell_setting 'monoclinic'
loop_
_space_group_symop_operation_xyz
x,y,z
-x,y,1/2-z
-x,-y,-z
x,-y,1/2+z
1/2+x,1/2+y,z
1/2-x,1/2+y,1/2-z
1/2-x,1/2-y,-z
1/2+x,1/2-y,1/2+z
loop_
_atom_site_type_symbol
_atom_site_label
_atom_site_fract_x
_atom_site_fract_y
_atom_site_fract_z
Si Si1 0.508258 0.192070 0.870072
Si Si2 0.677217 0.624223 0.678518
Si Si3 0.871319 0.716564 0.822450
Si Si4 0.362426 0.802597 0.072277
Si Si5 0.811228 0.914759 0.157262
Si Si6 0.000000 0.719337 0.250000
Si Si7 0.500430 0.628092 0.591832
O O1 0.413252 0.142027 0.877788
O O2 0.568994 0.165426 0.772894
O O3 0.564263 0.099662 0.909072
O O4 0.497972 0.405216 0.900087
O O5 0.620738 0.441680 0.681654
O O6 0.769794 0.600863 0.595440
O O7 0.699250 0.606070 0.753114
O O8 0.612340 0.799932 0.694620
O O9 0.770838 0.666834 0.848983
O O10 0.321814 0.631677 0.136164
O O11 0.416146 0.713699 0.984265
O O12 0.906798 0.831345 0.093973
O O13 0.008238 0.789508 0.326599
#
# Coordination Sequence:
#
# PCOD9256057 Si02
#       7
#     8   8   8   8   8   4   8
#     4  10  17  34  56  82 109 154 191 221 273 350
#     4  11  18  35  59  87 110 152 197 230 279 344
#     4  11  18  33  62  82 111 153 196 221 278 349
#     4  11  22  35  59  88 116 146 196 242 277 331
#     4  10  19  35  56  86 115 149 188 237 281 335
#     4  10  18  36  60  80 110 154 194 232 284 352
#     4  10  19  37  59  82 113 153 196 232 278 348
#
# _framework density 25.559138000000001
#
# number of rings (size 3 to 8) (size 9 to 14) (size 15 to 20)
#    0.000    1.538    7.692    1.846    0.000    0.615 
#    0.000    5.385    3.385    0.000    0.000    0.000 
#    0.000    0.000    0.000    0.000    0.000    0.000 
#
# Total GULP energy -144963.885725 kJ/mol
# GULP energy per Si atom -5575.534066 kJ/mol
# Density = 2.550096 g / cm^3
# Si number density = 25.559138 Si / 1000 Ang^3
#
#
#
# Elastic Constant Matrix: (Units=GPa)
#
#
# Indices 1 2 3 4 5 6 
#
# 1 191.6902 18.7362 30.0834 0.0000 -15.0057 0.0009
# 2 18.7362 60.5394 6.4010 0.0001 3.3550 0.0019
# 3 30.0834 6.4010 83.4082 -0.0001 -19.9609 -0.0001
# 4 0.0000 0.0001 -0.0001 16.3727 0.0000 -1.0227
# 5 -15.0057 3.3550 -19.9609 0.0000 29.3981 0.0001
# 6 0.0009 0.0019 -0.0001 -1.0227 0.0001 12.9414
#
#
#
# Elastic Compliance Matrix: (Units=1/GPa)
#
#
# Indices 1 2 3 4 5 6 
#
# 1 0.005784 -0.001760 -0.001429 0.000000 0.002183 0.000000
# 2 -0.001760 0.017462 -0.001668 0.000000 -0.004024 -0.000002
# 3 -0.001429 -0.001668 0.014929 0.000000 0.009598 0.000000
# 4 0.000000 0.000000 0.000000 0.061380 0.000000 0.004851
# 5 0.002183 -0.004024 0.009598 0.000000 0.042106 0.000000
# 6 0.000000 -0.000002 0.000000 0.004851 0.000000 0.077654
#
#
# Mechanical properties :
#
#
# Convention : Reuss Voigt Hill
#
# Bulk Modulus (GPa) = 35.13475 49.56435 42.34955
# Shear Modulus (GPa) = 20.96279 30.43692 25.69985
#
# Velocity S-wave (km/s) = 2.86696 3.45460 3.17441
# Velocity P-wave (km/s) = 4.97349 5.94529 5.48097
#
# Compressibility (1/GPa) = 0.02846185
#
# Stress axis : x y z
#
# Youngs Moduli (GPa) = 172.89459 57.26634 66.98156
#
# Poissons Ratio (x) = 0.10079 0.09569
# Poissons Ratio (y) = 0.30429 0.11175
# Poissons Ratio (z) = 0.24699 0.09554
#
# Static dielectric constant tensor:
#      x y z
#    x 2.116260 0.000000 -0.067360 
#    y 0.000000 2.195830 0.000000 
#    z -0.067360 0.000000 1.953220 
# 
# From -- ./inp_files/209467.got.cif
#   From: 2010.05.17/outbox.cif.g08.bks.cpg/sg15_105_cif.got.tgz:209467.got - 2010.06.03 18:47:42.
