data_PCOD9256342
_publ_section_title
;
Structure prediction by ZEFSAII (Michael W. Deem and Ramdas Pophale) SiO2 
 PCOD9256342
Probable space group: C 2/C
;
_chemical_formula_sum "Si O2"
_cell_formula_units_Z 56
_cell_length_a 24.473664
_cell_length_b 9.757620
_cell_length_c 15.187710
_cell_angle_alpha 90.000000
_cell_angle_beta 39.975269
_cell_angle_gamma 90.000000
_cell_volume 2330.124818
_symmetry_space_group_name_H-M "C 2/C"
_symmetry_group_IT_number 15
_symmetry_cell_setting 'monoclinic'
loop_
_space_group_symop_operation_xyz
x,y,z
-x,y,1/2-z
-x,-y,-z
x,-y,1/2+z
1/2+x,1/2+y,z
1/2-x,1/2+y,1/2-z
1/2-x,1/2-y,-z
1/2+x,1/2-y,1/2+z
loop_
_atom_site_type_symbol
_atom_site_label
_atom_site_fract_x
_atom_site_fract_y
_atom_site_fract_z
Si Si1 0.227613 0.403061 0.949552
Si Si2 0.720258 0.545707 0.788201
Si Si3 0.346475 0.260073 0.584587
Si Si4 0.586473 0.715073 0.042416
Si Si5 0.908813 0.136004 0.271115
Si Si6 0.975969 0.159278 0.674386
Si Si7 0.166776 0.658345 0.094311
O O1 0.268555 0.501926 0.825713
O O2 0.312525 0.319052 0.869827
O O3 0.192940 0.500290 0.069679
O O4 0.147261 0.336594 0.999884
O O5 0.709988 0.399889 0.850914
O O6 0.798491 0.651629 0.706825
O O7 0.635626 0.634192 0.906943
O O8 0.441541 0.311076 0.487011
O O9 0.359390 0.185739 0.474973
O O10 0.486462 0.738140 0.152044
O O11 0.590899 0.619023 0.123481
O O12 0.935915 0.987968 0.201758
O O13 0.000000 0.153006 0.750000
O O14 0.906876 0.280629 0.754147
O O15 0.250000 0.750000 0.000000
#
# Coordination Sequence:
#
# PCOD9256342 Si02
#       7
#     8   8   8   8   8   8   8
#     4  11  24  39  62 100 124 165 222 265 320 393
#     4  11  21  40  62  87 126 173 208 262 323 382
#     4  10  21  37  62  86 123 169 207 257 319 388
#     4  11  22  41  63  88 130 166 209 264 329 382
#     4  11  21  39  67  92 121 169 215 264 321 381
#     4  10  17  36  61  89 115 158 207 256 313 378
#     4  10  20  36  64  96 121 152 212 275 321 371
#
# _framework density 24.033048000000001
#
# number of rings (size 3 to 8) (size 9 to 14) (size 15 to 20)
#    0.000    1.429    5.714    1.286    0.000    0.571 
#   12.857    0.000    0.000    1.714    0.000    0.000 
#    0.000    0.000    0.000    0.000    0.000    0.000 
#
# Total GULP energy -156165.502190 kJ/mol
# GULP energy per Si atom -5577.339364 kJ/mol
# Density = 2.397835 g / cm^3
# Si number density = 24.033048 Si / 1000 Ang^3
#
#
#
# Elastic Constant Matrix: (Units=GPa)
#
#
# Indices 1 2 3 4 5 6 
#
# 1 40.5478 16.0926 23.7552 0.0001 -23.2843 0.0000
# 2 16.0926 102.6532 72.1079 0.0004 -29.6849 -0.0003
# 3 23.7552 72.1079 183.1466 -0.0001 -43.5125 -0.0002
# 4 0.0001 0.0004 -0.0001 41.7142 -0.0001 0.1699
# 5 -23.2843 -29.6849 -43.5125 -0.0001 39.7389 0.0001
# 6 0.0000 -0.0003 -0.0002 0.1699 0.0001 19.7650
#
#
#
# Elastic Compliance Matrix: (Units=1/GPa)
#
#
# Indices 1 2 3 4 5 6 
#
# 1 0.037212 0.000428 0.000353 0.000000 0.022509 0.000000
# 2 0.000428 0.014518 -0.004238 0.000000 0.006455 0.000000
# 3 0.000353 -0.004238 0.008623 0.000000 0.006483 0.000000
# 4 0.000000 0.000000 0.000000 0.023974 0.000000 -0.000206
# 5 0.022509 0.006455 0.006483 0.000000 0.050274 0.000000
# 6 0.000000 0.000000 0.000000 -0.000206 0.000000 0.050596
#
#
# Mechanical properties :
#
#
# Convention : Reuss Voigt Hill
#
# Bulk Modulus (GPa) = 18.71311 61.13990 39.92650
# Shear Modulus (GPa) = 23.81817 34.53640 29.17728
#
# Velocity S-wave (km/s) = 3.15152 3.79494 3.48810
# Velocity P-wave (km/s) = 4.58760 6.68560 5.73338
#
# Compressibility (1/GPa) = 0.05343848
#
# Stress axis : x y z
#
# Youngs Moduli (GPa) = 26.87331 68.87997 115.96759
#
# Poissons Ratio (x) = -0.02947 -0.04092
# Poissons Ratio (y) = -0.01150 0.49145
# Poissons Ratio (z) = -0.00948 0.29190
#
# Static dielectric constant tensor:
#      x y z
#    x 2.046680 0.000000 -0.047170 
#    y 0.000000 2.002220 0.000000 
#    z -0.047170 0.000000 1.955820 
# 
# From -- ./inp_files/258975.got.cif
#   From: 2010.05.17/outbox.cif.g08.bks.cpg/sg15_130_cif.got.tgz:258975.got - 2010.06.03 18:47:42.
