data_PCOD9256655
_publ_section_title
;
Structure prediction by ZEFSAII (Michael W. Deem and Ramdas Pophale) SiO2 
 PCOD9256655
Probable space group: C 2/C
;
_chemical_formula_sum "Si O2"
_cell_formula_units_Z 64
_cell_length_a 10.449572
_cell_length_b 17.656833
_cell_length_c 21.080353
_cell_angle_alpha 90.000000
_cell_angle_beta 60.284032
_cell_angle_gamma 90.000000
_cell_volume 3377.969417
_symmetry_space_group_name_H-M "C 2/C"
_symmetry_group_IT_number 15
_symmetry_cell_setting 'monoclinic'
loop_
_space_group_symop_operation_xyz
x,y,z
-x,y,1/2-z
-x,-y,-z
x,-y,1/2+z
1/2+x,1/2+y,z
1/2-x,1/2+y,1/2-z
1/2-x,1/2-y,-z
1/2+x,1/2-y,1/2+z
loop_
_atom_site_type_symbol
_atom_site_label
_atom_site_fract_x
_atom_site_fract_y
_atom_site_fract_z
Si Si1 0.233718 0.750001 0.266284
Si Si2 0.983855 0.250000 0.016142
Si Si3 0.201422 0.317633 0.639616
Si Si4 0.431407 0.859842 0.614357
Si Si5 0.160119 0.140157 0.885645
Si Si6 0.019345 0.682365 0.639615
Si Si7 0.431262 0.984683 0.165909
Si Si8 0.236919 0.515317 0.165909
O O1 0.174483 0.725445 0.212121
O O2 0.145368 0.818643 0.321258
O O3 0.401278 0.774557 0.212121
O O4 0.212119 0.681360 0.321259
O O5 0.812939 0.231542 0.070155
O O6 0.046745 0.268458 0.070155
O O7 0.020209 0.321199 0.962529
O O8 0.054727 0.178800 0.962530
O O9 0.057156 0.337695 0.635041
O O10 0.275327 0.397904 0.642240
O O11 0.415722 0.949977 0.617543
O O12 0.327235 0.162304 0.864963
O O13 0.150809 0.050021 0.882459
O O14 0.940192 0.602095 0.642239
O O15 0.586694 0.000000 0.163305
O O16 0.308725 1.000000 0.250000
#
# Coordination Sequence:
#
# PCOD9256655 Si02
#       8
#     8   8   8   8   8   8   8   8
#     4  10  18  28  50  76  94 124 162 204 256 284
#     4  10  22  32  48  76 104 140 162 190 256 302
#     4  10  19  33  50  74 103 129 167 208 242 293
#     4  10  19  33  50  74 103 129 167 208 242 293
#     4  10  19  33  50  74 103 129 167 208 242 293
#     4  10  19  33  50  74 103 129 167 208 242 293
#     4   9  16  29  52  74  94 126 166 209 247 279
#     4   9  16  29  52  74  94 126 166 209 247 279
#
# _framework density 18.946294000000002
#
# number of rings (size 3 to 8) (size 9 to 14) (size 15 to 20)
#    0.000    2.250    2.500    1.500    0.000    1.000 
#    0.000    0.000    0.000    0.000    0.000   63.000 
#    0.000    0.000    0.000    0.000    0.000    0.000 
#
# Total GULP energy -178370.675343 kJ/mol
# GULP energy per Si atom -5574.083604 kJ/mol
# Density = 1.890317 g / cm^3
# Si number density = 18.946294 Si / 1000 Ang^3
#
#
#
# Elastic Constant Matrix: (Units=GPa)
#
#
# Indices 1 2 3 4 5 6 
#
# 1 17.7263 6.2071 4.6907 0.0000 0.7200 0.0000
# 2 6.2071 96.2822 41.1565 0.0000 1.4132 0.0000
# 3 4.6907 41.1565 115.3061 0.0000 3.2239 0.0000
# 4 0.0000 0.0000 0.0000 22.0271 0.0000 0.0821
# 5 0.7200 1.4132 3.2239 0.0000 15.5293 0.0000
# 6 0.0000 0.0000 0.0000 0.0821 0.0000 19.9961
#
#
#
# Elastic Compliance Matrix: (Units=1/GPa)
#
#
# Indices 1 2 3 4 5 6 
#
# 1 0.057930 -0.003211 -0.001150 0.000000 -0.002155 0.000000
# 2 -0.003211 0.012435 -0.004305 0.000000 -0.000089 0.000000
# 3 -0.001150 -0.004305 0.010303 0.000000 -0.001694 0.000000
# 4 0.000000 0.000000 0.000000 0.045399 0.000000 -0.000186
# 5 -0.002155 -0.000089 -0.001694 0.000000 0.064854 0.000000
# 6 0.000000 0.000000 0.000000 -0.000186 0.000000 0.050011
#
#
# Mechanical properties :
#
#
# Convention : Reuss Voigt Hill
#
# Bulk Modulus (GPa) = 15.78920 37.04701 26.41811
# Shear Modulus (GPa) = 17.89699 23.32785 20.61242
#
# Velocity S-wave (km/s) = 3.07680 3.51274 3.30197
# Velocity P-wave (km/s) = 4.57974 6.00405 5.33960
#
# Compressibility (1/GPa) = 0.06333442
#
# Stress axis : x y z
#
# Youngs Moduli (GPa) = 17.26231 80.41961 97.05532
#
# Poissons Ratio (x) = 0.25825 0.11163
# Poissons Ratio (y) = 0.05544 0.41785
# Poissons Ratio (z) = 0.01985 0.34623
#
# Static dielectric constant tensor:
#      x y z
#    x 1.665270 0.000000 -0.000590 
#    y 0.000000 1.696060 0.000000 
#    z -0.000590 0.000000 1.650630 
# 
# From -- ./inp_files/239789.got.cif
#   From: 2010.05.17/outbox.cif.g08.bks.cpg/sg15_120_cif.got.tgz:239789.got - 2010.06.03 18:47:42.
