data_PCOD9256780
_publ_section_title
;
Structure prediction by ZEFSAII (Michael W. Deem and Ramdas Pophale) SiO2 
 PCOD9256780
Probable space group: C 2/C
;
_chemical_formula_sum "Si O2"
_cell_formula_units_Z 44
_cell_length_a 4.978233
_cell_length_b 15.022439
_cell_length_c 22.495858
_cell_angle_alpha 90.000000
_cell_angle_beta 67.014627
_cell_angle_gamma 90.000000
_cell_volume 1548.785801
_symmetry_space_group_name_H-M "C 2/C"
_symmetry_group_IT_number 15
_symmetry_cell_setting 'monoclinic'
loop_
_space_group_symop_operation_xyz
x,y,z
-x,y,1/2-z
-x,-y,-z
x,-y,1/2+z
1/2+x,1/2+y,z
1/2-x,1/2+y,1/2-z
1/2-x,1/2-y,-z
1/2+x,1/2-y,1/2+z
loop_
_atom_site_type_symbol
_atom_site_label
_atom_site_fract_x
_atom_site_fract_y
_atom_site_fract_z
Si Si1 0.540297 0.133649 0.174543
Si Si2 0.040157 0.896353 0.308046
Si Si3 0.000000 0.058915 0.250000
Si Si4 0.082534 0.364317 0.989337
Si Si5 0.017561 0.215811 0.910645
Si Si6 0.946241 0.481543 0.407832
O O1 0.500000 0.142996 0.250000
O O2 0.621746 0.218022 0.128099
O O3 0.194298 0.117213 0.190673
O O4 0.690479 0.047478 0.129955
O O5 0.189690 0.849618 0.350760
O O6 0.726045 0.930330 0.357669
O O7 0.000000 0.841716 0.250000
O O8 0.184889 0.986035 0.270273
O O9 0.186850 0.278092 0.943019
O O10 0.058944 0.445271 0.945464
O O11 0.756023 0.333194 0.035657
O O12 0.222652 0.408793 0.036485
#
# Coordination Sequence:
#
# PCOD9256780 Si02
#       6
#     8   8   4   8   8   8
#     4  10  18  29  49  74  99 132 169 213 255 298
#     4   8  14  25  43  65  98 133 161 210 255 291
#     4   8  18  32  46  66 104 132 168 196 266 298
#     4   8  14  24  42  71 101 130 167 210 242 295
#     4   9  15  24  44  75  98 128 173 208 250 298
#     4   8  14  26  42  69 100 129 172 205 241 308
#
# _framework density 28.409348999999999
#
# number of rings (size 3 to 8) (size 9 to 14) (size 15 to 20)
#    0.545    2.909    0.000    0.545    0.000    0.000 
#    0.000    0.000    2.000    0.000    0.000  160.364 
#    0.000    0.000    0.000    0.000    0.000    0.000 
#
# Total GULP energy -122598.386452 kJ/mol
# GULP energy per Si atom -5572.653930 kJ/mol
# Density = 2.834469 g / cm^3
# Si number density = 28.409349 Si / 1000 Ang^3
#
#
#
# Elastic Constant Matrix: (Units=GPa)
#
#
# Indices 1 2 3 4 5 6 
#
# 1 72.3607 30.2009 40.0039 0.0000 0.5837 0.0000
# 2 30.2009 123.7733 55.0798 0.0000 -18.1702 0.0000
# 3 40.0039 55.0798 227.6950 0.0000 27.2069 0.0000
# 4 0.0000 0.0000 0.0000 67.6027 0.0000 -0.6052
# 5 0.5837 -18.1702 27.2069 0.0000 39.3463 0.0000
# 6 0.0000 0.0000 0.0000 -0.6052 0.0000 6.5137
#
#
#
# Elastic Compliance Matrix: (Units=1/GPa)
#
#
# Indices 1 2 3 4 5 6 
#
# 1 0.016257 -0.003069 -0.002088 0.000000 -0.000214 0.000000
# 2 -0.003069 0.011277 -0.003070 0.000000 0.007376 0.000000
# 3 -0.002088 -0.003070 0.006178 0.000000 -0.005658 0.000000
# 4 0.000000 0.000000 0.000000 0.014805 0.000000 0.001376
# 5 -0.000214 0.007376 -0.005658 0.000000 0.032738 0.000000
# 6 0.000000 0.000000 0.000000 0.001376 0.000000 0.153651
#
#
# Mechanical properties :
#
#
# Convention : Reuss Voigt Hill
#
# Bulk Modulus (GPa) = 57.94778 74.93315 66.44046
# Shear Modulus (GPa) = 19.44684 42.59550 31.02117
#
# Velocity S-wave (km/s) = 2.61918 3.87634 3.30803
# Velocity P-wave (km/s) = 5.43953 6.81676 6.16671
#
# Compressibility (1/GPa) = 0.01725692
#
# Stress axis : x y z
#
# Youngs Moduli (GPa) = 61.51328 88.67441 161.87767
#
# Poissons Ratio (x) = 0.27213 0.33802
# Poissons Ratio (y) = 0.18878 0.49699
# Poissons Ratio (z) = 0.12845 0.27225
#
# Static dielectric constant tensor:
#      x y z
#    x 2.372410 0.000000 0.161920 
#    y 0.000000 2.320010 0.000000 
#    z 0.161920 0.000000 2.387500 
# 
# From -- ./inp_files/263686.got.cif
#   From: 2010.05.17/outbox.cif.g08.bks.cpg/sg15_132_cif.got.tgz:263686.got - 2010.06.03 18:47:42.
