data_PCOD9256475
_publ_section_title
;
Structure prediction by ZEFSAII (Michael W. Deem and Ramdas Pophale) SiO2 
 PCOD9256475
Probable space group: C 2/C
;
_chemical_formula_sum "Si O2"
_cell_formula_units_Z 44
_cell_length_a 13.489932
_cell_length_b 15.155145
_cell_length_c 11.366301
_cell_angle_alpha 90.000000
_cell_angle_beta 115.013884
_cell_angle_gamma 90.000000
_cell_volume 2105.792776
_symmetry_space_group_name_H-M "C 2/C"
_symmetry_group_IT_number 15
_symmetry_cell_setting 'monoclinic'
loop_
_space_group_symop_operation_xyz
x,y,z
-x,y,1/2-z
-x,-y,-z
x,-y,1/2+z
1/2+x,1/2+y,z
1/2-x,1/2+y,1/2-z
1/2-x,1/2-y,-z
1/2+x,1/2-y,1/2+z
loop_
_atom_site_type_symbol
_atom_site_label
_atom_site_fract_x
_atom_site_fract_y
_atom_site_fract_z
Si Si1 0.266664 0.544194 0.219947
Si Si2 0.546324 0.678941 0.514493
Si Si3 0.338199 0.828492 0.020146
Si Si4 0.000000 0.923319 0.750000
Si Si5 0.784202 0.642154 0.738428
Si Si6 0.307415 0.695154 0.423309
O O1 0.393574 0.528304 0.247476
O O2 0.206841 0.451026 0.194120
O O3 0.261205 0.606000 0.335707
O O4 0.215950 0.601161 0.090526
O O5 0.563211 0.782328 0.497083
O O6 0.537455 0.634053 0.381524
O O7 0.655436 0.646892 0.634502
O O8 0.430852 0.667737 0.520589
O O9 0.358439 0.862750 0.159835
O O10 0.250000 0.750000 0.000000
O O11 0.810003 0.731253 0.821203
O O12 0.250000 0.750000 0.500000
#
# Coordination Sequence:
#
# PCOD9256475 Si02
#       6
#     8   8   8   4   8   8
#     4  11  22  37  63  92 123 154 209 255 307 359
#     4  10  20  40  66  87 117 166 210 248 302 361
#     4  10  17  41  64  83 116 165 204 240 296 368
#     4  10  18  34  64  96 110 154 216 254 300 370
#     4  11  23  39  65  93 124 164 194 263 310 351
#     4  11  25  40  61  93 126 161 204 252 313 368
#
# _framework density 20.894745
#
# number of rings (size 3 to 8) (size 9 to 14) (size 15 to 20)
#    0.000    1.455    7.273    1.091    2.545    5.091 
#    0.000    0.909    4.000    0.000    0.000    0.000 
#    0.000    0.000    0.000    0.000    0.000    0.000 
#
# Total GULP energy -122632.413325 kJ/mol
# GULP energy per Si atom -5574.200606 kJ/mol
# Density = 2.084719 g / cm^3
# Si number density = 20.894745 Si / 1000 Ang^3
#
#
#
# Elastic Constant Matrix: (Units=GPa)
#
#
# Indices 1 2 3 4 5 6 
#
# 1 33.1439 -16.1697 -3.2709 0.0000 -8.2299 0.0000
# 2 -16.1697 66.7026 -11.4656 0.0000 -1.1310 0.0000
# 3 -3.2709 -11.4656 41.0725 0.0000 -1.2636 0.0000
# 4 0.0000 0.0000 0.0000 23.0961 0.0000 -8.3030
# 5 -8.2299 -1.1310 -1.2636 0.0000 24.6501 0.0000
# 6 0.0000 0.0000 0.0000 -8.3030 0.0000 24.5577
#
#
#
# Elastic Compliance Matrix: (Units=1/GPa)
#
#
# Indices 1 2 3 4 5 6 
#
# 1 0.039703 0.011010 0.006669 0.000000 0.014103 0.000000
# 2 0.011010 0.018823 0.006281 0.000000 0.004862 0.000000
# 3 0.006669 0.006281 0.026751 0.000000 0.003886 0.000000
# 4 0.000000 0.000000 0.000000 0.049288 0.000000 0.016664
# 5 0.014103 0.004862 0.003886 0.000000 0.045699 0.000000
# 6 0.000000 0.000000 0.000000 0.016664 0.000000 0.046355
#
#
# Mechanical properties :
#
#
# Convention : Reuss Voigt Hill
#
# Bulk Modulus (GPa) = 7.50766 8.78963 8.14865
# Shear Modulus (GPa) = 22.41175 25.91579 24.16377
#
# Velocity S-wave (km/s) = 3.27861 3.52561 3.40435
# Velocity P-wave (km/s) = 4.23477 4.55950 4.40013
#
# Compressibility (1/GPa) = 0.13319724
#
# Stress axis : x y z
#
# Youngs Moduli (GPa) = 25.18714 53.12656 37.38151
#
# Poissons Ratio (x) = -0.58492 -0.24931
# Poissons Ratio (y) = -0.27731 -0.23479
# Poissons Ratio (z) = -0.16798 -0.33368
#
# Static dielectric constant tensor:
#      x y z
#    x 1.819230 0.000000 0.003210 
#    y 0.000000 1.758530 0.000000 
#    z 0.003210 0.000000 1.849180 
# 
# From -- ./inp_files/96093.got.cif
#   From: 2010.05.17/outbox.cif.g08.bks.cpg/sg15_49_cif.got.tgz:96093.got - 2010.06.03 18:47:42.
