data_PCOD9256458
_publ_section_title
;
Structure prediction by ZEFSAII (Michael W. Deem and Ramdas Pophale) SiO2 
 PCOD9256458
Probable space group: C 2/C
;
_chemical_formula_sum "Si O2"
_cell_formula_units_Z 40
_cell_length_a 13.906062
_cell_length_b 12.636242
_cell_length_c 9.130682
_cell_angle_alpha 90.000000
_cell_angle_beta 105.145447
_cell_angle_gamma 90.000000
_cell_volume 1548.717428
_symmetry_space_group_name_H-M "C 2/C"
_symmetry_group_IT_number 15
_symmetry_cell_setting 'monoclinic'
loop_
_space_group_symop_operation_xyz
x,y,z
-x,y,1/2-z
-x,-y,-z
x,-y,1/2+z
1/2+x,1/2+y,z
1/2-x,1/2+y,1/2-z
1/2-x,1/2-y,-z
1/2+x,1/2-y,1/2+z
loop_
_atom_site_type_symbol
_atom_site_label
_atom_site_fract_x
_atom_site_fract_y
_atom_site_fract_z
Si Si1 0.715787 0.696783 0.139876
Si Si2 0.884136 0.993868 0.512434
Si Si3 0.549858 0.137018 0.567802
Si Si4 0.000000 0.539216 0.250000
Si Si5 0.500000 0.622324 0.750000
Si Si6 0.122458 0.237439 0.561967
O O1 0.685918 0.575451 0.100283
O O2 0.794147 0.716709 0.299383
O O3 0.750000 0.750000 0.000000
O O4 0.618430 0.765575 0.138158
O O5 0.904406 0.050377 0.675965
O O6 0.849142 0.872863 0.504820
O O7 0.000000 0.000000 0.500000
O O8 0.568911 0.035029 0.675689
O O9 0.434976 0.172733 0.549400
O O10 0.558511 0.103564 0.399424
O O11 0.533641 0.696684 0.633002
#
# Coordination Sequence:
#
# PCOD9256458 Si02
#       6
#     8   8   8   4   4   8
#     4  12  22  39  71 101 135 188 242 288 358 434
#     4  10  21  38  63  97 132 179 233 283 346 427
#     4  11  23  46  67  99 138 192 235 300 363 428
#     4  10  25  43  70  92 140 184 231 297 372 424
#     4  10  17  39  62  92 132 184 221 289 344 420
#     4  11  22  39  66  96 133 176 239 285 352 423
#
# _framework density 25.827822000000001
#
# number of rings (size 3 to 8) (size 9 to 14) (size 15 to 20)
#    0.000    1.200    6.000    1.800    0.000    5.600 
#    0.000    1.000    0.000    0.000    0.000    0.000 
#    0.000    0.000    0.000    0.000    0.000    0.000 
#
# Total GULP energy -111854.800389 kJ/mol
# GULP energy per Si atom -5592.740019 kJ/mol
# Density = 2.576904 g / cm^3
# Si number density = 25.827822 Si / 1000 Ang^3
#
#
#
# Elastic Constant Matrix: (Units=GPa)
#
#
# Indices 1 2 3 4 5 6 
#
# 1 53.8505 28.0478 44.3062 0.0000 14.7758 0.0000
# 2 28.0478 150.6276 58.0772 0.0000 18.6297 0.0000
# 3 44.3062 58.0772 100.7812 0.0000 22.8044 0.0000
# 4 0.0000 0.0000 0.0000 54.0815 0.0000 7.3229
# 5 14.7758 18.6297 22.8044 0.0000 53.3990 0.0000
# 6 0.0000 0.0000 0.0000 7.3229 0.0000 38.6271
#
#
#
# Elastic Compliance Matrix: (Units=1/GPa)
#
#
# Indices 1 2 3 4 5 6 
#
# 1 0.029524 -0.000500 -0.012046 0.000000 -0.002850 0.000000
# 2 -0.000500 0.008590 -0.004520 0.000000 -0.000928 0.000000
# 3 -0.012046 -0.004520 0.018500 0.000000 -0.002990 0.000000
# 4 0.000000 0.000000 0.000000 0.018978 0.000000 -0.003598
# 5 -0.002850 -0.000928 -0.002990 0.000000 0.021116 0.000000
# 6 0.000000 0.000000 0.000000 -0.003598 0.000000 0.026571
#
#
# Mechanical properties :
#
#
# Convention : Reuss Voigt Hill
#
# Bulk Modulus (GPa) = 44.48383 62.90242 53.69312
# Shear Modulus (GPa) = 30.32062 40.87672 35.59867
#
# Velocity S-wave (km/s) = 3.43002 3.98258 3.71658
# Velocity P-wave (km/s) = 5.73997 6.74947 6.26509
#
# Compressibility (1/GPa) = 0.02248008
#
# Stress axis : x y z
#
# Youngs Moduli (GPa) = 33.87096 116.41994 54.05500
#
# Poissons Ratio (x) = 0.05825 0.65116
# Poissons Ratio (y) = 0.01695 0.24433
# Poissons Ratio (z) = 0.40802 0.52622
#
# Static dielectric constant tensor:
#      x y z
#    x 2.124820 0.000000 -0.085330 
#    y 0.000000 2.114330 0.000000 
#    z -0.085330 0.000000 2.143670 
# 
# From -- ./inp_files/103957.got.cif
#   From: 2010.05.17/outbox.cif.g08.bks.cpg/sg15_52_cif.got.tgz:103957.got - 2010.06.03 18:47:42.
