data_PCOD9256711
_publ_section_title
;
Structure prediction by ZEFSAII (Michael W. Deem and Ramdas Pophale) SiO2 
 PCOD9256711
Probable space group: C 2/C
;
_chemical_formula_sum "Si O2"
_cell_formula_units_Z 56
_cell_length_a 16.533479
_cell_length_b 24.586657
_cell_length_c 14.460297
_cell_angle_alpha 90.000000
_cell_angle_beta 36.444520
_cell_angle_gamma 90.000000
_cell_volume 3491.882728
_symmetry_space_group_name_H-M "C 2/C"
_symmetry_group_IT_number 15
_symmetry_cell_setting 'monoclinic'
loop_
_space_group_symop_operation_xyz
x,y,z
-x,y,1/2-z
-x,-y,-z
x,-y,1/2+z
1/2+x,1/2+y,z
1/2-x,1/2+y,1/2-z
1/2-x,1/2-y,-z
1/2+x,1/2-y,1/2+z
loop_
_atom_site_type_symbol
_atom_site_label
_atom_site_fract_x
_atom_site_fract_y
_atom_site_fract_z
Si Si1 0.366260 0.625162 0.314581
Si Si2 0.265188 0.238245 0.094623
Si Si3 0.034584 0.018277 0.366009
Si Si4 0.670470 0.017085 0.951044
Si Si5 0.031667 0.311851 0.331894
Si Si6 0.042697 0.571373 0.908267
Si Si7 0.259937 0.036416 0.938395
O O1 0.500000 0.641755 0.250000
O O2 0.299585 0.678468 0.333346
O O3 0.416524 0.580510 0.194570
O O4 0.266573 0.591866 0.477037
O O5 0.179728 0.287115 0.215446
O O6 0.250000 0.250000 0.000000
O O7 0.423297 0.231996 0.968696
O O8 0.892641 0.014876 0.440899
O O9 0.167421 0.984567 0.213984
O O10 0.000000 0.000000 0.500000
O O11 0.602095 0.065916 0.957158
O O12 0.592584 0.965319 0.976623
O O13 0.659504 0.005535 0.070216
O O14 0.013581 0.368607 0.399263
O O15 0.000000 0.318116 0.250000
O O16 0.156277 0.548145 0.731537
#
# Coordination Sequence:
#
# PCOD9256711 Si02
#       7
#     8   8   8   8   8   8   8
#     4   9  17  27  45  67  92 127 158 193 232 277
#     4  10  18  29  44  64  91 121 163 192 229 285
#     4  10  18  32  46  68  96 132 165 198 234 285
#     4  10  20  31  45  70  93 132 161 199 236 283
#     4  10  19  30  44  64  91 125 160 190 229 281
#     4  11  20  31  48  68  99 130 161 195 239 288
#     4  10  18  31  50  66  97 131 161 194 239 282
#
# _framework density 16.037194
#
# number of rings (size 3 to 8) (size 9 to 14) (size 15 to 20)
#    0.000    2.000    1.429    7.286    0.000    1.143 
#    0.000    0.000    0.000    0.000    0.000    0.000 
#    0.000    1.143    0.571    0.000    0.000    0.000 
#
# Total GULP energy -155922.991467 kJ/mol
# GULP energy per Si atom -5568.678267 kJ/mol
# Density = 1.600069 g / cm^3
# Si number density = 16.037194 Si / 1000 Ang^3
#
#
#
# Elastic Constant Matrix: (Units=GPa)
#
#
# Indices 1 2 3 4 5 6 
#
# 1 57.1348 16.3538 5.3109 -0.0128 -9.2717 0.0059
# 2 16.3538 45.4002 4.9244 -0.0128 2.3375 0.0084
# 3 5.3109 4.9244 49.9884 -0.0179 -9.4299 0.0174
# 4 -0.0128 -0.0128 -0.0179 19.1600 0.0110 0.4221
# 5 -9.2717 2.3375 -9.4299 0.0110 23.5965 -0.0076
# 6 0.0059 0.0084 0.0174 0.4221 -0.0076 21.7577
#
#
#
# Elastic Compliance Matrix: (Units=1/GPa)
#
#
# Indices 1 2 3 4 5 6 
#
# 1 0.021332 -0.008196 0.000298 0.000004 0.009313 0.000000
# 2 -0.008196 0.025658 -0.002968 0.000013 -0.006948 -0.000008
# 3 0.000298 -0.002968 0.022002 0.000014 0.009204 -0.000014
# 4 0.000004 0.000013 0.000014 0.052214 -0.000019 -0.001013
# 5 0.009313 -0.006948 0.009204 -0.000019 0.050405 0.000011
# 6 0.000000 -0.000008 -0.000014 -0.001013 0.000011 0.045980
#
#
# Mechanical properties :
#
#
# Convention : Reuss Voigt Hill
#
# Bulk Modulus (GPa) = 21.15931 22.85573 22.00752
# Shear Modulus (GPa) = 19.60200 21.29846 20.45023
#
# Velocity S-wave (km/s) = 3.49991 3.64822 3.57483
# Velocity P-wave (km/s) = 5.43645 5.65938 5.54904
#
# Compressibility (1/GPa) = 0.04726052
#
# Stress axis : x y z
#
# Youngs Moduli (GPa) = 46.87795 38.97390 45.45141
#
# Poissons Ratio (x) = 0.31943 -0.01354
# Poissons Ratio (y) = 0.38421 0.13488
# Poissons Ratio (z) = -0.01396 0.11566
#
# Static dielectric constant tensor:
#      x y z
#    x 1.561730 0.000000 -0.024950 
#    y 0.000000 1.545690 0.000000 
#    z -0.024950 0.000000 1.600390 
# 
# From -- ./inp_files/51165.got.cif
#   From: 2010.05.17/outbox.cif.g08.bks.cpg/sg15_26_cif.got.tgz:51165.got - 2010.06.03 18:47:42.
