data_PCOD9256943
_publ_section_title
;
Structure prediction by ZEFSAII (Michael W. Deem and Ramdas Pophale) SiO2 
 PCOD9256943
Probable space group: C 2/C
;
_chemical_formula_sum "Si O2"
_cell_formula_units_Z 44
_cell_length_a 31.096186
_cell_length_b 7.716239
_cell_length_c 9.249993
_cell_angle_alpha 90.000000
_cell_angle_beta 49.403978
_cell_angle_gamma 90.000000
_cell_volume 1685.299263
_symmetry_space_group_name_H-M "C 2/C"
_symmetry_group_IT_number 15
_symmetry_cell_setting 'monoclinic'
loop_
_space_group_symop_operation_xyz
x,y,z
-x,y,1/2-z
-x,-y,-z
x,-y,1/2+z
1/2+x,1/2+y,z
1/2-x,1/2+y,1/2-z
1/2-x,1/2-y,-z
1/2+x,1/2-y,1/2+z
loop_
_atom_site_type_symbol
_atom_site_label
_atom_site_fract_x
_atom_site_fract_y
_atom_site_fract_z
Si Si1 0.768828 0.084590 0.367408
Si Si2 0.000000 0.204092 0.250000
Si Si3 0.941627 0.401967 0.134463
Si Si4 0.197155 0.413486 0.746091
Si Si5 0.602650 0.277710 0.325211
Si Si6 0.874471 0.232464 0.045411
O O1 0.750000 0.250000 0.500000
O O2 0.745226 0.110836 0.259900
O O3 0.836349 0.097242 0.218167
O O4 0.732143 0.937482 0.522336
O O5 0.048805 0.301857 0.237578
O O6 0.955172 0.145469 0.475906
O O7 0.901811 0.569502 0.211839
O O8 0.928270 0.282737 0.026119
O O9 0.000000 0.500000 0.000000
O O10 0.154740 0.252848 0.821175
O O11 0.162564 0.588161 0.869735
O O12 0.613133 0.345629 0.139464
#
# Coordination Sequence:
#
# PCOD9256943 Si02
#       6
#     8   4   8   8   8   8
#     4  10  22  36  56  80 110 163 207 236 289 353
#     4  10  20  26  46  78 108 146 182 224 288 370
#     4   9  17  30  48  76 115 151 178 228 295 356
#     4  10  19  37  53  77 117 156 196 250 282 338
#     4  10  18  30  49  74 113 155 182 227 296 343
#     4  10  20  33  53  79 114 163 191 233 293 361
#
# _framework density 26.108122000000002
#
# number of rings (size 3 to 8) (size 9 to 14) (size 15 to 20)
#    0.000    2.182    1.818    3.273    5.091    2.909 
#    0.000    0.000    0.000    0.000    0.000    0.000 
#    0.000   37.818    0.000    1.909    0.000    0.000 
#
# Total GULP energy -122606.032968 kJ/mol
# GULP energy per Si atom -5573.001499 kJ/mol
# Density = 2.604870 g / cm^3
# Si number density = 26.108122 Si / 1000 Ang^3
#
#
#
# Elastic Constant Matrix: (Units=GPa)
#
#
# Indices 1 2 3 4 5 6 
#
# 1 110.2631 -13.7556 19.1368 0.0000 8.2505 0.0000
# 2 -13.7556 77.3506 5.8461 0.0000 -8.0191 0.0000
# 3 19.1368 5.8461 193.5035 0.0000 -10.8843 0.0000
# 4 0.0000 0.0000 0.0000 13.6785 0.0000 0.7495
# 5 8.2505 -8.0191 -10.8843 0.0000 43.1881 0.0000
# 6 0.0000 0.0000 0.0000 0.7495 0.0000 2.9983
#
#
#
# Elastic Compliance Matrix: (Units=1/GPa)
#
#
# Indices 1 2 3 4 5 6 
#
# 1 0.009595 0.001602 -0.001099 0.000000 -0.001813 0.000000
# 2 0.001602 0.013463 -0.000448 0.000000 0.002081 0.000000
# 3 -0.001099 -0.000448 0.005373 0.000000 0.001481 0.000000
# 4 0.000000 0.000000 0.000000 0.074123 0.000000 -0.018530
# 5 -0.001813 0.002081 0.001481 0.000000 0.024260 0.000000
# 6 0.000000 0.000000 0.000000 -0.018530 0.000000 0.338151
#
#
# Mechanical properties :
#
#
# Convention : Reuss Voigt Hill
#
# Bulk Modulus (GPa) = 35.03880 44.84129 39.94005
# Shear Modulus (GPa) = 10.54027 36.63230 23.58629
#
# Velocity S-wave (km/s) = 2.01145 3.74986 3.00894
# Velocity P-wave (km/s) = 4.34101 5.99676 5.23476
#
# Compressibility (1/GPa) = 0.02853979
#
# Stress axis : x y z
#
# Youngs Moduli (GPa) = 104.21606 74.28010 186.10102
#
# Poissons Ratio (x) = -0.11896 0.20458
# Poissons Ratio (y) = -0.16691 0.08339
# Poissons Ratio (z) = 0.11457 0.03328
#
# Static dielectric constant tensor:
#      x y z
#    x 2.457100 0.000000 0.015140 
#    y 0.000000 2.829130 0.000000 
#    z 0.015140 0.000000 1.926500 
# 
# From -- ./inp_files/68976.got.cif
#   From: 2010.05.17/outbox.cif.g08.bks.cpg/sg15_35_cif.got.tgz:68976.got - 2010.06.03 18:47:42.
