data_PCOD9256697
_publ_section_title
;
Structure prediction by ZEFSAII (Michael W. Deem and Ramdas Pophale) SiO2 
 PCOD9256697
Probable space group: C 2/C
;
_chemical_formula_sum "Si O2"
_cell_formula_units_Z 48
_cell_length_a 17.647563
_cell_length_b 29.035274
_cell_length_c 5.375179
_cell_angle_alpha 90.000000
_cell_angle_beta 107.451801
_cell_angle_gamma 90.000000
_cell_volume 2627.472176
_symmetry_space_group_name_H-M "C 2/C"
_symmetry_group_IT_number 15
_symmetry_cell_setting 'monoclinic'
loop_
_space_group_symop_operation_xyz
x,y,z
-x,y,1/2-z
-x,-y,-z
x,-y,1/2+z
1/2+x,1/2+y,z
1/2-x,1/2+y,1/2-z
1/2-x,1/2-y,-z
1/2+x,1/2-y,1/2+z
loop_
_atom_site_type_symbol
_atom_site_label
_atom_site_fract_x
_atom_site_fract_y
_atom_site_fract_z
Si Si1 0.084212 0.181429 0.390798
Si Si2 0.626273 0.271609 0.434679
Si Si3 0.151133 0.943074 0.828780
Si Si4 0.798024 0.677758 0.092463
Si Si5 0.410183 0.545258 0.730111
Si Si6 0.756211 0.368943 0.048943
O O1 0.082025 0.203983 0.661778
O O2 0.166749 0.153150 0.456517
O O3 0.000000 0.157494 0.250000
O O4 0.092746 0.218666 0.175738
O O5 0.713516 0.295416 0.517147
O O6 0.637908 0.217769 0.389129
O O7 0.124744 0.925280 0.531295
O O8 0.236015 0.922520 0.983492
O O9 0.140001 0.998135 0.791364
O O10 0.094754 0.931749 0.007167
O O11 0.793329 0.644101 0.849934
O O12 0.803138 0.652139 0.361659
O O13 0.500000 0.532997 0.750000
#
# Coordination Sequence:
#
# PCOD9256697 Si02
#       6
#     8   8   8   8   8   8
#     4  10  19  28  40  61  84 104 128 163 210 248
#     4   9  17  30  44  56  76 105 131 162 197 244
#     4  10  18  29  41  56  75  97 132 172 204 235
#     4   9  17  30  45  58  73  99 136 167 203 239
#     4  10  19  30  42  54  73 108 142 161 189 244
#     4  10  19  29  42  61  79  99 131 179 215 232
#
# _framework density 18.268511
#
# number of rings (size 3 to 8) (size 9 to 14) (size 15 to 20)
#    0.000    2.333    0.000    5.000    0.000    6.000 
#    0.000    0.000    0.000    0.000    0.000    0.000 
#    0.000    0.000    0.000    0.000    0.000    0.000 
#
# Total GULP energy -133681.733809 kJ/mol
# GULP energy per Si atom -5570.072242 kJ/mol
# Density = 1.822693 g / cm^3
# Si number density = 18.268511 Si / 1000 Ang^3
#
#
#
# Elastic Constant Matrix: (Units=GPa)
#
#
# Indices 1 2 3 4 5 6 
#
# 1 12.6872 4.7931 10.1272 0.0000 -14.4593 0.0000
# 2 4.7931 45.6831 3.8787 0.0000 -6.0623 0.0000
# 3 10.1272 3.8787 92.9363 0.0000 -26.1360 0.0000
# 4 0.0000 0.0000 0.0000 15.8599 0.0000 0.4672
# 5 -14.4593 -6.0623 -26.1360 0.0000 26.1801 0.0000
# 6 0.0000 0.0000 0.0000 0.4672 0.0000 8.9585
#
#
#
# Elastic Compliance Matrix: (Units=1/GPa)
#
#
# Indices 1 2 3 4 5 6 
#
# 1 0.228044 -0.006731 0.014478 0.000000 0.138844 0.000000
# 2 -0.006731 0.022819 0.000308 0.000000 0.001874 0.000000
# 3 0.014478 0.000308 0.015903 0.000000 0.023944 0.000000
# 4 0.000000 0.000000 0.000000 0.063149 0.000000 -0.003293
# 5 0.138844 0.001874 0.023944 0.000000 0.139219 0.000000
# 6 0.000000 0.000000 0.000000 -0.003293 0.000000 0.111797
#
#
# Mechanical properties :
#
#
# Convention : Reuss Voigt Hill
#
# Bulk Modulus (GPa) = 3.53511 20.98939 12.26225
# Shear Modulus (GPa) = 7.58595 19.03354 13.30975
#
# Velocity S-wave (km/s) = 2.03997 3.23131 2.70212
# Velocity P-wave (km/s) = 2.73641 5.04343 4.05735
#
# Compressibility (1/GPa) = 0.28287647
#
# Stress axis : x y z
#
# Youngs Moduli (GPa) = 4.38511 43.82380 62.88053
#
# Poissons Ratio (x) = 0.29496 -0.91036
# Poissons Ratio (y) = 0.02951 -0.01938
# Poissons Ratio (z) = -0.06349 -0.01350
#
# Static dielectric constant tensor:
#      x y z
#    x 1.622720 0.000000 -0.024940 
#    y 0.000000 1.700730 0.000000 
#    z -0.024940 0.000000 1.698690 
# 
# From -- ./inp_files/11879.got.cif
#   From: 2010.05.17/outbox.cif.g08.bks.cpg/sg15_6_cif.got.tgz:11879.got - 2010.06.03 18:47:42.
