data_PCOD9256817
_publ_section_title
;
Structure prediction by ZEFSAII (Michael W. Deem and Ramdas Pophale) SiO2 
 PCOD9256817
Probable space group: C 2/C
;
_chemical_formula_sum "Si O2"
_cell_formula_units_Z 52
_cell_length_a 17.166968
_cell_length_b 26.652998
_cell_length_c 5.535603
_cell_angle_alpha 90.000000
_cell_angle_beta 51.722490
_cell_angle_gamma 90.000000
_cell_volume 1988.314566
_symmetry_space_group_name_H-M "C 2/C"
_symmetry_group_IT_number 15
_symmetry_cell_setting 'monoclinic'
loop_
_space_group_symop_operation_xyz
x,y,z
-x,y,1/2-z
-x,-y,-z
x,-y,1/2+z
1/2+x,1/2+y,z
1/2-x,1/2+y,1/2-z
1/2-x,1/2-y,-z
1/2+x,1/2-y,1/2+z
loop_
_atom_site_type_symbol
_atom_site_label
_atom_site_fract_x
_atom_site_fract_y
_atom_site_fract_z
Si Si1 0.868487 0.303594 0.718483
Si Si2 0.660633 0.016506 0.306674
Si Si3 0.388067 0.522559 0.323637
Si Si4 0.371013 0.308671 0.315022
Si Si5 0.370952 0.364174 0.818685
Si Si6 0.500000 0.120564 0.250000
Si Si7 0.649242 0.883619 0.099920
O O1 0.749101 0.304857 0.961936
O O2 0.888084 0.329698 0.423671
O O3 0.916311 0.342495 0.808571
O O4 0.906473 0.247875 0.695315
O O5 0.673023 0.075646 0.344614
O O6 0.614188 0.008073 0.134557
O O7 0.768354 0.988987 0.070132
O O8 0.419149 0.488207 0.038508
O O9 0.409323 0.579617 0.212690
O O10 0.397832 0.342328 0.030381
O O11 0.395661 0.330395 0.534717
O O12 0.251701 0.372509 0.037804
O O13 0.441281 0.093669 0.575139
#
# Coordination Sequence:
#
# PCOD9256817 Si02
#       7
#     8   8   8   8   8   4   8
#     4  10  24  39  59  83 111 149 197 244 304 348
#     4  10  21  34  56  78 108 151 200 246 290 325
#     4  10  18  29  52  83 113 152 189 232 292 330
#     4  10  23  38  61  85 112 144 198 246 298 353
#     4  11  20  35  60  84 115 151 197 242 290 346
#     4  12  24  40  60  80 114 156 204 250 292 346
#     4  11  23  37  59  81 114 153 210 242 295 338
#
# _framework density 26.152804
#
# number of rings (size 3 to 8) (size 9 to 14) (size 15 to 20)
#    0.000    1.538    4.615    1.385   10.769    1.846 
#    0.000    0.769    0.000    0.000    0.000    0.000 
#    0.000    0.000    0.000   13.846    1.846    0.000 
#
# Total GULP energy -145514.404936 kJ/mol
# GULP energy per Si atom -5596.707882 kJ/mol
# Density = 2.609328 g / cm^3
# Si number density = 26.152804 Si / 1000 Ang^3
#
#
#
# Elastic Constant Matrix: (Units=GPa)
#
#
# Indices 1 2 3 4 5 6 
#
# 1 70.6266 6.3128 31.0037 0.0000 20.1867 0.0000
# 2 6.3128 149.7492 54.6221 0.0000 25.3729 0.0000
# 3 31.0037 54.6221 165.5257 0.0000 24.1216 0.0000
# 4 0.0000 0.0000 0.0000 28.9120 0.0000 8.4814
# 5 20.1867 25.3729 24.1216 0.0000 55.8574 0.0000
# 6 0.0000 0.0000 0.0000 8.4814 0.0000 33.9010
#
#
#
# Elastic Compliance Matrix: (Units=1/GPa)
#
#
# Indices 1 2 3 4 5 6 
#
# 1 0.016816 0.001219 -0.002759 0.000000 -0.005439 0.000000
# 2 0.001219 0.008029 -0.002436 0.000000 -0.003036 0.000000
# 3 -0.002759 -0.002436 0.007529 0.000000 -0.001148 0.000000
# 4 0.000000 0.000000 0.000000 0.037327 0.000000 -0.009338
# 5 -0.005439 -0.003036 -0.001148 0.000000 0.021743 0.000000
# 6 0.000000 0.000000 0.000000 -0.009338 0.000000 0.031834
#
#
# Mechanical properties :
#
#
# Convention : Reuss Voigt Hill
#
# Bulk Modulus (GPa) = 40.94471 63.30873 52.12672
# Shear Modulus (GPa) = 35.87542 43.33162 39.60352
#
# Velocity S-wave (km/s) = 3.70775 4.07487 3.89564
# Velocity P-wave (km/s) = 5.83265 6.81170 6.34110
#
# Compressibility (1/GPa) = 0.02442318
#
# Stress axis : x y z
#
# Youngs Moduli (GPa) = 59.46705 124.54500 132.81668
#
# Poissons Ratio (x) = -0.15185 0.36649
# Poissons Ratio (y) = -0.07251 0.32348
# Poissons Ratio (z) = 0.16409 0.30333
#
# Static dielectric constant tensor:
#      x y z
#    x 2.318300 0.000000 -0.012810 
#    y 0.000000 1.984250 0.000000 
#    z -0.012810 0.000000 2.103430 
# 
# From -- ./inp_files/13847.got.cif
#   From: 2010.05.17/outbox.cif.g08.bks.cpg/sg15_7_cif.got.tgz:13847.got - 2010.06.03 18:47:42.
