data_PCOD9256257
_publ_section_title
;
Structure prediction by ZEFSAII (Michael W. Deem and Ramdas Pophale) SiO2 
 PCOD9256257
Probable space group: C 2/C
;
_chemical_formula_sum "Si O2"
_cell_formula_units_Z 52
_cell_length_a 17.079519
_cell_length_b 11.523384
_cell_length_c 15.594559
_cell_angle_alpha 90.000000
_cell_angle_beta 48.664927
_cell_angle_gamma 90.000000
_cell_volume 2304.558438
_symmetry_space_group_name_H-M "C 2/C"
_symmetry_group_IT_number 15
_symmetry_cell_setting 'monoclinic'
loop_
_space_group_symop_operation_xyz
x,y,z
-x,y,1/2-z
-x,-y,-z
x,-y,1/2+z
1/2+x,1/2+y,z
1/2-x,1/2+y,1/2-z
1/2-x,1/2-y,-z
1/2+x,1/2-y,1/2+z
loop_
_atom_site_type_symbol
_atom_site_label
_atom_site_fract_x
_atom_site_fract_y
_atom_site_fract_z
Si Si1 0.139994 0.408691 0.740420
Si Si2 0.714869 0.076372 0.357426
Si Si3 0.613817 0.449307 0.627730
Si Si4 0.000000 0.414256 0.250000
Si Si5 0.925350 0.352209 0.996561
Si Si6 0.879193 0.790967 0.368122
Si Si7 0.445087 0.752349 0.451579
O O1 0.229192 0.435824 0.744859
O O2 0.165553 0.288026 0.675609
O O3 0.099921 0.504915 0.701668
O O4 0.033536 0.397150 0.874751
O O5 0.813020 0.092852 0.347924
O O6 0.647897 0.189685 0.428058
O O7 0.646091 0.962234 0.429755
O O8 0.500000 0.456023 0.750000
O O9 0.654578 0.579642 0.584868
O O10 0.597085 0.368307 0.557010
O O11 0.028793 0.333136 0.149224
O O12 0.872913 0.281065 0.959037
O O13 0.957502 0.270676 0.053738
O O14 0.000000 0.797906 0.250000
#
# Coordination Sequence:
#
# PCOD9256257 Si02
#       7
#     8   8   8   4   8   8   8
#     4  10  17  35  64  93 119 151 205 264 308 358
#     4  11  21  38  64  96 121 158 217 265 307 361
#     4  11  25  42  57  85 134 177 197 251 317 387
#     4  12  16  34  66  94 118 150 200 260 324 346
#     4  10  18  35  66  93 114 154 209 267 302 361
#     4   9  19  38  62  83 125 165 199 242 317 373
#     4  11  21  37  64  91 125 158 206 264 314 362
#
# _framework density 22.563974000000002
#
# number of rings (size 3 to 8) (size 9 to 14) (size 15 to 20)
#    0.000    1.538    6.154    1.385    0.000    1.231 
#    5.538    0.000   13.538    0.000    0.000    0.000 
#    0.000    0.000    0.000    0.000    0.000    0.000 
#
# Total GULP energy -145091.539621 kJ/mol
# GULP energy per Si atom -5580.443832 kJ/mol
# Density = 2.251262 g / cm^3
# Si number density = 22.563974 Si / 1000 Ang^3
#
#
#
# Elastic Constant Matrix: (Units=GPa)
#
#
# Indices 1 2 3 4 5 6 
#
# 1 78.1626 21.3539 39.6631 0.0000 17.4839 0.0000
# 2 21.3539 114.1014 30.1353 0.0000 23.2163 0.0000
# 3 39.6631 30.1353 45.3098 0.0000 25.4702 0.0000
# 4 0.0000 0.0000 0.0000 22.8669 0.0000 12.2004
# 5 17.4839 23.2163 25.4702 0.0000 43.3111 0.0000
# 6 0.0000 0.0000 0.0000 12.2004 0.0000 21.6874
#
#
#
# Elastic Compliance Matrix: (Units=1/GPa)
#
#
# Indices 1 2 3 4 5 6 
#
# 1 0.023545 0.001012 -0.023357 0.000000 0.003689 0.000000
# 2 0.001012 0.010831 -0.006866 0.000000 -0.002177 0.000000
# 3 -0.023357 -0.006866 0.059325 0.000000 -0.021779 0.000000
# 4 0.000000 0.000000 0.000000 0.062486 0.000000 -0.035152
# 5 0.003689 -0.002177 -0.021779 0.000000 0.035574 0.000000
# 6 0.000000 0.000000 0.000000 -0.035152 0.000000 0.065885
#
#
# Mechanical properties :
#
#
# Convention : Reuss Voigt Hill
#
# Bulk Modulus (GPa) = 28.34539 46.65316 37.49927
# Shear Modulus (GPa) = 15.25193 27.33453 21.29323
#
# Velocity S-wave (km/s) = 2.60271 3.48433 3.07527
# Velocity P-wave (km/s) = 4.64991 6.07521 5.40971
#
# Compressibility (1/GPa) = 0.03527911
#
# Stress axis : x y z
#
# Youngs Moduli (GPa) = 42.47256 92.32774 16.85619
#
# Poissons Ratio (x) = -0.09343 0.39371
# Poissons Ratio (y) = -0.04298 0.11573
# Poissons Ratio (z) = 0.99203 0.63391
#
# Static dielectric constant tensor:
#      x y z
#    x 1.987770 0.000000 0.016140 
#    y 0.000000 1.871980 0.000000 
#    z 0.016140 0.000000 1.855440 
# 
# From -- ./inp_files/160773.got.cif
#   From: 2010.05.17/outbox.cif.g08.bks.cpg/sg15_81_cif.got.tgz:160773.got - 2010.06.03 18:47:42.
