data_PCOD9256999
_publ_section_title
;
Structure prediction by ZEFSAII (Michael W. Deem and Ramdas Pophale) SiO2 
 PCOD9256999
Probable space group: C 2/C
;
_chemical_formula_sum "Si O2"
_cell_formula_units_Z 56
_cell_length_a 4.903665
_cell_length_b 23.097564
_cell_length_c 20.731774
_cell_angle_alpha 90.000000
_cell_angle_beta 78.363812
_cell_angle_gamma 90.000000
_cell_volume 2299.878248
_symmetry_space_group_name_H-M "C 2/C"
_symmetry_group_IT_number 15
_symmetry_cell_setting 'monoclinic'
loop_
_space_group_symop_operation_xyz
x,y,z
-x,y,1/2-z
-x,-y,-z
x,-y,1/2+z
1/2+x,1/2+y,z
1/2-x,1/2+y,1/2-z
1/2-x,1/2-y,-z
1/2+x,1/2-y,1/2+z
loop_
_atom_site_type_symbol
_atom_site_label
_atom_site_fract_x
_atom_site_fract_y
_atom_site_fract_z
Si Si1 0.620724 0.657766 0.176139
Si Si2 0.854646 0.530538 0.068540
Si Si3 0.119878 0.421210 0.677936
Si Si4 0.417850 0.126567 0.976111
Si Si5 0.544496 0.315481 0.321379
Si Si6 0.986355 0.268906 0.392383
Si Si7 0.017342 0.920340 0.097226
O O1 0.500000 0.682791 0.250000
O O2 0.932961 0.636752 0.174754
O O3 0.587072 0.703168 0.119966
O O4 0.430832 0.600945 0.173645
O O5 0.052702 0.539716 0.119943
O O6 0.610231 0.486249 0.097865
O O7 0.791567 0.594888 0.044200
O O8 0.000000 0.500000 0.000000
O O9 0.000000 0.447267 0.750000
O O10 0.385167 0.193982 0.959303
O O11 0.745898 0.111484 0.958145
O O12 0.271897 0.091776 0.924339
O O13 0.500000 0.300411 0.250000
O O14 0.840917 0.301386 0.338439
O O15 0.482612 0.383055 0.337742
O O16 0.316254 0.278896 0.372298
#
# Coordination Sequence:
#
# PCOD9256999 Si02
#       7
#     8   8   8   8   8   8   8
#     4  10  20  37  58  82 117 159 192 230 288 347
#     4  10  21  41  64  83 111 155 194 238 294 343
#     4  10  23  40  59  87 118 149 195 241 280 343
#     4   9  19  34  55  83 111 141 189 237 277 336
#     4  10  18  30  50  82 116 148 189 237 282 341
#     4  10  19  33  55  83 115 150 190 234 286 342
#     4   9  19  33  52  80 111 146 187 231 283 338
#
# _framework density 24.349115000000001
#
# number of rings (size 3 to 8) (size 9 to 14) (size 15 to 20)
#    0.000    2.286    0.000    2.571    0.000    5.714 
#    0.000   10.714    0.000    0.000    0.000    0.000 
#    0.000    0.000    0.000    0.000    0.000    0.000 
#
# Total GULP energy -156403.725028 kJ/mol
# GULP energy per Si atom -5585.847322 kJ/mol
# Density = 2.429370 g / cm^3
# Si number density = 24.349115 Si / 1000 Ang^3
#
#
#
# Elastic Constant Matrix: (Units=GPa)
#
#
# Indices 1 2 3 4 5 6 
#
# 1 66.3575 5.7565 0.9395 0.0000 6.5504 0.0000
# 2 5.7565 107.1412 42.7037 0.0000 -6.2601 0.0000
# 3 0.9395 42.7037 87.1335 0.0000 17.2887 0.0000
# 4 0.0000 0.0000 0.0000 34.2754 0.0000 15.0361
# 5 6.5504 -6.2601 17.2887 0.0000 23.2759 0.0000
# 6 0.0000 0.0000 0.0000 15.0361 0.0000 29.5532
#
#
#
# Elastic Compliance Matrix: (Units=1/GPa)
#
#
# Indices 1 2 3 4 5 6 
#
# 1 0.015880 -0.002114 0.002187 0.000000 -0.006662 0.000000
# 2 -0.002114 0.013566 -0.008759 0.000000 0.010749 0.000000
# 3 0.002187 -0.008759 0.019159 0.000000 -0.017202 0.000000
# 4 0.000000 0.000000 0.000000 0.037558 0.000000 -0.019109
# 5 -0.006662 0.010749 -0.017202 0.000000 0.060506 0.000000
# 6 0.000000 0.000000 0.000000 -0.019109 0.000000 0.043560
#
#
# Mechanical properties :
#
#
# Convention : Reuss Voigt Hill
#
# Bulk Modulus (GPa) = 32.01780 39.93684 35.97732
# Shear Modulus (GPa) = 22.93459 31.50306 27.21882
#
# Velocity S-wave (km/s) = 3.07238 3.60086 3.34706
# Velocity P-wave (km/s) = 5.07583 5.80737 5.45388
#
# Compressibility (1/GPa) = 0.03123263
#
# Stress axis : x y z
#
# Youngs Moduli (GPa) = 62.97261 73.71301 52.19546
#
# Poissons Ratio (x) = 0.15583 -0.11413
# Poissons Ratio (y) = 0.13312 0.45717
# Poissons Ratio (z) = -0.13770 0.64563
#
# Static dielectric constant tensor:
#      x y z
#    x 1.875200 0.000000 -0.049030 
#    y 0.000000 2.002670 0.000000 
#    z -0.049030 0.000000 1.935920 
# 
# From -- ./inp_files/227859.got.cif
#   From: 2010.05.17/outbox.cif.g08.bks.cpg/sg15_114_cif.got.tgz:227859.got - 2010.06.03 18:47:42.
