data_PCOD9256085
_publ_section_title
;
Structure prediction by ZEFSAII (Michael W. Deem and Ramdas Pophale) SiO2 
 PCOD9256085
Probable space group: C 2/C
;
_chemical_formula_sum "Si O2"
_cell_formula_units_Z 40
_cell_length_a 11.931972
_cell_length_b 20.342004
_cell_length_c 16.197620
_cell_angle_alpha 90.000000
_cell_angle_beta 29.716475
_cell_angle_gamma 90.000000
_cell_volume 1948.872646
_symmetry_space_group_name_H-M "C 2/C"
_symmetry_group_IT_number 15
_symmetry_cell_setting 'monoclinic'
loop_
_space_group_symop_operation_xyz
x,y,z
-x,y,1/2-z
-x,-y,-z
x,-y,1/2+z
1/2+x,1/2+y,z
1/2-x,1/2+y,1/2-z
1/2-x,1/2-y,-z
1/2+x,1/2-y,1/2+z
loop_
_atom_site_type_symbol
_atom_site_label
_atom_site_fract_x
_atom_site_fract_y
_atom_site_fract_z
Si Si1 0.588999 0.936659 0.280676
Si Si2 0.344077 0.607332 0.244140
Si Si3 0.768224 0.326419 0.506854
Si Si4 0.618083 0.063341 0.020394
Si Si5 0.951383 0.044895 0.663313
O O1 0.500000 0.961256 0.250000
O O2 0.505262 0.862133 0.339361
O O3 0.848938 0.944536 0.138542
O O4 0.459797 0.986591 0.426105
O O5 0.280228 0.647613 0.368601
O O6 0.576026 0.642446 0.070575
O O7 0.428749 0.532096 0.201043
O O8 0.117516 0.602503 0.334112
O O9 0.750000 0.250000 0.500000
O O10 0.771842 0.077624 0.841728
O O11 0.798190 0.070709 0.979237
#
# Coordination Sequence:
#
# PCOD9256085 Si02
#       5
#     8   8   8   8   8
#     4  11  21  32  49  85 118 141 175 231 294 322
#     4  10  18  35  56  78 108 142 191 222 265 328
#     4  11  21  34  51  80 112 146 187 221 265 326
#     4  10  17  34  58  80 107 142 184 229 274 335
#     4  10  17  34  61  82 108 138 186 234 270 342
#
# _framework density 20.524687
#
# number of rings (size 3 to 8) (size 9 to 14) (size 15 to 20)
#    0.000    1.600    6.000    2.400    2.800    0.800 
#    0.000    0.000    0.000    1.200    5.200    0.000 
#    0.000    0.000    0.000    0.000    0.000    0.000 
#
# Total GULP energy -111381.581828 kJ/mol
# GULP energy per Si atom -5569.079091 kJ/mol
# Density = 2.047797 g / cm^3
# Si number density = 20.524687 Si / 1000 Ang^3
#
#
#
# Elastic Constant Matrix: (Units=GPa)
#
#
# Indices 1 2 3 4 5 6 
#
# 1 158.5061 44.3071 51.5400 -0.0387 -55.6696 0.0009
# 2 44.3071 105.4845 29.7574 -0.0587 -15.7940 0.0527
# 3 51.5400 29.7574 57.3975 -0.0554 -43.3755 -0.0433
# 4 -0.0387 -0.0587 -0.0554 15.8691 0.0083 -6.7093
# 5 -55.6696 -15.7940 -43.3755 0.0083 59.9835 -0.0047
# 6 0.0009 0.0527 -0.0433 -6.7093 -0.0047 20.9550
#
#
#
# Elastic Compliance Matrix: (Units=1/GPa)
#
#
# Indices 1 2 3 4 5 6 
#
# 1 0.010350 -0.002540 -0.002697 0.000004 0.006986 0.000003
# 2 -0.002540 0.011935 -0.007305 -0.000005 -0.004498 -0.000048
# 3 -0.002697 -0.007305 0.044730 0.000182 0.027919 0.000175
# 4 0.000004 -0.000005 0.000182 0.072882 0.000126 0.023336
# 5 0.006986 -0.004498 0.027919 0.000126 0.042160 0.000118
# 6 0.000003 -0.000048 0.000175 0.023336 0.000118 0.055193
#
#
# Mechanical properties :
#
#
# Convention : Reuss Voigt Hill
#
# Bulk Modulus (GPa) = 23.84979 63.62189 43.73584
# Shear Modulus (GPa) = 18.09555 32.41378 25.25467
#
# Velocity S-wave (km/s) = 2.97248 3.97830 3.51159
# Velocity P-wave (km/s) = 4.84005 7.22271 6.14791
#
# Compressibility (1/GPa) = 0.04192908
#
# Stress axis : x y z
#
# Youngs Moduli (GPa) = 96.62243 83.79053 22.35621
#
# Poissons Ratio (x) = 0.21286 0.06029
# Poissons Ratio (y) = 0.24545 0.16332
# Poissons Ratio (z) = 0.26058 0.61213
#
# Static dielectric constant tensor:
#      x y z
#    x 1.839330 -0.000010 0.057710 
#    y -0.000010 1.690390 -0.000010 
#    z 0.057710 -0.000010 1.883480 
# 
# From -- ./inp_files/88087.got.cif
#   From: 2010.05.17/outbox.cif.g08.bks.cpg/sg15_45_cif.got.tgz:88087.got - 2010.06.03 18:47:42.
