data_PCOD9256115
_publ_section_title
;
Structure prediction by ZEFSAII (Michael W. Deem and Ramdas Pophale) SiO2 
 PCOD9256115
Probable space group: C 2/C
;
_chemical_formula_sum "Si O2"
_cell_formula_units_Z 52
_cell_length_a 18.424971
_cell_length_b 14.738051
_cell_length_c 8.862847
_cell_angle_alpha 90.000000
_cell_angle_beta 58.112686
_cell_angle_gamma 90.000000
_cell_volume 2043.493054
_symmetry_space_group_name_H-M "C 2/C"
_symmetry_group_IT_number 15
_symmetry_cell_setting 'monoclinic'
loop_
_space_group_symop_operation_xyz
x,y,z
-x,y,1/2-z
-x,-y,-z
x,-y,1/2+z
1/2+x,1/2+y,z
1/2-x,1/2+y,1/2-z
1/2-x,1/2-y,-z
1/2+x,1/2-y,1/2+z
loop_
_atom_site_type_symbol
_atom_site_label
_atom_site_fract_x
_atom_site_fract_y
_atom_site_fract_z
Si Si1 0.061862 0.415878 0.885111
Si Si2 0.000000 0.127805 0.250000
Si Si3 0.864918 0.256546 0.564020
Si Si4 0.146126 0.000404 0.206945
Si Si5 0.102509 0.186641 0.640837
Si Si6 0.240915 0.902285 0.370266
Si Si7 0.385478 0.136590 0.499284
O O1 0.982717 0.348438 0.940744
O O2 0.116715 0.364457 0.953288
O O3 0.109898 0.415909 0.668542
O O4 0.000000 0.500000 0.000000
O O5 0.938882 0.196531 0.405886
O O6 0.938965 0.062989 0.213383
O O7 0.868742 0.231283 0.734849
O O8 0.781172 0.204210 0.600429
O O9 0.135432 0.914767 0.106729
O O10 0.172311 0.953924 0.335471
O O11 0.223650 0.057789 0.052723
O O12 0.143640 0.258901 0.482478
O O13 0.000000 0.180200 0.750000
O O14 0.330068 0.914165 0.185612
#
# Coordination Sequence:
#
# PCOD9256115 Si02
#       7
#     8   4   8   8   8   8   8
#     4  10  21  37  62  81 107 159 210 238 281 342
#     4  10  20  34  58  88 130 142 188 234 300 366
#     4   9  20  36  58  84 115 154 187 242 294 342
#     4  10  22  34  61  89 119 156 186 242 292 361
#     4  10  17  34  60  82 102 149 201 231 276 336
#     4  10  23  38  57  91 125 149 191 243 309 344
#     4  10  21  39  56  83 116 150 200 250 281 348
#
# _framework density 25.446622999999999
#
# number of rings (size 3 to 8) (size 9 to 14) (size 15 to 20)
#    0.000    2.154    3.846    0.000    4.308    8.615 
#    0.000    0.000    0.000    2.769    0.000    0.000 
#    0.000    0.000    0.000    0.000    0.000    0.000 
#
# Total GULP energy -144935.453333 kJ/mol
# GULP energy per Si atom -5574.440513 kJ/mol
# Density = 2.538871 g / cm^3
# Si number density = 25.446623 Si / 1000 Ang^3
#
#
#
# Elastic Constant Matrix: (Units=GPa)
#
#
# Indices 1 2 3 4 5 6 
#
# 1 63.2172 18.1111 8.7336 0.0000 -0.8175 0.0000
# 2 18.1111 112.9895 29.2489 0.0000 6.1172 0.0000
# 3 8.7336 29.2489 99.3993 0.0000 -22.6142 0.0000
# 4 0.0000 0.0000 0.0000 33.3878 0.0000 8.3157
# 5 -0.8175 6.1172 -22.6142 0.0000 23.4286 0.0000
# 6 0.0000 0.0000 0.0000 8.3157 0.0000 0.6698
#
#
#
# Elastic Compliance Matrix: (Units=1/GPa)
#
#
# Indices 1 2 3 4 5 6 
#
# 1 0.016638 -0.002566 -0.000541 0.000000 0.000728 0.000000
# 2 -0.002566 0.010871 -0.004664 0.000000 -0.007430 0.000000
# 3 -0.000541 -0.004664 0.015060 0.000000 0.015736 0.000000
# 4 0.000000 0.000000 0.000000 -0.014316 0.000000 0.177732
# 5 0.000728 -0.007430 0.015736 0.000000 0.059837 0.000000
# 6 0.000000 0.000000 0.000000 0.177732 0.000000 -0.713598
#
#
# Mechanical properties :
#
#
# Convention : Reuss Voigt Hill
#
# Bulk Modulus (GPa) = 36.99959 43.08812 40.04385
# Shear Modulus (GPa) = -8.32007 26.13139 8.90566
#
# Velocity S-wave (km/s) = -1.81017 3.20802 1.87279
# Velocity P-wave (km/s) = 3.19417 5.53998 4.52184
#
# Compressibility (1/GPa) = 0.02702733
#
# Stress axis : x y z
#
# Youngs Moduli (GPa) = 60.10388 91.98566 66.39956
#
# Poissons Ratio (x) = 0.23606 0.03592
# Poissons Ratio (y) = 0.15424 0.30967
# Poissons Ratio (z) = 0.03252 0.42900
#
# Static dielectric constant tensor:
#      x y z
#    x 2.100660 0.000000 0.011120 
#    y 0.000000 2.172280 0.000000 
#    z 0.011120 0.000000 1.984180 
# 
# From -- ./inp_files/123114.got.cif
#   From: 2010.05.17/outbox.cif.g08.bks.cpg/sg15_62_cif.got.tgz:123114.got - 2010.06.03 18:47:42.
