data_PCOD9256434
_publ_section_title
;
Structure prediction by ZEFSAII (Michael W. Deem and Ramdas Pophale) SiO2 
 PCOD9256434
Probable space group: C 2/C
;
_chemical_formula_sum "Si O2"
_cell_formula_units_Z 60
_cell_length_a 11.062238
_cell_length_b 15.140021
_cell_length_c 20.077582
_cell_angle_alpha 90.000000
_cell_angle_beta 51.410689
_cell_angle_gamma 90.000000
_cell_volume 2628.366413
_symmetry_space_group_name_H-M "C 2/C"
_symmetry_group_IT_number 15
_symmetry_cell_setting 'monoclinic'
loop_
_space_group_symop_operation_xyz
x,y,z
-x,y,1/2-z
-x,-y,-z
x,-y,1/2+z
1/2+x,1/2+y,z
1/2-x,1/2+y,1/2-z
1/2-x,1/2-y,-z
1/2+x,1/2-y,1/2+z
loop_
_atom_site_type_symbol
_atom_site_label
_atom_site_fract_x
_atom_site_fract_y
_atom_site_fract_z
Si Si1 0.962156 0.839067 0.415319
Si Si2 0.500000 0.386765 0.750000
Si Si3 0.296907 0.216789 0.794068
Si Si4 0.488594 0.722564 0.052321
Si Si5 0.588418 0.859436 0.115411
Si Si6 0.845090 0.733126 0.345979
Si Si7 0.851690 0.538047 0.349146
Si Si8 0.478364 0.537069 0.112313
O O1 0.128511 0.810292 0.327581
O O2 0.959076 0.784814 0.484534
O O3 0.841839 0.809115 0.401538
O O4 0.951491 0.943149 0.432244
O O5 0.359768 0.317176 0.781073
O O6 0.498043 0.446856 0.816830
O O7 0.295305 0.183527 0.871442
O O8 0.425224 0.161003 0.709408
O O9 0.581927 0.804380 0.049859
O O10 0.312723 0.731806 0.141776
O O11 0.545980 0.626999 0.057458
O O12 0.627632 0.962109 0.103305
O O13 0.851662 0.636587 0.377917
O O14 0.000000 0.739536 0.250000
O O15 0.697642 0.529798 0.356210
O O16 0.000000 0.530463 0.250000
#
# Coordination Sequence:
#
# PCOD9256434 Si02
#       8
#     8   4   8   8   8   8   8   8
#     4  12  24  39  59  92 125 163 202 245 318 372
#     4  10  22  40  62  90 126 152 208 272 296 350
#     4  10  19  37  62  85 118 149 206 259 289 353
#     4  11  23  41  61  86 129 163 197 257 307 366
#     4  10  17  38  63  87 111 156 209 252 294 345
#     4  10  24  40  62  88 120 164 209 248 302 364
#     4  10  19  36  62  88 115 153 204 259 297 357
#     4  11  22  40  60  90 124 161 202 252 308 362
#
# _framework density 22.827867000000001
#
# number of rings (size 3 to 8) (size 9 to 14) (size 15 to 20)
#    0.000    1.600    5.333    1.600    4.667    0.533 
#    0.000    0.667    0.000    0.000    0.000    0.000 
#    0.000    0.000    0.000    0.000    0.000    0.000 
#
# Total GULP energy -167494.608156 kJ/mol
# GULP energy per Si atom -5583.153605 kJ/mol
# Density = 2.277591 g / cm^3
# Si number density = 22.827867 Si / 1000 Ang^3
#
#
#
# Elastic Constant Matrix: (Units=GPa)
#
#
# Indices 1 2 3 4 5 6 
#
# 1 70.4100 51.2798 15.5360 0.0000 0.9354 0.0000
# 2 51.2798 103.1701 12.2710 0.0000 13.2305 0.0000
# 3 15.5360 12.2710 47.3627 0.0000 1.1385 0.0000
# 4 0.0000 0.0000 0.0000 29.1785 0.0000 9.8811
# 5 0.9354 13.2305 1.1385 0.0000 38.2987 0.0000
# 6 0.0000 0.0000 0.0000 9.8811 0.0000 36.6420
#
#
#
# Elastic Compliance Matrix: (Units=1/GPa)
#
#
# Indices 1 2 3 4 5 6 
#
# 1 0.023731 -0.011680 -0.004844 0.000000 0.003599 0.000000
# 2 -0.011680 0.016207 -0.000240 0.000000 -0.005307 0.000000
# 3 -0.004844 -0.000240 0.022776 0.000000 -0.000476 0.000000
# 4 0.000000 0.000000 0.000000 0.037716 0.000000 -0.010171
# 5 0.003599 -0.005307 -0.000476 0.000000 0.027870 0.000000
# 6 0.000000 0.000000 0.000000 -0.010171 0.000000 0.030034
#
#
# Mechanical properties :
#
#
# Convention : Reuss Voigt Hill
#
# Bulk Modulus (GPa) = 34.26489 42.12406 38.19447
# Shear Modulus (GPa) = 24.80253 30.28092 27.54173
#
# Velocity S-wave (km/s) = 3.29979 3.64605 3.47723
# Velocity P-wave (km/s) = 5.43699 6.01813 5.73493
#
# Compressibility (1/GPa) = 0.02918439
#
# Stress axis : x y z
#
# Youngs Moduli (GPa) = 42.13976 61.69990 43.90515
#
# Poissons Ratio (x) = 0.72068 0.21269
# Poissons Ratio (y) = 0.49221 0.01054
# Poissons Ratio (z) = 0.20414 0.01482
#
# Static dielectric constant tensor:
#      x y z
#    x 1.883450 0.000000 -0.073540 
#    y 0.000000 1.833330 0.000000 
#    z -0.073540 0.000000 1.954180 
# 
# From -- ./inp_files/238689.got.cif
#   From: 2010.05.17/outbox.cif.g08.bks.cpg/sg15_120_cif.got.tgz:238689.got - 2010.06.03 18:47:42.
