data_PCOD9256797
_publ_section_title
;
Structure prediction by ZEFSAII (Michael W. Deem and Ramdas Pophale) SiO2 
 PCOD9256797
Probable space group: C 2/C
;
_chemical_formula_sum "Si O2"
_cell_formula_units_Z 40
_cell_length_a 16.065269
_cell_length_b 13.129293
_cell_length_c 17.163586
_cell_angle_alpha 90.000000
_cell_angle_beta 151.754954
_cell_angle_gamma 90.000000
_cell_volume 1713.255090
_symmetry_space_group_name_H-M "C 2/C"
_symmetry_group_IT_number 15
_symmetry_cell_setting 'monoclinic'
loop_
_space_group_symop_operation_xyz
x,y,z
-x,y,1/2-z
-x,-y,-z
x,-y,1/2+z
1/2+x,1/2+y,z
1/2-x,1/2+y,1/2-z
1/2-x,1/2-y,-z
1/2+x,1/2-y,1/2+z
loop_
_atom_site_type_symbol
_atom_site_label
_atom_site_fract_x
_atom_site_fract_y
_atom_site_fract_z
Si Si1 0.703735 0.655181 0.909750
Si Si2 0.311948 0.056724 0.558244
Si Si3 0.062030 0.905321 0.997515
Si Si4 0.317002 0.130991 0.840039
Si Si5 0.285579 0.890546 0.863865
O O1 0.500000 0.624670 0.750000
O O2 0.739978 0.687001 0.851104
O O3 0.750000 0.750000 0.000000
O O4 0.818958 0.559804 0.033582
O O5 0.500000 0.085809 0.750000
O O6 0.164932 0.063286 0.503875
O O7 0.266111 0.117767 0.441403
O O8 0.884044 0.851255 0.822310
O O9 0.204300 0.851730 0.169814
O O10 0.000000 0.000000 0.000000
O O11 0.294001 0.011102 0.846496
O O12 0.522848 0.149016 0.999977
#
# Coordination Sequence:
#
# PCOD9256797 Si02
#       5
#     8   8   8   8   8
#     4  11  23  39  51  74 111 160 196 226 270 343
#     4  11  19  32  54  79 117 148 181 234 289 338
#     4  10  18  29  50  79 106 143 177 230 291 335
#     4   9  18  33  50  73 104 140 188 230 275 328
#     4   9  17  30  49  77 104 140 176 226 290 331
#
# _framework density 23.347370000000002
#
# number of rings (size 3 to 8) (size 9 to 14) (size 15 to 20)
#    0.000    2.000    2.000    4.800    2.800    0.000 
#    3.600    0.000    0.000    0.000    0.000    0.000 
#    0.000   14.400    0.000    0.000    0.000    0.000 
#
# Total GULP energy -111852.630693 kJ/mol
# GULP energy per Si atom -5592.631535 kJ/mol
# Density = 2.329423 g / cm^3
# Si number density = 23.347370 Si / 1000 Ang^3
#
#
#
# Elastic Constant Matrix: (Units=GPa)
#
#
# Indices 1 2 3 4 5 6 
#
# 1 179.7150 -1.6024 75.4232 0.0000 -13.0906 0.0001
# 2 -1.6024 29.9910 19.5419 -0.0001 -4.5337 0.0001
# 3 75.4232 19.5419 222.3205 -0.0002 -10.9217 0.0003
# 4 0.0000 -0.0001 -0.0002 32.5808 -0.0001 -2.8025
# 5 -13.0906 -4.5337 -10.9217 -0.0001 40.3594 0.0002
# 6 0.0001 0.0001 0.0003 -2.8025 0.0002 -10.8894
#
#
#
# Elastic Compliance Matrix: (Units=1/GPa)
#
#
# Indices 1 2 3 4 5 6 
#
# 1 0.006713 0.002179 -0.002382 0.000000 0.001778 0.000000
# 2 0.002179 0.036482 -0.003760 0.000000 0.003788 0.000000
# 3 -0.002382 -0.003760 0.005653 0.000000 0.000335 0.000000
# 4 0.000000 0.000000 0.000000 0.030028 0.000000 -0.007728
# 5 0.001778 0.003788 0.000335 0.000000 0.025870 0.000000
# 6 0.000000 0.000000 0.000000 -0.007728 0.000000 -0.089844
#
#
# Mechanical properties :
#
#
# Convention : Reuss Voigt Hill
#
# Bulk Modulus (GPa) = 24.43601 68.75021 46.59311
# Shear Modulus (GPa) = 137.10547 34.98776 86.04661
#
# Velocity S-wave (km/s) = 7.67148 3.87534 6.07741
# Velocity P-wave (km/s) = 9.43175 7.03811 8.32144
#
# Compressibility (1/GPa) = 0.04092321
#
# Stress axis : x y z
#
# Youngs Moduli (GPa) = 148.96962 27.41058 176.89969
#
# Poissons Ratio (x) = -0.05973 0.42130
# Poissons Ratio (y) = -0.32463 0.66514
# Poissons Ratio (z) = 0.35478 0.10306
#
# Static dielectric constant tensor:
#      x y z
#    x 1.846910 0.000000 0.004670 
#    y 0.000000 2.074590 0.000010 
#    z 0.004670 0.000010 1.872040 
# 
# From -- ./inp_files/155617.got.cif
#   From: 2010.05.17/outbox.cif.g08.bks.cpg/sg15_78_cif.got.tgz:155617.got - 2010.06.03 18:47:42.
