data_PCOD9256330
_publ_section_title
;
Structure prediction by ZEFSAII (Michael W. Deem and Ramdas Pophale) SiO2 
 PCOD9256330
Probable space group: C 2/C
;
_chemical_formula_sum "Si O2"
_cell_formula_units_Z 56
_cell_length_a 14.727996
_cell_length_b 11.613439
_cell_length_c 16.661388
_cell_angle_alpha 90.000000
_cell_angle_beta 86.669715
_cell_angle_gamma 90.000000
_cell_volume 2844.995895
_symmetry_space_group_name_H-M "C 2/C"
_symmetry_group_IT_number 15
_symmetry_cell_setting 'monoclinic'
loop_
_space_group_symop_operation_xyz
x,y,z
-x,y,1/2-z
-x,-y,-z
x,-y,1/2+z
1/2+x,1/2+y,z
1/2-x,1/2+y,1/2-z
1/2-x,1/2-y,-z
1/2+x,1/2-y,1/2+z
loop_
_atom_site_type_symbol
_atom_site_label
_atom_site_fract_x
_atom_site_fract_y
_atom_site_fract_z
Si Si1 0.615655 0.598029 0.433624
Si Si2 0.677435 0.474774 0.089266
Si Si3 0.965266 0.665966 0.527612
Si Si4 0.314076 0.198735 0.400325
Si Si5 0.606724 0.795015 0.767446
Si Si6 0.105974 0.030361 0.764984
Si Si7 0.875513 0.441055 0.574437
O O1 0.609178 0.522319 0.515988
O O2 0.546007 0.705391 0.438826
O O3 0.717087 0.653347 0.433202
O O4 0.614380 0.534784 0.348753
O O5 0.688573 0.337312 0.102745
O O6 0.649805 0.517940 0.179846
O O7 0.771447 0.533272 0.058680
O O8 0.897111 0.664445 0.454050
O O9 0.924821 0.564553 0.584603
O O10 0.064851 0.627110 0.494457
O O11 0.337646 0.155653 0.310441
O O12 0.500000 0.795466 0.750000
O O13 0.635854 0.662397 0.777621
O O14 0.621128 0.867401 0.845669
O O15 0.000000 0.034985 0.750000
#
# Coordination Sequence:
#
# PCOD9256330 Si02
#       7
#     8   8   8   8   8   8   8
#     4  11  20  39  64  85 119 166 201 245 309 365
#     4  10  20  37  64  92 118 152 204 258 297 360
#     4  10  20  33  61  88 119 153 197 245 307 374
#     4  10  17  36  60  87 114 158 204 239 301 372
#     4  10  20  35  57  82 115 156 205 251 293 353
#     4  10  24  41  60  84 115 161 213 245 293 371
#     4  11  19  35  58  90 121 147 193 262 297 357
#
# _framework density 19.683684
#
# number of rings (size 3 to 8) (size 9 to 14) (size 15 to 20)
#    0.000    1.714    4.286    1.714    2.000    0.571 
#    0.000    1.429    6.286    0.000    0.000    0.000 
#    0.000    0.000    0.000    0.000    0.000    0.000 
#
# Total GULP energy -156172.921325 kJ/mol
# GULP energy per Si atom -5577.604333 kJ/mol
# Density = 1.963888 g / cm^3
# Si number density = 19.683684 Si / 1000 Ang^3
#
#
#
# Elastic Constant Matrix: (Units=GPa)
#
#
# Indices 1 2 3 4 5 6 
#
# 1 56.1466 27.9464 15.4581 0.0000 -8.1553 0.0000
# 2 27.9464 66.1742 54.8120 0.0000 -2.7606 0.0000
# 3 15.4581 54.8120 136.9206 0.0000 -10.1545 0.0000
# 4 0.0000 0.0000 0.0000 35.5291 0.0000 -5.7299
# 5 -8.1553 -2.7606 -10.1545 0.0000 27.9330 0.0000
# 6 0.0000 0.0000 0.0000 -5.7299 0.0000 24.0554
#
#
#
# Elastic Compliance Matrix: (Units=1/GPa)
#
#
# Indices 1 2 3 4 5 6 
#
# 1 0.024072 -0.012042 0.002606 0.000000 0.006785 0.000000
# 2 -0.012042 0.028664 -0.010447 0.000000 -0.004481 0.000000
# 3 0.002606 -0.010447 0.011481 0.000000 0.003902 0.000000
# 4 0.000000 0.000000 0.000000 0.029270 0.000000 0.006972
# 5 0.006785 -0.004481 0.003902 0.000000 0.038757 0.000000
# 6 0.000000 0.000000 0.000000 0.006972 0.000000 0.043231
#
#
# Mechanical properties :
#
#
# Convention : Reuss Voigt Hill
#
# Bulk Modulus (GPa) = 40.89841 50.63048 45.76445
# Shear Modulus (GPa) = 22.38220 28.23848 25.31034
#
# Velocity S-wave (km/s) = 3.37574 3.79174 3.58977
# Velocity P-wave (km/s) = 6.00142 6.70430 6.36257
#
# Compressibility (1/GPa) = 0.02445083
#
# Stress axis : x y z
#
# Youngs Moduli (GPa) = 41.54170 34.88734 87.10028
#
# Poissons Ratio (x) = 0.42010 -0.22698
# Poissons Ratio (y) = 0.50023 0.90998
# Poissons Ratio (z) = -0.10826 0.36449
#
# Static dielectric constant tensor:
#      x y z
#    x 1.699620 0.000000 -0.032240 
#    y 0.000000 1.705510 0.000000 
#    z -0.032240 0.000000 1.739710 
# 
# From -- ./inp_files/152623.got.cif
#   From: 2010.05.17/outbox.cif.g08.bks.cpg/sg15_77_cif.got.tgz:152623.got - 2010.06.03 18:47:42.
