data_PCOD9256724
_publ_section_title
;
Structure prediction by ZEFSAII (Michael W. Deem and Ramdas Pophale) SiO2 
 PCOD9256724
Probable space group: C 2/C
;
_chemical_formula_sum "Si O2"
_cell_formula_units_Z 60
_cell_length_a 27.704192
_cell_length_b 6.623028
_cell_length_c 13.113073
_cell_angle_alpha 90.000000
_cell_angle_beta 70.452899
_cell_angle_gamma 90.000000
_cell_volume 2267.391518
_symmetry_space_group_name_H-M "C 2/C"
_symmetry_group_IT_number 15
_symmetry_cell_setting 'monoclinic'
loop_
_space_group_symop_operation_xyz
x,y,z
-x,y,1/2-z
-x,-y,-z
x,-y,1/2+z
1/2+x,1/2+y,z
1/2-x,1/2+y,1/2-z
1/2-x,1/2-y,-z
1/2+x,1/2-y,1/2+z
loop_
_atom_site_type_symbol
_atom_site_label
_atom_site_fract_x
_atom_site_fract_y
_atom_site_fract_z
Si Si1 0.000000 0.408486 0.250000
Si Si2 0.512611 0.731506 0.463606
Si Si3 0.115338 0.157319 0.327133
Si Si4 0.194653 0.589915 0.314970
Si Si5 0.090410 0.705184 0.403125
Si Si6 0.888899 0.608381 0.876651
Si Si7 0.770510 0.482594 0.500123
Si Si8 0.710295 0.451970 0.877333
O O1 0.994320 0.272724 0.152089
O O2 0.943020 0.508084 0.309440
O O3 0.500000 0.500000 0.500000
O O4 0.573166 0.755373 0.433861
O O5 0.469825 0.847665 0.560758
O O6 0.115008 0.227920 0.211016
O O7 0.099260 0.920728 0.344208
O O8 0.170959 0.172742 0.338346
O O9 0.135231 0.561649 0.329855
O O10 0.224890 0.476459 0.383121
O O11 0.230586 0.564802 0.194405
O O12 0.195606 0.819391 0.357327
O O13 0.100767 0.705706 0.518492
O O14 0.831930 0.511984 0.927612
O O15 0.750000 0.250000 0.500000
O O16 0.718887 0.589685 0.490389
#
# Coordination Sequence:
#
# PCOD9256724 Si02
#       8
#     4   8   8   8   8   8   8   8
#     4   8  14  22  38  62  84 106 146 192 224 258
#     4   8  13  22  35  57  86 112 140 181 225 265
#     4   9  15  22  38  62  89 116 145 184 224 263
#     4   9  18  31  47  66  90 120 154 191 230 270
#     4   8  15  26  41  61  86 117 150 186 229 272
#     4   9  15  26  42  63  87 115 150 189 226 267
#     4   9  17  29  45  63  88 122 155 186 224 270
#     4  10  18  29  45  68  94 124 154 187 226 273
#
# _framework density 26.462125
#
# number of rings (size 3 to 8) (size 9 to 14) (size 15 to 20)
#    0.000    3.200    0.000    2.400    0.000    0.000 
#    0.000    0.667    0.000    3.200    0.000   23.333 
#    0.000   25.600    0.000    0.000    0.000    0.000 
#
# Total GULP energy -167242.845329 kJ/mol
# GULP energy per Si atom -5574.761511 kJ/mol
# Density = 2.640190 g / cm^3
# Si number density = 26.462125 Si / 1000 Ang^3
#
#
#
# Elastic Constant Matrix: (Units=GPa)
#
#
# Indices 1 2 3 4 5 6 
#
# 1 147.5400 5.7768 18.0944 0.0000 -36.7113 0.0000
# 2 5.7768 55.4853 2.3624 0.0000 0.2635 0.0000
# 3 18.0944 2.3624 66.2558 0.0000 -17.1934 0.0000
# 4 0.0000 0.0000 0.0000 25.7837 0.0000 -7.0455
# 5 -36.7113 0.2635 -17.1934 0.0000 60.8033 0.0000
# 6 0.0000 0.0000 0.0000 -7.0455 0.0000 41.0361
#
#
#
# Elastic Compliance Matrix: (Units=1/GPa)
#
#
# Indices 1 2 3 4 5 6 
#
# 1 0.008075 -0.000821 -0.000982 0.000000 0.004602 0.000000
# 2 -0.000821 0.018138 -0.000617 0.000000 -0.000749 0.000000
# 3 -0.000982 -0.000617 0.016436 0.000000 0.004057 0.000000
# 4 0.000000 0.000000 0.000000 0.040693 0.000000 0.006987
# 5 0.004602 -0.000749 0.004057 0.000000 0.020375 0.000000
# 6 0.000000 0.000000 0.000000 0.006987 0.000000 0.025568
#
#
# Mechanical properties :
#
#
# Convention : Reuss Voigt Hill
#
# Bulk Modulus (GPa) = 26.44784 35.74980 31.09882
# Shear Modulus (GPa) = 34.07638 41.72779 37.90209
#
# Velocity S-wave (km/s) = 3.59240 3.97531 3.78870
# Velocity P-wave (km/s) = 5.21761 5.88302 5.56028
#
# Compressibility (1/GPa) = 0.03781026
#
# Stress axis : x y z
#
# Youngs Moduli (GPa) = 123.83340 55.13262 60.84174
#
# Poissons Ratio (x) = 0.04525 0.05975
# Poissons Ratio (y) = 0.10164 0.03753
# Poissons Ratio (z) = 0.12160 0.03401
#
# Static dielectric constant tensor:
#      x y z
#    x 2.129430 0.000000 -0.042320 
#    y 0.000000 2.719780 0.000000 
#    z -0.042320 0.000000 2.035500 
# 
# From -- ./inp_files/180530.got.cif
#   From: 2010.05.17/outbox.cif.g08.bks.cpg/sg15_91_cif.got.tgz:180530.got - 2010.06.03 18:47:42.
