data_PCOD9256287
_publ_section_title
;
Structure prediction by ZEFSAII (Michael W. Deem and Ramdas Pophale) SiO2 
 PCOD9256287
Probable space group: C 2/C
;
_chemical_formula_sum "Si O2"
_cell_formula_units_Z 40
_cell_length_a 21.197758
_cell_length_b 12.355530
_cell_length_c 14.158476
_cell_angle_alpha 90.000000
_cell_angle_beta 152.103459
_cell_angle_gamma 90.000000
_cell_volume 1734.998139
_symmetry_space_group_name_H-M "C 2/C"
_symmetry_group_IT_number 15
_symmetry_cell_setting 'monoclinic'
loop_
_space_group_symop_operation_xyz
x,y,z
-x,y,1/2-z
-x,-y,-z
x,-y,1/2+z
1/2+x,1/2+y,z
1/2-x,1/2+y,1/2-z
1/2-x,1/2-y,-z
1/2+x,1/2-y,1/2+z
loop_
_atom_site_type_symbol
_atom_site_label
_atom_site_fract_x
_atom_site_fract_y
_atom_site_fract_z
Si Si1 0.209720 0.709928 0.172531
Si Si2 0.365971 0.522780 0.264070
Si Si3 0.369485 0.143690 0.013093
Si Si4 0.294090 0.358771 0.500727
Si Si5 0.490962 0.941657 0.354532
O O1 0.286031 0.616924 0.214641
O O2 0.305874 0.752206 0.381057
O O3 0.174157 0.811986 0.059196
O O4 0.068921 0.654109 0.010031
O O5 0.500000 0.500000 0.500000
O O6 0.260089 0.422433 0.116625
O O7 0.394437 0.573654 0.198929
O O8 0.500000 0.169573 0.250000
O O9 0.435733 0.054742 0.030531
O O10 0.250000 0.250000 0.500000
O O11 0.163066 0.434454 0.322619
O O12 0.500000 0.925107 0.250000
#
# Coordination Sequence:
#
# PCOD9256287 Si02
#       5
#     8   8   8   8   8
#     4  10  22  33  60  88 104 149 199 228 277 337
#     4  10  21  38  58  84 115 147 185 239 287 326
#     4  10  20  39  56  77 121 153 178 229 296 342
#     4  10  18  34  58  85 109 140 198 234 271 328
#     4  10  17  36  56  79 112 149 181 233 281 325
#
# _framework density 23.054780000000001
#
# number of rings (size 3 to 8) (size 9 to 14) (size 15 to 20)
#    0.000    2.000    8.000    0.000    5.600    0.800 
#    0.000    5.000    0.000    0.000    0.000    0.000 
#    0.000    0.000    0.000    0.000    0.000    0.000 
#
# Total GULP energy -111630.565269 kJ/mol
# GULP energy per Si atom -5581.528263 kJ/mol
# Density = 2.300231 g / cm^3
# Si number density = 23.054780 Si / 1000 Ang^3
#
#
#
# Elastic Constant Matrix: (Units=GPa)
#
#
# Indices 1 2 3 4 5 6 
#
# 1 28.9852 5.1741 26.7395 0.0000 -2.5529 0.0000
# 2 5.1741 38.3463 41.1213 0.0000 -10.2206 0.0000
# 3 26.7395 41.1213 202.7592 0.0000 -11.4008 0.0000
# 4 0.0000 0.0000 0.0000 68.4536 0.0000 -8.5358
# 5 -2.5529 -10.2206 -11.4008 0.0000 29.5791 0.0000
# 6 0.0000 0.0000 0.0000 -8.5358 0.0000 9.3016
#
#
#
# Elastic Compliance Matrix: (Units=1/GPa)
#
#
# Indices 1 2 3 4 5 6 
#
# 1 0.039354 0.000757 -0.005252 0.000000 0.001634 0.000000
# 2 0.000757 0.035927 -0.006833 0.000000 0.009846 0.000000
# 3 -0.005252 -0.006833 0.007004 0.000000 -0.000115 0.000000
# 4 0.000000 0.000000 0.000000 0.016496 0.000000 0.015138
# 5 0.001634 0.009846 -0.000115 0.000000 0.037307 0.000000
# 6 0.000000 0.000000 0.000000 0.015138 0.000000 0.121400
#
#
# Mechanical properties :
#
#
# Convention : Reuss Voigt Hill
#
# Bulk Modulus (GPa) = 16.76988 46.24006 31.50497
# Shear Modulus (GPa) = 16.66561 34.60392 25.63477
#
# Velocity S-wave (km/s) = 2.69154 3.87840 3.33814
# Velocity P-wave (km/s) = 4.11691 6.33689 5.34346
#
# Compressibility (1/GPa) = 0.05963074
#
# Stress axis : x y z
#
# Youngs Moduli (GPa) = 25.41046 27.83403 142.78001
#
# Poissons Ratio (x) = -0.02107 0.74982
# Poissons Ratio (y) = -0.01924 0.97555
# Poissons Ratio (z) = 0.13345 0.19018
#
# Static dielectric constant tensor:
#      x y z
#    x 1.954570 0.000000 -0.016410 
#    y 0.000000 1.873760 0.000000 
#    z -0.016410 0.000000 1.923740 
# 
# From -- ./inp_files/141714.got.cif
#   From: 2010.05.17/outbox.cif.g08.bks.cpg/sg15_71_cif.got.tgz:141714.got - 2010.06.03 18:47:42.
