data_PCOD9256314
_publ_section_title
;
Structure prediction by ZEFSAII (Michael W. Deem and Ramdas Pophale) SiO2 
 PCOD9256314
Probable space group: C 2/C
;
_chemical_formula_sum "Si O2"
_cell_formula_units_Z 48
_cell_length_a 20.250575
_cell_length_b 8.861860
_cell_length_c 16.972607
_cell_angle_alpha 90.000000
_cell_angle_beta 53.711832
_cell_angle_gamma 90.000000
_cell_volume 2455.121908
_symmetry_space_group_name_H-M "C 2/C"
_symmetry_group_IT_number 15
_symmetry_cell_setting 'monoclinic'
loop_
_space_group_symop_operation_xyz
x,y,z
-x,y,1/2-z
-x,-y,-z
x,-y,1/2+z
1/2+x,1/2+y,z
1/2-x,1/2+y,1/2-z
1/2-x,1/2-y,-z
1/2+x,1/2-y,1/2+z
loop_
_atom_site_type_symbol
_atom_site_label
_atom_site_fract_x
_atom_site_fract_y
_atom_site_fract_z
Si Si1 0.581887 0.456353 0.586323
Si Si2 0.193684 0.712051 0.463347
Si Si3 0.263303 0.652067 0.069173
Si Si4 0.269464 0.057328 0.661884
Si Si5 0.176558 0.604891 0.711113
Si Si6 0.902551 0.918264 0.738677
O O1 0.608071 0.288477 0.541418
O O2 0.649760 0.565712 0.500658
O O3 0.485806 0.473241 0.639417
O O4 0.594697 0.466791 0.671546
O O5 0.250000 0.750000 0.500000
O O6 0.195739 0.540176 0.435839
O O7 0.239467 0.799035 0.360181
O O8 0.266236 0.769608 0.138538
O O9 0.191286 0.530128 0.138383
O O10 0.250000 0.750000 0.000000
O O11 0.323091 0.039304 0.701828
O O12 0.178147 0.993476 0.740467
O O13 0.108568 0.735667 0.750751
#
# Coordination Sequence:
#
# PCOD9256314 Si02
#       6
#     8   8   8   8   8   8
#     4  10  20  36  61  85 109 150 199 244 277 338
#     4  10  17  36  59  81 107 156 202 221 272 358
#     4  11  20  34  59  90 114 146 198 243 281 333
#     4  11  20  36  58  86 121 146 191 240 289 348
#     4  10  21  35  57  85 113 156 188 229 289 349
#     4  10  20  38  59  82 116 150 196 234 291 341
#
# _framework density 19.550964
#
# number of rings (size 3 to 8) (size 9 to 14) (size 15 to 20)
#    0.000    1.667    5.000    3.000    0.000    0.000 
#    0.000   10.000    0.000    0.000    0.000    0.000 
#    0.000    0.000    0.000    0.000    0.000    0.000 
#
# Total GULP energy -133733.801055 kJ/mol
# GULP energy per Si atom -5572.241711 kJ/mol
# Density = 1.950646 g / cm^3
# Si number density = 19.550964 Si / 1000 Ang^3
#
#
#
# Elastic Constant Matrix: (Units=GPa)
#
#
# Indices 1 2 3 4 5 6 
#
# 1 42.7216 22.4389 26.7709 0.0001 -6.6943 -0.0001
# 2 22.4389 104.3481 29.7368 0.0003 -4.6993 -0.0003
# 3 26.7709 29.7368 62.1422 0.0000 -5.6094 0.0000
# 4 0.0001 0.0003 0.0000 31.6596 0.0000 4.8470
# 5 -6.6943 -4.6993 -5.6094 0.0000 34.6505 0.0001
# 6 -0.0001 -0.0003 0.0000 4.8470 0.0001 21.4402
#
#
#
# Elastic Compliance Matrix: (Units=1/GPa)
#
#
# Indices 1 2 3 4 5 6 
#
# 1 0.033697 -0.003510 -0.012475 0.000000 0.004015 0.000000
# 2 -0.003510 0.011477 -0.003958 0.000000 0.000238 0.000000
# 3 -0.012475 -0.003958 0.023437 0.000000 0.000847 0.000000
# 4 0.000000 0.000000 0.000000 0.032718 0.000000 -0.007397
# 5 0.004015 0.000238 0.000847 0.000000 0.029805 0.000000
# 6 0.000000 0.000000 0.000000 -0.007397 0.000000 0.048314
#
#
# Mechanical properties :
#
#
# Convention : Reuss Voigt Hill
#
# Bulk Modulus (GPa) = 34.81368 40.78948 37.80158
# Shear Modulus (GPa) = 21.84275 26.23441 24.03858
#
# Velocity S-wave (km/s) = 3.34611 3.66710 3.51028
# Velocity P-wave (km/s) = 5.72485 6.23206 5.98383
#
# Compressibility (1/GPa) = 0.02872434
#
# Stress axis : x y z
#
# Youngs Moduli (GPa) = 29.67601 87.13147 42.66790
#
# Poissons Ratio (x) = 0.30587 0.53226
# Poissons Ratio (y) = 0.10418 0.16889
# Poissons Ratio (z) = 0.37020 0.34489
#
# Static dielectric constant tensor:
#      x y z
#    x 1.704250 0.000000 0.025030 
#    y 0.000000 1.743510 0.000000 
#    z 0.025030 0.000000 1.711410 
# 
# From -- ./inp_files/213262.got.cif
#   From: 2010.05.17/outbox.cif.g08.bks.cpg/sg15_107_cif.got.tgz:213262.got - 2010.06.03 18:47:42.
