data_PCOD9256896
_publ_section_title
;
Structure prediction by ZEFSAII (Michael W. Deem and Ramdas Pophale) SiO2 
 PCOD9256896
Probable space group: C 2/C
;
_chemical_formula_sum "Si O2"
_cell_formula_units_Z 48
_cell_length_a 10.032292
_cell_length_b 15.260932
_cell_length_c 14.829167
_cell_angle_alpha 90.000000
_cell_angle_beta 91.960606
_cell_angle_gamma 90.000000
_cell_volume 2269.047885
_symmetry_space_group_name_H-M "C 2/C"
_symmetry_group_IT_number 15
_symmetry_cell_setting 'monoclinic'
loop_
_space_group_symop_operation_xyz
x,y,z
-x,y,1/2-z
-x,-y,-z
x,-y,1/2+z
1/2+x,1/2+y,z
1/2-x,1/2+y,1/2-z
1/2-x,1/2-y,-z
1/2+x,1/2-y,1/2+z
loop_
_atom_site_type_symbol
_atom_site_label
_atom_site_fract_x
_atom_site_fract_y
_atom_site_fract_z
Si Si1 0.345299 0.162772 0.278343
Si Si2 0.938284 0.191083 0.505648
Si Si3 0.314882 0.131093 0.082278
Si Si4 0.287225 0.310669 0.415536
Si Si5 0.456385 0.993549 0.855490
Si Si6 0.508358 0.825301 0.355935
O O1 0.500000 0.173285 0.250000
O O2 0.269040 0.140547 0.185455
O O3 0.303546 0.248357 0.329384
O O4 0.343653 0.080774 0.346945
O O5 0.815449 0.127467 0.482577
O O6 0.886672 0.275838 0.561125
O O7 0.068768 0.150886 0.555854
O O8 0.979255 0.239669 0.413319
O O9 0.423969 0.053485 0.086883
O O10 0.250000 0.250000 0.500000
O O11 0.154322 0.362895 0.387831
O O12 0.500000 0.003444 0.750000
O O13 0.416548 0.091662 0.880268
O O14 0.500000 0.806949 0.250000
#
# Coordination Sequence:
#
# PCOD9256896 Si02
#       6
#     8   8   8   8   8   8
#     4   9  15  31  52  69  93 133 168 198 233 288
#     4  10  18  30  47  75  98 124 163 202 237 292
#     4   9  17  30  51  71  94 125 171 199 231 287
#     4  10  19  31  46  75 106 125 157 206 249 289
#     4   8  16  31  50  72  93 128 168 202 233 286
#     4  10  20  32  48  73 102 127 157 205 253 285
#
# _framework density 21.154249
#
# number of rings (size 3 to 8) (size 9 to 14) (size 15 to 20)
#    0.000    3.000    3.333    1.000    0.000    0.667 
#    0.000    0.833    0.000    0.000    0.000    1.167 
#    0.000    0.000    0.000    0.000    0.000    0.000 
#
# Total GULP energy -133621.171694 kJ/mol
# GULP energy per Si atom -5567.548821 kJ/mol
# Density = 2.110610 g / cm^3
# Si number density = 21.154249 Si / 1000 Ang^3
#
#
#
# Elastic Constant Matrix: (Units=GPa)
#
#
# Indices 1 2 3 4 5 6 
#
# 1 64.1564 -1.6301 25.7293 0.0000 26.1315 0.0000
# 2 -1.6301 31.0635 9.3037 0.0000 -1.1472 0.0000
# 3 25.7293 9.3037 85.1792 0.0000 17.0435 0.0000
# 4 0.0000 0.0000 0.0000 8.1041 0.0000 3.9531
# 5 26.1315 -1.1472 17.0435 0.0000 35.6742 0.0000
# 6 0.0000 0.0000 0.0000 3.9531 0.0000 10.1517
#
#
#
# Elastic Compliance Matrix: (Units=1/GPa)
#
#
# Indices 1 2 3 4 5 6 
#
# 1 0.023512 0.001962 -0.004293 0.000000 -0.015109 0.000000
# 2 0.001962 0.033758 -0.004654 0.000000 0.001872 0.000000
# 3 -0.004293 -0.004654 0.014314 0.000000 -0.003843 0.000000
# 4 0.000000 0.000000 0.000000 0.152329 0.000000 -0.059318
# 5 -0.015109 0.001872 -0.003843 0.000000 0.040995 0.000000
# 6 0.000000 0.000000 0.000000 -0.059318 0.000000 0.121605
#
#
# Mechanical properties :
#
#
# Convention : Reuss Voigt Hill
#
# Bulk Modulus (GPa) = 17.35720 27.46721 22.41221
# Shear Modulus (GPa) = 11.91353 20.58575 16.24964
#
# Velocity S-wave (km/s) = 2.37570 3.12288 2.77456
# Velocity P-wave (km/s) = 3.96840 5.10055 4.56967
#
# Compressibility (1/GPa) = 0.05761297
#
# Stress axis : x y z
#
# Youngs Moduli (GPa) = 42.53058 29.62240 69.86056
#
# Poissons Ratio (x) = -0.05811 0.29994
# Poissons Ratio (y) = -0.08344 0.32516
# Poissons Ratio (z) = 0.18260 0.13788
#
# Static dielectric constant tensor:
#      x y z
#    x 1.836220 0.000000 -0.004720 
#    y 0.000000 1.758520 0.000000 
#    z -0.004720 0.000000 1.836920 
# 
# From -- ./inp_files/197404.got.cif
#   From: 2010.05.17/outbox.cif.g08.bks.cpg/sg15_99_cif.got.tgz:197404.got - 2010.06.03 18:47:42.
