data_PCOD9256992
_publ_section_title
;
Structure prediction by ZEFSAII (Michael W. Deem and Ramdas Pophale) SiO2 
 PCOD9256992
Probable space group: C 2/C
;
_chemical_formula_sum "Si O2"
_cell_formula_units_Z 52
_cell_length_a 8.202974
_cell_length_b 23.237636
_cell_length_c 14.343579
_cell_angle_alpha 90.000000
_cell_angle_beta 115.150911
_cell_angle_gamma 90.000000
_cell_volume 2474.920669
_symmetry_space_group_name_H-M "C 2/C"
_symmetry_group_IT_number 15
_symmetry_cell_setting 'monoclinic'
loop_
_space_group_symop_operation_xyz
x,y,z
-x,y,1/2-z
-x,-y,-z
x,-y,1/2+z
1/2+x,1/2+y,z
1/2-x,1/2+y,1/2-z
1/2-x,1/2-y,-z
1/2+x,1/2-y,1/2+z
loop_
_atom_site_type_symbol
_atom_site_label
_atom_site_fract_x
_atom_site_fract_y
_atom_site_fract_z
Si Si1 0.500000 0.286958 0.250000
Si Si2 0.374402 0.184749 0.350299
Si Si3 0.856995 0.076907 0.029037
Si Si4 0.171518 0.710808 0.563231
Si Si5 0.900299 0.792895 0.578164
Si Si6 0.101474 0.439602 0.648844
Si Si7 0.242620 0.985480 0.633535
O O1 0.429675 0.241822 0.310304
O O2 0.666680 0.318930 0.340468
O O3 0.514653 0.175819 0.471928
O O4 0.175244 0.193939 0.339186
O O5 0.375400 0.123900 0.300195
O O6 0.894295 0.144907 0.028273
O O7 0.717237 0.063745 0.081039
O O8 0.050076 0.046386 0.090904
O O9 0.780618 0.048125 0.917013
O O10 0.250000 0.750000 0.500000
O O11 0.080833 0.757471 0.609661
O O12 0.750000 0.750000 0.500000
O O13 0.184035 0.483853 0.743474
O O14 0.888602 0.453992 0.600640
#
# Coordination Sequence:
#
# PCOD9256992 Si02
#       7
#     4   8   8   8   8   8   8
#     4  10  18  30  50  80 114 154 200 242 290 362
#     4   9  19  33  53  85 112 152 199 246 298 351
#     4  10  21  36  58  89 125 155 197 262 308 362
#     4   9  19  32  52  79 116 152 193 244 293 353
#     4   9  19  36  56  82 115 159 196 242 304 360
#     4  10  20  36  60  87 119 155 207 250 301 372
#     4  10  21  35  58  93 115 156 199 253 313 358
#
# _framework density 21.010773
#
# number of rings (size 3 to 8) (size 9 to 14) (size 15 to 20)
#    0.000    2.462    0.000    1.846    6.462    0.615 
#    0.000    0.000    0.000   38.769    0.000    0.000 
#    0.000    0.000    0.000    0.000    0.000    0.000 
#
# Total GULP energy -144740.484419 kJ/mol
# GULP energy per Si atom -5566.941708 kJ/mol
# Density = 2.096295 g / cm^3
# Si number density = 21.010773 Si / 1000 Ang^3
#
#
#
# Elastic Constant Matrix: (Units=GPa)
#
#
# Indices 1 2 3 4 5 6 
#
# 1 118.9961 11.0250 27.1676 0.0000 8.0759 0.0000
# 2 11.0250 45.9661 5.3665 0.0000 -6.9860 0.0000
# 3 27.1676 5.3665 90.9744 0.0000 14.2083 0.0000
# 4 0.0000 0.0000 0.0000 13.0943 0.0000 -7.1147
# 5 8.0759 -6.9860 14.2083 0.0000 24.8912 0.0000
# 6 0.0000 0.0000 0.0000 -7.1147 0.0000 11.6977
#
#
#
# Elastic Compliance Matrix: (Units=1/GPa)
#
#
# Indices 1 2 3 4 5 6 
#
# 1 0.009298 -0.002326 -0.002269 0.000000 -0.002375 0.000000
# 2 -0.002326 0.023865 -0.002061 0.000000 0.008629 0.000000
# 3 -0.002269 -0.002061 0.012918 0.000000 -0.007216 0.000000
# 4 0.000000 0.000000 0.000000 0.114063 0.000000 0.069375
# 5 -0.002375 0.008629 -0.007216 0.000000 0.047486 0.000000
# 6 0.000000 0.000000 0.000000 0.069375 0.000000 0.127682
#
#
# Mechanical properties :
#
#
# Convention : Reuss Voigt Hill
#
# Bulk Modulus (GPa) = 30.51547 38.11722 34.31635
# Shear Modulus (GPa) = 13.90634 24.09512 19.00073
#
# Velocity S-wave (km/s) = 2.57547 3.39011 3.01048
# Velocity P-wave (km/s) = 4.83728 5.78835 5.33406
#
# Compressibility (1/GPa) = 0.03277026
#
# Stress axis : x y z
#
# Youngs Moduli (GPa) = 107.54685 41.90210 77.41032
#
# Poissons Ratio (x) = 0.09747 0.17562
# Poissons Ratio (y) = 0.25018 0.15953
# Poissons Ratio (z) = 0.24398 0.08635
#
# Static dielectric constant tensor:
#      x y z
#    x 1.805010 0.000000 0.017010 
#    y 0.000000 1.749750 0.000000 
#    z 0.017010 0.000000 1.826100 
# 
# From -- ./inp_files/137541.got.cif
#   From: 2010.05.17/outbox.cif.g08.bks.cpg/sg15_69_cif.got.tgz:137541.got - 2010.06.03 18:47:42.
