data_PCOD9256618
_publ_section_title
;
Structure prediction by ZEFSAII (Michael W. Deem and Ramdas Pophale) SiO2 
 PCOD9256618
Probable space group: C 2/C
;
_chemical_formula_sum "Si O2"
_cell_formula_units_Z 56
_cell_length_a 16.054042
_cell_length_b 28.031988
_cell_length_c 5.892681
_cell_angle_alpha 90.000000
_cell_angle_beta 61.313973
_cell_angle_gamma 90.000000
_cell_volume 2326.382713
_symmetry_space_group_name_H-M "C 2/C"
_symmetry_group_IT_number 15
_symmetry_cell_setting 'monoclinic'
loop_
_space_group_symop_operation_xyz
x,y,z
-x,y,1/2-z
-x,-y,-z
x,-y,1/2+z
1/2+x,1/2+y,z
1/2-x,1/2+y,1/2-z
1/2-x,1/2-y,-z
1/2+x,1/2-y,1/2+z
loop_
_atom_site_type_symbol
_atom_site_label
_atom_site_fract_x
_atom_site_fract_y
_atom_site_fract_z
Si Si1 0.254980 0.827800 0.450814
Si Si2 0.153092 0.518390 0.831821
Si Si3 0.622852 0.514437 0.480735
Si Si4 0.925253 0.307403 0.545002
Si Si5 0.366612 0.882189 0.942142
Si Si6 0.174926 0.118878 0.426112
Si Si7 0.842210 0.219864 0.801823
O O1 0.321000 0.809860 0.565797
O O2 0.198739 0.871844 0.631709
O O3 0.178436 0.794770 0.431975
O O4 0.327751 0.841349 0.158539
O O5 0.121087 0.505762 0.615256
O O6 0.267212 0.506881 0.676279
O O7 0.116533 0.572080 0.927051
O O8 0.587038 0.494762 0.770349
O O9 0.614729 0.571629 0.525437
O O10 0.934419 0.356367 0.673443
O O11 0.923824 0.259216 0.691429
O O12 0.000000 0.305062 0.250000
O O13 0.273705 0.895730 0.916509
O O14 0.144327 0.170042 0.577333
O O15 0.750000 0.250000 0.000000
#
# Coordination Sequence:
#
# PCOD9256618 Si02
#       7
#     8   8   8   8   8   8   8
#     4  10  19  33  58  76 108 143 182 233 280 331
#     4  10  18  28  50  77 107 142 183 234 289 328
#     4  10  18  28  46  78 114 145 176 229 290 332
#     4  11  24  38  54  79 111 147 188 233 282 338
#     4  10  19  32  50  78 104 142 188 226 278 336
#     4  10  19  29  51  78 109 141 183 229 279 335
#     4  11  20  36  54  83 107 140 193 230 283 340
#
# _framework density 24.071704
#
# number of rings (size 3 to 8) (size 9 to 14) (size 15 to 20)
#    0.000    1.714    7.143    2.143    4.000    0.571 
#    0.000    0.000    0.000    0.857    0.000    0.000 
#    0.000    1.143    0.000    0.143    0.000    0.000 
#
# Total GULP energy -156040.401840 kJ/mol
# GULP energy per Si atom -5572.871494 kJ/mol
# Density = 2.401692 g / cm^3
# Si number density = 24.071704 Si / 1000 Ang^3
#
#
#
# Elastic Constant Matrix: (Units=GPa)
#
#
# Indices 1 2 3 4 5 6 
#
# 1 60.0083 13.6390 35.9368 0.0000 19.4797 0.0000
# 2 13.6390 148.4571 69.9476 0.0000 -11.2932 0.0000
# 3 35.9368 69.9476 154.9021 0.0000 6.7724 0.0000
# 4 0.0000 0.0000 0.0000 32.8587 0.0000 3.5234
# 5 19.4797 -11.2932 6.7724 0.0000 33.2311 0.0000
# 6 0.0000 0.0000 0.0000 3.5234 0.0000 -11.2277
#
#
#
# Elastic Compliance Matrix: (Units=1/GPa)
#
#
# Indices 1 2 3 4 5 6 
#
# 1 0.023988 -0.001131 -0.004463 0.000000 -0.013536 0.000000
# 2 -0.001131 0.009093 -0.004044 0.000000 0.004577 0.000000
# 3 -0.004463 -0.004044 0.009346 0.000000 -0.000663 0.000000
# 4 0.000000 0.000000 0.000000 0.029443 0.000000 0.009239
# 5 -0.013536 0.004577 -0.000663 0.000000 0.039718 0.000000
# 6 0.000000 0.000000 0.000000 0.009239 0.000000 -0.086166
#
#
# Mechanical properties :
#
#
# Convention : Reuss Voigt Hill
#
# Bulk Modulus (GPa) = 43.19189 66.93490 55.06340
# Shear Modulus (GPa) = 95.39265 27.22868 61.31067
#
# Velocity S-wave (km/s) = 6.30195 3.36690 5.05226
# Velocity P-wave (km/s) = 8.42228 6.55603 7.54706
#
# Compressibility (1/GPa) = 0.02315249
#
# Stress axis : x y z
#
# Youngs Moduli (GPa) = 41.68738 109.96943 106.99638
#
# Poissons Ratio (x) = 0.12436 0.47749
# Poissons Ratio (y) = 0.04714 0.43269
# Poissons Ratio (z) = 0.18604 0.44472
#
# Static dielectric constant tensor:
#      x y z
#    x 2.077010 0.000000 -0.026640 
#    y 0.000000 1.969670 0.000000 
#    z -0.026640 0.000000 1.955040 
# 
# From -- ./inp_files/9072.got.cif
#   From: 2010.05.17/outbox.cif.g08.bks.cpg/sg15_5_cif.got.tgz:9072.got - 2010.06.03 18:47:42.
