data_PCOD9256585
_publ_section_title
;
Structure prediction by ZEFSAII (Michael W. Deem and Ramdas Pophale) SiO2 
 PCOD9256585
Probable space group: C 2/C
;
_chemical_formula_sum "Si O2"
_cell_formula_units_Z 56
_cell_length_a 12.442180
_cell_length_b 28.811483
_cell_length_c 16.470467
_cell_angle_alpha 90.000000
_cell_angle_beta 156.474589
_cell_angle_gamma 90.000000
_cell_volume 2356.733077
_symmetry_space_group_name_H-M "C 2/C"
_symmetry_group_IT_number 15
_symmetry_cell_setting 'monoclinic'
loop_
_space_group_symop_operation_xyz
x,y,z
-x,y,1/2-z
-x,-y,-z
x,-y,1/2+z
1/2+x,1/2+y,z
1/2-x,1/2+y,1/2-z
1/2-x,1/2-y,-z
1/2+x,1/2-y,1/2+z
loop_
_atom_site_type_symbol
_atom_site_label
_atom_site_fract_x
_atom_site_fract_y
_atom_site_fract_z
Si Si1 0.052225 0.198663 0.408672
Si Si2 0.919116 0.526412 0.327285
Si Si3 0.436177 0.799067 0.330037
Si Si4 0.945424 0.974349 0.090263
Si Si5 0.315951 0.196267 0.044158
Si Si6 0.296090 0.130249 0.266115
Si Si7 0.580088 0.370287 0.156613
O O1 0.253417 0.296032 0.533413
O O2 0.259422 0.194889 0.626996
O O3 0.878943 0.244765 0.311761
O O4 0.894857 0.150503 0.297108
O O5 0.723982 0.501336 0.259110
O O6 0.925618 0.579996 0.359829
O O7 0.226701 0.513043 0.510816
O O8 0.741524 0.522872 0.120900
O O9 0.357683 0.845129 0.324945
O O10 0.045031 0.921260 0.168306
O O11 0.500000 0.188675 0.250000
O O12 0.484968 0.170591 0.093042
O O13 0.250000 0.250000 0.000000
O O14 0.050316 0.167351 0.875263
O O15 0.104863 0.127925 0.053292
#
# Coordination Sequence:
#
# PCOD9256585 Si02
#       7
#     8   8   8   8   8   8   8
#     4   9  17  28  42  61  87 118 150 183 220 266
#     4   9  16  26  40  59  85 118 153 188 230 281
#     4   9  17  28  42  61  87 118 150 183 220 266
#     4   9  16  26  40  59  85 118 153 188 230 281
#     4  10  18  28  44  64  90 120 148 178 219 268
#     4   9  16  27  41  58  84 117 147 179 224 269
#     4   9  16  27  41  58  84 117 147 179 224 269
#
# _framework density 23.761704999999999
#
# number of rings (size 3 to 8) (size 9 to 14) (size 15 to 20)
#    0.000    2.857    1.429    0.857    0.000    1.143 
#    0.000    5.714    0.000    0.000    0.000    0.000 
#    0.000    4.571    0.000    0.000    0.000    0.000 
#
# Total GULP energy -155983.827382 kJ/mol
# GULP energy per Si atom -5570.850978 kJ/mol
# Density = 2.370762 g / cm^3
# Si number density = 23.761705 Si / 1000 Ang^3
#
#
#
# Elastic Constant Matrix: (Units=GPa)
#
#
# Indices 1 2 3 4 5 6 
#
# 1 57.5853 41.3851 40.2660 -0.0002 22.0107 -0.0004
# 2 41.3851 139.9108 53.4504 -0.0027 49.9153 -0.0004
# 3 40.2660 53.4504 135.7545 0.0103 19.6696 0.0017
# 4 -0.0002 -0.0027 0.0103 13.3000 0.0041 6.5419
# 5 22.0107 49.9153 19.6696 0.0041 52.7405 0.0007
# 6 -0.0004 -0.0004 0.0017 6.5419 0.0007 25.4631
#
#
#
# Elastic Compliance Matrix: (Units=1/GPa)
#
#
# Indices 1 2 3 4 5 6 
#
# 1 0.025835 -0.003681 -0.005451 0.000006 -0.005265 -0.000001
# 2 -0.003681 0.012541 -0.002483 0.000008 -0.009407 -0.000002
# 3 -0.005451 -0.002483 0.009821 -0.000009 0.000962 0.000002
# 4 0.000006 0.000008 -0.000009 0.086064 -0.000013 -0.022111
# 5 -0.005265 -0.009407 0.000962 -0.000013 0.029702 0.000002
# 6 -0.000001 -0.000002 0.000002 -0.022111 0.000002 0.044953
#
#
# Mechanical properties :
#
#
# Convention : Reuss Voigt Hill
#
# Bulk Modulus (GPa) = 40.05185 67.05038 53.55111
# Shear Modulus (GPa) = 20.79276 31.51065 26.15171
#
# Velocity S-wave (km/s) = 2.96134 3.64553 3.32110
# Velocity P-wave (km/s) = 5.34649 6.78225 6.10671
#
# Compressibility (1/GPa) = 0.02496764
#
# Stress axis : x y z
#
# Youngs Moduli (GPa) = 38.70738 79.73966 101.82100
#
# Poissons Ratio (x) = 0.29353 0.55499
# Poissons Ratio (y) = 0.14249 0.25281
# Poissons Ratio (z) = 0.21098 0.19798
#
# Static dielectric constant tensor:
#      x y z
#    x 1.964120 0.000010 -0.056710 
#    y 0.000010 1.820990 0.000020 
#    z -0.056710 0.000020 1.964280 
# 
# From -- ./inp_files/275334.got.cif
#   From: 2010.05.17/outbox.cif.g08.bks.cpg/sg15_138_cif.got.tgz:275334.got - 2010.06.03 18:47:42.
