data_PCOD9256575
_publ_section_title
;
Structure prediction by ZEFSAII (Michael W. Deem and Ramdas Pophale) SiO2 
 PCOD9256575
Probable space group: C 2/C
;
_chemical_formula_sum "Si O2"
_cell_formula_units_Z 56
_cell_length_a 25.489064
_cell_length_b 26.030742
_cell_length_c 5.376441
_cell_angle_alpha 90.000000
_cell_angle_beta 96.820956
_cell_angle_gamma 90.000000
_cell_volume 3542.015949
_symmetry_space_group_name_H-M "C 2/C"
_symmetry_group_IT_number 15
_symmetry_cell_setting 'monoclinic'
loop_
_space_group_symop_operation_xyz
x,y,z
-x,y,1/2-z
-x,-y,-z
x,-y,1/2+z
1/2+x,1/2+y,z
1/2-x,1/2+y,1/2-z
1/2-x,1/2-y,-z
1/2+x,1/2-y,1/2+z
loop_
_atom_site_type_symbol
_atom_site_label
_atom_site_fract_x
_atom_site_fract_y
_atom_site_fract_z
Si Si1 0.532836 0.807682 0.521939
Si Si2 0.627789 0.783604 0.291716
Si Si3 0.396429 0.870888 0.608890
Si Si4 0.274034 0.724175 0.264280
Si Si5 0.798295 0.635974 0.373829
Si Si6 0.301848 0.975074 0.048924
Si Si7 0.577779 0.983003 0.946949
O O1 0.500000 0.790766 0.750000
O O2 0.579860 0.770526 0.450499
O O3 0.564354 0.857660 0.641156
O O4 0.500000 0.817894 0.250000
O O5 0.663818 0.737405 0.212236
O O6 0.667170 0.821722 0.461065
O O7 0.605836 0.819937 0.059833
O O8 0.337036 0.880411 0.671453
O O9 0.415074 0.922845 0.491112
O O10 0.250000 0.750000 0.500000
O O11 0.254043 0.665459 0.243775
O O12 0.250000 0.750000 0.000000
O O13 0.792068 0.585501 0.534229
O O14 0.279830 0.000124 0.285033
O O15 0.364669 0.989246 0.067560
O O16 0.552431 0.988446 0.662831
#
# Coordination Sequence:
#
# PCOD9256575 Si02
#       7
#     8   8   8   8   8   8   8
#     4  11  23  37  51  70  85 115 158 204 243 289
#     4  10  20  33  52  71  92 122 154 190 244 284
#     4  11  19  31  54  67  90 117 155 200 240 272
#     4  10  20  31  46  72 102 122 147 183 235 293
#     4  10  19  29  47  73  97 124 151 194 232 278
#     4  10  18  28  43  64  91 120 161 188 218 265
#     4  10  19  28  43  68  85 111 153 192 229 274
#
# _framework density 15.810207
#
# number of rings (size 3 to 8) (size 9 to 14) (size 15 to 20)
#    0.000    1.714    5.714    1.714    2.000    0.000 
#    0.000    0.000    0.000    2.571    0.000    0.000 
#    0.000    0.000    0.000    0.000    0.000    4.286 
#
# Total GULP energy -155946.090186 kJ/mol
# GULP energy per Si atom -5569.503221 kJ/mol
# Density = 1.577422 g / cm^3
# Si number density = 15.810207 Si / 1000 Ang^3
#
#
#
# Elastic Constant Matrix: (Units=GPa)
#
#
# Indices 1 2 3 4 5 6 
#
# 1 68.4989 34.4273 27.6585 0.0000 -6.5118 0.0000
# 2 34.4273 32.0089 10.5412 0.0000 1.2240 0.0000
# 3 27.6585 10.5412 101.7391 0.0000 -4.2653 0.0000
# 4 0.0000 0.0000 0.0000 15.9884 0.0000 0.5291
# 5 -6.5118 1.2240 -4.2653 0.0000 18.5635 0.0000
# 6 0.0000 0.0000 0.0000 0.5291 0.0000 3.5493
#
#
#
# Elastic Compliance Matrix: (Units=1/GPa)
#
#
# Indices 1 2 3 4 5 6 
#
# 1 0.038401 -0.040000 -0.005675 0.000000 0.014804 0.000000
# 2 -0.040000 0.074169 0.002420 0.000000 -0.018366 0.000000
# 3 -0.005675 0.002420 0.011138 0.000000 0.000409 0.000000
# 4 0.000000 0.000000 0.000000 0.062855 0.000000 -0.009369
# 5 0.014804 -0.018366 0.000409 0.000000 0.060367 0.000000
# 6 0.000000 0.000000 0.000000 -0.009369 0.000000 0.283144
#
#
# Mechanical properties :
#
#
# Convention : Reuss Voigt Hill
#
# Bulk Modulus (GPa) = 26.88282 38.61122 32.74702
# Shear Modulus (GPa) = 7.94933 16.26156 12.10544
#
# Velocity S-wave (km/s) = 2.24475 3.21058 2.77008
# Velocity P-wave (km/s) = 4.87431 6.18211 5.56675
#
# Compressibility (1/GPa) = 0.03719848
#
# Stress axis : x y z
#
# Youngs Moduli (GPa) = 26.04083 13.48275 89.78124
#
# Poissons Ratio (x) = 0.53931 0.50947
# Poissons Ratio (y) = 1.04163 -0.21724
# Poissons Ratio (z) = 0.14777 -0.03262
#
# Static dielectric constant tensor:
#      x y z
#    x 1.581900 0.000000 0.001050 
#    y 0.000000 1.523970 0.000000 
#    z 0.001050 0.000000 1.612510 
# 
# From -- ./inp_files/16038.got.cif
#   From: 2010.05.17/outbox.cif.g08.bks.cpg/sg15_9_cif.got.tgz:16038.got - 2010.06.03 18:47:42.
