data_PCOD9256038
_publ_section_title
;
Structure prediction by ZEFSAII (Michael W. Deem and Ramdas Pophale) SiO2 
 PCOD9256038
Probable space group: C 2/C
;
_chemical_formula_sum "Si O2"
_cell_formula_units_Z 48
_cell_length_a 12.032043
_cell_length_b 13.038456
_cell_length_c 15.919920
_cell_angle_alpha 90.000000
_cell_angle_beta 98.591662
_cell_angle_gamma 90.000000
_cell_volume 2469.478645
_symmetry_space_group_name_H-M "C 2/C"
_symmetry_group_IT_number 15
_symmetry_cell_setting 'monoclinic'
loop_
_space_group_symop_operation_xyz
x,y,z
-x,y,1/2-z
-x,-y,-z
x,-y,1/2+z
1/2+x,1/2+y,z
1/2-x,1/2+y,1/2-z
1/2-x,1/2-y,-z
1/2+x,1/2-y,1/2+z
loop_
_atom_site_type_symbol
_atom_site_label
_atom_site_fract_x
_atom_site_fract_y
_atom_site_fract_z
Si Si1 0.738333 0.111973 0.986098
Si Si2 0.121476 0.470808 0.228546
Si Si3 0.372597 0.728936 0.131525
Si Si4 0.206372 0.401951 0.897165
Si Si5 0.363733 0.248892 0.822374
Si Si6 0.029545 0.594668 0.064342
O O1 0.711991 0.175875 0.898432
O O2 0.743275 0.991765 0.965751
O O3 0.837673 0.144445 0.059046
O O4 0.626619 0.149588 0.024269
O O5 0.179715 0.532739 0.309645
O O6 0.175588 0.369006 0.195008
O O7 0.090616 0.549915 0.152533
O O8 0.000000 0.433957 0.250000
O O9 0.504814 0.753630 0.137541
O O10 0.355759 0.701844 0.227796
O O11 0.292686 0.314056 0.880843
O O12 0.088273 0.358035 0.919923
O O13 0.000000 0.500000 0.000000
#
# Coordination Sequence:
#
# PCOD9256038 Si02
#       6
#     8   8   8   8   8   8
#     4  10  19  37  54  81 110 148 184 226 274 327
#     4  10  17  34  55  78 106 144 191 228 263 332
#     4  10  20  34  58  77 110 149 188 221 265 339
#     4  10  20  32  55  83 110 141 185 233 274 323
#     4  11  19  34  56  84 106 144 188 223 275 326
#     4   9  18  32  53  78 106 138 183 230 273 315
#
# _framework density 19.437301000000001
#
# number of rings (size 3 to 8) (size 9 to 14) (size 15 to 20)
#    0.000    2.000    3.333    3.000    0.000    0.667 
#    0.000    7.500    0.000    8.000    0.000    0.000 
#    0.000    0.000    0.000    0.000    0.000    0.000 
#
# Total GULP energy -133649.253870 kJ/mol
# GULP energy per Si atom -5568.718911 kJ/mol
# Density = 1.939306 g / cm^3
# Si number density = 19.437301 Si / 1000 Ang^3
#
#
#
# Elastic Constant Matrix: (Units=GPa)
#
#
# Indices 1 2 3 4 5 6 
#
# 1 47.6004 2.2024 15.4135 0.0000 -1.4112 0.0000
# 2 2.2024 23.1089 -10.3527 0.0000 -5.8011 0.0000
# 3 15.4135 -10.3527 61.9130 0.0000 11.0856 0.0000
# 4 0.0000 0.0000 0.0000 28.0371 0.0000 -11.0336
# 5 -1.4112 -5.8011 11.0856 0.0000 33.8069 0.0000
# 6 0.0000 0.0000 0.0000 -11.0336 0.0000 19.9508
#
#
#
# Elastic Compliance Matrix: (Units=1/GPa)
#
#
# Indices 1 2 3 4 5 6 
#
# 1 0.023615 -0.004819 -0.007132 0.000000 0.002498 0.000000
# 2 -0.004819 0.048857 0.008397 0.000000 0.005429 0.000000
# 3 -0.007132 0.008397 0.020320 0.000000 -0.005520 0.000000
# 4 0.000000 0.000000 0.000000 0.045589 0.000000 0.025213
# 5 0.002498 0.005429 -0.005520 0.000000 0.032426 0.000000
# 6 0.000000 0.000000 0.000000 0.025213 0.000000 0.064067
#
#
# Mechanical properties :
#
#
# Convention : Reuss Voigt Hill
#
# Bulk Modulus (GPa) = 11.67069 16.34988 14.01028
# Shear Modulus (GPa) = 18.48140 24.71622 21.59881
#
# Velocity S-wave (km/s) = 3.08688 3.56980 3.33709
# Velocity P-wave (km/s) = 4.32694 5.04194 4.69806
#
# Compressibility (1/GPa) = 0.08568475
#
# Stress axis : x y z
#
# Youngs Moduli (GPa) = 42.34664 20.46771 49.21345
#
# Poissons Ratio (x) = 0.09863 0.35099
# Poissons Ratio (y) = 0.20406 -0.41325
# Poissons Ratio (z) = 0.30201 -0.17187
#
# Static dielectric constant tensor:
#      x y z
#    x 1.724660 0.000000 -0.014030 
#    y 0.000000 1.722490 0.000000 
#    z -0.014030 0.000000 1.744900 
# 
# From -- ./inp_files/143618.got.cif
#   From: 2010.05.17/outbox.cif.g08.bks.cpg/sg15_72_cif.got.tgz:143618.got - 2010.06.03 18:47:42.
