data_PCOD9256256
_publ_section_title
;
Structure prediction by ZEFSAII (Michael W. Deem and Ramdas Pophale) SiO2 
 PCOD9256256
Probable space group: C 2/C
;
_chemical_formula_sum "Si O2"
_cell_formula_units_Z 64
_cell_length_a 27.659265
_cell_length_b 8.134437
_cell_length_c 14.472454
_cell_angle_alpha 90.000000
_cell_angle_beta 130.784944
_cell_angle_gamma 90.000000
_cell_volume 2465.482009
_symmetry_space_group_name_H-M "C 2/C"
_symmetry_group_IT_number 15
_symmetry_cell_setting 'monoclinic'
loop_
_space_group_symop_operation_xyz
x,y,z
-x,y,1/2-z
-x,-y,-z
x,-y,1/2+z
1/2+x,1/2+y,z
1/2-x,1/2+y,1/2-z
1/2-x,1/2-y,-z
1/2+x,1/2-y,1/2+z
loop_
_atom_site_type_symbol
_atom_site_label
_atom_site_fract_x
_atom_site_fract_y
_atom_site_fract_z
Si Si1 0.451198 0.162675 0.004982
Si Si2 0.395709 0.666520 0.112238
Si Si3 0.883250 0.542358 0.735854
Si Si4 0.361063 0.184286 0.052630
Si Si5 0.947109 0.292278 0.002397
Si Si6 0.804564 0.669860 0.239918
Si Si7 0.220622 0.642795 0.097602
Si Si8 0.316651 0.548393 0.610915
O O1 0.409301 0.121468 0.862399
O O2 0.470667 0.976629 0.061781
O O3 0.410067 0.239121 0.035138
O O4 0.510407 0.255249 0.032476
O O5 0.402528 0.822271 0.186079
O O6 0.386881 0.514697 0.169328
O O7 0.443922 0.675432 0.087146
O O8 0.324703 0.701217 0.980272
O O9 0.896463 0.376590 0.690994
O O10 0.811893 0.486937 0.680775
O O11 0.309349 0.322198 0.016630
O O12 0.324426 0.020928 0.970544
O O13 0.875241 0.320475 0.876864
O O14 0.758105 0.653882 0.269042
O O15 0.805646 0.837255 0.185285
O O16 0.276387 0.609340 0.094205
#
# Coordination Sequence:
#
# PCOD9256256 Si02
#       8
#     8   8   8   8   8   8   8   8
#     4  10  17  35  64  89 110 156 205 242 299 353
#     4  10  20  38  55  83 123 151 197 248 295 358
#     4   9  17  34  59  83 117 150 195 250 286 349
#     4  10  19  38  60  91 121 149 200 257 290 362
#     4   9  18  36  61  84 114 154 194 250 300 343
#     4   9  19  38  56  87 120 144 203 249 285 360
#     4  10  19  40  59  83 118 160 196 248 298 354
#     4  11  23  35  60  87 118 160 194 240 312 355
#
# _framework density 25.958411000000002
#
# number of rings (size 3 to 8) (size 9 to 14) (size 15 to 20)
#    0.000    2.250    5.000    0.750    0.000    1.500 
#    6.750    6.250    2.750    0.000    0.000    0.000 
#    0.000    0.000    0.000    0.000    0.000    0.000 
#
# Total GULP energy -178210.522693 kJ/mol
# GULP energy per Si atom -5569.078834 kJ/mol
# Density = 2.589933 g / cm^3
# Si number density = 25.958411 Si / 1000 Ang^3
#
#
#
# Elastic Constant Matrix: (Units=GPa)
#
#
# Indices 1 2 3 4 5 6 
#
# 1 188.0133 20.0690 46.3190 0.0000 -62.2469 0.0000
# 2 20.0690 60.5550 12.7629 0.0000 -10.6369 0.0000
# 3 46.3190 12.7629 65.3678 0.0000 -40.7837 0.0000
# 4 0.0000 0.0000 0.0000 16.6934 0.0000 -12.5953
# 5 -62.2469 -10.6369 -40.7837 0.0000 48.9528 0.0000
# 6 0.0000 0.0000 0.0000 -12.5953 0.0000 38.6808
#
#
#
# Elastic Compliance Matrix: (Units=1/GPa)
#
#
# Indices 1 2 3 4 5 6 
#
# 1 0.009348 -0.001170 0.001795 0.000000 0.013128 0.000000
# 2 -0.001170 0.017460 -0.002376 0.000000 0.000326 0.000000
# 3 0.001795 -0.002376 0.032469 0.000000 0.028818 0.000000
# 4 0.000000 0.000000 0.000000 0.079415 0.000000 0.025859
# 5 0.013128 0.000326 0.028818 0.000000 0.061200 0.000000
# 6 0.000000 0.000000 0.000000 0.025859 0.000000 0.034273
#
#
# Mechanical properties :
#
#
# Convention : Reuss Voigt Hill
#
# Bulk Modulus (GPa) = 17.92953 52.47086 35.20019
# Shear Modulus (GPa) = 19.51150 36.51776 28.01463
#
# Velocity S-wave (km/s) = 2.74459 3.75477 3.28870
# Velocity P-wave (km/s) = 4.11894 6.24941 5.29249
#
# Compressibility (1/GPa) = 0.05577392
#
# Stress axis : x y z
#
# Youngs Moduli (GPa) = 106.97854 57.27410 30.79818
#
# Poissons Ratio (x) = 0.06703 -0.05529
# Poissons Ratio (y) = 0.12521 0.07319
# Poissons Ratio (z) = -0.19206 0.13611
#
# Static dielectric constant tensor:
#      x y z
#    x 2.121840 0.000000 0.071470 
#    y 0.000000 2.119700 0.000000 
#    z 0.071470 0.000000 2.247300 
# 
# From -- ./inp_files/176629.got.cif
#   From: 2010.05.17/outbox.cif.g08.bks.cpg/sg15_89_cif.got.tgz:176629.got - 2010.06.03 18:47:42.
