data_PCOD9256990
_publ_section_title
;
Structure prediction by ZEFSAII (Michael W. Deem and Ramdas Pophale) SiO2 
 PCOD9256990
Probable space group: C 2/C
;
_chemical_formula_sum "Si O2"
_cell_formula_units_Z 52
_cell_length_a 7.647229
_cell_length_b 27.555754
_cell_length_c 14.012186
_cell_angle_alpha 90.000000
_cell_angle_beta 128.276068
_cell_angle_gamma 90.000000
_cell_volume 2317.989193
_symmetry_space_group_name_H-M "C 2/C"
_symmetry_group_IT_number 15
_symmetry_cell_setting 'monoclinic'
loop_
_space_group_symop_operation_xyz
x,y,z
-x,y,1/2-z
-x,-y,-z
x,-y,1/2+z
1/2+x,1/2+y,z
1/2-x,1/2+y,1/2-z
1/2-x,1/2-y,-z
1/2+x,1/2-y,1/2+z
loop_
_atom_site_type_symbol
_atom_site_label
_atom_site_fract_x
_atom_site_fract_y
_atom_site_fract_z
Si Si1 0.649714 0.994734 0.159852
Si Si2 0.292099 0.792037 0.755803
Si Si3 0.545705 0.374783 0.454445
Si Si4 0.561502 0.898121 0.663793
Si Si5 0.000000 0.076391 0.750000
Si Si6 0.200736 0.964086 0.075529
Si Si7 0.463108 0.263871 0.006208
O O1 0.808218 0.960560 0.151617
O O2 0.395726 0.977619 0.069296
O O3 0.717538 0.975844 0.289106
O O4 0.664688 0.052727 0.155546
O O5 0.500000 0.789862 0.750000
O O6 0.282825 0.850210 0.774451
O O7 0.347494 0.767291 0.876110
O O8 0.104321 0.764033 0.629138
O O9 0.448123 0.388345 0.318816
O O10 0.409729 0.411572 0.475512
O O11 0.495258 0.320314 0.462995
O O12 0.815145 0.382492 0.542089
O O13 0.500000 0.914264 0.750000
O O14 0.000000 0.000000 0.000000
O O15 0.250000 0.250000 0.000000
#
# Coordination Sequence:
#
# PCOD9256990 Si02
#       7
#     8   8   8   8   4   8   8
#     4  10  20  36  53  78 119 146 193 233 278 346
#     4   9  18  28  48  80 109 149 188 241 286 331
#     4  11  20  32  52  81 113 145 189 229 285 338
#     4  11  16  31  55  75 104 146 196 233 259 338
#     4  10  26  36  48  86 120 154 176 236 304 334
#     4  10  18  32  56  79 105 152 194 231 268 336
#     4  10  18  30  50  79 117 144 189 242 287 342
#
# _framework density 22.433236000000001
#
# number of rings (size 3 to 8) (size 9 to 14) (size 15 to 20)
#    0.000    1.846    7.692    0.000    3.231    0.615 
#    0.000    0.000    0.000    0.000    0.000    5.385 
#    0.000    0.154    0.000    0.000    0.000    0.308 
#
# Total GULP energy -144841.721629 kJ/mol
# GULP energy per Si atom -5570.835447 kJ/mol
# Density = 2.238218 g / cm^3
# Si number density = 22.433236 Si / 1000 Ang^3
#
#
#
# Elastic Constant Matrix: (Units=GPa)
#
#
# Indices 1 2 3 4 5 6 
#
# 1 24.8269 4.9573 9.6596 0.0000 9.9220 0.0000
# 2 4.9573 121.8199 28.8314 0.0000 -2.8041 0.0000
# 3 9.6596 28.8314 103.4715 0.0000 -16.1321 0.0000
# 4 0.0000 0.0000 0.0000 39.4155 0.0000 0.2930
# 5 9.9220 -2.8041 -16.1321 0.0000 22.8760 0.0000
# 6 0.0000 0.0000 0.0000 0.2930 0.0000 13.0989
#
#
#
# Elastic Compliance Matrix: (Units=1/GPa)
#
#
# Indices 1 2 3 4 5 6 
#
# 1 0.057157 -0.000662 -0.010144 0.000000 -0.032026 0.000000
# 2 -0.000662 0.008807 -0.002448 0.000000 -0.000360 0.000000
# 3 -0.010144 -0.002448 0.013407 0.000000 0.013554 0.000000
# 4 0.000000 0.000000 0.000000 0.025375 0.000000 -0.000568
# 5 -0.032026 -0.000360 0.013554 0.000000 0.067119 0.000000
# 6 0.000000 0.000000 0.000000 -0.000568 0.000000 0.076355
#
#
# Mechanical properties :
#
#
# Convention : Reuss Voigt Hill
#
# Bulk Modulus (GPa) = 18.91750 37.44612 28.18181
# Shear Modulus (GPa) = 17.10281 28.85610 22.97945
#
# Velocity S-wave (km/s) = 2.76413 3.59041 3.20402
# Velocity P-wave (km/s) = 4.31721 5.82379 5.12615
#
# Compressibility (1/GPa) = 0.05286110
#
# Stress axis : x y z
#
# Youngs Moduli (GPa) = 17.49567 113.54687 74.58812
#
# Poissons Ratio (x) = 0.07519 0.75666
# Poissons Ratio (y) = 0.01159 0.18261
# Poissons Ratio (z) = 0.17748 0.27799
#
# Static dielectric constant tensor:
#      x y z
#    x 1.883290 0.000000 0.018330 
#    y 0.000000 1.764730 0.000000 
#    z 0.018330 0.000000 1.921210 
# 
# From -- ./inp_files/193770.got.cif
#   From: 2010.05.17/outbox.cif.g08.bks.cpg/sg15_97_cif.got.tgz:193770.got - 2010.06.03 18:47:42.
