data_PCOD9256082
_publ_section_title
;
Structure prediction by ZEFSAII (Michael W. Deem and Ramdas Pophale) SiO2 
 PCOD9256082
Probable space group: C 2/C
;
_chemical_formula_sum "Si O2"
_cell_formula_units_Z 32
_cell_length_a 8.215533
_cell_length_b 17.332819
_cell_length_c 9.538923
_cell_angle_alpha 90.000000
_cell_angle_beta 114.522937
_cell_angle_gamma 90.000000
_cell_volume 1235.799240
_symmetry_space_group_name_H-M "C 2/C"
_symmetry_group_IT_number 15
_symmetry_cell_setting 'monoclinic'
loop_
_space_group_symop_operation_xyz
x,y,z
-x,y,1/2-z
-x,-y,-z
x,-y,1/2+z
1/2+x,1/2+y,z
1/2-x,1/2+y,1/2-z
1/2-x,1/2-y,-z
1/2+x,1/2-y,1/2+z
loop_
_atom_site_type_symbol
_atom_site_label
_atom_site_fract_x
_atom_site_fract_y
_atom_site_fract_z
Si Si1 0.000000 0.028778 0.250000
Si Si2 0.147698 0.178528 0.187941
Si Si3 0.000000 0.405964 0.250000
Si Si4 0.028612 0.686822 0.471348
Si Si5 0.171381 0.470583 0.966722
O O1 0.901018 0.087472 0.323590
O O2 0.147988 0.980943 0.383785
O O3 0.106288 0.229341 0.036008
O O4 0.337951 0.195675 0.328398
O O5 0.000000 0.205701 0.250000
O O6 0.019135 0.354003 0.120122
O O7 0.161349 0.465589 0.340517
O O8 0.132339 0.619214 0.422650
O O9 0.000000 0.500000 0.000000
#
# Coordination Sequence:
#
# PCOD9256082 Si02
#       5
#     4   8   4   8   8
#     4  10  19  34  62  89 112 144 196 244 279 340
#     4  10  19  32  57  88 114 143 189 244 289 326
#     4  10  17  34  58  77 118 146 184 240 283 326
#     4  11  21  34  57  88 118 147 185 241 290 337
#     4  10  20  37  55  88 117 151 188 239 289 334
#
# _framework density 25.894174
#
# number of rings (size 3 to 8) (size 9 to 14) (size 15 to 20)
#    0.750    1.000    6.250    0.750    3.500    0.000 
#    0.000    7.500    0.000    4.500    0.000    0.000 
#    0.000    0.000    0.000    0.000    0.000    0.000 
#
# Total GULP energy -89452.580953 kJ/mol
# GULP energy per Si atom -5590.786310 kJ/mol
# Density = 2.583524 g / cm^3
# Si number density = 25.894174 Si / 1000 Ang^3
#
#
#
# Elastic Constant Matrix: (Units=GPa)
#
#
# Indices 1 2 3 4 5 6 
#
# 1 72.3345 21.8885 56.5146 0.0000 19.4582 0.0000
# 2 21.8885 145.4680 55.5276 0.0000 36.6571 0.0000
# 3 56.5146 55.5276 219.6989 0.0000 55.3492 0.0000
# 4 0.0000 0.0000 0.0000 62.0382 0.0000 19.5112
# 5 19.4582 36.6571 55.3492 0.0000 62.6842 0.0000
# 6 0.0000 0.0000 0.0000 19.5112 0.0000 173.8458
#
#
#
# Elastic Compliance Matrix: (Units=1/GPa)
#
#
# Indices 1 2 3 4 5 6 
#
# 1 0.017539 -0.000751 -0.003937 0.000000 -0.001529 0.000000
# 2 -0.000751 0.008304 -0.000953 0.000000 -0.003782 0.000000
# 3 -0.003937 -0.000953 0.006889 0.000000 -0.004304 0.000000
# 4 0.000000 0.000000 0.000000 0.016709 0.000000 -0.001875
# 5 -0.001529 -0.003782 -0.004304 0.000000 0.022440 0.000000
# 6 0.000000 0.000000 0.000000 -0.001875 0.000000 0.005963
#
#
# Mechanical properties :
#
#
# Convention : Reuss Voigt Hill
#
# Bulk Modulus (GPa) = 46.61693 78.37365 62.49529
# Shear Modulus (GPa) = 51.93448 79.95167 65.94308
#
# Velocity S-wave (km/s) = 4.48330 5.56267 5.05190
# Velocity P-wave (km/s) = 6.69641 8.46111 7.62995
#
# Compressibility (1/GPa) = 0.02145143
#
# Stress axis : x y z
#
# Youngs Moduli (GPa) = 57.01604 120.42308 145.14860
#
# Poissons Ratio (x) = 0.09044 0.57139
# Poissons Ratio (y) = 0.04282 0.13831
# Poissons Ratio (z) = 0.22445 0.11475
#
# Static dielectric constant tensor:
#      x y z
#    x -21.127820 0.000000 11.789120 
#    y 0.000000 2.037550 0.000000 
#    z 11.789120 0.000000 -4.101320 
# 
# From -- ./inp_files/28415.got.cif
#   From: 2010.05.17/outbox.cif.g08.bks.cpg/sg15_15_cif.got.tgz:28415.got - 2010.06.03 18:47:42.
