data_PCOD9256550
_publ_section_title
;
Structure prediction by ZEFSAII (Michael W. Deem and Ramdas Pophale) SiO2 
 PCOD9256550
Probable space group: C 2/C
;
_chemical_formula_sum "Si O2"
_cell_formula_units_Z 40
_cell_length_a 19.720170
_cell_length_b 7.305967
_cell_length_c 17.604139
_cell_angle_alpha 90.000000
_cell_angle_beta 141.769343
_cell_angle_gamma 90.000000
_cell_volume 1569.544601
_symmetry_space_group_name_H-M "C 2/C"
_symmetry_group_IT_number 15
_symmetry_cell_setting 'monoclinic'
loop_
_space_group_symop_operation_xyz
x,y,z
-x,y,1/2-z
-x,-y,-z
x,-y,1/2+z
1/2+x,1/2+y,z
1/2-x,1/2+y,1/2-z
1/2-x,1/2-y,-z
1/2+x,1/2-y,1/2+z
loop_
_atom_site_type_symbol
_atom_site_label
_atom_site_fract_x
_atom_site_fract_y
_atom_site_fract_z
Si Si1 0.425242 0.938978 0.752027
Si Si2 0.485323 0.342540 0.923491
Si Si3 0.885382 0.662514 0.970475
Si Si4 0.839060 0.026983 0.668123
Si Si5 0.188046 0.942879 0.028528
O O1 0.500000 0.013702 0.750000
O O2 0.384538 0.733451 0.694833
O O3 0.314824 0.054928 0.663781
O O4 0.506895 0.914127 0.893789
O O5 0.415211 0.197319 0.909329
O O6 0.422249 0.421998 0.795640
O O7 0.500000 0.500000 0.000000
O O8 0.607553 0.303392 0.000584
O O9 0.775348 0.550528 0.888667
O O10 0.857422 0.857239 0.986222
O O11 0.821391 0.936079 0.570696
#
# Coordination Sequence:
#
# PCOD9256550 Si02
#       5
#     8   8   8   8   8
#     4  11  15  27  47  76 104 131 169 216 274 314
#     4  10  19  31  45  76 114 138 174 216 275 328
#     4  10  19  29  48  76 111 142 169 218 278 324
#     4  11  17  29  50  74 108 137 178 221 269 316
#     4  10  18  27  49  77 104 133 175 227 263 314
#
# _framework density 25.485097
#
# number of rings (size 3 to 8) (size 9 to 14) (size 15 to 20)
#    0.000    1.600    8.000    1.800    0.000    0.000 
#    0.000    0.000    0.000   13.200    0.000   12.600 
#   12.000    0.000    0.000    0.000    0.000    0.000 
#
# Total GULP energy -112084.527312 kJ/mol
# GULP energy per Si atom -5604.226366 kJ/mol
# Density = 2.542709 g / cm^3
# Si number density = 25.485097 Si / 1000 Ang^3
#
#
#
# Elastic Constant Matrix: (Units=GPa)
#
#
# Indices 1 2 3 4 5 6 
#
# 1 213.8739 41.1388 64.8501 0.0000 43.6752 0.0000
# 2 41.1388 62.2426 20.2135 0.0000 6.5762 0.0000
# 3 64.8501 20.2135 127.1350 0.0000 28.2091 0.0000
# 4 0.0000 0.0000 0.0000 12.5149 0.0000 -1.1671
# 5 43.6752 6.5762 28.2091 0.0000 47.5673 0.0000
# 6 0.0000 0.0000 0.0000 -1.1671 0.0000 25.1361
#
#
#
# Elastic Compliance Matrix: (Units=1/GPa)
#
#
# Indices 1 2 3 4 5 6 
#
# 1 0.006877 -0.003425 -0.001920 0.000000 -0.004702 0.000000
# 2 -0.003425 0.018677 -0.001551 0.000000 0.001483 0.000000
# 3 -0.001920 -0.001551 0.009964 0.000000 -0.003932 0.000000
# 4 0.000000 0.000000 0.000000 0.080252 0.000000 0.003726
# 5 -0.004702 0.001483 -0.003932 0.000000 0.027467 0.000000
# 6 0.000000 0.000000 0.000000 0.003726 0.000000 0.039956
#
#
# Mechanical properties :
#
#
# Convention : Reuss Voigt Hill
#
# Bulk Modulus (GPa) = 46.02937 72.85069 59.44003
# Shear Modulus (GPa) = 24.48247 35.51362 29.99804
#
# Velocity S-wave (km/s) = 3.10281 3.73702 3.43458
# Velocity P-wave (km/s) = 5.56211 6.87518 6.25321
#
# Compressibility (1/GPa) = 0.02172526
#
# Stress axis : x y z
#
# Youngs Moduli (GPa) = 145.41686 53.54181 100.36079
#
# Poissons Ratio (x) = 0.18337 0.19269
# Poissons Ratio (y) = 0.49803 0.15571
# Poissons Ratio (z) = 0.27919 0.08307
#
# Static dielectric constant tensor:
#      x y z
#    x 1.966420 0.000000 0.039040 
#    y 0.000000 2.139650 0.000000 
#    z 0.039040 0.000000 1.911890 
# 
# From -- ./inp_files/103943.got.cif
#   From: 2010.05.17/outbox.cif.g08.bks.cpg/sg15_52_cif.got.tgz:103943.got - 2010.06.03 18:47:42.
