data_PCOD9256659
_publ_section_title
;
Structure prediction by ZEFSAII (Michael W. Deem and Ramdas Pophale) SiO2 
 PCOD9256659
Probable space group: C 2/C
;
_chemical_formula_sum "Si O2"
_cell_formula_units_Z 60
_cell_length_a 30.524329
_cell_length_b 15.183781
_cell_length_c 5.751802
_cell_angle_alpha 90.000000
_cell_angle_beta 95.791797
_cell_angle_gamma 90.000000
_cell_volume 2652.206320
_symmetry_space_group_name_H-M "C 2/C"
_symmetry_group_IT_number 15
_symmetry_cell_setting 'monoclinic'
loop_
_space_group_symop_operation_xyz
x,y,z
-x,y,1/2-z
-x,-y,-z
x,-y,1/2+z
1/2+x,1/2+y,z
1/2-x,1/2+y,1/2-z
1/2-x,1/2-y,-z
1/2+x,1/2-y,1/2+z
loop_
_atom_site_type_symbol
_atom_site_label
_atom_site_fract_x
_atom_site_fract_y
_atom_site_fract_z
Si Si1 0.450376 0.032662 0.429919
Si Si2 0.249944 0.533300 0.148025
Si Si3 0.000000 0.857652 0.750000
Si Si4 0.439390 0.236434 0.388210
Si Si5 0.357407 0.712586 0.088120
Si Si6 0.780716 0.794282 0.827622
Si Si7 0.578912 0.620088 0.009734
Si Si8 0.837147 0.922501 0.179918
O O1 0.453854 0.136300 0.374229
O O2 0.500000 0.000000 0.500000
O O3 0.430761 0.013290 0.682403
O O4 0.231378 0.501081 0.390499
O O5 0.252481 0.638474 0.157434
O O6 0.300651 0.497197 0.188614
O O7 0.034979 0.913128 0.615059
O O8 0.970765 0.791982 0.576502
O O9 0.389215 0.227764 0.452901
O O10 0.436610 0.300317 0.165214
O O11 0.315387 0.756964 0.185959
O O12 0.390317 0.667365 0.286565
O O13 0.341933 0.633181 0.915965
O O14 0.750000 0.750000 0.000000
O O15 0.813431 0.854839 0.995152
O O16 0.613482 0.557502 0.888635
#
# Coordination Sequence:
#
# PCOD9256659 Si02
#       8
#     8   8   4   8   8   8   8   8
#     4  10  22  33  49  74 107 146 198 246 294 353
#     4  10  19  35  60  87 123 154 196 240 292 348
#     4  10  18  28  50  80 114 146 188 248 306 352
#     4  10  20  32  53  76 111 152 194 252 299 349
#     4   9  18  35  53  79 112 147 197 243 292 351
#     4  10  20  34  58  93 122 152 191 246 295 357
#     4   9  19  30  52  79 113 148 196 246 297 351
#     4   9  18  35  54  84 116 157 198 241 291 351
#
# _framework density 22.622675000000001
#
# number of rings (size 3 to 8) (size 9 to 14) (size 15 to 20)
#    0.000    2.400    1.333    1.200    7.467    0.533 
#    0.000    0.000    0.000    3.200    0.000   14.933 
#    0.000    0.667    0.000    0.000    0.000    0.000 
#
# Total GULP energy -167172.583702 kJ/mol
# GULP energy per Si atom -5572.419457 kJ/mol
# Density = 2.257118 g / cm^3
# Si number density = 22.622675 Si / 1000 Ang^3
#
#
#
# Elastic Constant Matrix: (Units=GPa)
#
#
# Indices 1 2 3 4 5 6 
#
# 1 102.8567 16.1107 21.4371 0.0000 -38.4020 0.0000
# 2 16.1107 28.8390 -1.6957 0.0000 0.9010 0.0000
# 3 21.4371 -1.6957 134.4729 0.0000 1.7719 0.0000
# 4 0.0000 0.0000 0.0000 15.6826 0.0000 -9.6540
# 5 -38.4020 0.9010 1.7719 0.0000 44.4825 0.0000
# 6 0.0000 0.0000 0.0000 -9.6540 0.0000 28.4013
#
#
#
# Elastic Compliance Matrix: (Units=1/GPa)
#
#
# Indices 1 2 3 4 5 6 
#
# 1 0.018010 -0.010747 -0.003216 0.000000 0.015894 0.000000
# 2 -0.010747 0.041137 0.002366 0.000000 -0.010205 0.000000
# 3 -0.003216 0.002366 0.008020 0.000000 -0.003144 0.000000
# 4 0.000000 0.000000 0.000000 0.080638 0.000000 0.027410
# 5 0.015894 -0.010205 -0.003144 0.000000 0.036534 0.000000
# 6 0.000000 0.000000 0.000000 0.027410 0.000000 0.044527
#
#
# Mechanical properties :
#
#
# Convention : Reuss Voigt Hill
#
# Bulk Modulus (GPa) = 22.74050 37.54143 30.14097
# Shear Modulus (GPa) = 18.74649 33.06771 25.90710
#
# Velocity S-wave (km/s) = 2.88177 3.82737 3.38773
# Velocity P-wave (km/s) = 4.59855 6.01351 5.35299
#
# Compressibility (1/GPa) = 0.04397440
#
# Stress axis : x y z
#
# Youngs Moduli (GPa) = 55.52529 24.30914 124.68224
#
# Poissons Ratio (x) = 0.26124 0.40098
# Poissons Ratio (y) = 0.59671 -0.29505
# Poissons Ratio (z) = 0.17857 -0.05753
#
# Static dielectric constant tensor:
#      x y z
#    x 1.934320 0.000000 -0.146880 
#    y 0.000000 1.822190 0.000000 
#    z -0.146880 0.000000 2.042710 
# 
# From -- ./inp_files/18383.got.cif
#   From: 2010.05.17/outbox.cif.g08.bks.cpg/sg15_10_cif.got.tgz:18383.got - 2010.06.03 18:47:42.
