data_PCOD9256245
_publ_section_title
;
Structure prediction by ZEFSAII (Michael W. Deem and Ramdas Pophale) SiO2 
 PCOD9256245
Probable space group: C 2/C
;
_chemical_formula_sum "Si O2"
_cell_formula_units_Z 64
_cell_length_a 8.162388
_cell_length_b 29.094510
_cell_length_c 11.943547
_cell_angle_alpha 90.000000
_cell_angle_beta 102.077098
_cell_angle_gamma 90.000000
_cell_volume 2773.584310
_symmetry_space_group_name_H-M "C 2/C"
_symmetry_group_IT_number 15
_symmetry_cell_setting 'monoclinic'
loop_
_space_group_symop_operation_xyz
x,y,z
-x,y,1/2-z
-x,-y,-z
x,-y,1/2+z
1/2+x,1/2+y,z
1/2-x,1/2+y,1/2-z
1/2-x,1/2-y,-z
1/2+x,1/2-y,1/2+z
loop_
_atom_site_type_symbol
_atom_site_label
_atom_site_fract_x
_atom_site_fract_y
_atom_site_fract_z
Si Si1 0.266810 0.096498 0.517820
Si Si2 0.663923 0.197402 0.898528
Si Si3 0.457889 0.271174 0.985061
Si Si4 0.666152 0.397277 0.353934
Si Si5 0.595349 0.369237 0.596360
Si Si6 0.803739 0.797923 0.189097
Si Si7 0.698783 0.028465 0.772808
Si Si8 0.321244 0.927693 0.783262
O O1 0.345314 0.142136 0.587365
O O2 0.241760 0.057812 0.610192
O O3 0.356236 0.076136 0.421119
O O4 0.096488 0.114699 0.435555
O O5 0.509594 0.222289 0.939277
O O6 0.692527 0.217773 0.777612
O O7 0.850707 0.209777 0.969882
O O8 0.384561 0.313915 0.904141
O O9 0.346453 0.269963 0.082880
O O10 0.500000 0.399182 0.250000
O O11 0.647210 0.390536 0.483136
O O12 0.756136 0.349978 0.335227
O O13 0.760489 0.442466 0.331590
O O14 0.701397 0.389493 0.712230
O O15 0.000000 0.804008 0.250000
O O16 0.500000 0.025617 0.750000
O O17 0.759887 0.976620 0.764260
O O18 0.500000 0.923035 0.750000
#
# Coordination Sequence:
#
# PCOD9256245 Si02
#       8
#     8   8   8   8   8   8   8   8
#     4  11  22  43  66  95 136 176 232 283 341 413
#     4   9  15  31  58  93 127 166 214 273 334 397
#     4   8  16  29  58  95 126 165 212 272 334 400
#     4  10  17  35  62  99 125 165 223 288 333 385
#     4  10  21  40  66  95 136 175 226 286 339 404
#     4   8  13  26  50  90 128 156 206 261 326 383
#     4  11  25  40  63  96 131 175 230 287 344 408
#     4  11  28  44  61  92 134 189 224 277 360 412
#
# _framework density 23.074833000000002
#
# number of rings (size 3 to 8) (size 9 to 14) (size 15 to 20)
#    0.000    2.250    2.500    1.875    3.500    2.500 
#    0.000    4.375    0.000    6.750    0.000    1.750 
#    0.000    3.125    0.000    0.000    0.000    0.000 
#
# Total GULP energy -178298.743246 kJ/mol
# GULP energy per Si atom -5571.835726 kJ/mol
# Density = 2.302231 g / cm^3
# Si number density = 23.074833 Si / 1000 Ang^3
#
#
#
# Elastic Constant Matrix: (Units=GPa)
#
#
# Indices 1 2 3 4 5 6 
#
# 1 57.8597 26.2548 28.5536 0.0000 -20.1272 0.0000
# 2 26.2548 133.6528 63.0623 0.0000 -11.5818 0.0000
# 3 28.5536 63.0623 125.0559 0.0000 -22.0643 0.0000
# 4 0.0000 0.0000 0.0000 16.5534 0.0000 1.8851
# 5 -20.1272 -11.5818 -22.0643 0.0000 48.4137 0.0000
# 6 0.0000 0.0000 0.0000 1.8851 0.0000 26.4799
#
#
#
# Elastic Compliance Matrix: (Units=1/GPa)
#
#
# Indices 1 2 3 4 5 6 
#
# 1 0.022281 -0.002560 -0.002469 0.000000 0.007525 0.000000
# 2 -0.002560 0.010113 -0.004650 0.000000 -0.000764 0.000000
# 3 -0.002469 -0.004650 0.011448 0.000000 0.003079 0.000000
# 4 0.000000 0.000000 0.000000 0.060904 0.000000 -0.004336
# 5 0.007525 -0.000764 0.003079 0.000000 0.025004 0.000000
# 6 0.000000 0.000000 0.000000 -0.004336 0.000000 0.038073
#
#
# Mechanical properties :
#
#
# Convention : Reuss Voigt Hill
#
# Bulk Modulus (GPa) = 40.84183 61.36775 51.10479
# Shear Modulus (GPa) = 25.59616 31.53593 28.56604
#
# Velocity S-wave (km/s) = 3.33418 3.70088 3.52230
# Velocity P-wave (km/s) = 5.70618 6.70185 6.22396
#
# Compressibility (1/GPa) = 0.02448470
#
# Stress axis : x y z
#
# Youngs Moduli (GPa) = 44.88151 98.88545 87.35080
#
# Poissons Ratio (x) = 0.25314 0.21564
# Poissons Ratio (y) = 0.11489 0.40617
# Poissons Ratio (z) = 0.11080 0.45981
#
# Static dielectric constant tensor:
#      x y z
#    x 2.214250 0.000000 -0.048860 
#    y 0.000000 1.900400 0.000000 
#    z -0.048860 0.000000 1.973470 
# 
# From -- ./inp_files/82604.got.cif
#   From: 2010.05.17/outbox.cif.g08.bks.cpg/sg15_42_cif.got.tgz:82604.got - 2010.06.03 18:47:42.
