data_PCOD9256463
_publ_section_title
;
Structure prediction by ZEFSAII (Michael W. Deem and Ramdas Pophale) SiO2 
 PCOD9256463
Probable space group: C 2/C
;
_chemical_formula_sum "Si O2"
_cell_formula_units_Z 56
_cell_length_a 8.392164
_cell_length_b 15.341106
_cell_length_c 28.312191
_cell_angle_alpha 90.000000
_cell_angle_beta 139.819253
_cell_angle_gamma 90.000000
_cell_volume 2351.793255
_symmetry_space_group_name_H-M "C 2/C"
_symmetry_group_IT_number 15
_symmetry_cell_setting 'monoclinic'
loop_
_space_group_symop_operation_xyz
x,y,z
-x,y,1/2-z
-x,-y,-z
x,-y,1/2+z
1/2+x,1/2+y,z
1/2-x,1/2+y,1/2-z
1/2-x,1/2-y,-z
1/2+x,1/2-y,1/2+z
loop_
_atom_site_type_symbol
_atom_site_label
_atom_site_fract_x
_atom_site_fract_y
_atom_site_fract_z
Si Si1 0.944868 0.886116 0.491187
Si Si2 0.000000 0.784304 0.250000
Si Si3 0.647325 0.192216 0.029222
Si Si4 0.500000 0.390681 0.750000
Si Si5 0.830252 0.865095 0.116361
Si Si6 0.157911 0.878700 0.684930
Si Si7 0.518501 0.811262 0.902016
Si Si8 0.410930 0.488578 0.398011
O O1 0.242569 0.872194 0.552740
O O2 0.845063 0.792916 0.484758
O O3 0.816925 0.914402 0.412942
O O4 0.923961 0.958384 0.526834
O O5 0.902354 0.846818 0.186560
O O6 0.799716 0.713090 0.223427
O O7 0.505471 0.200279 0.047663
O O8 0.904178 0.150611 0.102130
O O9 0.463241 0.134992 0.956290
O O10 0.598410 0.425650 0.721287
O O11 0.751468 0.343296 0.823898
O O12 0.925555 0.777863 0.112020
O O13 0.943908 0.943519 0.111954
O O14 0.267322 0.943116 0.669205
#
# Coordination Sequence:
#
# PCOD9256463 Si02
#       8
#     8   4   8   4   8   8   8   8
#     4  10  20  39  68  99 128 172 222 278 325 393
#     4  12  26  45  69  90 138 184 222 268 328 413
#     4  10  20  40  72  94 124 174 227 263 319 404
#     4  10  22  39  69  92 132 172 230 260 328 391
#     4  11  21  41  67  96 133 169 224 274 332 386
#     4  11  25  43  67 100 131 176 221 274 332 398
#     4  10  17  39  69  95 125 176 221 269 316 402
#     4  11  23  38  63  98 134 161 216 278 339 379
#
# _framework density 23.811616000000001
#
# number of rings (size 3 to 8) (size 9 to 14) (size 15 to 20)
#    0.000    1.429    4.286    2.571    0.000    3.429 
#    0.000    2.143    0.000    0.000    0.000    0.000 
#    0.000    0.000    0.000    0.000    0.000    0.000 
#
# Total GULP energy -156247.632040 kJ/mol
# GULP energy per Si atom -5580.272573 kJ/mol
# Density = 2.375742 g / cm^3
# Si number density = 23.811616 Si / 1000 Ang^3
#
#
#
# Elastic Constant Matrix: (Units=GPa)
#
#
# Indices 1 2 3 4 5 6 
#
# 1 76.1097 19.0341 30.0747 0.0000 -14.8324 0.0000
# 2 19.0341 77.0745 24.9083 0.0000 -17.0245 0.0000
# 3 30.0747 24.9083 143.6299 0.0002 -25.1083 0.0001
# 4 0.0000 0.0000 0.0002 26.5931 0.0001 -21.0363
# 5 -14.8324 -17.0245 -25.1083 0.0001 42.1612 0.0000
# 6 0.0000 0.0000 0.0001 -21.0363 0.0000 36.0488
#
#
#
# Elastic Compliance Matrix: (Units=1/GPa)
#
#
# Indices 1 2 3 4 5 6 
#
# 1 0.015211 -0.002355 -0.002241 0.000000 0.003066 0.000000
# 2 -0.002355 0.014962 -0.001329 0.000000 0.004422 0.000000
# 3 -0.002241 -0.001329 0.008294 0.000000 0.003614 0.000000
# 4 0.000000 0.000000 0.000000 0.069845 0.000000 0.040758
# 5 0.003066 0.004422 0.003614 0.000000 0.028735 0.000000
# 6 0.000000 0.000000 0.000000 0.040758 0.000000 0.051525
#
#
# Mechanical properties :
#
#
# Convention : Reuss Voigt Hill
#
# Bulk Modulus (GPa) = 37.56847 49.42758 43.49802
# Shear Modulus (GPa) = 23.88993 35.81376 29.85185
#
# Velocity S-wave (km/s) = 3.17091 3.88241 3.54456
# Velocity P-wave (km/s) = 5.40535 6.39533 5.92107
#
# Compressibility (1/GPa) = 0.02661807
#
# Stress axis : x y z
#
# Youngs Moduli (GPa) = 65.74296 66.83524 120.57259
#
# Poissons Ratio (x) = 0.15740 0.27016
# Poissons Ratio (y) = 0.15483 0.16019
# Poissons Ratio (z) = 0.14730 0.08880
#
# Static dielectric constant tensor:
#      x y z
#    x 2.004130 0.000000 -0.033670 
#    y 0.000000 1.968080 0.000000 
#    z -0.033670 0.000000 1.901170 
# 
# From -- ./inp_files/289785.got.cif
#   From: 2010.05.17/outbox.cif.g08.bks.cpg/sg15_145_cif.got.tgz:289785.got - 2010.06.03 18:47:42.
