data_PCOD9256754
_publ_section_title
;
Structure prediction by ZEFSAII (Michael W. Deem and Ramdas Pophale) SiO2 
 PCOD9256754
Probable space group: C 2/C
;
_chemical_formula_sum "Si O2"
_cell_formula_units_Z 48
_cell_length_a 15.648234
_cell_length_b 7.664953
_cell_length_c 27.765265
_cell_angle_alpha 90.000000
_cell_angle_beta 147.713229
_cell_angle_gamma 90.000000
_cell_volume 1778.876163
_symmetry_space_group_name_H-M "C 2/C"
_symmetry_group_IT_number 15
_symmetry_cell_setting 'monoclinic'
loop_
_space_group_symop_operation_xyz
x,y,z
-x,y,1/2-z
-x,-y,-z
x,-y,1/2+z
1/2+x,1/2+y,z
1/2-x,1/2+y,1/2-z
1/2-x,1/2-y,-z
1/2+x,1/2-y,1/2+z
loop_
_atom_site_type_symbol
_atom_site_label
_atom_site_fract_x
_atom_site_fract_y
_atom_site_fract_z
Si Si1 0.464644 0.002225 0.625327
Si Si2 0.166497 0.616529 0.801386
Si Si3 0.488449 0.800002 0.947936
Si Si4 0.838662 0.747775 0.874673
Si Si5 0.487662 0.366529 0.301386
Si Si6 0.105358 0.050002 0.447936
O O1 0.498766 0.941318 0.587628
O O2 0.452300 0.822308 0.651191
O O3 0.290487 0.087168 0.545475
O O4 0.605764 0.108141 0.717656
O O5 0.306333 0.755347 0.875806
O O6 0.248725 0.427691 0.848809
O O7 0.000000 0.640890 0.750000
O O8 0.556550 0.625000 0.954367
O O9 0.595938 0.837167 0.045475
O O10 0.702794 0.641859 0.782344
O O11 0.985883 0.808682 0.912372
O O12 0.500000 0.390890 0.250000
O O13 0.571086 0.505347 0.375806
#
# Coordination Sequence:
#
# PCOD9256754 Si02
#       6
#     8   8   8   8   8   8
#     4  10  18  29  47  78 109 138 177 225 272 320
#     4  10  18  29  47  77 108 138 177 220 267 322
#     4  10  18  29  48  78 109 140 175 226 273 317
#     4  10  18  29  47  78 109 138 177 225 272 320
#     4  10  18  29  47  77 108 138 177 220 267 322
#     4  10  18  29  48  78 109 140 175 226 273 317
#
# _framework density 26.983326999999999
#
# number of rings (size 3 to 8) (size 9 to 14) (size 15 to 20)
#    0.000    2.000    0.000   10.000    0.000    0.000 
#    0.000    0.000    0.000    0.000    0.000  345.333 
#    0.000    0.000    0.000    0.000    0.000    0.000 
#
# Total GULP energy -134754.393964 kJ/mol
# GULP energy per Si atom -5614.766415 kJ/mol
# Density = 2.692191 g / cm^3
# Si number density = 26.983327 Si / 1000 Ang^3
#
#
#
# Elastic Constant Matrix: (Units=GPa)
#
#
# Indices 1 2 3 4 5 6 
#
# 1 146.2811 -11.0927 62.9909 0.0000 -1.8414 -0.0001
# 2 -11.0927 77.7358 30.2677 0.0001 -1.3186 -0.0003
# 3 62.9909 30.2677 218.2104 0.0000 -0.4516 0.0000
# 4 0.0000 0.0001 0.0000 30.2987 0.0000 -0.2940
# 5 -1.8414 -1.3186 -0.4516 0.0000 70.4829 0.0001
# 6 -0.0001 -0.0003 0.0000 -0.2940 0.0001 21.0717
#
#
#
# Elastic Compliance Matrix: (Units=1/GPa)
#
#
# Indices 1 2 3 4 5 6 
#
# 1 0.008151 0.002202 -0.002658 0.000000 0.000237 0.000000
# 2 0.002202 0.014198 -0.002604 0.000000 0.000306 0.000000
# 3 -0.002658 -0.002604 0.005711 0.000000 -0.000082 0.000000
# 4 0.000000 0.000000 0.000000 0.033009 0.000000 0.000461
# 5 0.000237 0.000306 -0.000082 0.000000 0.014199 0.000000
# 6 0.000000 0.000000 0.000000 0.000461 0.000000 0.047464
#
#
# Mechanical properties :
#
#
# Convention : Reuss Voigt Hill
#
# Bulk Modulus (GPa) = 45.58128 67.39546 56.48837
# Shear Modulus (GPa) = 36.72033 48.37475 42.54754
#
# Velocity S-wave (km/s) = 3.69298 4.23870 3.97521
# Velocity P-wave (km/s) = 5.92563 6.99902 6.48458
#
# Compressibility (1/GPa) = 0.02193883
#
# Stress axis : x y z
#
# Youngs Moduli (GPa) = 122.69049 70.43480 175.09989
#
# Poissons Ratio (x) = -0.15509 0.46538
# Poissons Ratio (y) = -0.27016 0.45602
# Poissons Ratio (z) = 0.32608 0.18343
#
# Static dielectric constant tensor:
#      x y z
#    x 2.117140 0.000000 0.003960 
#    y 0.000000 2.274900 0.000000 
#    z 0.003960 0.000000 1.992970 
# 
# From -- ./inp_files/296195.got.cif
#   From: 2010.05.17/outbox.cif.g08.bks.cpg/sg15_149_cif.got.tgz:296195.got - 2010.06.03 18:47:42.
