data_PCOD9256954
_publ_section_title
;
Structure prediction by ZEFSAII (Michael W. Deem and Ramdas Pophale) SiO2 
 PCOD9256954
Probable space group: C 2/C
;
_chemical_formula_sum "Si O2"
_cell_formula_units_Z 56
_cell_length_a 19.329588
_cell_length_b 19.038907
_cell_length_c 11.887757
_cell_angle_alpha 90.000000
_cell_angle_beta 42.714568
_cell_angle_gamma 90.000000
_cell_volume 2967.673522
_symmetry_space_group_name_H-M "C 2/C"
_symmetry_group_IT_number 15
_symmetry_cell_setting 'monoclinic'
loop_
_space_group_symop_operation_xyz
x,y,z
-x,y,1/2-z
-x,-y,-z
x,-y,1/2+z
1/2+x,1/2+y,z
1/2-x,1/2+y,1/2-z
1/2-x,1/2-y,-z
1/2+x,1/2-y,1/2+z
loop_
_atom_site_type_symbol
_atom_site_label
_atom_site_fract_x
_atom_site_fract_y
_atom_site_fract_z
Si Si1 0.129803 0.936317 0.321037
Si Si2 0.315702 0.303525 0.814984
Si Si3 0.736924 0.546113 0.486439
Si Si4 0.405271 0.590773 0.034658
Si Si5 0.885348 0.906599 0.911777
Si Si6 0.447063 0.010711 0.688050
Si Si7 0.108901 0.331400 0.174439
O O1 0.226214 0.927576 0.126193
O O2 0.130742 0.896303 0.437416
O O3 0.026932 0.914097 0.379309
O O4 0.121361 0.018256 0.367074
O O5 0.368231 0.343688 0.650755
O O6 0.367160 0.336940 0.864605
O O7 0.345714 0.222332 0.787279
O O8 0.197063 0.325062 0.972751
O O9 0.660269 0.588453 0.499212
O O10 0.690096 0.467230 0.539872
O O11 0.849325 0.540187 0.304881
O O12 0.000000 0.932027 0.750000
O O13 0.500000 0.997864 0.750000
O O14 0.408906 0.091640 0.750124
O O15 0.500000 0.000000 0.500000
O O16 0.000000 0.311481 0.250000
#
# Coordination Sequence:
#
# PCOD9256954 Si02
#       7
#     8   8   8   8   8   8   8
#     4  10  18  30  49  84 120 152 195 239 308 382
#     4  11  20  37  57  90 121 160 197 264 308 370
#     4  11  21  33  55  82 124 156 196 253 309 370
#     4  10  19  30  54  83 121 152 189 243 310 367
#     4  11  18  29  53  83 120 154 191 248 315 363
#     4  11  26  43  65  93 124 166 216 266 308 370
#     4  10  23  38  60  87 122 159 214 253 315 368
#
# _framework density 18.869999
#
# number of rings (size 3 to 8) (size 9 to 14) (size 15 to 20)
#    0.000    1.429    4.286    2.571    8.000    0.000 
#    0.000    0.000    0.000    1.714    0.000    4.000 
#    0.000    0.000    0.000    0.000    0.000    0.000 
#
# Total GULP energy -156008.074998 kJ/mol
# GULP energy per Si atom -5571.716964 kJ/mol
# Density = 1.882705 g / cm^3
# Si number density = 18.869999 Si / 1000 Ang^3
#
#
#
# Elastic Constant Matrix: (Units=GPa)
#
#
# Indices 1 2 3 4 5 6 
#
# 1 58.6822 4.0273 33.7172 0.0000 14.7399 0.0000
# 2 4.0273 40.1317 5.5279 0.0000 7.4382 0.0000
# 3 33.7172 5.5279 136.8979 0.0000 10.4477 0.0000
# 4 0.0000 0.0000 0.0000 -8.6957 0.0000 36.3907
# 5 14.7399 7.4382 10.4477 0.0000 28.8373 0.0000
# 6 0.0000 0.0000 0.0000 36.3907 0.0000 -21.5257
#
#
#
# Elastic Compliance Matrix: (Units=1/GPa)
#
#
# Indices 1 2 3 4 5 6 
#
# 1 0.022175 0.000220 -0.004732 0.000000 -0.009677 0.000000
# 2 0.000220 0.026213 -0.000605 0.000000 -0.006655 0.000000
# 3 -0.004732 -0.000605 0.008534 0.000000 -0.000517 0.000000
# 4 0.000000 0.000000 0.000000 0.018930 0.000000 0.032003
# 5 -0.009677 -0.006655 -0.000517 0.000000 0.041527 0.000000
# 6 0.000000 0.000000 0.000000 0.032003 0.000000 0.007647
#
#
# Mechanical properties :
#
#
# Convention : Reuss Voigt Hill
#
# Bulk Modulus (GPa) = 21.41858 35.80631 28.61244
# Shear Modulus (GPa) = 33.15134 12.55248 22.85191
#
# Velocity S-wave (km/s) = 4.19600 2.58196 3.48374
# Velocity P-wave (km/s) = 5.90343 5.28253 5.60159
#
# Compressibility (1/GPa) = 0.04668844
#
# Stress axis : x y z
#
# Youngs Moduli (GPa) = 45.09492 38.14969 117.17726
#
# Poissons Ratio (x) = -0.00839 0.55449
# Poissons Ratio (y) = -0.00992 0.07087
# Poissons Ratio (z) = 0.21339 0.02307
#
# Static dielectric constant tensor:
#      x y z
#    x 1.703110 0.000000 -0.009780 
#    y 0.000000 1.715880 0.000000 
#    z -0.009780 0.000000 1.723220 
# 
# From -- ./inp_files/114060.got.cif
#   From: 2010.05.17/outbox.cif.g08.bks.cpg/sg15_58_cif.got.tgz:114060.got - 2010.06.03 18:47:42.
