data_PCOD9256312
_publ_section_title
;
Structure prediction by ZEFSAII (Michael W. Deem and Ramdas Pophale) SiO2 
 PCOD9256312
Probable space group: C 2/C
;
_chemical_formula_sum "Si O2"
_cell_formula_units_Z 56
_cell_length_a 14.306408
_cell_length_b 16.200910
_cell_length_c 13.637595
_cell_angle_alpha 90.000000
_cell_angle_beta 60.708004
_cell_angle_gamma 90.000000
_cell_volume 2756.721094
_symmetry_space_group_name_H-M "C 2/C"
_symmetry_group_IT_number 15
_symmetry_cell_setting 'monoclinic'
loop_
_space_group_symop_operation_xyz
x,y,z
-x,y,1/2-z
-x,-y,-z
x,-y,1/2+z
1/2+x,1/2+y,z
1/2-x,1/2+y,1/2-z
1/2-x,1/2-y,-z
1/2+x,1/2-y,1/2+z
loop_
_atom_site_type_symbol
_atom_site_label
_atom_site_fract_x
_atom_site_fract_y
_atom_site_fract_z
Si Si1 0.270139 0.613574 0.453482
Si Si2 0.474809 0.882376 0.366294
Si Si3 0.752578 0.444437 0.953405
Si Si4 0.482284 0.690903 0.366867
Si Si5 0.952233 0.380863 0.962413
Si Si6 0.696135 0.873429 0.769708
Si Si7 0.147000 0.795913 0.938875
O O1 0.152123 0.624451 0.557410
O O2 0.304709 0.523428 0.473096
O O3 0.356645 0.678228 0.448295
O O4 0.253035 0.617547 0.345295
O O5 0.500000 0.923462 0.250000
O O6 0.514049 0.787134 0.343209
O O7 0.527697 0.916068 0.438192
O O8 0.867715 0.434957 0.946454
O O9 0.774405 0.444194 0.824918
O O10 0.684703 0.360344 0.001968
O O11 0.500000 0.652748 0.250000
O O12 0.555534 0.661144 0.418192
O O13 0.069046 0.370927 0.853318
O O14 0.898080 0.290241 0.000453
O O15 0.748670 0.794214 0.686909
#
# Coordination Sequence:
#
# PCOD9256312 Si02
#       7
#     8   8   8   8   8   8   8
#     4  11  21  36  60  82 119 154 185 234 295 341
#     4   9  21  34  55  91 112 145 194 237 285 339
#     4  10  22  36  57  85 118 150 189 231 286 344
#     4  10  17  36  59  77 114 153 189 240 278 331
#     4  10  19  38  62  81 115 153 185 246 283 328
#     4   9  21  37  59  87 110 153 193 228 294 330
#     4   9  20  37  58  86 113 149 201 230 278 343
#
# _framework density 20.313987999999998
#
# number of rings (size 3 to 8) (size 9 to 14) (size 15 to 20)
#    0.857    1.429    1.429    1.286    0.000    5.143 
#    0.000    0.000    3.143    0.000    0.000    0.000 
#    0.000    0.000    0.000    0.000    0.000    0.000 
#
# Total GULP energy -155961.932853 kJ/mol
# GULP energy per Si atom -5570.069030 kJ/mol
# Density = 2.026775 g / cm^3
# Si number density = 20.313988 Si / 1000 Ang^3
#
#
#
# Elastic Constant Matrix: (Units=GPa)
#
#
# Indices 1 2 3 4 5 6 
#
# 1 92.6176 -1.6184 -7.6944 0.0000 8.1310 0.0000
# 2 -1.6184 54.3857 9.2229 0.0000 3.2986 0.0000
# 3 -7.6944 9.2229 46.1379 0.0000 4.0797 0.0000
# 4 0.0000 0.0000 0.0000 16.5164 0.0000 1.1873
# 5 8.1310 3.2986 4.0797 0.0000 15.5076 0.0000
# 6 0.0000 0.0000 0.0000 1.1873 0.0000 13.7610
#
#
#
# Elastic Compliance Matrix: (Units=1/GPa)
#
#
# Indices 1 2 3 4 5 6 
#
# 1 0.011606 0.000339 0.002470 0.000000 -0.006807 0.000000
# 2 0.000339 0.019191 -0.003484 0.000000 -0.003344 0.000000
# 3 0.002470 -0.003484 0.023375 0.000000 -0.006703 0.000000
# 4 0.000000 0.000000 0.000000 0.060924 0.000000 -0.005256
# 5 -0.006807 -0.003344 -0.006703 0.000000 0.070528 0.000000
# 6 0.000000 0.000000 0.000000 -0.005256 0.000000 0.073123
#
#
# Mechanical properties :
#
#
# Convention : Reuss Voigt Hill
#
# Bulk Modulus (GPa) = 18.93156 21.44017 20.18586
# Shear Modulus (GPa) = 18.00480 22.03907 20.02193
#
# Velocity S-wave (km/s) = 2.98035 3.29739 3.14287
# Velocity P-wave (km/s) = 4.60250 5.00743 4.80923
#
# Compressibility (1/GPa) = 0.05282186
#
# Stress axis : x y z
#
# Youngs Moduli (GPa) = 86.16404 52.10799 42.78038
#
# Poissons Ratio (x) = -0.01769 -0.10565
# Poissons Ratio (y) = -0.02925 0.14905
# Poissons Ratio (z) = -0.21279 0.18154
#
# Static dielectric constant tensor:
#      x y z
#    x 1.750590 0.000000 0.015040 
#    y 0.000000 1.817710 0.000000 
#    z 0.015040 0.000000 1.752790 
# 
# From -- ./inp_files/154779.got.cif
#   From: 2010.05.17/outbox.cif.g08.bks.cpg/sg15_78_cif.got.tgz:154779.got - 2010.06.03 18:47:42.
