data_PCOD9256009
_publ_section_title
;
Structure prediction by ZEFSAII (Michael W. Deem and Ramdas Pophale) SiO2 
 PCOD9256009
Probable space group: C 2/C
;
_chemical_formula_sum "Si O2"
_cell_formula_units_Z 44
_cell_length_a 12.473203
_cell_length_b 18.926537
_cell_length_c 9.148889
_cell_angle_alpha 90.000000
_cell_angle_beta 87.100225
_cell_angle_gamma 90.000000
_cell_volume 2157.054216
_symmetry_space_group_name_H-M "C 2/C"
_symmetry_group_IT_number 15
_symmetry_cell_setting 'monoclinic'
loop_
_space_group_symop_operation_xyz
x,y,z
-x,y,1/2-z
-x,-y,-z
x,-y,1/2+z
1/2+x,1/2+y,z
1/2-x,1/2+y,1/2-z
1/2-x,1/2-y,-z
1/2+x,1/2-y,1/2+z
loop_
_atom_site_type_symbol
_atom_site_label
_atom_site_fract_x
_atom_site_fract_y
_atom_site_fract_z
Si Si1 0.060690 0.754554 0.965257
Si Si2 0.791657 0.859577 0.107176
Si Si3 0.099092 0.540515 0.630737
Si Si4 0.452589 0.890517 0.906743
Si Si5 0.668067 0.281714 0.669210
Si Si6 0.000000 0.158631 0.750000
O O1 0.135513 0.791021 0.839453
O O2 0.940369 0.753047 0.904017
O O3 0.092621 0.674079 0.997311
O O4 0.053281 0.795164 0.117710
O O5 0.700405 0.912905 0.163115
O O6 0.756754 0.779809 0.155062
O O7 0.903799 0.880063 0.172705
O O8 0.800010 0.849337 0.930276
O O9 0.124046 0.457587 0.612637
O O10 0.000000 0.546428 0.750000
O O11 0.051828 0.573904 0.485928
O O12 0.500000 0.863835 0.750000
#
# Coordination Sequence:
#
# PCOD9256009 Si02
#       6
#     8   8   8   8   8   4
#     4  10  17  34  51  85 114 144 192 238 286 344
#     4  10  19  35  50  80 115 157 191 225 287 348
#     4  10  20  35  55  82 116 155 186 234 296 340
#     4  10  19  30  54  86 114 141 187 242 288 339
#     4   9  19  30  56  74 112 159 181 232 295 334
#     4  10  22  32  54  82 118 156 188 234 274 348
#
# _framework density 20.398191000000001
#
# number of rings (size 3 to 8) (size 9 to 14) (size 15 to 20)
#    0.000    2.182    2.727    1.091    0.000    0.727 
#    0.000    1.818    0.000    0.000    0.000   20.364 
#    2.727    0.000    0.000   23.455    0.000    0.000 
#
# Total GULP energy -122744.674934 kJ/mol
# GULP energy per Si atom -5579.303406 kJ/mol
# Density = 2.035176 g / cm^3
# Si number density = 20.398191 Si / 1000 Ang^3
#
#
#
# Elastic Constant Matrix: (Units=GPa)
#
#
# Indices 1 2 3 4 5 6 
#
# 1 75.5011 29.5827 20.3676 0.0000 -4.1845 0.0000
# 2 29.5827 58.3108 15.6764 0.0000 -5.3197 0.0000
# 3 20.3676 15.6764 112.5104 0.0000 -23.8952 0.0000
# 4 0.0000 0.0000 0.0000 8.5182 0.0000 0.7109
# 5 -4.1845 -5.3197 -23.8952 0.0000 31.1130 0.0000
# 6 0.0000 0.0000 0.0000 0.7109 0.0000 2.4337
#
#
#
# Elastic Compliance Matrix: (Units=1/GPa)
#
#
# Indices 1 2 3 4 5 6 
#
# 1 0.016942 -0.008098 -0.002090 0.000000 -0.000711 0.000000
# 2 -0.008098 0.021736 -0.001200 0.000000 0.001705 0.000000
# 3 -0.002090 -0.001200 0.011149 0.000000 0.008076 0.000000
# 4 0.000000 0.000000 0.000000 0.120329 0.000000 -0.035148
# 5 -0.000711 0.001705 0.008076 0.000000 0.038539 0.000000
# 6 0.000000 0.000000 0.000000 -0.035148 0.000000 0.421159
#
#
# Mechanical properties :
#
#
# Convention : Reuss Voigt Hill
#
# Bulk Modulus (GPa) = 36.96767 41.95287 39.46027
# Shear Modulus (GPa) = 7.55689 20.45937 14.00813
#
# Velocity S-wave (km/s) = 1.92684 3.17045 2.62340
# Velocity P-wave (km/s) = 4.80756 5.83215 5.34447
#
# Compressibility (1/GPa) = 0.02705066
#
# Stress axis : x y z
#
# Youngs Moduli (GPa) = 59.02415 46.00605 89.69544
#
# Poissons Ratio (x) = 0.37257 0.18743
# Poissons Ratio (y) = 0.47800 0.10767
# Poissons Ratio (z) = 0.12334 0.05522
#
# Static dielectric constant tensor:
#      x y z
#    x 1.734590 0.000000 -0.005440 
#    y 0.000000 1.717450 0.000000 
#    z -0.005440 0.000000 1.804460 
# 
# From -- ./inp_files/30920.got.cif
#   From: 2010.05.17/outbox.cif.g08.bks.cpg/sg15_16_cif.got.tgz:30920.got - 2010.06.03 18:47:42.
