data_PCOD9256930
_publ_section_title
;
Structure prediction by ZEFSAII (Michael W. Deem and Ramdas Pophale) SiO2 
 PCOD9256930
Probable space group: C 2/C
;
_chemical_formula_sum "Si O2"
_cell_formula_units_Z 52
_cell_length_a 28.760154
_cell_length_b 7.708766
_cell_length_c 29.686464
_cell_angle_alpha 90.000000
_cell_angle_beta 17.820052
_cell_angle_gamma 90.000000
_cell_volume 2014.171394
_symmetry_space_group_name_H-M "C 2/C"
_symmetry_group_IT_number 15
_symmetry_cell_setting 'monoclinic'
loop_
_space_group_symop_operation_xyz
x,y,z
-x,y,1/2-z
-x,-y,-z
x,-y,1/2+z
1/2+x,1/2+y,z
1/2-x,1/2+y,1/2-z
1/2-x,1/2-y,-z
1/2+x,1/2-y,1/2+z
loop_
_atom_site_type_symbol
_atom_site_label
_atom_site_fract_x
_atom_site_fract_y
_atom_site_fract_z
Si Si1 0.851922 0.835621 0.755435
Si Si2 0.500000 0.550668 0.750000
Si Si3 0.029216 0.319906 0.916230
Si Si4 0.368369 0.474707 0.459501
Si Si5 0.244957 0.464483 0.275590
Si Si6 0.791085 0.632393 0.021291
Si Si7 0.570755 0.950818 0.782372
O O1 0.886489 0.637830 0.735128
O O2 0.998365 0.956186 0.630530
O O3 0.792134 0.867318 0.761050
O O4 0.726293 0.887177 0.908425
O O5 0.568702 0.633341 0.641090
O O6 0.634583 0.436254 0.646554
O O7 0.144892 0.470292 0.826603
O O8 0.102934 0.146532 0.868667
O O9 0.025943 0.327241 0.865082
O O10 0.867512 0.355403 0.088011
O O11 0.311430 0.663929 0.493398
O O12 0.222942 0.389613 0.616968
O O13 0.933382 0.513842 0.877136
#
# Coordination Sequence:
#
# PCOD9256930 Si02
#       7
#     8   4   8   8   8   8   8
#     4   9  18  36  57  81 123 162 198 240 302 349
#     4  10  18  30  48  86 126 162 188 254 300 366
#     4  11  25  41  63  89 124 154 204 245 299 350
#     4   9  19  29  53  83 119 161 197 238 304 353
#     4  11  24  43  61  91 120 161 197 251 291 356
#     4   9  17  31  51  81 120 159 197 244 300 352
#     4  10  19  36  57  88 120 163 201 250 295 360
#
# _framework density 25.817064999999999
#
# number of rings (size 3 to 8) (size 9 to 14) (size 15 to 20)
#    0.000    2.154    1.538    2.308    2.154    1.231 
#    0.000    0.000    0.000    0.000    0.000   17.231 
#    0.000    0.000    0.000    0.000    0.000    0.000 
#
# Total GULP energy -145484.634504 kJ/mol
# GULP energy per Si atom -5595.562866 kJ/mol
# Density = 2.575830 g / cm^3
# Si number density = 25.817065 Si / 1000 Ang^3
#
#
#
# Elastic Constant Matrix: (Units=GPa)
#
#
# Indices 1 2 3 4 5 6 
#
# 1 67.6566 -11.0664 20.4645 0.0154 7.1814 -0.0219
# 2 -11.0664 79.0269 15.4281 -0.0013 0.8256 -0.0071
# 3 20.4645 15.4281 104.1228 0.0207 -8.6023 -0.0083
# 4 0.0154 -0.0013 0.0207 18.7572 -0.0050 -1.3224
# 5 7.1814 0.8256 -8.6023 -0.0050 27.2945 0.0067
# 6 -0.0219 -0.0071 -0.0083 -1.3224 0.0067 3.4301
#
#
#
# Elastic Compliance Matrix: (Units=1/GPa)
#
#
# Indices 1 2 3 4 5 6 
#
# 1 0.017297 0.003343 -0.004394 -0.000002 -0.006037 0.000118
# 2 0.003343 0.013705 -0.002869 0.000004 -0.002198 0.000048
# 3 -0.004394 -0.002869 0.011289 -0.000009 0.004801 -0.000019
# 4 -0.000002 0.000004 -0.000009 0.054802 0.000002 0.021128
# 5 -0.006037 -0.002198 0.004801 0.000002 0.039805 -0.000108
# 6 0.000118 0.000048 -0.000019 0.021128 -0.000108 0.299683
#
#
# Mechanical properties :
#
#
# Convention : Reuss Voigt Hill
#
# Bulk Modulus (GPa) = 29.02625 33.38430 31.20528
# Shear Modulus (GPa) = 10.96715 24.96170 17.96443
#
# Velocity S-wave (km/s) = 2.06331 3.11282 2.64073
# Velocity P-wave (km/s) = 4.11628 5.08711 4.62723
#
# Compressibility (1/GPa) = 0.03445157
#
# Stress axis : x y z
#
# Youngs Moduli (GPa) = 57.81302 72.96494 88.57878
#
# Poissons Ratio (x) = -0.24392 0.38919
# Poissons Ratio (y) = -0.19327 0.25417
# Poissons Ratio (z) = 0.25401 0.20937
#
# Static dielectric constant tensor:
#      x y z
#    x 2.025420 -0.000020 0.046720 
#    y -0.000020 2.022620 0.000030 
#    z 0.046720 0.000030 2.004270 
# 
# From -- ./inp_files/320164.got.cif
#   From: 2010.05.17/outbox.cif.g08.bks.cpg/sg15_161_cif.got.tgz:320164.got - 2010.06.03 18:47:42.
