data_PCOD9256751
_publ_section_title
;
Structure prediction by ZEFSAII (Michael W. Deem and Ramdas Pophale) SiO2 
 PCOD9256751
Probable space group: C 2/C
;
_chemical_formula_sum "Si O2"
_cell_formula_units_Z 64
_cell_length_a 12.275107
_cell_length_b 25.396515
_cell_length_c 21.392181
_cell_angle_alpha 90.000000
_cell_angle_beta 141.926231
_cell_angle_gamma 90.000000
_cell_volume 4112.550062
_symmetry_space_group_name_H-M "C 2/C"
_symmetry_group_IT_number 15
_symmetry_cell_setting 'monoclinic'
loop_
_space_group_symop_operation_xyz
x,y,z
-x,y,1/2-z
-x,-y,-z
x,-y,1/2+z
1/2+x,1/2+y,z
1/2-x,1/2+y,1/2-z
1/2-x,1/2-y,-z
1/2+x,1/2-y,1/2+z
loop_
_atom_site_type_symbol
_atom_site_label
_atom_site_fract_x
_atom_site_fract_y
_atom_site_fract_z
Si Si1 0.791678 0.164934 0.671003
Si Si2 0.240403 0.612715 0.300153
Si Si3 0.190708 0.453012 0.146704
Si Si4 0.543635 0.454851 0.698855
Si Si5 0.818499 0.404851 0.591470
Si Si6 0.815370 0.498968 0.496245
Si Si7 0.863511 0.723721 0.248579
Si Si8 0.156120 0.695779 0.473957
O O1 0.725156 0.109226 0.667547
O O2 0.788055 0.217421 0.712204
O O3 0.685913 0.180099 0.559501
O O4 0.000000 0.157129 0.750000
O O5 0.342983 0.585644 0.290344
O O6 0.274956 0.589598 0.384282
O O7 0.269503 0.675346 0.319830
O O8 0.030194 0.603201 0.195399
O O9 0.344211 0.490487 0.244436
O O10 0.184210 0.468381 0.070188
O O11 0.000364 0.470702 0.086605
O O12 0.500000 0.437460 0.750000
O O13 0.355197 0.464349 0.582150
O O14 0.793022 0.455700 0.538742
O O15 0.763204 0.352343 0.529508
O O16 0.000000 0.720840 0.250000
O O17 0.963492 0.708151 0.357900
O O18 0.250000 0.750000 0.500000
#
# Coordination Sequence:
#
# PCOD9256751 Si02
#       8
#     8   8   8   8   8   8   8   8
#     4  11  19  29  49  76 108 137 167 217 276 318
#     4  10  18  34  50  72 103 135 169 214 257 310
#     4  10  20  32  49  76 107 133 171 220 267 302
#     4  10  21  33  52  76 102 134 176 219 257 308
#     4  10  18  30  51  72 101 136 166 206 260 317
#     4  10  19  32  49  73 101 135 175 211 254 318
#     4  10  18  29  47  74 103 134 166 209 266 319
#     4  11  17  27  44  73 105 134 159 208 264 322
#
# _framework density 15.562120999999999
#
# number of rings (size 3 to 8) (size 9 to 14) (size 15 to 20)
#    0.000    1.750    7.500    1.125    0.000    0.500 
#    0.000    0.000    0.000    0.750    0.000    1.750 
#    0.000    0.000    0.000    0.000    0.000    0.000 
#
# Total GULP energy -178140.106882 kJ/mol
# GULP energy per Si atom -5566.878340 kJ/mol
# Density = 1.552670 g / cm^3
# Si number density = 15.562121 Si / 1000 Ang^3
#
#
#
# Elastic Constant Matrix: (Units=GPa)
#
#
# Indices 1 2 3 4 5 6 
#
# 1 67.3590 53.5833 20.1273 0.0001 2.6437 0.0000
# 2 53.5833 113.7815 10.2877 -0.0004 -4.4002 0.0000
# 3 20.1273 10.2877 44.5239 0.0009 -1.9938 0.0002
# 4 0.0001 -0.0004 0.0009 19.8526 0.0005 1.8603
# 5 2.6437 -4.4002 -1.9938 0.0005 17.0543 0.0000
# 6 0.0000 0.0000 0.0002 1.8603 0.0000 15.1210
#
#
#
# Elastic Compliance Matrix: (Units=1/GPa)
#
#
# Indices 1 2 3 4 5 6 
#
# 1 0.028479 -0.012825 -0.010311 0.000000 -0.008929 0.000000
# 2 -0.012825 0.014826 0.002646 0.000000 0.006123 0.000000
# 3 -0.010311 0.002646 0.026752 -0.000001 0.005409 0.000000
# 4 0.000000 0.000000 -0.000001 0.050959 -0.000002 -0.006269
# 5 -0.008929 0.006123 0.005409 -0.000002 0.062232 0.000000
# 6 0.000000 0.000000 0.000000 -0.006269 0.000000 0.066905
#
#
# Mechanical properties :
#
#
# Convention : Reuss Voigt Hill
#
# Bulk Modulus (GPa) = 34.39054 43.74011 39.06532
# Shear Modulus (GPa) = 16.62102 19.84998 18.23550
#
# Velocity S-wave (km/s) = 3.27164 3.57533 3.42685
# Velocity P-wave (km/s) = 6.03476 6.72397 6.38867
#
# Compressibility (1/GPa) = 0.02907776
#
# Stress axis : x y z
#
# Youngs Moduli (GPa) = 35.11341 67.44952 37.38087
#
# Poissons Ratio (x) = 0.86503 0.38542
# Poissons Ratio (y) = 0.45032 -0.09891
# Poissons Ratio (z) = 0.36204 -0.17847
#
# Static dielectric constant tensor:
#      x y z
#    x 1.498890 0.000000 -0.020320 
#    y 0.000000 1.536770 0.000000 
#    z -0.020320 0.000000 1.624440 
# 
# From -- ./inp_files/240903.got.cif
#   From: 2010.05.17/outbox.cif.g08.bks.cpg/sg15_121_cif.got.tgz:240903.got - 2010.06.03 18:47:42.
