data_PCOD9256651
_publ_section_title
;
Structure prediction by ZEFSAII (Michael W. Deem and Ramdas Pophale) SiO2 
 PCOD9256651
Probable space group: C 2/C
;
_chemical_formula_sum "Si O2"
_cell_formula_units_Z 64
_cell_length_a 10.959468
_cell_length_b 20.189247
_cell_length_c 21.492020
_cell_angle_alpha 90.000000
_cell_angle_beta 41.457246
_cell_angle_gamma 90.000000
_cell_volume 3148.363235
_symmetry_space_group_name_H-M "C 2/C"
_symmetry_group_IT_number 15
_symmetry_cell_setting 'monoclinic'
loop_
_space_group_symop_operation_xyz
x,y,z
-x,y,1/2-z
-x,-y,-z
x,-y,1/2+z
1/2+x,1/2+y,z
1/2-x,1/2+y,1/2-z
1/2-x,1/2-y,-z
1/2+x,1/2-y,1/2+z
loop_
_atom_site_type_symbol
_atom_site_label
_atom_site_fract_x
_atom_site_fract_y
_atom_site_fract_z
Si Si1 0.164307 0.922345 0.282804
Si Si2 0.564924 0.638710 0.477035
Si Si3 0.330729 0.130167 0.265258
Si Si4 0.258570 0.586081 0.961544
Si Si5 0.814960 0.419100 0.349620
Si Si6 0.766758 0.720186 0.585945
Si Si7 0.850922 0.772714 0.226049
Si Si8 0.525923 0.006548 0.368747
O O1 0.217604 0.955392 0.328476
O O2 0.199404 0.843981 0.283399
O O3 0.948368 0.928901 0.352217
O O4 0.306833 0.955963 0.181356
O O5 0.662417 0.615773 0.376145
O O6 0.665509 0.604264 0.497750
O O7 0.348348 0.624038 0.559624
O O8 0.603629 0.716887 0.468705
O O9 0.500000 0.144634 0.250000
O O10 0.283891 0.197262 0.244606
O O11 0.392721 0.072169 0.195784
O O12 0.167506 0.651663 0.967630
O O13 0.108123 0.529501 0.025355
O O14 0.894980 0.469586 0.369103
O O15 0.000000 0.386448 0.250000
O O16 0.706957 0.712614 0.680469
O O17 0.568971 0.733922 0.629899
#
# Coordination Sequence:
#
# PCOD9256651 Si02
#       8
#     8   8   8   8   8   8   8   8
#     4   9  20  32  48  70 100 138 165 195 246 299
#     4  10  18  28  50  74 102 133 158 200 246 295
#     4  11  17  29  50  78 102 127 152 207 253 285
#     4  10  19  28  48  75 101 128 160 206 246 292
#     4   9  20  33  44  66 104 138 163 188 239 299
#     4   9  16  30  49  76  97 123 163 207 250 284
#     4   9  16  32  50  71 103 127 163 203 247 294
#     4  11  21  32  46  75 109 130 161 199 246 302
#
# _framework density 20.328022000000001
#
# number of rings (size 3 to 8) (size 9 to 14) (size 15 to 20)
#    0.000    2.250    3.750    1.500    1.750    3.000 
#    0.000    0.625    0.000   12.000    6.500    0.000 
#   15.000    0.000    0.000    0.000    0.000    0.000 
#
# Total GULP energy -178258.204910 kJ/mol
# GULP energy per Si atom -5570.568903 kJ/mol
# Density = 2.028175 g / cm^3
# Si number density = 20.328022 Si / 1000 Ang^3
#
#
#
# Elastic Constant Matrix: (Units=GPa)
#
#
# Indices 1 2 3 4 5 6 
#
# 1 25.2437 23.6485 17.8351 -0.0049 -7.5692 -0.0010
# 2 23.6485 111.5038 59.7501 0.0052 -22.5257 0.0013
# 3 17.8351 59.7501 129.2434 0.0135 -27.3268 0.0054
# 4 -0.0049 0.0052 0.0135 43.5859 0.0064 2.7622
# 5 -7.5692 -22.5257 -27.3268 0.0064 18.6583 -0.0016
# 6 -0.0010 0.0013 0.0054 2.7622 -0.0016 19.2800
#
#
#
# Elastic Compliance Matrix: (Units=1/GPa)
#
#
# Indices 1 2 3 4 5 6 
#
# 1 0.050972 -0.008343 -0.001354 0.000006 0.008623 0.000003
# 2 -0.008343 0.014475 -0.003710 -0.000003 0.008656 0.000001
# 3 -0.001354 -0.003710 0.012423 -0.000005 0.013167 -0.000001
# 4 0.000006 -0.000003 -0.000005 0.023153 -0.000017 -0.003317
# 5 0.008623 0.008656 0.013167 -0.000017 0.086828 0.000006
# 6 0.000003 0.000001 -0.000001 -0.003317 0.000006 0.052343
#
#
# Mechanical properties :
#
#
# Convention : Reuss Voigt Hill
#
# Bulk Modulus (GPa) = 19.58635 52.05093 35.81864
# Shear Modulus (GPa) = 17.60404 27.28866 22.44635
#
# Velocity S-wave (km/s) = 2.94598 3.66787 3.32657
# Velocity P-wave (km/s) = 4.60736 6.60294 5.69327
#
# Compressibility (1/GPa) = 0.05105597
#
# Stress axis : x y z
#
# Youngs Moduli (GPa) = 19.61878 69.08650 80.49415
#
# Poissons Ratio (x) = 0.57639 0.10895
# Poissons Ratio (y) = 0.16368 0.29864
# Poissons Ratio (z) = 0.02656 0.25632
#
# Static dielectric constant tensor:
#      x y z
#    x 1.744910 0.000000 0.043340 
#    y 0.000000 1.777080 0.000000 
#    z 0.043340 0.000000 1.797050 
# 
# From -- ./inp_files/182752.got.cif
#   From: 2010.05.17/outbox.cif.g08.bks.cpg/sg15_92_cif.got.tgz:182752.got - 2010.06.03 18:47:42.
