data_PCOD9256217
_publ_section_title
;
Structure prediction by ZEFSAII (Michael W. Deem and Ramdas Pophale) SiO2 
 PCOD9256217
Probable space group: C 2/C
;
_chemical_formula_sum "Si O2"
_cell_formula_units_Z 64
_cell_length_a 16.521763
_cell_length_b 17.726654
_cell_length_c 12.882317
_cell_angle_alpha 90.000000
_cell_angle_beta 44.945227
_cell_angle_gamma 90.000000
_cell_volume 2665.302893
_symmetry_space_group_name_H-M "C 2/C"
_symmetry_group_IT_number 15
_symmetry_cell_setting 'monoclinic'
loop_
_space_group_symop_operation_xyz
x,y,z
-x,y,1/2-z
-x,-y,-z
x,-y,1/2+z
1/2+x,1/2+y,z
1/2-x,1/2+y,1/2-z
1/2-x,1/2-y,-z
1/2+x,1/2-y,1/2+z
loop_
_atom_site_type_symbol
_atom_site_label
_atom_site_fract_x
_atom_site_fract_y
_atom_site_fract_z
Si Si1 0.352620 0.135605 0.150146
Si Si2 0.084552 0.025351 0.045393
Si Si3 0.341234 0.441887 0.809624
Si Si4 0.678149 0.248106 0.871664
Si Si5 0.553919 0.167965 0.806833
Si Si6 0.998342 0.144470 0.634462
Si Si7 0.244629 0.400752 0.365540
Si Si8 0.840035 0.478030 0.243182
O O1 0.293918 0.203276 0.265206
O O2 0.252600 0.105980 0.163237
O O3 0.379563 0.063840 0.199822
O O4 0.455258 0.159648 0.982947
O O5 0.116820 0.078480 0.114160
O O6 0.056821 0.937701 0.093226
O O7 0.955858 0.052620 0.134053
O O8 0.202147 0.023203 0.876664
O O9 0.285939 0.524462 0.886790
O O10 0.652790 0.213571 0.779361
O O11 0.688098 0.178968 0.944422
O O12 0.574142 0.302388 0.994842
O O13 0.500000 0.200573 0.750000
O O14 0.602386 0.083728 0.735725
O O15 0.000000 0.176182 0.750000
O O16 0.869202 0.129860 0.712518
O O17 0.149099 0.438380 0.378455
#
# Coordination Sequence:
#
# PCOD9256217 Si02
#       8
#     8   8   8   8   8   8   8   8
#     4  11  22  39  63  92 121 165 216 263 313 382
#     4  10  17  35  58  95 119 150 207 257 325 369
#     4   9  19  34  58  89 122 154 206 263 310 373
#     4  11  24  40  61  91 126 173 213 257 320 387
#     4  11  25  46  63  90 132 173 216 267 321 377
#     4  11  20  37  60  90 131 162 203 267 318 381
#     4   9  20  36  55  84 120 163 203 257 316 368
#     4  10  21  37  67  89 121 167 213 271 313 372
#
# _framework density 24.012278999999999
#
# number of rings (size 3 to 8) (size 9 to 14) (size 15 to 20)
#    0.000    1.750    3.750    1.875    1.750    2.500 
#    2.250    0.000    0.000    6.000    0.000    0.000 
#    0.000    0.000    0.000    0.000    0.000    0.000 
#
# Total GULP energy -178318.895242 kJ/mol
# GULP energy per Si atom -5572.465476 kJ/mol
# Density = 2.395763 g / cm^3
# Si number density = 24.012279 Si / 1000 Ang^3
#
#
#
# Elastic Constant Matrix: (Units=GPa)
#
#
# Indices 1 2 3 4 5 6 
#
# 1 54.3864 -0.1435 -0.1979 0.0000 -7.0096 0.0000
# 2 -0.1435 88.4130 5.3251 0.0000 1.8366 0.0000
# 3 -0.1979 5.3251 55.9711 0.0000 -9.7803 0.0000
# 4 0.0000 0.0000 0.0000 20.8198 0.0000 -9.7631
# 5 -7.0096 1.8366 -9.7803 0.0000 28.9401 0.0000
# 6 0.0000 0.0000 0.0000 -9.7631 0.0000 25.9953
#
#
#
# Elastic Compliance Matrix: (Units=1/GPa)
#
#
# Indices 1 2 3 4 5 6 
#
# 1 0.019026 -0.000128 0.000942 0.000000 0.004935 0.000000
# 2 -0.000128 0.011413 -0.001295 0.000000 -0.001193 0.000000
# 3 0.000942 -0.001295 0.019180 0.000000 0.006792 0.000000
# 4 0.000000 0.000000 0.000000 0.058299 0.000000 0.021895
# 5 0.004935 -0.001193 0.006792 0.000000 0.038120 0.000000
# 6 0.000000 0.000000 0.000000 0.021895 0.000000 0.046692
#
#
# Mechanical properties :
#
#
# Convention : Reuss Voigt Hill
#
# Bulk Modulus (GPa) = 20.55236 23.19310 21.87273
# Shear Modulus (GPa) = 23.81961 28.07018 25.94490
#
# Velocity S-wave (km/s) = 3.15298 3.42276 3.29064
# Velocity P-wave (km/s) = 4.67255 5.02993 4.85453
#
# Compressibility (1/GPa) = 0.04865622
#
# Stress axis : x y z
#
# Youngs Moduli (GPa) = 52.55950 87.61856 52.13840
#
# Poissons Ratio (x) = 0.01125 -0.04910
# Poissons Ratio (y) = 0.00675 0.06751
# Poissons Ratio (z) = -0.04950 0.11344
#
# Static dielectric constant tensor:
#      x y z
#    x 1.980110 0.000000 0.043240 
#    y 0.000000 1.952420 0.000000 
#    z 0.043240 0.000000 1.983970 
# 
# From -- ./inp_files/163254.got.cif
#   From: 2010.05.17/outbox.cif.g08.bks.cpg/sg15_82_cif.got.tgz:163254.got - 2010.06.03 18:47:42.
