data_PCOD9256978
_publ_section_title
;
Structure prediction by ZEFSAII (Michael W. Deem and Ramdas Pophale) SiO2 
 PCOD9256978
Probable space group: C 2/C
;
_chemical_formula_sum "Si O2"
_cell_formula_units_Z 56
_cell_length_a 24.421545
_cell_length_b 13.783090
_cell_length_c 7.659761
_cell_angle_alpha 90.000000
_cell_angle_beta 63.023319
_cell_angle_gamma 90.000000
_cell_volume 2297.766252
_symmetry_space_group_name_H-M "C 2/C"
_symmetry_group_IT_number 15
_symmetry_cell_setting 'monoclinic'
loop_
_space_group_symop_operation_xyz
x,y,z
-x,y,1/2-z
-x,-y,-z
x,-y,1/2+z
1/2+x,1/2+y,z
1/2-x,1/2+y,1/2-z
1/2-x,1/2-y,-z
1/2+x,1/2-y,1/2+z
loop_
_atom_site_type_symbol
_atom_site_label
_atom_site_fract_x
_atom_site_fract_y
_atom_site_fract_z
Si Si1 0.463026 0.870965 0.528803
Si Si2 0.584671 0.067153 0.030162
Si Si3 0.714530 0.838774 0.815429
Si Si4 0.148822 0.984395 0.526187
Si Si5 0.210847 0.467517 0.168131
Si Si6 0.100540 0.791292 0.564475
Si Si7 0.852113 0.154170 0.157789
O O1 0.427818 0.885534 0.764327
O O2 0.533266 0.890850 0.474334
O O3 0.450909 0.769185 0.456971
O O4 0.434587 0.953348 0.443671
O O5 0.653669 0.071665 0.862142
O O6 0.664188 0.756199 0.902587
O O7 0.784639 0.801564 0.726922
O O8 0.705612 0.914559 0.670002
O O9 0.706635 0.909733 0.993811
O O10 0.219153 0.958439 0.367610
O O11 0.100840 0.905286 0.524447
O O12 0.152971 0.946243 0.721459
O O13 0.130595 0.097798 0.543129
O O14 0.106995 0.784795 0.767971
#
# Coordination Sequence:
#
# PCOD9256978 Si02
#       7
#     8   8   8   8   8   8   8
#     4  10  21  35  53  78 107 152 168 219 254 323
#     4  10  20  35  53  76 112 142 178 203 270 312
#     4  10  18  30  50  76 108 147 175 212 258 319
#     4   8  18  32  52  72 105 142 174 219 271 309
#     4  10  18  30  51  73 109 148 172 208 266 316
#     4  10  19  32  54  73 109 141 185 211 273 311
#     4   8  17  32  51  69 105 142 175 213 268 313
#
# _framework density 24.371494999999999
#
# number of rings (size 3 to 8) (size 9 to 14) (size 15 to 20)
#    0.857    1.714    1.429    1.286    0.000    0.000 
#    0.000    2.143    0.000    0.000    0.000    4.000 
#    0.000    0.143    0.000    0.000    0.000    0.000 
#
# Total GULP energy -156114.104541 kJ/mol
# GULP energy per Si atom -5575.503734 kJ/mol
# Density = 2.431602 g / cm^3
# Si number density = 24.371495 Si / 1000 Ang^3
#
#
#
# Elastic Constant Matrix: (Units=GPa)
#
#
# Indices 1 2 3 4 5 6 
#
# 1 84.7615 21.3085 16.0767 0.0000 13.9853 0.0000
# 2 21.3085 51.0808 -4.6884 0.0000 -0.4839 0.0000
# 3 16.0767 -4.6884 34.2073 0.0000 2.8704 0.0000
# 4 0.0000 0.0000 0.0000 40.1488 0.0000 20.8175
# 5 13.9853 -0.4839 2.8704 0.0000 18.2642 0.0000
# 6 0.0000 0.0000 0.0000 20.8175 0.0000 62.3037
#
#
#
# Elastic Compliance Matrix: (Units=1/GPa)
#
#
# Indices 1 2 3 4 5 6 
#
# 1 0.017444 -0.008154 -0.008286 0.000000 -0.012271 0.000000
# 2 -0.008154 0.023638 0.006582 0.000000 0.005835 0.000000
# 3 -0.008286 0.006582 0.033930 0.000000 0.001187 0.000000
# 4 0.000000 0.000000 0.000000 0.030127 0.000000 -0.010066
# 5 -0.012271 0.005835 0.001187 0.000000 0.064116 0.000000
# 6 0.000000 0.000000 0.000000 -0.010066 0.000000 0.019414
#
#
# Mechanical properties :
#
#
# Convention : Reuss Voigt Hill
#
# Bulk Modulus (GPa) = 18.08427 26.16035 22.12231
# Shear Modulus (GPa) = 22.04434 33.30019 27.67227
#
# Velocity S-wave (km/s) = 3.01078 3.70044 3.37328
# Velocity P-wave (km/s) = 4.41845 5.38655 4.92634
#
# Compressibility (1/GPa) = 0.05529667
#
# Stress axis : x y z
#
# Youngs Moduli (GPa) = 57.32688 42.30566 29.47216
#
# Poissons Ratio (x) = 0.34494 0.24421
# Poissons Ratio (y) = 0.46742 -0.19399
# Poissons Ratio (z) = 0.47501 -0.27846
#
# Static dielectric constant tensor:
#      x y z
#    x 1.935510 0.000000 0.050580 
#    y 0.000000 2.462830 0.000000 
#    z 0.050580 0.000000 2.124600 
# 
# From -- ./inp_files/65935.got.cif
#   From: 2010.05.17/outbox.cif.g08.bks.cpg/sg15_33_cif.got.tgz:65935.got - 2010.06.03 18:47:42.
