data_PCOD9256094
_publ_section_title
;
Structure prediction by ZEFSAII (Michael W. Deem and Ramdas Pophale) SiO2 
 PCOD9256094
Probable space group: C 2/C
;
_chemical_formula_sum "Si O2"
_cell_formula_units_Z 60
_cell_length_a 9.373298
_cell_length_b 16.936486
_cell_length_c 18.308056
_cell_angle_alpha 90.000000
_cell_angle_beta 76.703820
_cell_angle_gamma 90.000000
_cell_volume 2828.508446
_symmetry_space_group_name_H-M "C 2/C"
_symmetry_group_IT_number 15
_symmetry_cell_setting 'monoclinic'
loop_
_space_group_symop_operation_xyz
x,y,z
-x,y,1/2-z
-x,-y,-z
x,-y,1/2+z
1/2+x,1/2+y,z
1/2-x,1/2+y,1/2-z
1/2-x,1/2-y,-z
1/2+x,1/2-y,1/2+z
loop_
_atom_site_type_symbol
_atom_site_label
_atom_site_fract_x
_atom_site_fract_y
_atom_site_fract_z
Si Si1 0.438402 0.798315 0.332769
Si Si2 0.142030 0.326725 0.007910
Si Si3 0.381557 0.563302 0.457412
Si Si4 0.910639 0.713603 0.419678
Si Si5 0.646433 0.342953 0.861016
Si Si6 0.000000 0.146096 0.750000
Si Si7 0.041832 0.897703 0.084908
Si Si8 0.820444 0.285025 0.717580
O O1 0.500000 0.833327 0.250000
O O2 0.395206 0.852533 0.405223
O O3 0.553382 0.735272 0.351851
O O4 0.297081 0.747612 0.325748
O O5 0.250000 0.250000 0.000000
O O6 0.237493 0.389847 0.953466
O O7 0.991184 0.310504 0.984295
O O8 0.526465 0.591848 0.396415
O O9 0.356653 0.471216 0.447595
O O10 0.417743 0.589234 0.537071
O O11 0.032203 0.694245 0.342772
O O12 0.740115 0.826053 0.587029
O O13 0.899026 0.808672 0.425743
O O14 0.746684 0.351239 0.776735
O O15 0.996486 0.097401 0.675478
O O16 0.136527 0.207543 0.739042
#
# Coordination Sequence:
#
# PCOD9256094 Si02
#       8
#     8   8   8   8   8   4   8   8
#     4  10  21  33  54  88 120 148 198 251 292 347
#     4  12  19  38  58  90 121 159 194 248 309 354
#     4  11  23  38  61  88 123 158 198 253 306 358
#     4  11  20  36  67  87 123 159 203 246 299 355
#     4  11  20  35  57  97 119 149 208 259 282 345
#     4  10  18  38  62  86 114 166 196 248 292 374
#     4  10  21  39  58  86 118 162 202 239 304 367
#     4  10  17  34  58  88 121 157 195 247 297 346
#
# _framework density 21.212592999999998
#
# number of rings (size 3 to 8) (size 9 to 14) (size 15 to 20)
#    0.000    1.333    6.667    0.800    0.000    2.133 
#    6.000    0.000    0.000   12.000    0.000    0.000 
#    0.000    0.000    0.000    0.000    0.000    0.000 
#
# Total GULP energy -167315.041514 kJ/mol
# GULP energy per Si atom -5577.168050 kJ/mol
# Density = 2.116431 g / cm^3
# Si number density = 21.212593 Si / 1000 Ang^3
#
#
#
# Elastic Constant Matrix: (Units=GPa)
#
#
# Indices 1 2 3 4 5 6 
#
# 1 110.5567 17.4393 19.5816 0.0000 7.1232 0.0000
# 2 17.4393 60.0541 11.7514 0.0000 -2.5880 0.0000
# 3 19.5816 11.7514 136.4286 0.0000 2.9910 0.0000
# 4 0.0000 0.0000 0.0000 12.7260 0.0000 3.5924
# 5 7.1232 -2.5880 2.9910 0.0000 36.1362 0.0000
# 6 0.0000 0.0000 0.0000 3.5924 0.0000 16.8063
#
#
#
# Elastic Compliance Matrix: (Units=1/GPa)
#
#
# Indices 1 2 3 4 5 6 
#
# 1 0.009804 -0.002714 -0.001129 0.000000 -0.002034 0.000000
# 2 -0.002714 0.017753 -0.001181 0.000000 0.001904 0.000000
# 3 -0.001129 -0.001181 0.007604 0.000000 -0.000491 0.000000
# 4 0.000000 0.000000 0.000000 0.083625 0.000000 -0.017875
# 5 -0.002034 0.001904 -0.000491 0.000000 0.028251 0.000000
# 6 0.000000 0.000000 0.000000 -0.017875 0.000000 0.063322
#
#
# Mechanical properties :
#
#
# Convention : Reuss Voigt Hill
#
# Bulk Modulus (GPa) = 39.81938 44.95379 42.38658
# Shear Modulus (GPa) = 21.85513 30.35152 26.10332
#
# Velocity S-wave (km/s) = 3.21330 3.78673 3.51174
# Velocity P-wave (km/s) = 5.70783 6.35273 6.03889
#
# Compressibility (1/GPa) = 0.02511340
#
# Stress axis : x y z
#
# Youngs Moduli (GPa) = 101.99740 56.32868 131.50278
#
# Poissons Ratio (x) = 0.15287 0.14845
# Poissons Ratio (y) = 0.27680 0.15536
# Poissons Ratio (z) = 0.11514 0.06655
#
# Static dielectric constant tensor:
#      x y z
#    x 1.814250 0.000000 -0.004950 
#    y 0.000000 1.746740 0.000000 
#    z -0.004950 0.000000 1.894560 
# 
# From -- ./inp_files/199949.got.cif
#   From: 2010.05.17/outbox.cif.g08.bks.cpg/sg15_100_cif.got.tgz:199949.got - 2010.06.03 18:47:42.
