data_PCOD9256784
_publ_section_title
;
Structure prediction by ZEFSAII (Michael W. Deem and Ramdas Pophale) SiO2 
 PCOD9256784
Probable space group: C 2/C
;
_chemical_formula_sum "Si O2"
_cell_formula_units_Z 64
_cell_length_a 12.595147
_cell_length_b 17.192262
_cell_length_c 19.858253
_cell_angle_alpha 90.000000
_cell_angle_beta 128.350212
_cell_angle_gamma 90.000000
_cell_volume 3372.270225
_symmetry_space_group_name_H-M "C 2/C"
_symmetry_group_IT_number 15
_symmetry_cell_setting 'monoclinic'
loop_
_space_group_symop_operation_xyz
x,y,z
-x,y,1/2-z
-x,-y,-z
x,-y,1/2+z
1/2+x,1/2+y,z
1/2-x,1/2+y,1/2-z
1/2-x,1/2-y,-z
1/2+x,1/2-y,1/2+z
loop_
_atom_site_type_symbol
_atom_site_label
_atom_site_fract_x
_atom_site_fract_y
_atom_site_fract_z
Si Si1 0.147560 0.007332 0.334786
Si Si2 0.409601 0.616138 0.468707
Si Si3 0.700242 0.152606 0.628929
Si Si4 0.662032 0.549349 0.494620
Si Si5 0.559317 0.229545 0.442987
Si Si6 0.609280 0.088723 0.108592
Si Si7 0.350016 0.201678 0.171019
Si Si8 0.541975 0.064883 0.922752
O O1 0.228717 0.926549 0.365834
O O2 0.000000 0.993358 0.250000
O O3 0.139385 0.040444 0.406323
O O4 0.235368 0.064794 0.322590
O O5 0.546276 0.603457 0.480192
O O6 0.362639 0.535428 0.482934
O O7 0.447296 0.680508 0.539868
O O8 0.280731 0.646509 0.375013
O O9 0.630460 0.189217 0.535351
O O10 0.809510 0.217730 0.692483
O O11 0.582199 0.125673 0.634134
O O12 0.819388 0.574651 0.563896
O O13 0.425581 0.175988 0.384296
O O14 0.636704 0.218447 0.403764
O O15 0.514929 0.023317 0.106876
O O16 0.580361 0.075902 0.017141
O O17 0.500000 0.173751 0.250000
#
# Coordination Sequence:
#
# PCOD9256784 Si02
#       8
#     8   8   8   8   8   8   8   8
#     4  10  18  29  49  76 104 131 160 204 251 287
#     4  10  21  34  52  74  98 132 169 200 245 297
#     4   9  17  31  51  75  95 126 171 199 237 292
#     4  10  19  34  51  73 101 129 168 208 239 290
#     4  10  18  33  52  68  96 130 165 207 244 284
#     4   8  15  27  47  71  92 123 163 194 238 289
#     4  11  21  32  50  76 102 126 158 207 257 295
#     4   8  14  28  49  70  93 120 157 204 236 269
#
# _framework density 18.978313
#
# number of rings (size 3 to 8) (size 9 to 14) (size 15 to 20)
#    0.000    2.500    0.000    6.375    0.000    1.000 
#    0.000   10.000    0.000    0.000    0.000    0.875 
#    0.000    0.000    0.000    0.000    0.000    0.000 
#
# Total GULP energy -178247.271078 kJ/mol
# GULP energy per Si atom -5570.227221 kJ/mol
# Density = 1.893512 g / cm^3
# Si number density = 18.978313 Si / 1000 Ang^3
#
#
#
# Elastic Constant Matrix: (Units=GPa)
#
#
# Indices 1 2 3 4 5 6 
#
# 1 137.5246 40.3485 22.1724 0.0000 31.2174 0.0000
# 2 40.3485 66.3136 6.9389 0.0000 12.9966 0.0000
# 3 22.1724 6.9389 19.7803 0.0000 11.2431 0.0000
# 4 0.0000 0.0000 0.0000 9.4798 0.0000 8.5026
# 5 31.2174 12.9966 11.2431 0.0000 18.8953 0.0000
# 6 0.0000 0.0000 0.0000 8.5026 0.0000 24.5228
#
#
#
# Elastic Compliance Matrix: (Units=1/GPa)
#
#
# Indices 1 2 3 4 5 6 
#
# 1 0.012723 -0.004238 -0.003753 0.000000 -0.015871 0.000000
# 2 -0.004238 0.018856 0.002309 0.000000 -0.007342 0.000000
# 3 -0.003753 0.002309 0.077563 0.000000 -0.041538 0.000000
# 4 0.000000 0.000000 0.000000 0.153099 0.000000 -0.053083
# 5 -0.015871 -0.007342 -0.041538 0.000000 0.108910 0.000000
# 6 0.000000 0.000000 0.000000 -0.053083 0.000000 0.059184
#
#
# Mechanical properties :
#
#
# Convention : Reuss Voigt Hill
#
# Bulk Modulus (GPa) = 10.22744 40.28201 25.25473
# Shear Modulus (GPa) = 10.54206 20.85682 15.69944
#
# Velocity S-wave (km/s) = 2.35942 3.31869 2.87928
# Velocity P-wave (km/s) = 3.58095 5.99635 4.93860
#
# Compressibility (1/GPa) = 0.09777620
#
# Stress axis : x y z
#
# Youngs Moduli (GPa) = 78.60060 53.03455 12.89277
#
# Poissons Ratio (x) = 0.22475 0.04839
# Poissons Ratio (y) = 0.33309 -0.02977
# Poissons Ratio (z) = 0.29502 -0.12245
#
# Static dielectric constant tensor:
#      x y z
#    x 1.687380 0.000000 0.049560 
#    y 0.000000 1.700690 0.000000 
#    z 0.049560 0.000000 1.729370 
# 
# From -- ./inp_files/199226.got.cif
#   From: 2010.05.17/outbox.cif.g08.bks.cpg/sg15_100_cif.got.tgz:199226.got - 2010.06.03 18:47:42.
