data_PCOD9256355
_publ_section_title
;
Structure prediction by ZEFSAII (Michael W. Deem and Ramdas Pophale) SiO2 
 PCOD9256355
Probable space group: C 2/C
;
_chemical_formula_sum "Si O2"
_cell_formula_units_Z 64
_cell_length_a 14.352140
_cell_length_b 28.276602
_cell_length_c 12.028314
_cell_angle_alpha 90.000000
_cell_angle_beta 40.853630
_cell_angle_gamma 90.000000
_cell_volume 3193.095899
_symmetry_space_group_name_H-M "C 2/C"
_symmetry_group_IT_number 15
_symmetry_cell_setting 'monoclinic'
loop_
_space_group_symop_operation_xyz
x,y,z
-x,y,1/2-z
-x,-y,-z
x,-y,1/2+z
1/2+x,1/2+y,z
1/2-x,1/2+y,1/2-z
1/2-x,1/2-y,-z
1/2+x,1/2-y,1/2+z
loop_
_atom_site_type_symbol
_atom_site_label
_atom_site_fract_x
_atom_site_fract_y
_atom_site_fract_z
Si Si1 0.944932 0.078569 0.037785
Si Si2 0.213007 0.805572 0.522698
Si Si3 0.832589 0.111540 0.936303
Si Si4 0.637920 0.284452 0.045562
Si Si5 0.742890 0.057738 0.817909
Si Si6 0.655732 0.529074 0.152269
Si Si7 0.939086 0.815365 0.616405
Si Si8 0.848562 0.595922 0.829046
O O1 0.883596 0.060049 0.206081
O O2 0.971952 0.134460 0.028845
O O3 0.833160 0.074803 0.037580
O O4 0.094242 0.054538 0.874785
O O5 0.250000 0.750000 0.500000
O O6 0.180425 0.820659 0.680094
O O7 0.307507 0.848212 0.383477
O O8 0.076096 0.803595 0.565958
O O9 0.794175 0.163401 0.009921
O O10 0.742553 0.097754 0.911947
O O11 0.000000 0.111670 0.750000
O O12 0.500000 0.283625 0.250000
O O13 0.750000 0.250000 0.000000
O O14 0.597011 0.279521 0.951860
O O15 0.650749 0.075530 0.797565
O O16 0.734753 0.010040 0.898506
O O17 0.500000 0.510420 0.250000
O O18 0.728765 0.563729 0.997796
O O19 0.000000 0.588564 0.750000
#
# Coordination Sequence:
#
# PCOD9256355 Si02
#       8
#     8   8   8   8   8   8   8   8
#     4  10  17  36  63  96 127 149 212 277 316 360
#     4  11  24  42  67  95 126 174 222 274 324 390
#     4   8  18  34  57  91 121 158 205 259 321 361
#     4  10  22  38  61  91 129 171 207 260 318 387
#     4  11  22  37  67  94 127 163 213 273 315 377
#     4  12  22  38  70 100 123 167 222 269 319 379
#     4  10  21  40  66  94 126 169 213 278 324 367
#     4  12  28  45  62  97 138 174 213 266 338 400
#
# _framework density 20.043243
#
# number of rings (size 3 to 8) (size 9 to 14) (size 15 to 20)
#    0.000    1.500    3.750    2.250    5.250    0.500 
#    0.000    0.000    0.000    0.000    0.000    0.000 
#    0.000    0.000    0.000    0.000    0.000    0.000 
#
# Total GULP energy -178245.076390 kJ/mol
# GULP energy per Si atom -5570.158637 kJ/mol
# Density = 1.999762 g / cm^3
# Si number density = 20.043243 Si / 1000 Ang^3
#
#
#
# Elastic Constant Matrix: (Units=GPa)
#
#
# Indices 1 2 3 4 5 6 
#
# 1 162.4481 31.1954 25.9627 0.0000 29.9092 0.0000
# 2 31.1954 79.4433 -2.1356 0.0000 0.5309 0.0000
# 3 25.9627 -2.1356 23.5923 0.0000 16.9318 0.0000
# 4 0.0000 0.0000 0.0000 8.7668 0.0000 5.9761
# 5 29.9092 0.5309 16.9318 0.0000 33.0797 0.0000
# 6 0.0000 0.0000 0.0000 5.9761 0.0000 27.1079
#
#
#
# Elastic Compliance Matrix: (Units=1/GPa)
#
#
# Indices 1 2 3 4 5 6 
#
# 1 0.008734 -0.003584 -0.006812 0.000000 -0.004353 0.000000
# 2 -0.003584 0.014121 0.004836 0.000000 0.000539 0.000000
# 3 -0.006812 0.004836 0.072641 0.000000 -0.031099 0.000000
# 4 0.000000 0.000000 0.000000 0.134240 0.000000 -0.029594
# 5 -0.004353 0.000539 -0.031099 0.000000 0.050075 0.000000
# 6 0.000000 0.000000 0.000000 -0.029594 0.000000 0.043414
#
#
# Mechanical properties :
#
#
# Convention : Reuss Voigt Hill
#
# Bulk Modulus (GPa) = 11.85182 41.72542 26.78862
# Shear Modulus (GPa) = 13.79420 27.82162 20.80791
#
# Velocity S-wave (km/s) = 2.62624 3.72974 3.22553
# Velocity P-wave (km/s) = 3.88872 6.27780 5.22173
#
# Compressibility (1/GPa) = 0.08437522
#
# Stress axis : x y z
#
# Youngs Moduli (GPa) = 114.49329 70.81543 13.76638
#
# Poissons Ratio (x) = 0.25378 0.09378
# Poissons Ratio (y) = 0.41031 -0.06657
# Poissons Ratio (z) = 0.77996 -0.34243
#
# Static dielectric constant tensor:
#      x y z
#    x 1.741840 0.000000 0.036940 
#    y 0.000000 1.785810 0.000000 
#    z 0.036940 0.000000 1.741440 
# 
# From -- ./inp_files/101333.got.cif
#   From: 2010.05.17/outbox.cif.g08.bks.cpg/sg15_51_cif.got.tgz:101333.got - 2010.06.03 18:47:42.
