data_PCOD9256202
_publ_section_title
;
Structure prediction by ZEFSAII (Michael W. Deem and Ramdas Pophale) SiO2 
 PCOD9256202
Probable space group: C 2/C
;
_chemical_formula_sum "Si O2"
_cell_formula_units_Z 36
_cell_length_a 8.561174
_cell_length_b 18.239748
_cell_length_c 12.204723
_cell_angle_alpha 90.000000
_cell_angle_beta 80.837225
_cell_angle_gamma 90.000000
_cell_volume 1881.493828
_symmetry_space_group_name_H-M "C 2/C"
_symmetry_group_IT_number 15
_symmetry_cell_setting 'monoclinic'
loop_
_space_group_symop_operation_xyz
x,y,z
-x,y,1/2-z
-x,-y,-z
x,-y,1/2+z
1/2+x,1/2+y,z
1/2-x,1/2+y,1/2-z
1/2-x,1/2-y,-z
1/2+x,1/2-y,1/2+z
loop_
_atom_site_type_symbol
_atom_site_label
_atom_site_fract_x
_atom_site_fract_y
_atom_site_fract_z
Si Si1 0.201520 0.238006 0.829073
Si Si2 0.000000 0.174910 0.250000
Si Si3 0.918060 0.922105 0.140612
Si Si4 0.329602 0.579035 0.083248
Si Si5 0.875051 0.290833 0.909254
O O1 0.371443 0.274490 0.825749
O O2 0.186027 0.151413 0.847575
O O3 0.161003 0.257617 0.706907
O O4 0.057763 0.274437 0.912927
O O5 0.085054 0.123354 0.328593
O O6 0.000000 0.930246 0.250000
O O7 0.821083 0.994623 0.119126
O O8 0.058678 0.915044 0.035753
O O9 0.167722 0.623343 0.083369
O O10 0.750000 0.250000 0.000000
#
# Coordination Sequence:
#
# PCOD9256202 Si02
#       5
#     8   4   8   8   8
#     4  10  20  34  58  81 114 148 191 229 280 334
#     4  10  22  38  52  92 114 146 188 242 280 326
#     4  11  19  36  58  83 112 154 185 228 286 339
#     4  10  21  34  60  83 113 148 188 234 284 331
#     4  10  17  35  57  84 105 150 195 225 273 342
#
# _framework density 19.133734
#
# number of rings (size 3 to 8) (size 9 to 14) (size 15 to 20)
#    0.000    1.778    5.556    0.000    0.000    0.889 
#    0.000    4.444    0.000    2.667    0.000    0.000 
#    0.000    0.000    0.000    0.000    0.000    0.000 
#
# Total GULP energy -100452.915320 kJ/mol
# GULP energy per Si atom -5580.717518 kJ/mol
# Density = 1.909018 g / cm^3
# Si number density = 19.133734 Si / 1000 Ang^3
#
#
#
# Elastic Constant Matrix: (Units=GPa)
#
#
# Indices 1 2 3 4 5 6 
#
# 1 81.2424 56.2410 8.4851 0.0000 -29.9386 0.0000
# 2 56.2410 188.9063 25.8551 0.0000 -24.4408 0.0000
# 3 8.4851 25.8551 81.4868 0.0000 -14.0177 0.0000
# 4 0.0000 0.0000 0.0000 24.0709 0.0000 -15.4087
# 5 -29.9386 -24.4408 -14.0177 0.0000 23.9037 0.0000
# 6 0.0000 0.0000 0.0000 -15.4087 0.0000 14.5584
#
#
#
# Elastic Compliance Matrix: (Units=1/GPa)
#
#
# Indices 1 2 3 4 5 6 
#
# 1 0.026242 -0.004380 0.003938 0.000000 0.030699 0.000000
# 2 -0.004380 0.006900 -0.001627 0.000000 0.000615 0.000000
# 3 0.003938 -0.001627 0.014392 0.000000 0.011708 0.000000
# 4 0.000000 0.000000 0.000000 0.128829 0.000000 0.136354
# 5 0.030699 0.000615 0.011708 0.000000 0.087778 0.000000
# 6 0.000000 0.000000 0.000000 0.136354 0.000000 0.213008
#
#
# Mechanical properties :
#
#
# Convention : Reuss Voigt Hill
#
# Bulk Modulus (GPa) = 23.04367 59.19978 41.12172
# Shear Modulus (GPa) = 10.08565 29.91021 19.99793
#
# Velocity S-wave (km/s) = 2.29839 3.95805 3.23641
# Velocity P-wave (km/s) = 4.37185 7.20384 5.95854
#
# Compressibility (1/GPa) = 0.04339586
#
# Stress axis : x y z
#
# Youngs Moduli (GPa) = 38.10627 144.92896 69.48128
#
# Poissons Ratio (x) = 0.63480 -0.27362
# Poissons Ratio (y) = 0.16691 0.11308
# Poissons Ratio (z) = -0.15007 0.23587
#
# Static dielectric constant tensor:
#      x y z
#    x 1.689840 0.000000 0.007570 
#    y 0.000000 1.671900 0.000000 
#    z 0.007570 0.000000 1.684030 
# 
# From -- ./inp_files/76347.got.cif
#   From: 2010.05.17/outbox.cif.g08.bks.cpg/sg15_39_cif.got.tgz:76347.got - 2010.06.03 18:47:42.
