data_PCOD9256464
_publ_section_title
;
Structure prediction by ZEFSAII (Michael W. Deem and Ramdas Pophale) SiO2 
 PCOD9256464
Probable space group: C 2/C
;
_chemical_formula_sum "Si O2"
_cell_formula_units_Z 32
_cell_length_a 10.158524
_cell_length_b 12.406406
_cell_length_c 17.526524
_cell_angle_alpha 90.000000
_cell_angle_beta 145.893237
_cell_angle_gamma 90.000000
_cell_volume 1238.600921
_symmetry_space_group_name_H-M "C 2/C"
_symmetry_group_IT_number 15
_symmetry_cell_setting 'monoclinic'
loop_
_space_group_symop_operation_xyz
x,y,z
-x,y,1/2-z
-x,-y,-z
x,-y,1/2+z
1/2+x,1/2+y,z
1/2-x,1/2+y,1/2-z
1/2-x,1/2-y,-z
1/2+x,1/2-y,1/2+z
loop_
_atom_site_type_symbol
_atom_site_label
_atom_site_fract_x
_atom_site_fract_y
_atom_site_fract_z
Si Si1 0.231254 0.392134 0.825446
Si Si2 0.913045 0.854492 0.074093
Si Si3 0.933226 0.372281 0.304160
Si Si4 0.383812 0.588633 0.113557
O O1 0.118055 0.500190 0.734828
O O2 0.425836 0.367751 0.855597
O O3 0.000000 0.332223 0.750000
O O4 0.384582 0.402170 0.975375
O O5 0.185729 0.826337 0.213843
O O6 0.853709 0.957950 0.096798
O O7 0.750000 0.750000 0.000000
O O8 0.000000 0.335413 0.250000
O O9 0.136428 0.365027 0.464931
O O10 0.500000 0.612227 0.250000
#
# Coordination Sequence:
#
# PCOD9256464 Si02
#       4
#     8   8   8   8
#     4  10  19  37  68  98 135 190 239 292 350 433
#     4  11  22  37  65 111 151 186 240 311 368 423
#     4  10  17  39  72  98 135 202 248 279 359 446
#     4  11  22  39  70 110 141 187 255 298 345 441
#
# _framework density 25.835601
#
# number of rings (size 3 to 8) (size 9 to 14) (size 15 to 20)
#    0.000    1.500    7.500    1.500    0.000    5.000 
#    0.000    0.000    0.000    3.000   13.000    8.750 
#    0.000    0.000    0.000    0.000    0.000    0.000 
#
# Total GULP energy -89376.767034 kJ/mol
# GULP energy per Si atom -5586.047940 kJ/mol
# Density = 2.577680 g / cm^3
# Si number density = 25.835601 Si / 1000 Ang^3
#
#
#
# Elastic Constant Matrix: (Units=GPa)
#
#
# Indices 1 2 3 4 5 6 
#
# 1 126.1906 28.5815 100.2824 0.0001 30.2503 -0.0001
# 2 28.5815 144.3561 65.0152 0.0006 23.1456 0.0001
# 3 100.2824 65.0152 279.6371 0.0022 10.6548 0.0010
# 4 0.0001 0.0006 0.0022 1.2278 0.0010 30.5930
# 5 30.2503 23.1456 10.6548 0.0010 70.1980 0.0004
# 6 -0.0001 0.0001 0.0010 30.5930 0.0004 17.6375
#
#
#
# Elastic Compliance Matrix: (Units=1/GPa)
#
#
# Indices 1 2 3 4 5 6 
#
# 1 0.012474 0.000259 -0.004351 0.000000 -0.004801 0.000000
# 2 0.000259 0.008128 -0.001887 0.000000 -0.002505 0.000000
# 3 -0.004351 -0.001887 0.005512 0.000000 0.001661 0.000000
# 4 0.000000 0.000000 0.000000 -0.019291 0.000000 0.033461
# 5 -0.004801 -0.002505 0.001661 0.000000 0.016888 -0.000001
# 6 0.000000 0.000000 0.000000 0.033461 -0.000001 -0.001343
#
#
# Mechanical properties :
#
#
# Convention : Reuss Voigt Hill
#
# Bulk Modulus (GPa) = 70.63979 104.21577 87.42778
# Shear Modulus (GPa) = 128.06218 41.56631 84.81425
#
# Velocity S-wave (km/s) = 7.04810 4.01543 5.73583
# Velocity P-wave (km/s) = 9.67655 7.86917 8.81928
#
# Compressibility (1/GPa) = 0.01415633
#
# Stress axis : x y z
#
# Youngs Moduli (GPa) = 80.16602 123.03765 181.42721
#
# Poissons Ratio (x) = -0.03192 0.78936
# Poissons Ratio (y) = -0.02080 0.34240
# Poissons Ratio (z) = 0.34879 0.23220
#
# Static dielectric constant tensor:
#      x y z
#    x 1.990390 0.000000 0.007880 
#    y 0.000000 2.179740 0.000000 
#    z 0.007880 0.000000 2.025600 
# 
# From -- ./inp_files/198158.got.cif
#   From: 2010.05.17/outbox.cif.g08.bks.cpg/sg15_100_cif.got.tgz:198158.got - 2010.06.03 18:47:42.
