data_PCOD9256466
_publ_section_title
;
Structure prediction by ZEFSAII (Michael W. Deem and Ramdas Pophale) SiO2 
 PCOD9256466
Probable space group: C 2/C
;
_chemical_formula_sum "Si O2"
_cell_formula_units_Z 52
_cell_length_a 8.286708
_cell_length_b 25.062677
_cell_length_c 13.251070
_cell_angle_alpha 90.000000
_cell_angle_beta 49.178456
_cell_angle_gamma 90.000000
_cell_volume 2082.631693
_symmetry_space_group_name_H-M "C 2/C"
_symmetry_group_IT_number 15
_symmetry_cell_setting 'monoclinic'
loop_
_space_group_symop_operation_xyz
x,y,z
-x,y,1/2-z
-x,-y,-z
x,-y,1/2+z
1/2+x,1/2+y,z
1/2-x,1/2+y,1/2-z
1/2-x,1/2-y,-z
1/2+x,1/2-y,1/2+z
loop_
_atom_site_type_symbol
_atom_site_label
_atom_site_fract_x
_atom_site_fract_y
_atom_site_fract_z
Si Si1 0.421369 0.982560 0.643291
Si Si2 0.351982 0.832385 0.097861
Si Si3 0.761471 0.273816 0.643217
Si Si4 0.500000 0.509419 0.250000
Si Si5 0.668304 0.346665 0.399434
Si Si6 0.500000 0.075473 0.750000
Si Si7 0.500000 0.249880 0.250000
Si Si8 0.691043 0.422276 0.022147
O O1 0.615160 0.950531 0.613093
O O2 0.500000 0.000000 0.500000
O O3 0.384002 0.036382 0.720632
O O4 0.194535 0.956247 0.713708
O O5 0.268593 0.840245 0.245442
O O6 0.302933 0.886002 0.060068
O O7 0.183726 0.787564 0.125993
O O8 0.592053 0.813817 0.980640
O O9 0.500000 0.278567 0.750000
O O10 0.826605 0.214985 0.572603
O O11 0.867277 0.278126 0.713475
O O12 0.569647 0.469540 0.130796
O O13 0.834617 0.388159 0.378446
O O14 0.453112 0.380698 0.480376
#
# Coordination Sequence:
#
# PCOD9256466 Si02
#       8
#     8   8   8   4   8   4   4   8
#     4  10  23  38  69  96 133 169 224 292 344 404
#     4  11  20  40  70  93 134 182 229 279 342 412
#     4  11  24  41  64 103 141 181 231 294 343 414
#     4  10  17  40  62  91 121 166 218 272 339 408
#     4  11  21  38  69  98 128 179 233 272 338 418
#     4  12  22  44  69 103 129 174 241 276 344 434
#     4  10  21  38  67  94 126 188 231 276 347 412
#     4  11  18  38  64  92 124 174 225 274 339 404
#
# _framework density 24.968409000000001
#
# number of rings (size 3 to 8) (size 9 to 14) (size 15 to 20)
#    0.000    1.231    6.923    1.385    0.000    3.077 
#    1.385    0.769    0.000    0.000    0.000    0.000 
#    0.000    0.000    0.000    0.000    0.000    0.000 
#
# Total GULP energy -145157.986198 kJ/mol
# GULP energy per Si atom -5582.999469 kJ/mol
# Density = 2.491158 g / cm^3
# Si number density = 24.968409 Si / 1000 Ang^3
#
#
#
# Elastic Constant Matrix: (Units=GPa)
#
#
# Indices 1 2 3 4 5 6 
#
# 1 119.1445 20.9659 44.6457 0.0000 -42.5840 0.0000
# 2 20.9659 29.6447 27.5498 0.0000 -12.0378 0.0000
# 3 44.6457 27.5498 112.7699 0.0000 -36.5931 0.0000
# 4 0.0000 0.0000 0.0000 48.3135 0.0000 -33.2763
# 5 -42.5840 -12.0378 -36.5931 0.0000 58.0739 0.0000
# 6 0.0000 0.0000 0.0000 -33.2763 0.0000 109.5176
#
#
#
# Elastic Compliance Matrix: (Units=1/GPa)
#
#
# Indices 1 2 3 4 5 6 
#
# 1 0.012279 -0.004421 -0.001454 0.000000 0.007171 0.000000
# 2 -0.004421 0.045632 -0.009277 0.000000 0.000371 0.000000
# 3 -0.001454 -0.009277 0.013500 0.000000 0.005517 0.000000
# 4 0.000000 0.000000 0.000000 0.026176 0.000000 0.007953
# 5 0.007171 0.000371 0.005517 0.000000 0.026031 0.000000
# 6 0.000000 0.000000 0.000000 0.007953 0.000000 0.011548
#
#
# Mechanical properties :
#
#
# Convention : Reuss Voigt Hill
#
# Bulk Modulus (GPa) = 24.32706 49.76466 37.04586
# Shear Modulus (GPa) = 27.90606 54.40752 41.15679
#
# Velocity S-wave (km/s) = 3.34676 4.67310 4.06440
# Velocity P-wave (km/s) = 4.96978 7.00653 6.07413
#
# Compressibility (1/GPa) = 0.04110649
#
# Stress axis : x y z
#
# Youngs Moduli (GPa) = 81.43879 21.91460 74.07366
#
# Poissons Ratio (x) = 0.09688 0.10773
# Poissons Ratio (y) = 0.36002 0.68719
# Poissons Ratio (z) = 0.11844 0.20331
#
# Static dielectric constant tensor:
#      x y z
#    x 2.153820 0.000000 -0.037090 
#    y 0.000000 2.055510 0.000000 
#    z -0.037090 0.000000 1.994070 
# 
# From -- ./inp_files/193683.got.cif
#   From: 2010.05.17/outbox.cif.g08.bks.cpg/sg15_97_cif.got.tgz:193683.got - 2010.06.03 18:47:42.
