data_PCOD9256610
_publ_section_title
;
Structure prediction by ZEFSAII (Michael W. Deem and Ramdas Pophale) SiO2 
 PCOD9256610
Probable space group: C 2/C
;
_chemical_formula_sum "Si O2"
_cell_formula_units_Z 56
_cell_length_a 25.677295
_cell_length_b 9.006759
_cell_length_c 15.549337
_cell_angle_alpha 90.000000
_cell_angle_beta 137.437214
_cell_angle_gamma 90.000000
_cell_volume 2432.382266
_symmetry_space_group_name_H-M "C 2/C"
_symmetry_group_IT_number 15
_symmetry_cell_setting 'monoclinic'
loop_
_space_group_symop_operation_xyz
x,y,z
-x,y,1/2-z
-x,-y,-z
x,-y,1/2+z
1/2+x,1/2+y,z
1/2-x,1/2+y,1/2-z
1/2-x,1/2-y,-z
1/2+x,1/2-y,1/2+z
loop_
_atom_site_type_symbol
_atom_site_label
_atom_site_fract_x
_atom_site_fract_y
_atom_site_fract_z
Si Si1 0.279829 0.939291 0.946988
Si Si2 0.617098 0.529606 0.700114
Si Si3 0.994447 0.787778 0.150050
Si Si4 0.060040 0.690710 0.597357
Si Si5 0.442424 0.131031 0.602535
Si Si6 0.118065 0.055492 0.504286
Si Si7 0.780830 0.398813 0.148280
O O1 0.362970 0.961009 0.005447
O O2 0.290835 0.950994 0.062673
O O3 0.207850 0.035957 0.829058
O O4 0.248370 0.772429 0.890308
O O5 0.571373 0.627857 0.712598
O O6 0.583938 0.359946 0.656918
O O7 0.602965 0.585669 0.586411
O O8 0.000000 0.714558 0.250000
O O9 0.967409 0.696802 0.034110
O O10 0.931288 0.916565 0.084026
O O11 0.137948 0.597239 0.705505
O O12 0.992938 0.635083 0.578108
O O13 0.500000 0.097975 0.750000
O O14 0.410254 0.299155 0.580024
O O15 0.208180 0.020928 0.602391
#
# Coordination Sequence:
#
# PCOD9256610 Si02
#       7
#     8   8   8   8   8   8   8
#     4   9  18  26  43  71  98 126 155 194 239 292
#     4  10  18  30  43  71 102 124 159 194 241 290
#     4  11  19  29  48  72 100 130 158 195 240 288
#     4  10  18  30  45  73  99 122 164 198 237 285
#     4  11  17  27  47  73  98 124 154 197 244 283
#     4  10  18  28  46  68  99 130 149 193 246 284
#     4   9  17  28  43  69  97 125 156 193 245 282
#
# _framework density 23.022696
#
# number of rings (size 3 to 8) (size 9 to 14) (size 15 to 20)
#    0.000    2.000    4.286    2.143    2.000    0.000 
#    0.000    0.000    0.000    1.714    3.714    0.000 
#    0.000    0.000    0.000    0.000    0.000    0.000 
#
# Total GULP energy -156599.006477 kJ/mol
# GULP energy per Si atom -5592.821660 kJ/mol
# Density = 2.297030 g / cm^3
# Si number density = 23.022696 Si / 1000 Ang^3
#
#
#
# Elastic Constant Matrix: (Units=GPa)
#
#
# Indices 1 2 3 4 5 6 
#
# 1 165.8128 23.9652 88.9815 0.0000 23.3414 0.0000
# 2 23.9652 49.9318 35.7078 0.0000 9.9042 0.0000
# 3 88.9815 35.7078 180.9722 0.0000 14.1101 0.0000
# 4 0.0000 0.0000 0.0000 -29.9425 0.0000 -20.1361
# 5 23.3414 9.9042 14.1101 0.0000 53.8170 0.0000
# 6 0.0000 0.0000 0.0000 -20.1361 0.0000 -36.2999
#
#
#
# Elastic Compliance Matrix: (Units=1/GPa)
#
#
# Indices 1 2 3 4 5 6 
#
# 1 0.008581 -0.000858 -0.003851 0.000000 -0.002554 0.000000
# 2 -0.000858 0.023938 -0.004070 0.000000 -0.002966 0.000000
# 3 -0.003851 -0.004070 0.008201 0.000000 0.000269 0.000000
# 4 0.000000 0.000000 0.000000 -0.053269 0.000000 0.029549
# 5 -0.002554 -0.002966 0.000269 0.000000 0.020165 0.000000
# 6 0.000000 0.000000 0.000000 0.029549 0.000000 -0.043940
#
#
# Mechanical properties :
#
#
# Convention : Reuss Voigt Hill
#
# Bulk Modulus (GPa) = 43.17321 77.11397 60.14359
# Shear Modulus (GPa) = -452.68315 14.05241 -219.31537
#
# Velocity S-wave (km/s) = -14.03751 2.47325 -9.77074
# Velocity P-wave (km/s) = 15.61865 6.45937 10.05532
#
# Compressibility (1/GPa) = 0.02316251
#
# Stress axis : x y z
#
# Youngs Moduli (GPa) = 116.53833 41.77426 121.93471
#
# Poissons Ratio (x) = 0.03585 0.46953
# Poissons Ratio (y) = 0.10001 0.49628
# Poissons Ratio (z) = 0.44875 0.17002
#
# Static dielectric constant tensor:
#      x y z
#    x 1.846330 0.000000 0.009900 
#    y 0.000000 1.869260 0.000000 
#    z 0.009900 0.000000 1.834460 
# 
# From -- ./inp_files/173492.got.cif
#   From: 2010.05.17/outbox.cif.g08.bks.cpg/sg15_87_cif.got.tgz:173492.got - 2010.06.03 18:47:42.
