data_PCOD9256730
_publ_section_title
;
Structure prediction by ZEFSAII (Michael W. Deem and Ramdas Pophale) SiO2 
 PCOD9256730
Probable space group: C 2/C
;
_chemical_formula_sum "Si O2"
_cell_formula_units_Z 64
_cell_length_a 24.500821
_cell_length_b 16.344394
_cell_length_c 28.134157
_cell_angle_alpha 90.000000
_cell_angle_beta 19.054154
_cell_angle_gamma 90.000000
_cell_volume 3678.032639
_symmetry_space_group_name_H-M "C 2/C"
_symmetry_group_IT_number 15
_symmetry_cell_setting 'monoclinic'
loop_
_space_group_symop_operation_xyz
x,y,z
-x,y,1/2-z
-x,-y,-z
x,-y,1/2+z
1/2+x,1/2+y,z
1/2-x,1/2+y,1/2-z
1/2-x,1/2-y,-z
1/2+x,1/2-y,1/2+z
loop_
_atom_site_type_symbol
_atom_site_label
_atom_site_fract_x
_atom_site_fract_y
_atom_site_fract_z
Si Si1 0.584362 0.753237 0.885064
Si Si2 0.768662 0.518696 0.799104
Si Si3 0.857279 0.184039 0.328029
Si Si4 0.971222 0.673311 0.664252
Si Si5 0.942144 0.578331 0.076812
Si Si6 0.456496 0.288368 0.587265
Si Si7 0.469909 0.424413 0.091896
Si Si8 0.380571 0.578120 0.217178
O O1 0.471411 0.835413 0.982060
O O2 0.770042 0.783763 0.718025
O O3 0.529971 0.672949 0.901021
O O4 0.583783 0.721933 0.939999
O O5 0.878449 0.586460 0.735848
O O6 0.887301 0.458198 0.672037
O O7 0.655199 0.556911 0.849591
O O8 0.646776 0.462621 0.930900
O O9 0.883725 0.267647 0.275294
O O10 0.674023 0.172989 0.502645
O O11 0.887550 0.112612 0.264050
O O12 0.000000 0.182416 0.250000
O O13 0.959270 0.715462 0.622331
O O14 0.795634 0.603947 0.160686
O O15 0.000000 0.500000 0.000000
O O16 0.495049 0.369924 0.585980
O O17 0.406644 0.482315 0.186812
#
# Coordination Sequence:
#
# PCOD9256730 Si02
#       8
#     8   8   8   8   8   8   8   8
#     4  11  19  29  45  71 107 144 184 216 256 317
#     4  10  19  33  48  73 110 142 188 221 270 332
#     4  11  24  39  56  81 110 144 198 241 283 332
#     4  11  21  35  57  77 107 149 186 233 284 329
#     4  10  19  30  45  74 108 146 180 218 267 333
#     4  10  18  29  45  70  98 141 179 215 256 319
#     4  10  19  30  49  75 102 149 186 223 265 332
#     4   9  20  32  49  69 103 141 184 223 268 323
#
# _framework density 17.400606
#
# number of rings (size 3 to 8) (size 9 to 14) (size 15 to 20)
#    0.000    1.750    1.250    7.125    5.250    0.000 
#    0.000    0.000    0.000    0.000    0.000    0.000 
#    0.000    5.000    0.000    0.000    0.000    0.000 
#
# Total GULP energy -178146.149976 kJ/mol
# GULP energy per Si atom -5567.067187 kJ/mol
# Density = 1.736100 g / cm^3
# Si number density = 17.400606 Si / 1000 Ang^3
#
#
#
# Elastic Constant Matrix: (Units=GPa)
#
#
# Indices 1 2 3 4 5 6 
#
# 1 49.8092 26.1566 16.3548 -0.0022 -5.5883 0.0018
# 2 26.1566 153.2632 28.6823 -0.0058 0.4270 -0.0025
# 3 16.3548 28.6823 66.6821 -0.0062 -7.2158 -0.0012
# 4 -0.0022 -0.0058 -0.0062 23.0297 -0.0008 1.7944
# 5 -5.5883 0.4270 -7.2158 -0.0008 16.3327 -0.0022
# 6 0.0018 -0.0025 -0.0012 1.7944 -0.0022 13.9783
#
#
#
# Elastic Compliance Matrix: (Units=1/GPa)
#
#
# Indices 1 2 3 4 5 6 
#
# 1 0.023804 -0.003396 -0.003662 0.000001 0.006616 -0.000003
# 2 -0.003396 0.007621 -0.002723 0.000001 -0.002564 0.000001
# 3 -0.003662 -0.002723 0.017788 0.000004 0.006677 0.000002
# 4 0.000001 0.000001 0.000004 0.043861 0.000003 -0.005630
# 5 0.006616 -0.002564 0.006677 0.000003 0.066507 0.000009
# 6 -0.000003 0.000001 0.000002 -0.005630 0.000009 0.072262
#
#
# Mechanical properties :
#
#
# Convention : Reuss Voigt Hill
#
# Bulk Modulus (GPa) = 33.72315 45.79355 39.75835
# Shear Modulus (GPa) = 19.13589 23.90553 21.52071
#
# Velocity S-wave (km/s) = 3.31981 3.71055 3.52060
# Velocity P-wave (km/s) = 5.84101 6.68819 6.27890
#
# Compressibility (1/GPa) = 0.02965322
#
# Stress axis : x y z
#
# Youngs Moduli (GPa) = 42.00898 131.21783 56.21676
#
# Poissons Ratio (x) = 0.44558 0.20586
# Poissons Ratio (y) = 0.14265 0.15306
# Poissons Ratio (z) = 0.15383 0.35726
#
# Static dielectric constant tensor:
#      x y z
#    x 1.545780 0.000000 0.004400 
#    y 0.000000 1.724150 0.000020 
#    z 0.004400 0.000020 1.743900 
# 
# From -- ./inp_files/302424.got.cif
#   From: 2010.05.17/outbox.cif.g08.bks.cpg/sg15_152_cif.got.tgz:302424.got - 2010.06.03 18:47:42.
