data_PCOD9256623
_publ_section_title
;
Structure prediction by ZEFSAII (Michael W. Deem and Ramdas Pophale) SiO2 
 PCOD9256623
Probable space group: C 2/C
;
_chemical_formula_sum "Si O2"
_cell_formula_units_Z 56
_cell_length_a 9.792654
_cell_length_b 13.600401
_cell_length_c 22.205509
_cell_angle_alpha 90.000000
_cell_angle_beta 43.407765
_cell_angle_gamma 90.000000
_cell_volume 2032.296842
_symmetry_space_group_name_H-M "C 2/C"
_symmetry_group_IT_number 15
_symmetry_cell_setting 'monoclinic'
loop_
_space_group_symop_operation_xyz
x,y,z
-x,y,1/2-z
-x,-y,-z
x,-y,1/2+z
1/2+x,1/2+y,z
1/2-x,1/2+y,1/2-z
1/2-x,1/2-y,-z
1/2+x,1/2-y,1/2+z
loop_
_atom_site_type_symbol
_atom_site_label
_atom_site_fract_x
_atom_site_fract_y
_atom_site_fract_z
Si Si1 0.747261 0.453118 0.142813
Si Si2 0.709850 0.454788 0.283429
Si Si3 0.279526 0.043344 0.015293
Si Si4 0.724359 0.280029 0.868388
Si Si5 0.165732 0.737544 0.431755
Si Si6 0.127939 0.280734 0.805295
Si Si7 0.686305 0.949204 0.125452
O O1 0.663626 0.495717 0.231650
O O2 0.671477 0.480600 0.100746
O O3 0.733592 0.336507 0.152348
O O4 0.982703 0.474699 0.063065
O O5 0.653556 0.338264 0.301508
O O6 0.687495 0.489521 0.359287
O O7 0.952238 0.467030 0.203227
O O8 0.259111 0.154386 0.046326
O O9 0.221111 0.019467 0.966990
O O10 0.725988 0.313393 0.797131
O O11 0.915276 0.314065 0.845901
O O12 0.532828 0.281040 0.972950
O O13 0.140562 0.691534 0.372422
O O14 0.307386 0.829970 0.378408
#
# Coordination Sequence:
#
# PCOD9256623 Si02
#       7
#     8   8   8   8   8   8   8
#     4   8  15  28  45  65  88 119 157 189 227 273
#     4   8  15  28  47  67  91 123 161 199 228 277
#     4   9  16  26  44  69  94 118 149 190 233 285
#     4   9  17  30  49  67  89 123 162 200 230 277
#     4  10  18  28  47  73  99 124 153 192 244 287
#     4   9  17  29  47  67  89 122 163 199 231 275
#     4   9  16  27  46  72  96 124 157 192 241 286
#
# _framework density 27.555031
#
# number of rings (size 3 to 8) (size 9 to 14) (size 15 to 20)
#    0.000    3.143    0.000    1.714    0.000    0.000 
#    0.000    0.000    0.000   39.429    0.000    0.000 
#    0.000    0.000    0.000    0.000    0.000    0.000 
#
# Total GULP energy -156430.988577 kJ/mol
# GULP energy per Si atom -5586.821021 kJ/mol
# Density = 2.749231 g / cm^3
# Si number density = 27.555031 Si / 1000 Ang^3
#
#
#
# Elastic Constant Matrix: (Units=GPa)
#
#
# Indices 1 2 3 4 5 6 
#
# 1 122.1867 -5.2159 87.1123 0.0000 49.4396 0.0000
# 2 -5.2159 66.0023 28.0355 0.0001 -1.5998 0.0000
# 3 87.1123 28.0355 219.1152 0.0001 59.4433 0.0000
# 4 0.0000 0.0001 0.0001 38.5697 0.0001 7.3457
# 5 49.4396 -1.5998 59.4433 0.0001 69.3298 0.0000
# 6 0.0000 0.0000 0.0000 7.3457 0.0000 8.7784
#
#
#
# Elastic Compliance Matrix: (Units=1/GPa)
#
#
# Indices 1 2 3 4 5 6 
#
# 1 0.013753 0.002690 -0.004129 0.000000 -0.006206 0.000000
# 2 0.002690 0.016967 -0.003683 0.000000 0.001631 0.000000
# 3 -0.004129 -0.003683 0.007689 0.000000 -0.003734 0.000000
# 4 0.000000 0.000000 0.000000 0.030842 0.000000 -0.025808
# 5 -0.006206 0.001631 -0.003734 0.000000 0.022088 0.000000
# 6 0.000000 0.000000 0.000000 -0.025808 0.000000 0.135512
#
#
# Mechanical properties :
#
#
# Convention : Reuss Voigt Hill
#
# Bulk Modulus (GPa) = 35.50177 69.68535 52.59356
# Shear Modulus (GPa) = 20.28528 43.16042 31.72285
#
# Velocity S-wave (km/s) = 2.71620 3.96199 3.39669
# Velocity P-wave (km/s) = 4.76958 6.80252 5.87465
#
# Compressibility (1/GPa) = 0.02816761
#
# Stress axis : x y z
#
# Youngs Moduli (GPa) = 72.70906 58.93629 130.05116
#
# Poissons Ratio (x) = -0.15855 0.53692
# Poissons Ratio (y) = -0.19560 0.47897
# Poissons Ratio (z) = 0.30018 0.21706
#
# Static dielectric constant tensor:
#      x y z
#    x 2.259280 0.000000 0.046190 
#    y 0.000000 2.163140 0.000000 
#    z 0.046190 0.000000 2.152200 
# 
# From -- ./inp_files/239509.got.cif
#   From: 2010.05.17/outbox.cif.g08.bks.cpg/sg15_120_cif.got.tgz:239509.got - 2010.06.03 18:47:42.
