data_PCOD9256680
_publ_section_title
;
Structure prediction by ZEFSAII (Michael W. Deem and Ramdas Pophale) SiO2 
 PCOD9256680
Probable space group: C 2/C
;
_chemical_formula_sum "Si O2"
_cell_formula_units_Z 60
_cell_length_a 7.515226
_cell_length_b 28.619277
_cell_length_c 13.036017
_cell_angle_alpha 90.000000
_cell_angle_beta 124.785263
_cell_angle_gamma 90.000000
_cell_volume 2302.742179
_symmetry_space_group_name_H-M "C 2/C"
_symmetry_group_IT_number 15
_symmetry_cell_setting 'monoclinic'
loop_
_space_group_symop_operation_xyz
x,y,z
-x,y,1/2-z
-x,-y,-z
x,-y,1/2+z
1/2+x,1/2+y,z
1/2-x,1/2+y,1/2-z
1/2-x,1/2-y,-z
1/2+x,1/2-y,1/2+z
loop_
_atom_site_type_symbol
_atom_site_label
_atom_site_fract_x
_atom_site_fract_y
_atom_site_fract_z
Si Si1 0.706462 0.100969 0.882007
Si Si2 0.089775 0.809669 0.022492
Si Si3 0.803261 0.138903 0.265242
Si Si4 0.516011 0.942270 0.625545
Si Si5 0.339586 0.121707 0.912162
Si Si6 0.541279 0.794147 0.529048
Si Si7 0.000000 0.048219 0.750000
Si Si8 0.704371 0.482628 0.974393
O O1 0.500000 0.084070 0.750000
O O2 0.577916 0.117201 0.942085
O O3 0.814600 0.148474 0.875567
O O4 0.861613 0.061275 0.978187
O O5 0.283196 0.796506 0.006220
O O6 0.904502 0.835122 0.895598
O O7 0.016212 0.760516 0.044869
O O8 0.682183 0.089519 0.244511
O O9 0.645335 0.176002 0.156300
O O10 0.000000 0.129468 0.250000
O O11 0.352313 0.904086 0.524698
O O12 0.658038 0.963434 0.577787
O O13 0.362933 0.986215 0.598730
O O14 0.192083 0.085565 0.801385
O O15 0.325637 0.177126 0.923242
O O16 0.966304 0.014915 0.641337
#
# Coordination Sequence:
#
# PCOD9256680 Si02
#       8
#     8   8   8   8   8   8   4   8
#     4  10  20  33  43  64 105 136 154 189 233 296
#     4   9  17  26  43  67  87 127 158 180 242 291
#     4   9  15  24  42  66  93 115 151 200 242 286
#     4   8  15  27  43  66  93 118 154 213 244 265
#     4   8  16  31  46  71  96 120 158 202 251 275
#     4   8  15  27  42  66  97 116 146 199 249 288
#     4  10  18  28  54  76  92 120 164 218 236 276
#     4   9  17  28  45  68  90 127 163 194 248 266
#
# _framework density 26.055890000000002
#
# number of rings (size 3 to 8) (size 9 to 14) (size 15 to 20)
#    0.000    3.200    0.000    3.200    2.800    3.733 
#    0.000    0.667    0.000    0.000    0.000   14.933 
#    0.000    0.000    0.000    0.000    0.000    0.000 
#
# Total GULP energy -167253.037892 kJ/mol
# GULP energy per Si atom -5575.101263 kJ/mol
# Density = 2.599659 g / cm^3
# Si number density = 26.055890 Si / 1000 Ang^3
#
#
#
# Elastic Constant Matrix: (Units=GPa)
#
#
# Indices 1 2 3 4 5 6 
#
# 1 56.6078 38.8263 5.7497 0.0000 1.1856 0.0000
# 2 38.8263 228.3620 83.9050 0.0000 20.4616 0.0000
# 3 5.7497 83.9050 105.1369 0.0000 14.8142 0.0000
# 4 0.0000 0.0000 0.0000 16.0419 0.0000 -0.8351
# 5 1.1856 20.4616 14.8142 0.0000 21.6886 0.0000
# 6 0.0000 0.0000 0.0000 -0.8351 0.0000 17.1531
#
#
#
# Elastic Compliance Matrix: (Units=1/GPa)
#
#
# Indices 1 2 3 4 5 6 
#
# 1 0.020442 -0.004420 0.002190 0.000000 0.001556 0.000000
# 2 -0.004420 0.007301 -0.005143 0.000000 -0.003133 0.000000
# 3 0.002190 -0.005143 0.014196 0.000000 -0.004964 0.000000
# 4 0.000000 0.000000 0.000000 0.062495 0.000000 0.003042
# 5 0.001556 -0.003133 -0.004964 0.000000 0.052368 0.000000
# 6 0.000000 0.000000 0.000000 0.003042 0.000000 0.058446
#
#
# Mechanical properties :
#
#
# Convention : Reuss Voigt Hill
#
# Bulk Modulus (GPa) = 36.77530 71.89652 54.33591
# Shear Modulus (GPa) = 20.91537 28.41844 24.66691
#
# Velocity S-wave (km/s) = 2.83629 3.30612 3.08017
# Velocity P-wave (km/s) = 4.98705 6.49823 5.79214
#
# Compressibility (1/GPa) = 0.02719216
#
# Stress axis : x y z
#
# Youngs Moduli (GPa) = 48.91963 136.96836 70.44375
#
# Poissons Ratio (x) = 0.60534 -0.15426
# Poissons Ratio (y) = 0.21620 0.36232
# Poissons Ratio (z) = -0.10713 0.70448
#
# Static dielectric constant tensor:
#      x y z
#    x 2.145220 0.000000 -0.021470 
#    y 0.000000 2.077200 0.000000 
#    z -0.021470 0.000000 2.132180 
# 
# From -- ./inp_files/201129.got.cif
#   From: 2010.05.17/outbox.cif.g08.bks.cpg/sg15_101_cif.got.tgz:201129.got - 2010.06.03 18:47:42.
