data_PCOD9256512
_publ_section_title
;
Structure prediction by ZEFSAII (Michael W. Deem and Ramdas Pophale) SiO2 
 PCOD9256512
Probable space group: C 2/C
;
_chemical_formula_sum "Si O2"
_cell_formula_units_Z 48
_cell_length_a 20.261256
_cell_length_b 15.065384
_cell_length_c 8.761719
_cell_angle_alpha 90.000000
_cell_angle_beta 81.922094
_cell_angle_gamma 90.000000
_cell_volume 2647.922467
_symmetry_space_group_name_H-M "C 2/C"
_symmetry_group_IT_number 15
_symmetry_cell_setting 'monoclinic'
loop_
_space_group_symop_operation_xyz
x,y,z
-x,y,1/2-z
-x,-y,-z
x,-y,1/2+z
1/2+x,1/2+y,z
1/2-x,1/2+y,1/2-z
1/2-x,1/2-y,-z
1/2+x,1/2-y,1/2+z
loop_
_atom_site_type_symbol
_atom_site_label
_atom_site_fract_x
_atom_site_fract_y
_atom_site_fract_z
Si Si1 0.922627 0.827996 0.624022
Si Si2 0.709552 0.447610 0.191825
Si Si3 0.935073 0.198396 0.475531
Si Si4 0.064882 0.034281 0.821080
Si Si5 0.294451 0.267324 0.135781
Si Si6 0.273050 0.628137 0.132049
O O1 0.923050 0.795303 0.799021
O O2 0.846802 0.827279 0.591861
O O3 0.986248 0.781921 0.522062
O O4 0.939897 0.932532 0.629630
O O5 0.629674 0.452651 0.195556
O O6 0.718940 0.369093 0.310950
O O7 0.726197 0.544784 0.250850
O O8 0.743469 0.415471 0.025350
O O9 0.926146 0.097308 0.536576
O O10 0.873121 0.246286 0.576280
O O11 0.000000 0.061486 0.750000
O O12 0.272904 0.203238 0.280385
O O13 0.250000 0.250000 0.000000
#
# Coordination Sequence:
#
# PCOD9256512 Si02
#       6
#     8   8   8   8   8   8
#     4  10  19  27  49  70 106 136 177 204 259 311
#     4  10  23  33  53  79 105 141 183 211 261 317
#     4  10  19  30  42  73 100 139 176 207 252 313
#     4  10  18  26  46  70 108 138 167 204 253 312
#     4  11  21  36  52  73 109 143 180 219 261 306
#     4  11  21  36  54  76 110 143 176 221 260 312
#
# _framework density 18.127419
#
# number of rings (size 3 to 8) (size 9 to 14) (size 15 to 20)
#    0.000    1.667    3.333    3.000   11.667    0.000 
#    0.000    0.000    0.000    0.000    0.000    1.167 
#    0.000    5.333    0.000    3.000    0.000    0.000 
#
# Total GULP energy -133832.067119 kJ/mol
# GULP energy per Si atom -5576.336130 kJ/mol
# Density = 1.808616 g / cm^3
# Si number density = 18.127419 Si / 1000 Ang^3
#
#
#
# Elastic Constant Matrix: (Units=GPa)
#
#
# Indices 1 2 3 4 5 6 
#
# 1 74.3207 30.9742 32.3824 0.0000 -22.4263 0.0000
# 2 30.9742 42.6437 4.1242 0.0000 -14.3053 0.0000
# 3 32.3824 4.1242 58.0004 0.0000 -22.6244 0.0000
# 4 0.0000 0.0000 0.0000 28.3675 0.0000 -4.1154
# 5 -22.4263 -14.3053 -22.6244 0.0000 34.5096 0.0000
# 6 0.0000 0.0000 0.0000 -4.1154 0.0000 23.3667
#
#
#
# Elastic Compliance Matrix: (Units=1/GPa)
#
#
# Indices 1 2 3 4 5 6 
#
# 1 0.027200 -0.017968 -0.013327 0.000000 0.001491 0.000000
# 2 -0.017968 0.039590 0.012178 0.000000 0.012718 0.000000
# 3 -0.013327 0.012178 0.030106 0.000000 0.016125 0.000000
# 4 0.000000 0.000000 0.000000 0.036176 0.000000 0.006371
# 5 0.001491 0.012718 0.016125 0.000000 0.045790 0.000000
# 6 0.000000 0.000000 0.000000 0.006371 0.000000 0.043918
#
#
# Mechanical properties :
#
#
# Convention : Reuss Voigt Hill
#
# Bulk Modulus (GPa) = 17.04702 34.43626 25.74164
# Shear Modulus (GPa) = 17.82104 24.41436 21.11770
#
# Velocity S-wave (km/s) = 3.13884 3.67389 3.41685
# Velocity P-wave (km/s) = 4.74983 6.08561 5.45873
#
# Compressibility (1/GPa) = 0.05866129
#
# Stress axis : x y z
#
# Youngs Moduli (GPa) = 36.76457 25.25908 33.21625
#
# Poissons Ratio (x) = 0.45385 0.44267
# Poissons Ratio (y) = 0.66058 -0.40449
# Poissons Ratio (z) = 0.48996 -0.30760
#
# Static dielectric constant tensor:
#      x y z
#    x 1.676480 0.000000 -0.010240 
#    y 0.000000 1.600150 0.000000 
#    z -0.010240 0.000000 1.695320 
# 
# From -- ./inp_files/55235.got.cif
#   From: 2010.05.17/outbox.cif.g08.bks.cpg/sg15_28_cif.got.tgz:55235.got - 2010.06.03 18:47:42.
