data_PCOD9256748
_publ_section_title
;
Structure prediction by ZEFSAII (Michael W. Deem and Ramdas Pophale) SiO2 
 PCOD9256748
Probable space group: C 2/C
;
_chemical_formula_sum "Si O2"
_cell_formula_units_Z 56
_cell_length_a 20.442391
_cell_length_b 19.862061
_cell_length_c 14.551291
_cell_angle_alpha 90.000000
_cell_angle_beta 150.054075
_cell_angle_gamma 90.000000
_cell_volume 2949.285546
_symmetry_space_group_name_H-M "C 2/C"
_symmetry_group_IT_number 15
_symmetry_cell_setting 'monoclinic'
loop_
_space_group_symop_operation_xyz
x,y,z
-x,y,1/2-z
-x,-y,-z
x,-y,1/2+z
1/2+x,1/2+y,z
1/2-x,1/2+y,1/2-z
1/2-x,1/2-y,-z
1/2+x,1/2-y,1/2+z
loop_
_atom_site_type_symbol
_atom_site_label
_atom_site_fract_x
_atom_site_fract_y
_atom_site_fract_z
Si Si1 0.000000 0.720590 0.750000
Si Si2 0.358517 0.464525 0.943222
Si Si3 0.348948 0.880473 0.180584
Si Si4 0.500000 0.552220 0.250000
Si Si5 0.626003 0.582696 0.693367
Si Si6 0.856760 0.489018 0.564701
Si Si7 0.581690 0.059676 0.051568
Si Si8 0.091161 0.159409 0.480532
O O1 0.116220 0.673074 0.855657
O O2 0.956432 0.769223 0.613975
O O3 0.359200 0.523387 0.865933
O O4 0.217541 0.429046 0.770624
O O5 0.392102 0.501926 0.078790
O O6 0.485557 0.421495 0.071253
O O7 0.340585 0.954342 0.123850
O O8 0.474704 0.883084 0.401794
O O9 0.219790 0.860894 0.078563
O O10 0.481305 0.604102 0.312619
O O11 0.625238 0.648617 0.628141
O O12 0.742072 0.564304 0.905135
O O13 0.871699 0.534222 0.491236
O O14 0.000000 0.455714 0.750000
O O15 0.500000 0.000000 0.000000
#
# Coordination Sequence:
#
# PCOD9256748 Si02
#       8
#     4   8   8   4   8   8   8   8
#     4  11  22  36  48  76 102 148 175 210 252 305
#     4   9  17  28  45  70 101 135 165 213 270 313
#     4  11  19  36  49  74 106 136 178 214 259 314
#     4   9  16  30  46  76 102 136 173 206 260 315
#     4   9  17  31  46  72 102 136 172 214 263 309
#     4   9  17  29  50  73 102 132 162 216 269 310
#     4  10  18  29  47  70 100 133 165 212 265 312
#     4  10  21  33  51  70 103 146 180 211 248 319
#
# _framework density 18.987649999999999
#
# number of rings (size 3 to 8) (size 9 to 14) (size 15 to 20)
#    0.000    2.286    2.143    3.857    0.000    4.571 
#    2.571    0.000    0.000    0.000    0.000    0.000 
#    2.143    7.714    0.000    0.000    0.000    0.000 
#
# Total GULP energy -155888.815297 kJ/mol
# GULP energy per Si atom -5567.457689 kJ/mol
# Density = 1.894443 g / cm^3
# Si number density = 18.987650 Si / 1000 Ang^3
#
#
#
# Elastic Constant Matrix: (Units=GPa)
#
#
# Indices 1 2 3 4 5 6 
#
# 1 63.1172 28.5788 31.7273 0.0000 18.6107 0.0000
# 2 28.5788 53.0840 37.5654 0.0000 -2.2431 0.0000
# 3 31.7273 37.5654 148.7597 0.0000 10.1870 0.0000
# 4 0.0000 0.0000 0.0000 22.3533 0.0000 -6.0519
# 5 18.6107 -2.2431 10.1870 0.0000 25.0411 0.0000
# 6 0.0000 0.0000 0.0000 -6.0519 0.0000 23.4925
#
#
#
# Elastic Compliance Matrix: (Units=1/GPa)
#
#
# Indices 1 2 3 4 5 6 
#
# 1 0.031302 -0.017483 -0.000577 0.000000 -0.024595 0.000000
# 2 -0.017483 0.033214 -0.005917 0.000000 0.018376 0.000000
# 3 -0.000577 -0.005917 0.008586 0.000000 -0.003594 0.000000
# 4 0.000000 0.000000 0.000000 0.048090 0.000000 0.012388
# 5 -0.024595 0.018376 -0.003594 0.000000 0.061322 0.000000
# 6 0.000000 0.000000 0.000000 0.012388 0.000000 0.045758
#
#
# Mechanical properties :
#
#
# Convention : Reuss Voigt Hill
#
# Bulk Modulus (GPa) = 39.76496 51.18931 45.47714
# Shear Modulus (GPa) = 17.56811 25.31667 21.44239
#
# Velocity S-wave (km/s) = 3.04507 3.65543 3.36412
# Velocity P-wave (km/s) = 5.77506 6.69582 6.25241
#
# Compressibility (1/GPa) = 0.02514777
#
# Stress axis : x y z
#
# Youngs Moduli (GPa) = 31.94729 30.10788 116.47453
#
# Poissons Ratio (x) = 0.52637 0.06719
# Poissons Ratio (y) = 0.55853 0.68917
# Poissons Ratio (z) = 0.01843 0.17815
#
# Static dielectric constant tensor:
#      x y z
#    x 1.718880 0.000000 0.003630 
#    y 0.000000 1.650440 0.000000 
#    z 0.003630 0.000000 1.778280 
# 
# From -- ./inp_files/169217.got.cif
#   From: 2010.05.17/outbox.cif.g08.bks.cpg/sg15_85_cif.got.tgz:169217.got - 2010.06.03 18:47:42.
