data_PCOD9256283
_publ_section_title
;
Structure prediction by ZEFSAII (Michael W. Deem and Ramdas Pophale) SiO2 
 PCOD9256283
Probable space group: C 2/C
;
_chemical_formula_sum "Si O2"
_cell_formula_units_Z 56
_cell_length_a 11.782484
_cell_length_b 15.318534
_cell_length_c 26.531726
_cell_angle_alpha 90.000000
_cell_angle_beta 140.007745
_cell_angle_gamma 90.000000
_cell_volume 3077.634850
_symmetry_space_group_name_H-M "C 2/C"
_symmetry_group_IT_number 15
_symmetry_cell_setting 'monoclinic'
loop_
_space_group_symop_operation_xyz
x,y,z
-x,y,1/2-z
-x,-y,-z
x,-y,1/2+z
1/2+x,1/2+y,z
1/2-x,1/2+y,1/2-z
1/2-x,1/2-y,-z
1/2+x,1/2-y,1/2+z
loop_
_atom_site_type_symbol
_atom_site_label
_atom_site_fract_x
_atom_site_fract_y
_atom_site_fract_z
Si Si1 0.612442 0.584970 0.239044
Si Si2 0.758760 0.138034 0.370647
Si Si3 0.592485 0.651627 0.426669
Si Si4 0.215692 0.106386 0.748422
Si Si5 0.703981 0.944481 0.334908
Si Si6 0.622897 0.847335 0.404024
Si Si7 0.587878 0.197165 0.206911
O O1 0.500000 0.610565 0.250000
O O2 0.498982 0.597135 0.148916
O O3 0.658382 0.481936 0.257224
O O4 0.786156 0.647221 0.290676
O O5 0.664835 0.157760 0.285095
O O6 0.620772 0.174851 0.364563
O O7 0.955350 0.171082 0.426062
O O8 0.774579 0.034433 0.381263
O O9 0.632065 0.744202 0.414869
O O10 0.765285 0.612669 0.511846
O O11 0.205037 0.083754 0.685500
O O12 0.419332 0.124276 0.832568
O O13 0.116896 0.198827 0.720890
O O14 0.500000 0.960878 0.250000
O O15 0.705035 0.873462 0.378676
#
# Coordination Sequence:
#
# PCOD9256283 Si02
#       7
#     8   8   8   8   8   8   8
#     4  11  23  37  57  88 118 149 194 247 290 343
#     4  10  17  36  55  79 117 144 189 247 281 329
#     4  10  21  39  54  89 122 148 189 241 295 353
#     4  11  20  35  57  87 113 150 200 234 287 344
#     4  10  18  32  56  84 108 142 199 243 272 333
#     4  10  21  34  61  85 116 157 190 233 302 346
#     4  10  19  33  56  83 112 146 189 246 283 330
#
# _framework density 18.195789999999999
#
# number of rings (size 3 to 8) (size 9 to 14) (size 15 to 20)
#    0.000    1.714    7.143    0.857    4.000    0.571 
#    0.000    0.714    0.000    0.857    0.000    0.000 
#    0.000    0.000    0.000    0.000    0.000    0.000 
#
# Total GULP energy -155868.928474 kJ/mol
# GULP energy per Si atom -5566.747446 kJ/mol
# Density = 1.815438 g / cm^3
# Si number density = 18.195790 Si / 1000 Ang^3
#
#
#
# Elastic Constant Matrix: (Units=GPa)
#
#
# Indices 1 2 3 4 5 6 
#
# 1 95.2775 29.2203 7.1277 0.0000 4.5994 0.0000
# 2 29.2203 74.6003 8.2642 0.0000 8.3476 0.0000
# 3 7.1277 8.2642 52.1657 0.0000 -0.0243 0.0000
# 4 0.0000 0.0000 0.0000 18.3686 0.0000 -4.4655
# 5 4.5994 8.3476 -0.0243 0.0000 9.9640 0.0000
# 6 0.0000 0.0000 0.0000 -4.4655 0.0000 34.2069
#
#
#
# Elastic Compliance Matrix: (Units=1/GPa)
#
#
# Indices 1 2 3 4 5 6 
#
# 1 0.012002 -0.004387 -0.000946 0.000000 -0.001867 0.000000
# 2 -0.004387 0.016689 -0.002050 0.000000 -0.011961 0.000000
# 3 -0.000946 -0.002050 0.019625 0.000000 0.002202 0.000000
# 4 0.000000 0.000000 0.000000 0.056225 0.000000 0.007340
# 5 -0.001867 -0.011961 0.002202 0.000000 0.111249 0.000000
# 6 0.000000 0.000000 0.000000 0.007340 0.000000 0.030192
#
#
# Mechanical properties :
#
#
# Convention : Reuss Voigt Hill
#
# Bulk Modulus (GPa) = 29.80686 34.58532 32.19609
# Shear Modulus (GPa) = 18.38702 24.33667 21.36185
#
# Velocity S-wave (km/s) = 3.18230 3.66114 3.43008
# Velocity P-wave (km/s) = 5.46987 6.07622 5.78100
#
# Compressibility (1/GPa) = 0.03354932
#
# Stress axis : x y z
#
# Youngs Moduli (GPa) = 83.31878 59.92038 50.95620
#
# Poissons Ratio (x) = 0.26290 0.04819
# Poissons Ratio (y) = 0.36556 0.10446
# Poissons Ratio (z) = 0.07880 0.12283
#
# Static dielectric constant tensor:
#      x y z
#    x 1.671230 0.000000 0.031820 
#    y 0.000000 1.633820 0.000000 
#    z 0.031820 0.000000 1.654340 
# 
# From -- ./inp_files/292876.got.cif
#   From: 2010.05.17/outbox.cif.g08.bks.cpg/sg15_147_cif.got.tgz:292876.got - 2010.06.03 18:47:42.
