data_PCOD9256875
_publ_section_title
;
Structure prediction by ZEFSAII (Michael W. Deem and Ramdas Pophale) SiO2 
 PCOD9256875
Probable space group: C 2/C
;
_chemical_formula_sum "Si O2"
_cell_formula_units_Z 48
_cell_length_a 13.503640
_cell_length_b 28.190772
_cell_length_c 10.748271
_cell_angle_alpha 90.000000
_cell_angle_beta 37.254547
_cell_angle_gamma 90.000000
_cell_volume 2476.897927
_symmetry_space_group_name_H-M "C 2/C"
_symmetry_group_IT_number 15
_symmetry_cell_setting 'monoclinic'
loop_
_space_group_symop_operation_xyz
x,y,z
-x,y,1/2-z
-x,-y,-z
x,-y,1/2+z
1/2+x,1/2+y,z
1/2-x,1/2+y,1/2-z
1/2-x,1/2-y,-z
1/2+x,1/2-y,1/2+z
loop_
_atom_site_type_symbol
_atom_site_label
_atom_site_fract_x
_atom_site_fract_y
_atom_site_fract_z
Si Si1 0.807927 0.695440 0.172743
Si Si2 0.176664 0.898443 0.716909
Si Si3 1.000000 0.543954 0.595534
Si Si4 0.323336 0.601557 0.570236
Si Si5 0.196739 0.195043 0.553261
Si Si6 0.192074 0.304560 0.288596
O O1 0.710778 0.657786 0.188601
O O2 0.771241 0.677329 0.350076
O O3 0.750000 0.750000 0.219389
O O4 0.000000 0.693751 0.954597
O O5 0.337999 0.925603 0.599621
O O6 0.164585 0.912193 0.585414
O O7 0.000000 0.908682 0.954575
O O8 0.000000 0.535249 0.750000
O O9 0.000000 0.500000 0.500000
O O10 0.837999 0.574397 0.724381
O O11 0.289223 0.657786 0.610156
O O12 0.250000 0.250000 0.500000
O O13 0.271241 0.177329 0.607443
O O14 0.000000 0.191287 0.750000
#
# Coordination Sequence:
#
# PCOD9256875 Si02
#       6
#     8   8   8   8   8   8
#     4  11  20  33  53  81 118 160 202 242 290 355
#     4  10  21  39  61  86 119 157 195 244 303 358
#     4  10  22  44  68  92 122 156 202 258 317 370
#     4  10  21  39  61  86 119 157 195 244 303 358
#     4  10  18  30  46  70 108 154 200 241 289 338
#     4  11  20  33  53  81 118 160 202 242 290 355
#
# _framework density 19.379079999999998
#
# number of rings (size 3 to 8) (size 9 to 14) (size 15 to 20)
#    0.000    1.667    1.667    6.500    0.000    1.333 
#    3.000    0.000    0.000    0.000    0.000    0.000 
#    0.000    0.000    0.000    0.000    0.000    0.000 
#
# Total GULP energy -133659.962863 kJ/mol
# GULP energy per Si atom -5569.165119 kJ/mol
# Density = 1.933497 g / cm^3
# Si number density = 19.379080 Si / 1000 Ang^3
#
#
#
# Elastic Constant Matrix: (Units=GPa)
#
#
# Indices 1 2 3 4 5 6 
#
# 1 45.6787 27.8970 41.1958 0.0000 -22.8487 0.0000
# 2 27.8970 88.3996 43.6048 0.0000 -18.3404 0.0000
# 3 41.1958 43.6048 107.4326 0.0000 -49.2550 0.0000
# 4 0.0000 0.0000 0.0000 24.4387 0.0000 5.8924
# 5 -22.8487 -18.3404 -49.2550 0.0000 42.8573 0.0000
# 6 0.0000 0.0000 0.0000 5.8924 0.0000 29.4854
#
#
#
# Elastic Compliance Matrix: (Units=1/GPa)
#
#
# Indices 1 2 3 4 5 6 
#
# 1 0.036719 -0.005983 -0.008139 0.000000 0.007662 0.000000
# 2 -0.005983 0.015146 -0.004955 0.000000 -0.002403 0.000000
# 3 -0.008139 -0.004955 0.024263 0.000000 0.021426 0.000000
# 4 0.000000 0.000000 0.000000 0.042990 0.000000 -0.008591
# 5 0.007662 -0.002403 0.021426 0.000000 0.051014 0.000000
# 6 0.000000 0.000000 0.000000 -0.008591 0.000000 0.035632
#
#
# Mechanical properties :
#
#
# Convention : Reuss Voigt Hill
#
# Bulk Modulus (GPa) = 26.33366 51.87846 39.10606
# Shear Modulus (GPa) = 19.48740 27.94383 23.71561
#
# Velocity S-wave (km/s) = 3.17454 3.80143 3.50204
# Velocity P-wave (km/s) = 5.20146 6.78943 6.04779
#
# Compressibility (1/GPa) = 0.03797422
#
# Stress axis : x y z
#
# Youngs Moduli (GPa) = 27.23399 66.02406 41.21461
#
# Poissons Ratio (x) = 0.39505 0.33544
# Poissons Ratio (y) = 0.16295 0.20420
# Poissons Ratio (z) = 0.22165 0.32712
#
# Static dielectric constant tensor:
#      x y z
#    x 1.773630 0.000000 0.037140 
#    y 0.000000 1.631780 0.000000 
#    z 0.037140 0.000000 1.741820 
# 
# From -- ./inp_files/101209.got.cif
#   From: 2010.05.17/outbox.cif.g08.bks.cpg/sg15_51_cif.got.tgz:101209.got - 2010.06.03 18:47:42.
