data_PCOD9256793
_publ_section_title
;
Structure prediction by ZEFSAII (Michael W. Deem and Ramdas Pophale) SiO2 
 PCOD9256793
Probable space group: C 2/C
;
_chemical_formula_sum "Si O2"
_cell_formula_units_Z 48
_cell_length_a 23.106783
_cell_length_b 6.978234
_cell_length_c 20.505244
_cell_angle_alpha 90.000000
_cell_angle_beta 142.964475
_cell_angle_gamma 90.000000
_cell_volume 1991.453133
_symmetry_space_group_name_H-M "C 2/C"
_symmetry_group_IT_number 15
_symmetry_cell_setting 'monoclinic'
loop_
_space_group_symop_operation_xyz
x,y,z
-x,y,1/2-z
-x,-y,-z
x,-y,1/2+z
1/2+x,1/2+y,z
1/2-x,1/2+y,1/2-z
1/2-x,1/2-y,-z
1/2+x,1/2-y,1/2+z
loop_
_atom_site_type_symbol
_atom_site_label
_atom_site_fract_x
_atom_site_fract_y
_atom_site_fract_z
Si Si1 0.659621 0.818407 0.116857
Si Si2 0.794885 0.076500 0.628955
Si Si3 0.979149 0.215932 0.007328
Si Si4 0.723942 0.377517 0.157113
Si Si5 0.002949 0.098896 0.328215
Si Si6 0.723470 0.506808 0.026321
O O1 0.725368 0.940614 0.128087
O O2 0.545491 0.835230 0.017067
O O3 0.688265 0.598063 0.128075
O O4 0.689223 0.849511 0.217500
O O5 0.905005 0.025402 0.743377
O O6 0.780770 0.298780 0.594703
O O7 0.756852 0.966758 0.530978
O O8 0.865943 0.243346 0.897726
O O9 0.995662 0.217310 0.101555
O O10 0.000000 0.000000 0.000000
O O11 0.751358 0.355891 0.106799
O O12 0.000000 0.183125 0.250000
O O13 0.105394 0.983930 0.423092
#
# Coordination Sequence:
#
# PCOD9256793 Si02
#       6
#     8   8   8   8   8   8
#     4  10  18  29  50  75 101 129 163 205 248 292
#     4   9  15  25  44  71  97 121 160 203 242 283
#     4   9  17  30  48  70  97 130 166 201 239 292
#     4   9  18  32  49  71  98 130 166 204 244 290
#     4   9  16  28  48  70  93 127 169 203 235 289
#     4   8  16  28  44  68  97 128 162 204 244 285
#
# _framework density 24.103003000000001
#
# number of rings (size 3 to 8) (size 9 to 14) (size 15 to 20)
#    0.000    3.000    0.000    3.000    0.000    0.000 
#    0.000    0.833    0.000   20.000    0.000   14.000 
#    0.000    0.000    0.000    0.000    0.000    0.667 
#
# Total GULP energy -133775.485928 kJ/mol
# GULP energy per Si atom -5573.978580 kJ/mol
# Density = 2.404814 g / cm^3
# Si number density = 24.103003 Si / 1000 Ang^3
#
#
#
# Elastic Constant Matrix: (Units=GPa)
#
#
# Indices 1 2 3 4 5 6 
#
# 1 143.5571 28.0403 21.1017 0.0000 -15.7299 0.0000
# 2 28.0403 33.6324 -3.6980 0.0001 -5.0662 0.0001
# 3 21.1017 -3.6980 59.0465 0.0000 -24.2915 0.0000
# 4 0.0000 0.0001 0.0000 26.2179 0.0000 -4.6046
# 5 -15.7299 -5.0662 -24.2915 0.0000 27.5882 0.0000
# 6 0.0000 0.0001 0.0000 -4.6046 0.0000 44.1857
#
#
#
# Elastic Compliance Matrix: (Units=1/GPa)
#
#
# Indices 1 2 3 4 5 6 
#
# 1 0.009082 -0.007846 -0.003449 0.000000 0.000701 0.000000
# 2 -0.007846 0.039104 0.009983 0.000000 0.011498 0.000000
# 3 -0.003449 0.009983 0.029382 0.000000 0.025738 0.000000
# 4 0.000000 0.000000 0.000000 0.038853 0.000000 0.004049
# 5 0.000701 0.011498 0.025738 0.000000 0.061421 0.000000
# 6 0.000000 0.000000 0.000000 0.004049 0.000000 0.023054
#
#
# Mechanical properties :
#
#
# Convention : Reuss Voigt Hill
#
# Bulk Modulus (GPa) = 13.34310 36.34712 24.84511
# Shear Modulus (GPa) = 21.88188 32.31783 27.09985
#
# Velocity S-wave (km/s) = 3.01632 3.66570 3.35675
# Velocity P-wave (km/s) = 4.20462 5.74709 5.03527
#
# Compressibility (1/GPa) = 0.07494512
#
# Stress axis : x y z
#
# Youngs Moduli (GPa) = 110.10747 25.57292 34.03455
#
# Poissons Ratio (x) = 0.20063 0.11737
# Poissons Ratio (y) = 0.86385 -0.33976
# Poissons Ratio (z) = 0.37972 -0.25529
#
# Static dielectric constant tensor:
#      x y z
#    x 2.032320 0.000000 -0.084070 
#    y 0.000000 2.048480 0.000000 
#    z -0.084070 0.000000 1.887840 
# 
# From -- ./inp_files/110543.got.cif
#   From: 2010.05.17/outbox.cif.g08.bks.cpg/sg15_56_cif.got.tgz:110543.got - 2010.06.03 18:47:42.
