data_PCOD9256648
_publ_section_title
;
Structure prediction by ZEFSAII (Michael W. Deem and Ramdas Pophale) SiO2 
 PCOD9256648
Probable space group: C 2/C
;
_chemical_formula_sum "Si O2"
_cell_formula_units_Z 44
_cell_length_a 17.079206
_cell_length_b 22.273272
_cell_length_c 15.833150
_cell_angle_alpha 90.000000
_cell_angle_beta 26.392884
_cell_angle_gamma 90.000000
_cell_volume 2677.405612
_symmetry_space_group_name_H-M "C 2/C"
_symmetry_group_IT_number 15
_symmetry_cell_setting 'monoclinic'
loop_
_space_group_symop_operation_xyz
x,y,z
-x,y,1/2-z
-x,-y,-z
x,-y,1/2+z
1/2+x,1/2+y,z
1/2-x,1/2+y,1/2-z
1/2-x,1/2-y,-z
1/2+x,1/2-y,1/2+z
loop_
_atom_site_type_symbol
_atom_site_label
_atom_site_fract_x
_atom_site_fract_y
_atom_site_fract_z
Si Si1 0.842848 0.027057 0.334316
Si Si2 0.500000 0.988220 0.250000
Si Si3 0.721088 0.098587 0.863076
Si Si4 0.344759 0.090022 0.278295
Si Si5 0.209277 0.819794 0.049995
Si Si6 0.974301 0.070703 0.038752
O O1 0.656873 0.047208 0.553566
O O2 0.793137 0.961040 0.343220
O O3 0.000000 0.019566 0.250000
O O4 0.907443 0.072156 0.199002
O O5 0.393438 0.031625 0.287744
O O6 0.737784 0.153994 0.910577
O O7 0.843278 0.102421 0.662930
O O8 0.512331 0.093474 0.054092
O O9 0.310863 0.142453 0.379531
O O10 0.172292 0.088160 0.387878
O O11 0.000000 0.830215 0.250000
O O12 0.250000 0.750000 0.000000
O O13 0.000000 0.000000 0.000000
#
# Coordination Sequence:
#
# PCOD9256648 Si02
#       6
#     8   4   8   8   8   8
#     4  10  19  31  47  67  96 133 175 205 260 301
#     4  10  18  28  50  62  96 132 170 206 250 304
#     4  10  19  33  48  67 101 135 171 213 253 297
#     4  11  19  33  47  69 101 134 174 211 250 302
#     4  12  21  33  53  74 103 141 178 209 250 304
#     4  10  21  30  47  70  96 138 174 214 258 297
#
# _framework density 16.433819
#
# number of rings (size 3 to 8) (size 9 to 14) (size 15 to 20)
#    0.000    1.455    5.455    3.818    0.000    8.000 
#    0.000    0.000    0.000    0.000    0.000    0.000 
#    0.000    1.455    0.000    0.182    0.000    0.000 
#
# Total GULP energy -122566.671348 kJ/mol
# GULP energy per Si atom -5571.212334 kJ/mol
# Density = 1.639642 g / cm^3
# Si number density = 16.433819 Si / 1000 Ang^3
#
#
#
# Elastic Constant Matrix: (Units=GPa)
#
#
# Indices 1 2 3 4 5 6 
#
# 1 24.9661 9.7510 29.7752 -0.0382 14.1190 -0.0144
# 2 9.7510 39.8354 23.6002 0.0276 14.0305 0.0013
# 3 29.7752 23.6002 172.4297 -0.0407 20.2576 -0.0074
# 4 -0.0382 0.0276 -0.0407 19.1686 0.0232 0.2860
# 5 14.1190 14.0305 20.2576 0.0232 24.4965 0.0070
# 6 -0.0144 0.0013 -0.0074 0.2860 0.0070 8.0836
#
#
#
# Elastic Compliance Matrix: (Units=1/GPa)
#
#
# Indices 1 2 3 4 5 6 
#
# 1 0.067927 -0.000593 -0.007852 0.000157 -0.032319 0.000137
# 2 -0.000593 0.032394 -0.002428 -0.000033 -0.016205 0.000007
# 3 -0.007852 -0.002428 0.007523 0.000004 -0.000306 -0.000007
# 4 0.000157 -0.000033 0.000004 0.052197 -0.000124 -0.001846
# 5 -0.032319 -0.016205 -0.000306 -0.000124 0.068984 -0.000111
# 6 0.000137 0.000007 -0.000007 -0.001846 -0.000111 0.123773
#
#
# Mechanical properties :
#
#
# Convention : Reuss Voigt Hill
#
# Bulk Modulus (GPa) = 11.61433 40.38711 26.00072
# Shear Modulus (GPa) = 12.39947 21.95672 17.17809
#
# Velocity S-wave (km/s) = 2.74981 3.65919 3.23660
# Velocity P-wave (km/s) = 4.14302 6.51781 5.46107
#
# Compressibility (1/GPa) = 0.08610054
#
# Stress axis : x y z
#
# Youngs Moduli (GPa) = 14.72162 30.86981 132.91749
#
# Poissons Ratio (x) = 0.01830 1.04362
# Poissons Ratio (y) = 0.00873 0.32267
# Poissons Ratio (z) = 0.11559 0.07494
#
# Static dielectric constant tensor:
#      x y z
#    x 1.570260 0.000000 0.014280 
#    y 0.000000 1.512770 0.000010 
#    z 0.014280 0.000010 1.659950 
# 
# From -- ./inp_files/156590.got.cif
#   From: 2010.05.17/outbox.cif.g08.bks.cpg/sg15_79_cif.got.tgz:156590.got - 2010.06.03 18:47:42.
