data_PCOD9256928
_publ_section_title
;
Structure prediction by ZEFSAII (Michael W. Deem and Ramdas Pophale) SiO2 
 PCOD9256928
Probable space group: C 2/C
;
_chemical_formula_sum "Si O2"
_cell_formula_units_Z 48
_cell_length_a 19.389567
_cell_length_b 29.809979
_cell_length_c 12.541401
_cell_angle_alpha 90.000000
_cell_angle_beta 160.629846
_cell_angle_gamma 90.000000
_cell_volume 2404.261493
_symmetry_space_group_name_H-M "C 2/C"
_symmetry_group_IT_number 15
_symmetry_cell_setting 'monoclinic'
loop_
_space_group_symop_operation_xyz
x,y,z
-x,y,1/2-z
-x,-y,-z
x,-y,1/2+z
1/2+x,1/2+y,z
1/2-x,1/2+y,1/2-z
1/2-x,1/2-y,-z
1/2+x,1/2-y,1/2+z
loop_
_atom_site_type_symbol
_atom_site_label
_atom_site_fract_x
_atom_site_fract_y
_atom_site_fract_z
Si Si1 0.994548 0.314181 0.034294
Si Si2 0.343420 0.657277 0.205835
Si Si3 0.857805 0.228025 0.933784
Si Si4 0.000000 0.964893 0.250000
Si Si5 0.820998 0.401909 0.839687
Si Si6 0.500000 0.593743 0.250000
Si Si7 0.838652 0.469351 0.202400
O O1 0.144806 0.322663 0.355222
O O2 0.144523 0.294777 0.161247
O O3 0.837969 0.276233 0.848933
O O4 0.898909 0.362961 0.872043
O O5 0.510361 0.697247 0.456110
O O6 0.272661 0.627965 0.202131
O O7 0.443932 0.623730 0.267513
O O8 0.000000 0.230900 0.250000
O O9 0.146848 0.933779 0.535617
O O10 0.153906 0.995933 0.400640
O O11 0.016378 0.434829 0.152398
O O12 0.699368 0.564024 0.569661
O O13 0.000000 0.500000 0.500000
#
# Coordination Sequence:
#
# PCOD9256928 Si02
#       7
#     8   8   8   4   8   4   8
#     4  11  19  31  53  82 116 144 177 223 271 330
#     4  11  19  31  52  84 112 143 176 219 272 331
#     4  10  18  30  48  84 120 147 173 219 272 320
#     4   9  22  40  58  78 104 144 188 236 270 323
#     4  11  20  35  59  80 107 144 185 222 276 326
#     4  11  18  34  52  78 112 136 176 216 280 325
#     4   9  19  37  56  74 105 140 179 232 276 319
#
# _framework density 19.964551
#
# number of rings (size 3 to 8) (size 9 to 14) (size 15 to 20)
#    0.000    1.667    4.167    4.500    0.000    0.000 
#    0.000    9.167    0.000   12.000    0.000    0.000 
#    0.000    0.000    0.000    0.000    0.000    0.000 
#
# Total GULP energy -133627.611374 kJ/mol
# GULP energy per Si atom -5567.817141 kJ/mol
# Density = 1.991911 g / cm^3
# Si number density = 19.964551 Si / 1000 Ang^3
#
#
#
# Elastic Constant Matrix: (Units=GPa)
#
#
# Indices 1 2 3 4 5 6 
#
# 1 50.8432 38.1002 27.1096 -0.0001 27.2679 -0.0001
# 2 38.1002 151.7316 54.4607 -0.0002 23.3904 -0.0002
# 3 27.1096 54.4607 82.3724 0.0002 24.7867 0.0000
# 4 -0.0001 -0.0002 0.0002 -110.2466 0.0002 -102.0871
# 5 27.2679 23.3904 24.7867 0.0002 18.8641 0.0002
# 6 -0.0001 -0.0002 0.0000 -102.0871 0.0002 -57.1616
#
#
#
# Elastic Compliance Matrix: (Units=1/GPa)
#
#
# Indices 1 2 3 4 5 6 
#
# 1 0.107978 -0.008182 0.022803 0.000000 -0.175899 0.000000
# 2 -0.008182 0.009595 -0.006003 0.000000 0.007819 0.000000
# 3 0.022803 -0.006003 0.026931 0.000000 -0.060903 0.000000
# 4 0.000000 0.000000 0.000000 0.013874 0.000001 -0.024779
# 5 -0.175899 0.007819 -0.060903 0.000001 0.377601 0.000000
# 6 0.000000 0.000000 0.000000 -0.024779 0.000000 0.026760
#
#
# Mechanical properties :
#
#
# Convention : Reuss Voigt Hill
#
# Bulk Modulus (GPa) = 6.18284 58.25425 32.21855
# Shear Modulus (GPa) = 8.34142 -18.69038 -5.17448
#
# Velocity S-wave (km/s) = 2.04626 -3.06302 -1.61166
# Velocity P-wave (km/s) = 2.94730 4.09056 3.56506
#
# Compressibility (1/GPa) = 0.16173785
#
# Stress axis : x y z
#
# Youngs Moduli (GPa) = 9.26111 104.22484 37.13184
#
# Poissons Ratio (x) = 0.85279 -0.84670
# Poissons Ratio (y) = 0.07578 0.22292
# Poissons Ratio (z) = -0.21118 0.62571
#
# Static dielectric constant tensor:
#      x y z
#    x 1.706750 0.000000 0.054320 
#    y 0.000000 1.789240 0.000000 
#    z 0.054320 0.000000 1.710860 
# 
# From -- ./inp_files/169830.got.cif
#   From: 2010.05.17/outbox.cif.g08.bks.cpg/sg15_85_cif.got.tgz:169830.got - 2010.06.03 18:47:42.
