data_PCOD9256113
_publ_section_title
;
Structure prediction by ZEFSAII (Michael W. Deem and Ramdas Pophale) SiO2 
 PCOD9256113
Probable space group: C 2/C
;
_chemical_formula_sum "Si O2"
_cell_formula_units_Z 60
_cell_length_a 18.582533
_cell_length_b 18.520377
_cell_length_c 9.824756
_cell_angle_alpha 90.000000
_cell_angle_beta 72.822540
_cell_angle_gamma 90.000000
_cell_volume 3230.422302
_symmetry_space_group_name_H-M "C 2/C"
_symmetry_group_IT_number 15
_symmetry_cell_setting 'monoclinic'
loop_
_space_group_symop_operation_xyz
x,y,z
-x,y,1/2-z
-x,-y,-z
x,-y,1/2+z
1/2+x,1/2+y,z
1/2-x,1/2+y,1/2-z
1/2-x,1/2-y,-z
1/2+x,1/2-y,1/2+z
loop_
_atom_site_type_symbol
_atom_site_label
_atom_site_fract_x
_atom_site_fract_y
_atom_site_fract_z
Si Si1 0.108264 0.711001 0.930404
Si Si2 0.242144 0.133705 0.704810
Si Si3 0.952801 0.765507 0.022593
Si Si4 0.843215 0.122324 0.462757
Si Si5 0.342721 0.783599 0.799117
Si Si6 0.857540 0.043366 0.927033
Si Si7 0.000000 0.866553 0.250000
Si Si8 0.696092 0.357943 0.815515
O O1 0.168898 0.651512 0.846763
O O2 0.146086 0.787648 0.874021
O O3 0.108016 0.705831 0.094590
O O4 0.022394 0.718488 0.929670
O O5 0.199980 0.205738 0.669064
O O6 0.212875 0.067109 0.629719
O O7 0.209525 0.126421 0.874936
O O8 0.891132 0.717478 0.135232
O O9 0.982935 0.817814 0.127481
O O10 0.909173 0.818426 0.944140
O O11 0.799219 0.136263 0.348397
O O12 0.872788 0.040955 0.431799
O O13 0.277983 0.842801 0.830384
O O14 0.928208 0.084554 0.822687
O O15 0.841051 0.075466 0.085746
#
# Coordination Sequence:
#
# PCOD9256113 Si02
#       8
#     8   8   8   8   8   8   4   8
#     4  11  18  34  61  79 107 149 200 249 280 341
#     4  10  19  37  57  80 106 152 203 241 279 328
#     4  11  20  36  54  86 117 144 184 247 297 337
#     4  11  26  36  51  86 124 153 187 235 294 348
#     4  10  17  34  60  79 107 142 198 249 282 340
#     4  12  21  39  57  78 118 167 194 222 275 362
#     4  12  20  34  56  80 112 150 192 222 270 342
#     4  11  21  35  56  81 109 152 197 236 289 341
#
# _framework density 18.573422000000001
#
# number of rings (size 3 to 8) (size 9 to 14) (size 15 to 20)
#    0.000    1.067    8.000    1.600    0.000    6.933 
#    0.000    0.000    0.000    0.000    0.000    5.600 
#    0.000    0.000    0.000    0.000    0.000    0.000 
#
# Total GULP energy -167469.846193 kJ/mol
# GULP energy per Si atom -5582.328206 kJ/mol
# Density = 1.853115 g / cm^3
# Si number density = 18.573422 Si / 1000 Ang^3
#
#
#
# Elastic Constant Matrix: (Units=GPa)
#
#
# Indices 1 2 3 4 5 6 
#
# 1 66.8062 23.1542 29.9626 0.0000 -22.6433 0.0000
# 2 23.1542 19.3096 9.6709 0.0000 -5.6031 0.0000
# 3 29.9626 9.6709 71.9938 0.0000 7.3272 0.0000
# 4 0.0000 0.0000 0.0000 15.4808 0.0000 0.8508
# 5 -22.6433 -5.6031 7.3272 0.0000 36.0336 0.0000
# 6 0.0000 0.0000 0.0000 0.8508 0.0000 9.3395
#
#
#
# Elastic Compliance Matrix: (Units=1/GPa)
#
#
# Indices 1 2 3 4 5 6 
#
# 1 0.042758 -0.036522 -0.015364 0.000000 0.024314 0.000000
# 2 -0.036522 0.090786 0.003986 0.000000 -0.009644 0.000000
# 3 -0.015364 0.003986 0.021105 0.000000 -0.013327 0.000000
# 4 0.000000 0.000000 0.000000 0.064921 0.000000 -0.005914
# 5 0.024314 -0.009644 -0.013327 0.000000 0.044241 0.000000
# 6 0.000000 0.000000 0.000000 -0.005914 0.000000 0.107611
#
#
# Mechanical properties :
#
#
# Convention : Reuss Voigt Hill
#
# Bulk Modulus (GPa) = 16.99220 31.52054 24.25637
# Shear Modulus (GPa) = 10.27032 18.52557 14.39794
#
# Velocity S-wave (km/s) = 2.35406 3.16163 2.78725
# Velocity P-wave (km/s) = 4.06907 5.50776 4.84215
#
# Compressibility (1/GPa) = 0.05885054
#
# Stress axis : x y z
#
# Youngs Moduli (GPa) = 23.38719 11.01485 47.38162
#
# Poissons Ratio (x) = 0.40228 0.72797
# Poissons Ratio (y) = 0.85414 -0.18885
# Poissons Ratio (z) = 0.35932 -0.04390
#
# Static dielectric constant tensor:
#      x y z
#    x 1.670250 0.000000 -0.004060 
#    y 0.000000 1.626930 0.000000 
#    z -0.004060 0.000000 1.664880 
# 
# From -- ./inp_files/50182.got.cif
#   From: 2010.05.17/outbox.cif.g08.bks.cpg/sg15_26_cif.got.tgz:50182.got - 2010.06.03 18:47:42.
