data_PCOD9256521
_publ_section_title
;
Structure prediction by ZEFSAII (Michael W. Deem and Ramdas Pophale) SiO2 
 PCOD9256521
Probable space group: C 2/C
;
_chemical_formula_sum "Si O2"
_cell_formula_units_Z 64
_cell_length_a 19.937631
_cell_length_b 23.959778
_cell_length_c 20.140332
_cell_angle_alpha 90.000000
_cell_angle_beta 159.889039
_cell_angle_gamma 90.000000
_cell_volume 3308.099292
_symmetry_space_group_name_H-M "C 2/C"
_symmetry_group_IT_number 15
_symmetry_cell_setting 'monoclinic'
loop_
_space_group_symop_operation_xyz
x,y,z
-x,y,1/2-z
-x,-y,-z
x,-y,1/2+z
1/2+x,1/2+y,z
1/2-x,1/2+y,1/2-z
1/2-x,1/2-y,-z
1/2+x,1/2-y,1/2+z
loop_
_atom_site_type_symbol
_atom_site_label
_atom_site_fract_x
_atom_site_fract_y
_atom_site_fract_z
Si Si1 0.234059 0.475755 0.611937
Si Si2 0.239481 0.684466 0.617155
Si Si3 0.262261 0.009827 0.027933
Si Si4 0.268830 0.091551 0.267566
Si Si5 0.760844 0.517378 0.672446
Si Si6 0.242168 0.416098 0.207182
Si Si7 0.222086 0.313036 0.818301
Si Si8 0.237624 0.359368 0.973512
O O1 0.299043 0.478972 0.596366
O O2 0.294499 0.425853 0.717225
O O3 0.286643 0.532735 0.699250
O O4 0.996526 0.477053 0.389262
O O5 0.314833 0.639742 0.740254
O O6 0.263153 0.746499 0.666864
O O7 0.306152 0.672562 0.603553
O O8 0.008038 0.674310 0.395815
O O9 0.500000 0.008680 0.250000
O O10 0.193332 0.984662 0.033863
O O11 0.210079 0.075316 0.975045
O O12 0.506231 0.089012 0.491731
O O13 0.205314 0.150032 0.176259
O O14 0.218539 0.041645 0.169229
O O15 0.689985 0.565640 0.656549
O O16 0.303017 0.333041 0.964705
O O17 0.000000 0.356860 0.750000
#
# Coordination Sequence:
#
# PCOD9256521 Si02
#       8
#     8   8   8   8   8   8   8   8
#     4   8  12  18  31  50  72  95 118 147 188 229
#     4  10  18  27  38  53  76 104 131 154 178 212
#     4   9  12  17  31  52  77  99 115 142 191 236
#     4   8  13  21  32  49  72  96 121 151 184 218
#     4   8  12  18  31  50  72  95 118 147 188 229
#     4   8  13  21  32  49  72  96 121 151 184 218
#     4  10  18  27  38  53  76 104 131 154 178 212
#     4   9  15  23  34  52  78 103 125 150 179 214
#
# _framework density 19.346456
#
# number of rings (size 3 to 8) (size 9 to 14) (size 15 to 20)
#    0.000    3.250    2.500    1.875    0.000    0.000 
#    0.000    0.000    0.000    0.000    0.000    4.375 
#    0.000    0.000    0.000    0.000    0.000    0.000 
#
# Total GULP energy -178639.376567 kJ/mol
# GULP energy per Si atom -5582.480518 kJ/mol
# Density = 1.930242 g / cm^3
# Si number density = 19.346456 Si / 1000 Ang^3
#
#
#
# Elastic Constant Matrix: (Units=GPa)
#
#
# Indices 1 2 3 4 5 6 
#
# 1 144.1186 87.2578 32.3130 -0.0078 -43.0680 -0.0140
# 2 87.2578 131.1034 19.3823 -0.0025 -36.3813 -0.0052
# 3 32.3130 19.3823 83.3340 -0.0331 -12.6230 -0.0498
# 4 -0.0078 -0.0025 -0.0331 11.4985 -0.0107 -3.9169
# 5 -43.0680 -36.3813 -12.6230 -0.0107 39.9517 -0.0218
# 6 -0.0140 -0.0052 -0.0498 -3.9169 -0.0218 9.1219
#
#
#
# Elastic Compliance Matrix: (Units=1/GPa)
#
#
# Indices 1 2 3 4 5 6 
#
# 1 0.014017 -0.006660 -0.002642 0.000019 0.008211 0.000031
# 2 -0.006660 0.013454 0.000233 0.000009 0.005145 0.000015
# 3 -0.002642 0.000233 0.013203 0.000073 0.001535 0.000103
# 4 0.000019 0.000009 0.000073 0.101868 0.000102 0.043742
# 5 0.008211 0.005145 0.001535 0.000102 0.039052 0.000161
# 6 0.000031 0.000015 0.000103 0.043742 0.000161 0.128410
#
#
# Mechanical properties :
#
#
# Convention : Reuss Voigt Hill
#
# Bulk Modulus (GPa) = 44.37690 70.71804 57.54747
# Shear Modulus (GPa) = 14.89621 26.75461 20.82541
#
# Velocity S-wave (km/s) = 2.77785 3.72280 3.28448
# Velocity P-wave (km/s) = 5.76857 7.42373 6.64786
#
# Compressibility (1/GPa) = 0.02253425
#
# Stress axis : x y z
#
# Youngs Moduli (GPa) = 71.33952 74.32817 75.74034
#
# Poissons Ratio (x) = 0.49505 0.20014
# Poissons Ratio (y) = 0.47515 -0.01763
# Poissons Ratio (z) = 0.18851 -0.01730
#
# Static dielectric constant tensor:
#      x y z
#    x 1.702430 -0.000010 0.050710 
#    y -0.000010 1.652340 -0.000030 
#    z 0.050710 -0.000030 1.811840 
# 
# From -- ./inp_files/58924.got.cif
#   From: 2010.05.17/outbox.cif.g08.bks.cpg/sg15_30_cif.got.tgz:58924.got - 2010.06.03 18:47:42.
