data_PCOD9256834
_publ_section_title
;
Structure prediction by ZEFSAII (Michael W. Deem and Ramdas Pophale) SiO2 
 PCOD9256834
Probable space group: C 2/C
;
_chemical_formula_sum "Si O2"
_cell_formula_units_Z 56
_cell_length_a 7.252321
_cell_length_b 17.283239
_cell_length_c 25.805003
_cell_angle_alpha 90.000000
_cell_angle_beta 46.354281
_cell_angle_gamma 90.000000
_cell_volume 2340.547399
_symmetry_space_group_name_H-M "C 2/C"
_symmetry_group_IT_number 15
_symmetry_cell_setting 'monoclinic'
loop_
_space_group_symop_operation_xyz
x,y,z
-x,y,1/2-z
-x,-y,-z
x,-y,1/2+z
1/2+x,1/2+y,z
1/2-x,1/2+y,1/2-z
1/2-x,1/2-y,-z
1/2+x,1/2-y,1/2+z
loop_
_atom_site_type_symbol
_atom_site_label
_atom_site_fract_x
_atom_site_fract_y
_atom_site_fract_z
Si Si1 0.221733 0.245529 0.780959
Si Si2 0.739765 0.927301 0.484105
Si Si3 0.216212 0.421827 0.284676
Si Si4 0.484337 0.284055 0.071934
Si Si5 0.579650 0.082489 0.552947
Si Si6 0.218038 0.151566 0.080445
Si Si7 0.313843 0.588935 0.235120
O O1 0.500000 0.259696 0.750000
O O2 0.264844 0.162848 0.745190
O O3 0.155495 0.330058 0.770233
O O4 0.026110 0.229251 0.864951
O O5 0.982654 0.874310 0.445154
O O6 0.669830 0.932844 0.436414
O O7 0.474305 0.888159 0.554939
O O8 0.753767 0.008330 0.508628
O O9 0.500000 0.430999 0.250000
O O10 0.175898 0.504823 0.263143
O O11 0.022907 0.413160 0.369947
O O12 0.245456 0.239555 0.093864
O O13 0.750000 0.250000 0.000000
O O14 0.731756 0.147577 0.490826
O O15 0.985825 0.105494 0.150611
O O16 0.500000 0.587232 0.250000
#
# Coordination Sequence:
#
# PCOD9256834 Si02
#       7
#     8   8   8   8   8   8   8
#     4  11  23  39  59  87 122 159 197 241 307 360
#     4   8  16  26  51  79 110 139 197 231 288 326
#     4  11  23  36  59  91 120 150 201 251 302 346
#     4  10  18  29  55  84 108 149 199 247 270 350
#     4   9  18  30  49  81 116 145 181 252 288 339
#     4   9  16  30  50  79 111 146 190 239 285 344
#     4  10  19  35  58  82 115 157 200 240 293 353
#
# _framework density 23.926024999999999
#
# number of rings (size 3 to 8) (size 9 to 14) (size 15 to 20)
#    0.857    1.429    2.857    2.571    4.000    0.000 
#    0.000    1.429    0.000    0.857    0.000    0.000 
#    0.000    0.000    0.000    0.000    0.000    0.000 
#
# Total GULP energy -155892.227021 kJ/mol
# GULP energy per Si atom -5567.579536 kJ/mol
# Density = 2.387157 g / cm^3
# Si number density = 23.926025 Si / 1000 Ang^3
#
#
#
# Elastic Constant Matrix: (Units=GPa)
#
#
# Indices 1 2 3 4 5 6 
#
# 1 38.7422 25.7192 22.4234 -0.0031 4.6249 0.0019
# 2 25.7192 216.9848 80.1730 -0.0021 12.6462 0.0051
# 3 22.4234 80.1730 202.0213 -0.0006 2.2656 0.0029
# 4 -0.0031 -0.0021 -0.0006 34.0076 0.0017 -5.3409
# 5 4.6249 12.6462 2.2656 0.0017 12.2326 -0.0018
# 6 0.0019 0.0051 0.0029 -5.3409 -0.0018 23.1550
#
#
#
# Elastic Compliance Matrix: (Units=1/GPa)
#
#
# Indices 1 2 3 4 5 6 
#
# 1 0.029611 -0.002148 -0.002338 0.000003 -0.008542 -0.000002
# 2 -0.002148 0.005907 -0.002051 0.000000 -0.004915 -0.000001
# 3 -0.002338 -0.002051 0.006002 0.000000 0.001893 0.000000
# 4 0.000003 0.000000 0.000000 0.030510 -0.000004 0.007037
# 5 -0.008542 -0.004915 0.001893 -0.000004 0.089709 0.000008
# 6 -0.000002 -0.000001 0.000000 0.007037 0.000008 0.044810
#
#
# Mechanical properties :
#
#
# Convention : Reuss Voigt Hill
#
# Bulk Modulus (GPa) = 35.15449 79.37551 57.26500
# Shear Modulus (GPa) = 21.82387 35.84121 28.83254
#
# Velocity S-wave (km/s) = 3.02344 3.87460 3.47518
# Velocity P-wave (km/s) = 5.18779 7.29823 6.33156
#
# Compressibility (1/GPa) = 0.02844587
#
# Stress axis : x y z
#
# Youngs Moduli (GPa) = 33.77163 169.27796 166.60564
#
# Poissons Ratio (x) = 0.36359 0.38960
# Poissons Ratio (y) = 0.07254 0.34169
# Poissons Ratio (z) = 0.07897 0.34717
#
# Static dielectric constant tensor:
#      x y z
#    x 1.971320 0.000000 0.048070 
#    y 0.000000 2.134210 0.000000 
#    z 0.048070 0.000000 1.890580 
# 
# From -- ./inp_files/265479.got.cif
#   From: 2010.05.17/outbox.cif.g08.bks.cpg/sg15_133_cif.got.tgz:265479.got - 2010.06.03 18:47:42.
