data_PCOD9256568
_publ_section_title
;
Structure prediction by ZEFSAII (Michael W. Deem and Ramdas Pophale) SiO2 
 PCOD9256568
Probable space group: C 2/C
;
_chemical_formula_sum "Si O2"
_cell_formula_units_Z 48
_cell_length_a 16.184396
_cell_length_b 20.630316
_cell_length_c 9.033541
_cell_angle_alpha 90.000000
_cell_angle_beta 65.252302
_cell_angle_gamma 90.000000
_cell_volume 2739.193818
_symmetry_space_group_name_H-M "C 2/C"
_symmetry_group_IT_number 15
_symmetry_cell_setting 'monoclinic'
loop_
_space_group_symop_operation_xyz
x,y,z
-x,y,1/2-z
-x,-y,-z
x,-y,1/2+z
1/2+x,1/2+y,z
1/2-x,1/2+y,1/2-z
1/2-x,1/2-y,-z
1/2+x,1/2-y,1/2+z
loop_
_atom_site_type_symbol
_atom_site_label
_atom_site_fract_x
_atom_site_fract_y
_atom_site_fract_z
Si Si1 0.718068 0.508701 0.867672
Si Si2 0.271171 0.907965 0.075118
Si Si3 0.103368 0.066273 0.211038
Si Si4 0.542208 0.702264 0.363633
Si Si5 0.851848 0.274627 0.957806
Si Si6 0.918155 0.166246 0.713661
O O1 0.786277 0.547547 0.708628
O O2 0.644765 0.476460 0.812100
O O3 0.760243 0.452881 0.939279
O O4 0.666454 0.555093 0.021558
O O5 0.173606 0.873330 0.186631
O O6 0.342542 0.851226 0.986828
O O7 0.099714 0.140537 0.265942
O O8 0.000000 0.047012 0.250000
O O9 0.500000 0.735537 0.250000
O O10 0.603114 0.744279 0.428665
O O11 0.458075 0.672461 0.520550
O O12 0.904154 0.239804 0.783941
O O13 0.750000 0.250000 0.000000
O O14 0.000000 0.136547 0.750000
#
# Coordination Sequence:
#
# PCOD9256568 Si02
#       6
#     8   8   8   8   8   8
#     4  10  20  29  43  66  97 133 162 186 225 280
#     4  10  19  33  47  69  96 126 163 195 229 283
#     4  10  18  28  42  66 100 132 157 187 224 278
#     4  10  19  32  49  76 101 121 158 210 244 273
#     4   9  18  33  52  68  94 132 163 193 239 292
#     4   9  17  31  50  71  97 130 160 191 234 290
#
# _framework density 17.523405
#
# number of rings (size 3 to 8) (size 9 to 14) (size 15 to 20)
#    0.000    2.333    0.000    5.500    0.000    4.000 
#    0.000   10.833    0.000    0.000    0.000   15.167 
#    0.000    0.000    0.000    0.000    0.000    0.000 
#
# Total GULP energy -133682.094729 kJ/mol
# GULP energy per Si atom -5570.087280 kJ/mol
# Density = 1.748352 g / cm^3
# Si number density = 17.523405 Si / 1000 Ang^3
#
#
#
# Elastic Constant Matrix: (Units=GPa)
#
#
# Indices 1 2 3 4 5 6 
#
# 1 33.3330 23.4008 15.6612 0.0000 12.5247 0.0000
# 2 23.4008 111.1554 40.3452 0.0000 13.8445 0.0000
# 3 15.6612 40.3452 79.2546 0.0000 32.4955 0.0000
# 4 0.0000 0.0000 0.0000 16.3347 0.0000 -4.3602
# 5 12.5247 13.8445 32.4955 0.0000 23.0199 0.0000
# 6 0.0000 0.0000 0.0000 -4.3602 0.0000 30.7983
#
#
#
# Elastic Compliance Matrix: (Units=1/GPa)
#
#
# Indices 1 2 3 4 5 6 
#
# 1 0.043229 -0.008238 0.007748 0.000000 -0.029503 0.000000
# 2 -0.008238 0.012698 -0.008410 0.000000 0.008718 0.000000
# 3 0.007748 -0.008410 0.035665 0.000000 -0.049503 0.000000
# 4 0.000000 0.000000 0.000000 0.063624 0.000000 0.009007
# 5 -0.029503 0.008718 -0.049503 0.000000 0.124129 0.000000
# 6 0.000000 0.000000 0.000000 0.009007 0.000000 0.033745
#
#
# Mechanical properties :
#
#
# Convention : Reuss Voigt Hill
#
# Bulk Modulus (GPa) = 13.55196 42.50639 28.02918
# Shear Modulus (GPa) = 14.06520 23.65295 18.85908
#
# Velocity S-wave (km/s) = 2.83619 3.67794 3.28414
# Velocity P-wave (km/s) = 4.29834 6.50737 5.51460
#
# Compressibility (1/GPa) = 0.07379007
#
# Stress axis : x y z
#
# Youngs Moduli (GPa) = 23.13254 78.75501 28.03883
#
# Poissons Ratio (x) = 0.64881 -0.21725
# Poissons Ratio (y) = 0.19058 0.23582
# Poissons Ratio (z) = -0.17923 0.66237
#
# Static dielectric constant tensor:
#      x y z
#    x 1.599700 0.000000 0.010930 
#    y 0.000000 1.640870 0.000000 
#    z 0.010930 0.000000 1.612270 
# 
# From -- ./inp_files/40656.got.cif
#   From: 2010.05.17/outbox.cif.g08.bks.cpg/sg15_21_cif.got.tgz:40656.got - 2010.06.03 18:47:42.
