data_PCOD9256447
_publ_section_title
;
Structure prediction by ZEFSAII (Michael W. Deem and Ramdas Pophale) SiO2 
 PCOD9256447
Probable space group: C 2/C
;
_chemical_formula_sum "Si O2"
_cell_formula_units_Z 48
_cell_length_a 16.754036
_cell_length_b 8.770473
_cell_length_c 17.468429
_cell_angle_alpha 90.000000
_cell_angle_beta 131.333047
_cell_angle_gamma 90.000000
_cell_volume 1927.386329
_symmetry_space_group_name_H-M "C 2/C"
_symmetry_group_IT_number 15
_symmetry_cell_setting 'monoclinic'
loop_
_space_group_symop_operation_xyz
x,y,z
-x,y,1/2-z
-x,-y,-z
x,-y,1/2+z
1/2+x,1/2+y,z
1/2-x,1/2+y,1/2-z
1/2-x,1/2-y,-z
1/2+x,1/2-y,1/2+z
loop_
_atom_site_type_symbol
_atom_site_label
_atom_site_fract_x
_atom_site_fract_y
_atom_site_fract_z
Si Si1 0.029110 0.706290 0.098962
Si Si2 0.568681 0.609087 0.487097
Si Si3 0.650015 0.606647 0.800426
Si Si4 0.300487 0.664834 0.433206
Si Si5 0.193073 0.472840 0.236383
Si Si6 0.078927 0.780740 0.742748
O O1 0.094877 0.761285 0.065528
O O2 0.059311 0.811863 0.191517
O O3 0.076471 0.541626 0.146693
O O4 0.905272 0.729362 0.002782
O O5 0.500000 0.500000 0.500000
O O6 0.658965 0.498999 0.509126
O O7 0.490042 0.673221 0.374425
O O8 0.699958 0.728366 0.891384
O O9 0.743517 0.570212 0.798822
O O10 0.614494 0.439963 0.803716
O O11 0.260611 0.600618 0.324730
O O12 0.173068 0.327458 0.276702
O O13 0.000000 0.695618 0.750000
#
# Coordination Sequence:
#
# PCOD9256447 Si02
#       6
#     8   8   8   8   8   8
#     4  10  19  37  66  99 125 171 236 289 325 380
#     4  10  17  38  67  93 129 173 228 276 332 404
#     4  11  20  38  68  98 128 179 235 281 327 418
#     4  10  20  35  64  94 127 166 232 286 328 386
#     4  11  22  38  68 101 132 175 238 283 329 414
#     4  12  26  44  66 102 148 182 215 299 370 396
#
# _framework density 24.904194
#
# number of rings (size 3 to 8) (size 9 to 14) (size 15 to 20)
#    0.000    1.333    5.000    5.000    0.000    2.667 
#    0.000    5.000    0.000    0.000    0.000    0.000 
#    0.000    0.000    0.000    0.000    0.000    0.000 
#
# Total GULP energy -134049.445977 kJ/mol
# GULP energy per Si atom -5585.393582 kJ/mol
# Density = 2.484751 g / cm^3
# Si number density = 24.904194 Si / 1000 Ang^3
#
#
#
# Elastic Constant Matrix: (Units=GPa)
#
#
# Indices 1 2 3 4 5 6 
#
# 1 74.8686 11.8350 17.6932 0.0000 9.9110 0.0000
# 2 11.8350 88.7441 33.4076 0.0000 11.4084 0.0000
# 3 17.6932 33.4076 146.7348 0.0000 21.8388 0.0000
# 4 0.0000 0.0000 0.0000 45.6955 0.0000 14.6853
# 5 9.9110 11.4084 21.8388 0.0000 33.2487 0.0000
# 6 0.0000 0.0000 0.0000 14.6853 0.0000 27.1555
#
#
#
# Elastic Compliance Matrix: (Units=1/GPa)
#
#
# Indices 1 2 3 4 5 6 
#
# 1 0.014188 -0.001111 -0.000981 0.000000 -0.003204 0.000000
# 2 -0.001111 0.012625 -0.002377 0.000000 -0.002439 0.000000
# 3 -0.000981 -0.002377 0.008102 0.000000 -0.004213 0.000000
# 4 0.000000 0.000000 0.000000 0.026487 0.000000 -0.014324
# 5 -0.003204 -0.002439 -0.004213 0.000000 0.034636 0.000000
# 6 0.000000 0.000000 0.000000 -0.014324 0.000000 0.044571
#
#
# Mechanical properties :
#
#
# Convention : Reuss Voigt Hill
#
# Bulk Modulus (GPa) = 38.49685 48.46878 43.48282
# Shear Modulus (GPa) = 31.60420 37.71405 34.65912
#
# Velocity S-wave (km/s) = 3.56621 3.89571 3.73459
# Velocity P-wave (km/s) = 5.69637 6.30394 6.00785
#
# Compressibility (1/GPa) = 0.02597615
#
# Stress axis : x y z
#
# Youngs Moduli (GPa) = 70.48052 79.20750 123.43184
#
# Poissons Ratio (x) = 0.08800 0.12109
# Poissons Ratio (y) = 0.07830 0.29345
# Poissons Ratio (z) = 0.06915 0.18831
#
# Static dielectric constant tensor:
#      x y z
#    x 1.981730 0.000000 -0.025750 
#    y 0.000000 2.061300 0.000000 
#    z -0.025750 0.000000 1.997770 
# 
# From -- ./inp_files/252007.got.cif
#   From: 2010.05.17/outbox.cif.g08.bks.cpg/sg15_127_cif.got.tgz:252007.got - 2010.06.03 18:47:42.
