data_PCOD9256843
_publ_section_title
;
Structure prediction by ZEFSAII (Michael W. Deem and Ramdas Pophale) SiO2 
 PCOD9256843
Probable space group: C 2/C
;
_chemical_formula_sum "Si O2"
_cell_formula_units_Z 44
_cell_length_a 14.890824
_cell_length_b 27.344160
_cell_length_c 7.936582
_cell_angle_alpha 90.000000
_cell_angle_beta 142.821761
_cell_angle_gamma 90.000000
_cell_volume 1952.841243
_symmetry_space_group_name_H-M "C 2/C"
_symmetry_group_IT_number 15
_symmetry_cell_setting 'monoclinic'
loop_
_space_group_symop_operation_xyz
x,y,z
-x,y,1/2-z
-x,-y,-z
x,-y,1/2+z
1/2+x,1/2+y,z
1/2-x,1/2+y,1/2-z
1/2-x,1/2-y,-z
1/2+x,1/2-y,1/2+z
loop_
_atom_site_type_symbol
_atom_site_label
_atom_site_fract_x
_atom_site_fract_y
_atom_site_fract_z
Si Si1 0.485503 0.874359 0.937245
Si Si2 0.257238 0.063681 0.481958
Si Si3 0.837768 0.293909 0.948334
Si Si4 0.251693 0.808476 0.203532
Si Si5 0.648399 0.033135 0.243749
Si Si6 0.500000 0.373373 0.750000
O O1 0.603331 0.906275 0.228054
O O2 0.377899 0.839228 0.887716
O O3 0.602631 0.837750 0.024524
O O4 0.389926 0.917962 0.708993
O O5 0.295336 0.055261 0.345702
O O6 0.110553 0.093293 0.307142
O O7 0.242188 0.008079 0.526031
O O8 0.759609 0.306909 0.008677
O O9 0.000000 0.274943 0.250000
O O10 0.755855 0.247292 0.747342
O O11 0.104713 0.839184 0.021739
O O12 0.500000 0.000000 0.000000
#
# Coordination Sequence:
#
# PCOD9256843 Si02
#       6
#     8   8   8   8   8   4
#     4   9  16  27  41  62  90 122 155 190 230 276
#     4  10  20  31  49  67  96 128 158 199 240 279
#     4   9  14  22  36  58  87 126 156 179 222 286
#     4   9  15  22  37  59  91 128 148 180 232 287
#     4  10  18  33  50  68  90 125 164 204 235 277
#     4  10  18  30  40  68 102 130 154 188 244 292
#
# _framework density 22.531274
#
# number of rings (size 3 to 8) (size 9 to 14) (size 15 to 20)
#    0.000    2.545    0.909    6.545    0.000    0.727 
#    0.000    0.000    0.000    0.000    0.000    0.000 
#    0.000   36.364    0.000    0.000    0.000    0.000 
#
# Total GULP energy -122662.306998 kJ/mol
# GULP energy per Si atom -5575.559409 kJ/mol
# Density = 2.247999 g / cm^3
# Si number density = 22.531274 Si / 1000 Ang^3
#
#
#
# Elastic Constant Matrix: (Units=GPa)
#
#
# Indices 1 2 3 4 5 6 
#
# 1 77.8589 36.6291 23.6160 0.0000 24.8778 0.0000
# 2 36.6291 225.0560 53.0407 0.0000 19.4567 0.0000
# 3 23.6160 53.0407 47.8471 0.0000 16.6396 0.0000
# 4 0.0000 0.0000 0.0000 38.6122 0.0000 13.5133
# 5 24.8778 19.4567 16.6396 0.0000 25.9683 0.0000
# 6 0.0000 0.0000 0.0000 13.5133 0.0000 28.5934
#
#
#
# Elastic Compliance Matrix: (Units=1/GPa)
#
#
# Indices 1 2 3 4 5 6 
#
# 1 0.019273 -0.001115 -0.002762 0.000000 -0.015859 0.000000
# 2 -0.001115 0.006081 -0.006405 0.000000 0.000616 0.000000
# 3 -0.002762 -0.006405 0.034451 0.000000 -0.014631 0.000000
# 4 0.000000 0.000000 0.000000 0.031031 0.000000 -0.014665
# 5 -0.015859 0.000616 -0.014631 0.000000 0.062615 0.000000
# 6 0.000000 0.000000 0.000000 -0.014665 0.000000 0.041904
#
#
# Mechanical properties :
#
#
# Convention : Reuss Voigt Hill
#
# Bulk Modulus (GPa) = 25.48259 64.14817 44.81538
# Shear Modulus (GPa) = 21.83409 34.46650 28.15030
#
# Velocity S-wave (km/s) = 3.11635 3.91540 3.53850
# Velocity P-wave (km/s) = 4.92780 6.99808 6.05212
#
# Compressibility (1/GPa) = 0.03924249
#
# Stress axis : x y z
#
# Youngs Moduli (GPa) = 51.88544 164.44452 29.02648
#
# Poissons Ratio (x) = 0.18335 0.08016
# Poissons Ratio (y) = 0.05785 0.18592
# Poissons Ratio (z) = 0.14328 1.05328
#
# Static dielectric constant tensor:
#      x y z
#    x 1.868600 0.000000 -0.060360 
#    y 0.000000 1.903120 0.000000 
#    z -0.060360 0.000000 1.855960 
# 
# From -- ./inp_files/100881.got.cif
#   From: 2010.05.17/outbox.cif.g08.bks.cpg/sg15_51_cif.got.tgz:100881.got - 2010.06.03 18:47:42.
