data_PCOD9256895
_publ_section_title
;
Structure prediction by ZEFSAII (Michael W. Deem and Ramdas Pophale) SiO2 
 PCOD9256895
Probable space group: C 2/C
;
_chemical_formula_sum "Si O2"
_cell_formula_units_Z 44
_cell_length_a 12.601391
_cell_length_b 24.633876
_cell_length_c 9.566984
_cell_angle_alpha 90.000000
_cell_angle_beta 115.047131
_cell_angle_gamma 90.000000
_cell_volume 2690.513847
_symmetry_space_group_name_H-M "C 2/C"
_symmetry_group_IT_number 15
_symmetry_cell_setting 'monoclinic'
loop_
_space_group_symop_operation_xyz
x,y,z
-x,y,1/2-z
-x,-y,-z
x,-y,1/2+z
1/2+x,1/2+y,z
1/2-x,1/2+y,1/2-z
1/2-x,1/2-y,-z
1/2+x,1/2-y,1/2+z
loop_
_atom_site_type_symbol
_atom_site_label
_atom_site_fract_x
_atom_site_fract_y
_atom_site_fract_z
Si Si1 0.500000 0.868515 0.750000
Si Si2 0.393437 0.035658 0.375022
Si Si3 0.439301 0.260887 0.572662
Si Si4 0.358320 0.057885 0.654325
Si Si5 0.358996 0.781389 0.491896
Si Si6 0.211269 0.676901 0.852685
O O1 0.560387 0.910042 0.673961
O O2 0.408264 0.829556 0.618075
O O3 0.323265 0.049733 0.474134
O O4 0.500000 0.000000 0.500000
O O5 0.334111 0.995831 0.230556
O O6 0.500000 0.280528 0.750000
O O7 0.528218 0.254094 0.493321
O O8 0.334646 0.300119 0.471848
O O9 0.382417 0.202783 0.589101
O O10 0.500000 0.066880 0.750000
O O11 0.297830 0.112827 0.665601
O O12 0.250000 0.750000 0.500000
O O13 0.316728 0.801411 0.316781
#
# Coordination Sequence:
#
# PCOD9256895 Si02
#       6
#     4   8   8   8   8   8
#     4  12  20  32  52  74 118 146 172 226 282 324
#     4  10  18  30  47  74 109 138 174 223 278 331
#     4   9  19  36  53  75 106 142 186 222 268 335
#     4  10  18  30  49  75 109 135 174 221 277 330
#     4  11  22  33  51  81 113 145 183 223 272 329
#     4  10  19  33  55  75 107 147 180 220 275 326
#
# _framework density 16.353753000000001
#
# number of rings (size 3 to 8) (size 9 to 14) (size 15 to 20)
#    0.000    1.818    2.727    6.000    0.000    2.909 
#    0.000    0.000    0.000    0.000    0.000    5.091 
#    0.000    0.000    0.000    0.000    0.000    0.000 
#
# Total GULP energy -122543.025256 kJ/mol
# GULP energy per Si atom -5570.137512 kJ/mol
# Density = 1.631653 g / cm^3
# Si number density = 16.353753 Si / 1000 Ang^3
#
#
#
# Elastic Constant Matrix: (Units=GPa)
#
#
# Indices 1 2 3 4 5 6 
#
# 1 83.8407 43.4797 30.1319 0.0000 -9.2340 0.0000
# 2 43.4797 96.9996 39.1777 0.0000 -0.8839 0.0000
# 3 30.1319 39.1777 79.0838 0.0000 -1.9570 0.0000
# 4 0.0000 0.0000 0.0000 -199.2141 0.0000 222.8780
# 5 -9.2340 -0.8839 -1.9570 0.0000 30.8510 0.0000
# 6 0.0000 0.0000 0.0000 222.8780 0.0000 -210.0617
#
#
#
# Elastic Compliance Matrix: (Units=1/GPa)
#
#
# Indices 1 2 3 4 5 6 
#
# 1 0.016808 -0.006190 -0.003222 0.000000 0.004649 0.000000
# 2 -0.006190 0.015168 -0.005199 0.000000 -0.001748 0.000000
# 3 -0.003222 -0.005199 0.016446 0.000000 -0.000070 0.000000
# 4 0.000000 0.000000 0.000000 0.026837 0.000000 0.028474
# 5 0.004649 -0.001748 -0.000070 0.000000 0.033751 0.000000
# 6 0.000000 0.000000 0.000000 0.028474 0.000000 0.025451
#
#
# Mechanical properties :
#
#
# Convention : Reuss Voigt Hill
#
# Bulk Modulus (GPa) = 52.08528 53.94474 53.01501
# Shear Modulus (GPa) = 29.39740 -65.87598 -18.23929
#
# Velocity S-wave (km/s) = 4.24440 -6.35369 -3.34323
# Velocity P-wave (km/s) = 7.47919 4.55719 4.19346
#
# Compressibility (1/GPa) = 0.01919928
#
# Stress axis : x y z
#
# Youngs Moduli (GPa) = 59.49661 65.92877 60.80393
#
# Poissons Ratio (x) = 0.40811 0.19593
# Poissons Ratio (y) = 0.36829 0.31611
# Poissons Ratio (z) = 0.19172 0.34275
#
# Static dielectric constant tensor:
#      x y z
#    x 1.564460 0.000000 -0.026480 
#    y 0.000000 1.434070 0.000000 
#    z -0.026480 0.000000 1.566390 
# 
# From -- ./inp_files/31831.got.cif
#   From: 2010.05.17/outbox.cif.g08.bks.cpg/sg15_16_cif.got.tgz:31831.got - 2010.06.03 18:47:42.
