data_PCOD9256766
_publ_section_title
;
Structure prediction by ZEFSAII (Michael W. Deem and Ramdas Pophale) SiO2 
 PCOD9256766
Probable space group: C 2/C
;
_chemical_formula_sum "Si O2"
_cell_formula_units_Z 44
_cell_length_a 17.767173
_cell_length_b 25.927150
_cell_length_c 13.378099
_cell_angle_alpha 90.000000
_cell_angle_beta 22.535379
_cell_angle_gamma 90.000000
_cell_volume 2361.859330
_symmetry_space_group_name_H-M "C 2/C"
_symmetry_group_IT_number 15
_symmetry_cell_setting 'monoclinic'
loop_
_space_group_symop_operation_xyz
x,y,z
-x,y,1/2-z
-x,-y,-z
x,-y,1/2+z
1/2+x,1/2+y,z
1/2-x,1/2+y,1/2-z
1/2-x,1/2-y,-z
1/2+x,1/2-y,1/2+z
loop_
_atom_site_type_symbol
_atom_site_label
_atom_site_fract_x
_atom_site_fract_y
_atom_site_fract_z
Si Si1 0.946683 0.710193 0.430994
Si Si2 0.214586 0.492613 0.935651
Si Si3 0.279870 0.072025 0.272104
Si Si4 0.000000 0.002623 0.750000
Si Si5 0.858520 0.820829 0.519447
Si Si6 0.128689 0.601687 0.989955
O O1 0.000000 0.719526 0.250000
O O2 0.904917 0.767784 0.520300
O O3 0.800802 0.660751 0.614901
O O4 0.143978 0.690430 0.238643
O O5 0.200639 0.459358 0.853277
O O6 0.377846 0.473612 0.813957
O O7 0.264856 0.552369 0.844883
O O8 0.000000 0.493253 0.250000
O O9 0.164280 0.125469 0.396247
O O10 0.487231 0.084363 0.072302
O O11 0.159329 0.038200 0.499326
O O12 0.000000 0.829111 0.250000
O O13 0.000000 0.607020 0.250000
#
# Coordination Sequence:
#
# PCOD9256766 Si02
#       6
#     8   8   8   4   8   8
#     4   9  17  26  45  74 103 141 167 203 271 322
#     4  11  23  38  57  76 114 144 183 227 260 320
#     4  11  21  35  54  80 109 149 179 218 273 317
#     4  12  22  36  54  82 108 144 182 216 282 318
#     4  10  18  29  48  74 110 138 171 212 262 329
#     4   9  17  33  53  75 109 145 174 213 271 320
#
# _framework density 18.629390999999998
#
# number of rings (size 3 to 8) (size 9 to 14) (size 15 to 20)
#    0.000    1.818    4.545    3.273    0.000    1.455 
#    0.000    0.000    0.000    0.000    0.000    5.091 
#    2.727    0.000    0.000    0.000    0.000    0.000 
#
# Total GULP energy -122632.329733 kJ/mol
# GULP energy per Si atom -5574.196806 kJ/mol
# Density = 1.858699 g / cm^3
# Si number density = 18.629391 Si / 1000 Ang^3
#
#
#
# Elastic Constant Matrix: (Units=GPa)
#
#
# Indices 1 2 3 4 5 6 
#
# 1 84.8074 33.2474 12.9534 0.0056 -0.9629 0.0245
# 2 33.2474 113.2079 16.8358 0.1468 18.5411 -0.1295
# 3 12.9534 16.8358 23.0705 0.1981 4.6739 -0.0617
# 4 0.0056 0.1468 0.1981 2.4878 -0.0569 -4.6704
# 5 -0.9629 18.5411 4.6739 -0.0569 22.0010 -0.0201
# 6 0.0245 -0.1295 -0.0617 -4.6704 -0.0201 34.9742
#
#
#
# Elastic Compliance Matrix: (Units=1/GPa)
#
#
# Indices 1 2 3 4 5 6 
#
# 1 0.014453 -0.004234 -0.006150 0.001028 0.005510 0.000104
# 2 -0.004234 0.012345 -0.004682 -0.000667 -0.009596 -0.000054
# 3 -0.006150 -0.004682 0.051743 -0.005151 -0.007329 -0.000614
# 4 0.001028 -0.000667 -0.005151 0.537116 0.003157 0.071715
# 5 0.005510 -0.009596 -0.007329 0.003157 0.055347 0.000401
# 6 0.000104 -0.000054 -0.000614 0.071715 0.000401 0.038168
#
#
# Mechanical properties :
#
#
# Convention : Reuss Voigt Hill
#
# Bulk Modulus (GPa) = 20.65728 38.57320 29.61524
# Shear Modulus (GPa) = 6.61866 22.42921 14.52393
#
# Velocity S-wave (km/s) = 1.88693 3.47359 2.79521
# Velocity P-wave (km/s) = 3.98246 6.06946 5.13314
#
# Compressibility (1/GPa) = 0.04840909
#
# Stress axis : x y z
#
# Youngs Moduli (GPa) = 69.19001 81.00144 19.32632
#
# Poissons Ratio (x) = 0.34292 0.11886
# Poissons Ratio (y) = 0.29292 0.09049
# Poissons Ratio (z) = 0.42553 0.37928
#
# Static dielectric constant tensor:
#      x y z
#    x 1.659040 -0.000060 -0.071140 
#    y -0.000060 1.753500 0.000090 
#    z -0.071140 0.000090 1.684490 
# 
# From -- ./inp_files/92156.got.cif
#   From: 2010.05.17/outbox.cif.g08.bks.cpg/sg15_47_cif.got.tgz:92156.got - 2010.06.03 18:47:42.
