data_PCOD9256087
_publ_section_title
;
Structure prediction by ZEFSAII (Michael W. Deem and Ramdas Pophale) SiO2 
 PCOD9256087
Probable space group: C 2/C
;
_chemical_formula_sum "Si O2"
_cell_formula_units_Z 60
_cell_length_a 13.740035
_cell_length_b 12.235299
_cell_length_c 24.137039
_cell_angle_alpha 90.000000
_cell_angle_beta 64.403322
_cell_angle_gamma 90.000000
_cell_volume 3659.522119
_symmetry_space_group_name_H-M "C 2/C"
_symmetry_group_IT_number 15
_symmetry_cell_setting 'monoclinic'
loop_
_space_group_symop_operation_xyz
x,y,z
-x,y,1/2-z
-x,-y,-z
x,-y,1/2+z
1/2+x,1/2+y,z
1/2-x,1/2+y,1/2-z
1/2-x,1/2-y,-z
1/2+x,1/2-y,1/2+z
loop_
_atom_site_type_symbol
_atom_site_label
_atom_site_fract_x
_atom_site_fract_y
_atom_site_fract_z
Si Si1 0.962943 0.286000 0.988815
Si Si2 0.290004 0.301514 0.617673
Si Si3 0.089239 0.091133 0.570608
Si Si4 0.000000 0.051447 0.250000
Si Si5 0.897920 0.842518 0.305545
Si Si6 0.004269 0.863386 0.870660
Si Si7 0.815469 0.434658 0.953519
Si Si8 0.138297 0.315018 0.035796
O O1 0.975833 0.168773 0.955396
O O2 0.916522 0.370461 0.955257
O O3 0.866798 0.267160 0.057012
O O4 0.069556 0.321338 0.995423
O O5 0.211055 0.223798 0.671315
O O6 0.374095 0.358871 0.637355
O O7 0.219649 0.382809 0.596597
O O8 0.082335 0.141225 0.633781
O O9 0.211677 0.088581 0.518359
O O10 0.048551 0.967877 0.585924
O O11 0.998394 0.118176 0.194208
O O12 0.099323 0.964451 0.221295
O O13 0.000000 0.787399 0.250000
O O14 0.937541 0.756985 0.905353
O O15 0.838221 0.563492 0.948039
O O16 0.250000 0.250000 0.000000
#
# Coordination Sequence:
#
# PCOD9256087 Si02
#       8
#     8   8   8   4   8   8   8   8
#     4  10  20  33  56  80 112 146 175 223 269 323
#     4  10  19  33  59  82 105 134 184 230 275 308
#     4  10  17  34  58  82 103 140 190 222 261 316
#     4   8  20  38  60  70 100 148 190 222 260 318
#     4   9  17  33  60  78  97 132 185 238 260 301
#     4  10  21  37  56  80 108 147 182 221 265 331
#     4  11  19  34  55  82 115 145 170 225 278 321
#     4  11  23  33  50  83 122 148 172 212 275 343
#
# _framework density 16.395582999999998
#
# number of rings (size 3 to 8) (size 9 to 14) (size 15 to 20)
#    0.400    1.600    4.000    1.200    1.867    1.600 
#    0.000    2.667    7.333    0.000    0.000    0.000 
#    0.000    0.000    0.000    0.000    0.000    0.000 
#
# Total GULP energy -167091.164149 kJ/mol
# GULP energy per Si atom -5569.705472 kJ/mol
# Density = 1.635827 g / cm^3
# Si number density = 16.395583 Si / 1000 Ang^3
#
#
#
# Elastic Constant Matrix: (Units=GPa)
#
#
# Indices 1 2 3 4 5 6 
#
# 1 105.4419 42.1218 24.9267 0.0000 8.1606 0.0000
# 2 42.1218 81.5715 24.5391 0.0000 9.0031 0.0000
# 3 24.9267 24.5391 73.5056 0.0000 1.3115 0.0000
# 4 0.0000 0.0000 0.0000 18.4617 0.0000 -2.8144
# 5 8.1606 9.0031 1.3115 0.0000 14.6389 0.0000
# 6 0.0000 0.0000 0.0000 -2.8144 0.0000 16.6860
#
#
#
# Elastic Compliance Matrix: (Units=1/GPa)
#
#
# Indices 1 2 3 4 5 6 
#
# 1 0.012442 -0.005329 -0.002379 0.000000 -0.003445 0.000000
# 2 -0.005329 0.016911 -0.003712 0.000000 -0.007097 0.000000
# 3 -0.002379 -0.003712 0.015611 0.000000 0.002210 0.000000
# 4 0.000000 0.000000 0.000000 0.055596 0.000000 0.009377
# 5 -0.003445 -0.007097 0.002210 0.000000 0.074399 0.000000
# 6 0.000000 0.000000 0.000000 0.009377 0.000000 0.061512
#
#
# Mechanical properties :
#
#
# Convention : Reuss Voigt Hill
#
# Bulk Modulus (GPa) = 45.19846 49.29937 47.24892
# Shear Modulus (GPa) = 18.74882 21.21939 19.98410
#
# Velocity S-wave (km/s) = 3.38528 3.60142 3.49502
# Velocity P-wave (km/s) = 6.55038 6.88677 6.72068
#
# Compressibility (1/GPa) = 0.02212465
#
# Stress axis : x y z
#
# Youngs Moduli (GPa) = 80.37559 59.13391 64.05834
#
# Poissons Ratio (x) = 0.31511 0.15237
# Poissons Ratio (y) = 0.42830 0.23777
# Poissons Ratio (z) = 0.19119 0.21949
#
# Static dielectric constant tensor:
#      x y z
#    x 1.549030 0.000000 0.001180 
#    y 0.000000 1.565720 0.000000 
#    z 0.001180 0.000000 1.542950 
# 
# From -- ./inp_files/268791.got.cif
#   From: 2010.05.17/outbox.cif.g08.bks.cpg/sg15_135_cif.got.tgz:268791.got - 2010.06.03 18:47:42.
