data_PCOD9256203
_publ_section_title
;
Structure prediction by ZEFSAII (Michael W. Deem and Ramdas Pophale) SiO2 
 PCOD9256203
Probable space group: C 2/C
;
_chemical_formula_sum "Si O2"
_cell_formula_units_Z 56
_cell_length_a 18.521303
_cell_length_b 14.704915
_cell_length_c 11.955211
_cell_angle_alpha 90.000000
_cell_angle_beta 113.415158
_cell_angle_gamma 90.000000
_cell_volume 2987.914356
_symmetry_space_group_name_H-M "C 2/C"
_symmetry_group_IT_number 15
_symmetry_cell_setting 'monoclinic'
loop_
_space_group_symop_operation_xyz
x,y,z
-x,y,1/2-z
-x,-y,-z
x,-y,1/2+z
1/2+x,1/2+y,z
1/2-x,1/2+y,1/2-z
1/2-x,1/2-y,-z
1/2+x,1/2-y,1/2+z
loop_
_atom_site_type_symbol
_atom_site_label
_atom_site_fract_x
_atom_site_fract_y
_atom_site_fract_z
Si Si1 0.204399 0.868147 0.462197
Si Si2 0.814195 0.623461 0.549537
Si Si3 0.589638 0.269567 0.779637
Si Si4 0.831042 0.053440 0.172095
Si Si5 0.154952 0.709381 0.576733
Si Si6 0.091358 0.510613 0.536743
Si Si7 0.777184 0.518708 0.197537
O O1 0.149204 0.794134 0.487577
O O2 0.254485 0.822530 0.392256
O O3 0.266469 0.905198 0.594695
O O4 0.164093 0.960242 0.393875
O O5 0.855035 0.718649 0.596303
O O6 0.742462 0.613416 0.420176
O O7 0.879720 0.552530 0.546482
O O8 0.781570 0.579542 0.642961
O O9 0.500000 0.241347 0.750000
O O10 0.597227 0.378229 0.789957
O O11 0.625116 0.240959 0.680258
O O12 0.800949 0.027882 0.276294
O O13 0.108864 0.616271 0.524590
O O14 0.146271 0.478985 0.675421
O O15 0.000000 0.500000 0.500000
#
# Coordination Sequence:
#
# PCOD9256203 Si02
#       7
#     8   8   8   8   8   8   8
#     4  10  20  37  63  86 110 145 206 245 277 335
#     4  10  20  35  56  84 113 147 194 236 284 343
#     4  12  23  36  58  86 120 154 188 234 298 354
#     4  10  20  37  57  85 112 148 197 242 285 336
#     4  11  20  36  61  86 109 154 192 239 286 349
#     4  11  21  33  54  87 125 150 183 230 302 353
#     4  10  17  35  57  84 112 150 186 242 287 332
#
# _framework density 18.742170999999999
#
# number of rings (size 3 to 8) (size 9 to 14) (size 15 to 20)
#    0.000    1.429    7.143    1.286    0.000    0.000 
#    0.000    0.714    0.000    3.429    0.000    0.000 
#    0.000    0.000    0.000    0.000    0.000    0.000 
#
# Total GULP energy -155936.297517 kJ/mol
# GULP energy per Si atom -5569.153483 kJ/mol
# Density = 1.869951 g / cm^3
# Si number density = 18.742171 Si / 1000 Ang^3
#
#
#
# Elastic Constant Matrix: (Units=GPa)
#
#
# Indices 1 2 3 4 5 6 
#
# 1 72.1727 34.1001 18.0920 0.0000 -13.4583 0.0000
# 2 34.1001 124.3779 17.1498 0.0000 -12.9251 0.0000
# 3 18.0920 17.1498 34.1748 0.0000 -19.9415 0.0000
# 4 0.0000 0.0000 0.0000 17.6060 0.0000 -5.8147
# 5 -13.4583 -12.9251 -19.9415 0.0000 18.6425 0.0000
# 6 0.0000 0.0000 0.0000 -5.8147 0.0000 26.6676
#
#
#
# Elastic Compliance Matrix: (Units=1/GPa)
#
#
# Indices 1 2 3 4 5 6 
#
# 1 0.017717 -0.003683 -0.004145 0.000000 0.005803 0.000000
# 2 -0.003683 0.009495 -0.001398 0.000000 0.002429 0.000000
# 3 -0.004145 -0.001398 0.079412 0.000000 0.080984 0.000000
# 4 0.000000 0.000000 0.000000 0.061206 0.000000 0.013346
# 5 0.005803 0.002429 0.080984 0.000000 0.146141 0.000000
# 6 0.000000 0.000000 0.000000 0.013346 0.000000 0.040409
#
#
# Mechanical properties :
#
#
# Convention : Reuss Voigt Hill
#
# Bulk Modulus (GPa) = 11.34135 41.04548 26.19341
# Shear Modulus (GPa) = 12.43096 23.34212 17.88654
#
# Velocity S-wave (km/s) = 2.57818 3.53290 3.09260
# Velocity P-wave (km/s) = 3.86356 6.21204 5.17284
#
# Compressibility (1/GPa) = 0.08817294
#
# Stress axis : x y z
#
# Youngs Moduli (GPa) = 56.44348 105.32014 12.59253
#
# Poissons Ratio (x) = 0.38787 0.05220
# Poissons Ratio (y) = 0.20787 0.01760
# Poissons Ratio (z) = 0.23396 0.14720
#
# Static dielectric constant tensor:
#      x y z
#    x 1.642640 0.000000 -0.030610 
#    y 0.000000 1.686360 0.000000 
#    z -0.030610 0.000000 1.703000 
# 
# From -- ./inp_files/105432.got.cif
#   From: 2010.05.17/outbox.cif.g08.bks.cpg/sg15_53_cif.got.tgz:105432.got - 2010.06.03 18:47:42.
