data_PCOD9256717
_publ_section_title
;
Structure prediction by ZEFSAII (Michael W. Deem and Ramdas Pophale) SiO2 
 PCOD9256717
Probable space group: C 2/C
;
_chemical_formula_sum "Si O2"
_cell_formula_units_Z 44
_cell_length_a 9.761174
_cell_length_b 26.401180
_cell_length_c 8.216901
_cell_angle_alpha 90.000000
_cell_angle_beta 52.966369
_cell_angle_gamma 90.000000
_cell_volume 1690.401429
_symmetry_space_group_name_H-M "C 2/C"
_symmetry_group_IT_number 15
_symmetry_cell_setting 'monoclinic'
loop_
_space_group_symop_operation_xyz
x,y,z
-x,y,1/2-z
-x,-y,-z
x,-y,1/2+z
1/2+x,1/2+y,z
1/2-x,1/2+y,1/2-z
1/2-x,1/2-y,-z
1/2+x,1/2-y,1/2+z
loop_
_atom_site_type_symbol
_atom_site_label
_atom_site_fract_x
_atom_site_fract_y
_atom_site_fract_z
Si Si1 0.000000 0.574567 0.750000
Si Si2 0.602454 0.588166 0.344155
Si Si3 0.220818 0.107999 0.702131
Si Si4 0.204619 0.686414 0.393967
Si Si5 0.195161 0.293203 0.276111
Si Si6 0.195640 0.499601 0.423627
O O1 0.898036 0.605808 0.686463
O O2 0.162074 0.539073 0.591090
O O3 0.500000 0.593560 0.250000
O O4 0.460380 0.597365 0.582253
O O5 0.745062 0.632732 0.223574
O O6 0.679131 0.531318 0.282068
O O7 0.218123 0.167204 0.660509
O O8 0.252729 0.057540 0.572721
O O9 0.261792 0.690126 0.545043
O O10 0.278271 0.733262 0.239550
O O11 0.005836 0.699455 0.552489
O O12 0.000000 0.500000 0.500000
#
# Coordination Sequence:
#
# PCOD9256717 Si02
#       6
#     4   8   8   8   8   8
#     4  10  18  34  48  70  94 130 166 212 254 300
#     4  12  20  32  49  72 103 138 173 205 247 298
#     4  11  20  32  50  71 102 134 170 210 248 297
#     4  10  19  28  45  67  98 138 163 201 240 296
#     4  10  18  29  44  69  99 131 174 197 238 296
#     4  10  21  34  51  70  97 136 171 210 255 296
#
# _framework density 26.029322000000001
#
# number of rings (size 3 to 8) (size 9 to 14) (size 15 to 20)
#    0.000    1.455    3.636    4.909    2.545    0.000 
#    0.000    0.000    0.000    0.000    0.000    0.000 
#    0.000   23.273   13.091    1.091    0.000    0.182 
#
# Total GULP energy -122725.904683 kJ/mol
# GULP energy per Si atom -5578.450213 kJ/mol
# Density = 2.597008 g / cm^3
# Si number density = 26.029322 Si / 1000 Ang^3
#
#
#
# Elastic Constant Matrix: (Units=GPa)
#
#
# Indices 1 2 3 4 5 6 
#
# 1 33.5876 11.3299 13.3467 0.0000 -10.7882 0.0000
# 2 11.3299 194.3857 32.2001 0.0000 -14.3156 0.0000
# 3 13.3467 32.2001 97.0327 0.0000 -23.3338 0.0000
# 4 0.0000 0.0000 0.0000 62.2363 0.0000 -5.9079
# 5 -10.7882 -14.3156 -23.3338 0.0000 26.5530 0.0000
# 6 0.0000 0.0000 0.0000 -5.9079 0.0000 28.9183
#
#
#
# Elastic Compliance Matrix: (Units=1/GPa)
#
#
# Indices 1 2 3 4 5 6 
#
# 1 0.034606 -0.000862 -0.001527 0.000000 0.012253 0.000000
# 2 -0.000862 0.005527 -0.001373 0.000000 0.001423 0.000000
# 3 -0.001527 -0.001373 0.013496 0.000000 0.010499 0.000000
# 4 0.000000 0.000000 0.000000 0.016386 0.000000 0.003348
# 5 0.012253 0.001423 0.010499 0.000000 0.052632 0.000000
# 6 0.000000 0.000000 0.000000 0.003348 0.000000 0.035264
#
#
# Mechanical properties :
#
#
# Convention : Reuss Voigt Hill
#
# Bulk Modulus (GPa) = 21.68985 48.75103 35.22044
# Shear Modulus (GPa) = 27.65414 41.41680 34.53547
#
# Velocity S-wave (km/s) = 3.26302 3.99326 3.64647
# Velocity P-wave (km/s) = 4.74840 6.32704 5.59369
#
# Compressibility (1/GPa) = 0.04610451
#
# Stress axis : x y z
#
# Youngs Moduli (GPa) = 28.89649 180.93255 74.09368
#
# Poissons Ratio (x) = 0.15589 0.11318
# Poissons Ratio (y) = 0.02490 0.10176
# Poissons Ratio (z) = 0.04414 0.24850
#
# Static dielectric constant tensor:
#      x y z
#    x 2.359410 0.000000 0.238780 
#    y 0.000000 2.161050 0.000000 
#    z 0.238780 0.000000 2.193790 
# 
# From -- ./inp_files/31824.got.cif
#   From: 2010.05.17/outbox.cif.g08.bks.cpg/sg15_16_cif.got.tgz:31824.got - 2010.06.03 18:47:42.
