data_PCOD9256197
_publ_section_title
;
Structure prediction by ZEFSAII (Michael W. Deem and Ramdas Pophale) SiO2 
 PCOD9256197
Probable space group: C 2/C
;
_chemical_formula_sum "Si O2"
_cell_formula_units_Z 64
_cell_length_a 21.350365
_cell_length_b 9.160954
_cell_length_c 16.516369
_cell_angle_alpha 90.000000
_cell_angle_beta 68.547384
_cell_angle_gamma 90.000000
_cell_volume 3006.628658
_symmetry_space_group_name_H-M "C 2/C"
_symmetry_group_IT_number 15
_symmetry_cell_setting 'monoclinic'
loop_
_space_group_symop_operation_xyz
x,y,z
-x,y,1/2-z
-x,-y,-z
x,-y,1/2+z
1/2+x,1/2+y,z
1/2-x,1/2+y,1/2-z
1/2-x,1/2-y,-z
1/2+x,1/2-y,1/2+z
loop_
_atom_site_type_symbol
_atom_site_label
_atom_site_fract_x
_atom_site_fract_y
_atom_site_fract_z
Si Si1 0.078973 0.343772 0.430231
Si Si2 0.781554 0.327797 0.097897
Si Si3 0.937836 0.898732 0.422918
Si Si4 0.061017 0.641066 0.538529
Si Si5 0.181778 0.991916 0.442565
Si Si6 0.915282 0.854953 0.123607
Si Si7 0.132882 0.258566 0.689461
Si Si8 0.680945 0.035430 0.572051
O O1 0.157190 0.352138 0.367415
O O2 0.071259 0.206572 0.494617
O O3 0.066439 0.481322 0.494947
O O4 0.016724 0.340164 0.397833
O O5 0.792809 0.159687 0.065047
O O6 0.703645 0.330852 0.157969
O O7 0.797388 0.439228 0.017493
O O8 0.879509 0.017028 0.464577
O O9 0.917361 0.811288 0.352668
O O10 0.015859 0.942044 0.389362
O O11 0.072899 0.751401 0.458993
O O12 0.121314 0.642491 0.573907
O O13 0.248771 0.900217 0.428461
O O14 0.147364 0.954489 0.373373
O O15 0.898960 0.755038 0.207714
O O16 0.150374 0.420471 0.650780
#
# Coordination Sequence:
#
# PCOD9256197 Si02
#       8
#     8   8   8   8   8   8   8   8
#     4   8  15  29  56  77  96 132 188 213 236 309
#     4   9  16  33  59  73  89 139 188 210 238 324
#     4  10  17  35  57  74 101 145 183 212 249 327
#     4   9  17  32  49  81 108 133 170 218 268 307
#     4  10  18  34  52  78 104 143 182 207 258 326
#     4  11  24  30  47  87 119 125 162 239 283 294
#     4  11  18  34  53  80 102 131 180 227 260 297
#     4  10  17  35  63  71  97 145 190 209 242 335
#
# _framework density 21.286301000000002
#
# number of rings (size 3 to 8) (size 9 to 14) (size 15 to 20)
#    0.000    2.250    5.000    1.500    0.000    0.500 
#    9.000    0.000    0.000    0.000    0.000    0.000 
#    3.750    0.000    0.000    0.000    0.000    0.000 
#
# Total GULP energy -178214.041022 kJ/mol
# GULP energy per Si atom -5569.188782 kJ/mol
# Density = 2.123785 g / cm^3
# Si number density = 21.286301 Si / 1000 Ang^3
#
#
#
# Elastic Constant Matrix: (Units=GPa)
#
#
# Indices 1 2 3 4 5 6 
#
# 1 228.2868 13.1388 19.8033 0.0000 22.4688 0.0000
# 2 13.1388 28.9643 4.9343 0.0000 2.4127 0.0000
# 3 19.8033 4.9343 33.6018 0.0000 8.2320 0.0000
# 4 0.0000 0.0000 0.0000 12.5984 0.0000 8.0573
# 5 22.4688 2.4127 8.2320 0.0000 10.6920 0.0000
# 6 0.0000 0.0000 0.0000 8.0573 0.0000 23.5805
#
#
#
# Elastic Compliance Matrix: (Units=1/GPa)
#
#
# Indices 1 2 3 4 5 6 
#
# 1 0.005597 -0.001552 -0.000339 0.000000 -0.011150 0.000000
# 2 -0.001552 0.036052 -0.003926 0.000000 -0.001851 0.000000
# 3 -0.000339 -0.003926 0.037153 0.000000 -0.027007 0.000000
# 4 0.000000 0.000000 0.000000 0.101572 0.000000 -0.034707
# 5 -0.011150 -0.001851 -0.027007 0.000000 0.138170 0.000000
# 6 0.000000 0.000000 0.000000 -0.034707 0.000000 0.054267
#
#
# Mechanical properties :
#
#
# Convention : Reuss Voigt Hill
#
# Bulk Modulus (GPa) = 14.88813 40.73398 27.81105
# Shear Modulus (GPa) = 12.29000 26.23926 19.26463
#
# Velocity S-wave (km/s) = 2.40545 3.51477 3.01163
# Velocity P-wave (km/s) = 3.83723 5.97070 5.01864
#
# Compressibility (1/GPa) = 0.06716762
#
# Stress axis : x y z
#
# Youngs Moduli (GPa) = 178.67989 27.73746 26.91584
#
# Poissons Ratio (x) = 0.04306 0.00912
# Poissons Ratio (y) = 0.27735 0.10567
# Poissons Ratio (z) = 0.06054 0.10890
#
# Static dielectric constant tensor:
#      x y z
#    x 1.930610 0.000000 0.002590 
#    y 0.000000 1.838490 0.000000 
#    z 0.002590 0.000000 1.726460 
# 
# From -- ./inp_files/214570.got.cif
#   From: 2010.05.17/outbox.cif.g08.bks.cpg/sg15_108_cif.got.tgz:214570.got - 2010.06.03 18:47:42.
