data_PCOD9256800
_publ_section_title
;
Structure prediction by ZEFSAII (Michael W. Deem and Ramdas Pophale) SiO2 
 PCOD9256800
Probable space group: C 2/C
;
_chemical_formula_sum "Si O2"
_cell_formula_units_Z 64
_cell_length_a 9.740655
_cell_length_b 24.072896
_cell_length_c 20.167549
_cell_angle_alpha 90.000000
_cell_angle_beta 47.609902
_cell_angle_gamma 90.000000
_cell_volume 3492.708822
_symmetry_space_group_name_H-M "C 2/C"
_symmetry_group_IT_number 15
_symmetry_cell_setting 'monoclinic'
loop_
_space_group_symop_operation_xyz
x,y,z
-x,y,1/2-z
-x,-y,-z
x,-y,1/2+z
1/2+x,1/2+y,z
1/2-x,1/2+y,1/2-z
1/2-x,1/2-y,-z
1/2+x,1/2-y,1/2+z
loop_
_atom_site_type_symbol
_atom_site_label
_atom_site_fract_x
_atom_site_fract_y
_atom_site_fract_z
Si Si1 0.449947 0.101707 0.606678
Si Si2 0.724886 0.436801 0.413925
Si Si3 0.423956 0.532552 0.114830
Si Si4 0.171354 0.140342 0.812398
Si Si5 0.290270 0.803458 0.532388
Si Si6 0.386283 0.444554 0.355102
Si Si7 0.930116 0.865371 0.697494
Si Si8 0.280233 0.260728 0.803449
O O1 0.611160 0.065278 0.586958
O O2 0.314240 0.118652 0.710751
O O3 0.545669 0.157188 0.546650
O O4 0.325047 0.068342 0.594889
O O5 0.726712 0.489600 0.364359
O O6 0.533009 0.441388 0.517047
O O7 0.729565 0.382682 0.365698
O O8 0.568468 0.494488 0.109672
O O9 0.354343 0.580837 0.185542
O O10 0.182991 0.206284 0.808120
O O11 0.977720 0.110984 0.856860
O O12 0.250000 0.750000 0.500000
O O13 0.317592 0.780311 0.597420
O O14 0.107840 0.842537 0.598881
O O15 0.500000 0.456143 0.250000
O O16 0.793060 0.813252 0.750545
O O17 0.000000 0.878277 0.750000
O O18 0.500000 0.248319 0.750000
#
# Coordination Sequence:
#
# PCOD9256800 Si02
#       8
#     8   8   8   8   8   8   8   8
#     4  11  19  34  55  81 106 139 186 228 273 321
#     4  10  20  31  55  80 108 142 176 233 265 326
#     4  10  19  35  52  81 111 142 182 218 284 320
#     4  10  19  36  53  80 111 137 186 228 277 318
#     4  10  18  29  50  82 107 136 184 228 268 323
#     4   9  21  35  55  78 106 149 181 228 276 328
#     4   9  18  32  50  78 111 146 179 219 274 333
#     4   9  18  30  52  81 107 145 181 226 274 323
#
# _framework density 18.323886999999999
#
# number of rings (size 3 to 8) (size 9 to 14) (size 15 to 20)
#    0.000    2.500    1.250    3.750    0.000    0.500 
#    0.000    0.625    2.750    0.000    0.000    5.250 
#    0.000    0.000    0.000    0.000    0.000    0.000 
#
# Total GULP energy -178426.785364 kJ/mol
# GULP energy per Si atom -5575.837043 kJ/mol
# Density = 1.828218 g / cm^3
# Si number density = 18.323887 Si / 1000 Ang^3
#
#
#
# Elastic Constant Matrix: (Units=GPa)
#
#
# Indices 1 2 3 4 5 6 
#
# 1 59.2661 24.2582 13.2044 0.0000 -3.5204 0.0000
# 2 24.2582 106.8013 21.9504 0.0000 9.3948 0.0000
# 3 13.2044 21.9504 54.7804 0.0000 7.3802 0.0000
# 4 0.0000 0.0000 0.0000 27.3649 0.0000 5.1857
# 5 -3.5204 9.3948 7.3802 0.0000 15.7032 0.0000
# 6 0.0000 0.0000 0.0000 5.1857 0.0000 13.8890
#
#
#
# Elastic Compliance Matrix: (Units=1/GPa)
#
#
# Indices 1 2 3 4 5 6 
#
# 1 0.020237 -0.004526 -0.004314 0.000000 0.009272 0.000000
# 2 -0.004526 0.011518 -0.002625 0.000000 -0.006671 0.000000
# 3 -0.004314 -0.002625 0.021635 0.000000 -0.009564 0.000000
# 4 0.000000 0.000000 0.000000 0.039326 0.000000 -0.014683
# 5 0.009272 -0.006671 -0.009564 0.000000 0.074246 0.000000
# 6 0.000000 0.000000 0.000000 -0.014683 0.000000 0.077481
#
#
# Mechanical properties :
#
#
# Convention : Reuss Voigt Hill
#
# Bulk Modulus (GPa) = 32.82958 37.74151 35.28555
# Shear Modulus (GPa) = 18.01633 22.15374 20.08503
#
# Velocity S-wave (km/s) = 3.13903 3.48085 3.31435
# Velocity P-wave (km/s) = 5.57613 6.06603 5.82623
#
# Compressibility (1/GPa) = 0.03046033
#
# Stress axis : x y z
#
# Youngs Moduli (GPa) = 49.41386 86.82423 46.22128
#
# Poissons Ratio (x) = 0.39293 0.19939
# Poissons Ratio (y) = 0.22363 0.12135
# Poissons Ratio (z) = 0.21316 0.22795
#
# Static dielectric constant tensor:
#      x y z
#    x 1.641960 0.000000 0.011230 
#    y 0.000000 1.641510 0.000000 
#    z 0.011230 0.000000 1.639440 
# 
# From -- ./inp_files/234416.got.cif
#   From: 2010.05.17/outbox.cif.g08.bks.cpg/sg15_118_cif.got.tgz:234416.got - 2010.06.03 18:47:42.
