data_PCOD9256997
_publ_section_title
;
Structure prediction by ZEFSAII (Michael W. Deem and Ramdas Pophale) SiO2 
 PCOD9256997
Probable space group: C 2/C
;
_chemical_formula_sum "Si O2"
_cell_formula_units_Z 52
_cell_length_a 10.297287
_cell_length_b 27.512661
_cell_length_c 11.058892
_cell_angle_alpha 90.000000
_cell_angle_beta 87.203830
_cell_angle_gamma 90.000000
_cell_volume 3129.317669
_symmetry_space_group_name_H-M "C 2/C"
_symmetry_group_IT_number 15
_symmetry_cell_setting 'monoclinic'
loop_
_space_group_symop_operation_xyz
x,y,z
-x,y,1/2-z
-x,-y,-z
x,-y,1/2+z
1/2+x,1/2+y,z
1/2-x,1/2+y,1/2-z
1/2-x,1/2-y,-z
1/2+x,1/2-y,1/2+z
loop_
_atom_site_type_symbol
_atom_site_label
_atom_site_fract_x
_atom_site_fract_y
_atom_site_fract_z
Si Si1 0.256962 0.652337 0.567536
Si Si2 0.279816 0.355644 0.351829
Si Si3 0.972864 0.806505 0.528887
Si Si4 0.908730 0.043227 0.873509
Si Si5 0.482159 0.802735 0.105992
Si Si6 0.000000 0.871020 0.750000
Si Si7 0.634325 0.437380 0.556618
O O1 0.284230 0.655356 0.709205
O O2 0.375064 0.681040 0.498916
O O3 0.116332 0.675052 0.550645
O O4 0.267189 0.596312 0.523114
O O5 0.389777 0.326974 0.421395
O O6 0.310243 0.412520 0.362609
O O7 0.139681 0.338463 0.405225
O O8 0.936409 0.836625 0.651348
O O9 0.954407 0.749608 0.549893
O O10 0.000000 0.037861 0.750000
O O11 0.838114 0.992612 0.907394
O O12 0.005605 0.057865 0.978420
O O13 0.500000 0.795951 0.250000
O O14 0.900858 0.906333 0.823416
#
# Coordination Sequence:
#
# PCOD9256997 Si02
#       7
#     8   8   8   8   8   4   8
#     4  10  20  36  55  79 108 140 179 219 265 314
#     4  11  20  35  55  82 108 136 182 220 260 317
#     4  11  19  35  56  77 107 141 183 220 251 312
#     4  11  18  32  54  84 102 132 178 227 264 307
#     4  10  22  35  53  79 112 145 172 215 271 318
#     4  10  18  30  50  82 106 130 172 224 262 300
#     4  10  20  31  54  79 108 133 171 226 269 304
#
# _framework density 16.617039999999999
#
# number of rings (size 3 to 8) (size 9 to 14) (size 15 to 20)
#    0.000    1.538    6.154    1.385    0.000    0.000 
#    0.000    0.769    0.000    0.000    0.000    0.000 
#    0.000    0.000    0.000    0.000    0.000    0.000 
#
# Total GULP energy -144964.251708 kJ/mol
# GULP energy per Si atom -5575.548143 kJ/mol
# Density = 1.657922 g / cm^3
# Si number density = 16.617040 Si / 1000 Ang^3
#
#
#
# Elastic Constant Matrix: (Units=GPa)
#
#
# Indices 1 2 3 4 5 6 
#
# 1 58.2112 33.5392 24.8126 0.0000 -11.2067 0.0000
# 2 33.5392 122.8658 37.5751 0.0000 0.2538 0.0000
# 3 24.8126 37.5751 63.4801 0.0000 -7.7296 0.0000
# 4 0.0000 0.0000 0.0000 23.2018 0.0000 -5.8459
# 5 -11.2067 0.2538 -7.7296 0.0000 11.7029 0.0000
# 6 0.0000 0.0000 0.0000 -5.8459 0.0000 4.4034
#
#
#
# Elastic Compliance Matrix: (Units=1/GPa)
#
#
# Indices 1 2 3 4 5 6 
#
# 1 0.026930 -0.006161 -0.004049 0.000000 0.023248 0.000000
# 2 -0.006161 0.011566 -0.005641 0.000000 -0.009876 0.000000
# 3 -0.004049 -0.005641 0.021985 0.000000 0.010766 0.000000
# 4 0.000000 0.000000 0.000000 0.064764 0.000000 0.085980
# 5 0.023248 -0.009876 0.010766 0.000000 0.115036 0.000000
# 6 0.000000 0.000000 0.000000 0.085980 0.000000 0.341245
#
#
# Mechanical properties :
#
#
# Convention : Reuss Voigt Hill
#
# Bulk Modulus (GPa) = 34.74544 48.49010 41.61777
# Shear Modulus (GPa) = 8.02799 17.77029 12.89914
#
# Velocity S-wave (km/s) = 2.20038 3.27372 2.78917
# Velocity P-wave (km/s) = 5.23550 6.59803 5.95585
#
# Compressibility (1/GPa) = 0.02878076
#
# Stress axis : x y z
#
# Youngs Moduli (GPa) = 37.13347 86.45868 45.48516
#
# Poissons Ratio (x) = 0.53268 0.18415
# Poissons Ratio (y) = 0.22878 0.25657
# Poissons Ratio (z) = 0.15034 0.48768
#
# Static dielectric constant tensor:
#      x y z
#    x 1.532380 0.000000 -0.007840 
#    y 0.000000 1.569440 0.000000 
#    z -0.007840 0.000000 1.576370 
# 
# From -- ./inp_files/80706.got.cif
#   From: 2010.05.17/outbox.cif.g08.bks.cpg/sg15_41_cif.got.tgz:80706.got - 2010.06.03 18:47:42.
