data_PCOD9256415
_publ_section_title
;
Structure prediction by ZEFSAII (Michael W. Deem and Ramdas Pophale) SiO2 
 PCOD9256415
Probable space group: C 2/C
;
_chemical_formula_sum "Si O2"
_cell_formula_units_Z 48
_cell_length_a 13.797167
_cell_length_b 12.828405
_cell_length_c 10.298960
_cell_angle_alpha 90.000000
_cell_angle_beta 83.192590
_cell_angle_gamma 90.000000
_cell_volume 1810.020179
_symmetry_space_group_name_H-M "C 2/C"
_symmetry_group_IT_number 15
_symmetry_cell_setting 'monoclinic'
loop_
_space_group_symop_operation_xyz
x,y,z
-x,y,1/2-z
-x,-y,-z
x,-y,1/2+z
1/2+x,1/2+y,z
1/2-x,1/2+y,1/2-z
1/2-x,1/2-y,-z
1/2+x,1/2-y,1/2+z
loop_
_atom_site_type_symbol
_atom_site_label
_atom_site_fract_x
_atom_site_fract_y
_atom_site_fract_z
Si Si1 0.086993 0.935284 0.085313
Si Si2 0.747929 0.157055 0.103621
Si Si3 0.327667 0.809399 0.614518
Si Si4 0.000000 0.764225 0.250000
Si Si5 0.500000 0.824537 0.250000
Si Si6 0.899360 0.517041 0.937025
Si Si7 0.572602 0.347908 0.563398
O O1 0.087459 0.840038 0.186035
O O2 0.095746 0.049982 0.144999
O O3 0.164095 0.916200 0.958726
O O4 0.980911 0.907443 0.044191
O O5 0.747035 0.194412 0.253263
O O6 0.650299 0.089104 0.099074
O O7 0.750000 0.250000 0.000000
O O8 0.439396 0.802931 0.656799
O O9 0.327446 0.920308 0.543781
O O10 0.337096 0.714273 0.510325
O O11 0.582025 0.905421 0.188379
O O12 0.499692 0.739725 0.366497
O O13 0.000000 0.500000 0.000000
#
# Coordination Sequence:
#
# PCOD9256415 Si02
#       7
#     8   8   8   4   4   8   8
#     4  10  21  40  66  95 132 170 230 268 338 401
#     4  12  25  42  64 101 132 178 224 282 331 401
#     4  10  21  39  61  92 130 168 220 269 335 394
#     4  10  17  37  68  88 124 178 223 273 330 414
#     4  10  21  43  70  94 128 174 227 271 342 412
#     4  11  24  42  66  96 132 177 220 275 339 405
#     4   9  21  41  67  96 124 184 215 279 334 409
#
# _framework density 26.519043
#
# number of rings (size 3 to 8) (size 9 to 14) (size 15 to 20)
#    0.000    1.667    1.667    2.500    4.667    1.333 
#    9.000    1.667    0.000    0.000    0.000    0.000 
#    0.000    0.000    0.000    0.000    0.000    0.000 
#
# Total GULP energy -134035.125597 kJ/mol
# GULP energy per Si atom -5584.796900 kJ/mol
# Density = 2.645868 g / cm^3
# Si number density = 26.519043 Si / 1000 Ang^3
#
#
#
# Elastic Constant Matrix: (Units=GPa)
#
#
# Indices 1 2 3 4 5 6 
#
# 1 69.5955 27.3205 3.1602 0.0000 -20.6154 0.0000
# 2 27.3205 185.4601 62.8540 0.0000 -7.6771 0.0000
# 3 3.1602 62.8540 161.8804 0.0000 -40.1680 0.0000
# 4 0.0000 0.0000 0.0000 45.9290 0.0000 -11.8702
# 5 -20.6154 -7.6771 -40.1680 0.0000 36.6191 0.0000
# 6 0.0000 0.0000 0.0000 -11.8702 0.0000 41.8323
#
#
#
# Elastic Compliance Matrix: (Units=1/GPa)
#
#
# Indices 1 2 3 4 5 6 
#
# 1 0.020691 -0.004170 0.005343 0.000000 0.016635 0.000000
# 2 -0.004170 0.007142 -0.003988 0.000000 -0.005225 0.000000
# 3 0.005343 -0.003988 0.011212 0.000000 0.014471 0.000000
# 4 0.000000 0.000000 0.000000 0.023496 0.000000 0.006667
# 5 0.016635 -0.005225 0.014471 0.000000 0.051451 0.000000
# 6 0.000000 0.000000 0.000000 0.006667 0.000000 0.025797
#
#
# Mechanical properties :
#
#
# Convention : Reuss Voigt Hill
#
# Bulk Modulus (GPa) = 29.92771 67.06729 48.49750
# Shear Modulus (GPa) = 31.93746 46.44949 39.19348
#
# Velocity S-wave (km/s) = 3.47410 4.18970 3.84857
# Velocity P-wave (km/s) = 5.23473 6.98211 6.17058
#
# Compressibility (1/GPa) = 0.03341386
#
# Stress axis : x y z
#
# Youngs Moduli (GPa) = 48.33108 140.02524 89.18896
#
# Poissons Ratio (x) = 0.58392 -0.47652
# Poissons Ratio (y) = 0.20155 0.35568
# Poissons Ratio (z) = -0.25822 0.55841
#
# Static dielectric constant tensor:
#      x y z
#    x 2.136880 0.000000 0.067600 
#    y 0.000000 2.168080 0.000000 
#    z 0.067600 0.000000 2.221380 
# 
# From -- ./inp_files/104219.got.cif
#   From: 2010.05.17/outbox.cif.g08.bks.cpg/sg15_53_cif.got.tgz:104219.got - 2010.06.03 18:47:42.
