data_PCOD9256182
_publ_section_title
;
Structure prediction by ZEFSAII (Michael W. Deem and Ramdas Pophale) SiO2 
 PCOD9256182
Probable space group: C 2/C
;
_chemical_formula_sum "Si O2"
_cell_formula_units_Z 56
_cell_length_a 9.156471
_cell_length_b 26.539140
_cell_length_c 13.363272
_cell_angle_alpha 90.000000
_cell_angle_beta 109.070085
_cell_angle_gamma 90.000000
_cell_volume 3069.124888
_symmetry_space_group_name_H-M "C 2/C"
_symmetry_group_IT_number 15
_symmetry_cell_setting 'monoclinic'
loop_
_space_group_symop_operation_xyz
x,y,z
-x,y,1/2-z
-x,-y,-z
x,-y,1/2+z
1/2+x,1/2+y,z
1/2-x,1/2+y,1/2-z
1/2-x,1/2-y,-z
1/2+x,1/2-y,1/2+z
loop_
_atom_site_type_symbol
_atom_site_label
_atom_site_fract_x
_atom_site_fract_y
_atom_site_fract_z
Si Si1 0.798600 0.136882 0.813364
Si Si2 0.566897 0.390828 0.874736
Si Si3 0.117420 0.109326 0.959600
Si Si4 0.904260 0.365210 0.428008
Si Si5 0.203897 0.692356 0.981486
Si Si6 0.146241 0.000919 0.457789
Si Si7 0.103805 0.548786 0.866318
O O1 0.716326 0.142742 0.689662
O O2 0.727489 0.177915 0.871193
O O3 0.738052 0.084152 0.848428
O O4 0.982344 0.137324 0.867884
O O5 0.500000 0.380952 0.750000
O O6 0.635917 0.447987 0.891209
O O7 0.445264 0.392224 0.940356
O O8 0.688831 0.347380 0.933127
O O9 0.290172 0.130162 0.995547
O O10 0.135510 0.054496 0.909982
O O11 0.027839 0.321062 0.467681
O O12 0.003184 0.414652 0.415976
O O13 0.250000 0.750000 0.000000
O O14 0.306510 0.006029 0.553982
O O15 0.000000 0.000000 0.500000
O O16 0.000000 0.531630 0.750000
#
# Coordination Sequence:
#
# PCOD9256182 Si02
#       7
#     8   8   8   8   8   8   8
#     4   9  17  34  56  82 110 142 181 229 282 335
#     4  10  21  38  54  76 113 155 195 227 277 354
#     4  10  20  34  56  85 116 149 184 234 280 336
#     4  10  19  33  57  85 112 137 186 244 282 319
#     4  10  20  38  60  80 107 147 190 233 283 344
#     4  10  17  35  54  77 113 152 191 224 276 343
#     4   9  16  31  52  76 108 142 185 231 269 323
#
# _framework density 18.246243
#
# number of rings (size 3 to 8) (size 9 to 14) (size 15 to 20)
#    0.000    2.286    5.714    1.714    0.000    2.857 
#    2.571    3.571    0.000    3.429    0.000    0.000 
#    0.000    0.000    0.000    0.000    0.000    0.000 
#
# Total GULP energy -155887.209448 kJ/mol
# GULP energy per Si atom -5567.400337 kJ/mol
# Density = 1.820471 g / cm^3
# Si number density = 18.246243 Si / 1000 Ang^3
#
#
#
# Elastic Constant Matrix: (Units=GPa)
#
#
# Indices 1 2 3 4 5 6 
#
# 1 121.8971 31.9202 25.7784 0.0000 17.5705 0.0000
# 2 31.9202 71.2584 11.3475 0.0000 5.5634 0.0000
# 3 25.7784 11.3475 76.5178 0.0000 4.8013 0.0000
# 4 0.0000 0.0000 0.0000 10.8729 0.0000 7.5852
# 5 17.5705 5.5634 4.8013 0.0000 17.5972 0.0000
# 6 0.0000 0.0000 0.0000 7.5852 0.0000 14.8331
#
#
#
# Elastic Compliance Matrix: (Units=1/GPa)
#
#
# Indices 1 2 3 4 5 6 
#
# 1 0.011072 -0.003834 -0.002588 0.000000 -0.009137 0.000000
# 2 -0.003834 0.015987 -0.001020 0.000000 -0.000948 0.000000
# 3 -0.002588 -0.001020 0.014152 0.000000 -0.000955 0.000000
# 4 0.000000 0.000000 0.000000 0.142979 0.000000 -0.073115
# 5 -0.009137 -0.000948 -0.000955 0.000000 0.066510 0.000000
# 6 0.000000 0.000000 0.000000 -0.073115 0.000000 0.104806
#
#
# Mechanical properties :
#
#
# Convention : Reuss Voigt Hill
#
# Bulk Modulus (GPa) = 37.98365 45.30726 41.64545
# Shear Modulus (GPa) = 13.18684 22.03579 17.61132
#
# Velocity S-wave (km/s) = 2.69125 3.47895 3.11014
# Velocity P-wave (km/s) = 5.52445 6.40487 5.98088
#
# Compressibility (1/GPa) = 0.02632712
#
# Stress axis : x y z
#
# Youngs Moduli (GPa) = 90.31788 62.54946 70.66185
#
# Poissons Ratio (x) = 0.23983 0.18288
# Poissons Ratio (y) = 0.34630 0.07205
# Poissons Ratio (z) = 0.23376 0.06378
#
# Static dielectric constant tensor:
#      x y z
#    x 1.667170 0.000000 -0.014170 
#    y 0.000000 1.662050 0.000000 
#    z -0.014170 0.000000 1.645970 
# 
# From -- ./inp_files/138286.got.cif
#   From: 2010.05.17/outbox.cif.g08.bks.cpg/sg15_70_cif.got.tgz:138286.got - 2010.06.03 18:47:42.
