data_PCOD9256167
_publ_section_title
;
Structure prediction by ZEFSAII (Michael W. Deem and Ramdas Pophale) SiO2 
 PCOD9256167
Probable space group: C 2/C
;
_chemical_formula_sum "Si O2"
_cell_formula_units_Z 48
_cell_length_a 11.903447
_cell_length_b 14.004623
_cell_length_c 28.246901
_cell_angle_alpha 90.000000
_cell_angle_beta 155.796127
_cell_angle_gamma 90.000000
_cell_volume 1930.556921
_symmetry_space_group_name_H-M "C 2/C"
_symmetry_group_IT_number 15
_symmetry_cell_setting 'monoclinic'
loop_
_space_group_symop_operation_xyz
x,y,z
-x,y,1/2-z
-x,-y,-z
x,-y,1/2+z
1/2+x,1/2+y,z
1/2-x,1/2+y,1/2-z
1/2-x,1/2-y,-z
1/2+x,1/2-y,1/2+z
loop_
_atom_site_type_symbol
_atom_site_label
_atom_site_fract_x
_atom_site_fract_y
_atom_site_fract_z
Si Si1 0.000000 0.443306 0.750000
Si Si2 0.781081 0.080136 0.115273
Si Si3 0.742313 0.306904 0.254553
Si Si4 0.370529 0.970627 0.110310
Si Si5 0.500000 0.595769 0.750000
Si Si6 0.579815 0.855980 0.627714
Si Si7 0.027807 0.863703 0.906922
O O1 0.188694 0.501604 0.858773
O O2 0.207801 0.390203 0.794091
O O3 0.570490 0.141092 0.066705
O O4 0.781900 0.082838 0.058995
O O5 0.097583 0.116162 0.242306
O O6 0.785918 0.976329 0.141934
O O7 0.590129 0.336242 0.243136
O O8 0.570128 0.246407 0.150017
O O9 0.849814 0.408437 0.277294
O O10 0.990347 0.240784 0.370040
O O11 0.412701 0.062456 0.091868
O O12 0.164389 0.895966 0.007931
#
# Coordination Sequence:
#
# PCOD9256167 Si02
#       7
#     4   8   8   8   4   8   8
#     4  12  23  46  61  90 136 176 199 264 329 380
#     4   9  17  40  61  88 123 174 202 259 321 370
#     4  11  20  38  63  98 126 169 212 259 314 378
#     4  12  23  40  65  97 126 169 216 262 316 383
#     4  10  17  34  67  86 128 176 213 242 325 370
#     4   9  19  36  62  90 127 164 206 253 317 367
#     4  11  24  39  67  94 128 167 218 259 322 379
#
# _framework density 24.863291
#
# number of rings (size 3 to 8) (size 9 to 14) (size 15 to 20)
#    0.000    1.667    6.667    1.500    0.000    3.333 
#    0.000    0.000    0.000    2.000    0.000    1.167 
#    0.000    0.000    0.000    0.000    0.000    0.000 
#
# Total GULP energy -133698.791021 kJ/mol
# GULP energy per Si atom -5570.782959 kJ/mol
# Density = 2.480670 g / cm^3
# Si number density = 24.863291 Si / 1000 Ang^3
#
#
#
# Elastic Constant Matrix: (Units=GPa)
#
#
# Indices 1 2 3 4 5 6 
#
# 1 161.4358 56.8858 20.5343 -0.0002 -10.8725 0.0006
# 2 56.8858 101.2084 9.1335 -0.0012 1.0386 0.0007
# 3 20.5343 9.1335 12.7190 -0.0004 3.9146 0.0018
# 4 -0.0002 -0.0012 -0.0004 -21.6316 0.0000 11.1814
# 5 -10.8725 1.0386 3.9146 0.0000 22.5538 0.0006
# 6 0.0006 0.0007 0.0018 11.1814 0.0006 47.4794
#
#
#
# Elastic Compliance Matrix: (Units=1/GPa)
#
#
# Indices 1 2 3 4 5 6 
#
# 1 0.010320 -0.004446 -0.015913 0.000001 0.007942 0.000000
# 2 -0.004446 0.012497 -0.001014 -0.000001 -0.002543 0.000000
# 3 -0.015913 -0.001014 0.113448 -0.000003 -0.027315 -0.000003
# 4 0.000001 -0.000001 -0.000003 -0.041212 0.000001 0.009705
# 5 0.007942 -0.002543 -0.027315 0.000001 0.053025 0.000000
# 6 0.000000 0.000000 -0.000003 0.009705 0.000000 0.018776
#
#
# Mechanical properties :
#
#
# Convention : Reuss Voigt Hill
#
# Bulk Modulus (GPa) = 10.69285 49.83004 30.26144
# Shear Modulus (GPa) = 20.76643 22.26763 21.51703
#
# Velocity S-wave (km/s) = 2.89316 2.99591 2.94498
# Velocity P-wave (km/s) = 3.93326 5.66148 4.87457
#
# Compressibility (1/GPa) = 0.09352042
#
# Stress axis : x y z
#
# Youngs Moduli (GPa) = 96.89933 80.01850 8.81458
#
# Poissons Ratio (x) = 0.35576 0.14026
# Poissons Ratio (y) = 0.43081 0.00894
# Poissons Ratio (z) = 1.54194 0.08112
#
# Static dielectric constant tensor:
#      x y z
#    x 2.232390 0.000000 0.057460 
#    y 0.000000 2.080960 0.000000 
#    z 0.057460 0.000000 2.294020 
# 
# From -- ./inp_files/311278.got.cif
#   From: 2010.05.17/outbox.cif.g08.bks.cpg/sg15_156_cif.got.tgz:311278.got - 2010.06.03 18:47:42.
