data_PCOD9256531
_publ_section_title
;
Structure prediction by ZEFSAII (Michael W. Deem and Ramdas Pophale) SiO2 
 PCOD9256531
Probable space group: C 2/C
;
_chemical_formula_sum "Si O2"
_cell_formula_units_Z 56
_cell_length_a 8.031815
_cell_length_b 19.345060
_cell_length_c 16.993374
_cell_angle_alpha 90.000000
_cell_angle_beta 69.573441
_cell_angle_gamma 90.000000
_cell_volume 2474.336401
_symmetry_space_group_name_H-M "C 2/C"
_symmetry_group_IT_number 15
_symmetry_cell_setting 'monoclinic'
loop_
_space_group_symop_operation_xyz
x,y,z
-x,y,1/2-z
-x,-y,-z
x,-y,1/2+z
1/2+x,1/2+y,z
1/2-x,1/2+y,1/2-z
1/2-x,1/2-y,-z
1/2+x,1/2-y,1/2+z
loop_
_atom_site_type_symbol
_atom_site_label
_atom_site_fract_x
_atom_site_fract_y
_atom_site_fract_z
Si Si1 0.544162 0.156376 0.609102
Si Si2 0.378020 0.137128 0.165952
Si Si3 0.947246 0.508867 0.637377
Si Si4 0.601998 0.701822 0.307752
Si Si5 0.366204 0.376024 0.953692
Si Si6 0.304418 0.829240 0.991358
Si Si7 0.788159 0.971993 0.471793
O O1 0.505821 0.083618 0.658121
O O2 0.476544 0.221835 0.668457
O O3 0.748255 0.156043 0.544049
O O4 0.426676 0.158937 0.548809
O O5 0.298411 0.189074 0.243443
O O6 0.263167 0.132290 0.102745
O O7 0.388950 0.058204 0.195559
O O8 0.569459 0.159983 0.104255
O O9 0.784783 0.523269 0.605043
O O10 0.115797 0.485050 0.556121
O O11 0.500000 0.668416 0.250000
O O12 0.541273 0.663654 0.396774
O O13 0.399480 0.457545 0.961910
O O14 0.161962 0.892067 0.022365
O O15 0.250000 0.750000 0.000000
#
# Coordination Sequence:
#
# PCOD9256531 Si02
#       7
#     8   8   8   8   8   8   8
#     4   9  16  27  45  66  85 109 142 173 205 252
#     4   8  15  27  42  62  85 110 142 176 209 244
#     4   7  11  23  42  59  78 104 137 175 201 233
#     4  10  18  27  42  65  91 111 131 173 225 257
#     4   8  14  26  45  65  82 106 142 178 209 247
#     4   9  16  28  46  63  83 113 145 175 203 240
#     4   7  11  22  42  64  77  97 140 177 201 235
#
# _framework density 22.632331000000001
#
# number of rings (size 3 to 8) (size 9 to 14) (size 15 to 20)
#    0.000    3.714    0.000    3.857    0.000    0.000 
#    0.000    2.143    0.000    9.429    0.000    0.000 
#    0.000    0.000    0.000    0.000    0.000    0.000 
#
# Total GULP energy -155910.487769 kJ/mol
# GULP energy per Si atom -5568.231706 kJ/mol
# Density = 2.258082 g / cm^3
# Si number density = 22.632331 Si / 1000 Ang^3
#
#
#
# Elastic Constant Matrix: (Units=GPa)
#
#
# Indices 1 2 3 4 5 6 
#
# 1 33.6840 6.4909 19.1936 0.0000 2.7079 0.0000
# 2 6.4909 192.9809 78.9753 0.0000 -33.5424 0.0000
# 3 19.1936 78.9753 103.6397 0.0000 -11.8609 0.0000
# 4 0.0000 0.0000 0.0000 6.9280 0.0000 -10.5994
# 5 2.7079 -33.5424 -11.8609 0.0000 31.8255 0.0000
# 6 0.0000 0.0000 0.0000 -10.5994 0.0000 22.0008
#
#
#
# Elastic Compliance Matrix: (Units=1/GPa)
#
#
# Indices 1 2 3 4 5 6 
#
# 1 0.034265 0.001270 -0.007827 0.000000 -0.004495 0.000000
# 2 0.001270 0.008889 -0.006214 0.000000 0.006945 0.000000
# 3 -0.007827 -0.006214 0.015836 0.000000 0.000018 0.000000
# 4 0.000000 0.000000 0.000000 0.549000 0.000000 0.264494
# 5 -0.004495 0.006945 0.000018 0.000000 0.039130 0.000000
# 6 0.000000 0.000000 0.000000 0.264494 0.000000 0.172879
#
#
# Mechanical properties :
#
#
# Convention : Reuss Voigt Hill
#
# Bulk Modulus (GPa) = 29.89921 59.95825 44.92873
# Shear Modulus (GPa) = 5.83640 27.19386 16.51513
#
# Velocity S-wave (km/s) = 1.60760 3.47010 2.70425
# Velocity P-wave (km/s) = 4.08477 6.52727 5.44475
#
# Compressibility (1/GPa) = 0.03344570
#
# Stress axis : x y z
#
# Youngs Moduli (GPa) = 29.18468 112.49400 63.14794
#
# Poissons Ratio (x) = -0.14282 0.49429
# Poissons Ratio (y) = -0.03705 0.39241
# Poissons Ratio (z) = 0.22844 0.69906
#
# Static dielectric constant tensor:
#      x y z
#    x 1.992350 0.000000 0.045590 
#    y 0.000000 1.895570 0.000000 
#    z 0.045590 0.000000 1.845860 
# 
# From -- ./inp_files/239115.got.cif
#   From: 2010.05.17/outbox.cif.g08.bks.cpg/sg15_120_cif.got.tgz:239115.got - 2010.06.03 18:47:42.
