data_PCOD9256326
_publ_section_title
;
Structure prediction by ZEFSAII (Michael W. Deem and Ramdas Pophale) SiO2 
 PCOD9256326
Probable space group: C 2/C
;
_chemical_formula_sum "Si O2"
_cell_formula_units_Z 44
_cell_length_a 16.947901
_cell_length_b 10.652527
_cell_length_c 15.550931
_cell_angle_alpha 90.000000
_cell_angle_beta 122.026037
_cell_angle_gamma 90.000000
_cell_volume 2380.247158
_symmetry_space_group_name_H-M "C 2/C"
_symmetry_group_IT_number 15
_symmetry_cell_setting 'monoclinic'
loop_
_space_group_symop_operation_xyz
x,y,z
-x,y,1/2-z
-x,-y,-z
x,-y,1/2+z
1/2+x,1/2+y,z
1/2-x,1/2+y,1/2-z
1/2-x,1/2-y,-z
1/2+x,1/2-y,1/2+z
loop_
_atom_site_type_symbol
_atom_site_label
_atom_site_fract_x
_atom_site_fract_y
_atom_site_fract_z
Si Si1 0.661787 0.530364 0.799293
Si Si2 0.579127 0.246534 0.356806
Si Si3 0.549951 0.608575 0.582113
Si Si4 0.000000 0.165304 0.250000
Si Si5 0.986754 0.319304 0.066301
Si Si6 0.365484 0.062861 0.970648
O O1 0.639401 0.662181 0.832981
O O2 0.636086 0.552009 0.684603
O O3 0.590241 0.425646 0.793716
O O4 0.768899 0.507504 0.881272
O O5 0.500000 0.184108 0.250000
O O6 0.520873 0.336252 0.387597
O O7 0.638783 0.152266 0.448445
O O8 0.500000 0.500000 0.500000
O O9 0.567523 0.723014 0.527861
O O10 0.002491 0.251145 0.336454
O O11 0.083518 0.355792 0.074563
O O12 0.931372 0.448798 0.036836
#
# Coordination Sequence:
#
# PCOD9256326 Si02
#       6
#     8   8   8   4   8   8
#     4  11  20  37  64  92 115 154 207 251 292 363
#     4   9  18  35  60  87 114 152 196 242 296 361
#     4  10  17  36  60  80 116 157 192 242 304 351
#     4  12  22  40  68  88 122 158 208 254 302 348
#     4  10  23  41  59  85 125 161 196 251 307 363
#     4  10  23  39  59  89 123 157 199 243 311 363
#
# _framework density 18.485475999999998
#
# number of rings (size 3 to 8) (size 9 to 14) (size 15 to 20)
#    0.000    1.818    4.545    0.545    1.273    2.182 
#    0.000    1.818    0.000    0.000    0.000    0.000 
#    0.000    0.000    0.000    0.000    0.000    0.000 
#
# Total GULP energy -122681.997580 kJ/mol
# GULP energy per Si atom -5576.454435 kJ/mol
# Density = 1.844340 g / cm^3
# Si number density = 18.485476 Si / 1000 Ang^3
#
#
#
# Elastic Constant Matrix: (Units=GPa)
#
#
# Indices 1 2 3 4 5 6 
#
# 1 50.1597 22.3086 49.1617 0.0000 3.1951 0.0000
# 2 22.3086 79.4278 42.4036 0.0000 -10.1256 0.0000
# 3 49.1617 42.4036 130.0438 0.0000 -3.7464 0.0000
# 4 0.0000 0.0000 0.0000 31.2650 0.0000 -4.0063
# 5 3.1951 -10.1256 -3.7464 0.0000 31.4723 0.0000
# 6 0.0000 0.0000 0.0000 -4.0063 0.0000 7.7189
#
#
#
# Elastic Compliance Matrix: (Units=1/GPa)
#
#
# Indices 1 2 3 4 5 6 
#
# 1 0.033351 -0.004012 -0.011474 0.000000 -0.006042 0.000000
# 2 -0.004012 0.016337 -0.003660 0.000000 0.005228 0.000000
# 3 -0.011474 -0.003660 0.013266 0.000000 0.001567 0.000000
# 4 0.000000 0.000000 0.000000 0.034263 0.000000 0.017784
# 5 -0.006042 0.005228 0.001567 0.000000 0.034256 0.000000
# 6 0.000000 0.000000 0.000000 0.017784 0.000000 0.138783
#
#
# Mechanical properties :
#
#
# Convention : Reuss Voigt Hill
#
# Bulk Modulus (GPa) = 40.54705 54.15323 47.35014
# Shear Modulus (GPa) = 15.78439 23.80839 19.79639
#
# Velocity S-wave (km/s) = 2.92529 3.59270 3.27604
# Velocity P-wave (km/s) = 5.77858 6.82412 6.32299
#
# Compressibility (1/GPa) = 0.02466271
#
# Stress axis : x y z
#
# Youngs Moduli (GPa) = 29.98385 61.21008 75.38169
#
# Poissons Ratio (x) = 0.24558 0.86493
# Poissons Ratio (y) = 0.12030 0.27588
# Poissons Ratio (z) = 0.34403 0.22402
#
# Static dielectric constant tensor:
#      x y z
#    x 1.645210 0.000000 0.000420 
#    y 0.000000 1.634750 0.000000 
#    z 0.000420 0.000000 1.654240 
# 
# From -- ./inp_files/151766.got.cif
#   From: 2010.05.17/outbox.cif.g08.bks.cpg/sg15_76_cif.got.tgz:151766.got - 2010.06.03 18:47:42.
