data_PCOD9256619
_publ_section_title
;
Structure prediction by ZEFSAII (Michael W. Deem and Ramdas Pophale) SiO2 
 PCOD9256619
Probable space group: C 2/C
;
_chemical_formula_sum "Si O2"
_cell_formula_units_Z 52
_cell_length_a 14.886903
_cell_length_b 24.541803
_cell_length_c 10.351554
_cell_angle_alpha 90.000000
_cell_angle_beta 43.922951
_cell_angle_gamma 90.000000
_cell_volume 2623.506009
_symmetry_space_group_name_H-M "C 2/C"
_symmetry_group_IT_number 15
_symmetry_cell_setting 'monoclinic'
loop_
_space_group_symop_operation_xyz
x,y,z
-x,y,1/2-z
-x,-y,-z
x,-y,1/2+z
1/2+x,1/2+y,z
1/2-x,1/2+y,1/2-z
1/2-x,1/2-y,-z
1/2+x,1/2-y,1/2+z
loop_
_atom_site_type_symbol
_atom_site_label
_atom_site_fract_x
_atom_site_fract_y
_atom_site_fract_z
Si Si1 0.652436 0.048049 0.973367
Si Si2 0.000000 0.619071 0.750000
Si Si3 0.358148 0.518238 0.398399
Si Si4 0.236301 0.185821 0.001349
Si Si5 0.857910 0.111140 0.179312
Si Si6 0.141995 0.110863 0.881861
Si Si7 0.604910 0.937554 0.881527
O O1 0.742990 0.097646 0.834507
O O2 0.733009 0.019469 0.006074
O O3 0.647164 0.998852 0.872255
O O4 0.502976 0.065308 0.116686
O O5 0.875597 0.656150 0.851539
O O6 0.037623 0.583501 0.585698
O O7 0.500000 0.490173 0.250000
O O8 0.359844 0.559276 0.274583
O O9 0.353734 0.558848 0.524409
O O10 0.164024 0.163405 0.949100
O O11 0.250000 0.250000 0.000000
O O12 0.164900 0.161816 0.201601
O O13 0.730058 0.100205 0.228992
O O14 0.998676 0.113482 0.970989
#
# Coordination Sequence:
#
# PCOD9256619 Si02
#       7
#     8   4   8   8   8   8   8
#     4  10  18  28  47  65  86 125 167 190 234 280
#     4  10  18  32  46  62  98 130 156 200 234 276
#     4   8  16  28  42  63  89 118 157 193 225 274
#     4  10  19  28  45  65  90 127 165 191 233 280
#     4   8  17  30  43  58  89 119 154 199 220 269
#     4  10  18  32  47  64  92 127 163 197 230 274
#     4   9  18  30  42  65  88 123 163 191 235 280
#
# _framework density 19.820805
#
# number of rings (size 3 to 8) (size 9 to 14) (size 15 to 20)
#    0.000    2.769    1.538    2.308    2.154    5.538 
#    0.000    0.000    0.000    0.000    0.000    0.000 
#    0.000    0.000    0.000   67.846   17.231    1.538 
#
# Total GULP energy -144981.590833 kJ/mol
# GULP energy per Si atom -5576.215032 kJ/mol
# Density = 1.977569 g / cm^3
# Si number density = 19.820805 Si / 1000 Ang^3
#
#
#
# Elastic Constant Matrix: (Units=GPa)
#
#
# Indices 1 2 3 4 5 6 
#
# 1 111.3186 38.2316 46.7643 0.0000 -31.8324 0.0000
# 2 38.2316 98.0516 31.2326 0.0000 -8.3587 0.0000
# 3 46.7643 31.2326 43.3880 0.0000 -25.1131 0.0000
# 4 0.0000 0.0000 0.0000 12.1493 0.0000 2.0298
# 5 -31.8324 -8.3587 -25.1131 0.0000 42.1013 0.0000
# 6 0.0000 0.0000 0.0000 2.0298 0.0000 9.0943
#
#
#
# Elastic Compliance Matrix: (Units=1/GPa)
#
#
# Indices 1 2 3 4 5 6 
#
# 1 0.016793 -0.001454 -0.015075 0.000000 0.003416 0.000000
# 2 -0.001454 0.013987 -0.011501 0.000000 -0.005183 0.000000
# 3 -0.015075 -0.011501 0.060567 0.000000 0.022446 0.000000
# 4 0.000000 0.000000 0.000000 0.085497 0.000000 -0.019082
# 5 0.003416 -0.005183 0.022446 0.000000 0.038695 0.000000
# 6 0.000000 0.000000 0.000000 -0.019082 0.000000 0.114218
#
#
# Mechanical properties :
#
#
# Convention : Reuss Voigt Hill
#
# Bulk Modulus (GPa) = 28.34024 53.91280 41.12652
# Shear Modulus (GPa) = 12.57607 21.77095 17.17351
#
# Velocity S-wave (km/s) = 2.52164 3.31779 2.94673
# Velocity P-wave (km/s) = 4.77572 6.47581 5.68962
#
# Compressibility (1/GPa) = 0.03528551
#
# Stress axis : x y z
#
# Youngs Moduli (GPa) = 59.55027 71.49264 16.51058
#
# Poissons Ratio (x) = 0.10399 0.24890
# Poissons Ratio (y) = 0.08662 0.18989
# Poissons Ratio (z) = 0.89774 0.82224
#
# Static dielectric constant tensor:
#      x y z
#    x 1.776450 0.000000 -0.029930 
#    y 0.000000 1.644770 0.000000 
#    z -0.029930 0.000000 1.785000 
# 
# From -- ./inp_files/100441.got.cif
#   From: 2010.05.17/outbox.cif.g08.bks.cpg/sg15_51_cif.got.tgz:100441.got - 2010.06.03 18:47:42.
