data_PCOD9256539
_publ_section_title
;
Structure prediction by ZEFSAII (Michael W. Deem and Ramdas Pophale) SiO2 
 PCOD9256539
Probable space group: C 2/C
;
_chemical_formula_sum "Si O2"
_cell_formula_units_Z 48
_cell_length_a 5.039243
_cell_length_b 22.368326
_cell_length_c 24.439297
_cell_angle_alpha 90.000000
_cell_angle_beta 84.741232
_cell_angle_gamma 90.000000
_cell_volume 2743.188510
_symmetry_space_group_name_H-M "C 2/C"
_symmetry_group_IT_number 15
_symmetry_cell_setting 'monoclinic'
loop_
_space_group_symop_operation_xyz
x,y,z
-x,y,1/2-z
-x,-y,-z
x,-y,1/2+z
1/2+x,1/2+y,z
1/2-x,1/2+y,1/2-z
1/2-x,1/2-y,-z
1/2+x,1/2-y,1/2+z
loop_
_atom_site_type_symbol
_atom_site_label
_atom_site_fract_x
_atom_site_fract_y
_atom_site_fract_z
Si Si1 0.912724 0.430953 0.901190
Si Si2 0.122281 0.986153 0.555309
Si Si3 0.527663 0.176764 0.467655
Si Si4 0.032306 0.531691 0.813306
Si Si5 0.521777 0.316541 0.455824
Si Si6 0.492403 0.591702 0.864029
O O1 0.597526 0.443281 0.911151
O O2 0.982924 0.362580 0.913813
O O3 0.027259 0.468431 0.847105
O O4 0.081187 0.461249 0.947291
O O5 0.118887 0.048210 0.586998
O O6 0.000000 0.000000 0.500000
O O7 0.577820 0.245725 0.450942
O O8 0.760872 0.157207 0.505446
O O9 0.259734 0.174521 0.508793
O O10 0.779958 0.568246 0.840754
O O11 0.000000 0.519582 0.750000
O O12 0.286347 0.574592 0.819814
O O13 0.516919 0.346023 0.395783
#
# Coordination Sequence:
#
# PCOD9256539 Si02
#       6
#     8   8   8   8   8   8
#     4  10  19  30  47  69  93 125 158 191 236 283
#     4  10  18  27  44  70  99 122 148 189 234 288
#     4  10  19  32  49  73 105 134 158 187 229 290
#     4  10  21  35  51  70  93 124 164 212 253 280
#     4  10  20  32  49  74 104 134 159 187 231 293
#     4  10  19  32  50  72  96 127 161 196 243 292
#
# _framework density 17.497886999999999
#
# number of rings (size 3 to 8) (size 9 to 14) (size 15 to 20)
#    0.000    2.000    0.000    5.000    0.000    2.667 
#    0.000    0.000    0.000    2.000    0.000    0.000 
#    0.000    0.000    0.000    0.000    0.000    0.000 
#
# Total GULP energy -133635.441847 kJ/mol
# GULP energy per Si atom -5568.143410 kJ/mol
# Density = 1.745806 g / cm^3
# Si number density = 17.497887 Si / 1000 Ang^3
#
#
#
# Elastic Constant Matrix: (Units=GPa)
#
#
# Indices 1 2 3 4 5 6 
#
# 1 66.9117 9.6995 -5.2887 0.0000 17.1004 0.0000
# 2 9.6995 77.5610 41.0591 0.0000 5.4660 0.0000
# 3 -5.2887 41.0591 80.2021 0.0000 19.5776 0.0000
# 4 0.0000 0.0000 0.0000 19.9290 0.0000 4.4734
# 5 17.1004 5.4660 19.5776 0.0000 22.5661 0.0000
# 6 0.0000 0.0000 0.0000 4.4734 0.0000 13.1341
#
#
#
# Elastic Compliance Matrix: (Units=1/GPa)
#
#
# Indices 1 2 3 4 5 6 
#
# 1 0.023666 -0.007316 0.011737 0.000000 -0.026344 0.000000
# 2 -0.007316 0.020321 -0.014003 0.000000 0.012770 0.000000
# 3 0.011737 -0.014003 0.027599 0.000000 -0.029446 0.000000
# 4 0.000000 0.000000 0.000000 0.054332 0.000000 -0.018505
# 5 -0.026344 0.012770 -0.029446 0.000000 0.086731 0.000000
# 6 0.000000 0.000000 0.000000 -0.018505 0.000000 0.082441
#
#
# Mechanical properties :
#
#
# Convention : Reuss Voigt Hill
#
# Bulk Modulus (GPa) = 19.07626 35.06830 27.07228
# Shear Modulus (GPa) = 15.07260 23.07283 19.07271
#
# Velocity S-wave (km/s) = 2.93814 3.63520 3.30510
# Velocity P-wave (km/s) = 4.73666 6.14040 5.48363
#
# Compressibility (1/GPa) = 0.05242117
#
# Stress axis : x y z
#
# Youngs Moduli (GPa) = 42.25480 49.21048 36.23308
#
# Poissons Ratio (x) = 0.36003 -0.42526
# Poissons Ratio (y) = 0.30914 0.50737
# Poissons Ratio (z) = -0.49593 0.68909
#
# Static dielectric constant tensor:
#      x y z
#    x 1.942630 0.000000 0.302640 
#    y 0.000000 1.708370 0.000000 
#    z 0.302640 0.000000 1.846420 
# 
# From -- ./inp_files/227329.got.cif
#   From: 2010.05.17/outbox.cif.g08.bks.cpg/sg15_114_cif.got.tgz:227329.got - 2010.06.03 18:47:42.
