data_PCOD9256116
_publ_section_title
;
Structure prediction by ZEFSAII (Michael W. Deem and Ramdas Pophale) SiO2 
 PCOD9256116
Probable space group: C 2/C
;
_chemical_formula_sum "Si O2"
_cell_formula_units_Z 60
_cell_length_a 19.094909
_cell_length_b 15.534017
_cell_length_c 19.588695
_cell_angle_alpha 90.000000
_cell_angle_beta 150.564608
_cell_angle_gamma 90.000000
_cell_volume 2855.479058
_symmetry_space_group_name_H-M "C 2/C"
_symmetry_group_IT_number 15
_symmetry_cell_setting 'monoclinic'
loop_
_space_group_symop_operation_xyz
x,y,z
-x,y,1/2-z
-x,-y,-z
x,-y,1/2+z
1/2+x,1/2+y,z
1/2-x,1/2+y,1/2-z
1/2-x,1/2-y,-z
1/2+x,1/2-y,1/2+z
loop_
_atom_site_type_symbol
_atom_site_label
_atom_site_fract_x
_atom_site_fract_y
_atom_site_fract_z
Si Si1 0.267969 0.489930 0.726249
Si Si2 0.732559 0.605075 0.151898
Si Si3 0.646201 0.818339 0.879041
Si Si4 0.704432 0.907851 0.055857
Si Si5 0.439890 0.227698 0.961883
Si Si6 0.710536 0.332377 0.175419
Si Si7 0.000000 0.028966 0.750000
Si Si8 0.920419 0.056618 0.046756
O O1 0.187103 0.437452 0.716003
O O2 0.182038 0.509629 0.584824
O O3 0.313502 0.583406 0.796155
O O4 0.413221 0.439855 0.832535
O O5 0.820063 0.647694 0.166324
O O6 0.626289 0.678344 0.085025
O O7 0.644518 0.527448 0.044334
O O8 0.500000 0.769784 0.750000
O O9 0.750000 0.750000 0.000000
O O10 0.638487 0.897401 0.925336
O O11 0.632744 0.830439 0.039694
O O12 0.876483 0.916029 0.184858
O O13 0.372310 0.192007 0.833728
O O14 0.607384 0.251367 0.105825
O O15 0.666632 0.365295 0.062490
O O16 0.077827 0.967872 0.871785
#
# Coordination Sequence:
#
# PCOD9256116 Si02
#       8
#     8   8   8   8   8   8   4   8
#     4   9  18  35  61  81 110 154 211 251 273 352
#     4  11  19  34  56  82 116 155 200 242 296 336
#     4  12  27  37  55  86 129 166 190 232 302 373
#     4  10  22  35  55  87 120 149 198 239 300 343
#     4  11  21  32  55  80 120 151 188 239 290 346
#     4  10  20  34  55  85 113 149 197 244 288 337
#     4  10  20  34  62  88 110 156 198 252 286 354
#     4  10  17  34  60  84 111 150 210 246 285 348
#
# _framework density 21.012236000000001
#
# number of rings (size 3 to 8) (size 9 to 14) (size 15 to 20)
#    0.000    1.600    5.333    0.800    2.800    0.000 
#    0.000    0.667    2.933    0.800    0.000    0.000 
#    0.000    0.000    0.000    0.000    0.000    0.000 
#
# Total GULP energy -167046.801469 kJ/mol
# GULP energy per Si atom -5568.226716 kJ/mol
# Density = 2.096441 g / cm^3
# Si number density = 21.012236 Si / 1000 Ang^3
#
#
#
# Elastic Constant Matrix: (Units=GPa)
#
#
# Indices 1 2 3 4 5 6 
#
# 1 65.6022 33.2347 11.6168 0.0001 -15.4681 -0.0001
# 2 33.2347 46.0421 3.0627 0.0002 -2.7837 0.0002
# 3 11.6168 3.0627 51.7275 -0.0002 4.7114 -0.0002
# 4 0.0001 0.0002 -0.0002 32.2053 -0.0002 0.8565
# 5 -15.4681 -2.7837 4.7114 -0.0002 27.8449 -0.0001
# 6 -0.0001 0.0002 -0.0002 0.8565 -0.0001 -34.4524
#
#
#
# Elastic Compliance Matrix: (Units=1/GPa)
#
#
# Indices 1 2 3 4 5 6 
#
# 1 0.030936 -0.020865 -0.007198 0.000000 0.016317 0.000000
# 2 -0.020865 0.036042 0.003331 0.000000 -0.008551 0.000000
# 3 -0.007198 0.003331 0.021415 0.000000 -0.007289 0.000000
# 4 0.000000 0.000000 0.000000 0.031030 0.000000 0.000771
# 5 0.016317 -0.008551 -0.007289 0.000000 0.045356 0.000000
# 6 0.000000 0.000000 0.000000 0.000771 0.000000 -0.029006
#
#
# Mechanical properties :
#
#
# Convention : Reuss Voigt Hill
#
# Bulk Modulus (GPa) = 25.68873 28.80005 27.24439
# Shear Modulus (GPa) = 25.22514 12.81673 19.02094
#
# Velocity S-wave (km/s) = 3.46858 2.47243 3.01197
# Velocity P-wave (km/s) = 5.31917 4.67831 5.00900
#
# Compressibility (1/GPa) = 0.03892757
#
# Stress axis : x y z
#
# Youngs Moduli (GPa) = 32.32476 27.74544 46.69548
#
# Poissons Ratio (x) = 0.57892 0.33613
# Poissons Ratio (y) = 0.67447 -0.15553
# Poissons Ratio (z) = 0.23268 -0.09241
#
# Static dielectric constant tensor:
#      x y z
#    x 1.900420 0.000000 0.011970 
#    y 0.000000 1.789510 -0.000010 
#    z 0.011970 -0.000010 4.333240 
# 
# From -- ./inp_files/253053.got.cif
#   From: 2010.05.17/outbox.cif.g08.bks.cpg/sg15_127_cif.got.tgz:253053.got - 2010.06.03 18:47:42.
