data_PCOD9256018
_publ_section_title
;
Structure prediction by ZEFSAII (Michael W. Deem and Ramdas Pophale) SiO2 
 PCOD9256018
Probable space group: C 2/C
;
_chemical_formula_sum "Si O2"
_cell_formula_units_Z 52
_cell_length_a 24.935063
_cell_length_b 8.948750
_cell_length_c 9.024419
_cell_angle_alpha 90.000000
_cell_angle_beta 110.396280
_cell_angle_gamma 90.000000
_cell_volume 1887.438692
_symmetry_space_group_name_H-M "C 2/C"
_symmetry_group_IT_number 15
_symmetry_cell_setting 'monoclinic'
loop_
_space_group_symop_operation_xyz
x,y,z
-x,y,1/2-z
-x,-y,-z
x,-y,1/2+z
1/2+x,1/2+y,z
1/2-x,1/2+y,1/2-z
1/2-x,1/2-y,-z
1/2+x,1/2-y,1/2+z
loop_
_atom_site_type_symbol
_atom_site_label
_atom_site_fract_x
_atom_site_fract_y
_atom_site_fract_z
Si Si1 0.248663 0.912637 0.260554
Si Si2 0.861648 0.494776 0.544320
Si Si3 0.500000 0.703112 0.250000
Si Si4 0.190286 0.184422 0.351242
Si Si5 0.600249 0.466754 0.363295
Si Si6 0.859447 0.276735 0.806589
Si Si7 0.925046 0.282051 0.422485
O O1 0.304316 0.923028 0.417877
O O2 0.268316 0.837020 0.120283
O O3 0.202222 0.796721 0.274822
O O4 0.219862 0.075309 0.255531
O O5 0.864418 0.424269 0.710053
O O6 0.861273 0.662242 0.476441
O O7 0.916771 0.422307 0.519845
O O8 0.553068 0.593073 0.316044
O O9 0.481206 0.793110 0.376670
O O10 0.132048 0.258921 0.230463
O O11 0.161419 0.054182 0.429802
O O12 0.600907 0.355307 0.220511
O O13 0.581276 0.361437 0.478671
#
# Coordination Sequence:
#
# PCOD9256018 Si02
#       7
#     8   8   4   8   8   8   8
#     4  10  17  34  53  78 111 154 195 222 275 328
#     4  10  20  36  56  80 115 153 189 231 281 336
#     4  10  18  36  62  78 100 132 190 244 284 352
#     4   9  18  31  52  78 110 143 186 225 270 332
#     4   9  19  35  56  80 108 143 182 234 294 337
#     4  10  20  36  56  80 115 153 189 231 281 336
#     4   9  19  35  56  80 108 143 182 234 294 337
#
# _framework density 27.550563
#
# number of rings (size 3 to 8) (size 9 to 14) (size 15 to 20)
#    0.000    2.462    1.538    0.923    0.000    1.231 
#    0.000   17.692    0.000    3.692    0.000    0.000 
#    0.000    0.000    0.000    0.000    0.000    0.000 
#
# Total GULP energy -145143.582468 kJ/mol
# GULP energy per Si atom -5582.445480 kJ/mol
# Density = 2.748786 g / cm^3
# Si number density = 27.550563 Si / 1000 Ang^3
#
#
#
# Elastic Constant Matrix: (Units=GPa)
#
#
# Indices 1 2 3 4 5 6 
#
# 1 124.1017 23.0821 2.0222 0.0000 -6.3008 0.0000
# 2 23.0821 113.8359 8.3922 0.0000 36.1156 0.0000
# 3 2.0222 8.3922 79.0366 0.0000 -6.9266 0.0000
# 4 0.0000 0.0000 0.0000 -50.5345 0.0000 322.7180
# 5 -6.3008 36.1156 -6.9266 0.0000 -38.3119 0.0000
# 6 0.0000 0.0000 0.0000 322.7180 0.0000-1092.9640
#
#
#
# Elastic Compliance Matrix: (Units=1/GPa)
#
#
# Indices 1 2 3 4 5 6 
#
# 1 0.008127 -0.000938 -0.000298 0.000000 -0.002167 0.000000
# 2 -0.000938 0.006873 -0.000122 0.000000 0.006655 0.000000
# 3 -0.000298 -0.000122 0.012470 0.000000 -0.002321 0.000000
# 4 0.000000 0.000000 0.000000 0.022344 0.000000 0.006598
# 5 -0.002167 0.006655 -0.002321 0.000000 -0.019052 0.000000
# 6 0.000000 0.000000 0.000000 0.006598 0.000000 0.001033
#
#
# Mechanical properties :
#
#
# Convention : Reuss Voigt Hill
#
# Bulk Modulus (GPa) = 40.40212 42.66303 41.53258
# Shear Modulus (GPa) = 116.92232 -217.46357 -50.27062
#
# Velocity S-wave (km/s) = 6.52160 -8.89404 -4.27625
# Velocity P-wave (km/s) = 8.45015 9.48435 3.04532
#
# Compressibility (1/GPa) = 0.02475118
#
# Stress axis : x y z
#
# Youngs Moduli (GPa) = 123.04269 145.50734 80.19504
#
# Poissons Ratio (x) = 0.13654 0.02392
# Poissons Ratio (y) = 0.11546 0.00982
# Poissons Ratio (z) = 0.03670 0.01782
#
# Static dielectric constant tensor:
#      x y z
#    x 2.148260 0.000000 -0.020700 
#    y 0.000000 2.245030 0.000000 
#    z -0.020700 0.000000 2.392680 
# 
# From -- ./inp_files/121534.got.cif
#   From: 2010.05.17/outbox.cif.g08.bks.cpg/sg15_61_cif.got.tgz:121534.got - 2010.06.03 18:47:42.
