data_PCOD9256194
_publ_section_title
;
Structure prediction by ZEFSAII (Michael W. Deem and Ramdas Pophale) SiO2 
 PCOD9256194
Probable space group: C 2/C
;
_chemical_formula_sum "Si O2"
_cell_formula_units_Z 56
_cell_length_a 18.953343
_cell_length_b 14.770112
_cell_length_c 12.628643
_cell_angle_alpha 90.000000
_cell_angle_beta 56.708805
_cell_angle_gamma 90.000000
_cell_volume 2955.128171
_symmetry_space_group_name_H-M "C 2/C"
_symmetry_group_IT_number 15
_symmetry_cell_setting 'monoclinic'
loop_
_space_group_symop_operation_xyz
x,y,z
-x,y,1/2-z
-x,-y,-z
x,-y,1/2+z
1/2+x,1/2+y,z
1/2-x,1/2+y,1/2-z
1/2-x,1/2-y,-z
1/2+x,1/2-y,1/2+z
loop_
_atom_site_type_symbol
_atom_site_label
_atom_site_fract_x
_atom_site_fract_y
_atom_site_fract_z
Si Si1 0.739746 0.386376 0.487146
Si Si2 0.416538 0.288837 0.349393
Si Si3 0.874133 0.372569 0.735923
Si Si4 0.244188 0.912230 0.020941
Si Si5 0.076270 0.426226 0.268506
Si Si6 0.862355 0.680494 0.588723
Si Si7 0.717479 0.237942 0.354463
O O1 0.710769 0.485898 0.543766
O O2 0.835452 0.402245 0.364109
O O3 0.690972 0.330981 0.435662
O O4 0.741333 0.323099 0.588235
O O5 0.500000 0.343479 0.250000
O O6 0.418717 0.202665 0.270018
O O7 0.331040 0.342772 0.397985
O O8 0.409704 0.250210 0.473277
O O9 0.921146 0.468409 0.697939
O O10 0.851979 0.324442 0.644312
O O11 0.787542 0.392259 0.872137
O O12 0.316156 0.893431 0.050258
O O13 0.078658 0.366299 0.372717
O O14 0.000000 0.411115 0.250000
O O15 0.787095 0.731724 0.711868
#
# Coordination Sequence:
#
# PCOD9256194 Si02
#       7
#     8   8   8   8   8   8   8
#     4   9  21  32  57  82 112 149 196 231 283 339
#     4  11  21  34  55  85 113 148 193 244 291 328
#     4  10  18  34  57  80 112 150 192 227 285 352
#     4  10  18  37  55  83 110 151 199 238 274 345
#     4  10  21  35  53  89 124 148 178 236 307 357
#     4  10  19  36  58  79 114 158 190 235 287 347
#     4  10  17  35  56  85 102 149 200 234 267 343
#
# _framework density 18.950109000000001
#
# number of rings (size 3 to 8) (size 9 to 14) (size 15 to 20)
#    0.000    2.000    2.857    2.143    0.000    1.143 
#    0.000    7.857    0.000   11.143    0.000    0.000 
#    0.000    0.000    0.000    0.000    0.000    0.000 
#
# Total GULP energy -156155.214856 kJ/mol
# GULP energy per Si atom -5576.971959 kJ/mol
# Density = 1.890698 g / cm^3
# Si number density = 18.950109 Si / 1000 Ang^3
#
#
#
# Elastic Constant Matrix: (Units=GPa)
#
#
# Indices 1 2 3 4 5 6 
#
# 1 84.2243 31.9924 21.9604 0.0000 24.9246 0.0000
# 2 31.9924 89.6412 21.7453 0.0000 18.1628 0.0000
# 3 21.9604 21.7453 64.3707 0.0000 23.2799 0.0000
# 4 0.0000 0.0000 0.0000 19.3119 0.0000 15.6083
# 5 24.9246 18.1628 23.2799 0.0000 29.2670 0.0000
# 6 0.0000 0.0000 0.0000 15.6083 0.0000 19.9072
#
#
#
# Elastic Compliance Matrix: (Units=1/GPa)
#
#
# Indices 1 2 3 4 5 6 
#
# 1 0.016805 -0.003523 -0.000222 0.000000 -0.011949 0.000000
# 2 -0.003523 0.013690 -0.002015 0.000000 -0.003893 0.000000
# 3 -0.000222 -0.002015 0.022140 0.000000 -0.016171 0.000000
# 4 0.000000 0.000000 0.000000 0.141358 0.000000 -0.110832
# 5 -0.011949 -0.003893 -0.016171 0.000000 0.059624 0.000000
# 6 0.000000 0.000000 0.000000 -0.110832 0.000000 0.137131
#
#
# Mechanical properties :
#
#
# Convention : Reuss Voigt Hill
#
# Bulk Modulus (GPa) = 24.32109 43.29248 33.80679
# Shear Modulus (GPa) = 12.02001 24.53309 18.27655
#
# Velocity S-wave (km/s) = 2.52126 3.60198 3.10894
# Velocity P-wave (km/s) = 4.61929 6.33988 5.54671
#
# Compressibility (1/GPa) = 0.04111658
#
# Stress axis : x y z
#
# Youngs Moduli (GPa) = 59.50570 73.04343 45.16760
#
# Poissons Ratio (x) = 0.25731 0.01001
# Poissons Ratio (y) = 0.20962 0.09101
# Poissons Ratio (z) = 0.01319 0.14718
#
# Static dielectric constant tensor:
#      x y z
#    x 1.681510 0.000000 -0.011550 
#    y 0.000000 1.681470 0.000000 
#    z -0.011550 0.000000 1.679530 
# 
# From -- ./inp_files/105274.got.cif
#   From: 2010.05.17/outbox.cif.g08.bks.cpg/sg15_53_cif.got.tgz:105274.got - 2010.06.03 18:47:42.
