data_PCOD9256160
_publ_section_title
;
Structure prediction by ZEFSAII (Michael W. Deem and Ramdas Pophale) SiO2 
 PCOD9256160
Probable space group: C 2/C
;
_chemical_formula_sum "Si O2"
_cell_formula_units_Z 64
_cell_length_a 19.927194
_cell_length_b 10.553114
_cell_length_c 20.720047
_cell_angle_alpha 90.000000
_cell_angle_beta 43.917846
_cell_angle_gamma 90.000000
_cell_volume 3022.337919
_symmetry_space_group_name_H-M "C 2/C"
_symmetry_group_IT_number 15
_symmetry_cell_setting 'monoclinic'
loop_
_space_group_symop_operation_xyz
x,y,z
-x,y,1/2-z
-x,-y,-z
x,-y,1/2+z
1/2+x,1/2+y,z
1/2-x,1/2+y,1/2-z
1/2-x,1/2-y,-z
1/2+x,1/2-y,1/2+z
loop_
_atom_site_type_symbol
_atom_site_label
_atom_site_fract_x
_atom_site_fract_y
_atom_site_fract_z
Si Si1 0.791316 0.860909 0.705036
Si Si2 0.786157 0.750689 0.375653
Si Si3 0.753693 0.385991 0.468031
Si Si4 0.064936 0.250488 0.570918
Si Si5 0.089035 0.963109 0.151386
Si Si6 0.781684 0.855643 0.150429
Si Si7 0.922898 0.456660 0.850998
Si Si8 0.000456 0.852713 0.517652
O O1 0.743114 0.793849 0.675507
O O2 0.749563 0.774302 0.792249
O O3 0.907512 0.836497 0.627289
O O4 0.780151 0.015235 0.697389
O O5 0.682248 0.753079 0.484055
O O6 0.840384 0.884323 0.349200
O O7 0.858778 0.647693 0.356384
O O8 0.750000 0.250000 0.500000
O O9 0.656972 0.456680 0.557507
O O10 0.774112 0.388429 0.377106
O O11 0.846053 0.452403 0.435371
O O12 0.039950 0.139780 0.638049
O O13 0.025369 0.378342 0.628809
O O14 0.024149 0.224246 0.529629
O O15 0.000000 0.028206 0.250000
O O16 0.888042 0.828412 0.046070
O O17 0.000000 0.516088 0.750000
O O18 0.000000 0.000000 0.500000
#
# Coordination Sequence:
#
# PCOD9256160 Si02
#       8
#     8   8   8   8   8   8   8   8
#     4  10  22  41  68  97 132 173 222 265 334 400
#     4  10  17  36  65  94 131 162 208 278 327 380
#     4  12  26  48  61  89 136 178 216 272 340 387
#     4  10  17  34  65  97 128 161 209 279 325 376
#     4  11  21  35  64  99 124 165 225 273 317 390
#     4  11  24  46  69  92 135 177 215 279 329 401
#     4  11  21  37  64  92 126 169 211 268 329 381
#     4   9  20  38  63  96 130 168 211 268 332 391
#
# _framework density 21.175660000000001
#
# number of rings (size 3 to 8) (size 9 to 14) (size 15 to 20)
#    0.000    1.500    3.750    3.750    3.500    1.500 
#    6.750    0.625    0.000    0.000    0.000    0.000 
#    0.000    0.000    0.000    0.000    0.000    0.000 
#
# Total GULP energy -178320.216258 kJ/mol
# GULP energy per Si atom -5572.506758 kJ/mol
# Density = 2.112746 g / cm^3
# Si number density = 21.175660 Si / 1000 Ang^3
#
#
#
# Elastic Constant Matrix: (Units=GPa)
#
#
# Indices 1 2 3 4 5 6 
#
# 1 20.8618 7.7310 -0.8947 0.0000 -5.1168 0.0000
# 2 7.7310 93.2068 36.2305 0.0000 5.8464 0.0000
# 3 -0.8947 36.2305 100.5168 0.0000 -6.7831 0.0000
# 4 0.0000 0.0000 0.0000 25.3269 0.0000 11.0233
# 5 -5.1168 5.8464 -6.7831 0.0000 17.5156 0.0000
# 6 0.0000 0.0000 0.0000 11.0233 0.0000 8.2350
#
#
#
# Elastic Compliance Matrix: (Units=1/GPa)
#
#
# Indices 1 2 3 4 5 6 
#
# 1 0.056133 -0.007795 0.004715 0.000000 0.020826 0.000000
# 2 -0.007795 0.014220 -0.005821 0.000000 -0.009278 0.000000
# 3 0.004715 -0.005821 0.012643 0.000000 0.008216 0.000000
# 4 0.000000 0.000000 0.000000 0.094594 0.000000 -0.126622
# 5 0.020826 -0.009278 0.008216 0.000000 0.069455 0.000000
# 6 0.000000 0.000000 0.000000 -0.126622 0.000000 0.290926
#
#
# Mechanical properties :
#
#
# Convention : Reuss Voigt Hill
#
# Bulk Modulus (GPa) = 15.33879 33.41321 24.37600
# Shear Modulus (GPa) = 8.65793 21.65008 15.15400
#
# Velocity S-wave (km/s) = 2.02423 3.20097 2.67803
# Velocity P-wave (km/s) = 3.56688 5.42909 4.59334
#
# Compressibility (1/GPa) = 0.06519419
#
# Stress axis : x y z
#
# Youngs Moduli (GPa) = 17.81468 70.32353 79.09429
#
# Poissons Ratio (x) = 0.54816 -0.37290
# Poissons Ratio (y) = 0.13886 0.46040
# Poissons Ratio (z) = -0.08399 0.40935
#
# Static dielectric constant tensor:
#      x y z
#    x 1.461570 0.000000 0.124690 
#    y 0.000000 1.787910 0.000000 
#    z 0.124690 0.000000 1.757740 
# 
# From -- ./inp_files/252551.got.cif
#   From: 2010.05.17/outbox.cif.g08.bks.cpg/sg15_127_cif.got.tgz:252551.got - 2010.06.03 18:47:42.
