data_PCOD9256485
_publ_section_title
;
Structure prediction by ZEFSAII (Michael W. Deem and Ramdas Pophale) SiO2 
 PCOD9256485
Probable space group: C 2/C
;
_chemical_formula_sum "Si O2"
_cell_formula_units_Z 60
_cell_length_a 18.304667
_cell_length_b 18.902752
_cell_length_c 8.212516
_cell_angle_alpha 90.000000
_cell_angle_beta 105.165912
_cell_angle_gamma 90.000000
_cell_volume 2742.634614
_symmetry_space_group_name_H-M "C 2/C"
_symmetry_group_IT_number 15
_symmetry_cell_setting 'monoclinic'
loop_
_space_group_symop_operation_xyz
x,y,z
-x,y,1/2-z
-x,-y,-z
x,-y,1/2+z
1/2+x,1/2+y,z
1/2-x,1/2+y,1/2-z
1/2-x,1/2-y,-z
1/2+x,1/2-y,1/2+z
loop_
_atom_site_type_symbol
_atom_site_label
_atom_site_fract_x
_atom_site_fract_y
_atom_site_fract_z
Si Si1 0.269960 0.393156 0.091935
Si Si2 0.000000 0.782459 0.750000
Si Si3 0.091229 0.403759 0.998821
Si Si4 0.103461 0.447332 0.376182
Si Si5 0.451823 0.821713 0.932800
Si Si6 0.217738 0.968790 0.056668
Si Si7 0.166559 0.166275 0.353756
Si Si8 0.697859 0.252172 0.217213
O O1 0.179224 0.388132 0.023693
O O2 0.290289 0.437766 0.267324
O O3 0.299237 0.447667 0.971673
O O4 0.294996 0.313317 0.143185
O O5 0.078961 0.821918 0.753855
O O6 0.974728 0.734085 0.585296
O O7 0.082590 0.417616 0.187452
O O8 0.071589 0.475907 0.895767
O O9 0.033192 0.344262 0.913621
O O10 0.080211 0.392282 0.499489
O O11 0.193562 0.458092 0.431757
O O12 0.379106 0.790475 0.800643
O O13 0.177172 0.915660 0.907981
O O14 0.228823 0.201107 0.266938
O O15 0.185630 0.207472 0.535806
#
# Coordination Sequence:
#
# PCOD9256485 Si02
#       8
#     8   4   8   8   8   8   8   8
#     4   9  18  31  50  77  97 132 161 209 239 303
#     4  10  18  24  46  72  98 118 160 208 252 278
#     4  10  19  29  47  73 108 128 168 191 248 290
#     4  10  18  30  45  74 101 139 155 200 237 304
#     4  11  17  27  43  70 100 130 156 205 242 288
#     4   9  17  31  50  72 102 126 166 197 254 283
#     4   9  16  28  45  71  97 123 159 211 244 288
#     4   9  17  27  47  68  99 127 167 199 252 277
#
# _framework density 21.876774999999999
#
# number of rings (size 3 to 8) (size 9 to 14) (size 15 to 20)
#    0.000    2.400    2.667    1.200    3.733    0.000 
#    0.000    0.000    0.000    8.000    6.933    0.000 
#    0.000    0.000    0.000    0.000    0.000    0.000 
#
# Total GULP energy -167539.761581 kJ/mol
# GULP energy per Si atom -5584.658719 kJ/mol
# Density = 2.182698 g / cm^3
# Si number density = 21.876775 Si / 1000 Ang^3
#
#
#
# Elastic Constant Matrix: (Units=GPa)
#
#
# Indices 1 2 3 4 5 6 
#
# 1 80.3475 65.4337 38.9936 0.0000 18.6205 0.0000
# 2 65.4337 93.7356 45.6107 0.0000 29.4714 0.0000
# 3 38.9936 45.6107 69.1902 0.0000 18.7734 0.0000
# 4 0.0000 0.0000 0.0000 30.3154 0.0000 6.3462
# 5 18.6205 29.4714 18.7734 0.0000 27.9651 0.0000
# 6 0.0000 0.0000 0.0000 6.3462 0.0000 34.4339
#
#
#
# Elastic Compliance Matrix: (Units=1/GPa)
#
#
# Indices 1 2 3 4 5 6 
#
# 1 0.030117 -0.019955 -0.004993 0.000000 0.004329 0.000000
# 2 -0.019955 0.032872 -0.005660 0.000000 -0.017556 0.000000
# 3 -0.004993 -0.005660 0.022593 0.000000 -0.005877 0.000000
# 4 0.000000 0.000000 0.000000 0.034310 0.000000 -0.006323
# 5 0.004329 -0.017556 -0.005877 0.000000 0.055324 0.000000
# 6 0.000000 0.000000 0.000000 -0.006323 0.000000 0.030207
#
#
# Mechanical properties :
#
#
# Convention : Reuss Voigt Hill
#
# Bulk Modulus (GPa) = 41.04113 60.37213 50.70663
# Shear Modulus (GPa) = 18.19759 24.75855 21.47807
#
# Velocity S-wave (km/s) = 2.88726 3.36777 3.13673
# Velocity P-wave (km/s) = 5.46954 6.54055 6.02888
#
# Compressibility (1/GPa) = 0.02436580
#
# Stress axis : x y z
#
# Youngs Moduli (GPa) = 33.20367 30.42072 44.26220
#
# Poissons Ratio (x) = 0.60705 0.22100
# Poissons Ratio (y) = 0.66259 0.25052
# Poissons Ratio (z) = 0.16579 0.17218
#
# Static dielectric constant tensor:
#      x y z
#    x 1.806460 0.000000 -0.048200 
#    y 0.000000 1.804120 0.000000 
#    z -0.048200 0.000000 1.877950 
# 
# From -- ./inp_files/50304.got.cif
#   From: 2010.05.17/outbox.cif.g08.bks.cpg/sg15_26_cif.got.tgz:50304.got - 2010.06.03 18:47:42.
