data_PCOD9256253
_publ_section_title
;
Structure prediction by ZEFSAII (Michael W. Deem and Ramdas Pophale) SiO2 
 PCOD9256253
Probable space group: C 2/C
;
_chemical_formula_sum "Si O2"
_cell_formula_units_Z 48
_cell_length_a 16.595792
_cell_length_b 8.969828
_cell_length_c 13.748483
_cell_angle_alpha 90.000000
_cell_angle_beta 95.903149
_cell_angle_gamma 90.000000
_cell_volume 2035.765546
_symmetry_space_group_name_H-M "C 2/C"
_symmetry_group_IT_number 15
_symmetry_cell_setting 'monoclinic'
loop_
_space_group_symop_operation_xyz
x,y,z
-x,y,1/2-z
-x,-y,-z
x,-y,1/2+z
1/2+x,1/2+y,z
1/2-x,1/2+y,1/2-z
1/2-x,1/2-y,-z
1/2+x,1/2-y,1/2+z
loop_
_atom_site_type_symbol
_atom_site_label
_atom_site_fract_x
_atom_site_fract_y
_atom_site_fract_z
Si Si1 0.274981 0.806658 0.393931
Si Si2 0.533525 0.311594 0.156555
Si Si3 0.590788 0.963133 0.539161
Si Si4 0.374724 0.508237 0.584983
Si Si5 0.821667 0.994844 0.349948
Si Si6 0.189882 0.699412 0.904684
O O1 0.250000 0.750000 0.500000
O O2 0.288327 0.660329 0.331088
O O3 0.356404 0.906726 0.405093
O O4 0.198659 0.912476 0.366861
O O5 0.500000 0.236693 0.250000
O O6 0.581477 0.189512 0.099503
O O7 0.456740 0.395359 0.099470
O O8 0.597325 0.440140 0.192069
O O9 0.637622 0.931302 0.445173
O O10 0.500000 0.000000 0.500000
O O11 0.351557 0.498735 0.467527
O O12 0.369686 0.337670 0.621848
O O13 0.748969 0.875716 0.334294
O O14 0.250000 0.750000 0.000000
#
# Coordination Sequence:
#
# PCOD9256253 Si02
#       6
#     8   8   8   8   8   8
#     4  10  18  34  61  97 119 143 211 266 301 349
#     4  12  26  41  57  90 135 168 199 251 322 375
#     4  12  22  36  65  97 122 162 207 267 306 364
#     4  10  19  36  62  87 116 160 207 253 293 365
#     4  10  19  37  64  93 120 154 206 258 300 368
#     4  10  17  35  63  93 116 150 212 257 304 346
#
# _framework density 23.578354000000001
#
# number of rings (size 3 to 8) (size 9 to 14) (size 15 to 20)
#    0.000    1.333    8.333    2.500    2.333    0.000 
#    0.000    4.167    0.000    0.000    0.000    0.000 
#    0.000    0.000    0.000    0.000    0.000    0.000 
#
# Total GULP energy -134060.745624 kJ/mol
# GULP energy per Si atom -5585.864401 kJ/mol
# Density = 2.352469 g / cm^3
# Si number density = 23.578354 Si / 1000 Ang^3
#
#
#
# Elastic Constant Matrix: (Units=GPa)
#
#
# Indices 1 2 3 4 5 6 
#
# 1 124.0424 29.9389 9.1121 0.0000 -1.5866 0.0000
# 2 29.9389 124.3897 3.2872 0.0000 8.9093 0.0000
# 3 9.1121 3.2872 47.8078 0.0000 -4.1551 0.0000
# 4 0.0000 0.0000 0.0000 22.8060 0.0000 -6.5817
# 5 -1.5866 8.9093 -4.1551 0.0000 35.6806 0.0000
# 6 0.0000 0.0000 0.0000 -6.5817 0.0000 58.1895
#
#
#
# Elastic Compliance Matrix: (Units=1/GPa)
#
#
# Indices 1 2 3 4 5 6 
#
# 1 0.008686 -0.002106 -0.001446 0.000000 0.000744 0.000000
# 2 -0.002106 0.008723 -0.000400 0.000000 -0.002318 0.000000
# 3 -0.001446 -0.000400 0.021440 0.000000 0.002532 0.000000
# 4 0.000000 0.000000 0.000000 0.045328 0.000000 0.005127
# 5 0.000744 -0.002318 0.002532 0.000000 0.028933 0.000000
# 6 0.000000 0.000000 0.000000 0.005127 0.000000 0.017765
#
#
# Mechanical properties :
#
#
# Convention : Reuss Voigt Hill
#
# Bulk Modulus (GPa) = 32.31487 42.32403 37.31945
# Shear Modulus (GPa) = 33.53609 40.26198 36.89904
#
# Velocity S-wave (km/s) = 3.77546 4.13677 3.96024
# Velocity P-wave (km/s) = 5.72194 6.38800 6.06412
#
# Compressibility (1/GPa) = 0.03094550
#
# Stress axis : x y z
#
# Youngs Moduli (GPa) = 115.13176 114.64411 46.64111
#
# Poissons Ratio (x) = 0.24139 0.06745
# Poissons Ratio (y) = 0.24242 0.01865
# Poissons Ratio (z) = 0.16649 0.04585
#
# Static dielectric constant tensor:
#      x y z
#    x 1.788880 0.000000 0.021990 
#    y 0.000000 1.928770 0.000000 
#    z 0.021990 0.000000 2.024550 
# 
# From -- ./inp_files/203008.got.cif
#   From: 2010.05.17/outbox.cif.g08.bks.cpg/sg15_102_cif.got.tgz:203008.got - 2010.06.03 18:47:42.
