data_PCOD9256814
_publ_section_title
;
Structure prediction by ZEFSAII (Michael W. Deem and Ramdas Pophale) SiO2 
 PCOD9256814
Probable space group: C 2/C
;
_chemical_formula_sum "Si O2"
_cell_formula_units_Z 56
_cell_length_a 26.095442
_cell_length_b 17.224041
_cell_length_c 17.252687
_cell_angle_alpha 90.000000
_cell_angle_beta 162.119683
_cell_angle_gamma 90.000000
_cell_volume 2380.876306
_symmetry_space_group_name_H-M "C 2/C"
_symmetry_group_IT_number 15
_symmetry_cell_setting 'monoclinic'
loop_
_space_group_symop_operation_xyz
x,y,z
-x,y,1/2-z
-x,-y,-z
x,-y,1/2+z
1/2+x,1/2+y,z
1/2-x,1/2+y,1/2-z
1/2-x,1/2-y,-z
1/2+x,1/2-y,1/2+z
loop_
_atom_site_type_symbol
_atom_site_label
_atom_site_fract_x
_atom_site_fract_y
_atom_site_fract_z
Si Si1 0.788899 0.678932 0.704878
Si Si2 0.882537 0.072394 0.428339
Si Si3 0.986676 0.066263 0.308653
Si Si4 0.769578 0.841887 0.047504
Si Si5 0.736222 0.293188 0.299964
Si Si6 0.344832 0.339327 0.721066
Si Si7 0.144531 0.620832 0.210138
O O1 0.629267 0.625834 0.486562
O O2 0.830095 0.702763 0.853774
O O3 0.755644 0.757244 0.608364
O O4 0.951009 0.631828 0.912779
O O5 0.811013 0.105112 0.245236
O O6 0.736534 0.067038 0.281680
O O7 0.038240 0.128933 0.674621
O O8 0.960315 0.986672 0.542512
O O9 0.000000 0.013297 0.250000
O O10 0.831791 0.115048 0.120941
O O11 0.705644 0.845551 0.044314
O O12 0.750000 0.750000 0.000000
O O13 0.678038 0.891757 0.849440
O O14 0.731217 0.204004 0.317811
O O15 0.541436 0.315674 0.007382
#
# Coordination Sequence:
#
# PCOD9256814 Si02
#       7
#     8   8   8   8   8   8   8
#     4  10  20  37  56  83 113 151 206 241 290 345
#     4  11  20  37  58  86 122 153 192 231 301 363
#     4  11  24  39  60  86 114 151 198 254 297 346
#     4   9  18  29  50  85 118 155 190 230 284 346
#     4   8  16  30  49  79 112 145 191 233 274 342
#     4   9  19  37  61  80 107 150 195 242 287 347
#     4  10  18  29  52  79 116 155 182 237 284 343
#
# _framework density 23.520752000000002
#
# number of rings (size 3 to 8) (size 9 to 14) (size 15 to 20)
#    0.000    2.286    1.429    2.571    0.000    1.714 
#    0.000    0.000    0.000    0.000    0.000    0.000 
#    0.000    0.000    0.000    0.000    0.000    0.000 
#
# Total GULP energy -156101.491689 kJ/mol
# GULP energy per Si atom -5575.053275 kJ/mol
# Density = 2.346722 g / cm^3
# Si number density = 23.520752 Si / 1000 Ang^3
#
#
#
# Elastic Constant Matrix: (Units=GPa)
#
#
# Indices 1 2 3 4 5 6 
#
# 1 71.0516 19.1405 8.5964 0.0000 2.0219 0.0000
# 2 19.1405 59.4654 9.9999 0.0000 11.9330 0.0000
# 3 8.5964 9.9999 48.3166 0.0000 9.2341 0.0000
# 4 0.0000 0.0000 0.0000 26.5078 0.0000 3.6545
# 5 2.0219 11.9330 9.2341 0.0000 28.1275 0.0000
# 6 0.0000 0.0000 0.0000 3.6545 0.0000 36.4870
#
#
#
# Elastic Compliance Matrix: (Units=1/GPa)
#
#
# Indices 1 2 3 4 5 6 
#
# 1 0.015629 -0.005022 -0.002063 0.000000 0.001684 0.000000
# 2 -0.005022 0.020275 -0.001844 0.000000 -0.007635 0.000000
# 3 -0.002063 -0.001844 0.022691 0.000000 -0.006519 0.000000
# 4 0.000000 0.000000 0.000000 0.038253 0.000000 -0.003831
# 5 0.001684 -0.007635 -0.006519 0.000000 0.040811 0.000000
# 6 0.000000 0.000000 0.000000 -0.003831 0.000000 0.027791
#
#
# Mechanical properties :
#
#
# Convention : Reuss Voigt Hill
#
# Bulk Modulus (GPa) = 24.54685 28.25634 26.40159
# Shear Modulus (GPa) = 25.39544 27.63090 26.51317
#
# Velocity S-wave (km/s) = 3.28945 3.43117 3.36106
# Velocity P-wave (km/s) = 4.98861 5.26657 5.12947
#
# Compressibility (1/GPa) = 0.04073843
#
# Stress axis : x y z
#
# Youngs Moduli (GPa) = 63.98480 49.32169 44.06972
#
# Poissons Ratio (x) = 0.24767 0.09093
# Poissons Ratio (y) = 0.32130 0.08125
# Poissons Ratio (z) = 0.13201 0.09093
#
# Static dielectric constant tensor:
#      x y z
#    x 2.052840 0.000000 -0.151170 
#    y 0.000000 1.948650 0.000000 
#    z -0.151170 0.000000 1.949740 
# 
# From -- ./inp_files/222979.got.cif
#   From: 2010.05.17/outbox.cif.g08.bks.cpg/sg15_112_cif.got.tgz:222979.got - 2010.06.03 18:47:42.
