data_PCOD9256339
_publ_section_title
;
Structure prediction by ZEFSAII (Michael W. Deem and Ramdas Pophale) SiO2 
 PCOD9256339
Probable space group: C 2/C
;
_chemical_formula_sum "Si O2"
_cell_formula_units_Z 44
_cell_length_a 21.731952
_cell_length_b 15.958629
_cell_length_c 12.559013
_cell_angle_alpha 90.000000
_cell_angle_beta 156.936723
_cell_angle_gamma 90.000000
_cell_volume 1706.302575
_symmetry_space_group_name_H-M "C 2/C"
_symmetry_group_IT_number 15
_symmetry_cell_setting 'monoclinic'
loop_
_space_group_symop_operation_xyz
x,y,z
-x,y,1/2-z
-x,-y,-z
x,-y,1/2+z
1/2+x,1/2+y,z
1/2-x,1/2+y,1/2-z
1/2-x,1/2-y,-z
1/2+x,1/2-y,1/2+z
loop_
_atom_site_type_symbol
_atom_site_label
_atom_site_fract_x
_atom_site_fract_y
_atom_site_fract_z
Si Si1 0.608741 0.413019 0.023619
Si Si2 0.268324 0.567654 0.573110
Si Si3 0.644423 0.121246 0.868517
Si Si4 0.000000 0.685168 0.250000
Si Si5 0.356524 0.956152 0.837456
Si Si6 0.212816 0.267556 0.270561
O O1 0.500000 0.437001 0.750000
O O2 0.585261 0.418810 0.113899
O O3 0.758360 0.474164 0.243242
O O4 0.645294 0.315566 0.062306
O O5 0.229501 0.468606 0.510035
O O6 0.257678 0.587999 0.430108
O O7 0.130395 0.624551 0.404522
O O8 0.457628 0.102964 0.574965
O O9 0.664610 0.166104 0.785394
O O10 0.732238 0.184997 0.084844
O O11 0.077578 0.738458 0.467626
O O12 0.500000 0.000000 0.000000
#
# Coordination Sequence:
#
# PCOD9256339 Si02
#       6
#     8   8   8   4   8   8
#     4  11  23  38  56  88 127 168 211 262 310 360
#     4  10  18  34  59  84 117 163 214 249 296 373
#     4  10  18  34  62  93 116 164 203 257 307 384
#     4  10  18  34  62  92 122 166 208 256 302 372
#     4  10  17  36  61  87 117 158 219 249 301 376
#     4  10  19  35  59  90 130 156 200 253 324 366
#
# _framework density 25.786750999999999
#
# number of rings (size 3 to 8) (size 9 to 14) (size 15 to 20)
#    0.000    1.818    5.455    3.273    0.000    0.727 
#    6.545    0.000    0.000    1.091    0.000    0.000 
#    0.000    0.000    0.000    0.000    0.000    0.000 
#
# Total GULP energy -122920.093087 kJ/mol
# GULP energy per Si atom -5587.276959 kJ/mol
# Density = 2.572806 g / cm^3
# Si number density = 25.786751 Si / 1000 Ang^3
#
#
#
# Elastic Constant Matrix: (Units=GPa)
#
#
# Indices 1 2 3 4 5 6 
#
# 1 28.5862 7.8306 46.5949 0.0000 -30.8819 0.0000
# 2 7.8306 95.2561 72.5711 0.0000 -24.5301 0.0000
# 3 46.5949 72.5711 238.8823 0.0000 -78.2409 0.0000
# 4 0.0000 0.0000 0.0000 42.4001 0.0000 -16.9227
# 5 -30.8819 -24.5301 -78.2409 0.0000 59.7161 0.0000
# 6 0.0000 0.0000 0.0000 -16.9227 0.0000 35.1095
#
#
#
# Elastic Compliance Matrix: (Units=1/GPa)
#
#
# Indices 1 2 3 4 5 6 
#
# 1 0.085241 0.007772 -0.006138 0.000000 0.039233 0.000000
# 2 0.007772 0.014371 -0.004610 0.000000 0.003882 0.000000
# 3 -0.006138 -0.004610 0.008976 0.000000 0.006692 0.000000
# 4 0.000000 0.000000 0.000000 0.029203 0.000000 0.014076
# 5 0.039233 0.003882 0.006692 0.000000 0.047398 0.000000
# 6 0.000000 0.000000 0.000000 0.014076 0.000000 0.035267
#
#
# Mechanical properties :
#
#
# Convention : Reuss Voigt Hill
#
# Bulk Modulus (GPa) = 9.74323 68.52419 39.13371
# Shear Modulus (GPa) = 19.18505 43.16034 31.17269
#
# Velocity S-wave (km/s) = 2.73057 4.09558 3.48065
# Velocity P-wave (km/s) = 3.70513 6.99972 5.60018
#
# Compressibility (1/GPa) = 0.10263539
#
# Stress axis : x y z
#
# Youngs Moduli (GPa) = 11.73149 69.58353 111.40928
#
# Poissons Ratio (x) = -0.54079 0.68380
# Poissons Ratio (y) = -0.09118 0.51364
# Poissons Ratio (z) = 0.07200 0.32080
#
# Static dielectric constant tensor:
#      x y z
#    x 2.163340 0.000000 -0.024550 
#    y 0.000000 1.957750 0.000000 
#    z -0.024550 0.000000 2.127890 
# 
# From -- ./inp_files/134269.got.cif
#   From: 2010.05.17/outbox.cif.g08.bks.cpg/sg15_68_cif.got.tgz:134269.got - 2010.06.03 18:47:42.
