data_PCOD9256597
_publ_section_title
;
Structure prediction by ZEFSAII (Michael W. Deem and Ramdas Pophale) SiO2 
 PCOD9256597
Probable space group: C 2/C
;
_chemical_formula_sum "Si O2"
_cell_formula_units_Z 48
_cell_length_a 20.056833
_cell_length_b 27.352640
_cell_length_c 13.629344
_cell_angle_alpha 90.000000
_cell_angle_beta 160.474570
_cell_angle_gamma 90.000000
_cell_volume 2499.054690
_symmetry_space_group_name_H-M "C 2/C"
_symmetry_group_IT_number 15
_symmetry_cell_setting 'monoclinic'
loop_
_space_group_symop_operation_xyz
x,y,z
-x,y,1/2-z
-x,-y,-z
x,-y,1/2+z
1/2+x,1/2+y,z
1/2-x,1/2+y,1/2-z
1/2-x,1/2-y,-z
1/2+x,1/2-y,1/2+z
loop_
_atom_site_type_symbol
_atom_site_label
_atom_site_fract_x
_atom_site_fract_y
_atom_site_fract_z
Si Si1 0.181587 0.709343 0.580460
Si Si2 0.585626 0.045870 0.237651
Si Si3 0.874291 0.311379 0.815644
Si Si4 0.274689 0.907736 0.767362
Si Si5 0.165908 0.135003 0.853909
Si Si6 0.731020 0.492437 0.840753
O O1 0.300078 0.759816 0.752837
O O2 0.315775 0.666824 0.718729
O O3 0.077990 0.694742 0.538034
O O4 0.000000 0.715897 0.250000
O O5 0.641081 0.056961 0.202412
O O6 0.657631 0.095765 0.389757
O O7 0.715112 0.004394 0.472369
O O8 0.362720 0.030064 0.957099
O O9 0.881371 0.355604 0.902577
O O10 0.712410 0.328537 0.508555
O O11 0.289481 0.938372 0.886789
O O12 0.041066 0.894150 0.426705
O O13 0.500000 0.500000 0.500000
#
# Coordination Sequence:
#
# PCOD9256597 Si02
#       6
#     8   8   8   8   8   8
#     4  10  18  28  44  72 102 138 175 202 259 320
#     4  10  22  37  50  74 107 137 179 225 262 308
#     4  10  19  28  46  69 104 138 174 212 252 322
#     4  11  21  35  52  74 103 145 182 216 268 311
#     4  10  19  30  51  70 105 141 172 211 261 321
#     4  11  23  34  54  74  99 142 188 221 267 315
#
# _framework density 19.207263000000001
#
# number of rings (size 3 to 8) (size 9 to 14) (size 15 to 20)
#    0.000    1.667    1.667    6.500   11.667    0.000 
#    0.000    0.000    0.000    0.000    0.000    0.000 
#    0.000   21.333    0.000    0.000    0.000    8.167 
#
# Total GULP energy -133864.239827 kJ/mol
# GULP energy per Si atom -5577.676659 kJ/mol
# Density = 1.916355 g / cm^3
# Si number density = 19.207263 Si / 1000 Ang^3
#
#
#
# Elastic Constant Matrix: (Units=GPa)
#
#
# Indices 1 2 3 4 5 6 
#
# 1 39.8165 35.5168 12.0351 0.0000 15.0161 0.0000
# 2 35.5168 105.9355 13.3963 0.0000 9.8410 0.0000
# 3 12.0351 13.3963 67.7364 0.0002 24.2615 -0.0001
# 4 0.0000 0.0000 0.0002 21.9342 0.0000 10.9353
# 5 15.0161 9.8410 24.2615 0.0000 26.5867 0.0000
# 6 0.0000 0.0000 -0.0001 10.9353 0.0000 44.8037
#
#
#
# Elastic Compliance Matrix: (Units=1/GPa)
#
#
# Indices 1 2 3 4 5 6 
#
# 1 0.044706 -0.013219 0.002915 0.000000 -0.023018 0.000000
# 2 -0.013219 0.013726 -0.001813 0.000000 0.004040 0.000000
# 3 0.002915 -0.001813 0.022214 0.000000 -0.021246 0.000000
# 4 0.000000 0.000000 0.000000 0.051907 0.000000 -0.012669
# 5 -0.023018 0.004040 -0.021246 0.000000 0.068506 0.000000
# 6 0.000000 0.000000 0.000000 -0.012669 0.000000 0.025412
#
#
# Mechanical properties :
#
#
# Convention : Reuss Voigt Hill
#
# Bulk Modulus (GPa) = 17.72653 37.26499 27.49576
# Shear Modulus (GPa) = 18.55239 28.83427 23.69333
#
# Velocity S-wave (km/s) = 3.11127 3.87876 3.51602
# Velocity P-wave (km/s) = 4.70700 6.28517 5.55244
#
# Compressibility (1/GPa) = 0.05641262
#
# Stress axis : x y z
#
# Youngs Moduli (GPa) = 22.36823 72.85660 45.01747
#
# Poissons Ratio (x) = 0.96310 -0.13125
# Poissons Ratio (y) = 0.29569 0.08161
# Poissons Ratio (z) = -0.06521 0.13208
#
# Static dielectric constant tensor:
#      x y z
#    x 1.726420 0.000000 0.036170 
#    y 0.000000 1.723840 0.000000 
#    z 0.036170 0.000000 1.677970 
# 
# From -- ./inp_files/169809.got.cif
#   From: 2010.05.17/outbox.cif.g08.bks.cpg/sg15_85_cif.got.tgz:169809.got - 2010.06.03 18:47:42.
