data_PCOD9256151
_publ_section_title
;
Structure prediction by ZEFSAII (Michael W. Deem and Ramdas Pophale) SiO2 
 PCOD9256151
Probable space group: C 2/C
;
_chemical_formula_sum "Si O2"
_cell_formula_units_Z 44
_cell_length_a 16.561911
_cell_length_b 16.270115
_cell_length_c 8.692966
_cell_angle_alpha 90.000000
_cell_angle_beta 92.325704
_cell_angle_gamma 90.000000
_cell_volume 2340.513607
_symmetry_space_group_name_H-M "C 2/C"
_symmetry_group_IT_number 15
_symmetry_cell_setting 'monoclinic'
loop_
_space_group_symop_operation_xyz
x,y,z
-x,y,1/2-z
-x,-y,-z
x,-y,1/2+z
1/2+x,1/2+y,z
1/2-x,1/2+y,1/2-z
1/2-x,1/2-y,-z
1/2+x,1/2-y,1/2+z
loop_
_atom_site_type_symbol
_atom_site_label
_atom_site_fract_x
_atom_site_fract_y
_atom_site_fract_z
Si Si1 0.500000 0.749107 0.750000
Si Si2 0.715695 0.381372 0.032736
Si Si3 0.328535 0.546382 0.649615
Si Si4 0.500000 0.229205 0.750000
Si Si5 0.500000 0.481065 0.750000
Si Si6 0.880588 0.288323 0.978314
Si Si7 0.427494 0.648055 0.462961
O O1 0.574101 0.798217 0.680893
O O2 0.466469 0.693061 0.610695
O O3 0.717196 0.414955 0.208854
O O4 0.800746 0.341241 0.994455
O O5 0.698663 0.458981 0.920488
O O6 0.648929 0.307915 0.014863
O O7 0.419402 0.531690 0.718621
O O8 0.342713 0.609686 0.509568
O O9 0.552285 0.188358 0.888177
O O10 0.568005 0.285071 0.671078
O O11 0.517373 0.423991 0.603636
#
# Coordination Sequence:
#
# PCOD9256151 Si02
#       7
#     4   8   8   4   4   8   8
#     4  10  17  34  63  81 114 151 200 228 281 345
#     4  11  24  37  57  87 131 148 187 239 304 345
#     4  12  21  34  53  87 123 157 185 233 290 357
#     4   9  20  36  61  79 116 153 204 232 275 345
#     4  11  21  28  50  84 126 148 182 216 282 372
#     4  10  22  41  59  86 115 162 192 241 286 346
#     4  10  18  29  51  87 108 149 182 229 279 346
#
# _framework density 18.799292000000001
#
# number of rings (size 3 to 8) (size 9 to 14) (size 15 to 20)
#    0.000    1.455    3.636    4.364    2.545    0.000 
#    0.000    4.545    0.000    3.273    0.000    0.000 
#    0.000    0.000    0.000    0.000    0.000    0.000 
#
# Total GULP energy -122667.370247 kJ/mol
# GULP energy per Si atom -5575.789557 kJ/mol
# Density = 1.875650 g / cm^3
# Si number density = 18.799292 Si / 1000 Ang^3
#
#
#
# Elastic Constant Matrix: (Units=GPa)
#
#
# Indices 1 2 3 4 5 6 
#
# 1 93.9452 30.8415 38.7916 0.0000 -27.0510 0.0000
# 2 30.8415 47.6153 29.1162 0.0000 -15.2227 0.0000
# 3 38.7916 29.1162 110.2853 0.0000 -29.8560 0.0000
# 4 0.0000 0.0000 0.0000 12.5339 0.0000 -7.1317
# 5 -27.0510 -15.2227 -29.8560 0.0000 34.3352 0.0000
# 6 0.0000 0.0000 0.0000 -7.1317 0.0000 24.2694
#
#
#
# Elastic Compliance Matrix: (Units=1/GPa)
#
#
# Indices 1 2 3 4 5 6 
#
# 1 0.015840 -0.006680 -0.001610 0.000000 0.008118 0.000000
# 2 -0.006680 0.029219 -0.004293 0.000000 0.003959 0.000000
# 3 -0.001610 -0.004293 0.012959 0.000000 0.008096 0.000000
# 4 0.000000 0.000000 0.000000 0.095802 0.000000 0.028152
# 5 0.008118 0.003959 0.008096 0.000000 0.044315 0.000000
# 6 0.000000 0.000000 0.000000 0.028152 0.000000 0.049477
#
#
# Mechanical properties :
#
#
# Convention : Reuss Voigt Hill
#
# Bulk Modulus (GPa) = 30.43975 49.92715 40.18345
# Shear Modulus (GPa) = 17.62251 24.43415 21.02833
#
# Velocity S-wave (km/s) = 3.06502 3.60910 3.34813
# Velocity P-wave (km/s) = 5.36218 6.63198 6.03059
#
# Compressibility (1/GPa) = 0.03285178
#
# Stress axis : x y z
#
# Youngs Moduli (GPa) = 63.13212 34.22440 77.16656
#
# Poissons Ratio (x) = 0.22861 0.12427
# Poissons Ratio (y) = 0.42171 0.33125
# Poissons Ratio (z) = 0.10167 0.14692
#
# Static dielectric constant tensor:
#      x y z
#    x 1.645620 0.000000 -0.017340 
#    y 0.000000 1.689430 0.000000 
#    z -0.017340 0.000000 1.735380 
# 
# From -- ./inp_files/39301.got.cif
#   From: 2010.05.17/outbox.cif.g08.bks.cpg/sg15_20_cif.got.tgz:39301.got - 2010.06.03 18:47:42.
