data_PCOD9256650
_publ_section_title
;
Structure prediction by ZEFSAII (Michael W. Deem and Ramdas Pophale) SiO2 
 PCOD9256650
Probable space group: C 2/C
;
_chemical_formula_sum "Si O2"
_cell_formula_units_Z 64
_cell_length_a 31.697516
_cell_length_b 18.600611
_cell_length_c 14.736267
_cell_angle_alpha 90.000000
_cell_angle_beta 156.018953
_cell_angle_gamma 90.000000
_cell_volume 3531.265810
_symmetry_space_group_name_H-M "C 2/C"
_symmetry_group_IT_number 15
_symmetry_cell_setting 'monoclinic'
loop_
_space_group_symop_operation_xyz
x,y,z
-x,y,1/2-z
-x,-y,-z
x,-y,1/2+z
1/2+x,1/2+y,z
1/2-x,1/2+y,1/2-z
1/2-x,1/2-y,-z
1/2+x,1/2-y,1/2+z
loop_
_atom_site_type_symbol
_atom_site_label
_atom_site_fract_x
_atom_site_fract_y
_atom_site_fract_z
Si Si1 0.377365 0.760162 0.021085
Si Si2 0.757366 0.895208 0.770236
Si Si3 0.857204 0.169960 0.644336
Si Si4 0.156983 0.864797 0.915606
Si Si5 0.411836 0.611524 0.409945
Si Si6 0.741371 0.937033 0.224118
Si Si7 0.237889 0.681513 0.595299
Si Si8 0.537397 0.464994 0.918385
O O1 0.500000 0.757201 0.250000
O O2 0.350222 0.714716 0.057617
O O3 0.334354 0.840569 0.934084
O O4 0.317770 0.719981 0.821929
O O5 0.722407 0.978042 0.690638
O O6 0.801946 0.877857 0.957796
O O7 0.850377 0.878094 0.882726
O O8 0.838021 0.253823 0.583746
O O9 0.800071 0.156458 0.627941
O O10 0.979085 0.152363 0.884925
O O11 0.163527 0.868600 0.820937
O O12 0.048892 0.907540 0.724009
O O13 0.243677 0.905969 0.145401
O O14 0.440722 0.526932 0.467066
O O15 0.681052 0.882383 0.039587
O O16 0.854799 0.930481 0.399191
O O17 0.500000 0.500925 0.750000
#
# Coordination Sequence:
#
# PCOD9256650 Si02
#       8
#     8   8   8   8   8   8   8   8
#     4  10  19  35  52  70  92 125 171 212 240 278
#     4  10  22  32  47  72 102 131 158 196 245 297
#     4  10  18  32  50  75 101 127 163 202 246 291
#     4  10  18  28  50  73  97 127 158 195 242 293
#     4  11  19  29  46  74 106 131 148 185 250 310
#     4   9  17  32  46  70 101 126 161 201 237 286
#     4   9  19  32  53  75  93 126 170 210 243 278
#     4   9  16  26  43  69  97 123 153 194 243 291
#
# _framework density 18.123812999999998
#
# number of rings (size 3 to 8) (size 9 to 14) (size 15 to 20)
#    0.000    2.250    0.000    6.375    0.000    3.500 
#    0.000    0.000    0.000    4.500    0.000   13.125 
#    0.000    0.000    0.000    0.000    0.000    0.000 
#
# Total GULP energy -178363.538842 kJ/mol
# GULP energy per Si atom -5573.860589 kJ/mol
# Density = 1.808256 g / cm^3
# Si number density = 18.123813 Si / 1000 Ang^3
#
#
#
# Elastic Constant Matrix: (Units=GPa)
#
#
# Indices 1 2 3 4 5 6 
#
# 1 52.8285 20.3275 12.9591 0.0000 -26.7819 0.0000
# 2 20.3275 106.4248 19.2067 0.0000 -15.0105 0.0000
# 3 12.9591 19.2067 26.6071 0.0000 -14.8026 0.0000
# 4 0.0000 0.0000 0.0000 13.3809 0.0000 -1.7049
# 5 -26.7819 -15.0105 -14.8026 0.0000 27.1301 0.0000
# 6 0.0000 0.0000 0.0000 -1.7049 0.0000 20.4178
#
#
#
# Elastic Compliance Matrix: (Units=1/GPa)
#
#
# Indices 1 2 3 4 5 6 
#
# 1 0.038786 -0.002750 0.005096 0.000000 0.039547 0.000000
# 2 -0.002750 0.011116 -0.006854 0.000000 -0.000304 0.000000
# 3 0.005096 -0.006854 0.058494 0.000000 0.033154 0.000000
# 4 0.000000 0.000000 0.000000 0.075537 0.000000 0.006307
# 5 0.039547 -0.000304 0.033154 0.000000 0.093820 0.000000
# 6 0.000000 0.000000 0.000000 0.006307 0.000000 0.049504
#
#
# Mechanical properties :
#
#
# Convention : Reuss Voigt Hill
#
# Bulk Modulus (GPa) = 10.06241 32.31634 21.18937
# Shear Modulus (GPa) = 13.53551 21.07689 17.30620
#
# Velocity S-wave (km/s) = 2.73579 3.41389 3.09348
# Velocity P-wave (km/s) = 3.94253 5.78006 4.94735
#
# Compressibility (1/GPa) = 0.09937981
#
# Stress axis : x y z
#
# Youngs Moduli (GPa) = 25.78246 89.96378 17.09573
#
# Poissons Ratio (x) = 0.24741 -0.08712
# Poissons Ratio (y) = 0.07090 0.11717
# Poissons Ratio (z) = -0.13139 0.61660
#
# Static dielectric constant tensor:
#      x y z
#    x 1.648460 0.000000 -0.029580 
#    y 0.000000 1.674050 0.000000 
#    z -0.029580 0.000000 1.636940 
# 
# From -- ./inp_files/182764.got.cif
#   From: 2010.05.17/outbox.cif.g08.bks.cpg/sg15_92_cif.got.tgz:182764.got - 2010.06.03 18:47:42.
