data_PCOD9256892
_publ_section_title
;
Structure prediction by ZEFSAII (Michael W. Deem and Ramdas Pophale) SiO2 
 PCOD9256892
Probable space group: C 2/C
;
_chemical_formula_sum "Si O2"
_cell_formula_units_Z 64
_cell_length_a 18.325990
_cell_length_b 9.331283
_cell_length_c 17.351236
_cell_angle_alpha 90.000000
_cell_angle_beta 48.528918
_cell_angle_gamma 90.000000
_cell_volume 2223.254571
_symmetry_space_group_name_H-M "C 2/C"
_symmetry_group_IT_number 15
_symmetry_cell_setting 'monoclinic'
loop_
_space_group_symop_operation_xyz
x,y,z
-x,y,1/2-z
-x,-y,-z
x,-y,1/2+z
1/2+x,1/2+y,z
1/2-x,1/2+y,1/2-z
1/2-x,1/2-y,-z
1/2+x,1/2-y,1/2+z
loop_
_atom_site_type_symbol
_atom_site_label
_atom_site_fract_x
_atom_site_fract_y
_atom_site_fract_z
Si Si1 0.042306 0.789090 0.309419
Si Si2 0.955970 0.514024 0.445712
Si Si3 0.239514 0.880050 0.253745
Si Si4 0.320322 0.048760 0.337940
Si Si5 0.140198 0.739842 0.463687
Si Si6 0.071746 0.282090 0.260204
Si Si7 0.415974 0.306720 0.588640
Si Si8 0.872776 0.968312 0.465339
O O1 0.136900 0.869594 0.280169
O O2 0.098911 0.671877 0.217457
O O3 0.212221 0.776247 0.344673
O O4 0.975216 0.674291 0.405385
O O5 0.854880 0.426731 0.518294
O O6 0.000000 0.500000 0.500000
O O7 0.017454 0.410702 0.345809
O O8 0.280527 0.017292 0.276075
O O9 0.329303 0.813962 0.140952
O O10 0.144392 0.861329 0.525972
O O11 0.355936 0.889095 0.334963
O O12 0.235386 0.094314 0.455395
O O13 0.095529 0.071457 0.467679
O O14 0.030807 0.770382 0.508216
O O15 0.098640 0.172075 0.308610
O O16 0.000000 0.215097 0.250000
O O17 0.456290 0.403273 0.354209
#
# Coordination Sequence:
#
# PCOD9256892 Si02
#       8
#     8   8   8   8   8   8   8   8
#     4  11  19  31  51  80 118 149 185 245 307 350
#     4  10  18  33  54  84 113 145 197 254 293 347
#     4  10  18  30  47  73 115 147 178 238 301 352
#     4   9  21  33  51  81 115 153 198 238 299 362
#     4  10  20  33  48  80 118 148 184 230 313 359
#     4   9  19  36  57  81 118 165 204 243 300 369
#     4  10  18  30  51  78 109 149 192 243 287 353
#     4  11  20  32  55  83 119 153 188 245 313 360
#
# _framework density 28.786625999999998
#
# number of rings (size 3 to 8) (size 9 to 14) (size 15 to 20)
#    0.000    2.000    3.750    1.875    1.750    0.000 
#    0.000    1.250    0.000   30.000    0.000   21.875 
#    0.000    0.000    0.000    0.500    0.000    0.000 
#
# Total GULP energy -178235.551786 kJ/mol
# GULP energy per Si atom -5569.860993 kJ/mol
# Density = 2.872111 g / cm^3
# Si number density = 28.786626 Si / 1000 Ang^3
#
#
#
# Elastic Constant Matrix: (Units=GPa)
#
#
# Indices 1 2 3 4 5 6 
#
# 1 74.9583 34.8654 42.2740 0.0000 5.5726 0.0000
# 2 34.8654 160.8270 42.7218 0.0000 -6.1855 0.0000
# 3 42.2740 42.7218 141.1760 0.0000 -31.8796 0.0000
# 4 0.0000 0.0000 0.0000 42.3476 0.0000 -4.6798
# 5 5.5726 -6.1855 -31.8796 0.0000 42.8136 0.0000
# 6 0.0000 0.0000 0.0000 -4.6798 0.0000 25.1940
#
#
#
# Elastic Compliance Matrix: (Units=1/GPa)
#
#
# Indices 1 2 3 4 5 6 
#
# 1 0.018866 -0.002634 -0.006603 0.000000 -0.007753 0.000000
# 2 -0.002634 0.007145 -0.001278 0.000000 0.000424 0.000000
# 3 -0.006603 -0.001278 0.011540 0.000000 0.009268 0.000000
# 4 0.000000 0.000000 0.000000 0.024109 0.000000 0.004478
# 5 -0.007753 0.000424 0.009268 0.000000 0.031328 0.000000
# 6 0.000000 0.000000 0.000000 0.004478 0.000000 0.040524
#
#
# Mechanical properties :
#
#
# Convention : Reuss Voigt Hill
#
# Bulk Modulus (GPa) = 60.52748 68.52043 64.52396
# Shear Modulus (GPa) = 31.24062 39.21103 35.22583
#
# Velocity S-wave (km/s) = 3.29788 3.69470 3.50192
# Velocity P-wave (km/s) = 5.96433 6.48503 6.23013
#
# Compressibility (1/GPa) = 0.01652142
#
# Stress axis : x y z
#
# Youngs Moduli (GPa) = 53.00505 139.96606 86.65584
#
# Poissons Ratio (x) = 0.36869 0.57218
# Poissons Ratio (y) = 0.13962 0.11071
# Poissons Ratio (z) = 0.34998 0.17882
#
# Static dielectric constant tensor:
#      x y z
#    x 2.417120 0.000000 0.016120 
#    y 0.000000 2.386300 0.000000 
#    z 0.016120 0.000000 2.386900 
# 
# From -- ./inp_files/281780.got.cif
#   From: 2010.05.17/outbox.cif.g08.bks.cpg/sg15_141_cif.got.tgz:281780.got - 2010.06.03 18:47:42.
