data_PCOD9256586
_publ_section_title
;
Structure prediction by ZEFSAII (Michael W. Deem and Ramdas Pophale) SiO2 
 PCOD9256586
Probable space group: C 2/C
;
_chemical_formula_sum "Si O2"
_cell_formula_units_Z 64
_cell_length_a 32.481857
_cell_length_b 5.023742
_cell_length_c 25.744305
_cell_angle_alpha 90.000000
_cell_angle_beta 114.260941
_cell_angle_gamma 90.000000
_cell_volume 3829.953410
_symmetry_space_group_name_H-M "C 2/C"
_symmetry_group_IT_number 15
_symmetry_cell_setting 'monoclinic'
loop_
_space_group_symop_operation_xyz
x,y,z
-x,y,1/2-z
-x,-y,-z
x,-y,1/2+z
1/2+x,1/2+y,z
1/2-x,1/2+y,1/2-z
1/2-x,1/2-y,-z
1/2+x,1/2-y,1/2+z
loop_
_atom_site_type_symbol
_atom_site_label
_atom_site_fract_x
_atom_site_fract_y
_atom_site_fract_z
Si Si1 0.189368 0.468584 0.215423
Si Si2 0.278398 0.475275 0.327118
Si Si3 0.758743 0.974899 0.435158
Si Si4 0.398520 0.268998 0.776238
Si Si5 0.543929 0.779970 0.702463
Si Si6 0.557138 0.732645 0.833736
Si Si7 0.886240 0.737277 0.646040
Si Si8 0.204098 0.033228 0.936927
O O1 0.226587 0.447724 0.280642
O O2 0.192830 0.761627 0.191756
O O3 0.142790 0.348946 0.212285
O O4 0.206527 0.268883 0.180344
O O5 0.279962 0.453937 0.389522
O O6 0.716939 0.187776 0.415795
O O7 0.791291 0.070989 0.498653
O O8 0.742202 0.679681 0.440519
O O9 0.419828 0.559170 0.797849
O O10 0.384151 0.247693 0.707935
O O11 0.439540 0.067459 0.805466
O O12 0.548198 0.765520 0.767373
O O13 0.490944 0.757324 0.663057
O O14 0.574014 0.435298 0.849996
O O15 0.597254 0.946928 0.864513
O O16 0.841423 0.880018 0.601851
#
# Coordination Sequence:
#
# PCOD9256586 Si02
#       8
#     8   8   8   8   8   8   8   8
#     4  10  20  31  46  68  90 121 160 189 222 271
#     4  10  20  33  47  64  93 124 152 192 232 265
#     4  10  20  34  49  66  94 124 152 191 232 267
#     4  10  18  28  44  65  92 121 152 187 219 265
#     4   9  17  28  42  62  91 124 149 178 224 273
#     4   9  17  28  42  63  92 123 149 177 224 276
#     4  10  18  28  45  67  93 121 150 186 221 268
#     4  10  20  32  49  71  91 120 158 188 224 275
#
# _framework density 16.710386
#
# number of rings (size 3 to 8) (size 9 to 14) (size 15 to 20)
#    0.000    2.250    0.000    3.750    0.000    7.000 
#    0.000    0.000    0.000    0.000    0.000    0.000 
#    0.000   20.000    0.000    0.000    0.000    0.000 
#
# Total GULP energy -178165.833209 kJ/mol
# GULP energy per Si atom -5567.682288 kJ/mol
# Density = 1.667235 g / cm^3
# Si number density = 16.710386 Si / 1000 Ang^3
#
#
#
# Elastic Constant Matrix: (Units=GPa)
#
#
# Indices 1 2 3 4 5 6 
#
# 1 50.7564 -15.0359 15.2611 0.0025 1.2349 -0.0046
# 2 -15.0359 57.4113 0.8340 -0.0026 -4.8495 -0.0066
# 3 15.2611 0.8340 43.0011 -0.0002 -10.6609 -0.0007
# 4 0.0025 -0.0026 -0.0002 11.4385 0.0012 1.1908
# 5 1.2349 -4.8495 -10.6609 0.0012 9.8776 0.0006
# 6 -0.0046 -0.0066 -0.0007 1.1908 0.0006 17.8635
#
#
#
# Elastic Compliance Matrix: (Units=1/GPa)
#
#
# Indices 1 2 3 4 5 6 
#
# 1 0.025534 0.005683 -0.012659 -0.000004 -0.014065 0.000009
# 2 0.005683 0.019642 -0.000250 0.000001 0.008663 0.000008
# 3 -0.012659 -0.000250 0.038386 -0.000001 0.042890 -0.000003
# 4 -0.000004 0.000001 -0.000001 0.088035 -0.000010 -0.005869
# 5 -0.014065 0.008663 0.042890 -0.000010 0.153542 -0.000003
# 6 0.000009 0.000008 -0.000003 -0.005869 -0.000003 0.056371
#
#
# Mechanical properties :
#
#
# Convention : Reuss Voigt Hill
#
# Bulk Modulus (GPa) = 14.46980 17.03190 15.75085
# Shear Modulus (GPa) = 11.93317 17.84323 14.88820
#
# Velocity S-wave (km/s) = 2.67520 3.27125 2.98812
# Velocity P-wave (km/s) = 4.26851 4.94800 4.62076
#
# Compressibility (1/GPa) = 0.06910947
#
# Stress axis : x y z
#
# Youngs Moduli (GPa) = 39.16341 50.91143 26.05095
#
# Poissons Ratio (x) = -0.28934 0.32979
# Poissons Ratio (y) = -0.22257 0.00652
# Poissons Ratio (z) = 0.49578 0.01274
#
# Static dielectric constant tensor:
#      x y z
#    x 1.580890 0.000000 0.019950 
#    y 0.000000 1.578490 0.000000 
#    z 0.019950 0.000000 1.567800 
# 
# From -- ./inp_files/258450.got.cif
#   From: 2010.05.17/outbox.cif.g08.bks.cpg/sg15_130_cif.got.tgz:258450.got - 2010.06.03 18:47:42.
