data_PCOD9256926
_publ_section_title
;
Structure prediction by ZEFSAII (Michael W. Deem and Ramdas Pophale) SiO2 
 PCOD9256926
Probable space group: C 2/C
;
_chemical_formula_sum "Si O2"
_cell_formula_units_Z 52
_cell_length_a 4.911434
_cell_length_b 26.287058
_cell_length_c 20.832041
_cell_angle_alpha 90.000000
_cell_angle_beta 114.632978
_cell_angle_gamma 90.000000
_cell_volume 2444.805199
_symmetry_space_group_name_H-M "C 2/C"
_symmetry_group_IT_number 15
_symmetry_cell_setting 'monoclinic'
loop_
_space_group_symop_operation_xyz
x,y,z
-x,y,1/2-z
-x,-y,-z
x,-y,1/2+z
1/2+x,1/2+y,z
1/2-x,1/2+y,1/2-z
1/2-x,1/2-y,-z
1/2+x,1/2-y,1/2+z
loop_
_atom_site_type_symbol
_atom_site_label
_atom_site_fract_x
_atom_site_fract_y
_atom_site_fract_z
Si Si1 0.678352 0.446124 0.017761
Si Si2 0.500000 0.639781 0.250000
Si Si3 0.000000 0.433852 0.250000
Si Si4 0.756276 0.804481 0.171893
Si Si5 0.355856 0.635331 0.874747
Si Si6 0.642311 0.999994 0.643594
Si Si7 0.612178 0.433306 0.639536
Si Si8 0.500000 0.792739 0.750000
O O1 0.595152 0.402707 0.061004
O O2 0.001592 0.466890 0.071819
O O3 0.500000 0.500000 0.000000
O O4 0.612403 0.422799 0.941687
O O5 0.424166 0.606669 0.306382
O O6 0.794991 0.675207 0.278697
O O7 0.736479 0.400893 0.193000
O O8 0.124712 0.466198 0.204009
O O9 0.431293 0.827726 0.148572
O O10 0.782389 0.744086 0.186722
O O11 0.000000 0.821335 0.250000
O O12 0.872810 0.828238 0.117233
O O13 0.970978 0.983776 0.656636
O O14 0.434108 0.950227 0.641799
#
# Coordination Sequence:
#
# PCOD9256926 Si02
#       8
#     8   4   4   8   8   8   8   4
#     4   9  22  38  56  82 124 165 194 223 272 334
#     4  12  22  37  64  83 108 149 190 247 296 344
#     4  10  18  30  48  82 106 140 188 228 278 318
#     4  10  20  37  59  86 113 134 185 240 292 352
#     4  11  20  34  58  86 115 150 184 233 283 335
#     4  10  21  33  53  74 116 153 187 235 266 318
#     4  11  22  38  52  80 110 150 200 227 274 338
#     4  10  22  39  62  89 110 139 180 251 314 352
#
# _framework density 21.269587999999999
#
# number of rings (size 3 to 8) (size 9 to 14) (size 15 to 20)
#    0.462    1.231    1.538    3.231    0.000   11.077 
#    0.000    0.000    0.000    5.538    0.000    0.000 
#    0.000    0.000    0.000    0.000    0.000    0.000 
#
# Total GULP energy -145024.799640 kJ/mol
# GULP energy per Si atom -5577.876909 kJ/mol
# Density = 2.122118 g / cm^3
# Si number density = 21.269588 Si / 1000 Ang^3
#
#
#
# Elastic Constant Matrix: (Units=GPa)
#
#
# Indices 1 2 3 4 5 6 
#
# 1 64.7850 12.9841 2.2435 0.0000 -5.9633 0.0000
# 2 12.9841 77.9781 44.1055 0.0000 -5.5801 0.0000
# 3 2.2435 44.1055 102.6239 0.0000 -9.4920 0.0000
# 4 0.0000 0.0000 0.0000 -1.4730 0.0000 14.1583
# 5 -5.9633 -5.5801 -9.4920 0.0000 19.1994 0.0000
# 6 0.0000 0.0000 0.0000 14.1583 0.0000 11.6601
#
#
#
# Elastic Compliance Matrix: (Units=1/GPa)
#
#
# Indices 1 2 3 4 5 6 
#
# 1 0.016484 -0.003232 0.001483 0.000000 0.004914 0.000000
# 2 -0.003232 0.017612 -0.007459 0.000000 0.000427 0.000000
# 3 0.001483 -0.007459 0.013371 0.000000 0.004903 0.000000
# 4 0.000000 0.000000 0.000000 -0.053577 0.000000 0.065056
# 5 0.004914 0.000427 0.004903 0.000000 0.056159 0.000000
# 6 0.000000 0.000000 0.000000 0.065056 0.000000 0.006768
#
#
# Mechanical properties :
#
#
# Convention : Reuss Voigt Hill
#
# Bulk Modulus (GPa) = 34.42159 40.45037 37.43598
# Shear Modulus (GPa) = 58.88036 18.28090 38.58063
#
# Velocity S-wave (km/s) = 5.26716 2.93488 4.26360
# Velocity P-wave (km/s) = 7.29447 5.52665 6.47121
#
# Compressibility (1/GPa) = 0.02905153
#
# Stress axis : x y z
#
# Youngs Moduli (GPa) = 60.66349 56.78031 74.78805
#
# Poissons Ratio (x) = 0.18352 -0.11093
# Poissons Ratio (y) = 0.19607 0.55784
# Poissons Ratio (z) = -0.08998 0.42352
#
# Static dielectric constant tensor:
#      x y z
#    x 1.803710 0.000000 -0.003110 
#    y 0.000000 1.831800 0.000000 
#    z -0.003110 0.000000 1.806170 
# 
# From -- ./inp_files/227984.got.cif
#   From: 2010.05.17/outbox.cif.g08.bks.cpg/sg15_114_cif.got.tgz:227984.got - 2010.06.03 18:47:42.
