data_PCOD9256673
_publ_section_title
;
Structure prediction by ZEFSAII (Michael W. Deem and Ramdas Pophale) SiO2 
 PCOD9256673
Probable space group: C 2/C
;
_chemical_formula_sum "Si O2"
_cell_formula_units_Z 44
_cell_length_a 17.231693
_cell_length_b 13.961986
_cell_length_c 19.332018
_cell_angle_alpha 90.000000
_cell_angle_beta 28.650461
_cell_angle_gamma 90.000000
_cell_volume 2230.022147
_symmetry_space_group_name_H-M "C 2/C"
_symmetry_group_IT_number 15
_symmetry_cell_setting 'monoclinic'
loop_
_space_group_symop_operation_xyz
x,y,z
-x,y,1/2-z
-x,-y,-z
x,-y,1/2+z
1/2+x,1/2+y,z
1/2-x,1/2+y,1/2-z
1/2-x,1/2-y,-z
1/2+x,1/2-y,1/2+z
loop_
_atom_site_type_symbol
_atom_site_label
_atom_site_fract_x
_atom_site_fract_y
_atom_site_fract_z
Si Si1 0.654247 0.065798 0.859247
Si Si2 0.500000 0.907425 0.750000
Si Si3 0.281282 0.271287 0.661542
Si Si4 0.791447 0.018317 0.112478
Si Si5 0.429237 0.751043 0.912659
Si Si6 0.476420 0.536900 0.690371
O O1 0.627054 0.181020 0.878262
O O2 0.734575 0.042894 0.722170
O O3 0.791211 0.043940 0.810103
O O4 0.500000 0.000000 0.000000
O O5 0.417350 0.837268 0.869731
O O6 0.367155 0.964538 0.810810
O O7 0.343699 0.379997 0.608102
O O8 0.280011 0.246866 0.580884
O O9 0.093311 0.269946 0.829362
O O10 0.073620 0.011079 0.049582
O O11 0.452679 0.645262 0.864948
O O12 0.500000 0.498026 0.750000
#
# Coordination Sequence:
#
# PCOD9256673 Si02
#       6
#     8   4   8   8   8   8
#     4  11  22  37  54  82 118 151 194 230 280 336
#     4  10  18  28  52  82 118 138 182 216 282 336
#     4   9  19  33  51  78 113 147 181 225 276 330
#     4  10  22  34  56  85 119 152 187 225 280 342
#     4   9  17  28  49  79 112 143 174 213 276 346
#     4  10  21  34  54  80 114 153 184 228 283 340
#
# _framework density 19.730747000000001
#
# number of rings (size 3 to 8) (size 9 to 14) (size 15 to 20)
#    0.000    2.182    0.909    2.727    7.636    2.182 
#    0.000    0.000    0.000    0.000    2.364    2.545 
#    0.000    0.000    0.000    0.000    0.000    0.000 
#
# Total GULP energy -122536.891932 kJ/mol
# GULP energy per Si atom -5569.858724 kJ/mol
# Density = 1.968584 g / cm^3
# Si number density = 19.730747 Si / 1000 Ang^3
#
#
#
# Elastic Constant Matrix: (Units=GPa)
#
#
# Indices 1 2 3 4 5 6 
#
# 1 91.2579 24.1183 39.0146 -0.0007 -2.0322 0.0000
# 2 24.1183 48.8598 25.8363 -0.0036 12.7191 0.0009
# 3 39.0146 25.8363 108.4241 -0.0022 9.8128 0.0006
# 4 -0.0007 -0.0036 -0.0022 27.5625 0.0016 6.3167
# 5 -2.0322 12.7191 9.8128 0.0016 38.7650 -0.0002
# 6 0.0000 0.0009 0.0006 6.3167 -0.0002 26.2443
#
#
#
# Elastic Compliance Matrix: (Units=1/GPa)
#
#
# Indices 1 2 3 4 5 6 
#
# 1 0.014348 -0.005884 -0.004097 -0.000001 0.003720 0.000001
# 2 -0.005884 0.027502 -0.003676 0.000004 -0.008402 -0.000002
# 3 -0.004097 -0.003676 0.011753 0.000001 -0.001984 0.000000
# 4 -0.000001 0.000004 0.000001 0.038399 -0.000003 -0.009242
# 5 0.003720 -0.008402 -0.001984 -0.000003 0.029250 0.000001
# 6 0.000001 -0.000002 0.000000 -0.009242 0.000001 0.040328
#
#
# Mechanical properties :
#
#
# Convention : Reuss Voigt Hill
#
# Bulk Modulus (GPa) = 38.03994 47.38669 42.71331
# Shear Modulus (GPa) = 25.29634 29.15253 27.22444
#
# Velocity S-wave (km/s) = 3.58449 3.84802 3.71859
# Velocity P-wave (km/s) = 6.03762 6.61905 6.33501
#
# Compressibility (1/GPa) = 0.02628816
#
# Stress axis : x y z
#
# Youngs Moduli (GPa) = 69.69836 36.36090 85.08597
#
# Poissons Ratio (x) = 0.21395 0.34862
# Poissons Ratio (y) = 0.41011 0.31276
# Poissons Ratio (z) = 0.28557 0.13366
#
# Static dielectric constant tensor:
#      x y z
#    x 1.731850 0.000000 -0.006440 
#    y 0.000000 1.729270 0.000000 
#    z -0.006440 0.000000 1.746230 
# 
# From -- ./inp_files/204948.got.cif
#   From: 2010.05.17/outbox.cif.g08.bks.cpg/sg15_103_cif.got.tgz:204948.got - 2010.06.03 18:47:42.
