data_PCOD9256807
_publ_section_title
;
Structure prediction by ZEFSAII (Michael W. Deem and Ramdas Pophale) SiO2 
 PCOD9256807
Probable space group: C 2/C
;
_chemical_formula_sum "Si O2"
_cell_formula_units_Z 64
_cell_length_a 16.499984
_cell_length_b 13.089847
_cell_length_c 17.047840
_cell_angle_alpha 90.000000
_cell_angle_beta 62.115514
_cell_angle_gamma 90.000000
_cell_volume 3254.518948
_symmetry_space_group_name_H-M "C 2/C"
_symmetry_group_IT_number 15
_symmetry_cell_setting 'monoclinic'
loop_
_space_group_symop_operation_xyz
x,y,z
-x,y,1/2-z
-x,-y,-z
x,-y,1/2+z
1/2+x,1/2+y,z
1/2-x,1/2+y,1/2-z
1/2-x,1/2-y,-z
1/2+x,1/2-y,1/2+z
loop_
_atom_site_type_symbol
_atom_site_label
_atom_site_fract_x
_atom_site_fract_y
_atom_site_fract_z
Si Si1 0.728035 0.713002 0.265395
Si Si2 0.379252 0.830507 0.445223
Si Si3 0.130636 0.454108 0.473972
Si Si4 0.778508 0.484680 0.819758
Si Si5 0.800139 0.827243 0.083485
Si Si6 0.420481 0.147682 0.349118
Si Si7 0.579318 0.133592 0.828309
Si Si8 0.210926 0.806744 0.094980
O O1 0.742333 0.593095 0.270474
O O2 0.785923 0.758918 0.167599
O O3 0.625501 0.754840 0.302182
O O4 0.758729 0.764664 0.333588
O O5 0.293398 0.824295 0.425654
O O6 0.377695 0.725849 0.495853
O O7 0.472999 0.854860 0.357899
O O8 0.367934 0.926218 0.509200
O O9 0.069056 0.397928 0.568982
O O10 0.090105 0.415278 0.410284
O O11 0.236453 0.414365 0.431797
O O12 0.697715 0.554902 0.890913
O O13 0.831893 0.416142 0.858827
O O14 0.856084 0.560408 0.751821
O O15 0.500000 0.129902 0.250000
O O16 0.394165 0.268129 0.362247
O O17 0.250000 0.750000 0.000000
#
# Coordination Sequence:
#
# PCOD9256807 Si02
#       8
#     8   8   8   8   8   8   8   8
#     4   9  19  35  53  78 108 142 178 227 280 327
#     4  11  21  35  53  84 112 148 185 227 273 323
#     4  10  18  33  52  79 109 145 179 226 275 327
#     4  10  19  35  54  78 106 147 180 222 282 331
#     4  10  22  35  53  81 114 146 184 227 274 336
#     4  10  18  29  51  81 107 136 179 230 277 319
#     4  10  21  33  56  83 111 140 189 232 268 330
#     4   8  17  31  49  76 107 140 174 216 277 332
#
# _framework density 19.664966
#
# number of rings (size 3 to 8) (size 9 to 14) (size 15 to 20)
#    0.000    2.250    1.250    1.875    0.000    3.500 
#    0.000    0.625    0.000    0.000   45.500    0.000 
#    0.000    0.000    0.000    0.000    0.000    0.000 
#
# Total GULP energy -178163.754623 kJ/mol
# GULP energy per Si atom -5567.617332 kJ/mol
# Density = 1.962021 g / cm^3
# Si number density = 19.664966 Si / 1000 Ang^3
#
#
#
# Elastic Constant Matrix: (Units=GPa)
#
#
# Indices 1 2 3 4 5 6 
#
# 1 26.2962 16.4484 2.5650 0.0000 0.0864 0.0000
# 2 16.4484 79.1458 15.3876 0.0000 -19.4123 0.0000
# 3 2.5650 15.3876 73.5942 0.0000 0.7285 0.0000
# 4 0.0000 0.0000 0.0000 29.2784 0.0000 1.9820
# 5 0.0864 -19.4123 0.7285 0.0000 18.9527 0.0000
# 6 0.0000 0.0000 0.0000 1.9820 0.0000 23.4420
#
#
#
# Elastic Compliance Matrix: (Units=1/GPa)
#
#
# Indices 1 2 3 4 5 6 
#
# 1 0.046239 -0.013256 0.001297 0.000000 -0.013838 0.000000
# 2 -0.013256 0.021746 -0.004307 0.000000 0.022499 0.000000
# 3 0.001297 -0.004307 0.014493 0.000000 -0.004975 0.000000
# 4 0.000000 0.000000 0.000000 0.034351 0.000000 -0.002904
# 5 -0.013838 0.022499 -0.004975 0.000000 0.076062 0.000000
# 6 0.000000 0.000000 0.000000 -0.002904 0.000000 0.042904
#
#
# Mechanical properties :
#
#
# Convention : Reuss Voigt Hill
#
# Bulk Modulus (GPa) = 20.02212 27.53757 23.77985
# Shear Modulus (GPa) = 17.54542 23.97696 20.76119
#
# Velocity S-wave (km/s) = 2.99024 3.49560 3.25275
# Velocity P-wave (km/s) = 4.70380 5.50691 5.12112
#
# Compressibility (1/GPa) = 0.04994476
#
# Stress axis : x y z
#
# Youngs Moduli (GPa) = 21.62690 45.98643 69.00024
#
# Poissons Ratio (x) = 0.60958 -0.08949
# Poissons Ratio (y) = 0.28668 0.29721
# Poissons Ratio (z) = -0.02805 0.19808
#
# Static dielectric constant tensor:
#      x y z
#    x 1.728570 0.000000 0.008100 
#    y 0.000000 1.755860 0.000000 
#    z 0.008100 0.000000 1.731220 
# 
# From -- ./inp_files/205402.got.cif
#   From: 2010.05.17/outbox.cif.g08.bks.cpg/sg15_103_cif.got.tgz:205402.got - 2010.06.03 18:47:42.
