data_PCOD9256271
_publ_section_title
;
Structure prediction by ZEFSAII (Michael W. Deem and Ramdas Pophale) SiO2 
 PCOD9256271
Probable space group: C 2/C
;
_chemical_formula_sum "Si O2"
_cell_formula_units_Z 56
_cell_length_a 10.868095
_cell_length_b 15.795004
_cell_length_c 17.167255
_cell_angle_alpha 90.000000
_cell_angle_beta 60.652170
_cell_angle_gamma 90.000000
_cell_volume 2568.747158
_symmetry_space_group_name_H-M "C 2/C"
_symmetry_group_IT_number 15
_symmetry_cell_setting 'monoclinic'
loop_
_space_group_symop_operation_xyz
x,y,z
-x,y,1/2-z
-x,-y,-z
x,-y,1/2+z
1/2+x,1/2+y,z
1/2-x,1/2+y,1/2-z
1/2-x,1/2-y,-z
1/2+x,1/2-y,1/2+z
loop_
_atom_site_type_symbol
_atom_site_label
_atom_site_fract_x
_atom_site_fract_y
_atom_site_fract_z
Si Si1 0.018488 0.339830 0.001699
Si Si2 0.751745 0.117105 0.171673
Si Si3 0.710766 0.584597 0.606723
Si Si4 0.835033 0.016918 0.537755
Si Si5 0.612737 0.244392 0.099107
Si Si6 0.733173 0.411177 0.654907
Si Si7 0.075953 0.822677 0.569875
O O1 0.126087 0.411893 0.941965
O O2 0.002256 0.284412 0.927342
O O3 0.082245 0.275036 0.044553
O O4 0.866626 0.376479 0.073064
O O5 0.751496 0.022298 0.136139
O O6 0.647194 0.176021 0.154610
O O7 0.730382 0.116751 0.270003
O O8 0.910807 0.153182 0.110733
O O9 0.708575 0.541468 0.521926
O O10 0.602413 0.662518 0.638223
O O11 0.675945 0.506871 0.673774
O O12 0.834639 0.115189 0.514758
O O13 0.000000 0.000000 0.500000
O O14 0.750000 0.250000 0.000000
O O15 0.627621 0.349934 0.639907
#
# Coordination Sequence:
#
# PCOD9256271 Si02
#       7
#     8   8   8   8   8   8   8
#     4  11  20  39  64  87 117 162 203 238 292 370
#     4  11  19  38  60  87 121 153 195 253 308 335
#     4  10  19  39  61  85 113 163 203 231 297 364
#     4   9  17  32  60  84 109 148 201 240 276 356
#     4  10  17  35  68  85 105 160 206 235 287 359
#     4  11  25  35  58  92 126 151 193 256 304 347
#     4  10  20  38  61  84 118 163 202 235 294 366
#
# _framework density 21.800511
#
# number of rings (size 3 to 8) (size 9 to 14) (size 15 to 20)
#    0.000    1.714    5.714    2.143    0.000    0.571 
#    2.571    0.000    6.286    0.000    0.000    0.000 
#    0.000    0.000    0.000    0.000    0.000    0.000 
#
# Total GULP energy -156256.717213 kJ/mol
# GULP energy per Si atom -5580.597043 kJ/mol
# Density = 2.175089 g / cm^3
# Si number density = 21.800511 Si / 1000 Ang^3
#
#
#
# Elastic Constant Matrix: (Units=GPa)
#
#
# Indices 1 2 3 4 5 6 
#
# 1 62.7299 22.7656 18.0521 0.0000 21.0123 0.0000
# 2 22.7656 100.4067 33.7182 0.0000 11.1364 0.0000
# 3 18.0521 33.7182 67.8344 0.0000 20.8826 0.0000
# 4 0.0000 0.0000 0.0000 13.7555 0.0000 8.2122
# 5 21.0123 11.1364 20.8826 0.0000 33.3367 0.0000
# 6 0.0000 0.0000 0.0000 8.2122 0.0000 35.9985
#
#
#
# Elastic Compliance Matrix: (Units=1/GPa)
#
#
# Indices 1 2 3 4 5 6 
#
# 1 0.021315 -0.003405 -0.000241 0.000000 -0.012147 0.000000
# 2 -0.003405 0.012502 -0.005802 0.000000 0.001604 0.000000
# 3 -0.000241 -0.005802 0.021119 0.000000 -0.011139 0.000000
# 4 0.000000 0.000000 0.000000 0.084161 0.000000 -0.019199
# 5 -0.012147 0.001604 -0.011139 0.000000 0.044095 0.000000
# 6 0.000000 0.000000 0.000000 -0.019199 0.000000 0.032159
#
#
# Mechanical properties :
#
#
# Convention : Reuss Voigt Hill
#
# Bulk Modulus (GPa) = 27.74608 42.22698 34.98653
# Shear Modulus (GPa) = 20.30380 27.04714 23.67547
#
# Velocity S-wave (km/s) = 3.05511 3.52613 3.29903
# Velocity P-wave (km/s) = 5.01994 5.99916 5.53126
#
# Compressibility (1/GPa) = 0.03604113
#
# Stress axis : x y z
#
# Youngs Moduli (GPa) = 46.91532 79.98730 47.35066
#
# Poissons Ratio (x) = 0.27234 0.01139
# Poissons Ratio (y) = 0.15974 0.27473
# Poissons Ratio (z) = 0.01129 0.46409
#
# Static dielectric constant tensor:
#      x y z
#    x 1.900950 0.000000 -0.016200 
#    y 0.000000 1.861030 0.000000 
#    z -0.016200 0.000000 1.797000 
# 
# From -- ./inp_files/197770.got.cif
#   From: 2010.05.17/outbox.cif.g08.bks.cpg/sg15_99_cif.got.tgz:197770.got - 2010.06.03 18:47:42.
