data_PCOD9256114
_publ_section_title
;
Structure prediction by ZEFSAII (Michael W. Deem and Ramdas Pophale) SiO2 
 PCOD9256114
Probable space group: C 2/C
;
_chemical_formula_sum "Si O2"
_cell_formula_units_Z 60
_cell_length_a 10.065343
_cell_length_b 16.685173
_cell_length_c 25.204059
_cell_angle_alpha 90.000000
_cell_angle_beta 53.199697
_cell_angle_gamma 90.000000
_cell_volume 3389.338197
_symmetry_space_group_name_H-M "C 2/C"
_symmetry_group_IT_number 15
_symmetry_cell_setting 'monoclinic'
loop_
_space_group_symop_operation_xyz
x,y,z
-x,y,1/2-z
-x,-y,-z
x,-y,1/2+z
1/2+x,1/2+y,z
1/2-x,1/2+y,1/2-z
1/2-x,1/2-y,-z
1/2+x,1/2-y,1/2+z
loop_
_atom_site_type_symbol
_atom_site_label
_atom_site_fract_x
_atom_site_fract_y
_atom_site_fract_z
Si Si1 0.226694 0.478438 0.366071
Si Si2 0.120672 0.113178 0.521870
Si Si3 0.568188 0.698263 0.426920
Si Si4 0.000000 0.875000 0.250000
Si Si5 0.925089 0.771562 0.366072
Si Si6 0.401052 0.448263 0.926920
Si Si7 0.936281 0.636822 0.978130
Si Si8 0.991365 0.375000 0.589090
O O1 0.340257 0.429968 0.298590
O O2 0.343711 0.516343 0.383904
O O3 0.092054 0.418947 0.424951
O O4 0.120913 0.550718 0.367555
O O5 0.040389 0.159539 0.491882
O O6 0.116912 0.168947 0.575048
O O7 0.314178 0.102372 0.460264
O O8 0.045293 0.026575 0.553028
O O9 0.754575 0.733657 0.383904
O O10 0.530317 0.625000 0.396455
O O11 0.454375 0.776575 0.446972
O O12 0.986030 0.820033 0.201409
O O13 0.026419 0.699283 0.367556
O O14 0.233965 0.409539 0.991882
O O15 0.944972 0.647627 0.039735
#
# Coordination Sequence:
#
# PCOD9256114 Si02
#       8
#     8   8   8   4   8   8   8   8
#     4  11  21  36  58  78 108 146 189 220 263 331
#     4  11  17  35  56  83 112 138 174 220 280 336
#     4  11  20  31  53  87 116 135 167 226 285 327
#     4  12  22  40  56  72  98 154 204 224 248 310
#     4  11  21  36  58  78 108 146 189 220 263 331
#     4  11  20  31  53  87 116 135 167 226 285 327
#     4  11  17  35  56  83 112 138 174 220 280 336
#     4  10  17  34  60  81 102 138 180 224 274 312
#
# _framework density 17.702572
#
# number of rings (size 3 to 8) (size 9 to 14) (size 15 to 20)
#    0.000    1.067    8.000    2.400    0.000    0.000 
#    2.400    0.000    0.000    0.000    0.000    7.467 
#    0.000    0.000    0.000    0.000    0.000    0.000 
#
# Total GULP energy -167384.226463 kJ/mol
# GULP energy per Si atom -5579.474215 kJ/mol
# Density = 1.766228 g / cm^3
# Si number density = 17.702572 Si / 1000 Ang^3
#
#
#
# Elastic Constant Matrix: (Units=GPa)
#
#
# Indices 1 2 3 4 5 6 
#
# 1 41.9549 37.6414 24.6646 -0.0001 0.0365 0.0001
# 2 37.6414 156.5513 48.6646 0.0000 -0.1597 0.0001
# 3 24.6646 48.6646 84.1680 -0.0001 -0.6464 0.0000
# 4 -0.0001 0.0000 -0.0001 20.0646 0.0001 0.2453
# 5 0.0365 -0.1597 -0.6464 0.0001 7.3718 -0.0001
# 6 0.0001 0.0001 0.0000 0.2453 -0.0001 37.0902
#
#
#
# Elastic Compliance Matrix: (Units=1/GPa)
#
#
# Indices 1 2 3 4 5 6 
#
# 1 0.032824 -0.005975 -0.006171 0.000000 -0.000833 0.000000
# 2 -0.005975 0.008875 -0.003381 0.000000 -0.000075 0.000000
# 3 -0.006171 -0.003381 0.015654 0.000000 0.001330 0.000000
# 4 0.000000 0.000000 0.000000 0.049843 0.000000 -0.000330
# 5 -0.000833 -0.000075 0.001330 0.000000 0.135772 0.000000
# 6 0.000000 0.000000 0.000000 -0.000330 0.000000 0.026963
#
#
# Mechanical properties :
#
#
# Convention : Reuss Voigt Hill
#
# Bulk Modulus (GPa) = 38.02239 56.06840 47.04539
# Shear Modulus (GPa) = 16.14194 24.35222 20.24708
#
# Velocity S-wave (km/s) = 3.02295 3.71297 3.38559
# Velocity P-wave (km/s) = 5.80598 7.07975 6.47426
#
# Compressibility (1/GPa) = 0.02630030
#
# Stress axis : x y z
#
# Youngs Moduli (GPa) = 30.46548 112.67214 63.87982
#
# Poissons Ratio (x) = 0.67321 0.39417
# Poissons Ratio (y) = 0.18203 0.21599
# Poissons Ratio (z) = 0.18799 0.38097
#
# Static dielectric constant tensor:
#      x y z
#    x 1.629270 0.000000 0.000830 
#    y 0.000000 1.642490 0.000000 
#    z 0.000830 0.000000 1.571990 
# 
# From -- ./inp_files/292690.got.cif
#   From: 2010.05.17/outbox.cif.g08.bks.cpg/sg15_147_cif.got.tgz:292690.got - 2010.06.03 18:47:42.
