data_PCOD9256026
_publ_section_title
;
Structure prediction by ZEFSAII (Michael W. Deem and Ramdas Pophale) SiO2 
 PCOD9256026
Probable space group: C 2/C
;
_chemical_formula_sum "Si O2"
_cell_formula_units_Z 48
_cell_length_a 24.908008
_cell_length_b 23.784280
_cell_length_c 5.361126
_cell_angle_alpha 90.000000
_cell_angle_beta 48.775787
_cell_angle_gamma 90.000000
_cell_volume 2388.810362
_symmetry_space_group_name_H-M "C 2/C"
_symmetry_group_IT_number 15
_symmetry_cell_setting 'monoclinic'
loop_
_space_group_symop_operation_xyz
x,y,z
-x,y,1/2-z
-x,-y,-z
x,-y,1/2+z
1/2+x,1/2+y,z
1/2-x,1/2+y,1/2-z
1/2-x,1/2-y,-z
1/2+x,1/2-y,1/2+z
loop_
_atom_site_type_symbol
_atom_site_label
_atom_site_fract_x
_atom_site_fract_y
_atom_site_fract_z
Si Si1 0.000000 0.962420 0.250000
Si Si2 0.284579 0.532952 0.747565
Si Si3 0.545838 0.153297 0.361917
Si Si4 0.579552 0.269570 0.132282
Si Si5 0.000000 0.835769 0.750000
Si Si6 0.887124 0.466760 0.732712
Si Si7 0.111249 0.120081 0.276306
O O1 0.926731 0.925917 0.432954
O O2 0.000000 0.000000 0.500000
O O3 0.303494 0.490569 0.462482
O O4 0.323183 0.591297 0.562600
O O5 0.198853 0.538118 0.003014
O O6 0.500000 0.143487 0.250000
O O7 0.598413 0.204848 0.121723
O O8 0.582083 0.095180 0.325503
O O9 0.500000 0.170693 0.750000
O O10 0.500000 0.267737 0.250000
O O11 0.561671 0.296988 0.450056
O O12 0.623751 0.317807 0.853855
O O13 0.957076 0.872452 0.690813
O O14 0.908573 0.494654 0.403649
#
# Coordination Sequence:
#
# PCOD9256026 Si02
#       7
#     4   8   8   8   4   8   8
#     4  12  23  30  46  76 106 135 188 244 270 306
#     4  10  23  40  58  79 113 159 197 231 286 345
#     4  11  22  37  64  93 116 145 186 231 288 357
#     4   9  19  34  53  82 115 152 185 231 291 334
#     4  10  17  34  54  76 114 147 188 236 288 318
#     4  10  22  42  62  86 119 150 183 234 290 345
#     4  11  21  34  54  78 112 156 194 238 284 329
#
# _framework density 20.093682999999999
#
# number of rings (size 3 to 8) (size 9 to 14) (size 15 to 20)
#    0.000    1.667    3.333    2.500    2.333    2.000 
#    0.000    0.833    0.000    1.000    0.000    0.000 
#    0.000    0.000    0.000    0.000    0.000    0.000 
#
# Total GULP energy -133696.304747 kJ/mol
# GULP energy per Si atom -5570.679364 kJ/mol
# Density = 2.004795 g / cm^3
# Si number density = 20.093683 Si / 1000 Ang^3
#
#
#
# Elastic Constant Matrix: (Units=GPa)
#
#
# Indices 1 2 3 4 5 6 
#
# 1 50.9915 23.8845 20.3920 0.0000 18.4302 0.0000
# 2 23.8845 126.3359 19.3763 0.0000 0.8715 0.0000
# 3 20.3920 19.3763 49.4730 0.0000 18.8492 0.0000
# 4 0.0000 0.0000 0.0000 33.7532 0.0000 5.8685
# 5 18.4302 0.8715 18.8492 0.0000 20.8506 0.0000
# 6 0.0000 0.0000 0.0000 5.8685 0.0000 11.0303
#
#
#
# Elastic Compliance Matrix: (Units=1/GPa)
#
#
# Indices 1 2 3 4 5 6 
#
# 1 0.032823 -0.005953 -0.000364 0.000000 -0.028435 0.000000
# 2 -0.005953 0.009727 -0.004890 0.000000 0.009276 0.000000
# 3 -0.000364 -0.004890 0.033677 0.000000 -0.029919 0.000000
# 4 0.000000 0.000000 0.000000 0.032647 0.000000 -0.017369
# 5 -0.028435 0.009276 -0.029919 0.000000 0.099753 0.000000
# 6 0.000000 0.000000 0.000000 -0.017369 0.000000 0.099900
#
#
# Mechanical properties :
#
#
# Convention : Reuss Voigt Hill
#
# Bulk Modulus (GPa) = 18.58301 39.34512 28.96406
# Shear Modulus (GPa) = 14.33165 24.00332 19.16749
#
# Velocity S-wave (km/s) = 2.67356 3.46001 3.09189
# Velocity P-wave (km/s) = 4.33576 5.96536 5.21461
#
# Compressibility (1/GPa) = 0.05381261
#
# Stress axis : x y z
#
# Youngs Moduli (GPa) = 30.46686 102.80760 29.69378
#
# Poissons Ratio (x) = 0.61205 0.01080
# Poissons Ratio (y) = 0.18138 0.14520
# Poissons Ratio (z) = 0.01108 0.50273
#
# Static dielectric constant tensor:
#      x y z
#    x 1.585120 0.000000 -0.036780 
#    y 0.000000 1.784270 0.000000 
#    z -0.036780 0.000000 1.739240 
# 
# From -- ./inp_files/10895.got.cif
#   From: 2010.05.17/outbox.cif.g08.bks.cpg/sg15_6_cif.got.tgz:10895.got - 2010.06.03 18:47:42.
