data_PCOD9256812
_publ_section_title
;
Structure prediction by ZEFSAII (Michael W. Deem and Ramdas Pophale) SiO2 
 PCOD9256812
Probable space group: C 2/C
;
_chemical_formula_sum "Si O2"
_cell_formula_units_Z 32
_cell_length_a 10.540736
_cell_length_b 22.479756
_cell_length_c 7.861754
_cell_angle_alpha 90.000000
_cell_angle_beta 139.325639
_cell_angle_gamma 90.000000
_cell_volume 1214.140855
_symmetry_space_group_name_H-M "C 2/C"
_symmetry_group_IT_number 15
_symmetry_cell_setting 'monoclinic'
loop_
_space_group_symop_operation_xyz
x,y,z
-x,y,1/2-z
-x,-y,-z
x,-y,1/2+z
1/2+x,1/2+y,z
1/2-x,1/2+y,1/2-z
1/2-x,1/2-y,-z
1/2+x,1/2-y,1/2+z
loop_
_atom_site_type_symbol
_atom_site_label
_atom_site_fract_x
_atom_site_fract_y
_atom_site_fract_z
Si Si1 0.500000 0.837881 0.750000
Si Si2 0.734999 0.555278 0.613096
Si Si3 0.801330 0.820486 0.329549
Si Si4 0.687376 0.930678 0.687254
Si Si5 0.500000 0.767393 0.250000
O O1 0.339561 0.806075 0.470123
O O2 0.639725 0.876965 0.766736
O O3 0.644716 0.610167 0.627878
O O4 0.703299 0.485232 0.607966
O O5 0.709298 0.571738 0.390282
O O6 0.962829 0.557332 0.900675
O O7 0.671283 0.810856 0.368528
O O8 0.965583 0.774362 0.550662
#
# Coordination Sequence:
#
# PCOD9256812 Si02
#       5
#     4   8   8   8   4
#     4  10  18  29  52  78 102 127 166 212 252 296
#     4   9  15  26  46  71 102 128 159 203 246 292
#     4  10  20  35  53  74 101 133 170 212 251 293
#     4   9  15  24  45  78 101 125 160 199 247 302
#     4  10  22  37  52  70  98 139 176 206 252 298
#
# _framework density 26.356083999999999
#
# number of rings (size 3 to 8) (size 9 to 14) (size 15 to 20)
#    0.000    2.500    0.000    7.500    0.000    1.000 
#    0.000    0.000    0.000    6.000    0.000    0.000 
#    0.000    0.000    0.000    0.000    0.000    0.000 
#
# Total GULP energy -89195.689664 kJ/mol
# GULP energy per Si atom -5574.730604 kJ/mol
# Density = 2.629610 g / cm^3
# Si number density = 26.356084 Si / 1000 Ang^3
#
#
#
# Elastic Constant Matrix: (Units=GPa)
#
#
# Indices 1 2 3 4 5 6 
#
# 1 44.2776 20.2873 13.3185 0.0000 -18.1918 0.0000
# 2 20.2873 126.4401 63.6846 0.0000 -8.9840 0.0000
# 3 13.3185 63.6846 186.8304 0.0000 -21.8293 0.0000
# 4 0.0000 0.0000 0.0000 7.8078 0.0000 10.3834
# 5 -18.1918 -8.9840 -21.8293 0.0000 36.6172 0.0000
# 6 0.0000 0.0000 0.0000 10.3834 0.0000 15.3110
#
#
#
# Elastic Compliance Matrix: (Units=1/GPa)
#
#
# Indices 1 2 3 4 5 6 
#
# 1 0.030251 -0.004334 0.001024 0.000000 0.014576 0.000000
# 2 -0.004334 0.010175 -0.003353 0.000000 -0.001655 0.000000
# 3 0.001024 -0.003353 0.006864 0.000000 0.003778 0.000000
# 4 0.000000 0.000000 0.000000 1.305192 0.000000 -0.885135
# 5 0.014576 -0.001655 0.003778 0.000000 0.036397 0.000000
# 6 0.000000 0.000000 0.000000 -0.885135 0.000000 0.665579
#
#
# Mechanical properties :
#
#
# Convention : Reuss Voigt Hill
#
# Bulk Modulus (GPa) = 29.44243 61.34766 45.39504
# Shear Modulus (GPa) = 2.40488 29.29773 15.85130
#
# Velocity S-wave (km/s) = 0.95626 3.33770 2.45506
# Velocity P-wave (km/s) = 3.52342 6.17905 5.02967
#
# Compressibility (1/GPa) = 0.03396459
#
# Stress axis : x y z
#
# Youngs Moduli (GPa) = 33.05649 98.27602 145.69225
#
# Poissons Ratio (x) = 0.42591 -0.14917
# Poissons Ratio (y) = 0.14326 0.48850
# Poissons Ratio (z) = -0.03384 0.32952
#
# Static dielectric constant tensor:
#      x y z
#    x 2.303930 0.000000 0.112320 
#    y 0.000000 2.164910 0.000000 
#    z 0.112320 0.000000 2.097890 
# 
# From -- ./inp_files/23260.got.cif
#   From: 2010.05.17/outbox.cif.g08.bks.cpg/sg15_12_cif.got.tgz:23260.got - 2010.06.03 18:47:42.
