data_PCOD9256968
_publ_section_title
;
Structure prediction by ZEFSAII (Michael W. Deem and Ramdas Pophale) SiO2 
 PCOD9256968
Probable space group: C 2/C
;
_chemical_formula_sum "Si O2"
_cell_formula_units_Z 48
_cell_length_a 33.212600
_cell_length_b 14.236544
_cell_length_c 8.676972
_cell_angle_alpha 90.000000
_cell_angle_beta 142.872368
_cell_angle_gamma 90.000000
_cell_volume 2476.392781
_symmetry_space_group_name_H-M "C 2/C"
_symmetry_group_IT_number 15
_symmetry_cell_setting 'monoclinic'
loop_
_space_group_symop_operation_xyz
x,y,z
-x,y,1/2-z
-x,-y,-z
x,-y,1/2+z
1/2+x,1/2+y,z
1/2-x,1/2+y,1/2-z
1/2-x,1/2-y,-z
1/2+x,1/2-y,1/2+z
loop_
_atom_site_type_symbol
_atom_site_label
_atom_site_fract_x
_atom_site_fract_y
_atom_site_fract_z
Si Si1 0.179564 0.273970 0.425552
Si Si2 0.579734 0.097554 0.151483
Si Si3 0.813908 0.874935 0.794490
Si Si4 0.933924 0.611752 0.758320
Si Si5 0.287487 0.458237 0.012215
Si Si6 0.772691 0.377191 0.375523
O O1 0.157140 0.212603 0.210283
O O2 0.233540 0.352991 0.541241
O O3 0.118176 0.316767 0.328079
O O4 0.223562 0.203233 0.664698
O O5 0.649760 0.142676 0.411845
O O6 0.578751 0.988846 0.200915
O O7 0.511753 0.138957 0.014827
O O8 0.576142 0.101419 0.955440
O O9 0.827552 0.893070 0.015386
O O10 0.828681 0.970110 0.745316
O O11 0.245177 0.528111 0.773794
O O12 0.242832 0.398358 0.992880
#
# Coordination Sequence:
#
# PCOD9256968 Si02
#       6
#     8   8   8   8   8   8
#     4  10  20  31  46  73 106 132 165 217 257 286
#     4  10  20  34  52  71 102 145 172 194 244 312
#     4   9  18  30  46  67 100 133 163 208 256 296
#     4  10  21  35  50  73 105 138 172 206 244 300
#     4   9  17  30  48  71 101 134 167 201 250 307
#     4  10  18  30  50  74 104 135 169 210 251 300
#
# _framework density 19.383032
#
# number of rings (size 3 to 8) (size 9 to 14) (size 15 to 20)
#    0.000    2.333    0.000    4.000    0.000    5.333 
#    0.000    0.000    0.000    0.000    0.000    0.000 
#    0.000  214.667    0.000    0.000    0.000    0.000 
#
# Total GULP energy -133928.878245 kJ/mol
# GULP energy per Si atom -5580.369927 kJ/mol
# Density = 1.933891 g / cm^3
# Si number density = 19.383032 Si / 1000 Ang^3
#
#
#
# Elastic Constant Matrix: (Units=GPa)
#
#
# Indices 1 2 3 4 5 6 
#
# 1 155.9020 64.7064 52.2319 0.0000 3.1003 0.0000
# 2 64.7064 81.3142 33.6715 0.0000 6.5697 0.0000
# 3 52.2319 33.6715 63.4725 0.0000 13.0322 0.0000
# 4 0.0000 0.0000 0.0000 21.1734 0.0000 2.7434
# 5 3.1003 6.5697 13.0322 0.0000 29.9150 0.0000
# 6 0.0000 0.0000 0.0000 2.7434 0.0000 25.0978
#
#
#
# Elastic Compliance Matrix: (Units=1/GPa)
#
#
# Indices 1 2 3 4 5 6 
#
# 1 0.011195 -0.006511 -0.006385 0.000000 0.003051 0.000000
# 2 -0.006511 0.019548 -0.004688 0.000000 -0.001576 0.000000
# 3 -0.006385 -0.004688 0.025423 0.000000 -0.009384 0.000000
# 4 0.000000 0.000000 0.000000 0.047908 0.000000 -0.005237
# 5 0.003051 -0.001576 -0.009384 0.000000 0.037546 0.000000
# 6 0.000000 0.000000 0.000000 -0.005237 0.000000 0.040417
#
#
# Mechanical properties :
#
#
# Convention : Reuss Voigt Hill
#
# Bulk Modulus (GPa) = 47.62569 66.87870 57.25220
# Shear Modulus (GPa) = 22.30109 25.24250 23.77180
#
# Velocity S-wave (km/s) = 3.39565 3.61265 3.50583
# Velocity P-wave (km/s) = 6.32440 7.20974 6.78153
#
# Compressibility (1/GPa) = 0.02099707
#
# Stress axis : x y z
#
# Youngs Moduli (GPa) = 89.32380 51.15594 39.33467
#
# Poissons Ratio (x) = 0.33309 0.25115
# Poissons Ratio (y) = 0.58161 0.18441
# Poissons Ratio (z) = 0.57033 0.23984
#
# Static dielectric constant tensor:
#      x y z
#    x 1.704630 0.000000 -0.042550 
#    y 0.000000 1.718380 0.000000 
#    z -0.042550 0.000000 1.699440 
# 
# From -- ./inp_files/70013.got.cif
#   From: 2010.05.17/outbox.cif.g08.bks.cpg/sg15_36_cif.got.tgz:70013.got - 2010.06.03 18:47:42.
