data_PCOD9256773
_publ_section_title
;
Structure prediction by ZEFSAII (Michael W. Deem and Ramdas Pophale) SiO2 
 PCOD9256773
Probable space group: C 2/C
;
_chemical_formula_sum "Si O2"
_cell_formula_units_Z 56
_cell_length_a 14.005613
_cell_length_b 18.572807
_cell_length_c 13.619937
_cell_angle_alpha 90.000000
_cell_angle_beta 110.520014
_cell_angle_gamma 90.000000
_cell_volume 3318.070752
_symmetry_space_group_name_H-M "C 2/C"
_symmetry_group_IT_number 15
_symmetry_cell_setting 'monoclinic'
loop_
_space_group_symop_operation_xyz
x,y,z
-x,y,1/2-z
-x,-y,-z
x,-y,1/2+z
1/2+x,1/2+y,z
1/2-x,1/2+y,1/2-z
1/2-x,1/2-y,-z
1/2+x,1/2-y,1/2+z
loop_
_atom_site_type_symbol
_atom_site_label
_atom_site_fract_x
_atom_site_fract_y
_atom_site_fract_z
Si Si1 0.176758 0.205851 0.897721
Si Si2 0.799879 0.717983 0.300535
Si Si3 0.989601 0.258419 0.539576
Si Si4 0.657997 0.057937 0.233599
Si Si5 0.930813 0.419953 0.589240
Si Si6 0.411822 0.209779 0.797419
Si Si7 0.308429 0.922690 0.359142
O O1 0.168045 0.252761 0.795758
O O2 0.069829 0.200706 0.915397
O O3 0.225878 0.130568 0.880165
O O4 0.250000 0.250000 0.000000
O O5 0.800723 0.631972 0.296358
O O6 0.688019 0.749148 0.277482
O O7 0.889068 0.743867 0.405380
O O8 0.953715 0.335703 0.572798
O O9 0.950844 0.256077 0.414137
O O10 0.643230 0.069321 0.344640
O O11 0.541008 0.048153 0.154662
O O12 0.721881 0.989993 0.218765
O O13 0.876836 0.450578 0.473965
O O14 0.500000 0.208522 0.750000
O O15 0.375218 0.130228 0.815102
#
# Coordination Sequence:
#
# PCOD9256773 Si02
#       7
#     8   8   8   8   8   8   8
#     4  11  16  32  55  80 105 135 180 221 262 308
#     4  10  19  33  55  79 107 139 179 215 267 322
#     4  10  18  33  57  80 103 137 184 222 260 311
#     4  10  18  29  48  78 106 137 170 214 266 323
#     4   9  17  29  48  74 109 139 167 209 270 319
#     4  10  22  36  53  77 110 143 175 218 267 319
#     4  10  20  31  50  79 109 137 171 219 272 311
#
# _framework density 16.877278
#
# number of rings (size 3 to 8) (size 9 to 14) (size 15 to 20)
#    0.000    2.000    5.714    0.857    2.000    0.571 
#    0.000    0.000    0.000    3.429    0.000    5.000 
#    0.000    0.000    0.000    0.000    0.000    0.000 
#
# Total GULP energy -156020.423568 kJ/mol
# GULP energy per Si atom -5572.157985 kJ/mol
# Density = 1.683886 g / cm^3
# Si number density = 16.877278 Si / 1000 Ang^3
#
#
#
# Elastic Constant Matrix: (Units=GPa)
#
#
# Indices 1 2 3 4 5 6 
#
# 1 103.5766 37.8296 39.6494 0.0000 -8.7314 0.0000
# 2 37.8296 57.1307 25.6909 0.0000 -5.4719 0.0000
# 3 39.6494 25.6909 46.9370 0.0000 0.8690 0.0000
# 4 0.0000 0.0000 0.0000 19.0197 0.0000 -4.5334
# 5 -8.7314 -5.4719 0.8690 0.0000 27.9637 0.0000
# 6 0.0000 0.0000 0.0000 -4.5334 0.0000 17.0938
#
#
#
# Elastic Compliance Matrix: (Units=1/GPa)
#
#
# Indices 1 2 3 4 5 6 
#
# 1 0.016100 -0.005435 -0.010705 0.000000 0.004296 0.000000
# 2 -0.005435 0.025757 -0.009574 0.000000 0.003640 0.000000
# 3 -0.010705 -0.009574 0.035705 0.000000 -0.006325 0.000000
# 4 0.000000 0.000000 0.000000 0.056125 0.000000 0.014885
# 5 0.004296 0.003640 -0.006325 0.000000 0.038011 0.000000
# 6 0.000000 0.000000 0.000000 0.014885 0.000000 0.062448
#
#
# Mechanical properties :
#
#
# Convention : Reuss Voigt Hill
#
# Bulk Modulus (GPa) = 38.26441 45.99824 42.13132
# Shear Modulus (GPa) = 16.99035 19.78039 18.38537
#
# Velocity S-wave (km/s) = 3.17629 3.42718 3.30412
# Velocity P-wave (km/s) = 6.01441 6.55549 6.29077
#
# Compressibility (1/GPa) = 0.02613395
#
# Stress axis : x y z
#
# Youngs Moduli (GPa) = 62.11276 38.82478 28.00730
#
# Poissons Ratio (x) = 0.21103 0.29980
# Poissons Ratio (y) = 0.33761 0.26814
# Poissons Ratio (z) = 0.66489 0.37170
#
# Static dielectric constant tensor:
#      x y z
#    x 1.592950 0.000000 0.016040 
#    y 0.000000 1.593010 0.000000 
#    z 0.016040 0.000000 1.584460 
# 
# From -- ./inp_files/98395.got.cif
#   From: 2010.05.17/outbox.cif.g08.bks.cpg/sg15_50_cif.got.tgz:98395.got - 2010.06.03 18:47:42.
