data_PCOD9256370
_publ_section_title
;
Structure prediction by ZEFSAII (Michael W. Deem and Ramdas Pophale) SiO2 
 PCOD9256370
Probable space group: C 2/C
;
_chemical_formula_sum "Si O2"
_cell_formula_units_Z 56
_cell_length_a 13.503215
_cell_length_b 13.795661
_cell_length_c 19.232803
_cell_angle_alpha 90.000000
_cell_angle_beta 135.614841
_cell_angle_gamma 90.000000
_cell_volume 2506.089029
_symmetry_space_group_name_H-M "C 2/C"
_symmetry_group_IT_number 15
_symmetry_cell_setting 'monoclinic'
loop_
_space_group_symop_operation_xyz
x,y,z
-x,y,1/2-z
-x,-y,-z
x,-y,1/2+z
1/2+x,1/2+y,z
1/2-x,1/2+y,1/2-z
1/2-x,1/2-y,-z
1/2+x,1/2-y,1/2+z
loop_
_atom_site_type_symbol
_atom_site_label
_atom_site_fract_x
_atom_site_fract_y
_atom_site_fract_z
Si Si1 0.434962 0.799050 0.895166
Si Si2 0.647468 0.096713 0.950680
Si Si3 0.366986 0.004998 0.291609
Si Si4 0.363481 0.564958 0.425156
Si Si5 0.360073 0.336100 0.066013
Si Si6 0.311099 0.932669 0.415157
Si Si7 0.411009 0.700213 0.018567
O O1 0.491198 0.714032 0.873478
O O2 0.355452 0.744139 0.917237
O O3 0.367228 0.882740 0.815877
O O4 0.564517 0.859022 0.997612
O O5 0.523503 0.034137 0.851819
O O6 0.799619 0.122350 0.993119
O O7 0.585148 0.204651 0.931551
O O8 0.667238 0.034386 0.032229
O O9 0.318532 0.948543 0.337024
O O10 0.256450 0.006166 0.174350
O O11 0.500000 0.500000 0.500000
O O12 0.322910 0.595552 0.482335
O O13 0.433098 0.656642 0.418861
O O14 0.330970 0.387918 0.123718
O O15 0.250000 0.250000 0.000000
#
# Coordination Sequence:
#
# PCOD9256370 Si02
#       7
#     8   8   8   8   8   8   8
#     4   9  17  37  64  97 123 166 217 281 326 392
#     4  10  19  36  69  96 128 169 218 277 334 405
#     4  11  21  40  69  97 127 173 229 268 332 406
#     4  11  25  45  61  91 142 181 212 277 344 397
#     4   9  20  39  66  90 127 170 215 272 339 385
#     4  10  17  36  66  97 124 167 217 272 331 394
#     4  10  19  38  64  94 133 167 213 276 342 386
#
# _framework density 22.345576000000001
#
# number of rings (size 3 to 8) (size 9 to 14) (size 15 to 20)
#    0.000    2.000    2.857    1.714    0.000    0.000 
#    5.143   15.714    3.143    0.000    0.000    0.000 
#    0.000    0.000    0.000    0.000    0.000    0.000 
#
# Total GULP energy -156233.171547 kJ/mol
# GULP energy per Si atom -5579.756127 kJ/mol
# Density = 2.229472 g / cm^3
# Si number density = 22.345576 Si / 1000 Ang^3
#
#
#
# Elastic Constant Matrix: (Units=GPa)
#
#
# Indices 1 2 3 4 5 6 
#
# 1 106.4567 31.1728 13.0168 0.0000 -5.9076 0.0000
# 2 31.1728 98.4693 17.8505 0.0000 -2.8063 0.0000
# 3 13.0168 17.8505 58.6133 0.0000 0.8395 0.0000
# 4 0.0000 0.0000 0.0000 17.6335 0.0000 4.1930
# 5 -5.9076 -2.8063 0.8395 0.0000 13.7162 0.0000
# 6 0.0000 0.0000 0.0000 4.1930 0.0000 62.3902
#
#
#
# Elastic Compliance Matrix: (Units=1/GPa)
#
#
# Indices 1 2 3 4 5 6 
#
# 1 0.010681 -0.002990 -0.001520 0.000000 0.004082 0.000000
# 2 -0.002990 0.011665 -0.002907 0.000000 0.001277 0.000000
# 3 -0.001520 -0.002907 0.018318 0.000000 -0.002371 0.000000
# 4 0.000000 0.000000 0.000000 0.057631 0.000000 -0.003873
# 5 0.004082 0.001277 -0.002371 0.000000 0.075071 0.000000
# 6 0.000000 0.000000 0.000000 -0.003873 0.000000 0.016288
#
#
# Mechanical properties :
#
#
# Convention : Reuss Voigt Hill
#
# Bulk Modulus (GPa) = 38.71303 43.06884 40.89093
# Shear Modulus (GPa) = 23.46333 32.18127 27.82230
#
# Velocity S-wave (km/s) = 3.24392 3.79906 3.53241
# Velocity P-wave (km/s) = 5.60294 6.20964 5.91408
#
# Compressibility (1/GPa) = 0.02583110
#
# Stress axis : x y z
#
# Youngs Moduli (GPa) = 93.62186 85.72486 54.59164
#
# Poissons Ratio (x) = 0.25628 0.08299
# Poissons Ratio (y) = 0.27988 0.15870
# Poissons Ratio (z) = 0.14232 0.24920
#
# Static dielectric constant tensor:
#      x y z
#    x 1.911410 0.000000 0.011820 
#    y 0.000000 1.899040 0.000000 
#    z 0.011820 0.000000 1.796330 
# 
# From -- ./inp_files/244575.got.cif
#   From: 2010.05.17/outbox.cif.g08.bks.cpg/sg15_123_cif.got.tgz:244575.got - 2010.06.03 18:47:42.
