data_PCOD9256010
_publ_section_title
;
Structure prediction by ZEFSAII (Michael W. Deem and Ramdas Pophale) SiO2 
 PCOD9256010
Probable space group: C 2/C
;
_chemical_formula_sum "Si O2"
_cell_formula_units_Z 32
_cell_length_a 14.610961
_cell_length_b 15.392837
_cell_length_c 8.261876
_cell_angle_alpha 90.000000
_cell_angle_beta 37.681179
_cell_angle_gamma 90.000000
_cell_volume 1135.813812
_symmetry_space_group_name_H-M "C 2/C"
_symmetry_group_IT_number 15
_symmetry_cell_setting 'monoclinic'
loop_
_space_group_symop_operation_xyz
x,y,z
-x,y,1/2-z
-x,-y,-z
x,-y,1/2+z
1/2+x,1/2+y,z
1/2-x,1/2+y,1/2-z
1/2-x,1/2-y,-z
1/2+x,1/2-y,1/2+z
loop_
_atom_site_type_symbol
_atom_site_label
_atom_site_fract_x
_atom_site_fract_y
_atom_site_fract_z
Si Si1 0.804341 0.399821 0.713462
Si Si2 0.644747 0.465384 0.638213
Si Si3 0.433054 0.179335 0.517251
Si Si4 0.360590 0.657993 0.749024
O O1 0.727780 0.403807 0.647372
O O2 0.978062 0.377213 0.475936
O O3 0.727462 0.334706 0.953702
O O4 0.765328 0.493392 0.845101
O O5 0.500000 0.428092 0.750000
O O6 0.591797 0.557397 0.796314
O O7 0.500000 0.147213 0.250000
O O8 0.503703 0.274982 0.445288
O O9 0.256330 0.172210 0.734178
#
# Coordination Sequence:
#
# PCOD9256010 Si02
#       4
#     8   8   8   8
#     4   9  20  32  54  79 110 138 178 221 265 319
#     4  10  20  34  51  83 109 143 173 219 272 318
#     4  10  17  34  51  88  98 139 182 231 251 308
#     4   9  21  31  57  83 105 136 183 227 259 310
#
# _framework density 28.173632999999999
#
# number of rings (size 3 to 8) (size 9 to 14) (size 15 to 20)
#    1.500    1.000    0.000    4.500    3.500    1.000 
#    0.000    0.000    0.000    1.500    0.000    0.000 
#    0.000    0.000    0.000    0.000    0.000    0.000 
#
# Total GULP energy -89506.796265 kJ/mol
# GULP energy per Si atom -5594.174767 kJ/mol
# Density = 2.810951 g / cm^3
# Si number density = 28.173633 Si / 1000 Ang^3
#
#
#
# Elastic Constant Matrix: (Units=GPa)
#
#
# Indices 1 2 3 4 5 6 
#
# 1 280.6126 64.6982 72.6484 0.0000 -69.3791 0.0000
# 2 64.6982 83.5359 49.2092 0.0000 -34.3005 0.0000
# 3 72.6484 49.2092 105.0209 0.0000 -44.2161 0.0000
# 4 0.0000 0.0000 0.0000 38.9464 0.0000 -12.2964
# 5 -69.3791 -34.3005 -44.2161 0.0000 66.8967 0.0000
# 6 0.0000 0.0000 0.0000 -12.2964 0.0000 58.7060
#
#
#
# Elastic Compliance Matrix: (Units=1/GPa)
#
#
# Indices 1 2 3 4 5 6 
#
# 1 0.005200 -0.001812 -0.001204 0.000000 0.003668 0.000000
# 2 -0.001812 0.018282 -0.005760 0.000000 0.003687 0.000000
# 3 -0.001204 -0.005760 0.015636 0.000000 0.006133 0.000000
# 4 0.000000 0.000000 0.000000 0.027495 0.000000 0.005759
# 5 0.003668 0.003687 0.006133 0.000000 0.024697 0.000000
# 6 0.000000 0.000000 0.000000 0.005759 0.000000 0.018240
#
#
# Mechanical properties :
#
#
# Convention : Reuss Voigt Hill
#
# Bulk Modulus (GPa) = 46.37111 93.58677 69.97894
# Shear Modulus (GPa) = 37.23311 51.75073 44.49192
#
# Velocity S-wave (km/s) = 3.63927 4.29050 3.97823
# Velocity P-wave (km/s) = 5.84413 7.60490 6.78190
#
# Compressibility (1/GPa) = 0.02156515
#
# Stress axis : x y z
#
# Youngs Moduli (GPa) = 192.30817 54.70002 63.95673
#
# Poissons Ratio (x) = 0.09912 0.07698
# Poissons Ratio (y) = 0.34849 0.36841
# Poissons Ratio (z) = 0.23145 0.31509
#
# Static dielectric constant tensor:
#      x y z
#    x 2.202670 0.000000 0.087780 
#    y 0.000000 2.246350 0.000000 
#    z 0.087780 0.000000 2.311050 
# 
# From -- ./inp_files/95946.got.cif
#   From: 2010.05.17/outbox.cif.g08.bks.cpg/sg15_48_cif.got.tgz:95946.got - 2010.06.03 18:47:42.
