data_PCOD9256672
_publ_section_title
;
Structure prediction by ZEFSAII (Michael W. Deem and Ramdas Pophale) SiO2 
 PCOD9256672
Probable space group: C 2/C
;
_chemical_formula_sum "Si O2"
_cell_formula_units_Z 56
_cell_length_a 32.421141
_cell_length_b 7.846859
_cell_length_c 16.147288
_cell_angle_alpha 90.000000
_cell_angle_beta 32.419481
_cell_angle_gamma 90.000000
_cell_volume 2202.321687
_symmetry_space_group_name_H-M "C 2/C"
_symmetry_group_IT_number 15
_symmetry_cell_setting 'monoclinic'
loop_
_space_group_symop_operation_xyz
x,y,z
-x,y,1/2-z
-x,-y,-z
x,-y,1/2+z
1/2+x,1/2+y,z
1/2-x,1/2+y,1/2-z
1/2-x,1/2-y,-z
1/2+x,1/2-y,1/2+z
loop_
_atom_site_type_symbol
_atom_site_label
_atom_site_fract_x
_atom_site_fract_y
_atom_site_fract_z
Si Si1 0.352005 0.025377 0.198893
Si Si2 0.091695 0.947009 0.100139
Si Si3 0.998367 0.626267 0.849563
Si Si4 0.415184 0.215918 0.238114
Si Si5 0.319422 0.516042 0.215189
Si Si6 0.787808 0.190056 0.627593
Si Si7 0.061744 0.817746 0.888077
O O1 0.355320 0.158100 0.269098
O O2 0.272226 0.955865 0.299515
O O3 0.392261 0.854780 0.167925
O O4 0.412056 0.086913 0.027531
O O5 0.115706 0.822354 0.132798
O O6 0.000000 0.944619 0.250000
O O7 0.129597 0.899982 0.946776
O O8 0.131329 0.130557 0.045696
O O9 0.047527 0.458740 0.789685
O O10 0.027108 0.785466 0.856141
O O11 0.000000 0.648000 0.750000
O O12 0.487291 0.315945 0.073817
O O13 0.244378 0.632862 0.349660
O O14 0.295454 0.337748 0.214181
O O15 0.375475 0.537232 0.197958
#
# Coordination Sequence:
#
# PCOD9256672 Si02
#       7
#     8   8   8   8   8   8   8
#     4   8  16  27  40  69 109 133 157 223 282 297
#     4  10  18  28  52  80  97 136 187 218 247 328
#     4   9  16  22  43  72 103 137 173 215 260 317
#     4   9  14  24  42  73 104 125 166 227 266 297
#     4   9  18  32  51  75 108 144 174 216 274 314
#     4   9  19  31  49  76 106 141 175 218 270 319
#     4   8  14  27  42  68 105 136 164 217 273 305
#
# _framework density 25.427710999999999
#
# number of rings (size 3 to 8) (size 9 to 14) (size 15 to 20)
#    0.857    2.286    1.429    2.143    4.000    0.571 
#    0.000    0.000    0.000    2.571    0.000    9.000 
#    0.000    0.000    0.000    0.571    0.000    0.000 
#
# Total GULP energy -156626.312403 kJ/mol
# GULP energy per Si atom -5593.796872 kJ/mol
# Density = 2.536984 g / cm^3
# Si number density = 25.427711 Si / 1000 Ang^3
#
#
#
# Elastic Constant Matrix: (Units=GPa)
#
#
# Indices 1 2 3 4 5 6 
#
# 1 136.0462 23.6185 26.3178 -0.0011 3.3103 -0.0002
# 2 23.6185 81.9060 1.4999 -0.0026 -5.4574 -0.0004
# 3 26.3178 1.4999 56.5399 -0.0017 11.9439 -0.0002
# 4 -0.0011 -0.0026 -0.0017 33.5167 -0.0003 -11.2771
# 5 3.3103 -5.4574 11.9439 -0.0003 35.2947 0.0000
# 6 -0.0002 -0.0004 -0.0002 -11.2771 0.0000 37.0199
#
#
#
# Elastic Compliance Matrix: (Units=1/GPa)
#
#
# Indices 1 2 3 4 5 6 
#
# 1 0.008520 -0.002374 -0.003938 0.000000 0.000167 0.000000
# 2 -0.002374 0.013030 0.000309 0.000001 0.002133 0.000000
# 3 -0.003938 0.000309 0.020919 0.000001 -0.006662 0.000000
# 4 0.000000 0.000001 0.000001 0.033243 0.000000 0.010127
# 5 0.000167 0.002133 -0.006662 0.000000 0.030901 0.000000
# 6 0.000000 0.000000 0.000000 0.010127 0.000000 0.030097
#
#
# Mechanical properties :
#
#
# Convention : Reuss Voigt Hill
#
# Bulk Modulus (GPa) = 32.82698 41.92942 37.37820
# Shear Modulus (GPa) = 31.47192 36.03666 33.75429
#
# Velocity S-wave (km/s) = 3.52192 3.76868 3.64739
# Velocity P-wave (km/s) = 5.42922 5.95506 5.69821
#
# Compressibility (1/GPa) = 0.03046274
#
# Stress axis : x y z
#
# Youngs Moduli (GPa) = 117.36654 76.74559 47.80373
#
# Poissons Ratio (x) = 0.18217 0.18826
# Poissons Ratio (y) = 0.27859 -0.01475
# Poissons Ratio (z) = 0.46221 -0.02369
#
# Static dielectric constant tensor:
#      x y z
#    x 2.020430 0.000000 0.017790 
#    y 0.000000 2.094510 0.000000 
#    z 0.017790 0.000000 1.930330 
# 
# From -- ./inp_files/181551.got.cif
#   From: 2010.05.17/outbox.cif.g08.bks.cpg/sg15_91_cif.got.tgz:181551.got - 2010.06.03 18:47:42.
