data_PCOD9256641
_publ_section_title
;
Structure prediction by ZEFSAII (Michael W. Deem and Ramdas Pophale) SiO2 
 PCOD9256641
Probable space group: C 2/C
;
_chemical_formula_sum "Si O2"
_cell_formula_units_Z 64
_cell_length_a 18.053491
_cell_length_b 24.937896
_cell_length_c 11.305349
_cell_angle_alpha 90.000000
_cell_angle_beta 132.976004
_cell_angle_gamma 90.000000
_cell_volume 3723.934053
_symmetry_space_group_name_H-M "C 2/C"
_symmetry_group_IT_number 15
_symmetry_cell_setting 'monoclinic'
loop_
_space_group_symop_operation_xyz
x,y,z
-x,y,1/2-z
-x,-y,-z
x,-y,1/2+z
1/2+x,1/2+y,z
1/2-x,1/2+y,1/2-z
1/2-x,1/2-y,-z
1/2+x,1/2-y,1/2+z
loop_
_atom_site_type_symbol
_atom_site_label
_atom_site_fract_x
_atom_site_fract_y
_atom_site_fract_z
Si Si1 0.738868 0.198656 0.163998
Si Si2 0.893545 0.639727 0.674840
Si Si3 0.939682 0.889236 0.305155
Si Si4 0.322118 0.603897 0.999390
Si Si5 0.882147 0.016786 0.876475
Si Si6 0.876000 0.799661 0.377445
Si Si7 0.439533 0.750990 0.306122
Si Si8 0.635313 0.399305 0.680605
O O1 0.696619 0.248276 0.192520
O O2 0.831197 0.222844 0.187981
O O3 0.788504 0.146942 0.279915
O O4 0.653119 0.174849 0.984546
O O5 0.799573 0.604252 0.613942
O O6 0.921063 0.685661 0.799991
O O7 0.000000 0.614448 0.750000
O O8 0.027109 0.890021 0.501844
O O9 0.000000 0.892039 0.250000
O O10 0.871467 0.941560 0.256159
O O11 0.876955 0.835379 0.260485
O O12 0.356436 0.551733 0.963733
O O13 0.349248 0.657033 0.952134
O O14 0.370921 0.605079 0.183255
O O15 0.827866 0.959608 0.807697
O O16 0.000000 0.000000 0.000000
O O17 0.987811 0.775333 0.518645
O O18 0.500000 0.742810 0.250000
#
# Coordination Sequence:
#
# PCOD9256641 Si02
#       8
#     8   8   8   8   8   8   8   8
#     4  11  19  30  48  80 110 138 179 206 266 332
#     4  10  18  28  48  80 114 139 160 218 275 313
#     4  10  22  36  50  72 108 144 180 216 260 319
#     4  10  21  33  53  83 111 133 181 214 272 336
#     4   9  21  35  52  76 104 142 172 222 269 316
#     4  11  20  31  52  80 110 144 169 219 268 318
#     4  11  17  26  46  74 115 137 155 207 268 317
#     4  10  21  33  54  77 105 140 171 215 270 318
#
# _framework density 17.186126000000002
#
# number of rings (size 3 to 8) (size 9 to 14) (size 15 to 20)
#    0.000    1.750    5.000    1.875    3.500    3.500 
#    0.000    0.625    0.000    3.000    0.000    0.000 
#    0.000    0.000    0.000    0.000    0.000    0.000 
#
# Total GULP energy -178230.518389 kJ/mol
# GULP energy per Si atom -5569.703700 kJ/mol
# Density = 1.714701 g / cm^3
# Si number density = 17.186126 Si / 1000 Ang^3
#
#
#
# Elastic Constant Matrix: (Units=GPa)
#
#
# Indices 1 2 3 4 5 6 
#
# 1 84.3722 34.9656 27.2500 0.0000 7.8771 0.0000
# 2 34.9656 127.3481 14.4295 0.0000 -2.2828 0.0000
# 3 27.2500 14.4295 28.4575 0.0000 11.6378 0.0000
# 4 0.0000 0.0000 0.0000 16.2892 0.0000 5.5461
# 5 7.8771 -2.2828 11.6378 0.0000 27.5177 0.0000
# 6 0.0000 0.0000 0.0000 5.5461 0.0000 37.1834
#
#
#
# Elastic Compliance Matrix: (Units=1/GPa)
#
#
# Indices 1 2 3 4 5 6 
#
# 1 0.018382 -0.003136 -0.016630 0.000000 0.001511 0.000000
# 2 -0.003136 0.009075 -0.002750 0.000000 0.002813 0.000000
# 3 -0.016630 -0.002750 0.061188 0.000000 -0.021345 0.000000
# 4 0.000000 0.000000 0.000000 0.064675 0.000000 -0.009647
# 5 0.001511 0.002813 -0.021345 0.000000 0.045169 0.000000
# 6 0.000000 0.000000 0.000000 -0.009647 0.000000 0.028333
#
#
# Mechanical properties :
#
#
# Convention : Reuss Voigt Hill
#
# Bulk Modulus (GPa) = 22.92802 43.71867 33.32334
# Shear Modulus (GPa) = 17.45879 27.10024 22.27952
#
# Velocity S-wave (km/s) = 3.19072 3.97529 3.60442
# Velocity P-wave (km/s) = 5.19078 6.82379 6.06252
#
# Compressibility (1/GPa) = 0.04361476
#
# Stress axis : x y z
#
# Youngs Moduli (GPa) = 54.40239 110.18764 16.34316
#
# Poissons Ratio (x) = 0.34551 0.27178
# Poissons Ratio (y) = 0.17059 0.04494
# Poissons Ratio (z) = 0.90469 0.30298
#
# Static dielectric constant tensor:
#      x y z
#    x 1.612900 0.000000 0.013860 
#    y 0.000000 1.668480 0.000000 
#    z 0.013860 0.000000 1.620480 
# 
# From -- ./inp_files/108233.got.cif
#   From: 2010.05.17/outbox.cif.g08.bks.cpg/sg15_55_cif.got.tgz:108233.got - 2010.06.03 18:47:42.
