data_PCOD9256064
_publ_section_title
;
Structure prediction by ZEFSAII (Michael W. Deem and Ramdas Pophale) SiO2 
 PCOD9256064
Probable space group: C 2/C
;
_chemical_formula_sum "Si O2"
_cell_formula_units_Z 44
_cell_length_a 18.896173
_cell_length_b 9.886545
_cell_length_c 13.770072
_cell_angle_alpha 90.000000
_cell_angle_beta 138.896777
_cell_angle_gamma 90.000000
_cell_volume 1691.203871
_symmetry_space_group_name_H-M "C 2/C"
_symmetry_group_IT_number 15
_symmetry_cell_setting 'monoclinic'
loop_
_space_group_symop_operation_xyz
x,y,z
-x,y,1/2-z
-x,-y,-z
x,-y,1/2+z
1/2+x,1/2+y,z
1/2-x,1/2+y,1/2-z
1/2-x,1/2-y,-z
1/2+x,1/2-y,1/2+z
loop_
_atom_site_type_symbol
_atom_site_label
_atom_site_fract_x
_atom_site_fract_y
_atom_site_fract_z
Si Si1 0.000000 0.914992 0.750000
Si Si2 0.180222 0.897301 0.803957
Si Si3 0.907953 0.601108 0.478755
Si Si4 0.816519 0.366422 0.482196
Si Si5 0.380932 0.981617 0.750674
Si Si6 0.348928 0.566551 0.450423
O O1 0.900945 0.841208 0.700569
O O2 0.947854 0.000994 0.608351
O O3 0.203775 0.053166 0.862638
O O4 0.136666 0.904811 0.649047
O O5 0.302852 0.838191 0.922792
O O6 0.876799 0.441026 0.456103
O O7 0.903047 0.628044 0.359610
O O8 0.026738 0.594929 0.644464
O O9 0.622305 0.085903 0.357861
O O10 0.817849 0.209042 0.467890
O O11 0.258133 0.024750 0.645396
#
# Coordination Sequence:
#
# PCOD9256064 Si02
#       6
#     4   8   8   8   8   8
#     4  12  22  36  56  78 122 164 184 236 276 356
#     4   9  22  37  51  87 117 154 189 235 291 337
#     4   8  19  33  54  84 118 143 176 244 288 335
#     4  10  20  34  58  85 115 149 191 244 276 343
#     4  10  17  34  56  84 116 144 182 240 294 335
#     4  11  22  34  57  88 112 152 199 234 289 334
#
# _framework density 26.016967999999999
#
# number of rings (size 3 to 8) (size 9 to 14) (size 15 to 20)
#    1.091    1.091    1.818    1.636    2.545    0.000 
#    0.000    0.000    0.000    4.364    9.455    0.000 
#    0.000    0.000    0.000    0.000    0.000    0.000 
#
# Total GULP energy -122712.127093 kJ/mol
# GULP energy per Si atom -5577.823959 kJ/mol
# Density = 2.595775 g / cm^3
# Si number density = 26.016968 Si / 1000 Ang^3
#
#
#
# Elastic Constant Matrix: (Units=GPa)
#
#
# Indices 1 2 3 4 5 6 
#
# 1 152.3910 5.5178 64.9112 0.0000 -2.9030 0.0000
# 2 5.5178 70.3278 45.4896 0.0000 -10.9853 0.0000
# 3 64.9112 45.4896 195.4121 0.0000 -24.8620 0.0000
# 4 0.0000 0.0000 0.0000 7.1256 0.0000 -4.8731
# 5 -2.9030 -10.9853 -24.8620 0.0000 55.7768 0.0000
# 6 0.0000 0.0000 0.0000 -4.8731 0.0000 -5.8759
#
#
#
# Elastic Compliance Matrix: (Units=1/GPa)
#
#
# Indices 1 2 3 4 5 6 
#
# 1 0.007758 0.001187 -0.002939 0.000000 -0.000672 0.000000
# 2 0.001187 0.017066 -0.004168 0.000000 0.001565 0.000000
# 3 -0.002939 -0.004168 0.007357 0.000000 0.002306 0.000000
# 4 0.000000 0.000000 0.000000 0.089549 0.000000 -0.074266
# 5 -0.000672 0.001565 0.002306 0.000000 0.019230 0.000000
# 6 0.000000 0.000000 0.000000 -0.074266 0.000000 -0.108594
#
#
# Mechanical properties :
#
#
# Convention : Reuss Voigt Hill
#
# Bulk Modulus (GPa) = 49.15883 72.21867 60.68875
# Shear Modulus (GPa) = 98.06499 31.55280 64.80889
#
# Velocity S-wave (km/s) = 6.14610 3.48627 4.99643
# Velocity P-wave (km/s) = 8.32478 6.63506 7.52748
#
# Compressibility (1/GPa) = 0.02034223
#
# Stress axis : x y z
#
# Youngs Moduli (GPa) = 128.89683 58.59438 135.91981
#
# Poissons Ratio (x) = -0.06957 0.39947
# Poissons Ratio (y) = -0.15304 0.56653
# Poissons Ratio (z) = 0.37883 0.24423
#
# Static dielectric constant tensor:
#      x y z
#    x 2.133900 0.000000 0.060480 
#    y 0.000000 1.999660 0.000000 
#    z 0.060480 0.000000 2.094920 
# 
# From -- ./inp_files/168165.got.cif
#   From: 2010.05.17/outbox.cif.g08.bks.cpg/sg15_85_cif.got.tgz:168165.got - 2010.06.03 18:47:42.
