data_PCOD9256316
_publ_section_title
;
Structure prediction by ZEFSAII (Michael W. Deem and Ramdas Pophale) SiO2 
 PCOD9256316
Probable space group: C 2/C
;
_chemical_formula_sum "Si O2"
_cell_formula_units_Z 60
_cell_length_a 9.454098
_cell_length_b 20.821661
_cell_length_c 27.316559
_cell_angle_alpha 90.000000
_cell_angle_beta 140.961740
_cell_angle_gamma 90.000000
_cell_volume 3386.812465
_symmetry_space_group_name_H-M "C 2/C"
_symmetry_group_IT_number 15
_symmetry_cell_setting 'monoclinic'
loop_
_space_group_symop_operation_xyz
x,y,z
-x,y,1/2-z
-x,-y,-z
x,-y,1/2+z
1/2+x,1/2+y,z
1/2-x,1/2+y,1/2-z
1/2-x,1/2-y,-z
1/2+x,1/2-y,1/2+z
loop_
_atom_site_type_symbol
_atom_site_label
_atom_site_fract_x
_atom_site_fract_y
_atom_site_fract_z
Si Si1 0.870389 0.538813 0.390257
Si Si2 0.000000 0.047190 0.750000
Si Si3 0.870289 0.270767 0.664756
Si Si4 0.995070 0.681839 0.395601
Si Si5 0.372989 0.628605 0.622827
Si Si6 0.977044 0.815415 0.435223
Si Si7 0.872388 0.815969 0.517367
Si Si8 0.623889 0.068678 0.003082
O O1 0.712816 0.499433 0.311758
O O2 0.766756 0.545166 0.417047
O O3 0.913476 0.611404 0.386599
O O4 0.083873 0.492530 0.457370
O O5 0.995054 0.090666 0.699695
O O6 0.026531 0.306793 0.667733
O O7 0.827415 0.200678 0.629848
O O8 0.631961 0.306538 0.602487
O O9 0.000000 0.264427 0.750000
O O10 0.259628 0.686000 0.479467
O O11 0.897940 0.744120 0.397321
O O12 0.514274 0.638235 0.610411
O O13 0.126384 0.596320 0.550643
O O14 0.857768 0.829169 0.454833
O O15 0.750000 0.750000 0.500000
O O16 0.759273 0.874933 0.514582
#
# Coordination Sequence:
#
# PCOD9256316 Si02
#       8
#     8   4   8   8   8   8   8   8
#     4  10  20  36  55  80 113 152 193 232 279 346
#     4  10  22  32  60  82 108 154 196 238 278 344
#     4  10  20  33  56  83 115 152 180 232 295 351
#     4   9  17  33  56  77 110 145 186 228 281 342
#     4  10  17  36  59  84 108 150 199 228 281 349
#     4   9  18  32  59  87 108 142 187 242 286 333
#     4  11  20  33  57  94 116 137 191 253 284 320
#     4  10  20  34  59  83 112 146 190 244 275 330
#
# _framework density 17.715772000000001
#
# number of rings (size 3 to 8) (size 9 to 14) (size 15 to 20)
#    0.000    2.133    3.333    1.600    0.000    1.067 
#    0.000    2.667    2.933   11.200    0.000    0.000 
#    0.000    0.000    0.000    0.000    0.000    0.000 
#
# Total GULP energy -167049.407614 kJ/mol
# GULP energy per Si atom -5568.313587 kJ/mol
# Density = 1.767545 g / cm^3
# Si number density = 17.715772 Si / 1000 Ang^3
#
#
#
# Elastic Constant Matrix: (Units=GPa)
#
#
# Indices 1 2 3 4 5 6 
#
# 1 76.0040 39.4959 25.5558 0.0001 -15.1224 0.0002
# 2 39.4959 101.0936 15.0097 0.0000 -1.7928 0.0000
# 3 25.5558 15.0097 49.7145 0.0001 -17.6124 0.0002
# 4 0.0001 0.0000 0.0001 29.9829 0.0001 -1.6029
# 5 -15.1224 -1.7928 -17.6124 0.0001 20.2934 0.0002
# 6 0.0002 0.0000 0.0002 -1.6029 0.0002 32.4626
#
#
#
# Elastic Compliance Matrix: (Units=1/GPa)
#
#
# Indices 1 2 3 4 5 6 
#
# 1 0.020553 -0.007154 -0.004626 0.000000 0.010669 0.000000
# 2 -0.007154 0.012942 -0.002474 0.000000 -0.006335 0.000000
# 3 -0.004626 -0.002474 0.031682 0.000000 0.023831 0.000000
# 4 0.000000 0.000000 0.000000 0.033441 -0.000001 0.001651
# 5 0.010669 -0.006335 0.023831 -0.000001 0.077351 -0.000001
# 6 0.000000 0.000000 0.000000 0.001651 -0.000001 0.030886
#
#
# Mechanical properties :
#
#
# Convention : Reuss Voigt Hill
#
# Bulk Modulus (GPa) = 27.27037 42.99277 35.13157
# Shear Modulus (GPa) = 20.19511 26.33118 23.26315
#
# Velocity S-wave (km/s) = 3.37998 3.85945 3.62765
# Velocity P-wave (km/s) = 5.53706 6.64690 6.11720
#
# Compressibility (1/GPa) = 0.03666983
#
# Stress axis : x y z
#
# Youngs Moduli (GPa) = 48.65504 77.26958 31.56338
#
# Poissons Ratio (x) = 0.55277 0.14600
# Poissons Ratio (y) = 0.34807 0.07809
# Poissons Ratio (z) = 0.22506 0.19118
#
# Static dielectric constant tensor:
#      x y z
#    x 1.631970 0.000000 -0.024020 
#    y 0.000000 1.623440 0.000000 
#    z -0.024020 0.000000 1.618080 
# 
# From -- ./inp_files/290127.got.cif
#   From: 2010.05.17/outbox.cif.g08.bks.cpg/sg15_146_cif.got.tgz:290127.got - 2010.06.03 18:47:42.
