data_PCOD9256819
_publ_section_title
;
Structure prediction by ZEFSAII (Michael W. Deem and Ramdas Pophale) SiO2 
 PCOD9256819
Probable space group: C 2/C
;
_chemical_formula_sum "Si O2"
_cell_formula_units_Z 40
_cell_length_a 20.180888
_cell_length_b 9.558319
_cell_length_c 7.932574
_cell_angle_alpha 90.000000
_cell_angle_beta 110.314079
_cell_angle_gamma 90.000000
_cell_volume 1434.986602
_symmetry_space_group_name_H-M "C 2/C"
_symmetry_group_IT_number 15
_symmetry_cell_setting 'monoclinic'
loop_
_space_group_symop_operation_xyz
x,y,z
-x,y,1/2-z
-x,-y,-z
x,-y,1/2+z
1/2+x,1/2+y,z
1/2-x,1/2+y,1/2-z
1/2-x,1/2-y,-z
1/2+x,1/2-y,1/2+z
loop_
_atom_site_type_symbol
_atom_site_label
_atom_site_fract_x
_atom_site_fract_y
_atom_site_fract_z
Si Si1 0.319956 0.067119 0.938548
Si Si2 0.881921 0.080587 0.370431
Si Si3 0.766860 0.319903 0.727749
Si Si4 0.933885 0.171823 0.083724
Si Si5 0.030214 0.670583 0.454880
O O1 0.259467 0.160492 0.790766
O O2 0.298329 0.904983 0.912425
O O3 0.319105 0.137769 0.122216
O O4 0.398190 0.089887 0.933348
O O5 0.806478 0.103924 0.385818
O O6 0.877037 0.152620 0.181961
O O7 0.939388 0.170759 0.523787
O O8 0.905646 0.921299 0.406087
O O9 0.000000 0.110111 0.250000
O O10 0.968127 0.312520 0.038653
O O11 0.000000 0.625650 0.250000
#
# Coordination Sequence:
#
# PCOD9256819 Si02
#       5
#     8   8   8   8   8
#     4  10  23  43  67  97 134 172 221 269 328 392
#     4  10  18  32  59  94 126 161 219 282 326 370
#     4  10  22  42  67 100 132 172 218 271 330 390
#     4  10  18  29  52  89 126 161 209 272 331 375
#     4  10  20  36  57  85 125 170 210 259 317 383
#
# _framework density 27.874825000000001
#
# number of rings (size 3 to 8) (size 9 to 14) (size 15 to 20)
#    0.000    2.000    0.000    5.400    0.000    4.000 
#    0.000   11.000    0.000    0.000    0.000    5.600 
#    0.000    0.000    0.000    0.000    0.000    0.000 
#
# Total GULP energy -111696.805792 kJ/mol
# GULP energy per Si atom -5584.840290 kJ/mol
# Density = 2.781138 g / cm^3
# Si number density = 27.874825 Si / 1000 Ang^3
#
#
#
# Elastic Constant Matrix: (Units=GPa)
#
#
# Indices 1 2 3 4 5 6 
#
# 1 101.5817 38.5724 33.1200 0.0000 -8.0277 0.0000
# 2 38.5724 91.9488 53.9542 0.0000 -1.9861 0.0000
# 3 33.1200 53.9542 97.0488 0.0000 -8.4616 0.0000
# 4 0.0000 0.0000 0.0000 41.2512 0.0000 17.0211
# 5 -8.0277 -1.9861 -8.4616 0.0000 40.2427 0.0000
# 6 0.0000 0.0000 0.0000 17.0211 0.0000 29.3342
#
#
#
# Elastic Compliance Matrix: (Units=1/GPa)
#
#
# Indices 1 2 3 4 5 6 
#
# 1 0.012078 -0.004011 -0.001731 0.000000 0.001847 0.000000
# 2 -0.004011 0.017522 -0.008523 0.000000 -0.001728 0.000000
# 3 -0.001731 -0.008523 0.015857 0.000000 0.002568 0.000000
# 4 0.000000 0.000000 0.000000 0.031873 0.000000 -0.018494
# 5 0.001847 -0.001728 0.002568 0.000000 0.025672 0.000000
# 6 0.000000 0.000000 0.000000 -0.018494 0.000000 0.044821
#
#
# Mechanical properties :
#
#
# Convention : Reuss Voigt Hill
#
# Bulk Modulus (GPa) = 59.07732 60.20806 59.64269
# Shear Modulus (GPa) = 27.47314 33.16115 30.31714
#
# Velocity S-wave (km/s) = 3.14282 3.45286 3.30148
# Velocity P-wave (km/s) = 5.86596 6.12721 5.99801
#
# Compressibility (1/GPa) = 0.01692697
#
# Stress axis : x y z
#
# Youngs Moduli (GPa) = 82.79744 57.07024 63.06295
#
# Poissons Ratio (x) = 0.22891 0.10914
# Poissons Ratio (y) = 0.33211 0.53750
# Poissons Ratio (z) = 0.14330 0.48642
#
# Static dielectric constant tensor:
#      x y z
#    x 2.238220 0.000000 -0.110630 
#    y 0.000000 2.088400 0.000000 
#    z -0.110630 0.000000 2.159720 
# 
# From -- ./inp_files/60747.got.cif
#   From: 2010.05.17/outbox.cif.g08.bks.cpg/sg15_31_cif.got.tgz:60747.got - 2010.06.03 18:47:42.
