data_PCOD9256854
_publ_section_title
;
Structure prediction by ZEFSAII (Michael W. Deem and Ramdas Pophale) SiO2 
 PCOD9256854
Probable space group: C 2/C
;
_chemical_formula_sum "Si O2"
_cell_formula_units_Z 48
_cell_length_a 15.001658
_cell_length_b 21.772206
_cell_length_c 9.315929
_cell_angle_alpha 90.000000
_cell_angle_beta 113.962432
_cell_angle_gamma 90.000000
_cell_volume 2780.511524
_symmetry_space_group_name_H-M "C 2/C"
_symmetry_group_IT_number 15
_symmetry_cell_setting 'monoclinic'
loop_
_space_group_symop_operation_xyz
x,y,z
-x,y,1/2-z
-x,-y,-z
x,-y,1/2+z
1/2+x,1/2+y,z
1/2-x,1/2+y,1/2-z
1/2-x,1/2-y,-z
1/2+x,1/2-y,1/2+z
loop_
_atom_site_type_symbol
_atom_site_label
_atom_site_fract_x
_atom_site_fract_y
_atom_site_fract_z
Si Si1 0.948088 0.935617 0.986845
Si Si2 0.774865 0.045749 0.595632
Si Si3 0.787057 0.093743 0.147986
Si Si4 0.850538 0.128936 0.882401
Si Si5 0.116377 0.220083 0.835147
Si Si6 0.279143 0.154799 0.120033
O O1 0.882537 0.920971 0.806105
O O2 0.877351 0.945475 0.076700
O O3 0.035127 0.887374 0.054550
O O4 0.000000 0.000000 0.000000
O O5 0.793626 0.073706 0.764573
O O6 0.706436 0.093135 0.464558
O O7 0.747263 0.974432 0.583449
O O8 0.723265 0.133593 0.216546
O O9 0.815727 0.129007 0.022539
O O10 0.837365 0.189530 0.778137
O O11 0.145601 0.291155 0.861862
O O12 0.000000 0.213243 0.750000
O O13 0.173743 0.183818 0.000249
#
# Coordination Sequence:
#
# PCOD9256854 Si02
#       6
#     8   8   8   8   8   8
#     4  11  18  26  40  70 109 139 157 189 244 317
#     4  10  18  30  44  68 102 136 159 194 252 302
#     4  11  19  28  45  74 104 130 158 203 257 299
#     4  11  19  26  45  72 100 134 168 199 240 297
#     4  10  20  38  54  69  95 137 178 206 243 296
#     4   9  21  36  52  73 101 132 169 205 246 310
#
# _framework density 17.263010999999999
#
# number of rings (size 3 to 8) (size 9 to 14) (size 15 to 20)
#    0.000    1.667    3.333    5.000    0.000    0.667 
#    0.000    0.000    0.000    1.000    0.000    0.000 
#    0.000    0.000    0.000    0.000    0.000    0.000 
#
# Total GULP energy -133778.716800 kJ/mol
# GULP energy per Si atom -5574.113200 kJ/mol
# Density = 1.722372 g / cm^3
# Si number density = 17.263011 Si / 1000 Ang^3
#
#
#
# Elastic Constant Matrix: (Units=GPa)
#
#
# Indices 1 2 3 4 5 6 
#
# 1 21.9820 17.0869 18.7990 0.0000 -7.7407 0.0000
# 2 17.0869 93.1743 16.6692 0.0000 -8.1687 0.0000
# 3 18.7990 16.6692 80.3707 0.0000 -28.0598 0.0000
# 4 0.0000 0.0000 0.0000 22.2648 0.0000 2.1974
# 5 -7.7407 -8.1687 -28.0598 0.0000 23.8054 0.0000
# 6 0.0000 0.0000 0.0000 2.1974 0.0000 22.6487
#
#
#
# Elastic Compliance Matrix: (Units=1/GPa)
#
#
# Indices 1 2 3 4 5 6 
#
# 1 0.064116 -0.009325 -0.011728 0.000000 0.003825 0.000000
# 2 -0.009325 0.012551 0.000039 0.000000 0.001321 0.000000
# 3 -0.011728 0.000039 0.023537 0.000000 0.023943 0.000000
# 4 0.000000 0.000000 0.000000 0.045348 0.000000 -0.004400
# 5 0.003825 0.001321 0.023943 0.000000 0.071926 0.000000
# 6 0.000000 0.000000 0.000000 -0.004400 0.000000 0.044579
#
#
# Mechanical properties :
#
#
# Convention : Reuss Voigt Hill
#
# Bulk Modulus (GPa) = 17.18860 33.40412 25.29636
# Shear Modulus (GPa) = 15.45704 23.27524 19.36614
#
# Velocity S-wave (km/s) = 2.99554 3.67587 3.35300
# Velocity P-wave (km/s) = 4.68432 6.11622 5.44752
#
# Compressibility (1/GPa) = 0.05817811
#
# Stress axis : x y z
#
# Youngs Moduli (GPa) = 15.59662 79.67238 42.48717
#
# Poissons Ratio (x) = 0.74291 0.49827
# Poissons Ratio (y) = 0.14543 -0.00166
# Poissons Ratio (z) = 0.18291 -0.00311
#
# Static dielectric constant tensor:
#      x y z
#    x 1.573940 0.000000 -0.003160 
#    y 0.000000 1.620430 0.000000 
#    z -0.003160 0.000000 1.622570 
# 
# From -- ./inp_files/41807.got.cif
#   From: 2010.05.17/outbox.cif.g08.bks.cpg/sg15_21_cif.got.tgz:41807.got - 2010.06.03 18:47:42.
