data_PCOD9256011
_publ_section_title
;
Structure prediction by ZEFSAII (Michael W. Deem and Ramdas Pophale) SiO2 
 PCOD9256011
Probable space group: C 2/C
;
_chemical_formula_sum "Si O2"
_cell_formula_units_Z 64
_cell_length_a 29.489176
_cell_length_b 12.586800
_cell_length_c 22.426601
_cell_angle_alpha 90.000000
_cell_angle_beta 18.239796
_cell_angle_gamma 90.000000
_cell_volume 2605.423718
_symmetry_space_group_name_H-M "C 2/C"
_symmetry_group_IT_number 15
_symmetry_cell_setting 'monoclinic'
loop_
_space_group_symop_operation_xyz
x,y,z
-x,y,1/2-z
-x,-y,-z
x,-y,1/2+z
1/2+x,1/2+y,z
1/2-x,1/2+y,1/2-z
1/2-x,1/2-y,-z
1/2+x,1/2-y,1/2+z
loop_
_atom_site_type_symbol
_atom_site_label
_atom_site_fract_x
_atom_site_fract_y
_atom_site_fract_z
Si Si1 0.773378 0.103987 0.567631
Si Si2 0.401565 0.603983 0.288839
Si Si3 0.537446 0.216776 0.296553
Si Si4 0.554614 0.455823 0.494285
Si Si5 0.970216 0.605761 0.998007
Si Si6 0.162302 0.444526 0.416876
Si Si7 0.199250 0.882841 0.907707
Si Si8 0.253458 0.893903 0.053918
O O1 0.790470 0.144649 0.478200
O O2 0.629238 0.146836 0.780310
O O3 0.934553 0.125187 0.392472
O O4 0.764541 0.975081 0.589337
O O5 0.341096 0.482876 0.361544
O O6 0.436055 0.616994 0.175279
O O7 0.464518 0.138772 0.433984
O O8 0.409000 0.293036 0.433177
O O9 0.654289 0.290468 0.181552
O O10 0.614210 0.143277 0.152078
O O11 0.500000 0.500000 0.500000
O O12 0.607262 0.552100 0.471792
O O13 0.706723 0.404471 0.287535
O O14 0.892257 0.559556 0.035667
O O15 0.000000 0.500000 0.000000
O O16 0.841990 0.661271 0.195793
O O17 0.203162 0.437489 0.435499
#
# Coordination Sequence:
#
# PCOD9256011 Si02
#       8
#     8   8   8   8   8   8   8   8
#     4   9  17  30  50  78 103 136 194 234 289 338
#     4  10  18  31  52  74 105 150 184 242 293 333
#     4  11  22  34  49  83 120 156 192 223 297 362
#     4  10  17  34  52  69 101 147 203 240 283 339
#     4   9  19  35  56  77 104 148 200 247 286 341
#     4  11  22  34  53  76 107 150 197 245 279 347
#     4   9  18  34  53  74 108 156 189 234 289 347
#     4  11  22  35  49  78 116 156 191 227 295 357
#
# _framework density 24.564143999999999
#
# number of rings (size 3 to 8) (size 9 to 14) (size 15 to 20)
#    0.000    2.000    3.750    1.875    0.000    5.000 
#    0.000    0.000    0.000    0.000    0.000    0.875 
#    0.000   10.000    0.000    2.000    0.000    0.000 
#
# Total GULP energy -178365.662246 kJ/mol
# GULP energy per Si atom -5573.926945 kJ/mol
# Density = 2.450823 g / cm^3
# Si number density = 24.564144 Si / 1000 Ang^3
#
#
#
# Elastic Constant Matrix: (Units=GPa)
#
#
# Indices 1 2 3 4 5 6 
#
# 1 110.1159 13.7006 29.2493 -0.0004 13.4420 0.0003
# 2 13.7006 43.9593 22.9764 -0.0002 -1.5119 0.0001
# 3 29.2493 22.9764 206.0651 -0.0004 16.2961 0.0002
# 4 -0.0004 -0.0002 -0.0004 21.0277 0.0004 -4.3219
# 5 13.4420 -1.5119 16.2961 0.0004 37.1014 -0.0002
# 6 0.0003 0.0001 0.0002 -4.3219 -0.0002 18.5744
#
#
#
# Elastic Compliance Matrix: (Units=1/GPa)
#
#
# Indices 1 2 3 4 5 6 
#
# 1 0.010070 -0.002812 -0.000848 0.000000 -0.003391 0.000000
# 2 -0.002812 0.025123 -0.002656 0.000000 0.003209 0.000000
# 3 -0.000848 -0.002656 0.005443 0.000000 -0.002192 0.000000
# 4 0.000000 0.000000 0.000000 0.049945 -0.000001 0.011621
# 5 -0.003391 0.003209 -0.002192 -0.000001 0.029275 0.000000
# 6 0.000000 0.000000 0.000000 0.011621 0.000000 0.056542
#
#
# Mechanical properties :
#
#
# Convention : Reuss Voigt Hill
#
# Bulk Modulus (GPa) = 35.70817 54.66589 45.18703
# Shear Modulus (GPa) = 25.20618 34.95497 30.08058
#
# Velocity S-wave (km/s) = 3.20681 3.77637 3.50319
# Velocity P-wave (km/s) = 5.31787 6.42785 5.89903
#
# Compressibility (1/GPa) = 0.02800480
#
# Stress axis : x y z
#
# Youngs Moduli (GPa) = 99.30178 39.80363 183.73520
#
# Poissons Ratio (x) = 0.11193 0.15575
# Poissons Ratio (y) = 0.27925 0.48798
# Poissons Ratio (z) = 0.08418 0.10571
#
# Static dielectric constant tensor:
#      x y z
#    x 2.075030 0.000000 -0.030410 
#    y 0.000000 1.967600 0.000000 
#    z -0.030410 0.000000 2.007460 
# 
# From -- ./inp_files/259428.got.cif
#   From: 2010.05.17/outbox.cif.g08.bks.cpg/sg15_130_cif.got.tgz:259428.got - 2010.06.03 18:47:42.
