data_PCOD9256693
_publ_section_title
;
Structure prediction by ZEFSAII (Michael W. Deem and Ramdas Pophale) SiO2 
 PCOD9256693
Probable space group: C 2/C
;
_chemical_formula_sum "Si O2"
_cell_formula_units_Z 56
_cell_length_a 21.837263
_cell_length_b 22.877493
_cell_length_c 8.516481
_cell_angle_alpha 90.000000
_cell_angle_beta 41.326599
_cell_angle_gamma 90.000000
_cell_volume 2809.578941
_symmetry_space_group_name_H-M "C 2/C"
_symmetry_group_IT_number 15
_symmetry_cell_setting 'monoclinic'
loop_
_space_group_symop_operation_xyz
x,y,z
-x,y,1/2-z
-x,-y,-z
x,-y,1/2+z
1/2+x,1/2+y,z
1/2-x,1/2+y,1/2-z
1/2-x,1/2-y,-z
1/2+x,1/2-y,1/2+z
loop_
_atom_site_type_symbol
_atom_site_label
_atom_site_fract_x
_atom_site_fract_y
_atom_site_fract_z
Si Si1 0.260921 0.001715 0.589733
Si Si2 0.955829 0.277886 0.497580
Si Si3 0.734607 0.417721 0.895439
Si Si4 0.629833 0.204536 0.822501
Si Si5 0.770686 0.710177 0.212888
Si Si6 0.621804 0.930610 0.388003
Si Si7 0.544924 0.919022 0.000094
O O1 0.200747 0.051799 0.619769
O O2 0.339081 0.036914 0.536474
O O3 0.203682 0.960525 0.816575
O O4 0.310381 0.955016 0.379164
O O5 0.846724 0.265666 0.691203
O O6 0.961783 0.348589 0.487305
O O7 0.000000 0.255080 0.250000
O O8 0.029282 0.264842 0.492846
O O9 0.728526 0.350086 0.862210
O O10 0.846073 0.429633 0.700654
O O11 0.694354 0.243669 0.807516
O O12 0.673330 0.197968 0.560682
O O13 0.626484 0.139241 0.897326
O O14 0.518278 0.940958 0.521509
O O15 0.500000 0.938719 0.250000
#
# Coordination Sequence:
#
# PCOD9256693 Si02
#       7
#     8   8   8   8   8   8   8
#     4  10  20  27  40  52  86 109 142 174 196 247
#     4   7  12  22  36  59  83 105 132 174 208 232
#     4  10  18  29  37  59  78 112 140 169 208 242
#     4   9  15  26  44  61  83 110 140 174 211 250
#     4   9  15  26  44  61  83 110 140 174 211 250
#     4  10  18  29  37  59  78 112 140 169 208 242
#     4   9  14  24  39  53  82 108 139 172 197 236
#
# _framework density 19.931812999999998
#
# number of rings (size 3 to 8) (size 9 to 14) (size 15 to 20)
#    0.000    2.857    2.857    1.714    0.000    4.000 
#    0.000    0.714    0.000    0.000    0.000    0.000 
#    0.000    6.857    0.000    0.000    0.000    0.571 
#
# Total GULP energy -155946.827721 kJ/mol
# GULP energy per Si atom -5569.529561 kJ/mol
# Density = 1.988645 g / cm^3
# Si number density = 19.931813 Si / 1000 Ang^3
#
#
#
# Elastic Constant Matrix: (Units=GPa)
#
#
# Indices 1 2 3 4 5 6 
#
# 1 109.1262 62.0560 18.6142 0.0000 0.3264 0.0000
# 2 62.0560 99.1054 6.5413 0.0000 -5.9051 0.0000
# 3 18.6142 6.5413 10.9759 0.0000 5.5743 0.0000
# 4 0.0000 0.0000 0.0000 9.5727 0.0000 2.3384
# 5 0.3264 -5.9051 5.5743 0.0000 21.4073 0.0000
# 6 0.0000 0.0000 0.0000 2.3384 0.0000 41.6082
#
#
#
# Elastic Compliance Matrix: (Units=1/GPa)
#
#
# Indices 1 2 3 4 5 6 
#
# 1 0.020289 -0.010395 -0.030654 0.000000 0.004805 0.000000
# 2 -0.010395 0.016360 0.006345 0.000000 0.003019 0.000000
# 3 -0.030654 0.006345 0.159247 0.000000 -0.039249 0.000000
# 4 0.000000 0.000000 0.000000 0.105917 0.000000 -0.005953
# 5 0.004805 0.003019 -0.039249 0.000000 0.057693 0.000000
# 6 0.000000 0.000000 0.000000 -0.005953 0.000000 0.024368
#
#
# Mechanical properties :
#
#
# Convention : Reuss Voigt Hill
#
# Bulk Modulus (GPa) = 7.90585 43.73671 25.82128
# Shear Modulus (GPa) = 10.09193 23.31741 16.70467
#
# Velocity S-wave (km/s) = 2.25260 3.42403 2.89812
# Velocity P-wave (km/s) = 3.27730 6.13374 4.91749
#
# Compressibility (1/GPa) = 0.12648856
#
# Stress axis : x y z
#
# Youngs Moduli (GPa) = 49.28713 61.12413 6.27955
#
# Poissons Ratio (x) = 0.63537 0.19250
# Poissons Ratio (y) = 0.51233 -0.03984
# Poissons Ratio (z) = 1.51086 -0.38784
#
# Static dielectric constant tensor:
#      x y z
#    x 1.755290 0.000000 0.043270 
#    y 0.000000 1.728750 0.000000 
#    z 0.043270 0.000000 1.795710 
# 
# From -- ./inp_files/42275.got.cif
#   From: 2010.05.17/outbox.cif.g08.bks.cpg/sg15_22_cif.got.tgz:42275.got - 2010.06.03 18:47:42.
