data_PCOD9256241
_publ_section_title
;
Structure prediction by ZEFSAII (Michael W. Deem and Ramdas Pophale) SiO2 
 PCOD9256241
Probable space group: C 2/C
;
_chemical_formula_sum "Si O2"
_cell_formula_units_Z 64
_cell_length_a 24.099498
_cell_length_b 14.451403
_cell_length_c 17.356276
_cell_angle_alpha 90.000000
_cell_angle_beta 146.282880
_cell_angle_gamma 90.000000
_cell_volume 3355.369091
_symmetry_space_group_name_H-M "C 2/C"
_symmetry_group_IT_number 15
_symmetry_cell_setting 'monoclinic'
loop_
_space_group_symop_operation_xyz
x,y,z
-x,y,1/2-z
-x,-y,-z
x,-y,1/2+z
1/2+x,1/2+y,z
1/2-x,1/2+y,1/2-z
1/2-x,1/2-y,-z
1/2+x,1/2-y,1/2+z
loop_
_atom_site_type_symbol
_atom_site_label
_atom_site_fract_x
_atom_site_fract_y
_atom_site_fract_z
Si Si1 0.733169 0.998693 0.430935
Si Si2 0.297652 0.291704 0.170340
Si Si3 0.613751 0.836539 0.853892
Si Si4 0.370912 0.546634 0.462431
Si Si5 0.588530 0.341739 0.637047
Si Si6 0.766637 0.292591 0.103686
Si Si7 0.362053 0.666187 0.905242
Si Si8 0.093711 0.018640 0.752149
O O1 0.653256 0.059202 0.384563
O O2 0.776308 0.056331 0.408643
O O3 0.834524 0.983078 0.597295
O O4 0.696340 0.898103 0.363445
O O5 0.364056 0.217867 0.200005
O O6 0.294967 0.290904 0.259665
O O7 0.352310 0.389139 0.214811
O O8 0.189018 0.293305 0.004524
O O9 0.500000 0.831503 0.750000
O O10 0.381714 0.628966 0.414398
O O11 0.356539 0.446081 0.404839
O O12 0.476725 0.540259 0.630149
O O13 0.657557 0.269329 0.760154
O O14 0.474423 0.309674 0.511263
O O15 0.593583 0.438429 0.688918
O O16 0.668966 0.299142 0.045829
O O17 0.750000 0.250000 0.000000
#
# Coordination Sequence:
#
# PCOD9256241 Si02
#       8
#     8   8   8   8   8   8   8   8
#     4  10  22  39  59  89 124 166 203 247 307 374
#     4  10  20  38  62  92 118 154 203 252 315 356
#     4  10  24  41  61  87 124 163 206 248 298 376
#     4  10  19  34  63  96 120 148 196 260 322 357
#     4  11  20  37  62  91 123 158 201 255 312 370
#     4  11  24  40  59  89 126 168 207 248 304 367
#     4  10  21  38  62  91 122 152 201 258 304 366
#     4  10  17  35  62  91 123 147 194 259 318 362
#
# _framework density 19.073907999999999
#
# number of rings (size 3 to 8) (size 9 to 14) (size 15 to 20)
#    0.000    1.750    3.750    1.125    1.750    4.500 
#    2.250    0.000    0.000    2.250    0.000    0.000 
#    0.000    0.000    0.000    0.000    0.000    0.000 
#
# Total GULP energy -178507.570703 kJ/mol
# GULP energy per Si atom -5578.361584 kJ/mol
# Density = 1.903050 g / cm^3
# Si number density = 19.073908 Si / 1000 Ang^3
#
#
#
# Elastic Constant Matrix: (Units=GPa)
#
#
# Indices 1 2 3 4 5 6 
#
# 1 111.8655 28.6162 45.0669 0.0000 4.4990 0.0000
# 2 28.6162 63.9792 28.5049 0.0000 7.9488 0.0000
# 3 45.0669 28.5049 80.5885 0.0000 5.1094 0.0000
# 4 0.0000 0.0000 0.0000 26.4073 0.0000 -4.6250
# 5 4.4990 7.9488 5.1094 0.0000 33.2685 0.0000
# 6 0.0000 0.0000 0.0000 -4.6250 0.0000 26.2628
#
#
#
# Elastic Compliance Matrix: (Units=1/GPa)
#
#
# Indices 1 2 3 4 5 6 
#
# 1 0.011950 -0.002802 -0.005687 0.000000 -0.000073 0.000000
# 2 -0.002802 0.019614 -0.005148 0.000000 -0.003517 0.000000
# 3 -0.005687 -0.005148 0.017453 0.000000 -0.000681 0.000000
# 4 0.000000 0.000000 0.000000 0.039073 0.000000 0.006881
# 5 -0.000073 -0.003517 -0.000681 0.000000 0.031013 0.000000
# 6 0.000000 0.000000 0.000000 0.006881 0.000000 0.039288
#
#
# Mechanical properties :
#
#
# Convention : Reuss Voigt Hill
#
# Bulk Modulus (GPa) = 45.99093 51.20103 48.59598
# Shear Modulus (GPa) = 25.91840 27.47076 26.69458
#
# Velocity S-wave (km/s) = 3.69024 3.79915 3.74509
# Velocity P-wave (km/s) = 6.50550 6.79312 6.65086
#
# Compressibility (1/GPa) = 0.02174342
#
# Stress axis : x y z
#
# Youngs Moduli (GPa) = 83.68072 50.98467 57.29686
#
# Poissons Ratio (x) = 0.14287 0.32585
# Poissons Ratio (y) = 0.23449 0.29494
# Poissons Ratio (z) = 0.47589 0.26245
#
# Static dielectric constant tensor:
#      x y z
#    x 1.691920 0.000000 -0.025480 
#    y 0.000000 1.667680 0.000000 
#    z -0.025480 0.000000 1.666660 
# 
# From -- ./inp_files/219730.got.cif
#   From: 2010.05.17/outbox.cif.g08.bks.cpg/sg15_110_cif.got.tgz:219730.got - 2010.06.03 18:47:42.
