data_PCOD9256500
_publ_section_title
;
Structure prediction by ZEFSAII (Michael W. Deem and Ramdas Pophale) SiO2 
 PCOD9256500
Probable space group: C 2/C
;
_chemical_formula_sum "Si O2"
_cell_formula_units_Z 36
_cell_length_a 15.397904
_cell_length_b 14.755982
_cell_length_c 5.666696
_cell_angle_alpha 90.000000
_cell_angle_beta 86.978890
_cell_angle_gamma 90.000000
_cell_volume 1285.747327
_symmetry_space_group_name_H-M "C 2/C"
_symmetry_group_IT_number 15
_symmetry_cell_setting 'monoclinic'
loop_
_space_group_symop_operation_xyz
x,y,z
-x,y,1/2-z
-x,-y,-z
x,-y,1/2+z
1/2+x,1/2+y,z
1/2-x,1/2+y,1/2-z
1/2-x,1/2-y,-z
1/2+x,1/2-y,1/2+z
loop_
_atom_site_type_symbol
_atom_site_label
_atom_site_fract_x
_atom_site_fract_y
_atom_site_fract_z
Si Si1 0.098967 0.968326 0.527223
Si Si2 0.000000 0.623966 0.750000
Si Si3 0.430603 0.276192 0.083663
Si Si4 0.692521 0.872333 0.268088
Si Si5 0.242529 0.674516 0.256339
O O1 0.092845 0.861241 0.575335
O O2 0.136510 0.012628 0.759944
O O3 0.000000 0.000000 0.500000
O O4 0.020257 0.691311 0.533589
O O5 0.095863 0.582401 0.783522
O O6 0.500000 0.318461 0.250000
O O7 0.347048 0.234106 0.221775
O O8 0.690303 0.760009 0.261222
O O9 0.737496 0.883007 0.517115
O O10 0.733989 0.884629 0.999580
#
# Coordination Sequence:
#
# PCOD9256500 Si02
#       5
#     8   4   8   8   8
#     4  10  19  28  37  52  76  97 124 161 190 212
#     4  10  18  26  42  60  74 104 134 164 178 236
#     4  11  18  26  41  56  75 102 138 155 184 228
#     4   9  17  28  39  54  78  95 128 157 197 209
#     4   9  18  28  38  55  75 101 122 165 185 225
#
# _framework density 27.999281
#
# number of rings (size 3 to 8) (size 9 to 14) (size 15 to 20)
#    0.000    2.222    4.444    1.333    0.000    0.000 
#    0.000    0.000    0.000    0.000    0.000    0.000 
#    0.000    0.000    0.000    2.000    0.000    0.222 
#
# Total GULP energy -100445.828803 kJ/mol
# GULP energy per Si atom -5580.323822 kJ/mol
# Density = 2.793555 g / cm^3
# Si number density = 27.999281 Si / 1000 Ang^3
#
#
#
# Elastic Constant Matrix: (Units=GPa)
#
#
# Indices 1 2 3 4 5 6 
#
# 1 87.4806 5.7450 16.5546 0.0000 -12.5184 0.0000
# 2 5.7450 52.2065 28.5454 0.0000 5.4398 0.0000
# 3 16.5546 28.5454 247.7351 0.0000 5.2367 0.0000
# 4 0.0000 0.0000 0.0000 40.7081 0.0000 2.1233
# 5 -12.5184 5.4398 5.2367 0.0000 50.2165 0.0000
# 6 0.0000 0.0000 0.0000 2.1233 0.0000 14.6986
#
#
#
# Elastic Compliance Matrix: (Units=1/GPa)
#
#
# Indices 1 2 3 4 5 6 
#
# 1 0.012116 -0.001270 -0.000732 0.000000 0.003234 0.000000
# 2 -0.001270 0.020773 -0.002259 0.000000 -0.002331 0.000000
# 3 -0.000732 -0.002259 0.004354 0.000000 -0.000392 0.000000
# 4 0.000000 0.000000 0.000000 0.024752 0.000000 -0.003576
# 5 0.003234 -0.002331 -0.000392 0.000000 0.021013 0.000000
# 6 0.000000 0.000000 0.000000 -0.003576 0.000000 0.068550
#
#
# Mechanical properties :
#
#
# Convention : Reuss Voigt Hill
#
# Bulk Modulus (GPa) = 34.81875 54.34581 44.58228
# Shear Modulus (GPa) = 29.47175 43.56311 36.51743
#
# Velocity S-wave (km/s) = 3.24788 3.94873 3.61533
# Velocity P-wave (km/s) = 5.15049 6.34364 5.77795
#
# Compressibility (1/GPa) = 0.02872016
#
# Stress axis : x y z
#
# Youngs Moduli (GPa) = 82.53689 48.13987 229.66968
#
# Poissons Ratio (x) = 0.06115 0.16803
# Poissons Ratio (y) = 0.10484 0.51891
# Poissons Ratio (z) = 0.06039 0.10877
#
# Static dielectric constant tensor:
#      x y z
#    x 2.447230 0.000000 0.097320 
#    y 0.000000 2.045350 0.000000 
#    z 0.097320 0.000000 2.344070 
# 
# From -- ./inp_files/4735.got.cif
#   From: 2010.05.17/outbox.cif.g08.bks.cpg/sg15_3_cif.got.tgz:4735.got - 2010.06.03 18:47:42.
