data_PCOD9256031
_publ_section_title
;
Structure prediction by ZEFSAII (Michael W. Deem and Ramdas Pophale) SiO2 
 PCOD9256031
Probable space group: C 2/C
;
_chemical_formula_sum "Si O2"
_cell_formula_units_Z 48
_cell_length_a 19.547179
_cell_length_b 23.275681
_cell_length_c 5.516168
_cell_angle_alpha 90.000000
_cell_angle_beta 121.310789
_cell_angle_gamma 90.000000
_cell_volume 2144.200436
_symmetry_space_group_name_H-M "C 2/C"
_symmetry_group_IT_number 15
_symmetry_cell_setting 'monoclinic'
loop_
_space_group_symop_operation_xyz
x,y,z
-x,y,1/2-z
-x,-y,-z
x,-y,1/2+z
1/2+x,1/2+y,z
1/2-x,1/2+y,1/2-z
1/2-x,1/2-y,-z
1/2+x,1/2-y,1/2+z
loop_
_atom_site_type_symbol
_atom_site_label
_atom_site_fract_x
_atom_site_fract_y
_atom_site_fract_z
Si Si1 0.448012 0.355981 0.905737
Si Si2 0.000000 0.664350 0.750000
Si Si3 0.374603 0.123812 0.147442
Si Si4 0.500000 0.037486 0.250000
Si Si5 0.601023 0.519689 0.306423
Si Si6 0.281704 0.974991 0.659497
Si Si7 0.587660 0.235091 0.539473
O O1 0.500000 0.345092 0.750000
O O2 0.399264 0.413838 0.766974
O O3 0.392509 0.300890 0.867846
O O4 0.500000 0.365231 0.250000
O O5 0.944505 0.628591 0.473846
O O6 0.934491 0.704891 0.752770
O O7 0.422472 0.079420 0.065188
O O8 0.299014 0.090504 0.115204
O O9 0.361950 0.187480 0.015004
O O10 0.500000 0.000000 0.500000
O O11 0.566409 0.515115 0.513752
O O12 0.688866 0.492041 0.503322
O O13 0.313842 0.988510 0.987450
O O14 0.500000 0.237645 0.250000
#
# Coordination Sequence:
#
# PCOD9256031 Si02
#       7
#     8   4   8   4   8   8   8
#     4  11  22  37  65  98 125 155 197 245 315 376
#     4  10  17  34  54  82 122 155 196 250 296 356
#     4  11  21  34  55  81 122 165 203 249 300 355
#     4  12  23  30  46  78 114 147 196 246 284 340
#     4  10  22  42  63  88 123 160 200 256 303 364
#     4  10  23  40  59  81 114 169 212 247 300 354
#     4   9  19  34  54  86 125 159 193 248 303 364
#
# _framework density 22.385968999999999
#
# number of rings (size 3 to 8) (size 9 to 14) (size 15 to 20)
#    0.000    1.667    3.333    2.500    2.333    2.000 
#    0.000    0.000    0.000    8.000    0.000    0.000 
#    0.000    0.000    0.000    0.000    0.000    0.000 
#
# Total GULP energy -133643.557644 kJ/mol
# GULP energy per Si atom -5568.481568 kJ/mol
# Density = 2.233502 g / cm^3
# Si number density = 22.385969 Si / 1000 Ang^3
#
#
#
# Elastic Constant Matrix: (Units=GPa)
#
#
# Indices 1 2 3 4 5 6 
#
# 1 64.1496 42.9373 27.1846 0.0000 -13.8769 0.0000
# 2 42.9373 167.3165 36.0433 0.0000 -4.4726 0.0000
# 3 27.1846 36.0433 115.0163 0.0000 -29.3835 0.0000
# 4 0.0000 0.0000 0.0000 -6.2927 0.0000 -7.3026
# 5 -13.8769 -4.4726 -29.3835 0.0000 32.3000 0.0000
# 6 0.0000 0.0000 0.0000 -7.3026 0.0000 32.7868
#
#
#
# Elastic Compliance Matrix: (Units=1/GPa)
#
#
# Indices 1 2 3 4 5 6 
#
# 1 0.021030 -0.004846 -0.001713 0.000000 0.006805 0.000000
# 2 -0.004846 0.007563 -0.001940 0.000000 -0.002799 0.000000
# 3 -0.001713 -0.001940 0.012312 0.000000 0.010196 0.000000
# 4 0.000000 0.000000 0.000000 -0.126275 0.000000 -0.028125
# 5 0.006805 -0.002799 0.010196 0.000000 0.042771 0.000000
# 6 0.000000 0.000000 0.000000 -0.028125 0.000000 0.024236
#
#
# Mechanical properties :
#
#
# Convention : Reuss Voigt Hill
#
# Bulk Modulus (GPa) = 41.82859 62.09031 51.95945
# Shear Modulus (GPa) = 757.05887 27.77997 392.41942
#
# Velocity S-wave (km/s) = 18.40975 3.52654 13.25434
# Velocity P-wave (km/s) = 21.69372 6.66172 16.04674
#
# Compressibility (1/GPa) = 0.02390709
#
# Stress axis : x y z
#
# Youngs Moduli (GPa) = 47.55050 132.21692 81.22139
#
# Poissons Ratio (x) = 0.64070 0.13917
# Poissons Ratio (y) = 0.23042 0.15757
# Poissons Ratio (z) = 0.08147 0.25650
#
# Static dielectric constant tensor:
#      x y z
#    x 2.498440 0.000000 -0.310280 
#    y 0.000000 1.866010 0.000000 
#    z -0.310280 0.000000 2.686140 
# 
# From -- ./inp_files/15755.got.cif
#   From: 2010.05.17/outbox.cif.g08.bks.cpg/sg15_8_cif.got.tgz:15755.got - 2010.06.03 18:47:42.
