data_PCOD9256409
_publ_section_title
;
Structure prediction by ZEFSAII (Michael W. Deem and Ramdas Pophale) SiO2 
 PCOD9256409
Probable space group: C 2/C
;
_chemical_formula_sum "Si O2"
_cell_formula_units_Z 48
_cell_length_a 25.298267
_cell_length_b 11.482422
_cell_length_c 15.414780
_cell_angle_alpha 90.000000
_cell_angle_beta 30.059960
_cell_angle_gamma 90.000000
_cell_volume 2242.941047
_symmetry_space_group_name_H-M "C 2/C"
_symmetry_group_IT_number 15
_symmetry_cell_setting 'monoclinic'
loop_
_space_group_symop_operation_xyz
x,y,z
-x,y,1/2-z
-x,-y,-z
x,-y,1/2+z
1/2+x,1/2+y,z
1/2-x,1/2+y,1/2-z
1/2-x,1/2-y,-z
1/2+x,1/2-y,1/2+z
loop_
_atom_site_type_symbol
_atom_site_label
_atom_site_fract_x
_atom_site_fract_y
_atom_site_fract_z
Si Si1 0.526880 0.538058 0.115744
Si Si2 0.671815 0.650732 0.144893
Si Si3 0.592175 0.680688 0.779749
Si Si4 0.746971 0.517701 0.878382
Si Si5 0.799250 0.246698 0.052676
Si Si6 0.389882 0.784141 0.111450
O O1 0.500000 0.492104 0.250000
O O2 0.452391 0.649501 0.205724
O O3 0.478834 0.436491 0.124164
O O4 0.651070 0.557630 0.949692
O O5 0.665596 0.677852 0.255921
O O6 0.750000 0.750000 0.000000
O O7 0.713807 0.543694 0.026111
O O8 0.703072 0.666171 0.670515
O O9 0.625723 0.731219 0.637881
O O10 0.515003 0.769625 0.937683
O O11 0.753423 0.380324 0.860090
O O12 0.845796 0.596962 0.714314
O O13 0.860540 0.276556 0.052359
#
# Coordination Sequence:
#
# PCOD9256409 Si02
#       6
#     8   8   8   8   8   8
#     4  10  17  37  66  88 117 167 213 254 316 377
#     4   9  20  36  58  90 124 163 201 264 317 373
#     4  11  22  39  64  91 126 169 211 269 324 371
#     4  10  21  41  63  90 131 168 207 267 323 383
#     4  11  23  41  61  95 129 165 218 268 322 384
#     4  11  23  38  63  93 130 161 218 264 317 388
#
# _framework density 21.400473000000002
#
# number of rings (size 3 to 8) (size 9 to 14) (size 15 to 20)
#    0.000    1.667    5.000    0.500    2.333    2.667 
#    0.000    0.000    0.000    0.000    0.000    0.000 
#    0.000    0.000    0.000    0.000    0.000    0.000 
#
# Total GULP energy -133654.801326 kJ/mol
# GULP energy per Si atom -5568.950055 kJ/mol
# Density = 2.135176 g / cm^3
# Si number density = 21.400473 Si / 1000 Ang^3
#
#
#
# Elastic Constant Matrix: (Units=GPa)
#
#
# Indices 1 2 3 4 5 6 
#
# 1 56.3999 -4.1058 26.2250 0.0000 3.1204 0.0000
# 2 -4.1058 49.4535 21.4825 0.0000 -7.0737 0.0000
# 3 26.2250 21.4825 118.5399 0.0000 0.5254 0.0000
# 4 0.0000 0.0000 0.0000 30.2512 0.0000 -4.2463
# 5 3.1204 -7.0737 0.5254 0.0000 35.2992 0.0000
# 6 0.0000 0.0000 0.0000 -4.2463 0.0000 27.4334
#
#
#
# Elastic Compliance Matrix: (Units=1/GPa)
#
#
# Indices 1 2 3 4 5 6 
#
# 1 0.020492 0.003832 -0.005224 0.000000 -0.000966 0.000000
# 2 0.003832 0.023390 -0.005106 0.000000 0.004424 0.000000
# 3 -0.005224 -0.005106 0.010520 0.000000 -0.000718 0.000000
# 4 0.000000 0.000000 0.000000 0.033791 0.000000 0.005230
# 5 -0.000966 0.004424 -0.000718 0.000000 0.029312 0.000000
# 6 0.000000 0.000000 0.000000 0.005230 0.000000 0.037261
#
#
# Mechanical properties :
#
#
# Convention : Reuss Voigt Hill
#
# Bulk Modulus (GPa) = 24.15059 34.62185 29.38622
# Shear Modulus (GPa) = 27.53844 30.64952 29.09398
#
# Velocity S-wave (km/s) = 3.59111 3.78853 3.69114
# Velocity P-wave (km/s) = 5.33895 5.94563 5.65044
#
# Compressibility (1/GPa) = 0.04140686
#
# Stress axis : x y z
#
# Youngs Moduli (GPa) = 48.79976 42.75287 95.05490
#
# Poissons Ratio (x) = -0.16384 0.49654
# Poissons Ratio (y) = -0.18702 0.48539
# Poissons Ratio (z) = 0.25492 0.21831
#
# Static dielectric constant tensor:
#      x y z
#    x 1.812180 0.000000 0.006970 
#    y 0.000000 1.821500 0.000000 
#    z 0.006970 0.000000 1.811570 
# 
# From -- ./inp_files/222269.got.cif
#   From: 2010.05.17/outbox.cif.g08.bks.cpg/sg15_112_cif.got.tgz:222269.got - 2010.06.03 18:47:42.
