data_PCOD9256497
_publ_section_title
;
Structure prediction by ZEFSAII (Michael W. Deem and Ramdas Pophale) SiO2 
 PCOD9256497
Probable space group: C 2/C
;
_chemical_formula_sum "Si O2"
_cell_formula_units_Z 40
_cell_length_a 20.197131
_cell_length_b 21.919037
_cell_length_c 5.317396
_cell_angle_alpha 90.000000
_cell_angle_beta 98.867313
_cell_angle_gamma 90.000000
_cell_volume 2325.884719
_symmetry_space_group_name_H-M "C 2/C"
_symmetry_group_IT_number 15
_symmetry_cell_setting 'monoclinic'
loop_
_space_group_symop_operation_xyz
x,y,z
-x,y,1/2-z
-x,-y,-z
x,-y,1/2+z
1/2+x,1/2+y,z
1/2-x,1/2+y,1/2-z
1/2-x,1/2-y,-z
1/2+x,1/2-y,1/2+z
loop_
_atom_site_type_symbol
_atom_site_label
_atom_site_fract_x
_atom_site_fract_y
_atom_site_fract_z
Si Si1 0.274027 0.650885 0.505655
Si Si2 0.970750 0.068239 0.984066
Si Si3 0.857764 0.721986 0.080702
Si Si4 0.337649 0.382537 0.540627
Si Si5 0.576566 0.743620 0.379106
O O1 0.198353 0.670851 0.404755
O O2 0.317201 0.713663 0.544887
O O3 0.305676 0.611366 0.297448
O O4 0.283276 0.623530 0.788506
O O5 0.000000 0.098786 0.750000
O O6 0.891588 0.068381 0.974131
O O7 0.000000 0.098312 0.250000
O O8 0.000000 0.000000 0.000000
O O9 0.910443 0.727054 0.339406
O O10 0.890136 0.717084 0.825081
O O11 0.382318 0.320304 0.580628
O O12 0.500000 0.735491 0.250000
#
# Coordination Sequence:
#
# PCOD9256497 Si02
#       5
#     8   8   8   8   8
#     4   9  17  28  42  57  74 101 133 175 217 247
#     4  10  20  32  44  59  82 109 136 176 218 253
#     4   9  17  28  39  55  79 102 131 171 216 252
#     4  10  18  28  43  59  76 101 140 179 213 248
#     4  10  18  26  39  58  80 106 135 172 213 252
#
# _framework density 17.197756999999999
#
# number of rings (size 3 to 8) (size 9 to 14) (size 15 to 20)
#    0.000    2.400    0.000    3.600    0.000    8.000 
#    0.000    0.000    0.000    0.000    0.000    0.000 
#    0.000    0.000    0.000    0.000    0.000    0.000 
#
# Total GULP energy -111373.737395 kJ/mol
# GULP energy per Si atom -5568.686870 kJ/mol
# Density = 1.715861 g / cm^3
# Si number density = 17.197757 Si / 1000 Ang^3
#
#
#
# Elastic Constant Matrix: (Units=GPa)
#
#
# Indices 1 2 3 4 5 6 
#
# 1 58.5855 19.4738 33.1442 0.0000 1.5482 0.0000
# 2 19.4738 19.7859 12.3803 0.0000 -0.8685 0.0000
# 3 33.1442 12.3803 143.6780 0.0000 -1.6328 0.0000
# 4 0.0000 0.0000 0.0000 -6.1476 0.0000 -0.5633
# 5 1.5482 -0.8685 -1.6328 0.0000 35.5793 0.0000
# 6 0.0000 0.0000 0.0000 -0.5633 0.0000 22.0869
#
#
#
# Elastic Compliance Matrix: (Units=1/GPa)
#
#
# Indices 1 2 3 4 5 6 
#
# 1 0.027777 -0.024737 -0.004299 0.000000 -0.002010 0.000000
# 2 -0.024737 0.075493 -0.000766 0.000000 0.002884 0.000000
# 3 -0.004299 -0.000766 0.008024 0.000000 0.000537 0.000000
# 4 0.000000 0.000000 0.000000 -0.162287 0.000000 -0.004139
# 5 -0.002010 0.002884 0.000537 0.000000 0.028289 0.000000
# 6 0.000000 0.000000 0.000000 -0.004139 0.000000 0.045170
#
#
# Mechanical properties :
#
#
# Convention : Reuss Voigt Hill
#
# Bulk Modulus (GPa) = 19.34589 39.11621 29.23105
# Shear Modulus (GPa) = 50.35246 20.77380 35.56313
#
# Velocity S-wave (km/s) = 5.41683 3.47931 4.55234
# Velocity P-wave (km/s) = 7.09903 6.23980 6.68324
#
# Compressibility (1/GPa) = 0.05169056
#
# Stress axis : x y z
#
# Youngs Moduli (GPa) = 36.00122 13.24619 124.62907
#
# Poissons Ratio (x) = 0.32767 0.53578
# Poissons Ratio (y) = 0.89056 0.09545
# Poissons Ratio (z) = 0.15477 0.01014
#
# Static dielectric constant tensor:
#      x y z
#    x 1.609670 0.000000 -0.006010 
#    y 0.000000 1.560010 0.000000 
#    z -0.006010 0.000000 1.646300 
# 
# From -- ./inp_files/10203.got.cif
#   From: 2010.05.17/outbox.cif.g08.bks.cpg/sg15_6_cif.got.tgz:10203.got - 2010.06.03 18:47:42.
