data_PCOD9256841
_publ_section_title
;
Structure prediction by ZEFSAII (Michael W. Deem and Ramdas Pophale) SiO2 
 PCOD9256841
Probable space group: C 2/C
;
_chemical_formula_sum "Si O2"
_cell_formula_units_Z 44
_cell_length_a 17.150201
_cell_length_b 13.481400
_cell_length_c 22.324247
_cell_angle_alpha 90.000000
_cell_angle_beta 159.660124
_cell_angle_gamma 90.000000
_cell_volume 1794.098103
_symmetry_space_group_name_H-M "C 2/C"
_symmetry_group_IT_number 15
_symmetry_cell_setting 'monoclinic'
loop_
_space_group_symop_operation_xyz
x,y,z
-x,y,1/2-z
-x,-y,-z
x,-y,1/2+z
1/2+x,1/2+y,z
1/2-x,1/2+y,1/2-z
1/2-x,1/2-y,-z
1/2+x,1/2-y,1/2+z
loop_
_atom_site_type_symbol
_atom_site_label
_atom_site_fract_x
_atom_site_fract_y
_atom_site_fract_z
Si Si1 0.110592 0.935339 0.130068
Si Si2 0.260689 0.096496 0.050014
Si Si3 0.479473 0.161876 0.610078
Si Si4 0.000000 0.230038 0.250000
Si Si5 0.642026 0.176256 0.497992
Si Si6 0.642188 0.264638 0.612779
O O1 0.377010 0.931317 0.311936
O O2 0.958927 0.953700 0.079207
O O3 0.035722 0.826087 0.053738
O O4 0.000000 0.000000 0.000000
O O5 0.500000 0.060295 0.250000
O O6 0.256323 0.098486 0.975189
O O7 0.245185 0.214273 0.056770
O O8 0.212796 0.160424 0.415236
O O9 0.535330 0.199796 0.717086
O O10 0.543125 0.243841 0.605886
O O11 0.677016 0.168798 0.594665
O O12 0.379006 0.181112 0.290812
#
# Coordination Sequence:
#
# PCOD9256841 Si02
#       6
#     8   8   8   4   8   8
#     4  11  23  38  58  93 129 167 205 260 330 387
#     4  10  18  32  52  89 123 151 197 248 304 378
#     4  11  20  40  61  98 118 166 221 277 314 368
#     4  10  22  36  66  92 120 160 240 276 298 354
#     4  10  18  29  56  92 120 150 197 252 308 371
#     4  11  18  36  61  93 122 157 206 263 311 380
#
# _framework density 24.524856
#
# number of rings (size 3 to 8) (size 9 to 14) (size 15 to 20)
#    0.000    1.455    9.091    0.000    0.000    0.000 
#    1.636    0.000    0.000    4.364    7.091    0.000 
#    0.000    0.000    0.000    0.000    0.000    0.000 
#
# Total GULP energy -122672.528322 kJ/mol
# GULP energy per Si atom -5576.024015 kJ/mol
# Density = 2.446904 g / cm^3
# Si number density = 24.524856 Si / 1000 Ang^3
#
#
#
# Elastic Constant Matrix: (Units=GPa)
#
#
# Indices 1 2 3 4 5 6 
#
# 1 209.6734 8.3717 29.4232 -0.0050 9.8667 -0.0008
# 2 8.3717 11.6663 5.5555 0.0058 8.6598 0.0044
# 3 29.4232 5.5555 130.7344 0.0610 28.8194 0.0161
# 4 -0.0050 0.0058 0.0610 15.8070 0.0040 -6.2468
# 5 9.8667 8.6598 28.8194 0.0040 36.8953 -0.0040
# 6 -0.0008 0.0044 0.0161 -6.2468 -0.0040 18.7843
#
#
#
# Elastic Compliance Matrix: (Units=1/GPa)
#
#
# Indices 1 2 3 4 5 6 
#
# 1 0.005036 -0.003297 -0.001047 0.000009 0.000245 0.000005
# 2 -0.003297 0.106107 0.001847 -0.000062 -0.025465 -0.000053
# 3 -0.001047 0.001847 0.009471 -0.000046 -0.007551 -0.000025
# 4 0.000009 -0.000062 -0.000046 0.072835 0.000043 0.024222
# 5 0.000245 -0.025465 -0.007551 0.000043 0.038914 0.000035
# 6 0.000005 -0.000053 -0.000025 0.024222 0.000035 0.061291
#
#
# Mechanical properties :
#
#
# Convention : Reuss Voigt Hill
#
# Bulk Modulus (GPa) = 8.64917 48.75279 28.70098
# Shear Modulus (GPa) = 14.82846 34.87890 24.85368
#
# Velocity S-wave (km/s) = 2.46159 3.77528 3.18686
# Velocity P-wave (km/s) = 3.40787 6.23905 5.02689
#
# Compressibility (1/GPa) = 0.11561799
#
# Stress axis : x y z
#
# Youngs Moduli (GPa) = 198.55352 9.42447 105.58550
#
# Poissons Ratio (x) = 0.03108 0.11060
# Poissons Ratio (y) = 0.65471 -0.19499
# Poissons Ratio (z) = 0.20797 -0.01740
#
# Static dielectric constant tensor:
#      x y z
#    x 2.105110 -0.000020 0.054400 
#    y -0.000020 2.199170 0.000000 
#    z 0.054400 0.000000 2.040550 
# 
# From -- ./inp_files/277826.got.cif
#   From: 2010.05.17/outbox.cif.g08.bks.cpg/sg15_139_cif.got.tgz:277826.got - 2010.06.03 18:47:42.
