data_PCOD9256166
_publ_section_title
;
Structure prediction by ZEFSAII (Michael W. Deem and Ramdas Pophale) SiO2 
 PCOD9256166
Probable space group: C 2/C
;
_chemical_formula_sum "Si O2"
_cell_formula_units_Z 44
_cell_length_a 12.447178
_cell_length_b 14.187986
_cell_length_c 21.257285
_cell_angle_alpha 90.000000
_cell_angle_beta 37.567666
_cell_angle_gamma 90.000000
_cell_volume 2288.833396
_symmetry_space_group_name_H-M "C 2/C"
_symmetry_group_IT_number 15
_symmetry_cell_setting 'monoclinic'
loop_
_space_group_symop_operation_xyz
x,y,z
-x,y,1/2-z
-x,-y,-z
x,-y,1/2+z
1/2+x,1/2+y,z
1/2-x,1/2+y,1/2-z
1/2-x,1/2-y,-z
1/2+x,1/2-y,1/2+z
loop_
_atom_site_type_symbol
_atom_site_label
_atom_site_fract_x
_atom_site_fract_y
_atom_site_fract_z
Si Si1 0.260154 0.400254 0.026000
Si Si2 0.352041 0.326176 0.265506
Si Si3 0.241775 0.284859 0.804327
Si Si4 0.043550 0.031233 0.304347
Si Si5 0.046082 0.283937 0.021248
Si Si6 0.500000 0.867430 0.250000
O O1 0.376520 0.470456 0.929318
O O2 0.393189 0.323321 0.994366
O O3 0.139216 0.344793 0.032164
O O4 0.128552 0.426294 0.144306
O O5 0.500000 0.318362 0.250000
O O6 0.378362 0.258649 0.193937
O O7 0.353293 0.433478 0.239978
O O8 0.160766 0.299739 0.380659
O O9 0.346933 0.375259 0.731057
O O10 0.380491 0.204484 0.763452
O O11 0.129385 0.313650 0.916690
O O12 0.000000 0.042615 0.250000
#
# Coordination Sequence:
#
# PCOD9256166 Si02
#       6
#     8   8   8   8   8   4
#     4  10  17  34  66  96 116 151 211 269 307 341
#     4  11  25  39  58  92 133 165 200 247 317 386
#     4  11  19  38  65  88 123 162 207 259 312 354
#     4  11  20  37  63  99 121 158 210 260 304 363
#     4  10  19  35  65  89 120 161 207 262 303 361
#     4  10  18  32  68 100 110 154 212 270 308 344
#
# _framework density 19.223766999999999
#
# number of rings (size 3 to 8) (size 9 to 14) (size 15 to 20)
#    0.000    1.455    6.364    1.091    0.000    1.455 
#    0.000    3.636    2.000    0.000    0.000    0.000 
#    0.000    0.000    0.000    0.000    0.000    0.000 
#
# Total GULP energy -122712.724386 kJ/mol
# GULP energy per Si atom -5577.851108 kJ/mol
# Density = 1.918001 g / cm^3
# Si number density = 19.223767 Si / 1000 Ang^3
#
#
#
# Elastic Constant Matrix: (Units=GPa)
#
#
# Indices 1 2 3 4 5 6 
#
# 1 64.6351 19.7217 27.4084 0.0000 -0.9343 -0.0001
# 2 19.7217 32.2918 17.0492 -0.0002 8.7619 0.0000
# 3 27.4084 17.0492 178.2523 -0.0009 15.1683 0.0000
# 4 0.0000 -0.0002 -0.0009 11.9275 0.0001 2.6962
# 5 -0.9343 8.7619 15.1683 0.0001 32.8449 0.0001
# 6 -0.0001 0.0000 0.0000 2.6962 0.0001 11.7459
#
#
#
# Elastic Compliance Matrix: (Units=1/GPa)
#
#
# Indices 1 2 3 4 5 6 
#
# 1 0.020377 -0.012562 -0.002359 -0.000001 0.005020 0.000000
# 2 -0.012562 0.042266 -0.001167 0.000001 -0.011093 0.000000
# 3 -0.002359 -0.001167 0.006312 0.000001 -0.002671 0.000000
# 4 -0.000001 0.000001 0.000001 0.088428 -0.000001 -0.020298
# 5 0.005020 -0.011093 -0.002671 -0.000001 0.034782 0.000000
# 6 0.000000 0.000000 0.000000 -0.020298 0.000000 0.089796
#
#
# Mechanical properties :
#
#
# Convention : Reuss Voigt Hill
#
# Bulk Modulus (GPa) = 27.18939 44.83752 36.01346
# Shear Modulus (GPa) = 15.31885 25.37032 20.34459
#
# Velocity S-wave (km/s) = 2.82595 3.63676 3.25669
# Velocity P-wave (km/s) = 4.98220 6.40385 5.73723
#
# Compressibility (1/GPa) = 0.03677906
#
# Stress axis : x y z
#
# Youngs Moduli (GPa) = 49.07440 23.65988 158.43804
#
# Poissons Ratio (x) = 0.29721 0.37374
# Poissons Ratio (y) = 0.61646 0.18491
# Poissons Ratio (z) = 0.11576 0.02761
#
# Static dielectric constant tensor:
#      x y z
#    x 1.660390 0.000000 0.020360 
#    y 0.000000 1.665740 0.000000 
#    z 0.020360 0.000000 1.717760 
# 
# From -- ./inp_files/143342.got.cif
#   From: 2010.05.17/outbox.cif.g08.bks.cpg/sg15_72_cif.got.tgz:143342.got - 2010.06.03 18:47:42.
