data_PCOD9256994
_publ_section_title
;
Structure prediction by ZEFSAII (Michael W. Deem and Ramdas Pophale) SiO2 
 PCOD9256994
Probable space group: C 2/C
;
_chemical_formula_sum "Si O2"
_cell_formula_units_Z 56
_cell_length_a 23.885664
_cell_length_b 14.121431
_cell_length_c 8.715669
_cell_angle_alpha 90.000000
_cell_angle_beta 60.756508
_cell_angle_gamma 90.000000
_cell_volume 2565.120822
_symmetry_space_group_name_H-M "C 2/C"
_symmetry_group_IT_number 15
_symmetry_cell_setting 'monoclinic'
loop_
_space_group_symop_operation_xyz
x,y,z
-x,y,1/2-z
-x,-y,-z
x,-y,1/2+z
1/2+x,1/2+y,z
1/2-x,1/2+y,1/2-z
1/2-x,1/2-y,-z
1/2+x,1/2-y,1/2+z
loop_
_atom_site_type_symbol
_atom_site_label
_atom_site_fract_x
_atom_site_fract_y
_atom_site_fract_z
Si Si1 0.195275 0.452582 0.105747
Si Si2 0.220476 0.921308 0.231773
Si Si3 0.402609 0.452772 0.529448
Si Si4 0.123190 0.196080 0.702824
Si Si5 0.938248 0.625552 0.257991
Si Si6 0.396099 0.049801 0.018801
Si Si7 0.512088 0.362528 0.576961
O O1 0.246761 0.403005 0.147389
O O2 0.149677 0.503311 0.290849
O O3 0.231515 0.530987 0.954239
O O4 0.150036 0.397954 0.043279
O O5 0.186860 0.828382 0.210404
O O6 0.162819 0.998334 0.326902
O O7 0.385958 0.385047 0.411115
O O8 0.444804 0.391001 0.590536
O O9 0.449613 0.540685 0.429365
O O10 0.120424 0.301807 0.643013
O O11 0.060894 0.186498 0.895397
O O12 0.944234 0.603546 0.068428
O O13 0.928262 0.532224 0.374690
O O14 0.000000 0.673880 0.250000
O O15 0.500000 0.307356 0.750000
#
# Coordination Sequence:
#
# PCOD9256994 Si02
#       7
#     8   8   8   8   8   8   8
#     4   9  18  37  62  85 117 163 197 242 281 354
#     4  10  18  32  60  89 123 167 198 224 279 353
#     4  10  18  30  50  80 122 167 201 223 275 348
#     4  11  22  35  55  92 123 157 199 236 295 355
#     4  11  22  42  68  89 113 146 197 260 313 367
#     4   9  21  41  65  86 108 150 203 256 317 349
#     4  10  19  30  48  77 124 170 198 232 272 341
#
# _framework density 21.831330999999999
#
# number of rings (size 3 to 8) (size 9 to 14) (size 15 to 20)
#    0.000    2.000    1.429    4.286    2.000    0.000 
#    0.000   13.571    0.000    0.000    0.000    0.000 
#    0.000    0.000    0.000    0.000    0.000    0.000 
#
# Total GULP energy -156174.089933 kJ/mol
# GULP energy per Si atom -5577.646069 kJ/mol
# Density = 2.178164 g / cm^3
# Si number density = 21.831331 Si / 1000 Ang^3
#
#
#
# Elastic Constant Matrix: (Units=GPa)
#
#
# Indices 1 2 3 4 5 6 
#
# 1 123.9153 15.5139 32.7891 0.0000 46.5271 0.0000
# 2 15.5139 60.4599 4.4249 0.0000 17.0683 0.0000
# 3 32.7891 4.4249 85.8284 0.0000 16.2397 0.0000
# 4 0.0000 0.0000 0.0000 11.1560 0.0000 1.3930
# 5 46.5271 17.0683 16.2397 0.0000 48.5639 0.0000
# 6 0.0000 0.0000 0.0000 1.3930 0.0000 26.5135
#
#
#
# Elastic Compliance Matrix: (Units=1/GPa)
#
#
# Indices 1 2 3 4 5 6 
#
# 1 0.013220 0.000137 -0.002831 0.000000 -0.011767 0.000000
# 2 0.000137 0.018370 0.000264 0.000000 -0.006676 0.000000
# 3 -0.002831 0.000264 0.013049 0.000000 -0.001744 0.000000
# 4 0.000000 0.000000 0.000000 0.090230 0.000000 -0.004741
# 5 -0.011767 -0.006676 -0.001744 0.000000 0.034795 0.000000
# 6 0.000000 0.000000 0.000000 -0.004741 0.000000 0.037966
#
#
# Mechanical properties :
#
#
# Convention : Reuss Voigt Hill
#
# Bulk Modulus (GPa) = 25.13922 41.73995 33.43958
# Shear Modulus (GPa) = 22.14838 31.74506 26.94672
#
# Velocity S-wave (km/s) = 3.18861 3.81741 3.51709
# Velocity P-wave (km/s) = 5.00964 6.21216 5.64303
#
# Compressibility (1/GPa) = 0.03977849
#
# Stress axis : x y z
#
# Youngs Moduli (GPa) = 75.64089 54.43645 76.63362
#
# Poissons Ratio (x) = -0.00745 0.21696
# Poissons Ratio (y) = -0.01035 -0.02021
# Poissons Ratio (z) = 0.21415 -0.01436
#
# Static dielectric constant tensor:
#      x y z
#    x 1.893080 0.000000 0.006850 
#    y 0.000000 1.815590 0.000000 
#    z 0.006850 0.000000 1.800720 
# 
# From -- ./inp_files/61470.got.cif
#   From: 2010.05.17/outbox.cif.g08.bks.cpg/sg15_31_cif.got.tgz:61470.got - 2010.06.03 18:47:42.
