data_PCOD9256917
_publ_section_title
;
Structure prediction by ZEFSAII (Michael W. Deem and Ramdas Pophale) SiO2 
 PCOD9256917
Probable space group: C 2/C
;
_chemical_formula_sum "Si O2"
_cell_formula_units_Z 64
_cell_length_a 10.673012
_cell_length_b 21.987475
_cell_length_c 12.206682
_cell_angle_alpha 90.000000
_cell_angle_beta 98.007366
_cell_angle_gamma 90.000000
_cell_volume 2836.644503
_symmetry_space_group_name_H-M "C 2/C"
_symmetry_group_IT_number 15
_symmetry_cell_setting 'monoclinic'
loop_
_space_group_symop_operation_xyz
x,y,z
-x,y,1/2-z
-x,-y,-z
x,-y,1/2+z
1/2+x,1/2+y,z
1/2-x,1/2+y,1/2-z
1/2-x,1/2-y,-z
1/2+x,1/2-y,1/2+z
loop_
_atom_site_type_symbol
_atom_site_label
_atom_site_fract_x
_atom_site_fract_y
_atom_site_fract_z
Si Si1 0.798665 0.429781 0.848410
Si Si2 0.895594 0.637822 0.567331
Si Si3 0.866930 0.100858 0.690604
Si Si4 0.648232 0.702968 0.644926
Si Si5 0.338999 0.971610 0.198840
Si Si6 0.008686 0.232225 0.077266
Si Si7 0.805993 0.189071 0.235023
Si Si8 0.144945 0.984551 0.490625
O O1 0.881368 0.475921 0.787300
O O2 0.726240 0.381227 0.765386
O O3 0.695945 0.468675 0.904157
O O4 0.876147 0.390322 0.945427
O O5 0.762977 0.668456 0.593536
O O6 0.922704 0.577940 0.643902
O O7 0.990836 0.694535 0.582063
O O8 0.868027 0.167316 0.743783
O O9 0.750741 0.069735 0.737063
O O10 0.853941 0.082622 0.562853
O O11 0.000000 0.073106 0.750000
O O12 0.532495 0.707528 0.546139
O O13 0.689578 0.770445 0.680438
O O14 0.244053 0.003721 0.099982
O O15 0.908978 0.202901 0.151986
O O16 0.141735 0.213501 0.143869
O O17 0.000000 0.000000 0.500000
#
# Coordination Sequence:
#
# PCOD9256917 Si02
#       8
#     8   8   8   8   8   8   8   8
#     4  10  18  30  48  76 112 139 172 218 275 328
#     4   9  16  33  49  72 110 140 177 218 267 324
#     4  10  19  30  47  72 104 145 172 203 268 329
#     4  10  18  33  50  74 111 137 175 228 268 312
#     4   9  19  29  47  72 105 144 172 219 263 319
#     4  10  18  30  53  78 105 145 177 223 273 315
#     4  10  19  30  50  84 105 135 181 223 270 324
#     4  10  19  30  44  71 110 143 172 211 261 335
#
# _framework density 22.561869000000002
#
# number of rings (size 3 to 8) (size 9 to 14) (size 15 to 20)
#    0.000    2.250    3.750    0.750    0.000    3.000 
#    0.000    0.000    0.000    3.000    0.000   48.125 
#   15.000    0.000    0.000    0.000    0.000    0.000 
#
# Total GULP energy -178550.654856 kJ/mol
# GULP energy per Si atom -5579.707964 kJ/mol
# Density = 2.251052 g / cm^3
# Si number density = 22.561869 Si / 1000 Ang^3
#
#
#
# Elastic Constant Matrix: (Units=GPa)
#
#
# Indices 1 2 3 4 5 6 
#
# 1 35.1900 18.7527 19.2312 0.0000 -3.5249 0.0000
# 2 18.7527 144.6220 51.0816 0.0000 -9.3405 0.0000
# 3 19.2312 51.0816 85.9925 0.0000 5.7005 0.0000
# 4 0.0000 0.0000 0.0000 325.8578 0.0000 -58.5773
# 5 -3.5249 -9.3405 5.7005 0.0000 23.5865 0.0000
# 6 0.0000 0.0000 0.0000 -58.5773 0.0000 22.6104
#
#
#
# Elastic Compliance Matrix: (Units=1/GPa)
#
#
# Indices 1 2 3 4 5 6 
#
# 1 0.033680 -0.001474 -0.007065 0.000000 0.006157 0.000000
# 2 -0.001474 0.009384 -0.005566 0.000000 0.004841 0.000000
# 3 -0.007065 -0.005566 0.017003 0.000000 -0.007369 0.000000
# 4 0.000000 0.000000 0.000000 0.005744 0.000000 0.014881
# 5 0.006157 0.004841 -0.007369 0.000000 0.047015 0.000000
# 6 0.000000 0.000000 0.000000 0.014881 0.000000 0.082779
#
#
# Mechanical properties :
#
#
# Convention : Reuss Voigt Hill
#
# Bulk Modulus (GPa) = 31.38840 49.32617 40.35728
# Shear Modulus (GPa) = 21.32787 86.19353 53.76070
#
# Velocity S-wave (km/s) = 3.07792 6.18758 4.88670
# Velocity P-wave (km/s) = 5.15498 8.54156 7.05450
#
# Compressibility (1/GPa) = 0.03185891
#
# Stress axis : x y z
#
# Youngs Moduli (GPa) = 29.69100 106.56155 58.81155
#
# Poissons Ratio (x) = 0.15711 0.41548
# Poissons Ratio (y) = 0.04377 0.32733
# Poissons Ratio (z) = 0.20975 0.59309
#
# Static dielectric constant tensor:
#      x y z
#    x 2.455630 0.000000 -0.077710 
#    y 0.000000 1.839140 0.000000 
#    z -0.077710 0.000000 1.890880 
# 
# From -- ./inp_files/99793.got.cif
#   From: 2010.05.17/outbox.cif.g08.bks.cpg/sg15_50_cif.got.tgz:99793.got - 2010.06.03 18:47:42.
