data_PCOD9256962
_publ_section_title
;
Structure prediction by ZEFSAII (Michael W. Deem and Ramdas Pophale) SiO2 
 PCOD9256962
Probable space group: C 2/C
;
_chemical_formula_sum "Si O2"
_cell_formula_units_Z 56
_cell_length_a 8.465300
_cell_length_b 17.073746
_cell_length_c 20.335115
_cell_angle_alpha 90.000000
_cell_angle_beta 53.898729
_cell_angle_gamma 90.000000
_cell_volume 2374.743462
_symmetry_space_group_name_H-M "C 2/C"
_symmetry_group_IT_number 15
_symmetry_cell_setting 'monoclinic'
loop_
_space_group_symop_operation_xyz
x,y,z
-x,y,1/2-z
-x,-y,-z
x,-y,1/2+z
1/2+x,1/2+y,z
1/2-x,1/2+y,1/2-z
1/2-x,1/2-y,-z
1/2+x,1/2-y,1/2+z
loop_
_atom_site_type_symbol
_atom_site_label
_atom_site_fract_x
_atom_site_fract_y
_atom_site_fract_z
Si Si1 0.207406 0.263065 0.740189
Si Si2 0.257183 0.526292 0.505105
Si Si3 0.709130 0.465262 0.866610
Si Si4 0.477998 0.725221 0.590795
Si Si5 0.519073 0.901304 0.957103
Si Si6 0.781635 0.937947 0.777390
Si Si7 0.671902 0.704341 0.418491
O O1 0.256516 0.347900 0.759333
O O2 0.368364 0.255818 0.642386
O O3 0.000000 0.260735 0.750000
O O4 0.175640 0.208805 0.812699
O O5 0.242999 0.524280 0.586970
O O6 0.474043 0.542218 0.426344
O O7 0.111292 0.584351 0.504973
O O8 0.193982 0.439324 0.495306
O O9 0.767827 0.483376 0.777851
O O10 0.776744 0.378096 0.873279
O O11 0.447165 0.813241 0.571847
O O12 0.511059 0.682155 0.513169
O O13 0.682467 0.735979 0.580198
O O14 0.639931 0.951015 0.873191
O O15 0.000000 0.951277 0.750000
#
# Coordination Sequence:
#
# PCOD9256962 Si02
#       7
#     8   8   8   8   8   8   8
#     4   8  16  28  48  73  96 126 166 213 253 290
#     4  10  20  32  50  72 106 132 162 210 250 304
#     4  10  19  33  51  77 100 133 170 209 257 295
#     4   9  16  29  51  76 100 128 169 210 253 303
#     4  10  19  33  51  77 100 133 170 209 257 295
#     4  10  18  30  50  73 100 124 172 219 251 288
#     4   9  16  29  51  76 100 128 169 210 253 303
#
# _framework density 23.581495
#
# number of rings (size 3 to 8) (size 9 to 14) (size 15 to 20)
#    0.000    2.571    2.857    0.000    2.000    0.000 
#    0.000    0.714    0.000   10.286    0.000    0.000 
#    0.000    0.000    0.000    0.000    0.000    0.000 
#
# Total GULP energy -155906.267700 kJ/mol
# GULP energy per Si atom -5568.080989 kJ/mol
# Density = 2.352782 g / cm^3
# Si number density = 23.581495 Si / 1000 Ang^3
#
#
#
# Elastic Constant Matrix: (Units=GPa)
#
#
# Indices 1 2 3 4 5 6 
#
# 1 49.2889 2.8516 12.1875 0.0001 10.0773 -0.0002
# 2 2.8516 22.8079 15.6366 0.0000 5.4767 -0.0001
# 3 12.1875 15.6366 188.0979 0.0000 38.7273 0.0000
# 4 0.0001 0.0000 0.0000 24.6990 0.0000 0.7756
# 5 10.0773 5.4767 38.7273 0.0000 33.5941 0.0001
# 6 -0.0002 -0.0001 0.0000 0.7756 0.0001 10.3137
#
#
#
# Elastic Compliance Matrix: (Units=1/GPa)
#
#
# Indices 1 2 3 4 5 6 
#
# 1 0.021645 -0.001190 -0.000009 0.000000 -0.006289 0.000000
# 2 -0.001190 0.046994 -0.003049 0.000000 -0.003789 0.000000
# 3 -0.000009 -0.003049 0.007169 0.000000 -0.007765 0.000000
# 4 0.000000 0.000000 0.000000 0.040583 0.000000 -0.003052
# 5 -0.006289 -0.003789 -0.007765 0.000000 0.041223 0.000000
# 6 0.000000 0.000000 0.000000 -0.003052 0.000000 0.097188
#
#
# Mechanical properties :
#
#
# Convention : Reuss Voigt Hill
#
# Bulk Modulus (GPa) = 14.85627 35.72734 25.29181
# Shear Modulus (GPa) = 17.49868 29.02264 23.26066
#
# Velocity S-wave (km/s) = 2.72702 3.51199 3.14410
# Velocity P-wave (km/s) = 4.02854 5.62396 4.89173
#
# Compressibility (1/GPa) = 0.06731164
#
# Stress axis : x y z
#
# Youngs Moduli (GPa) = 46.19924 21.27950 139.48695
#
# Poissons Ratio (x) = 0.02533 0.00121
# Poissons Ratio (y) = 0.05498 0.42535
# Poissons Ratio (z) = 0.00040 0.06489
#
# Static dielectric constant tensor:
#      x y z
#    x 1.928740 0.000000 -0.028430 
#    y 0.000000 1.936680 0.000000 
#    z -0.028430 0.000000 2.022020 
# 
# From -- ./inp_files/192886.got.cif
#   From: 2010.05.17/outbox.cif.g08.bks.cpg/sg15_97_cif.got.tgz:192886.got - 2010.06.03 18:47:42.
