data_PCOD9256145
_publ_section_title
;
Structure prediction by ZEFSAII (Michael W. Deem and Ramdas Pophale) SiO2 
 PCOD9256145
Probable space group: C 2/C
;
_chemical_formula_sum "Si O2"
_cell_formula_units_Z 60
_cell_length_a 17.135806
_cell_length_b 9.577966
_cell_length_c 25.604375
_cell_angle_alpha 90.000000
_cell_angle_beta 48.672095
_cell_angle_gamma 90.000000
_cell_volume 3155.722088
_symmetry_space_group_name_H-M "C 2/C"
_symmetry_group_IT_number 15
_symmetry_cell_setting 'monoclinic'
loop_
_space_group_symop_operation_xyz
x,y,z
-x,y,1/2-z
-x,-y,-z
x,-y,1/2+z
1/2+x,1/2+y,z
1/2-x,1/2+y,1/2-z
1/2-x,1/2-y,-z
1/2+x,1/2-y,1/2+z
loop_
_atom_site_type_symbol
_atom_site_label
_atom_site_fract_x
_atom_site_fract_y
_atom_site_fract_z
Si Si1 0.054152 0.351659 0.034490
Si Si2 0.000000 0.086492 0.250000
Si Si3 0.115280 0.584965 0.396403
Si Si4 0.454046 0.390337 0.887288
Si Si5 0.263902 0.008776 0.496282
Si Si6 0.973177 0.796385 0.149412
Si Si7 0.300171 0.767622 0.904921
Si Si8 0.189216 0.898773 0.197712
O O1 0.015339 0.213869 0.080409
O O2 0.957515 0.450159 0.065829
O O3 0.118631 0.341816 0.951883
O O4 0.129350 0.430118 0.041866
O O5 0.990625 0.154245 0.312297
O O6 0.899926 0.986892 0.292607
O O7 0.060097 0.691515 0.381284
O O8 0.223061 0.514713 0.330145
O O9 0.329715 0.407485 0.947005
O O10 0.494577 0.546586 0.880629
O O11 0.258541 0.083112 0.442383
O O12 0.255645 0.142958 0.538166
O O13 0.870826 0.824247 0.229005
O O14 0.076221 0.740541 0.134712
O O15 0.277722 0.723966 0.855999
#
# Coordination Sequence:
#
# PCOD9256145 Si02
#       8
#     8   4   8   8   8   8   8   8
#     4  11  22  38  56  86 126 155 199 246 313 358
#     4  10  18  38  60  82 114 154 204 236 300 372
#     4  11  24  38  58  85 122 161 197 249 304 371
#     4  10  21  36  62  87 117 161 197 252 301 360
#     4  10  18  32  61  90 116 144 201 250 294 343
#     4  10  21  39  60  86 121 159 204 248 298 366
#     4  10  17  34  62  91 111 151 206 248 288 355
#     4  11  19  37  63  87 113 163 203 244 307 369
#
# _framework density 19.013079999999999
#
# number of rings (size 3 to 8) (size 9 to 14) (size 15 to 20)
#    0.000    1.600    6.667    0.400    0.000    2.667 
#    0.000    2.667    0.000    0.000    0.000    0.000 
#    0.000    0.000    0.000    0.000    0.000    0.000 
#
# Total GULP energy -167076.942778 kJ/mol
# GULP energy per Si atom -5569.231426 kJ/mol
# Density = 1.896980 g / cm^3
# Si number density = 19.013080 Si / 1000 Ang^3
#
#
#
# Elastic Constant Matrix: (Units=GPa)
#
#
# Indices 1 2 3 4 5 6 
#
# 1 33.2808 17.3170 2.0404 0.0000 -3.1164 0.0000
# 2 17.3170 36.3643 20.1369 0.0000 8.6848 0.0001
# 3 2.0404 20.1369 64.4444 0.0000 0.1998 0.0000
# 4 0.0000 0.0000 0.0000 19.0568 0.0000 5.6207
# 5 -3.1164 8.6848 0.1998 0.0000 25.7179 0.0000
# 6 0.0000 0.0001 0.0000 5.6207 0.0000 28.4705
#
#
#
# Elastic Compliance Matrix: (Units=1/GPa)
#
#
# Indices 1 2 3 4 5 6 
#
# 1 0.047000 -0.030651 0.008040 0.000000 0.015983 0.000000
# 2 -0.030651 0.056779 -0.016701 0.000000 -0.022758 0.000000
# 3 0.008040 -0.016701 0.020461 0.000000 0.006455 0.000000
# 4 0.000000 0.000000 0.000000 0.055719 0.000000 -0.011000
# 5 0.015983 -0.022758 0.006455 0.000000 0.048455 0.000000
# 6 0.000000 0.000000 0.000000 -0.011000 0.000000 0.037296
#
#
# Mechanical properties :
#
#
# Convention : Reuss Voigt Hill
#
# Bulk Modulus (GPa) = 21.92200 23.67534 22.79867
# Shear Modulus (GPa) = 13.90669 20.95539 17.43104
#
# Velocity S-wave (km/s) = 2.70743 3.32348 3.03114
# Velocity P-wave (km/s) = 4.61828 5.21598 4.92621
#
# Compressibility (1/GPa) = 0.04561627
#
# Stress axis : x y z
#
# Youngs Moduli (GPa) = 21.27678 17.61212 48.87309
#
# Poissons Ratio (x) = 0.53983 -0.39293
# Poissons Ratio (y) = 0.65215 0.81622
# Poissons Ratio (z) = -0.17106 0.29414
#
# Static dielectric constant tensor:
#      x y z
#    x 1.687800 0.000000 0.024450 
#    y 0.000000 1.650410 0.000000 
#    z 0.024450 0.000000 1.765930 
# 
# From -- ./inp_files/298371.got.cif
#   From: 2010.05.17/outbox.cif.g08.bks.cpg/sg15_150_cif.got.tgz:298371.got - 2010.06.03 18:47:42.
