data_PCOD9256014
_publ_section_title
;
Structure prediction by ZEFSAII (Michael W. Deem and Ramdas Pophale) SiO2 
 PCOD9256014
Probable space group: C 2/C
;
_chemical_formula_sum "Si O2"
_cell_formula_units_Z 56
_cell_length_a 20.290065
_cell_length_b 21.243036
_cell_length_c 8.407347
_cell_angle_alpha 90.000000
_cell_angle_beta 135.495784
_cell_angle_gamma 90.000000
_cell_volume 2540.114615
_symmetry_space_group_name_H-M "C 2/C"
_symmetry_group_IT_number 15
_symmetry_cell_setting 'monoclinic'
loop_
_space_group_symop_operation_xyz
x,y,z
-x,y,1/2-z
-x,-y,-z
x,-y,1/2+z
1/2+x,1/2+y,z
1/2-x,1/2+y,1/2-z
1/2-x,1/2-y,-z
1/2+x,1/2-y,1/2+z
loop_
_atom_site_type_symbol
_atom_site_label
_atom_site_fract_x
_atom_site_fract_y
_atom_site_fract_z
Si Si1 0.190954 0.737123 0.664636
Si Si2 0.622583 0.278798 0.236122
Si Si3 0.761231 0.037799 0.870307
Si Si4 0.100012 0.652501 0.085761
Si Si5 0.460896 0.062862 0.006679
Si Si6 0.287021 0.594411 0.568794
Si Si7 0.229217 0.647418 0.010900
O O1 0.282453 0.727825 0.709539
O O2 0.114774 0.748661 0.398910
O O3 0.205956 0.799846 0.794177
O O4 0.186811 0.680151 0.779669
O O5 0.567624 0.225819 0.041142
O O6 0.629925 0.353207 0.287273
O O7 0.649083 0.048399 0.680484
O O8 0.789646 0.063602 0.747714
O O9 0.788279 0.086930 0.056887
O O10 0.789255 0.966049 0.955476
O O11 0.188449 0.631373 0.355753
O O12 0.148426 0.635460 0.001531
O O13 0.009670 0.614691 0.981857
O O14 0.500000 0.073535 0.250000
O O15 0.500000 0.000000 0.000000
#
# Coordination Sequence:
#
# PCOD9256014 Si02
#       7
#     8   8   8   8   8   8   8
#     4   9  16  29  51  70  91 121 167 220 263 306
#     4  10  17  34  53  69  90 125 182 221 264 300
#     4  12  23  33  49  69 106 136 178 214 259 316
#     4  11  20  34  51  68  92 136 185 218 259 298
#     4  12  25  37  48  66 102 148 186 215 248 306
#     4  12  20  34  49  70  98 139 173 219 261 311
#     4  10  19  30  48  73  93 127 174 211 263 310
#
# _framework density 22.046250000000001
#
# number of rings (size 3 to 8) (size 9 to 14) (size 15 to 20)
#    0.000    1.143    8.571    0.857    2.000    0.000 
#    0.000    0.000    0.000    0.000    0.000    0.000 
#    0.000    0.000    0.000   11.571    1.429    0.429 
#
# Total GULP energy -155891.525622 kJ/mol
# GULP energy per Si atom -5567.554487 kJ/mol
# Density = 2.199607 g / cm^3
# Si number density = 22.046250 Si / 1000 Ang^3
#
#
#
# Elastic Constant Matrix: (Units=GPa)
#
#
# Indices 1 2 3 4 5 6 
#
# 1 36.9872 23.6442 21.6595 0.0000 -24.8153 0.0000
# 2 23.6442 151.2665 34.9617 0.0000 -11.9188 0.0000
# 3 21.6595 34.9617 55.7081 0.0000 -32.8030 0.0000
# 4 0.0000 0.0000 0.0000 33.5272 0.0000 -13.2512
# 5 -24.8153 -11.9188 -32.8030 0.0000 31.7532 0.0000
# 6 0.0000 0.0000 0.0000 -13.2512 0.0000 23.0094
#
#
#
# Elastic Compliance Matrix: (Units=1/GPa)
#
#
# Indices 1 2 3 4 5 6 
#
# 1 0.070891 -0.010613 0.023934 0.000000 0.076143 0.000000
# 2 -0.010613 0.009700 -0.012002 0.000000 -0.017052 0.000000
# 3 0.023934 -0.012002 0.062647 0.000000 0.078918 0.000000
# 4 0.000000 0.000000 0.000000 0.038616 0.000000 0.022239
# 5 0.076143 -0.017052 0.078918 0.000000 0.166125 0.000000
# 6 0.000000 0.000000 0.000000 0.022239 0.000000 0.056268
#
#
# Mechanical properties :
#
#
# Convention : Reuss Voigt Hill
#
# Bulk Modulus (GPa) = 6.85517 44.94361 25.89939
# Shear Modulus (GPa) = 11.10529 28.57106 19.83818
#
# Velocity S-wave (km/s) = 2.24682 3.60385 3.00299
# Velocity P-wave (km/s) = 3.13802 6.14388 4.87824
#
# Compressibility (1/GPa) = 0.14587536
#
# Stress axis : x y z
#
# Youngs Moduli (GPa) = 14.10619 103.09074 15.96238
#
# Poissons Ratio (x) = 1.09410 -0.38204
# Poissons Ratio (y) = 0.14971 0.19158
# Poissons Ratio (z) = -0.33761 1.23732
#
# Static dielectric constant tensor:
#      x y z
#    x 1.780290 0.000000 0.017060 
#    y 0.000000 1.909680 0.000000 
#    z 0.017060 0.000000 1.926190 
# 
# From -- ./inp_files/63132.got.cif
#   From: 2010.05.17/outbox.cif.g08.bks.cpg/sg15_32_cif.got.tgz:63132.got - 2010.06.03 18:47:42.
