data_PCOD9256073
_publ_section_title
;
Structure prediction by ZEFSAII (Michael W. Deem and Ramdas Pophale) SiO2 
 PCOD9256073
Probable space group: C 2/C
;
_chemical_formula_sum "Si O2"
_cell_formula_units_Z 48
_cell_length_a 21.006282
_cell_length_b 27.296449
_cell_length_c 9.975712
_cell_angle_alpha 90.000000
_cell_angle_beta 28.440439
_cell_angle_gamma 90.000000
_cell_volume 2724.141250
_symmetry_space_group_name_H-M "C 2/C"
_symmetry_group_IT_number 15
_symmetry_cell_setting 'monoclinic'
loop_
_space_group_symop_operation_xyz
x,y,z
-x,y,1/2-z
-x,-y,-z
x,-y,1/2+z
1/2+x,1/2+y,z
1/2-x,1/2+y,1/2-z
1/2-x,1/2-y,-z
1/2+x,1/2-y,1/2+z
loop_
_atom_site_type_symbol
_atom_site_label
_atom_site_fract_x
_atom_site_fract_y
_atom_site_fract_z
Si Si1 0.897787 0.953427 0.319540
Si Si2 0.779357 0.151460 0.392803
Si Si3 0.224206 0.634607 0.185204
Si Si4 0.989337 0.702093 0.610027
Si Si5 0.586920 0.434837 0.715359
Si Si6 0.041978 0.209312 0.823925
O O1 0.771349 0.918132 0.550071
O O2 0.000000 0.939094 0.250000
O O3 0.860143 0.010181 0.409969
O O4 0.983496 0.943778 0.028162
O O5 0.738709 0.134250 0.319278
O O6 0.662937 0.189538 0.647810
O O7 0.804838 0.105199 0.441207
O O8 0.921413 0.177799 0.110384
O O9 0.077058 0.653333 0.426120
O O10 0.329214 0.674652 0.932640
O O11 0.000000 0.714474 0.750000
O O12 0.052915 0.744431 0.401243
O O13 0.500000 0.417820 0.750000
O O14 0.000000 0.224037 0.750000
#
# Coordination Sequence:
#
# PCOD9256073 Si02
#       6
#     8   8   8   8   8   8
#     4  10  17  34  57  78 105 133 173 216 253 308
#     4  10  19  36  54  77 108 137 170 214 261 306
#     4  10  18  35  57  76 101 143 177 202 257 320
#     4  10  22  35  53  77 106 139 174 213 258 309
#     4  10  20  31  54  86 104 128 172 222 259 293
#     4  10  19  35  55  74 101 141 178 214 256 301
#
# _framework density 17.620232000000001
#
# number of rings (size 3 to 8) (size 9 to 14) (size 15 to 20)
#    0.000    2.000    3.333    1.500    0.000    0.667 
#    3.000    0.833    0.000    0.000    0.000    0.000 
#    0.000    0.000    0.000    0.000    0.000    0.000 
#
# Total GULP energy -133800.759539 kJ/mol
# GULP energy per Si atom -5575.031647 kJ/mol
# Density = 1.758013 g / cm^3
# Si number density = 17.620232 Si / 1000 Ang^3
#
#
#
# Elastic Constant Matrix: (Units=GPa)
#
#
# Indices 1 2 3 4 5 6 
#
# 1 50.3471 24.0338 21.1070 -0.0030 4.3092 0.0006
# 2 24.0338 70.7889 13.0637 -0.0027 3.0983 0.0007
# 3 21.1070 13.0637 52.2201 -0.0024 0.1136 0.0018
# 4 -0.0030 -0.0027 -0.0024 12.2385 0.0025 12.6001
# 5 4.3092 3.0983 0.1136 0.0025 15.3534 -0.0014
# 6 0.0006 0.0007 0.0018 12.6001 -0.0014 29.1699
#
#
#
# Elastic Compliance Matrix: (Units=1/GPa)
#
#
# Indices 1 2 3 4 5 6 
#
# 1 0.027900 -0.007465 -0.009396 0.000009 -0.006255 -0.000004
# 2 -0.007465 0.016943 -0.001219 0.000004 -0.001315 -0.000002
# 3 -0.009396 -0.001219 0.023246 0.000005 0.002711 -0.000003
# 4 0.000009 0.000004 0.000005 0.147149 -0.000033 -0.063562
# 5 -0.006255 -0.001315 0.002711 -0.000033 0.067133 0.000017
# 6 -0.000004 -0.000002 -0.000003 -0.063562 0.000017 0.061738
#
#
# Mechanical properties :
#
#
# Convention : Reuss Voigt Hill
#
# Bulk Modulus (GPa) = 31.31732 32.19613 31.75672
# Shear Modulus (GPa) = 12.79062 19.02915 15.90988
#
# Velocity S-wave (km/s) = 2.69719 3.28984 3.00814
# Velocity P-wave (km/s) = 5.24517 5.72212 5.48883
#
# Compressibility (1/GPa) = 0.03193122
#
# Stress axis : x y z
#
# Youngs Moduli (GPa) = 35.84249 59.02032 43.01741
#
# Poissons Ratio (x) = 0.44057 0.40419
# Poissons Ratio (y) = 0.26755 0.05242
# Poissons Ratio (z) = 0.33677 0.07192
#
# Static dielectric constant tensor:
#      x y z
#    x 1.598940 0.000000 0.012130 
#    y 0.000000 1.627780 0.000000 
#    z 0.012130 0.000000 1.609470 
# 
# From -- ./inp_files/52730.got.cif
#   From: 2010.05.17/outbox.cif.g08.bks.cpg/sg15_27_cif.got.tgz:52730.got - 2010.06.03 18:47:42.
