data_PCOD9256033
_publ_section_title
;
Structure prediction by ZEFSAII (Michael W. Deem and Ramdas Pophale) SiO2 
 PCOD9256033
Probable space group: C 2/C
;
_chemical_formula_sum "Si O2"
_cell_formula_units_Z 64
_cell_length_a 11.460107
_cell_length_b 21.587712
_cell_length_c 22.956759
_cell_angle_alpha 90.000000
_cell_angle_beta 142.244634
_cell_angle_gamma 90.000000
_cell_volume 3477.474646
_symmetry_space_group_name_H-M "C 2/C"
_symmetry_group_IT_number 15
_symmetry_cell_setting 'monoclinic'
loop_
_space_group_symop_operation_xyz
x,y,z
-x,y,1/2-z
-x,-y,-z
x,-y,1/2+z
1/2+x,1/2+y,z
1/2-x,1/2+y,1/2-z
1/2-x,1/2-y,-z
1/2+x,1/2-y,1/2+z
loop_
_atom_site_type_symbol
_atom_site_label
_atom_site_fract_x
_atom_site_fract_y
_atom_site_fract_z
Si Si1 0.997387 0.096679 0.875583
Si Si2 0.710200 0.177055 0.981430
Si Si3 0.825158 0.214712 0.598390
Si Si4 0.778721 0.645676 0.646805
Si Si5 0.286661 0.135763 0.840581
Si Si6 0.424880 0.233050 0.390094
Si Si7 0.812342 0.983732 0.134988
Si Si8 0.294963 0.377369 0.638011
O O1 0.869799 0.097728 0.882627
O O2 0.846767 0.116575 0.765547
O O3 0.145044 0.153800 0.931033
O O4 0.108035 0.036135 0.897063
O O5 0.758807 0.151492 0.936730
O O6 0.486767 0.162301 0.900037
O O7 0.750000 0.250000 0.000000
O O8 0.807554 0.147398 0.076803
O O9 0.810371 0.186767 0.656567
O O10 0.619031 0.242828 0.503469
O O11 0.997123 0.258890 0.645197
O O12 0.723631 0.712502 0.653512
O O13 0.000000 0.632318 0.750000
O O14 0.308908 0.073556 0.888089
O O15 0.339537 0.168266 0.377877
O O16 0.000000 0.984405 0.250000
O O17 0.726333 0.051547 0.106818
O O18 0.500000 0.376151 0.750000
#
# Coordination Sequence:
#
# PCOD9256033 Si02
#       8
#     8   8   8   8   8   8   8   8
#     4   9  18  33  57  78 111 145 186 238 281 325
#     4  12  23  33  53  86 116 145 187 232 278 341
#     4   9  17  30  48  77 109 141 174 227 273 323
#     4  11  20  34  54  83 112 147 187 232 285 331
#     4  10  17  34  54  83 111 137 189 236 275 333
#     4  10  19  31  50  76 113 146 181 219 278 337
#     4   8  18  35  57  81 108 145 186 234 283 323
#     4  11  22  38  55  80 115 151 183 230 286 336
#
# _framework density 18.404159
#
# number of rings (size 3 to 8) (size 9 to 14) (size 15 to 20)
#    0.000    2.000    3.750    1.500    0.000    0.500 
#    0.000    1.875    0.000    0.000    3.250    0.000 
#    3.750    0.000    0.000    0.000    0.000    0.000 
#
# Total GULP energy -178278.910027 kJ/mol
# GULP energy per Si atom -5571.215938 kJ/mol
# Density = 1.836227 g / cm^3
# Si number density = 18.404159 Si / 1000 Ang^3
#
#
#
# Elastic Constant Matrix: (Units=GPa)
#
#
# Indices 1 2 3 4 5 6 
#
# 1 126.6811 42.5214 10.5469 0.0000 -11.3213 0.0000
# 2 42.5214 100.7510 3.3401 0.0000 -0.8960 0.0000
# 3 10.5469 3.3401 48.2027 0.0002 -9.0193 0.0001
# 4 0.0000 0.0000 0.0002 9.4178 0.0001 -3.2777
# 5 -11.3213 -0.8960 -9.0193 0.0001 33.5015 0.0000
# 6 0.0000 0.0000 0.0001 -3.2777 0.0000 21.8306
#
#
#
# Elastic Compliance Matrix: (Units=1/GPa)
#
#
# Indices 1 2 3 4 5 6 
#
# 1 0.009586 -0.003978 -0.001301 0.000000 0.002783 0.000000
# 2 -0.003978 0.011599 -0.000134 0.000000 -0.001070 0.000000
# 3 -0.001301 -0.000134 0.022068 0.000000 0.005498 0.000000
# 4 0.000000 0.000000 0.000000 0.112036 0.000000 0.016821
# 5 0.002783 -0.001070 0.005498 0.000000 0.032241 0.000000
# 6 0.000000 0.000000 0.000000 0.016821 0.000000 0.048333
#
#
# Mechanical properties :
#
#
# Convention : Reuss Voigt Hill
#
# Bulk Modulus (GPa) = 30.83705 43.16129 36.99917
# Shear Modulus (GPa) = 19.41760 27.56509 23.49135
#
# Velocity S-wave (km/s) = 3.25170 3.87429 3.57657
# Velocity P-wave (km/s) = 5.55787 6.59669 6.09944
#
# Compressibility (1/GPa) = 0.03242853
#
# Stress axis : x y z
#
# Youngs Moduli (GPa) = 104.31816 86.21274 45.31364
#
# Poissons Ratio (x) = 0.34294 0.05896
# Poissons Ratio (y) = 0.41496 0.00605
# Poissons Ratio (z) = 0.13573 0.01152
#
# Static dielectric constant tensor:
#      x y z
#    x 1.674680 0.000000 -0.012380 
#    y 0.000000 1.653800 0.000000 
#    z -0.012380 0.000000 1.677140 
# 
# From -- ./inp_files/270850.got.cif
#   From: 2010.05.17/outbox.cif.g08.bks.cpg/sg15_136_cif.got.tgz:270850.got - 2010.06.03 18:47:42.
