data_PCOD9256750
_publ_section_title
;
Structure prediction by ZEFSAII (Michael W. Deem and Ramdas Pophale) SiO2 
 PCOD9256750
Probable space group: C 2/C
;
_chemical_formula_sum "Si O2"
_cell_formula_units_Z 40
_cell_length_a 22.930633
_cell_length_b 16.175090
_cell_length_c 8.177639
_cell_angle_alpha 90.000000
_cell_angle_beta 46.979327
_cell_angle_gamma 90.000000
_cell_volume 2217.542599
_symmetry_space_group_name_H-M "C 2/C"
_symmetry_group_IT_number 15
_symmetry_cell_setting 'monoclinic'
loop_
_space_group_symop_operation_xyz
x,y,z
-x,y,1/2-z
-x,-y,-z
x,-y,1/2+z
1/2+x,1/2+y,z
1/2-x,1/2+y,1/2-z
1/2-x,1/2-y,-z
1/2+x,1/2-y,1/2+z
loop_
_atom_site_type_symbol
_atom_site_label
_atom_site_fract_x
_atom_site_fract_y
_atom_site_fract_z
Si Si1 0.807140 0.126055 0.950347
Si Si2 0.854404 0.302841 0.847910
Si Si3 0.171802 0.399933 0.289369
Si Si4 0.005306 0.404916 0.435875
Si Si5 0.262090 0.523416 0.324839
O O1 0.717332 0.164543 0.129113
O O2 0.815790 0.075040 0.099313
O O3 0.862736 0.204650 0.817621
O O4 0.805778 0.057647 0.811060
O O5 0.933962 0.352882 0.654261
O O6 0.822686 0.326945 0.089493
O O7 0.184619 0.483646 0.377236
O O8 0.090107 0.382268 0.351404
O O9 0.234951 0.419053 0.026274
O O10 0.000000 0.396716 0.250000
O O11 0.000000 0.500000 0.500000
#
# Coordination Sequence:
#
# PCOD9256750 Si02
#       5
#     8   8   8   8   8
#     4   9  18  33  49  72 101 131 168 206 247 294
#     4  10  20  31  47  73 106 133 162 206 248 297
#     4  10  18  29  47  72  98 128 163 199 243 294
#     4  12  21  31  48  71 102 135 164 195 243 302
#     4   9  17  32  52  72  98 134 169 200 243 298
#
# _framework density 18.037986
#
# number of rings (size 3 to 8) (size 9 to 14) (size 15 to 20)
#    0.000    2.000    0.000    7.800    0.000    0.800 
#    0.000    4.000    0.000    0.000    0.000    9.800 
#    0.000    0.000    0.000    0.000    0.000    0.000 
#
# Total GULP energy -111383.087059 kJ/mol
# GULP energy per Si atom -5569.154353 kJ/mol
# Density = 1.799693 g / cm^3
# Si number density = 18.037986 Si / 1000 Ang^3
#
#
#
# Elastic Constant Matrix: (Units=GPa)
#
#
# Indices 1 2 3 4 5 6 
#
# 1 51.9377 28.9464 25.7933 0.0000 19.7835 0.0000
# 2 28.9464 130.4001 46.5718 0.0000 5.4081 0.0000
# 3 25.7933 46.5718 46.0078 0.0000 15.3793 0.0000
# 4 0.0000 0.0000 0.0000 25.9171 0.0000 -7.7202
# 5 19.7835 5.4081 15.3793 0.0000 28.0934 0.0000
# 6 0.0000 0.0000 0.0000 -7.7202 0.0000 18.8035
#
#
#
# Elastic Compliance Matrix: (Units=1/GPa)
#
#
# Indices 1 2 3 4 5 6 
#
# 1 0.031968 -0.003157 -0.009063 0.000000 -0.016943 0.000000
# 2 -0.003157 0.013008 -0.013836 0.000000 0.007293 0.000000
# 3 -0.009063 -0.013836 0.046265 0.000000 -0.016281 0.000000
# 4 0.000000 0.000000 0.000000 0.043961 0.000000 0.018049
# 5 -0.016943 0.007293 -0.016281 0.000000 0.055036 0.000000
# 6 0.000000 0.000000 0.000000 0.018049 0.000000 0.060592
#
#
# Mechanical properties :
#
#
# Convention : Reuss Voigt Hill
#
# Bulk Modulus (GPa) = 25.55649 47.88540 36.72094
# Shear Modulus (GPa) = 15.82357 23.03174 19.42766
#
# Velocity S-wave (km/s) = 2.96503 3.57718 3.28539
# Velocity P-wave (km/s) = 5.09125 6.60804 5.89860
#
# Compressibility (1/GPa) = 0.03912901
#
# Stress axis : x y z
#
# Youngs Moduli (GPa) = 31.28160 76.87283 21.61481
#
# Poissons Ratio (x) = 0.24267 0.19589
# Poissons Ratio (y) = 0.09875 0.29907
# Poissons Ratio (z) = 0.28350 1.06362
#
# Static dielectric constant tensor:
#      x y z
#    x 1.704730 0.000000 0.007820 
#    y 0.000000 1.646910 0.000000 
#    z 0.007820 0.000000 1.620870 
# 
# From -- ./inp_files/37972.got.cif
#   From: 2010.05.17/outbox.cif.g08.bks.cpg/sg15_19_cif.got.tgz:37972.got - 2010.06.03 18:47:42.
