data_PCOD9256144
_publ_section_title
;
Structure prediction by ZEFSAII (Michael W. Deem and Ramdas Pophale) SiO2 
 PCOD9256144
Probable space group: C 2/C
;
_chemical_formula_sum "Si O2"
_cell_formula_units_Z 48
_cell_length_a 10.936289
_cell_length_b 15.333642
_cell_length_c 26.343440
_cell_angle_alpha 90.000000
_cell_angle_beta 150.283461
_cell_angle_gamma 90.000000
_cell_volume 2189.852817
_symmetry_space_group_name_H-M "C 2/C"
_symmetry_group_IT_number 15
_symmetry_cell_setting 'monoclinic'
loop_
_space_group_symop_operation_xyz
x,y,z
-x,y,1/2-z
-x,-y,-z
x,-y,1/2+z
1/2+x,1/2+y,z
1/2-x,1/2+y,1/2-z
1/2-x,1/2-y,-z
1/2+x,1/2-y,1/2+z
loop_
_atom_site_type_symbol
_atom_site_label
_atom_site_fract_x
_atom_site_fract_y
_atom_site_fract_z
Si Si1 0.500000 0.543657 0.750000
Si Si2 0.497363 0.056738 0.889121
Si Si3 0.674952 0.598327 0.395100
Si Si4 0.107936 0.364730 0.687479
Si Si5 0.500000 0.067581 0.250000
Si Si6 0.297246 0.748158 0.866128
Si Si7 0.815270 0.064661 0.906587
O O1 0.726306 0.593369 0.805100
O O2 0.371334 0.481961 0.660672
O O3 0.611087 0.086540 0.876407
O O4 0.456582 0.953080 0.866289
O O5 0.679698 0.074535 0.001651
O O6 0.397888 0.631006 0.306329
O O7 0.809431 0.675925 0.412730
O O8 0.965828 0.374013 0.688679
O O9 0.080278 0.283959 0.640758
O O10 0.281391 0.996318 0.174081
O O11 0.410858 0.656477 0.922431
O O12 0.000000 0.735269 0.750000
O O13 0.000000 0.000000 0.000000
#
# Coordination Sequence:
#
# PCOD9256144 Si02
#       7
#     4   8   8   8   4   8   8
#     4  10  18  33  60  91 124 170 212 256 323 361
#     4  10  20  34  59  96 127 167 214 264 313 381
#     4  10  17  34  62  89 126 162 218 261 306 379
#     4   9  19  35  61  96 121 171 210 265 322 364
#     4  10  20  39  62  89 134 158 214 270 311 381
#     4  10  19  38  63  92 119 167 217 255 314 378
#     4  11  23  39  63  93 121 172 218 255 322 380
#
# _framework density 21.919280000000001
#
# number of rings (size 3 to 8) (size 9 to 14) (size 15 to 20)
#    0.000    2.000    5.000    1.500    0.000    0.667 
#    0.000    3.333    0.000   11.000   10.833    0.000 
#    0.000    0.000    0.000    0.000    0.000    0.000 
#
# Total GULP energy -133924.961486 kJ/mol
# GULP energy per Si atom -5580.206729 kJ/mol
# Density = 2.186939 g / cm^3
# Si number density = 21.919280 Si / 1000 Ang^3
#
#
#
# Elastic Constant Matrix: (Units=GPa)
#
#
# Indices 1 2 3 4 5 6 
#
# 1 105.0133 43.5416 19.1266 -0.0002 -17.3972 -0.0001
# 2 43.5416 95.2813 47.4864 0.0001 -18.7697 0.0000
# 3 19.1266 47.4864 80.6298 -0.0001 -25.2114 -0.0001
# 4 -0.0002 0.0001 -0.0001 24.8401 -0.0001 -8.5335
# 5 -17.3972 -18.7697 -25.2114 -0.0001 31.5668 -0.0001
# 6 -0.0001 0.0000 -0.0001 -8.5335 -0.0001 30.1319
#
#
#
# Elastic Compliance Matrix: (Units=1/GPa)
#
#
# Indices 1 2 3 4 5 6 
#
# 1 0.012327 -0.005619 0.001952 0.000000 0.005012 0.000000
# 2 -0.005619 0.017561 -0.008948 0.000000 0.000199 0.000000
# 3 0.001952 -0.008948 0.021168 0.000000 0.012662 0.000000
# 4 0.000000 0.000000 0.000000 0.044596 0.000000 0.012630
# 5 0.005012 0.000199 0.012662 0.000000 0.044672 0.000000
# 6 0.000000 0.000000 0.000000 0.012630 0.000000 0.036764
#
#
# Mechanical properties :
#
#
# Convention : Reuss Voigt Hill
#
# Bulk Modulus (GPa) = 38.71753 55.69262 47.20507
# Shear Modulus (GPa) = 23.70487 28.69242 26.19864
#
# Velocity S-wave (km/s) = 3.29213 3.62194 3.46096
# Velocity P-wave (km/s) = 5.67035 6.55397 6.12810
#
# Compressibility (1/GPa) = 0.02582809
#
# Stress axis : x y z
#
# Youngs Moduli (GPa) = 81.12217 56.94294 47.24115
#
# Poissons Ratio (x) = 0.31995 -0.09222
# Poissons Ratio (y) = 0.45581 0.42269
# Poissons Ratio (z) = -0.15836 0.50950
#
# Static dielectric constant tensor:
#      x y z
#    x 1.882230 0.000000 0.046800 
#    y 0.000000 1.792210 0.000000 
#    z 0.046800 0.000000 1.880760 
# 
# From -- ./inp_files/293013.got.cif
#   From: 2010.05.17/outbox.cif.g08.bks.cpg/sg15_147_cif.got.tgz:293013.got - 2010.06.03 18:47:42.
