data_PCOD9256303
_publ_section_title
;
Structure prediction by ZEFSAII (Michael W. Deem and Ramdas Pophale) SiO2 
 PCOD9256303
Probable space group: C 2/C
;
_chemical_formula_sum "Si O2"
_cell_formula_units_Z 48
_cell_length_a 16.127452
_cell_length_b 9.487818
_cell_length_c 23.437994
_cell_angle_alpha 90.000000
_cell_angle_beta 131.244641
_cell_angle_gamma 90.000000
_cell_volume 2696.581051
_symmetry_space_group_name_H-M "C 2/C"
_symmetry_group_IT_number 15
_symmetry_cell_setting 'monoclinic'
loop_
_space_group_symop_operation_xyz
x,y,z
-x,y,1/2-z
-x,-y,-z
x,-y,1/2+z
1/2+x,1/2+y,z
1/2-x,1/2+y,1/2-z
1/2-x,1/2-y,-z
1/2+x,1/2-y,1/2+z
loop_
_atom_site_type_symbol
_atom_site_label
_atom_site_fract_x
_atom_site_fract_y
_atom_site_fract_z
Si Si1 0.311843 0.521686 0.322656
Si Si2 0.166990 0.687275 0.166126
Si Si3 0.040936 0.081808 0.461545
Si Si4 0.094037 0.641145 0.438567
Si Si5 0.593530 0.898075 0.516285
Si Si6 0.778474 0.120888 0.436752
O O1 0.239149 0.595810 0.241830
O O2 0.301400 0.352283 0.318578
O O3 0.442187 0.553552 0.373138
O O4 0.279288 0.587787 0.369799
O O5 0.177270 0.629768 0.106020
O O6 0.036732 0.669446 0.122873
O O7 0.050178 0.245579 0.478906
O O8 0.000000 0.000000 0.500000
O O9 0.159358 0.011695 0.504978
O O10 0.125234 0.486237 0.475515
O O11 0.145533 0.748852 0.508299
O O12 0.159097 0.654633 0.408730
O O13 0.500000 0.000000 0.500000
#
# Coordination Sequence:
#
# PCOD9256303 Si02
#       6
#     8   8   8   8   8   8
#     4  11  22  35  59  83 116 150 188 236 287 335
#     4  11  22  36  56  87 114 149 190 236 284 344
#     4  10  17  36  58  80 109 147 189 239 278 325
#     4  10  22  37  61  86 112 148 198 234 287 341
#     4  10  19  34  58  85 110 140 198 239 271 334
#     4  10  20  40  60  82 113 154 188 241 286 336
#
# _framework density 17.800318999999998
#
# number of rings (size 3 to 8) (size 9 to 14) (size 15 to 20)
#    0.000    1.667    5.000    3.000    7.000    1.333 
#    0.000    0.000    0.000    1.000    0.000    0.000 
#    0.000    0.000    0.000    0.000    0.000    0.000 
#
# Total GULP energy -133675.656931 kJ/mol
# GULP energy per Si atom -5569.819039 kJ/mol
# Density = 1.775980 g / cm^3
# Si number density = 17.800319 Si / 1000 Ang^3
#
#
#
# Elastic Constant Matrix: (Units=GPa)
#
#
# Indices 1 2 3 4 5 6 
#
# 1 42.4414 -3.0444 1.9260 0.0000 6.0104 0.0000
# 2 -3.0444 143.8669 43.0194 0.0000 -0.6777 0.0000
# 3 1.9260 43.0194 110.1555 0.0000 10.3584 0.0000
# 4 0.0000 0.0000 0.0000 36.3707 0.0000 4.1274
# 5 6.0104 -0.6777 10.3584 0.0000 16.0766 0.0000
# 6 0.0000 0.0000 0.0000 4.1274 0.0000 16.4673
#
#
#
# Elastic Compliance Matrix: (Units=1/GPa)
#
#
# Indices 1 2 3 4 5 6 
#
# 1 0.024921 0.000392 0.000304 0.000000 -0.009497 0.000000
# 2 0.000392 0.007969 -0.003339 0.000000 0.002341 0.000000
# 3 0.000304 -0.003339 0.011071 0.000000 -0.007388 0.000000
# 4 0.000000 0.000000 0.000000 0.028300 0.000000 -0.007093
# 5 -0.009497 0.002341 -0.007388 0.000000 0.070611 0.000000
# 6 0.000000 0.000000 0.000000 -0.007093 0.000000 0.062504
#
#
# Mechanical properties :
#
#
# Convention : Reuss Voigt Hill
#
# Bulk Modulus (GPa) = 25.85642 42.25174 34.05408
# Shear Modulus (GPa) = 22.36592 30.75376 26.55984
#
# Velocity S-wave (km/s) = 3.54855 4.16108 3.86696
# Velocity P-wave (km/s) = 5.59883 6.84647 6.25384
#
# Compressibility (1/GPa) = 0.03867511
#
# Stress axis : x y z
#
# Youngs Moduli (GPa) = 40.12671 125.49234 90.32222
#
# Poissons Ratio (x) = -0.04915 -0.02749
# Poissons Ratio (y) = -0.01571 0.30158
# Poissons Ratio (z) = -0.01221 0.41902
#
# Static dielectric constant tensor:
#      x y z
#    x 1.661070 0.000000 0.001700 
#    y 0.000000 1.629830 0.000000 
#    z 0.001700 0.000000 1.613850 
# 
# From -- ./inp_files/208622.got.cif
#   From: 2010.05.17/outbox.cif.g08.bks.cpg/sg15_105_cif.got.tgz:208622.got - 2010.06.03 18:47:42.
