data_PCOD9256176
_publ_section_title
;
Structure prediction by ZEFSAII (Michael W. Deem and Ramdas Pophale) SiO2 
 PCOD9256176
Probable space group: C 2/C
;
_chemical_formula_sum "Si O2"
_cell_formula_units_Z 56
_cell_length_a 13.119384
_cell_length_b 27.192266
_cell_length_c 10.168846
_cell_angle_alpha 90.000000
_cell_angle_beta 115.369056
_cell_angle_gamma 90.000000
_cell_volume 3277.862924
_symmetry_space_group_name_H-M "C 2/C"
_symmetry_group_IT_number 15
_symmetry_cell_setting 'monoclinic'
loop_
_space_group_symop_operation_xyz
x,y,z
-x,y,1/2-z
-x,-y,-z
x,-y,1/2+z
1/2+x,1/2+y,z
1/2-x,1/2+y,1/2-z
1/2-x,1/2-y,-z
1/2+x,1/2-y,1/2+z
loop_
_atom_site_type_symbol
_atom_site_label
_atom_site_fract_x
_atom_site_fract_y
_atom_site_fract_z
Si Si1 0.557963 0.932693 0.646629
Si Si2 0.592777 0.955635 0.187442
Si Si3 0.704273 0.287426 0.626789
Si Si4 0.866293 0.803306 0.185719
Si Si5 0.028614 0.288842 0.121179
Si Si6 0.273855 0.136271 0.692304
Si Si7 0.691242 0.844812 0.589561
O O1 0.500000 0.915289 0.750000
O O2 0.463222 0.942757 0.483393
O O3 0.643145 0.893516 0.632523
O O4 0.613301 0.986037 0.704446
O O5 0.500000 0.944221 0.250000
O O6 0.699166 0.920694 0.268578
O O7 0.811055 0.250480 0.678405
O O8 0.689332 0.318006 0.485231
O O9 0.596209 0.251798 0.578298
O O10 0.720589 0.319395 0.765119
O O11 0.824961 0.839585 0.277486
O O12 0.000000 0.801728 0.250000
O O13 0.113771 0.334203 0.197006
O O14 0.000000 0.268574 0.250000
O O15 0.916711 0.309022 0.991553
O O16 0.262532 0.145327 0.530724
#
# Coordination Sequence:
#
# PCOD9256176 Si02
#       7
#     8   8   8   8   8   8   8
#     4  10  21  28  53  82 114 138 165 217 264 322
#     4  10  17  35  51  80 114 141 168 202 277 337
#     4  10  22  33  52  77 102 138 182 226 265 307
#     4  10  22  38  51  73 104 142 182 228 269 308
#     4   9  18  32  51  72 104 141 172 218 263 318
#     4  10  19  34  54  72 106 148 173 209 271 321
#     4  11  20  34  52  81 110 141 180 212 261 322
#
# _framework density 17.084301
#
# number of rings (size 3 to 8) (size 9 to 14) (size 15 to 20)
#    0.000    2.000    2.857    1.286    2.000    8.000 
#    0.000    0.000    0.000    0.000    0.000    5.000 
#    0.000    0.000    0.000    0.000    0.000    0.000 
#
# Total GULP energy -156225.937817 kJ/mol
# GULP energy per Si atom -5579.497779 kJ/mol
# Density = 1.704542 g / cm^3
# Si number density = 17.084301 Si / 1000 Ang^3
#
#
#
# Elastic Constant Matrix: (Units=GPa)
#
#
# Indices 1 2 3 4 5 6 
#
# 1 96.3528 41.1813 35.4779 0.0000 -17.2047 0.0000
# 2 41.1813 69.0251 41.9024 0.0000 -9.8620 0.0000
# 3 35.4779 41.9024 100.5754 0.0000 -21.1491 0.0000
# 4 0.0000 0.0000 0.0000 22.1407 0.0000 -3.8452
# 5 -17.2047 -9.8620 -21.1491 0.0000 24.4457 0.0000
# 6 0.0000 0.0000 0.0000 -3.8452 0.0000 11.3870
#
#
#
# Elastic Compliance Matrix: (Units=1/GPa)
#
#
# Indices 1 2 3 4 5 6 
#
# 1 0.015133 -0.007605 -0.000703 0.000000 0.006974 0.000000
# 2 -0.007605 0.023235 -0.007520 0.000000 -0.002485 0.000000
# 3 -0.000703 -0.007520 0.015380 0.000000 0.009777 0.000000
# 4 0.000000 0.000000 0.000000 0.047980 0.000000 0.016202
# 5 0.006974 -0.002485 0.009777 0.000000 0.053272 0.000000
# 6 0.000000 0.000000 0.000000 0.016202 0.000000 0.093291
#
#
# Mechanical properties :
#
#
# Convention : Reuss Voigt Hill
#
# Bulk Modulus (GPa) = 45.26738 55.89739 50.58238
# Shear Modulus (GPa) = 17.40272 21.42077 19.41175
#
# Velocity S-wave (km/s) = 3.19507 3.54478 3.37446
# Velocity P-wave (km/s) = 6.33761 7.03872 6.69735
#
# Compressibility (1/GPa) = 0.02209096
#
# Stress axis : x y z
#
# Youngs Moduli (GPa) = 66.07940 43.03840 65.02027
#
# Poissons Ratio (x) = 0.32733 0.04571
# Poissons Ratio (y) = 0.50256 0.48896
# Poissons Ratio (z) = 0.04646 0.32365
#
# Static dielectric constant tensor:
#      x y z
#    x 1.572020 0.000000 -0.025010 
#    y 0.000000 1.586660 0.000000 
#    z -0.025010 0.000000 1.594410 
# 
# From -- ./inp_files/35308.got.cif
#   From: 2010.05.17/outbox.cif.g08.bks.cpg/sg15_18_cif.got.tgz:35308.got - 2010.06.03 18:47:42.
