data_PCOD9256187
_publ_section_title
;
Structure prediction by ZEFSAII (Michael W. Deem and Ramdas Pophale) SiO2 
 PCOD9256187
Probable space group: C 2/C
;
_chemical_formula_sum "Si O2"
_cell_formula_units_Z 40
_cell_length_a 11.140660
_cell_length_b 20.016086
_cell_length_c 8.466649
_cell_angle_alpha 90.000000
_cell_angle_beta 68.468036
_cell_angle_gamma 90.000000
_cell_volume 1756.240631
_symmetry_space_group_name_H-M "C 2/C"
_symmetry_group_IT_number 15
_symmetry_cell_setting 'monoclinic'
loop_
_space_group_symop_operation_xyz
x,y,z
-x,y,1/2-z
-x,-y,-z
x,-y,1/2+z
1/2+x,1/2+y,z
1/2-x,1/2+y,1/2-z
1/2-x,1/2-y,-z
1/2+x,1/2-y,1/2+z
loop_
_atom_site_type_symbol
_atom_site_label
_atom_site_fract_x
_atom_site_fract_y
_atom_site_fract_z
Si Si1 0.630468 0.968548 0.084940
Si Si2 0.084963 0.828346 0.071753
Si Si3 0.880161 0.726666 0.700917
Si Si4 0.178487 0.876322 0.338510
Si Si5 0.479779 0.108987 0.431768
O O1 0.500000 0.955047 0.250000
O O2 0.749841 0.939832 0.124237
O O3 0.615092 0.045376 0.045648
O O4 0.609927 0.924590 0.938015
O O5 0.169379 0.872279 0.150717
O O6 0.000000 0.789641 0.250000
O O7 0.971110 0.869774 0.041824
O O8 0.155235 0.783203 0.909900
O O9 0.759801 0.690725 0.844945
O O10 0.936977 0.665057 0.572565
O O11 0.000000 0.749567 0.750000
O O12 0.500000 0.137534 0.250000
#
# Coordination Sequence:
#
# PCOD9256187 Si02
#       5
#     8   8   8   8   8
#     4  10  17  35  55  81 107 142 180 232 286 322
#     4   8  22  35  54  78 110 151 189 215 264 335
#     4  12  19  35  55  83 114 143 182 231 279 325
#     4   9  18  37  56  74 115 149 182 226 275 322
#     4  10  20  29  53  86 111 132 178 233 286 325
#
# _framework density 22.775921
#
# number of rings (size 3 to 8) (size 9 to 14) (size 15 to 20)
#    1.200    0.800    4.000    1.200    0.000    0.800 
#    0.000    0.000    0.000    4.800    0.000    0.000 
#    0.000    0.000    0.000    0.200    0.000    0.000 
#
# Total GULP energy -111393.800056 kJ/mol
# GULP energy per Si atom -5569.690003 kJ/mol
# Density = 2.272408 g / cm^3
# Si number density = 22.775921 Si / 1000 Ang^3
#
#
#
# Elastic Constant Matrix: (Units=GPa)
#
#
# Indices 1 2 3 4 5 6 
#
# 1 110.5707 30.9160 3.6026 0.0000 32.6611 0.0000
# 2 30.9160 70.4151 16.9491 0.0000 21.4466 0.0000
# 3 3.6026 16.9491 44.2574 0.0000 25.6981 0.0000
# 4 0.0000 0.0000 0.0000 32.2379 0.0000 16.6815
# 5 32.6611 21.4466 25.6981 0.0000 29.4720 0.0000
# 6 0.0000 0.0000 0.0000 16.6815 0.0000 27.2549
#
#
#
# Elastic Compliance Matrix: (Units=1/GPa)
#
#
# Indices 1 2 3 4 5 6 
#
# 1 0.021945 -0.002069 0.024819 0.000000 -0.044455 0.000000
# 2 -0.002069 0.018487 -0.000874 0.000000 -0.010398 0.000000
# 3 0.024819 -0.000874 0.073953 0.000000 -0.091352 0.000000
# 4 0.000000 0.000000 0.000000 0.045397 0.000000 -0.027785
# 5 -0.044455 -0.010398 -0.091352 0.000000 0.170416 0.000000
# 6 0.000000 0.000000 0.000000 -0.027785 0.000000 0.053697
#
#
# Mechanical properties :
#
#
# Convention : Reuss Voigt Hill
#
# Bulk Modulus (GPa) = 6.32364 36.46431 21.39397
# Shear Modulus (GPa) = 12.72729 29.37802 21.05265
#
# Velocity S-wave (km/s) = 2.36647 3.59537 3.04359
# Velocity P-wave (km/s) = 3.20147 5.76892 4.66529
#
# Compressibility (1/GPa) = 0.15813674
#
# Stress axis : x y z
#
# Youngs Moduli (GPa) = 45.56778 54.09114 13.52210
#
# Poissons Ratio (x) = 0.11193 -0.33560
# Poissons Ratio (y) = 0.09429 0.01182
# Poissons Ratio (z) = -1.13094 0.04728
#
# Static dielectric constant tensor:
#      x y z
#    x 1.940210 0.000000 -0.020430 
#    y 0.000000 1.851380 0.000000 
#    z -0.020430 0.000000 1.957040 
# 
# From -- ./inp_files/30286.got.cif
#   From: 2010.05.17/outbox.cif.g08.bks.cpg/sg15_16_cif.got.tgz:30286.got - 2010.06.03 18:47:42.
