data_PCOD9256499
_publ_section_title
;
Structure prediction by ZEFSAII (Michael W. Deem and Ramdas Pophale) SiO2 
 PCOD9256499
Probable space group: C 2/C
;
_chemical_formula_sum "Si O2"
_cell_formula_units_Z 48
_cell_length_a 7.386482
_cell_length_b 28.770320
_cell_length_c 13.857918
_cell_angle_alpha 90.000000
_cell_angle_beta 141.341113
_cell_angle_gamma 90.000000
_cell_volume 1839.668862
_symmetry_space_group_name_H-M "C 2/C"
_symmetry_group_IT_number 15
_symmetry_cell_setting 'monoclinic'
loop_
_space_group_symop_operation_xyz
x,y,z
-x,y,1/2-z
-x,-y,-z
x,-y,1/2+z
1/2+x,1/2+y,z
1/2-x,1/2+y,1/2-z
1/2-x,1/2-y,-z
1/2+x,1/2-y,1/2+z
loop_
_atom_site_type_symbol
_atom_site_label
_atom_site_fract_x
_atom_site_fract_y
_atom_site_fract_z
Si Si1 0.257438 0.547315 0.274124
Si Si2 0.427956 0.857393 0.336661
Si Si3 0.591480 0.147344 0.173803
Si Si4 0.417371 0.702292 0.074657
Si Si5 0.049276 0.541015 0.886620
Si Si6 0.086232 0.200499 0.924892
O O1 0.234407 0.597846 0.216082
O O2 0.597545 0.540257 0.447697
O O3 0.000000 0.550337 0.250000
O O4 0.133353 0.504730 0.158774
O O5 0.500000 0.859192 0.250000
O O6 0.708459 0.840012 0.509648
O O7 0.393650 0.910864 0.352949
O O8 0.201163 0.814215 0.252165
O O9 0.500000 0.147398 0.250000
O O10 0.792901 0.193282 0.245723
O O11 0.303601 0.158092 0.995930
O O12 0.250000 0.750000 0.000000
O O13 0.498214 0.694771 0.998216
O O14 0.000000 0.541406 0.750000
O O15 0.250000 0.250000 0.000000
#
# Coordination Sequence:
#
# PCOD9256499 Si02
#       6
#     8   8   8   8   8   8
#     4  10  18  26  41  64  92 125 158 191 236 290
#     4   9  18  29  44  64  93 124 156 190 239 281
#     4   9  18  29  44  64  93 124 156 190 239 281
#     4  10  18  32  49  67  93 127 158 196 235 278
#     4  10  18  26  41  64  92 125 158 191 236 290
#     4  10  20  32  47  69  95 127 160 198 233 278
#
# _framework density 26.091652
#
# number of rings (size 3 to 8) (size 9 to 14) (size 15 to 20)
#    0.000    2.333    1.667    3.000    9.333    0.000 
#    0.000    0.000    0.000    0.000    0.000    0.000 
#    0.000    8.000    0.000    0.000    0.000    0.000 
#
# Total GULP energy -133763.469335 kJ/mol
# GULP energy per Si atom -5573.477889 kJ/mol
# Density = 2.603227 g / cm^3
# Si number density = 26.091652 Si / 1000 Ang^3
#
#
#
# Elastic Constant Matrix: (Units=GPa)
#
#
# Indices 1 2 3 4 5 6 
#
# 1 78.0555 2.0748 -0.0851 0.0000 8.1138 0.0000
# 2 2.0748 224.6310 86.3958 0.0000 31.8781 0.0000
# 3 -0.0851 86.3958 188.5000 0.0000 10.5792 0.0000
# 4 0.0000 0.0000 0.0000 45.4348 0.0000 12.6729
# 5 8.1138 31.8781 10.5792 0.0000 32.7951 0.0000
# 6 0.0000 0.0000 0.0000 12.6729 0.0000 10.9199
#
#
#
# Elastic Compliance Matrix: (Units=1/GPa)
#
#
# Indices 1 2 3 4 5 6 
#
# 1 0.013180 0.000382 0.000036 0.000000 -0.003643 0.000000
# 2 0.000382 0.006171 -0.002532 0.000000 -0.005276 0.000000
# 3 0.000036 -0.002532 0.006445 0.000000 0.000373 0.000000
# 4 0.000000 0.000000 0.000000 0.032544 0.000000 -0.037768
# 5 -0.003643 -0.005276 0.000373 0.000000 0.036402 0.000000
# 6 0.000000 0.000000 0.000000 -0.037768 0.000000 0.135407
#
#
# Mechanical properties :
#
#
# Convention : Reuss Voigt Hill
#
# Bulk Modulus (GPa) = 46.37001 74.21749 60.29375
# Shear Modulus (GPa) = 20.69829 44.68338 32.69083
#
# Velocity S-wave (km/s) = 2.81960 4.14279 3.54351
# Velocity P-wave (km/s) = 5.33017 7.16870 6.31669
#
# Compressibility (1/GPa) = 0.02156566
#
# Stress axis : x y z
#
# Youngs Moduli (GPa) = 75.87247 162.05440 155.16887
#
# Poissons Ratio (x) = -0.06185 -0.00551
# Poissons Ratio (y) = -0.02896 0.39289
# Poissons Ratio (z) = -0.00269 0.41032
#
# Static dielectric constant tensor:
#      x y z
#    x 2.245660 0.000000 0.083020 
#    y 0.000000 2.231390 0.000000 
#    z 0.083020 0.000000 2.019640 
# 
# From -- ./inp_files/33103.got.cif
#   From: 2010.05.17/outbox.cif.g08.bks.cpg/sg15_17_cif.got.tgz:33103.got - 2010.06.03 18:47:42.
