data_PCOD9256364
_publ_section_title
;
Structure prediction by ZEFSAII (Michael W. Deem and Ramdas Pophale) SiO2 
 PCOD9256364
Probable space group: C 2/C
;
_chemical_formula_sum "Si O2"
_cell_formula_units_Z 56
_cell_length_a 9.774507
_cell_length_b 16.938194
_cell_length_c 21.096238
_cell_angle_alpha 90.000000
_cell_angle_beta 134.295477
_cell_angle_gamma 90.000000
_cell_volume 2499.925361
_symmetry_space_group_name_H-M "C 2/C"
_symmetry_group_IT_number 15
_symmetry_cell_setting 'monoclinic'
loop_
_space_group_symop_operation_xyz
x,y,z
-x,y,1/2-z
-x,-y,-z
x,-y,1/2+z
1/2+x,1/2+y,z
1/2-x,1/2+y,1/2-z
1/2-x,1/2-y,-z
1/2+x,1/2-y,1/2+z
loop_
_atom_site_type_symbol
_atom_site_label
_atom_site_fract_x
_atom_site_fract_y
_atom_site_fract_z
Si Si1 0.384977 0.514322 0.027912
Si Si2 0.112102 0.941495 0.722804
Si Si3 0.274666 0.684670 0.954158
Si Si4 0.101584 0.246276 0.195884
Si Si5 0.962291 0.404905 0.611792
Si Si6 0.032634 0.238118 0.600491
Si Si7 0.326702 0.235316 0.147763
O O1 0.525144 0.514139 0.133737
O O2 0.204871 0.455890 0.972102
O O3 0.574298 0.653194 0.201890
O O4 0.871323 0.644563 0.141674
O O5 0.281930 0.725894 0.795296
O O6 0.342324 0.948742 0.804794
O O7 0.000000 0.966388 0.750000
O O8 0.444954 0.694638 0.958054
O O9 0.081221 0.700040 0.851930
O O10 0.250000 0.750000 0.000000
O O11 0.295955 0.601233 0.993378
O O12 0.151825 0.248256 0.137277
O O13 0.000000 0.758463 0.250000
O O14 0.500000 0.500000 0.500000
O O15 0.030064 0.332635 0.588925
O O16 0.854990 0.220435 0.589950
#
# Coordination Sequence:
#
# PCOD9256364 Si02
#       7
#     8   8   8   8   8   8   8
#     4  12  28  44  69 106 143 181 240 294 354 422
#     4  11  22  42  74  98 139 190 240 278 353 433
#     4  12  24  39  64 101 137 173 228 300 345 398
#     4  10  17  36  65  97 129 176 233 277 338 421
#     4   9  21  41  71  98 138 187 233 280 354 425
#     4   8  19  38  66  93 130 183 225 275 344 423
#     4   8  15  32  68  94 123 181 234 261 332 430
#
# _framework density 22.400669000000001
#
# number of rings (size 3 to 8) (size 9 to 14) (size 15 to 20)
#    0.857    1.143    2.857    3.000    0.000    0.571 
#    5.143    2.857    0.000    0.000    0.000    0.000 
#    0.000    0.000    0.000    0.000    0.000    0.000 
#
# Total GULP energy -156241.956236 kJ/mol
# GULP energy per Si atom -5580.069866 kJ/mol
# Density = 2.234968 g / cm^3
# Si number density = 22.400669 Si / 1000 Ang^3
#
#
#
# Elastic Constant Matrix: (Units=GPa)
#
#
# Indices 1 2 3 4 5 6 
#
# 1 134.5245 7.1408 43.5314 0.0000 -6.5741 0.0000
# 2 7.1408 30.9482 15.6683 0.0000 10.8037 0.0000
# 3 43.5314 15.6683 146.0247 0.0000 11.0675 0.0000
# 4 0.0000 0.0000 0.0000 27.5853 0.0000 8.2441
# 5 -6.5741 10.8037 11.0675 0.0000 43.6882 0.0000
# 6 0.0000 0.0000 0.0000 8.2441 0.0000 28.5683
#
#
#
# Elastic Compliance Matrix: (Units=1/GPa)
#
#
# Indices 1 2 3 4 5 6 
#
# 1 0.008441 -0.001459 -0.002532 0.000000 0.002273 0.000000
# 2 -0.001459 0.037140 -0.002893 0.000000 -0.008671 0.000000
# 3 -0.002532 -0.002893 0.008043 0.000000 -0.001703 0.000000
# 4 0.000000 0.000000 0.000000 0.039673 0.000000 -0.011449
# 5 0.002273 -0.008671 -0.001703 0.000000 0.025807 0.000000
# 6 0.000000 0.000000 0.000000 -0.011449 0.000000 0.038308
#
#
# Mechanical properties :
#
#
# Convention : Reuss Voigt Hill
#
# Bulk Modulus (GPa) = 25.09035 49.35315 37.22175
# Shear Modulus (GPa) = 27.10532 36.31215 31.70873
#
# Velocity S-wave (km/s) = 3.48231 4.03057 3.76643
# Velocity P-wave (km/s) = 5.23390 6.61366 5.96381
#
# Compressibility (1/GPa) = 0.03985597
#
# Stress axis : x y z
#
# Youngs Moduli (GPa) = 118.46243 26.92486 124.33919
#
# Poissons Ratio (x) = 0.03929 0.31485
# Poissons Ratio (y) = 0.17285 0.35971
# Poissons Ratio (z) = 0.29997 0.07789
#
# Static dielectric constant tensor:
#      x y z
#    x 1.970720 0.000000 0.061280 
#    y 0.000000 1.806550 0.000000 
#    z 0.061280 0.000000 1.897230 
# 
# From -- ./inp_files/234305.got.cif
#   From: 2010.05.17/outbox.cif.g08.bks.cpg/sg15_118_cif.got.tgz:234305.got - 2010.06.03 18:47:42.
