data_PCOD9256873
_publ_section_title
;
Structure prediction by ZEFSAII (Michael W. Deem and Ramdas Pophale) SiO2 
 PCOD9256873
Probable space group: C 2/C
;
_chemical_formula_sum "Si O2"
_cell_formula_units_Z 52
_cell_length_a 5.705293
_cell_length_b 28.910209
_cell_length_c 13.937634
_cell_angle_alpha 90.000000
_cell_angle_beta 55.501482
_cell_angle_gamma 90.000000
_cell_volume 1894.609346
_symmetry_space_group_name_H-M "C 2/C"
_symmetry_group_IT_number 15
_symmetry_cell_setting 'monoclinic'
loop_
_space_group_symop_operation_xyz
x,y,z
-x,y,1/2-z
-x,-y,-z
x,-y,1/2+z
1/2+x,1/2+y,z
1/2-x,1/2+y,1/2-z
1/2-x,1/2-y,-z
1/2+x,1/2-y,1/2+z
loop_
_atom_site_type_symbol
_atom_site_label
_atom_site_fract_x
_atom_site_fract_y
_atom_site_fract_z
Si Si1 0.396371 0.529029 0.412997
Si Si2 0.158177 0.821022 0.816497
Si Si3 0.258404 0.277919 0.244102
Si Si4 0.244056 0.141412 0.551495
Si Si5 0.402420 0.051087 0.407615
Si Si6 0.250528 0.879458 0.445851
Si Si7 0.750000 0.750000 0.500000
O O1 0.728112 0.540188 0.351520
O O2 0.292740 0.479202 0.473195
O O3 0.265216 0.567530 0.516340
O O4 0.223207 0.536518 0.355804
O O5 0.500000 0.832216 0.750000
O O6 0.153575 0.764776 0.838259
O O7 0.000000 0.827405 0.750000
O O8 0.953392 0.849174 0.935314
O O9 0.500000 0.302405 0.250000
O O10 0.426726 0.253227 0.119383
O O11 0.000000 0.300395 0.250000
O O12 0.382365 0.104112 0.445272
O O13 0.431310 0.135476 0.603501
O O14 0.284337 0.193573 0.507832
O O15 0.912040 0.127626 0.616796
#
# Coordination Sequence:
#
# PCOD9256873 Si02
#       7
#     8   8   8   8   8   8   4
#     4   8  14  24  44  65  92 126 160 198 262 319
#     4  10  18  30  46  65  96 131 164 210 268 318
#     4  10  22  38  55  78 109 143 187 239 282 330
#     4  10  20  30  48  74 104 133 178 219 259 314
#     4   8  14  26  40  66  97 124 158 210 253 307
#     4  10  18  32  49  72 100 135 168 217 270 321
#     4  12  24  38  60  84 112 158 198 232 284 340
#
# _framework density 27.446292
#
# number of rings (size 3 to 8) (size 9 to 14) (size 15 to 20)
#    0.000    2.462    0.000    4.615    0.000    2.462 
#    0.000    0.000    0.000    0.000    0.000    2.154 
#    0.000    0.000    0.000    0.000    0.000    0.000 
#
# Total GULP energy -144802.270575 kJ/mol
# GULP energy per Si atom -5569.318099 kJ/mol
# Density = 2.738382 g / cm^3
# Si number density = 27.446292 Si / 1000 Ang^3
#
#
#
# Elastic Constant Matrix: (Units=GPa)
#
#
# Indices 1 2 3 4 5 6 
#
# 1 334.8100 46.3881 49.1190 0.0000 2.6603 0.0000
# 2 46.3881 155.4734 25.2896 0.0000 1.2233 0.0000
# 3 49.1190 25.2896 52.4133 0.0000 -0.6488 0.0000
# 4 0.0000 0.0000 0.0000 -229.0476 0.0000 -7.7555
# 5 2.6603 1.2233 -0.6488 0.0000 40.5799 0.0000
# 6 0.0000 0.0000 0.0000 -7.7555 0.0000 49.7124
#
#
#
# Elastic Compliance Matrix: (Units=1/GPa)
#
#
# Indices 1 2 3 4 5 6 
#
# 1 0.003509 -0.000553 -0.003025 0.000000 -0.000262 0.000000
# 2 -0.000553 0.007070 -0.002896 0.000000 -0.000223 0.000000
# 3 -0.003025 -0.002896 0.023320 0.000000 0.000658 0.000000
# 4 0.000000 0.000000 0.000000 -0.004343 0.000000 -0.000678
# 5 -0.000262 -0.000223 0.000658 0.000000 0.024677 0.000000
# 6 0.000000 0.000000 0.000000 -0.000678 0.000000 0.020010
#
#
# Mechanical properties :
#
#
# Convention : Reuss Voigt Hill
#
# Bulk Modulus (GPa) = 47.73083 87.14336 67.43709
# Shear Modulus (GPa) = 53.09321 0.37560 26.73440
#
# Velocity S-wave (km/s) = 4.40300 0.37033 3.12438
# Velocity P-wave (km/s) = 6.57852 5.65706 6.13511
#
# Compressibility (1/GPa) = 0.02095082
#
# Stress axis : x y z
#
# Youngs Moduli (GPa) = 284.95983 141.44812 42.88254
#
# Poissons Ratio (x) = 0.07821 0.12973
# Poissons Ratio (y) = 0.15756 0.12418
# Poissons Ratio (z) = 0.86205 0.40960
#
# Static dielectric constant tensor:
#      x y z
#    x 2.051010 0.000000 -0.152760 
#    y 0.000000 2.074730 0.000000 
#    z -0.152760 0.000000 2.015560 
# 
# From -- ./inp_files/186451.got.cif
#   From: 2010.05.17/outbox.cif.g08.bks.cpg/sg15_94_cif.got.tgz:186451.got - 2010.06.03 18:47:42.
