data_PCOD9256099
_publ_section_title
;
Structure prediction by ZEFSAII (Michael W. Deem and Ramdas Pophale) SiO2 
 PCOD9256099
Probable space group: C 2/C
;
_chemical_formula_sum "Si O2"
_cell_formula_units_Z 52
_cell_length_a 9.375928
_cell_length_b 16.097774
_cell_length_c 17.067626
_cell_angle_alpha 90.000000
_cell_angle_beta 85.153350
_cell_angle_gamma 90.000000
_cell_volume 2566.832684
_symmetry_space_group_name_H-M "C 2/C"
_symmetry_group_IT_number 15
_symmetry_cell_setting 'monoclinic'
loop_
_space_group_symop_operation_xyz
x,y,z
-x,y,1/2-z
-x,-y,-z
x,-y,1/2+z
1/2+x,1/2+y,z
1/2-x,1/2+y,1/2-z
1/2-x,1/2-y,-z
1/2+x,1/2-y,1/2+z
loop_
_atom_site_type_symbol
_atom_site_label
_atom_site_fract_x
_atom_site_fract_y
_atom_site_fract_z
Si Si1 0.389067 0.752690 0.385858
Si Si2 0.965722 0.420294 0.621436
Si Si3 0.212670 0.618671 0.212748
Si Si4 0.920508 0.592026 0.671248
Si Si5 0.500000 0.627945 0.250000
Si Si6 0.066957 0.242983 0.940174
Si Si7 0.135168 0.192842 0.685704
O O1 0.486485 0.831877 0.364558
O O2 0.425217 0.685598 0.318389
O O3 0.221478 0.775873 0.394595
O O4 0.426609 0.717917 0.469934
O O5 0.874013 0.395152 0.703020
O O6 0.922883 0.515053 0.610763
O O7 0.945270 0.344092 0.563574
O O8 0.128356 0.419308 0.643999
O O9 0.369607 0.581511 0.215684
O O10 0.210349 0.717922 0.198723
O O11 0.758315 0.624353 0.689460
O O12 0.000000 0.568063 0.750000
O O13 0.939050 0.203102 0.896137
O O14 0.000000 0.183178 0.750000
#
# Coordination Sequence:
#
# PCOD9256099 Si02
#       7
#     8   8   8   8   4   8   8
#     4  11  22  36  64  87 116 152 204 250 283 354
#     4  10  20  38  56  83 119 155 186 236 300 359
#     4  10  17  34  59  82 111 150 191 238 276 351
#     4  12  22  35  59  90 119 147 198 249 293 345
#     4  12  18  34  60  94 104 144 204 254 280 324
#     4  10  22  41  60  84 117 162 199 235 302 345
#     4  11  19  36  62  85 117 155 198 247 285 348
#
# _framework density 20.258429
#
# number of rings (size 3 to 8) (size 9 to 14) (size 15 to 20)
#    0.000    1.231    8.462    0.923    0.000    1.231 
#    1.385    0.000    0.000    1.846    0.000    0.000 
#    0.000    0.000    0.000    0.000    0.000    0.000 
#
# Total GULP energy -145101.478720 kJ/mol
# GULP energy per Si atom -5580.826105 kJ/mol
# Density = 2.021232 g / cm^3
# Si number density = 20.258429 Si / 1000 Ang^3
#
#
#
# Elastic Constant Matrix: (Units=GPa)
#
#
# Indices 1 2 3 4 5 6 
#
# 1 140.0945 18.3161 14.2356 0.0000 14.0238 0.0000
# 2 18.3161 52.5025 -14.3795 0.0000 -3.0150 0.0000
# 3 14.2356 -14.3795 50.7445 0.0000 6.8824 0.0000
# 4 0.0000 0.0000 0.0000 -0.3952 0.0000 27.3383
# 5 14.0238 -3.0150 6.8824 0.0000 20.9215 0.0000
# 6 0.0000 0.0000 0.0000 27.3383 0.0000 -40.0283
#
#
#
# Elastic Compliance Matrix: (Units=1/GPa)
#
#
# Indices 1 2 3 4 5 6 
#
# 1 0.008485 -0.004034 -0.002798 0.000000 -0.005348 0.000000
# 2 -0.004034 0.022591 0.007039 0.000000 0.003644 0.000000
# 3 -0.002798 0.007039 0.023126 0.000000 -0.004718 0.000000
# 4 0.000000 0.000000 0.000000 0.054716 0.000000 0.037370
# 5 -0.005348 0.003644 -0.004718 0.000000 0.053460 0.000000
# 6 0.000000 0.000000 0.000000 0.037370 0.000000 0.000540
#
#
# Mechanical properties :
#
#
# Convention : Reuss Voigt Hill
#
# Bulk Modulus (GPa) = 18.30936 31.07621 24.69279
# Shear Modulus (GPa) = 27.66879 11.11090 19.38984
#
# Velocity S-wave (km/s) = 3.69967 2.34446 3.09710
# Velocity P-wave (km/s) = 5.22567 4.76465 5.00047
#
# Compressibility (1/GPa) = 0.05461688
#
# Stress axis : x y z
#
# Youngs Moduli (GPa) = 117.85370 44.26550 43.24144
#
# Poissons Ratio (x) = 0.17855 0.12099
# Poissons Ratio (y) = 0.47537 -0.30437
# Poissons Ratio (z) = 0.32975 -0.31158
#
# Static dielectric constant tensor:
#      x y z
#    x 1.772800 0.000000 0.028590 
#    y 0.000000 1.731420 0.000000 
#    z 0.028590 0.000000 1.738020 
# 
# From -- ./inp_files/190382.got.cif
#   From: 2010.05.17/outbox.cif.g08.bks.cpg/sg15_96_cif.got.tgz:190382.got - 2010.06.03 18:47:42.
