data_PCOD9256142
_publ_section_title
;
Structure prediction by ZEFSAII (Michael W. Deem and Ramdas Pophale) SiO2 
 PCOD9256142
Probable space group: C 2/C
;
_chemical_formula_sum "Si O2"
_cell_formula_units_Z 52
_cell_length_a 18.215684
_cell_length_b 7.004871
_cell_length_c 14.419860
_cell_angle_alpha 90.000000
_cell_angle_beta 95.413051
_cell_angle_gamma 90.000000
_cell_volume 1831.747481
_symmetry_space_group_name_H-M "C 2/C"
_symmetry_group_IT_number 15
_symmetry_cell_setting 'monoclinic'
loop_
_space_group_symop_operation_xyz
x,y,z
-x,y,1/2-z
-x,-y,-z
x,-y,1/2+z
1/2+x,1/2+y,z
1/2-x,1/2+y,1/2-z
1/2-x,1/2-y,-z
1/2+x,1/2-y,1/2+z
loop_
_atom_site_type_symbol
_atom_site_label
_atom_site_fract_x
_atom_site_fract_y
_atom_site_fract_z
Si Si1 0.276666 0.100605 0.618772
Si Si2 0.000000 0.937919 0.750000
Si Si3 0.307789 0.678041 0.592427
Si Si4 0.334414 0.863918 0.326859
Si Si5 0.638178 0.581039 0.700260
Si Si6 0.576894 0.206178 0.918677
Si Si7 0.436876 0.199872 0.000196
O O1 0.317821 0.059750 0.722687
O O2 0.334562 0.233449 0.570867
O O3 0.276719 0.893540 0.570479
O O4 0.195570 0.175821 0.636223
O O5 0.949656 0.063052 0.812655
O O6 0.950813 0.802401 0.679264
O O7 0.233178 0.574910 0.616165
O O8 0.349529 0.660891 0.695940
O O9 0.374164 0.652340 0.526590
O O10 0.333993 0.636981 0.305817
O O11 0.407163 0.886850 0.397851
O O12 0.566082 0.976165 0.928108
O O13 0.518735 0.273316 0.989631
#
# Coordination Sequence:
#
# PCOD9256142 Si02
#       7
#     8   4   8   8   8   8   8
#     4   9  18  35  59  87 110 153 207 248 269 344
#     4  12  20  38  62  86 114 166 194 236 296 360
#     4   9  20  34  54  87 123 150 193 248 295 346
#     4  10  17  34  62  83 114 158 202 237 296 348
#     4  10  20  34  59  86 118 154 199 238 293 351
#     4  10  19  33  58  88 117 149 202 241 284 341
#     4  10  19  33  56  90 118 151 195 251 289 345
#
# _framework density 28.388192
#
# number of rings (size 3 to 8) (size 9 to 14) (size 15 to 20)
#    0.000    2.154    3.077    0.462    0.000    0.000 
#    0.000    8.462    3.385    1.846    0.000    0.000 
#    0.000    0.000    0.000    0.000    0.000    0.000 
#
# Total GULP energy -145184.620155 kJ/mol
# GULP energy per Si atom -5584.023852 kJ/mol
# Density = 2.832358 g / cm^3
# Si number density = 28.388192 Si / 1000 Ang^3
#
#
#
# Elastic Constant Matrix: (Units=GPa)
#
#
# Indices 1 2 3 4 5 6 
#
# 1 226.0790 27.6197 22.7664 0.0000 -79.1071 0.0000
# 2 27.6197 84.2379 19.6435 0.0000 -9.2332 0.0000
# 3 22.7664 19.6435 139.0886 0.0000 -23.2819 0.0000
# 4 0.0000 0.0000 0.0000 39.7902 0.0000 -3.1804
# 5 -79.1071 -9.2332 -23.2819 0.0000 58.8255 0.0000
# 6 0.0000 0.0000 0.0000 -3.1804 0.0000 36.0194
#
#
#
# Elastic Compliance Matrix: (Units=1/GPa)
#
#
# Indices 1 2 3 4 5 6 
#
# 1 0.008631 -0.001736 0.000781 0.000000 0.011643 0.000000
# 2 -0.001736 0.012722 -0.001680 0.000000 -0.001002 0.000000
# 3 0.000781 -0.001680 0.007958 0.000000 0.003937 0.000000
# 4 0.000000 0.000000 0.000000 0.025310 0.000000 0.002235
# 5 0.011643 -0.001002 0.003937 0.000000 0.034057 0.000000
# 6 0.000000 0.000000 0.000000 0.002235 0.000000 0.027960
#
#
# Mechanical properties :
#
#
# Convention : Reuss Voigt Hill
#
# Bulk Modulus (GPa) = 41.59538 65.49609 53.54574
# Shear Modulus (GPa) = 38.48452 52.21874 45.35163
#
# Velocity S-wave (km/s) = 3.68591 4.29354 4.00128
# Velocity P-wave (km/s) = 5.72702 6.90659 6.34428
#
# Compressibility (1/GPa) = 0.02404113
#
# Stress axis : x y z
#
# Youngs Moduli (GPa) = 115.86669 78.60238 125.65905
#
# Poissons Ratio (x) = 0.13644 -0.09819
# Poissons Ratio (y) = 0.20112 0.21116
# Poissons Ratio (z) = -0.09054 0.13209
#
# Static dielectric constant tensor:
#      x y z
#    x 2.267020 0.000000 0.019040 
#    y 0.000000 2.288150 0.000000 
#    z 0.019040 0.000000 2.198170 
# 
# From -- ./inp_files/209153.got.cif
#   From: 2010.05.17/outbox.cif.g08.bks.cpg/sg15_105_cif.got.tgz:209153.got - 2010.06.03 18:47:42.
