data_PCOD9256462
_publ_section_title
;
Structure prediction by ZEFSAII (Michael W. Deem and Ramdas Pophale) SiO2 
 PCOD9256462
Probable space group: C 2/C
;
_chemical_formula_sum "Si O2"
_cell_formula_units_Z 56
_cell_length_a 28.743498
_cell_length_b 15.651881
_cell_length_c 7.233384
_cell_angle_alpha 90.000000
_cell_angle_beta 127.542330
_cell_angle_gamma 90.000000
_cell_volume 2580.286575
_symmetry_space_group_name_H-M "C 2/C"
_symmetry_group_IT_number 15
_symmetry_cell_setting 'monoclinic'
loop_
_space_group_symop_operation_xyz
x,y,z
-x,y,1/2-z
-x,-y,-z
x,-y,1/2+z
1/2+x,1/2+y,z
1/2-x,1/2+y,1/2-z
1/2-x,1/2-y,-z
1/2+x,1/2-y,1/2+z
loop_
_atom_site_type_symbol
_atom_site_label
_atom_site_fract_x
_atom_site_fract_y
_atom_site_fract_z
Si Si1 0.597878 0.689765 0.471646
Si Si2 0.691445 0.576900 0.534452
Si Si3 0.718570 0.389807 0.691371
Si Si4 0.508664 0.721635 0.566070
Si Si5 0.522724 0.092750 0.602889
Si Si6 0.286672 0.211299 0.766602
Si Si7 0.850433 0.351534 0.101934
O O1 0.637626 0.607570 0.528480
O O2 0.568449 0.699206 0.601351
O O3 0.637015 0.771481 0.503100
O O4 0.544314 0.691570 0.195178
O O5 0.701829 0.476190 0.550004
O O6 0.684235 0.605614 0.304106
O O7 0.748753 0.630956 0.742745
O O8 0.706888 0.293882 0.588465
O O9 0.788754 0.394213 0.899941
O O10 0.500000 0.685468 0.750000
O O11 0.500823 0.824363 0.560240
O O12 0.500000 0.113632 0.750000
O O13 0.592899 0.090351 0.771508
O O14 0.500000 0.000000 0.500000
O O15 0.250000 0.250000 0.500000
O O16 0.344345 0.180065 0.800251
#
# Coordination Sequence:
#
# PCOD9256462 Si02
#       7
#     8   8   8   8   8   8   8
#     4  10  17  39  66  83 123 167 199 253 323 365
#     4  10  19  36  60  90 118 164 208 254 313 379
#     4  10  19  34  59  86 121 155 211 250 305 382
#     4  10  21  38  61  93 116 160 216 257 319 381
#     4  11  21  33  54  86 124 165 206 250 304 378
#     4   8  15  32  57  79 114 162 201 231 310 376
#     4   9  16  35  59  78 120 174 189 246 315 364
#
# _framework density 21.703016999999999
#
# number of rings (size 3 to 8) (size 9 to 14) (size 15 to 20)
#    0.000    2.571    7.143    0.429    0.000    2.286 
#    2.571    0.714    0.000    3.429    0.000    0.000 
#    0.000    0.000    0.000    0.000    0.000    0.000 
#
# Total GULP energy -156113.623886 kJ/mol
# GULP energy per Si atom -5575.486567 kJ/mol
# Density = 2.165362 g / cm^3
# Si number density = 21.703017 Si / 1000 Ang^3
#
#
#
# Elastic Constant Matrix: (Units=GPa)
#
#
# Indices 1 2 3 4 5 6 
#
# 1 150.3853 18.7965 46.7259 0.0000 4.9518 0.0000
# 2 18.7965 82.6526 27.3266 0.0000 10.6324 0.0000
# 3 46.7259 27.3266 18.7890 0.0000 -9.6506 0.0000
# 4 0.0000 0.0000 0.0000 22.2417 0.0000 -1.2005
# 5 4.9518 10.6324 -9.6506 0.0000 31.2691 0.0000
# 6 0.0000 0.0000 0.0000 -1.2005 0.0000 4.7078
#
#
#
# Elastic Compliance Matrix: (Units=1/GPa)
#
#
# Indices 1 2 3 4 5 6 
#
# 1 -0.003425 -0.013210 0.036026 0.000000 0.016153 0.000000
# 2 -0.013210 -0.000403 0.041098 0.000000 0.014913 0.000000
# 3 0.036026 0.041098 -0.126266 0.000000 -0.058649 0.000000
# 4 0.000000 0.000000 0.000000 0.045588 0.000000 0.011625
# 5 0.016153 0.014913 -0.058649 0.000000 0.006251 0.000000
# 6 0.000000 0.000000 0.000000 0.011625 0.000000 0.215378
#
#
# Mechanical properties :
#
#
# Convention : Reuss Voigt Hill
#
# Bulk Modulus (GPa) = -441.26569 48.61388 -196.32591
# Shear Modulus (GPa) = 585.51939 22.24225 303.88082
#
# Velocity S-wave (km/s) = 16.44302 3.20479 11.84575
# Velocity P-wave (km/s) = 12.51941 6.01186 9.82034
#
# Compressibility (1/GPa) = -0.00226621
#
# Stress axis : x y z
#
# Youngs Moduli (GPa) = -291.98550 -2480.92529 -7.91978
#
# Poissons Ratio (x) = -32.77311 0.28532
# Poissons Ratio (y) = -3.85714 0.32548
# Poissons Ratio (z) = 10.51915 101.96020
#
# Static dielectric constant tensor:
#      x y z
#    x 1.827410 0.000000 -0.033740 
#    y 0.000000 2.053650 0.000000 
#    z -0.033740 0.000000 1.874320 
# 
# From -- ./inp_files/66287.got.cif
#   From: 2010.05.17/outbox.cif.g08.bks.cpg/sg15_34_cif.got.tgz:66287.got - 2010.06.03 18:47:42.
