data_PCOD9256822
_publ_section_title
;
Structure prediction by ZEFSAII (Michael W. Deem and Ramdas Pophale) SiO2 
 PCOD9256822
Probable space group: C 2/C
;
_chemical_formula_sum "Si O2"
_cell_formula_units_Z 48
_cell_length_a 7.178804
_cell_length_b 20.026545
_cell_length_c 16.631502
_cell_angle_alpha 90.000000
_cell_angle_beta 50.276228
_cell_angle_gamma 90.000000
_cell_volume 1839.042947
_symmetry_space_group_name_H-M "C 2/C"
_symmetry_group_IT_number 15
_symmetry_cell_setting 'monoclinic'
loop_
_space_group_symop_operation_xyz
x,y,z
-x,y,1/2-z
-x,-y,-z
x,-y,1/2+z
1/2+x,1/2+y,z
1/2-x,1/2+y,1/2-z
1/2-x,1/2-y,-z
1/2+x,1/2-y,1/2+z
loop_
_atom_site_type_symbol
_atom_site_label
_atom_site_fract_x
_atom_site_fract_y
_atom_site_fract_z
Si Si1 0.414215 0.411812 0.940652
Si Si2 0.329295 0.521671 0.716376
Si Si3 0.428714 0.708954 0.357582
Si Si4 0.135031 0.684823 0.992797
Si Si5 0.455190 0.946035 0.584879
Si Si6 0.936147 0.639618 0.656096
O O1 0.556084 0.482067 0.891163
O O2 0.545338 0.340399 0.892547
O O3 0.280631 0.413653 0.890121
O O4 0.189237 0.398997 0.063185
O O5 0.500000 0.524723 0.750000
O O6 0.108019 0.478413 0.813624
O O7 0.222152 0.595865 0.739076
O O8 0.500000 0.686232 0.250000
O O9 0.512485 0.785176 0.335316
O O10 0.139672 0.709236 0.448681
O O11 0.212518 0.652156 0.886272
O O12 0.250000 0.750000 0.000000
O O13 0.136715 0.615967 0.044212
O O14 0.500000 0.000000 0.500000
#
# Coordination Sequence:
#
# PCOD9256822 Si02
#       6
#     8   8   8   8   8   8
#     4   9  17  31  56  80 108 145 196 241 289 345
#     4  10  18  29  53  84 107 145 199 244 287 348
#     4  10  20  38  56  83 119 159 199 241 308 377
#     4  10  20  34  59  87 113 147 197 253 302 350
#     4   9  14  30  50  77 115 140 187 244 280 343
#     4  10  20  36  58  85 118 154 192 253 314 364
#
# _framework density 26.100531
#
# number of rings (size 3 to 8) (size 9 to 14) (size 15 to 20)
#    0.000    2.667    3.333    4.500    0.000    1.333 
#    0.000    0.000    0.000    6.000    0.000    0.000 
#    0.000    0.000    0.000    0.000    0.000    0.000 
#
# Total GULP energy -133631.646238 kJ/mol
# GULP energy per Si atom -5567.985260 kJ/mol
# Density = 2.604113 g / cm^3
# Si number density = 26.100531 Si / 1000 Ang^3
#
#
#
# Elastic Constant Matrix: (Units=GPa)
#
#
# Indices 1 2 3 4 5 6 
#
# 1 56.0818 33.5564 26.0165 0.0000 5.5251 0.0000
# 2 33.5564 215.1049 64.9081 0.0000 -10.0137 0.0000
# 3 26.0165 64.9081 103.7739 0.0000 18.4820 0.0000
# 4 0.0000 0.0000 0.0000 39.4260 0.0000 -13.1751
# 5 5.5251 -10.0137 18.4820 0.0000 19.7996 0.0000
# 6 0.0000 0.0000 0.0000 -13.1751 0.0000 37.8938
#
#
#
# Elastic Compliance Matrix: (Units=1/GPa)
#
#
# Indices 1 2 3 4 5 6 
#
# 1 0.021193 -0.002672 -0.002816 0.000000 -0.004637 0.000000
# 2 -0.002672 0.007172 -0.005511 0.000000 0.009517 0.000000
# 3 -0.002816 -0.005511 0.016966 0.000000 -0.017838 0.000000
# 4 0.000000 0.000000 0.000000 0.028698 0.000000 0.009978
# 5 -0.004637 0.009517 -0.017838 0.000000 0.073264 0.000000
# 6 0.000000 0.000000 0.000000 0.009978 0.000000 0.029859
#
#
# Mechanical properties :
#
#
# Convention : Reuss Voigt Hill
#
# Bulk Modulus (GPa) = 42.85741 69.32473 56.09107
# Shear Modulus (GPa) = 24.16302 36.12253 30.14277
#
# Velocity S-wave (km/s) = 3.04594 3.72422 3.40203
# Velocity P-wave (km/s) = 5.36900 6.71650 6.08019
#
# Compressibility (1/GPa) = 0.02333319
#
# Stress axis : x y z
#
# Youngs Moduli (GPa) = 47.18489 139.43789 58.94129
#
# Poissons Ratio (x) = 0.37262 0.16597
# Poissons Ratio (y) = 0.12609 0.32481
# Poissons Ratio (z) = 0.13287 0.76839
#
# Static dielectric constant tensor:
#      x y z
#    x 2.505360 0.000000 -0.076310 
#    y 0.000000 2.364700 0.000000 
#    z -0.076310 0.000000 2.167370 
# 
# From -- ./inp_files/233701.got.cif
#   From: 2010.05.17/outbox.cif.g08.bks.cpg/sg15_117_cif.got.tgz:233701.got - 2010.06.03 18:47:42.
