data_PCOD9256894
_publ_section_title
;
Structure prediction by ZEFSAII (Michael W. Deem and Ramdas Pophale) SiO2 
 PCOD9256894
Probable space group: C 2/C
;
_chemical_formula_sum "Si O2"
_cell_formula_units_Z 64
_cell_length_a 21.529787
_cell_length_b 18.425205
_cell_length_c 15.776344
_cell_angle_alpha 90.000000
_cell_angle_beta 23.623560
_cell_angle_gamma 90.000000
_cell_volume 2507.874162
_symmetry_space_group_name_H-M "C 2/C"
_symmetry_group_IT_number 15
_symmetry_cell_setting 'monoclinic'
loop_
_space_group_symop_operation_xyz
x,y,z
-x,y,1/2-z
-x,-y,-z
x,-y,1/2+z
1/2+x,1/2+y,z
1/2-x,1/2+y,1/2-z
1/2-x,1/2-y,-z
1/2+x,1/2-y,1/2+z
loop_
_atom_site_type_symbol
_atom_site_label
_atom_site_fract_x
_atom_site_fract_y
_atom_site_fract_z
Si Si1 0.810135 0.762843 0.056354
Si Si2 0.503817 0.313519 0.971716
Si Si3 0.136291 0.450237 0.483905
Si Si4 0.272017 0.403117 0.030533
Si Si5 0.931911 0.047185 0.494385
Si Si6 0.287595 0.932989 0.928981
Si Si7 0.914066 0.386386 0.482641
Si Si8 0.377871 0.385378 0.527990
O O1 0.630752 0.745237 0.291990
O O2 0.825508 0.817950 0.957095
O O3 0.886506 0.683157 0.957546
O O4 0.865996 0.794042 0.079011
O O5 0.553390 0.394552 0.877129
O O6 0.513298 0.325255 0.062012
O O7 0.275259 0.443014 0.244648
O O8 0.185396 0.409002 0.508097
O O9 0.118343 0.536611 0.520749
O O10 0.962996 0.428770 0.671658
O O11 0.389436 0.425731 0.956361
O O12 0.262708 0.482112 0.997539
O O13 0.093647 0.393053 0.283249
O O14 0.958862 0.962115 0.451851
O O15 0.171091 0.892809 0.009820
O O16 0.789130 0.379670 0.715032
#
# Coordination Sequence:
#
# PCOD9256894 Si02
#       8
#     8   8   8   8   8   8   8   8
#     4  10  18  30  47  74 105 136 170 206 244 298
#     4  10  19  30  49  74 104 130 165 210 254 292
#     4   9  17  30  49  74 102 134 168 206 256 309
#     4   9  16  28  47  72 102 132 166 208 249 297
#     4   9  17  29  48  74 100 128 164 216 260 298
#     4   9  17  30  49  74 102 134 168 206 256 309
#     4   9  16  28  47  72 102 132 166 208 249 297
#     4   9  17  29  48  74 100 128 164 216 260 298
#
# _framework density 25.519622999999999
#
# number of rings (size 3 to 8) (size 9 to 14) (size 15 to 20)
#    0.000    2.750    1.250    1.125    0.000    3.000 
#    0.000    1.250    0.000    0.000    0.000   21.875 
#    0.000    0.000    0.000    0.000    0.000    0.000 
#
# Total GULP energy -178263.124764 kJ/mol
# GULP energy per Si atom -5570.722649 kJ/mol
# Density = 2.546154 g / cm^3
# Si number density = 25.519623 Si / 1000 Ang^3
#
#
#
# Elastic Constant Matrix: (Units=GPa)
#
#
# Indices 1 2 3 4 5 6 
#
# 1 136.8468 26.9790 29.1496 0.0004 -20.9691 -0.0007
# 2 26.9790 57.1361 23.6680 0.0015 -0.5270 -0.0018
# 3 29.1496 23.6680 104.6638 0.0037 -8.4689 -0.0027
# 4 0.0004 0.0015 0.0037 24.1632 -0.0022 -14.6141
# 5 -20.9691 -0.5270 -8.4689 -0.0022 34.2862 0.0021
# 6 -0.0007 -0.0018 -0.0027 -14.6141 0.0021 35.1395
#
#
#
# Elastic Compliance Matrix: (Units=1/GPa)
#
#
# Indices 1 2 3 4 5 6 
#
# 1 0.009110 -0.003726 -0.001274 0.000001 0.005200 0.000000
# 2 -0.003726 0.020856 -0.003915 -0.000001 -0.002925 0.000001
# 3 -0.001274 -0.003915 0.010945 -0.000001 0.001864 0.000000
# 4 0.000001 -0.000001 -0.000001 0.055293 0.000002 0.022996
# 5 0.005200 -0.002925 0.001864 0.000002 0.032762 -0.000001
# 6 0.000000 0.000001 0.000000 0.022996 -0.000001 0.038022
#
#
# Mechanical properties :
#
#
# Convention : Reuss Voigt Hill
#
# Bulk Modulus (GPa) = 43.32492 50.91554 47.12023
# Shear Modulus (GPa) = 25.97226 33.30778 29.64002
#
# Velocity S-wave (km/s) = 3.19366 3.61665 3.41172
# Velocity P-wave (km/s) = 5.53292 6.11842 5.83302
#
# Compressibility (1/GPa) = 0.02308140
#
# Stress axis : x y z
#
# Youngs Moduli (GPa) = 109.76790 47.94706 91.36237
#
# Poissons Ratio (x) = 0.17865 0.11639
# Poissons Ratio (y) = 0.40900 0.35771
# Poissons Ratio (z) = 0.13983 0.18773
#
# Static dielectric constant tensor:
#      x y z
#    x 2.082800 0.000000 0.023090 
#    y 0.000000 2.060510 0.000000 
#    z 0.023090 0.000000 2.082060 
# 
# From -- ./inp_files/216480.got.cif
#   From: 2010.05.17/outbox.cif.g08.bks.cpg/sg15_109_cif.got.tgz:216480.got - 2010.06.03 18:47:42.
