data_PCOD9256274
_publ_section_title
;
Structure prediction by ZEFSAII (Michael W. Deem and Ramdas Pophale) SiO2 
 PCOD9256274
Probable space group: C 2/C
;
_chemical_formula_sum "Si O2"
_cell_formula_units_Z 56
_cell_length_a 8.303034
_cell_length_b 11.640141
_cell_length_c 28.614744
_cell_angle_alpha 90.000000
_cell_angle_beta 63.982787
_cell_angle_gamma 90.000000
_cell_volume 2485.315048
_symmetry_space_group_name_H-M "C 2/C"
_symmetry_group_IT_number 15
_symmetry_cell_setting 'monoclinic'
loop_
_space_group_symop_operation_xyz
x,y,z
-x,y,1/2-z
-x,-y,-z
x,-y,1/2+z
1/2+x,1/2+y,z
1/2-x,1/2+y,1/2-z
1/2-x,1/2-y,-z
1/2+x,1/2-y,1/2+z
loop_
_atom_site_type_symbol
_atom_site_label
_atom_site_fract_x
_atom_site_fract_y
_atom_site_fract_z
Si Si1 0.572016 0.810862 0.847194
Si Si2 0.183677 0.938255 0.344997
Si Si3 0.131023 0.322461 0.479182
Si Si4 0.621988 0.031409 0.422363
Si Si5 0.544760 0.126832 0.849810
Si Si6 0.147012 0.838043 0.894584
Si Si7 0.296803 0.535373 0.260277
O O1 0.571612 0.675531 0.851615
O O2 0.679975 0.874201 0.876026
O O3 0.362774 0.842989 0.873157
O O4 0.672324 0.856174 0.788626
O O5 0.097022 0.031772 0.390383
O O6 0.212148 0.001595 0.292349
O O7 0.372584 0.891382 0.340009
O O8 0.250000 0.250000 0.500000
O O9 0.219542 0.430133 0.439424
O O10 0.069876 0.226407 0.449676
O O11 0.979181 0.387997 0.527873
O O12 0.510716 0.947098 0.401589
O O13 0.592347 0.254988 0.858942
O O14 0.711414 0.067752 0.802095
O O15 0.500000 0.556005 0.250000
#
# Coordination Sequence:
#
# PCOD9256274 Si02
#       7
#     8   8   8   8   8   8   8
#     4  11  24  44  64  96 136 170 223 277 334 391
#     4  12  25  42  66  93 133 171 218 276 329 398
#     4  10  17  35  72  96 125 178 224 262 337 391
#     4   9  19  38  64  98 131 170 219 273 323 403
#     4  10  22  43  65  94 132 170 217 275 337 388
#     4  11  23  42  67  97 133 174 217 273 329 401
#     4  11  25  43  66  94 125 177 226 272 333 399
#
# _framework density 22.532356
#
# number of rings (size 3 to 8) (size 9 to 14) (size 15 to 20)
#    0.000    1.429    4.286    1.286    4.000    0.000 
#    0.000    0.714    0.000    5.143    0.000    0.000 
#    0.000    0.000    0.000    0.000    0.000    0.000 
#
# Total GULP energy -156206.650059 kJ/mol
# GULP energy per Si atom -5578.808931 kJ/mol
# Density = 2.248107 g / cm^3
# Si number density = 22.532356 Si / 1000 Ang^3
#
#
#
# Elastic Constant Matrix: (Units=GPa)
#
#
# Indices 1 2 3 4 5 6 
#
# 1 63.0254 26.0785 34.0222 0.0000 5.5267 0.0000
# 2 26.0785 166.0736 32.9255 0.0000 18.1384 0.0000
# 3 34.0222 32.9255 75.0996 0.0000 26.8660 0.0000
# 4 0.0000 0.0000 0.0000 6.9686 0.0000 5.2182
# 5 5.5267 18.1384 26.8660 0.0000 19.5878 0.0000
# 6 0.0000 0.0000 0.0000 5.2182 0.0000 31.4907
#
#
#
# Elastic Compliance Matrix: (Units=1/GPa)
#
#
# Indices 1 2 3 4 5 6 
#
# 1 0.024049 -0.002509 -0.016097 0.000000 0.017616 0.000000
# 2 -0.002509 0.007038 0.000254 0.000000 -0.006157 0.000000
# 3 -0.016097 0.000254 0.037217 0.000000 -0.046739 0.000000
# 4 0.000000 0.000000 0.000000 0.163828 0.000000 -0.027147
# 5 0.017616 -0.006157 -0.046739 0.000000 0.115889 0.000000
# 6 0.000000 0.000000 0.000000 -0.027147 0.000000 0.036254
#
#
# Mechanical properties :
#
#
# Convention : Reuss Voigt Hill
#
# Bulk Modulus (GPa) = 31.64574 54.47233 43.05903
# Shear Modulus (GPa) = 11.58717 25.68759 18.63738
#
# Velocity S-wave (km/s) = 2.27016 3.38010 2.87912
# Velocity P-wave (km/s) = 4.57674 6.28180 5.49580
#
# Compressibility (1/GPa) = 0.03159983
#
# Stress axis : x y z
#
# Youngs Moduli (GPa) = 41.58100 142.09447 26.86952
#
# Poissons Ratio (x) = 0.35653 0.43251
# Poissons Ratio (y) = 0.10433 -0.00682
# Poissons Ratio (z) = 0.66932 -0.03608
#
# Static dielectric constant tensor:
#      x y z
#    x 1.868690 0.000000 0.003720 
#    y 0.000000 1.857700 0.000000 
#    z 0.003720 0.000000 1.877170 
# 
# From -- ./inp_files/287971.got.cif
#   From: 2010.05.17/outbox.cif.g08.bks.cpg/sg15_144_cif.got.tgz:287971.got - 2010.06.03 18:47:42.
