data_PCOD9256107
_publ_section_title
;
Structure prediction by ZEFSAII (Michael W. Deem and Ramdas Pophale) SiO2 
 PCOD9256107
Probable space group: C 2/C
;
_chemical_formula_sum "Si O2"
_cell_formula_units_Z 44
_cell_length_a 12.897500
_cell_length_b 28.214659
_cell_length_c 8.820596
_cell_angle_alpha 90.000000
_cell_angle_beta 135.751683
_cell_angle_gamma 90.000000
_cell_volume 2239.701831
_symmetry_space_group_name_H-M "C 2/C"
_symmetry_group_IT_number 15
_symmetry_cell_setting 'monoclinic'
loop_
_space_group_symop_operation_xyz
x,y,z
-x,y,1/2-z
-x,-y,-z
x,-y,1/2+z
1/2+x,1/2+y,z
1/2-x,1/2+y,1/2-z
1/2-x,1/2-y,-z
1/2+x,1/2-y,1/2+z
loop_
_atom_site_type_symbol
_atom_site_label
_atom_site_fract_x
_atom_site_fract_y
_atom_site_fract_z
Si Si1 0.656199 0.040850 0.833278
Si Si2 0.579141 0.338710 0.609030
Si Si3 0.000000 0.098724 0.750000
Si Si4 0.154313 0.013684 0.742132
Si Si5 0.620222 0.764426 0.250047
Si Si6 0.741147 0.643708 0.583787
O O1 0.500000 0.028525 0.750000
O O2 0.708987 0.017209 0.731961
O O3 0.665787 0.096313 0.809027
O O4 0.792352 0.026216 0.085733
O O5 0.585759 0.367416 0.459486
O O6 0.576988 0.280796 0.602800
O O7 0.422931 0.356441 0.515963
O O8 0.706204 0.349015 0.867233
O O9 0.115345 0.062975 0.786867
O O10 0.000000 0.000000 0.500000
O O11 0.500000 0.776144 0.250000
O O12 0.750000 0.750000 0.500000
O O13 0.674863 0.813796 0.241062
#
# Coordination Sequence:
#
# PCOD9256107 Si02
#       6
#     8   8   4   8   8   8
#     4  12  25  41  62  98 131 165 208 275 330 372
#     4  10  20  35  61  91 121 158 213 265 306 371
#     4  12  22  38  64  94 124 164 218 256 308 376
#     4  12  24  42  68  92 127 172 223 259 314 390
#     4  10  17  34  59  89 114 154 206 264 298 367
#     4  10  20  36  64  88 119 162 218 257 313 377
#
# _framework density 19.645472000000002
#
# number of rings (size 3 to 8) (size 9 to 14) (size 15 to 20)
#    0.000    1.091    7.273    2.182    2.545    0.000 
#    0.000    0.909    0.000    0.000    0.000    0.000 
#    0.000    0.000    0.000    0.000    0.000    0.000 
#
# Total GULP energy -122473.365696 kJ/mol
# GULP energy per Si atom -5566.971168 kJ/mol
# Density = 1.960076 g / cm^3
# Si number density = 19.645472 Si / 1000 Ang^3
#
#
#
# Elastic Constant Matrix: (Units=GPa)
#
#
# Indices 1 2 3 4 5 6 
#
# 1 91.2514 14.3916 17.1293 0.0000 4.1927 0.0000
# 2 14.3916 83.6599 19.1203 0.0000 -17.8113 0.0000
# 3 17.1293 19.1203 49.3000 0.0000 -1.8344 0.0000
# 4 0.0000 0.0000 0.0000 49.1978 0.0000 -25.5788
# 5 4.1927 -17.8113 -1.8344 0.0000 28.9606 0.0000
# 6 0.0000 0.0000 0.0000 -25.5788 0.0000 87.0905
#
#
#
# Elastic Compliance Matrix: (Units=1/GPa)
#
#
# Indices 1 2 3 4 5 6 
#
# 1 0.012079 -0.001938 -0.003563 0.000000 -0.003166 0.000000
# 2 -0.001938 0.015434 -0.004961 0.000000 0.009458 0.000000
# 3 -0.003563 -0.004961 0.023407 0.000000 -0.001052 0.000000
# 4 0.000000 0.000000 0.000000 0.023989 0.000000 0.007046
# 5 -0.003166 0.009458 -0.001052 0.000000 0.040738 0.000000
# 6 0.000000 0.000000 0.000000 0.007046 0.000000 0.013552
#
#
# Mechanical properties :
#
#
# Convention : Reuss Voigt Hill
#
# Bulk Modulus (GPa) = 33.33705 36.16599 34.75152
# Shear Modulus (GPa) = 31.22652 44.62111 37.92381
#
# Velocity S-wave (km/s) = 3.99118 4.77100 4.39841
# Velocity P-wave (km/s) = 6.18430 6.98565 6.59715
#
# Compressibility (1/GPa) = 0.02999665
#
# Stress axis : x y z
#
# Youngs Moduli (GPa) = 82.79089 64.79230 42.72274
#
# Poissons Ratio (x) = 0.12554 0.15222
# Poissons Ratio (y) = 0.16041 0.21194
# Poissons Ratio (z) = 0.29499 0.32142
#
# Static dielectric constant tensor:
#      x y z
#    x 1.697140 0.000000 -0.048640 
#    y 0.000000 1.781900 0.000000 
#    z -0.048640 0.000000 1.724550 
# 
# From -- ./inp_files/34488.got.cif
#   From: 2010.05.17/outbox.cif.g08.bks.cpg/sg15_18_cif.got.tgz:34488.got - 2010.06.03 18:47:42.
