data_PCOD9256169
_publ_section_title
;
Structure prediction by ZEFSAII (Michael W. Deem and Ramdas Pophale) SiO2 
 PCOD9256169
Probable space group: C 2/C
;
_chemical_formula_sum "Si O2"
_cell_formula_units_Z 44
_cell_length_a 9.311112
_cell_length_b 12.982960
_cell_length_c 20.626080
_cell_angle_alpha 90.000000
_cell_angle_beta 37.988379
_cell_angle_gamma 90.000000
_cell_volume 1534.691820
_symmetry_space_group_name_H-M "C 2/C"
_symmetry_group_IT_number 15
_symmetry_cell_setting 'monoclinic'
loop_
_space_group_symop_operation_xyz
x,y,z
-x,y,1/2-z
-x,-y,-z
x,-y,1/2+z
1/2+x,1/2+y,z
1/2-x,1/2+y,1/2-z
1/2-x,1/2-y,-z
1/2+x,1/2-y,1/2+z
loop_
_atom_site_type_symbol
_atom_site_label
_atom_site_fract_x
_atom_site_fract_y
_atom_site_fract_z
Si Si1 0.291155 0.221340 0.879643
Si Si2 0.241263 0.865244 0.788160
Si Si3 0.412969 0.850303 0.948449
Si Si4 0.500000 0.463640 0.750000
Si Si5 0.456986 0.439287 0.103871
Si Si6 0.317018 0.856949 0.173205
O O1 0.500000 0.217171 0.750000
O O2 0.106105 0.131274 0.933204
O O3 0.423695 0.176710 0.895888
O O4 0.117313 0.319340 0.926952
O O5 0.462848 0.869433 0.663731
O O6 0.250674 0.758396 0.822949
O O7 0.047942 0.894834 0.798525
O O8 0.189690 0.958348 0.852510
O O9 0.250000 0.750000 0.000000
O O10 0.229797 0.942369 0.021864
O O11 0.276131 0.543999 0.833532
O O12 0.334884 0.380993 0.208136
#
# Coordination Sequence:
#
# PCOD9256169 Si02
#       6
#     8   8   8   4   8   8
#     4   9  15  32  61  84 121 170 214 261 314 385
#     4  11  19  37  66  89 128 172 204 274 336 369
#     4  10  17  34  67  99 124 174 229 261 324 412
#     4  10  24  38  60 100 130 170 226 266 330 408
#     4   9  20  33  61 101 123 166 227 263 325 403
#     4  10  19  39  61  88 129 170 217 268 322 390
#
# _framework density 28.670252000000001
#
# number of rings (size 3 to 8) (size 9 to 14) (size 15 to 20)
#    0.000    2.182    5.455    1.091    0.000    0.000 
#    8.182    8.182    0.000   75.273    0.000    0.000 
#    0.000    0.000    0.000    0.000    0.000    0.000 
#
# Total GULP energy -122566.640198 kJ/mol
# GULP energy per Si atom -5571.210918 kJ/mol
# Density = 2.860500 g / cm^3
# Si number density = 28.670252 Si / 1000 Ang^3
#
#
#
# Elastic Constant Matrix: (Units=GPa)
#
#
# Indices 1 2 3 4 5 6 
#
# 1 149.6226 10.4218 37.9936 -0.0002 -53.4046 0.0001
# 2 10.4218 111.0560 24.0764 -0.0003 -10.7984 0.0000
# 3 37.9936 24.0764 129.0247 -0.0002 -34.9171 -0.0004
# 4 -0.0002 -0.0003 -0.0002 35.1895 0.0000 -16.6301
# 5 -53.4046 -10.7984 -34.9171 0.0000 50.4387 0.0000
# 6 0.0001 0.0000 -0.0004 -16.6301 0.0000 46.1639
#
#
#
# Elastic Compliance Matrix: (Units=1/GPa)
#
#
# Indices 1 2 3 4 5 6 
#
# 1 0.010746 0.000119 -0.000124 0.000000 0.011318 0.000000
# 2 0.000119 0.009425 -0.001493 0.000000 0.001110 0.000000
# 3 -0.000124 -0.001493 0.009775 0.000000 0.006316 0.000000
# 4 0.000000 0.000000 0.000000 0.034248 0.000000 0.012338
# 5 0.011318 0.001110 0.006316 0.000000 0.036420 0.000000
# 6 0.000000 0.000000 0.000000 0.012338 0.000000 0.026106
#
#
# Mechanical properties :
#
#
# Convention : Reuss Voigt Hill
#
# Bulk Modulus (GPa) = 37.10615 59.40966 48.25790
# Shear Modulus (GPa) = 36.04897 47.50584 41.77740
#
# Velocity S-wave (km/s) = 3.54978 4.07501 3.82143
# Velocity P-wave (km/s) = 5.45635 6.55039 6.02824
#
# Compressibility (1/GPa) = 0.02694971
#
# Stress axis : x y z
#
# Youngs Moduli (GPa) = 93.05464 106.10096 102.30348
#
# Poissons Ratio (x) = -0.01261 0.01265
# Poissons Ratio (y) = -0.01106 0.15278
# Poissons Ratio (z) = 0.01151 0.15845
#
# Static dielectric constant tensor:
#      x y z
#    x 2.482160 0.000000 -0.070170 
#    y 0.000000 2.476360 0.000000 
#    z -0.070170 0.000000 2.272040 
# 
# From -- ./inp_files/311012.got.cif
#   From: 2010.05.17/outbox.cif.g08.bks.cpg/sg15_156_cif.got.tgz:311012.got - 2010.06.03 18:47:42.
