data_PCOD9256879
_publ_section_title
;
Structure prediction by ZEFSAII (Michael W. Deem and Ramdas Pophale) SiO2 
 PCOD9256879
Probable space group: C 2/C
;
_chemical_formula_sum "Si O2"
_cell_formula_units_Z 52
_cell_length_a 22.511498
_cell_length_b 7.543081
_cell_length_c 27.132962
_cell_angle_alpha 90.000000
_cell_angle_beta 31.666238
_cell_angle_gamma 90.000000
_cell_volume 2418.716878
_symmetry_space_group_name_H-M "C 2/C"
_symmetry_group_IT_number 15
_symmetry_cell_setting 'monoclinic'
loop_
_space_group_symop_operation_xyz
x,y,z
-x,y,1/2-z
-x,-y,-z
x,-y,1/2+z
1/2+x,1/2+y,z
1/2-x,1/2+y,1/2-z
1/2-x,1/2-y,-z
1/2+x,1/2-y,1/2+z
loop_
_atom_site_type_symbol
_atom_site_label
_atom_site_fract_x
_atom_site_fract_y
_atom_site_fract_z
Si Si1 0.000000 0.421582 0.750000
Si Si2 0.609835 0.439036 0.454066
Si Si3 0.750931 0.744953 0.410192
Si Si4 0.646983 0.644942 0.755957
Si Si5 0.062264 0.633235 0.103795
Si Si6 0.005462 0.586539 0.942204
Si Si7 0.740174 0.991528 0.238992
O O1 0.122620 0.326730 0.668504
O O2 0.022681 0.490584 0.677739
O O3 0.500000 0.500000 0.500000
O O4 0.667454 0.591090 0.447120
O O5 0.568169 0.262867 0.509846
O O6 0.702892 0.392914 0.346982
O O7 0.776990 0.878863 0.346409
O O8 0.691946 0.823011 0.500184
O O9 0.516914 0.691129 0.834961
O O10 0.667139 0.498054 0.782959
O O11 0.691386 0.827595 0.750403
O O12 0.033274 0.547769 0.072029
O O13 0.136757 0.610241 0.837134
O O14 0.000000 0.500000 0.000000
#
# Coordination Sequence:
#
# PCOD9256879 Si02
#       7
#     4   8   8   8   8   8   8
#     4  10  22  40  62  80 106 152 200 238 286 324
#     4  11  21  34  56  87 119 154 186 228 292 350
#     4  10  20  36  57  80 108 146 193 241 280 334
#     4   9  18  29  48  76 108 145 178 219 280 333
#     4  10  20  36  57  80 108 146 193 241 280 334
#     4  11  21  34  56  87 119 154 186 228 292 350
#     4  10  18  30  46  74 114 146 174 218 268 338
#
# _framework density 21.499002000000001
#
# number of rings (size 3 to 8) (size 9 to 14) (size 15 to 20)
#    0.000    1.846    0.000    7.846    0.000    0.000 
#    0.000    2.308    0.000    1.846    0.000    0.000 
#    0.000    0.000    0.000    0.000    0.000    0.000 
#
# Total GULP energy -144753.350535 kJ/mol
# GULP energy per Si atom -5567.436559 kJ/mol
# Density = 2.145007 g / cm^3
# Si number density = 21.499002 Si / 1000 Ang^3
#
#
#
# Elastic Constant Matrix: (Units=GPa)
#
#
# Indices 1 2 3 4 5 6 
#
# 1 65.8127 -2.8582 12.2209 -0.0035 7.1683 0.0133
# 2 -2.8582 24.2650 24.0290 -0.0098 1.5912 0.0173
# 3 12.2209 24.0290 173.3129 0.0003 22.1787 0.0045
# 4 -0.0035 -0.0098 0.0003 20.9122 -0.0002 -1.8799
# 5 7.1683 1.5912 22.1787 -0.0002 48.9183 -0.0028
# 6 0.0133 0.0173 0.0045 -1.8799 -0.0028 9.8172
#
#
#
# Elastic Compliance Matrix: (Units=1/GPa)
#
#
# Indices 1 2 3 4 5 6 
#
# 1 0.015784 0.003304 -0.001339 0.000002 -0.001813 -0.000027
# 2 0.003304 0.048571 -0.007116 0.000016 0.001162 -0.000084
# 3 -0.001339 -0.007116 0.007215 -0.000003 -0.002843 0.000010
# 4 0.000002 0.000016 -0.000003 0.048657 0.000001 0.009317
# 5 -0.001813 0.001162 -0.002843 0.000001 0.021959 0.000008
# 6 -0.000027 -0.000084 0.000010 0.009317 0.000008 0.103646
#
#
# Mechanical properties :
#
#
# Convention : Reuss Voigt Hill
#
# Bulk Modulus (GPa) = 16.32146 36.68599 26.50373
# Shear Modulus (GPa) = 18.07947 31.26280 24.67113
#
# Velocity S-wave (km/s) = 2.90305 3.81747 3.39122
# Velocity P-wave (km/s) = 4.34110 6.04416 5.26199
#
# Compressibility (1/GPa) = 0.06126901
#
# Stress axis : x y z
#
# Youngs Moduli (GPa) = 63.35411 20.58825 138.60437
#
# Poissons Ratio (x) = -0.06803 0.18560
# Poissons Ratio (y) = -0.20934 0.98629
# Poissons Ratio (z) = 0.08484 0.14650
#
# Static dielectric constant tensor:
#      x y z
#    x 1.954070 -0.000010 -0.066920 
#    y -0.000010 1.840080 0.000000 
#    z -0.066920 0.000000 1.907670 
# 
# From -- ./inp_files/171359.got.cif
#   From: 2010.05.17/outbox.cif.g08.bks.cpg/sg15_86_cif.got.tgz:171359.got - 2010.06.03 18:47:42.
