data_PCOD9256802
_publ_section_title
;
Structure prediction by ZEFSAII (Michael W. Deem and Ramdas Pophale) SiO2 
 PCOD9256802
Probable space group: C 2/C
;
_chemical_formula_sum "Si O2"
_cell_formula_units_Z 32
_cell_length_a 10.590797
_cell_length_b 19.483089
_cell_length_c 7.108576
_cell_angle_alpha 90.000000
_cell_angle_beta 53.060717
_cell_angle_gamma 90.000000
_cell_volume 1172.368414
_symmetry_space_group_name_H-M "C 2/C"
_symmetry_group_IT_number 15
_symmetry_cell_setting 'monoclinic'
loop_
_space_group_symop_operation_xyz
x,y,z
-x,y,1/2-z
-x,-y,-z
x,-y,1/2+z
1/2+x,1/2+y,z
1/2-x,1/2+y,1/2-z
1/2-x,1/2-y,-z
1/2+x,1/2-y,1/2+z
loop_
_atom_site_type_symbol
_atom_site_label
_atom_site_fract_x
_atom_site_fract_y
_atom_site_fract_z
Si Si1 0.554255 0.150667 0.919557
Si Si2 0.750073 0.229324 0.276831
Si Si3 0.114355 0.907344 0.889865
Si Si4 0.224495 0.042858 0.881714
O O1 0.500000 0.159805 0.750000
O O2 0.702533 0.197612 0.847982
O O3 0.620999 0.073887 0.853896
O O4 0.401871 0.185421 0.148726
O O5 0.750000 0.250000 0.500000
O O6 0.886395 0.174499 0.103938
O O7 0.187945 0.922405 0.615911
O O8 0.222295 0.961017 0.907099
O O9 0.936947 0.934361 0.078461
#
# Coordination Sequence:
#
# PCOD9256802 Si02
#       4
#     8   8   8   8
#     4  10  18  30  50  80 102 140 168 229 259 305
#     4  10  18  29  51  78 104 132 177 224 259 296
#     4  10  20  34  53  76 108 142 175 219 260 319
#     4  10  20  34  51  77 109 141 175 213 269 312
#
# _framework density 27.295172999999998
#
# number of rings (size 3 to 8) (size 9 to 14) (size 15 to 20)
#    0.000    2.000    5.000    1.500    7.000    1.000 
#    0.000    0.000    0.000    1.500    0.000    0.000 
#    0.000    0.000    0.000    0.000    0.000    0.000 
#
# Total GULP energy -89195.622944 kJ/mol
# GULP energy per Si atom -5574.726434 kJ/mol
# Density = 2.723305 g / cm^3
# Si number density = 27.295173 Si / 1000 Ang^3
#
#
#
# Elastic Constant Matrix: (Units=GPa)
#
#
# Indices 1 2 3 4 5 6 
#
# 1 63.7389 13.7351 39.0136 0.0000 -1.8623 0.0000
# 2 13.7351 145.2245 24.2836 0.0000 7.1319 0.0000
# 3 39.0136 24.2836 93.8903 0.0000 -13.1748 0.0000
# 4 0.0000 0.0000 0.0000 37.4966 0.0000 -24.0089
# 5 -1.8623 7.1319 -13.1748 0.0000 32.1490 0.0000
# 6 0.0000 0.0000 0.0000 -24.0089 0.0000 35.8886
#
#
#
# Elastic Compliance Matrix: (Units=1/GPa)
#
#
# Indices 1 2 3 4 5 6 
#
# 1 0.021252 -0.000375 -0.009071 0.000000 -0.002403 0.000000
# 2 -0.000375 0.007399 -0.002113 0.000000 -0.002529 0.000000
# 3 -0.009071 -0.002113 0.015871 0.000000 0.006447 0.000000
# 4 0.000000 0.000000 0.000000 0.046653 0.000000 0.031210
# 5 -0.002403 -0.002529 0.006447 0.000000 0.034169 0.000000
# 6 0.000000 0.000000 0.000000 0.031210 0.000000 0.048743
#
#
# Mechanical properties :
#
#
# Convention : Reuss Voigt Hill
#
# Bulk Modulus (GPa) = 46.71925 50.76870 48.74397
# Shear Modulus (GPa) = 24.46931 36.16160 30.31546
#
# Velocity S-wave (km/s) = 2.99736 3.64378 3.33626
# Velocity P-wave (km/s) = 5.39744 6.02852 5.72169
#
# Compressibility (1/GPa) = 0.02140445
#
# Stress axis : x y z
#
# Youngs Moduli (GPa) = 47.05506 135.15677 63.00846
#
# Poissons Ratio (x) = 0.05071 0.57153
# Poissons Ratio (y) = 0.01765 0.13311
# Poissons Ratio (z) = 0.42682 0.28553
#
# Static dielectric constant tensor:
#      x y z
#    x 2.301170 0.000000 0.035810 
#    y 0.000000 2.075090 0.000000 
#    z 0.035810 0.000000 2.255790 
# 
# From -- ./inp_files/28522.got.cif
#   From: 2010.05.17/outbox.cif.g08.bks.cpg/sg15_15_cif.got.tgz:28522.got - 2010.06.03 18:47:42.
