data_PCOD9256501
_publ_section_title
;
Structure prediction by ZEFSAII (Michael W. Deem and Ramdas Pophale) SiO2 
 PCOD9256501
Probable space group: C 2/C
;
_chemical_formula_sum "Si O2"
_cell_formula_units_Z 32
_cell_length_a 22.140709
_cell_length_b 11.648984
_cell_length_c 5.471650
_cell_angle_alpha 90.000000
_cell_angle_beta 85.902518
_cell_angle_gamma 90.000000
_cell_volume 1407.623055
_symmetry_space_group_name_H-M "C 2/C"
_symmetry_group_IT_number 15
_symmetry_cell_setting 'monoclinic'
loop_
_space_group_symop_operation_xyz
x,y,z
-x,y,1/2-z
-x,-y,-z
x,-y,1/2+z
1/2+x,1/2+y,z
1/2-x,1/2+y,1/2-z
1/2-x,1/2-y,-z
1/2+x,1/2-y,1/2+z
loop_
_atom_site_type_symbol
_atom_site_label
_atom_site_fract_x
_atom_site_fract_y
_atom_site_fract_z
Si Si1 0.071322 0.133307 0.274335
Si Si2 0.257508 0.146774 0.811026
Si Si3 0.120032 0.129082 0.760386
Si Si4 0.344280 0.034594 0.499699
O O1 0.088511 0.183759 0.532887
O O2 0.000000 0.134881 0.250000
O O3 0.093727 0.000808 0.283995
O O4 0.103437 0.185470 0.025856
O O5 0.192012 0.121639 0.720138
O O6 0.310599 0.151999 0.589919
O O7 0.250000 0.250000 0.000000
O O8 0.285141 0.045528 0.969432
O O9 0.376315 0.019322 0.229824
#
# Coordination Sequence:
#
# PCOD9256501 Si02
#       4
#     8   8   8   8
#     4  10  18  30  46  63  89 122 151 195 238 278
#     4  10  20  32  48  67  97 132 165 204 233 275
#     4  10  18  26  42  64  85 116 158 181 223 285
#     4   8  18  32  44  62  87 122 165 194 232 276
#
# _framework density 22.733359
#
# number of rings (size 3 to 8) (size 9 to 14) (size 15 to 20)
#    1.500    1.000    0.000    6.750    3.500    1.000 
#    0.000    0.000    0.000    0.000    0.000    0.000 
#    0.000    0.000    0.000   38.250    0.000    0.000 
#
# Total GULP energy -89083.893540 kJ/mol
# GULP energy per Si atom -5567.743346 kJ/mol
# Density = 2.268162 g / cm^3
# Si number density = 22.733359 Si / 1000 Ang^3
#
#
#
# Elastic Constant Matrix: (Units=GPa)
#
#
# Indices 1 2 3 4 5 6 
#
# 1 38.4191 0.6057 -0.8868 0.0000 6.5542 0.0000
# 2 0.6057 30.9971 -11.6537 0.0000 0.1814 0.0000
# 3 -0.8868 -11.6537 187.1697 0.0000 16.4178 0.0000
# 4 0.0000 0.0000 0.0000 22.0340 0.0000 -0.9197
# 5 6.5542 0.1814 16.4178 0.0000 24.2559 0.0000
# 6 0.0000 0.0000 0.0000 -0.9197 0.0000 13.8183
#
#
#
# Elastic Compliance Matrix: (Units=1/GPa)
#
#
# Indices 1 2 3 4 5 6 
#
# 1 0.027408 -0.000182 0.000817 0.000000 -0.007957 0.000000
# 2 -0.000182 0.033105 0.002209 0.000000 -0.001694 0.000000
# 3 0.000817 0.002209 0.005852 0.000000 -0.004198 0.000000
# 4 0.000000 0.000000 0.000000 0.045511 0.000000 0.003029
# 5 -0.007957 -0.001694 -0.004198 0.000000 0.046232 0.000000
# 6 0.000000 0.000000 0.000000 0.003029 0.000000 0.072569
#
#
# Mechanical properties :
#
#
# Convention : Reuss Voigt Hill
#
# Bulk Modulus (GPa) = 13.87884 25.85736 19.86810
# Shear Modulus (GPa) = 20.07968 29.92302 25.00135
#
# Velocity S-wave (km/s) = 2.97521 3.63197 3.31987
# Velocity P-wave (km/s) = 4.23330 5.38397 4.84293
#
# Compressibility (1/GPa) = 0.07205213
#
# Stress axis : x y z
#
# Youngs Moduli (GPa) = 36.48578 30.20686 170.86967
#
# Poissons Ratio (x) = 0.00550 -0.13952
# Poissons Ratio (y) = 0.00664 -0.37744
# Poissons Ratio (z) = -0.02979 -0.06672
#
# Static dielectric constant tensor:
#      x y z
#    x 1.762200 0.000000 -0.030860 
#    y 0.000000 1.898170 0.000000 
#    z -0.030860 0.000000 2.053000 
# 
# From -- ./inp_files/12419.got.cif
#   From: 2010.05.17/outbox.cif.g08.bks.cpg/sg15_7_cif.got.tgz:12419.got - 2010.06.03 18:47:42.
