data_PCOD9256878
_publ_section_title
;
Structure prediction by ZEFSAII (Michael W. Deem and Ramdas Pophale) SiO2 
 PCOD9256878
Probable space group: C 2/C
;
_chemical_formula_sum "Si O2"
_cell_formula_units_Z 52
_cell_length_a 10.567899
_cell_length_b 26.786471
_cell_length_c 8.893462
_cell_angle_alpha 90.000000
_cell_angle_beta 59.394122
_cell_angle_gamma 90.000000
_cell_volume 2166.814159
_symmetry_space_group_name_H-M "C 2/C"
_symmetry_group_IT_number 15
_symmetry_cell_setting 'monoclinic'
loop_
_space_group_symop_operation_xyz
x,y,z
-x,y,1/2-z
-x,-y,-z
x,-y,1/2+z
1/2+x,1/2+y,z
1/2-x,1/2+y,1/2-z
1/2-x,1/2-y,-z
1/2+x,1/2-y,1/2+z
loop_
_atom_site_type_symbol
_atom_site_label
_atom_site_fract_x
_atom_site_fract_y
_atom_site_fract_z
Si Si1 0.311396 0.337120 0.477952
Si Si2 0.256027 0.498703 0.880822
Si Si3 0.218646 0.430652 0.154798
Si Si4 0.485114 0.747218 0.037330
Si Si5 0.570120 0.561084 0.478208
Si Si6 0.749810 0.183047 0.674329
Si Si7 0.500000 0.183364 0.250000
O O1 0.365436 0.287873 0.528770
O O2 0.395449 0.382694 0.498896
O O3 0.324468 0.328720 0.292037
O O4 0.140680 0.346866 0.613738
O O5 0.172295 0.540874 0.834989
O O6 0.342889 0.461264 0.716576
O O7 0.165285 0.463033 0.046508
O O8 0.367417 0.529671 0.919419
O O9 0.197318 0.371451 0.151001
O O10 0.396500 0.438935 0.054716
O O11 0.388306 0.781048 0.207911
O O12 0.623609 0.711869 0.997107
O O13 0.541884 0.783144 0.869118
#
# Coordination Sequence:
#
# PCOD9256878 Si02
#       7
#     8   8   8   8   8   8   4
#     4  11  19  29  50  77 108 144 175 232 279 327
#     4  10  21  33  49  82 116 144 178 233 276 346
#     4  11  19  32  52  81 117 145 179 224 289 330
#     4  11  18  32  47  78 116 142 183 233 277 322
#     4  11  19  31  52  76 112 142 182 222 289 328
#     4  11  20  30  53  82 113 150 183 233 276 330
#     4  10  18  30  46  74 108 136 182 228 274 316
#
# _framework density 23.998365
#
# number of rings (size 3 to 8) (size 9 to 14) (size 15 to 20)
#    0.000    1.231    6.154    4.615    0.000    0.000 
#    0.000    0.000    0.000    1.846    4.000    0.000 
#    0.000    0.000    0.000    0.000    0.000    0.000 
#
# Total GULP energy -145400.551368 kJ/mol
# GULP energy per Si atom -5592.328899 kJ/mol
# Density = 2.394374 g / cm^3
# Si number density = 23.998365 Si / 1000 Ang^3
#
#
#
# Elastic Constant Matrix: (Units=GPa)
#
#
# Indices 1 2 3 4 5 6 
#
# 1 58.2332 17.6107 25.1704 0.0000 -9.2711 0.0000
# 2 17.6107 132.3609 38.2074 0.0000 -8.7718 0.0000
# 3 25.1704 38.2074 79.9828 0.0000 -4.0513 0.0000
# 4 0.0000 0.0000 0.0000 33.5422 0.0000 3.7401
# 5 -9.2711 -8.7718 -4.0513 0.0000 25.7881 0.0000
# 6 0.0000 0.0000 0.0000 3.7401 0.0000 -8.6742
#
#
#
# Elastic Compliance Matrix: (Units=1/GPa)
#
#
# Indices 1 2 3 4 5 6 
#
# 1 0.020961 -0.000644 -0.005966 0.000000 0.006380 0.000000
# 2 -0.000644 0.008926 -0.003951 0.000000 0.002184 0.000000
# 3 -0.005966 -0.003951 0.016220 0.000000 -0.000940 0.000000
# 4 0.000000 0.000000 0.000000 0.028446 0.000000 0.012265
# 5 0.006380 0.002184 -0.000940 0.000000 0.041666 0.000000
# 6 0.000000 0.000000 0.000000 0.012265 0.000000 -0.109996
#
#
# Mechanical properties :
#
#
# Convention : Reuss Voigt Hill
#
# Bulk Modulus (GPa) = 40.02202 48.06155 44.04179
# Shear Modulus (GPa) = 140.16556 22.77044 81.46800
#
# Velocity S-wave (km/s) = 7.65069 3.08366 5.83275
# Velocity P-wave (km/s) = 9.73434 5.72268 7.98456
#
# Compressibility (1/GPa) = 0.02498624
#
# Stress axis : x y z
#
# Youngs Moduli (GPa) = 47.70686 112.03355 61.65389
#
# Poissons Ratio (x) = 0.07216 0.36781
# Poissons Ratio (y) = 0.03073 0.24357
# Poissons Ratio (z) = 0.28460 0.44259
#
# Static dielectric constant tensor:
#      x y z
#    x 1.899160 0.000000 0.000070 
#    y 0.000000 1.928130 0.000000 
#    z 0.000070 0.000000 1.965210 
# 
# From -- ./inp_files/34110.got.cif
#   From: 2010.05.17/outbox.cif.g08.bks.cpg/sg15_18_cif.got.tgz:34110.got - 2010.06.03 18:47:42.
