data_PCOD9256024
_publ_section_title
;
Structure prediction by ZEFSAII (Michael W. Deem and Ramdas Pophale) SiO2 
 PCOD9256024
Probable space group: C 2/C
;
_chemical_formula_sum "Si O2"
_cell_formula_units_Z 56
_cell_length_a 17.581274
_cell_length_b 18.182794
_cell_length_c 11.797083
_cell_angle_alpha 90.000000
_cell_angle_beta 145.247247
_cell_angle_gamma 90.000000
_cell_volume 2149.750524
_symmetry_space_group_name_H-M "C 2/C"
_symmetry_group_IT_number 15
_symmetry_cell_setting 'monoclinic'
loop_
_space_group_symop_operation_xyz
x,y,z
-x,y,1/2-z
-x,-y,-z
x,-y,1/2+z
1/2+x,1/2+y,z
1/2-x,1/2+y,1/2-z
1/2-x,1/2-y,-z
1/2+x,1/2-y,1/2+z
loop_
_atom_site_type_symbol
_atom_site_label
_atom_site_fract_x
_atom_site_fract_y
_atom_site_fract_z
Si Si1 0.692039 0.504772 0.771183
Si Si2 0.535035 0.616347 0.999023
Si Si3 0.750882 0.339833 0.603026
Si Si4 0.638697 0.132458 0.478733
Si Si5 0.854731 0.504657 0.760710
Si Si6 0.101793 0.757513 0.027451
Si Si7 0.345714 0.834419 0.232274
O O1 0.566640 0.551537 0.659818
O O2 0.651402 0.420368 0.719949
O O3 0.722955 0.519095 0.677201
O O4 0.822337 0.545321 0.978646
O O5 0.455247 0.671563 0.978445
O O6 0.604406 0.651571 0.975749
O O7 0.758203 0.325102 0.477415
O O8 0.824301 0.419736 0.695881
O O9 0.823514 0.290556 0.785267
O O10 0.500000 0.148206 0.250000
O O11 0.634998 0.155219 0.605594
O O12 0.851961 0.582246 0.690051
O O13 0.000000 0.500000 0.000000
O O14 0.207860 0.787938 0.065060
O O15 0.971042 0.710148 0.838173
#
# Coordination Sequence:
#
# PCOD9256024 Si02
#       7
#     8   8   8   8   8   8   8
#     4   9  20  36  54  73 109 151 191 235 276 330
#     4  10  20  37  53  74 111 152 196 233 273 336
#     4  11  22  31  54  82 111 145 195 227 292 344
#     4  11  20  37  51  80 115 152 184 233 284 346
#     4  10  17  34  54  74 103 143 188 243 263 328
#     4  12  20  36  52  81 113 154 186 229 279 344
#     4  11  23  37  53  79 121 151 194 227 285 341
#
# _framework density 26.049534000000001
#
# number of rings (size 3 to 8) (size 9 to 14) (size 15 to 20)
#    0.000    1.429    7.143    0.857    0.000    1.143 
#    2.571    0.000    0.000    0.000    0.000    1.000 
#   12.857    0.000    0.000    0.000    0.000    0.000 
#
# Total GULP energy -156207.004846 kJ/mol
# GULP energy per Si atom -5578.821602 kJ/mol
# Density = 2.599024 g / cm^3
# Si number density = 26.049534 Si / 1000 Ang^3
#
#
#
# Elastic Constant Matrix: (Units=GPa)
#
#
# Indices 1 2 3 4 5 6 
#
# 1 111.2408 21.8463 35.6130 0.0000 28.0878 0.0000
# 2 21.8463 133.6666 29.8117 0.0000 7.1644 0.0000
# 3 35.6130 29.8117 77.1891 0.0000 19.8261 0.0000
# 4 0.0000 0.0000 0.0000 50.3653 0.0000 20.5429
# 5 28.0878 7.1644 19.8261 0.0000 41.0001 0.0000
# 6 0.0000 0.0000 0.0000 20.5429 0.0000 19.2925
#
#
#
# Elastic Compliance Matrix: (Units=1/GPa)
#
#
# Indices 1 2 3 4 5 6 
#
# 1 0.011870 -0.000812 -0.003552 0.000000 -0.006272 0.000000
# 2 -0.000812 0.008242 -0.002948 0.000000 0.000541 0.000000
# 3 -0.003552 -0.002948 0.017099 0.000000 -0.005320 0.000000
# 4 0.000000 0.000000 0.000000 0.035099 0.000000 -0.037374
# 5 -0.006272 0.000541 -0.005320 0.000000 0.031165 0.000000
# 6 0.000000 0.000000 0.000000 -0.037374 0.000000 0.091629
#
#
# Mechanical properties :
#
#
# Convention : Reuss Voigt Hill
#
# Bulk Modulus (GPa) = 44.27087 55.18203 49.72645
# Shear Modulus (GPa) = 23.01426 37.78662 30.40044
#
# Velocity S-wave (km/s) = 2.97556 3.81276 3.41988
# Velocity P-wave (km/s) = 5.37002 6.37278 5.89277
#
# Compressibility (1/GPa) = 0.02258822
#
# Stress axis : x y z
#
# Youngs Moduli (GPa) = 84.24806 121.32372 58.48324
#
# Poissons Ratio (x) = 0.09847 0.20773
# Poissons Ratio (y) = 0.06838 0.17240
# Poissons Ratio (z) = 0.29924 0.35765
#
# Static dielectric constant tensor:
#      x y z
#    x 2.128570 0.000000 -0.055970 
#    y 0.000000 2.162960 0.000000 
#    z -0.055970 0.000000 2.130340 
# 
# From -- ./inp_files/219850.got.cif
#   From: 2010.05.17/outbox.cif.g08.bks.cpg/sg15_110_cif.got.tgz:219850.got - 2010.06.03 18:47:42.
