data_PCOD9256350
_publ_section_title
;
Structure prediction by ZEFSAII (Michael W. Deem and Ramdas Pophale) SiO2 
 PCOD9256350
Probable space group: C 2/C
;
_chemical_formula_sum "Si O2"
_cell_formula_units_Z 60
_cell_length_a 11.854774
_cell_length_b 28.937744
_cell_length_c 9.334297
_cell_angle_alpha 90.000000
_cell_angle_beta 78.883157
_cell_angle_gamma 90.000000
_cell_volume 3142.049696
_symmetry_space_group_name_H-M "C 2/C"
_symmetry_group_IT_number 15
_symmetry_cell_setting 'monoclinic'
loop_
_space_group_symop_operation_xyz
x,y,z
-x,y,1/2-z
-x,-y,-z
x,-y,1/2+z
1/2+x,1/2+y,z
1/2-x,1/2+y,1/2-z
1/2-x,1/2-y,-z
1/2+x,1/2-y,1/2+z
loop_
_atom_site_type_symbol
_atom_site_label
_atom_site_fract_x
_atom_site_fract_y
_atom_site_fract_z
Si Si1 0.413599 0.518333 0.641303
Si Si2 0.666108 0.580937 0.316659
Si Si3 0.350757 0.217639 0.046176
Si Si4 0.416463 0.605361 0.479688
Si Si5 0.500000 0.215810 0.750000
Si Si6 0.367278 0.149888 0.307023
Si Si7 0.186348 0.285944 0.416022
Si Si8 0.101606 0.190743 0.828791
O O1 0.500000 0.526082 0.750000
O O2 0.500000 0.500000 0.500000
O O3 0.329614 0.474965 0.685427
O O4 0.365398 0.566879 0.599616
O O5 0.554516 0.597275 0.435568
O O6 0.634173 0.595821 0.163475
O O7 0.780091 0.607080 0.336564
O O8 0.326229 0.181804 0.180834
O O9 0.423935 0.257637 0.109092
O O10 0.250000 0.250000 0.000000
O O11 0.419036 0.194410 0.895954
O O12 0.390329 0.656106 0.541221
O O13 0.404796 0.238199 0.669222
O O14 0.500000 0.137139 0.250000
O O15 0.363745 0.177781 0.457822
O O16 0.250000 0.250000 0.500000
O O17 0.281838 0.308452 0.290450
O O18 0.000000 0.174941 0.750000
#
# Coordination Sequence:
#
# PCOD9256350 Si02
#       8
#     8   8   8   8   4   8   8   8
#     4  10  17  36  62  92 127 155 187 252 330 385
#     4  10  21  38  62  92 125 162 203 252 317 388
#     4  12  23  40  61  84 119 167 213 264 311 358
#     4  10  21  37  62  99 125 153 200 262 326 382
#     4  12  24  40  62  86 118 170 220 258 306 376
#     4  12  24  42  62  83 127 177 211 254 312 377
#     4  12  24  42  61  88 122 165 216 263 312 369
#     4  12  23  36  58  90 123 158 207 261 316 374
#
# _framework density 19.095815000000002
#
# number of rings (size 3 to 8) (size 9 to 14) (size 15 to 20)
#    0.000    0.800    6.667    3.200    0.000    3.200 
#    0.000    0.000    0.000    0.800    1.733    0.000 
#    0.000    0.000    0.000    0.000    0.000    0.000 
#
# Total GULP energy -167204.511999 kJ/mol
# GULP energy per Si atom -5573.483733 kJ/mol
# Density = 1.905235 g / cm^3
# Si number density = 19.095815 Si / 1000 Ang^3
#
#
#
# Elastic Constant Matrix: (Units=GPa)
#
#
# Indices 1 2 3 4 5 6 
#
# 1 105.8022 21.6812 23.6903 0.0000 8.7243 0.0000
# 2 21.6812 91.4935 18.4360 0.0000 -2.8783 0.0000
# 3 23.6903 18.4360 105.3463 0.0000 -0.4462 0.0000
# 4 0.0000 0.0000 0.0000 32.6333 0.0000 -4.0755
# 5 8.7243 -2.8783 -0.4462 0.0000 36.9397 0.0000
# 6 0.0000 0.0000 0.0000 -4.0755 0.0000 18.3485
#
#
#
# Elastic Compliance Matrix: (Units=1/GPa)
#
#
# Indices 1 2 3 4 5 6 
#
# 1 0.010570 -0.002185 -0.002006 0.000000 -0.002691 0.000000
# 2 -0.002185 0.011808 -0.001569 0.000000 0.001417 0.000000
# 3 -0.002006 -0.001569 0.010220 0.000000 0.000475 0.000000
# 4 0.000000 0.000000 0.000000 0.031518 0.000000 0.007001
# 5 -0.002691 0.001417 0.000475 0.000000 0.027823 0.000000
# 6 0.000000 0.000000 0.000000 0.007001 0.000000 0.056055
#
#
# Mechanical properties :
#
#
# Convention : Reuss Voigt Hill
#
# Bulk Modulus (GPa) = 47.44242 47.80633 47.62437
# Shear Modulus (GPa) = 30.02245 33.50661 31.76453
#
# Velocity S-wave (km/s) = 3.96940 4.19341 4.08294
# Velocity P-wave (km/s) = 6.77544 6.96675 6.87176
#
# Compressibility (1/GPa) = 0.02107818
#
# Stress axis : x y z
#
# Youngs Moduli (GPa) = 94.60302 84.68588 97.84519
#
# Poissons Ratio (x) = 0.18507 0.19628
# Poissons Ratio (y) = 0.20674 0.15353
# Poissons Ratio (z) = 0.18978 0.13288
#
# Static dielectric constant tensor:
#      x y z
#    x 1.735890 0.000000 0.028200 
#    y 0.000000 1.693270 0.000000 
#    z 0.028200 0.000000 1.761000 
# 
# From -- ./inp_files/35208.got.cif
#   From: 2010.05.17/outbox.cif.g08.bks.cpg/sg15_18_cif.got.tgz:35208.got - 2010.06.03 18:47:42.
