data_PCOD9256888
_publ_section_title
;
Structure prediction by ZEFSAII (Michael W. Deem and Ramdas Pophale) SiO2 
 PCOD9256888
Probable space group: C 2/C
;
_chemical_formula_sum "Si O2"
_cell_formula_units_Z 64
_cell_length_a 27.461713
_cell_length_b 19.197087
_cell_length_c 22.290292
_cell_angle_alpha 90.000000
_cell_angle_beta 19.584906
_cell_angle_gamma 90.000000
_cell_volume 3939.010217
_symmetry_space_group_name_H-M "C 2/C"
_symmetry_group_IT_number 15
_symmetry_cell_setting 'monoclinic'
loop_
_space_group_symop_operation_xyz
x,y,z
-x,y,1/2-z
-x,-y,-z
x,-y,1/2+z
1/2+x,1/2+y,z
1/2-x,1/2+y,1/2-z
1/2-x,1/2-y,-z
1/2+x,1/2-y,1/2+z
loop_
_atom_site_type_symbol
_atom_site_label
_atom_site_fract_x
_atom_site_fract_y
_atom_site_fract_z
Si Si1 0.651253 0.296827 0.520020
Si Si2 0.791838 0.948735 0.022932
Si Si3 0.003103 0.801142 0.994222
Si Si4 0.160654 0.476117 0.298167
Si Si5 0.044727 0.049786 0.503496
Si Si6 0.710923 0.181136 0.772656
Si Si7 0.356196 0.676833 0.300700
Si Si8 0.891864 0.021493 0.286207
O O1 0.708963 0.365533 0.487628
O O2 0.720447 0.305034 0.372902
O O3 0.479557 0.301077 0.706023
O O4 0.715614 0.225142 0.469660
O O5 0.676620 0.966802 0.207631
O O6 0.795203 0.992232 0.957532
O O7 0.947996 0.960312 0.873512
O O8 0.831618 0.798876 0.181262
O O9 0.040328 0.870143 0.988690
O O10 0.071414 0.730414 0.940670
O O11 0.073999 0.810291 0.845912
O O12 0.293263 0.526068 0.164570
O O13 0.184444 0.401285 0.302153
O O14 0.000000 0.500000 0.500000
O O15 0.000000 0.000000 0.500000
O O16 0.929377 0.033061 0.690782
O O17 0.331807 0.594253 0.330637
#
# Coordination Sequence:
#
# PCOD9256888 Si02
#       8
#     8   8   8   8   8   8   8   8
#     4   8  15  26  41  60  91 125 159 191 229 274
#     4   8  16  31  44  66  94 126 161 202 237 292
#     4  10  18  30  47  71 101 128 164 203 249 294
#     4  10  20  33  51  75 104 129 163 205 253 298
#     4  11  18  32  51  74  97 131 171 210 243 289
#     4   9  18  30  45  70 101 129 160 202 248 296
#     4   9  15  26  41  64  90 127 159 193 230 275
#     4   9  16  28  49  65  92 126 168 203 234 278
#
# _framework density 16.247737000000001
#
# number of rings (size 3 to 8) (size 9 to 14) (size 15 to 20)
#    0.000    2.750    2.500    1.500    1.750    0.500 
#    2.250    0.000    0.000    2.250    0.000    0.875 
#    0.000    0.000    0.000    0.000    0.000    0.000 
#
# Total GULP energy -178173.735866 kJ/mol
# GULP energy per Si atom -5567.929246 kJ/mol
# Density = 1.621076 g / cm^3
# Si number density = 16.247737 Si / 1000 Ang^3
#
#
#
# Elastic Constant Matrix: (Units=GPa)
#
#
# Indices 1 2 3 4 5 6 
#
# 1 56.0626 28.7580 33.5209 -0.0011 2.5443 0.0000
# 2 28.7580 53.3709 31.0178 0.0039 -5.2068 -0.0034
# 3 33.5209 31.0178 87.1506 0.0019 3.9360 0.0004
# 4 -0.0011 0.0039 0.0019 26.0711 -0.0009 0.1743
# 5 2.5443 -5.2068 3.9360 -0.0009 23.5565 0.0002
# 6 0.0000 -0.0034 0.0004 0.1743 0.0002 23.6696
#
#
#
# Elastic Compliance Matrix: (Units=1/GPa)
#
#
# Indices 1 2 3 4 5 6 
#
# 1 0.027869 -0.011791 -0.006317 0.000003 -0.004561 -0.000002
# 2 -0.011791 0.029702 -0.006439 -0.000004 0.008914 0.000004
# 3 -0.006317 -0.006439 0.016353 -0.000001 -0.003473 -0.000001
# 4 0.000003 -0.000004 -0.000001 0.038358 0.000000 -0.000283
# 5 -0.004561 0.008914 -0.003473 0.000000 0.045495 0.000001
# 6 -0.000002 0.000004 -0.000001 -0.000283 0.000001 0.042250
#
#
# Mechanical properties :
#
#
# Convention : Reuss Voigt Hill
#
# Bulk Modulus (GPa) = 40.27235 42.57529 41.42382
# Shear Modulus (GPa) = 19.42526 21.54527 20.48527
#
# Velocity S-wave (km/s) = 3.46145 3.64544 3.55464
# Velocity P-wave (km/s) = 6.38872 6.63172 6.51135
#
# Compressibility (1/GPa) = 0.02483093
#
# Stress axis : x y z
#
# Youngs Moduli (GPa) = 35.88162 33.66815 61.15230
#
# Poissons Ratio (x) = 0.39697 0.38631
# Poissons Ratio (y) = 0.42306 0.39374
# Poissons Ratio (z) = 0.22667 0.21678
#
# Static dielectric constant tensor:
#      x y z
#    x 1.588620 0.000000 0.021950 
#    y 0.000000 1.535610 0.000000 
#    z 0.021950 0.000000 1.565320 
# 
# From -- ./inp_files/284802.got.cif
#   From: 2010.05.17/outbox.cif.g08.bks.cpg/sg15_143_cif.got.tgz:284802.got - 2010.06.03 18:47:42.
