data_PCOD9256661
_publ_section_title
;
Structure prediction by ZEFSAII (Michael W. Deem and Ramdas Pophale) SiO2 
 PCOD9256661
Probable space group: C 2/C
;
_chemical_formula_sum "Si O2"
_cell_formula_units_Z 56
_cell_length_a 12.755597
_cell_length_b 25.068180
_cell_length_c 14.136967
_cell_angle_alpha 90.000000
_cell_angle_beta 146.791280
_cell_angle_gamma 90.000000
_cell_volume 2475.797380
_symmetry_space_group_name_H-M "C 2/C"
_symmetry_group_IT_number 15
_symmetry_cell_setting 'monoclinic'
loop_
_space_group_symop_operation_xyz
x,y,z
-x,y,1/2-z
-x,-y,-z
x,-y,1/2+z
1/2+x,1/2+y,z
1/2-x,1/2+y,1/2-z
1/2-x,1/2-y,-z
1/2+x,1/2-y,1/2+z
loop_
_atom_site_type_symbol
_atom_site_label
_atom_site_fract_x
_atom_site_fract_y
_atom_site_fract_z
Si Si1 0.287056 0.522124 0.814509
Si Si2 0.767349 0.078798 0.191225
Si Si3 0.766062 0.083929 0.976152
Si Si4 0.198224 0.776934 0.362320
Si Si5 0.669350 0.322495 0.637979
Si Si6 0.864862 0.801991 0.558140
Si Si7 0.406070 0.621411 0.778261
O O1 0.193078 0.470968 0.695149
O O2 0.316412 0.571145 0.765002
O O3 0.500000 0.500000 0.000000
O O4 0.195566 0.545091 0.841097
O O5 0.701120 0.074442 0.033707
O O6 0.732677 0.133645 0.221479
O O7 0.001014 0.078129 0.357692
O O8 0.736084 0.146883 0.936312
O O9 0.250000 0.750000 0.500000
O O10 0.196126 0.726374 0.291942
O O11 0.259333 0.832485 0.361418
O O12 0.000000 0.800053 0.250000
O O13 0.501672 0.294536 0.571717
O O14 0.565914 0.353108 0.472002
O O15 0.750000 0.750000 0.500000
O O16 0.000000 0.816135 0.750000
O O17 0.500000 0.600941 0.750000
#
# Coordination Sequence:
#
# PCOD9256661 Si02
#       7
#     8   8   8   8   8   8   8
#     4  10  18  28  50  81 115 148 182 245 305 332
#     4   9  17  29  51  77 112 145 183 235 298 336
#     4   9  16  32  44  74 115 140 178 235 280 335
#     4  11  23  40  57  83 119 155 196 245 293 353
#     4  11  20  37  55  81 116 152 187 239 289 344
#     4  11  22  35  54  80 113 151 188 224 276 339
#     4  11  21  32  53  82 116 144 191 240 295 345
#
# _framework density 22.618976
#
# number of rings (size 3 to 8) (size 9 to 14) (size 15 to 20)
#    0.000    1.714   10.000    0.000    6.000    0.000 
#    0.000    0.000    0.000    0.000    0.000    4.000 
#    0.000    0.000    0.000    0.000    0.000    0.000 
#
# Total GULP energy -155965.454066 kJ/mol
# GULP energy per Si atom -5570.194788 kJ/mol
# Density = 2.256749 g / cm^3
# Si number density = 22.618976 Si / 1000 Ang^3
#
#
#
# Elastic Constant Matrix: (Units=GPa)
#
#
# Indices 1 2 3 4 5 6 
#
# 1 105.4344 69.4630 35.9371 0.0000 -48.7870 -0.0001
# 2 69.4630 193.3126 24.1946 0.0000 -34.4870 0.0000
# 3 35.9371 24.1946 43.0560 0.0000 -14.3429 -0.0001
# 4 0.0000 0.0000 0.0000 25.2912 0.0000 -13.6045
# 5 -48.7870 -34.4870 -14.3429 0.0000 38.1952 -0.0001
# 6 -0.0001 0.0000 -0.0001 -13.6045 -0.0001 35.6869
#
#
#
# Elastic Compliance Matrix: (Units=1/GPa)
#
#
# Indices 1 2 3 4 5 6 
#
# 1 0.030939 -0.003926 -0.013297 0.000000 0.030980 0.000000
# 2 -0.003926 0.006795 -0.000192 0.000000 0.001048 0.000000
# 3 -0.013297 -0.000192 0.032822 0.000000 -0.004832 0.000000
# 4 0.000000 0.000000 0.000000 0.049739 0.000000 0.018961
# 5 0.030980 0.001048 -0.004832 0.000000 0.064884 0.000000
# 6 0.000000 0.000000 0.000000 0.018961 0.000000 0.035250
#
#
# Mechanical properties :
#
#
# Convention : Reuss Voigt Hill
#
# Bulk Modulus (GPa) = 27.99140 66.77694 47.38417
# Shear Modulus (GPa) = 18.71489 33.98188 26.34839
#
# Velocity S-wave (km/s) = 2.87957 3.88024 3.41674
# Velocity P-wave (km/s) = 4.84334 7.04710 6.04647
#
# Compressibility (1/GPa) = 0.03572525
#
# Stress axis : x y z
#
# Youngs Moduli (GPa) = 32.32206 147.17224 30.46734
#
# Poissons Ratio (x) = 0.57782 0.40512
# Poissons Ratio (y) = 0.12690 0.00585
# Poissons Ratio (z) = 0.42978 0.02827
#
# Static dielectric constant tensor:
#      x y z
#    x 1.813780 0.000000 0.018030 
#    y 0.000000 1.802080 0.000000 
#    z 0.018030 0.000000 1.974130 
# 
# From -- ./inp_files/156645.got.cif
#   From: 2010.05.17/outbox.cif.g08.bks.cpg/sg15_79_cif.got.tgz:156645.got - 2010.06.03 18:47:42.
