data_PCOD9256489
_publ_section_title
;
Structure prediction by ZEFSAII (Michael W. Deem and Ramdas Pophale) SiO2 
 PCOD9256489
Probable space group: C 2/C
;
_chemical_formula_sum "Si O2"
_cell_formula_units_Z 48
_cell_length_a 20.040611
_cell_length_b 18.576761
_cell_length_c 5.503617
_cell_angle_alpha 90.000000
_cell_angle_beta 79.246179
_cell_angle_gamma 90.000000
_cell_volume 2012.956030
_symmetry_space_group_name_H-M "C 2/C"
_symmetry_group_IT_number 15
_symmetry_cell_setting 'monoclinic'
loop_
_space_group_symop_operation_xyz
x,y,z
-x,y,1/2-z
-x,-y,-z
x,-y,1/2+z
1/2+x,1/2+y,z
1/2-x,1/2+y,1/2-z
1/2-x,1/2-y,-z
1/2+x,1/2-y,1/2+z
loop_
_atom_site_type_symbol
_atom_site_label
_atom_site_fract_x
_atom_site_fract_y
_atom_site_fract_z
Si Si1 0.225447 0.435174 0.995541
Si Si2 0.904251 0.532784 0.422472
Si Si3 0.786323 0.111500 0.954437
Si Si4 0.422493 0.453475 0.303805
Si Si5 0.853802 0.694951 0.442933
Si Si6 0.172656 0.278101 0.041632
O O1 0.172881 0.500806 0.027214
O O2 0.271020 0.424479 0.726915
O O3 0.176629 0.365046 0.032843
O O4 0.268274 0.426741 0.210265
O O5 0.933058 0.499528 0.153676
O O6 0.895817 0.619408 0.419690
O O7 0.867129 0.109099 0.879150
O O8 0.727334 0.172843 0.997873
O O9 0.500000 0.427492 0.250000
O O10 0.413739 0.505722 0.548089
O O11 0.862320 0.738423 0.188843
O O12 0.863941 0.739277 0.682466
O O13 0.250000 0.250000 0.000000
#
# Coordination Sequence:
#
# PCOD9256489 Si02
#       6
#     8   8   8   8   8   8
#     4  10  19  26  38  59  62  86 111 136 182 201
#     4  12  16  25  36  51  74  74 103 149 158 209
#     4  10  18  25  39  48  67  80 111 139 161 210
#     4  10  21  29  35  49  68  90 111 131 173 223
#     4  10  19  26  38  57  62  88 115 132 180 203
#     4  10  18  29  37  48  72  88 106 133 165 220
#
# _framework density 23.845528999999999
#
# number of rings (size 3 to 8) (size 9 to 14) (size 15 to 20)
#    0.000    1.667    6.667    1.500    4.667    0.000 
#    0.000    0.000    0.000    0.000    0.000    0.000 
#    0.000    0.000    0.000    0.000    0.000    0.000 
#
# Total GULP energy -133766.265799 kJ/mol
# GULP energy per Si atom -5573.594408 kJ/mol
# Density = 2.379126 g / cm^3
# Si number density = 23.845529 Si / 1000 Ang^3
#
#
#
# Elastic Constant Matrix: (Units=GPa)
#
#
# Indices 1 2 3 4 5 6 
#
# 1 63.7791 -2.7886 36.8822 0.0000 -17.0347 0.0000
# 2 -2.7886 58.8349 25.5792 0.0000 7.2991 0.0000
# 3 36.8822 25.5792 279.7065 0.0000 24.9703 0.0000
# 4 0.0000 0.0000 0.0000 21.2956 0.0000 3.8546
# 5 -17.0347 7.2991 24.9703 0.0000 31.0660 0.0000
# 6 0.0000 0.0000 0.0000 3.8546 0.0000 -1.7012
#
#
#
# Elastic Compliance Matrix: (Units=1/GPa)
#
#
# Indices 1 2 3 4 5 6 
#
# 1 0.022491 0.001062 -0.004462 0.000000 0.015669 0.000000
# 2 0.001062 0.018028 -0.001576 0.000000 -0.002387 0.000000
# 3 -0.004462 -0.001576 0.004840 0.000000 -0.005967 0.000000
# 4 0.000000 0.000000 0.000000 0.033301 0.000000 0.075452
# 5 0.015669 -0.002387 -0.005967 0.000000 0.046138 0.000000
# 6 0.000000 0.000000 0.000000 0.075452 0.000000 -0.416853
#
#
# Mechanical properties :
#
#
# Convention : Reuss Voigt Hill
#
# Bulk Modulus (GPa) = 28.24193 57.96291 43.10242
# Shear Modulus (GPa) = -18.49788 32.97525 7.23868
#
# Velocity S-wave (km/s) = -2.78823 3.72273 1.74420
# Velocity P-wave (km/s) = 1.22629 6.54513 4.70864
#
# Compressibility (1/GPa) = 0.03540834
#
# Stress axis : x y z
#
# Youngs Moduli (GPa) = 44.46299 55.46869 206.60145
#
# Poissons Ratio (x) = -0.05890 0.92176
# Poissons Ratio (y) = -0.04721 0.32552
# Poissons Ratio (z) = 0.19837 0.08739
#
# Static dielectric constant tensor:
#      x y z
#    x 1.905180 0.000000 0.041460 
#    y 0.000000 2.073870 0.000000 
#    z 0.041460 0.000000 2.142650 
# 
# From -- ./inp_files/17271.got.cif
#   From: 2010.05.17/outbox.cif.g08.bks.cpg/sg15_9_cif.got.tgz:17271.got - 2010.06.03 18:47:42.
