data_PCOD9256548
_publ_section_title
;
Structure prediction by ZEFSAII (Michael W. Deem and Ramdas Pophale) SiO2 
 PCOD9256548
Probable space group: C 2/C
;
_chemical_formula_sum "Si O2"
_cell_formula_units_Z 40
_cell_length_a 15.740693
_cell_length_b 8.760934
_cell_length_c 12.887983
_cell_angle_alpha 90.000000
_cell_angle_beta 120.871485
_cell_angle_gamma 90.000000
_cell_volume 1525.487439
_symmetry_space_group_name_H-M "C 2/C"
_symmetry_group_IT_number 15
_symmetry_cell_setting 'monoclinic'
loop_
_space_group_symop_operation_xyz
x,y,z
-x,y,1/2-z
-x,-y,-z
x,-y,1/2+z
1/2+x,1/2+y,z
1/2-x,1/2+y,1/2-z
1/2-x,1/2-y,-z
1/2+x,1/2-y,1/2+z
loop_
_atom_site_type_symbol
_atom_site_label
_atom_site_fract_x
_atom_site_fract_y
_atom_site_fract_z
Si Si1 0.055566 0.691610 0.995214
Si Si2 0.929242 0.309069 0.623095
Si Si3 0.718056 0.927538 0.108317
Si Si4 0.131755 0.404100 0.267000
Si Si5 0.106410 0.101083 0.368173
O O1 0.144619 0.571832 0.047409
O O2 0.009356 0.680200 0.079160
O O3 0.089440 0.858489 0.978024
O O4 0.969004 0.637940 0.860501
O O5 0.835004 0.290189 0.486501
O O6 0.888351 0.447266 0.674229
O O7 0.000000 0.223991 0.750000
O O8 0.821858 0.967264 0.121952
O O9 0.715704 0.910247 0.230967
O O10 0.151676 0.258441 0.351003
O O11 0.000000 0.087678 0.250000
#
# Coordination Sequence:
#
# PCOD9256548 Si02
#       5
#     8   8   8   8   8
#     4  10  18  27  48  81 108 125 166 216 257 299
#     4  11  16  28  49  83 110 130 158 217 264 298
#     4  11  19  29  52  81 102 140 169 206 260 306
#     4  10  18  30  50  79 111 128 166 219 257 294
#     4  10  21  34  50  79 107 133 175 213 244 303
#
# _framework density 26.221128
#
# number of rings (size 3 to 8) (size 9 to 14) (size 15 to 20)
#    0.000    1.600    6.000    2.400    0.000    0.000 
#    0.000    0.000    0.000   12.000    5.200    0.000 
#    0.000    0.000    0.000    0.000    0.000    0.000 
#
# Total GULP energy -111556.278319 kJ/mol
# GULP energy per Si atom -5577.813916 kJ/mol
# Density = 2.616145 g / cm^3
# Si number density = 26.221128 Si / 1000 Ang^3
#
#
#
# Elastic Constant Matrix: (Units=GPa)
#
#
# Indices 1 2 3 4 5 6 
#
# 1 157.2913 25.7185 40.4960 0.0000 -19.2915 0.0000
# 2 25.7185 66.1496 15.1750 0.0000 -22.5745 0.0000
# 3 40.4960 15.1750 125.3249 0.0000 -37.3961 0.0000
# 4 0.0000 0.0000 0.0000 -4.5116 0.0000 3.2450
# 5 -19.2915 -22.5745 -37.3961 0.0000 47.3888 0.0000
# 6 0.0000 0.0000 0.0000 3.2450 0.0000 29.3756
#
#
#
# Elastic Compliance Matrix: (Units=1/GPa)
#
#
# Indices 1 2 3 4 5 6 
#
# 1 0.007278 -0.002266 -0.001982 0.000000 0.000319 0.000000
# 2 -0.002266 0.018781 0.001115 0.000000 0.008904 0.000000
# 3 -0.001982 0.001115 0.010990 0.000000 0.008397 0.000000
# 4 0.000000 0.000000 0.000000 -0.205335 0.000000 0.022683
# 5 0.000319 0.008904 0.008397 0.000000 0.032100 0.000000
# 6 0.000000 0.000000 0.000000 0.022683 0.000000 0.031536
#
#
# Mechanical properties :
#
#
# Convention : Reuss Voigt Hill
#
# Bulk Modulus (GPa) = 32.48516 56.83832 44.66174
# Shear Modulus (GPa) = -56.73910 32.27565 -12.23173
#
# Velocity S-wave (km/s) = -4.65679 3.51223 -2.16217
# Velocity P-wave (km/s) = 4.06182 6.17829 3.29187
#
# Compressibility (1/GPa) = 0.03078329
#
# Stress axis : x y z
#
# Youngs Moduli (GPa) = 137.40906 53.24509 90.98899
#
# Poissons Ratio (x) = 0.12065 0.18034
# Poissons Ratio (y) = 0.31135 -0.10145
# Poissons Ratio (z) = 0.27234 -0.05937
#
# Static dielectric constant tensor:
#      x y z
#    x 2.101360 0.000000 0.008480 
#    y 0.000000 2.221590 0.000000 
#    z 0.008480 0.000000 2.047450 
# 
# From -- ./inp_files/95135.got.cif
#   From: 2010.05.17/outbox.cif.g08.bks.cpg/sg15_48_cif.got.tgz:95135.got - 2010.06.03 18:47:42.
