data_PCOD9256755
_publ_section_title
;
Structure prediction by ZEFSAII (Michael W. Deem and Ramdas Pophale) SiO2 
 PCOD9256755
Probable space group: C 2/C
;
_chemical_formula_sum "Si O2"
_cell_formula_units_Z 56
_cell_length_a 14.629398
_cell_length_b 22.771675
_cell_length_c 15.661580
_cell_angle_alpha 90.000000
_cell_angle_beta 139.433245
_cell_angle_gamma 90.000000
_cell_volume 3393.072710
_symmetry_space_group_name_H-M "C 2/C"
_symmetry_group_IT_number 15
_symmetry_cell_setting 'monoclinic'
loop_
_space_group_symop_operation_xyz
x,y,z
-x,y,1/2-z
-x,-y,-z
x,-y,1/2+z
1/2+x,1/2+y,z
1/2-x,1/2+y,1/2-z
1/2-x,1/2-y,-z
1/2+x,1/2-y,1/2+z
loop_
_atom_site_type_symbol
_atom_site_label
_atom_site_fract_x
_atom_site_fract_y
_atom_site_fract_z
Si Si1 0.245199 0.681824 0.018780
Si Si2 0.000000 0.619683 0.750000
Si Si3 0.201385 0.482597 0.090398
Si Si4 0.552674 0.073369 0.195263
Si Si5 0.000000 0.996549 0.250000
Si Si6 0.952212 0.092036 0.069414
Si Si7 0.265009 0.114973 0.317686
Si Si8 0.211453 0.458731 0.292506
O O1 0.366508 0.644212 0.056059
O O2 0.247749 0.665460 0.120569
O O3 0.250000 0.750000 0.000000
O O4 0.098520 0.658047 0.879208
O O5 0.099378 0.579547 0.763507
O O6 0.354561 0.464022 0.165171
O O7 0.206252 0.553533 0.109475
O O8 0.185292 0.456422 0.173349
O O9 0.075791 0.462053 0.940758
O O10 0.500000 0.094936 0.250000
O O11 0.615324 0.118247 0.169751
O O12 0.678161 0.025644 0.296134
O O13 0.034064 0.039033 0.353450
O O14 0.112101 0.109903 0.165311
O O15 0.862248 0.066327 0.927363
#
# Coordination Sequence:
#
# PCOD9256755 Si02
#       8
#     8   4   8   8   4   8   8   8
#     4  11  21  33  53  73 101 137 175 219 275 317
#     4  10  20  31  48  74 102 132 173 218 252 308
#     4  10  19  31  48  71 107 142 180 204 255 315
#     4  11  20  30  51  75 104 140 184 208 254 316
#     4  10  18  29  48  66 102 144 161 218 248 306
#     4  10  19  33  48  69 107 134 176 210 267 315
#     4  10  20  34  49  70 109 140 167 229 261 308
#     4  10  19  30  47  72 103 143 174 208 252 315
#
# _framework density 16.504213
#
# number of rings (size 3 to 8) (size 9 to 14) (size 15 to 20)
#    0.000    1.714    3.571    4.286    2.000    6.286 
#    0.000    0.000    0.000    0.000    0.000    1.000 
#    8.571    0.000    0.000    0.000    0.000    0.000 
#
# Total GULP energy -156156.202684 kJ/mol
# GULP energy per Si atom -5577.007239 kJ/mol
# Density = 1.646665 g / cm^3
# Si number density = 16.504213 Si / 1000 Ang^3
#
#
#
# Elastic Constant Matrix: (Units=GPa)
#
#
# Indices 1 2 3 4 5 6 
#
# 1 89.6195 14.1262 30.1541 0.0000 -0.5004 0.0000
# 2 14.1262 49.8080 23.3464 0.0000 -4.0848 0.0000
# 3 30.1541 23.3464 87.0953 0.0000 4.6030 0.0000
# 4 0.0000 0.0000 0.0000 5.5764 0.0000 -7.6837
# 5 -0.5004 -4.0848 4.6030 0.0000 29.4025 0.0000
# 6 0.0000 0.0000 0.0000 -7.6837 0.0000 8.9952
#
#
#
# Elastic Compliance Matrix: (Units=1/GPa)
#
#
# Indices 1 2 3 4 5 6 
#
# 1 0.012775 -0.001699 -0.004000 0.000000 0.000608 0.000000
# 2 -0.001699 0.023711 -0.005990 0.000000 0.004203 0.000000
# 3 -0.004000 -0.005990 0.014641 0.000000 -0.003192 0.000000
# 4 0.000000 0.000000 0.000000 -1.013040 0.000000 -0.865347
# 5 0.000608 0.004203 -0.003192 0.000000 0.035105 0.000000
# 6 0.000000 0.000000 0.000000 -0.865347 0.000000 -0.628016
#
#
# Mechanical properties :
#
#
# Convention : Reuss Voigt Hill
#
# Bulk Modulus (GPa) = 36.03531 40.19733 38.11632
# Shear Modulus (GPa) = -3.28473 19.38789 8.05158
#
# Velocity S-wave (km/s) = -1.41229 3.43114 2.21113
# Velocity P-wave (km/s) = 4.38429 6.33290 5.44645
#
# Compressibility (1/GPa) = 0.02775056
#
# Stress axis : x y z
#
# Youngs Moduli (GPa) = 78.27650 42.17417 68.30204
#
# Poissons Ratio (x) = 0.07163 0.27320
# Poissons Ratio (y) = 0.13296 0.40913
# Poissons Ratio (z) = 0.31309 0.25262
#
# Static dielectric constant tensor:
#      x y z
#    x 1.580480 0.000000 0.021640 
#    y 0.000000 1.540400 0.000000 
#    z 0.021640 0.000000 1.587680 
# 
# From -- ./inp_files/156262.got.cif
#   From: 2010.05.17/outbox.cif.g08.bks.cpg/sg15_79_cif.got.tgz:156262.got - 2010.06.03 18:47:42.
