data_PCOD9256426
_publ_section_title
;
Structure prediction by ZEFSAII (Michael W. Deem and Ramdas Pophale) SiO2 
 PCOD9256426
Probable space group: C 2/C
;
_chemical_formula_sum "Si O2"
_cell_formula_units_Z 56
_cell_length_a 12.063149
_cell_length_b 8.330135
_cell_length_c 30.232778
_cell_angle_alpha 90.000000
_cell_angle_beta 124.516488
_cell_angle_gamma 90.000000
_cell_volume 2503.217471
_symmetry_space_group_name_H-M "C 2/C"
_symmetry_group_IT_number 15
_symmetry_cell_setting 'monoclinic'
loop_
_space_group_symop_operation_xyz
x,y,z
-x,y,1/2-z
-x,-y,-z
x,-y,1/2+z
1/2+x,1/2+y,z
1/2-x,1/2+y,1/2-z
1/2-x,1/2-y,-z
1/2+x,1/2-y,1/2+z
loop_
_atom_site_type_symbol
_atom_site_label
_atom_site_fract_x
_atom_site_fract_y
_atom_site_fract_z
Si Si1 0.265457 0.430359 0.443502
Si Si2 0.397127 0.535147 0.607321
Si Si3 0.335882 0.230079 0.246625
Si Si4 0.974697 0.167908 0.538643
Si Si5 0.389604 0.137073 0.159374
Si Si6 0.433636 0.599883 0.279904
Si Si7 0.875676 0.505978 0.505994
O O1 0.365140 0.572308 0.484436
O O2 0.383475 0.310249 0.454386
O O3 0.180828 0.495063 0.383065
O O4 0.161883 0.385130 0.459656
O O5 0.496860 0.568920 0.588731
O O6 0.370437 0.699912 0.627309
O O7 0.460160 0.412228 0.656167
O O8 0.258037 0.490232 0.553287
O O9 0.332700 0.170033 0.195420
O O10 0.449721 0.125653 0.297428
O O11 0.383640 0.415313 0.260216
O O12 0.192832 0.205444 0.235906
O O13 0.904002 0.333421 0.535466
O O14 0.500000 0.658478 0.250000
O O15 0.000000 0.500000 0.500000
#
# Coordination Sequence:
#
# PCOD9256426 Si02
#       7
#     8   8   8   8   8   8   8
#     4  10  19  34  58  79 105 147 192 226 276 339
#     4  10  18  38  61  78 111 152 187 230 287 341
#     4  10  22  38  63  87 118 153 197 245 295 347
#     4  10  19  34  57  82 104 144 192 229 271 338
#     4  10  17  38  61  81 111 153 191 238 292 343
#     4  11  22  42  61  88 118 156 195 243 295 349
#     4  11  22  35  52  82 120 147 181 235 285 339
#
# _framework density 22.371207999999999
#
# number of rings (size 3 to 8) (size 9 to 14) (size 15 to 20)
#    0.000    1.714    5.714    1.714    0.000    1.714 
#    2.571    1.429    0.000    0.000    0.000    0.000 
#    0.000    0.000    0.000    0.000    0.000    0.000 
#
# Total GULP energy -156343.596095 kJ/mol
# GULP energy per Si atom -5583.699861 kJ/mol
# Density = 2.232029 g / cm^3
# Si number density = 22.371208 Si / 1000 Ang^3
#
#
#
# Elastic Constant Matrix: (Units=GPa)
#
#
# Indices 1 2 3 4 5 6 
#
# 1 159.7725 4.0971 34.1439 0.0000 -5.4888 0.0000
# 2 4.0971 27.7743 1.9695 0.0000 2.2918 0.0000
# 3 34.1439 1.9695 117.8899 0.0000 -14.6300 0.0000
# 4 0.0000 0.0000 0.0000 8.5362 0.0000 0.0993
# 5 -5.4888 2.2918 -14.6300 0.0000 16.3140 0.0000
# 6 0.0000 0.0000 0.0000 0.0993 0.0000 32.0527
#
#
#
# Elastic Compliance Matrix: (Units=1/GPa)
#
#
# Indices 1 2 3 4 5 6 
#
# 1 0.006700 -0.000919 -0.001833 0.000000 0.000739 0.000000
# 2 -0.000919 0.036759 -0.001156 0.000000 -0.006510 0.000000
# 3 -0.001833 -0.001156 0.010100 0.000000 0.008603 0.000000
# 4 0.000000 0.000000 0.000000 0.117153 0.000000 -0.000363
# 5 0.000739 -0.006510 0.008603 0.000000 0.070175 0.000000
# 6 0.000000 0.000000 0.000000 -0.000363 0.000000 0.031200
#
#
# Mechanical properties :
#
#
# Convention : Reuss Voigt Hill
#
# Bulk Modulus (GPa) = 21.86141 42.87308 32.36725
# Shear Modulus (GPa) = 16.94047 29.06234 23.00140
#
# Velocity S-wave (km/s) = 2.75479 3.60821 3.20999
# Velocity P-wave (km/s) = 4.46227 6.04689 5.31398
#
# Compressibility (1/GPa) = 0.04574270
#
# Stress axis : x y z
#
# Youngs Moduli (GPa) = 149.26154 27.20412 99.00568
#
# Poissons Ratio (x) = 0.02501 0.18151
# Poissons Ratio (y) = 0.13721 0.11442
# Poissons Ratio (z) = 0.27364 0.03144
#
# Static dielectric constant tensor:
#      x y z
#    x 1.852060 0.000000 -0.041390 
#    y 0.000000 1.874600 0.000000 
#    z -0.041390 0.000000 1.793470 
# 
# From -- ./inp_files/292075.got.cif
#   From: 2010.05.17/outbox.cif.g08.bks.cpg/sg15_147_cif.got.tgz:292075.got - 2010.06.03 18:47:42.
