data_PCOD9256828
_publ_section_title
;
Structure prediction by ZEFSAII (Michael W. Deem and Ramdas Pophale) SiO2 
 PCOD9256828
Probable space group: C 2/C
;
_chemical_formula_sum "Si O2"
_cell_formula_units_Z 52
_cell_length_a 20.771074
_cell_length_b 7.350971
_cell_length_c 15.520270
_cell_angle_alpha 90.000000
_cell_angle_beta 53.042483
_cell_angle_gamma 90.000000
_cell_volume 1893.625181
_symmetry_space_group_name_H-M "C 2/C"
_symmetry_group_IT_number 15
_symmetry_cell_setting 'monoclinic'
loop_
_space_group_symop_operation_xyz
x,y,z
-x,y,1/2-z
-x,-y,-z
x,-y,1/2+z
1/2+x,1/2+y,z
1/2-x,1/2+y,1/2-z
1/2-x,1/2-y,-z
1/2+x,1/2-y,1/2+z
loop_
_atom_site_type_symbol
_atom_site_label
_atom_site_fract_x
_atom_site_fract_y
_atom_site_fract_z
Si Si1 0.731375 0.490201 0.751430
Si Si2 0.316643 0.353090 0.386844
Si Si3 0.377677 0.132555 0.690791
Si Si4 0.518903 0.752899 0.549295
Si Si5 0.610579 0.617897 0.965995
Si Si6 0.000000 0.311690 0.750000
Si Si7 0.408095 0.713205 0.343336
O O1 0.722616 0.619525 0.675625
O O2 0.674681 0.318135 0.781186
O O3 0.824711 0.467940 0.697583
O O4 0.700213 0.580693 0.865101
O O5 0.250000 0.250000 0.500000
O O6 0.407930 0.271859 0.311204
O O7 0.338275 0.561630 0.394763
O O8 0.446603 0.157653 0.564639
O O9 0.395908 0.140133 0.777845
O O10 0.436574 0.663059 0.583273
O O11 0.572969 0.574716 0.527887
O O12 0.512117 0.871759 0.640317
O O13 0.597571 0.761765 0.051957
O O14 0.500000 0.643931 0.250000
#
# Coordination Sequence:
#
# PCOD9256828 Si02
#       7
#     8   8   8   8   8   4   8
#     4  10  22  37  54  88 121 155 197 245 305 360
#     4  11  21  32  54  89 123 151 197 253 308 354
#     4  10  22  38  59  89 122 159 196 254 304 361
#     4  10  18  29  54  84 116 145 194 247 307 342
#     4  10  18  30  53  83 113 148 186 251 297 348
#     4  12  18  32  52  84 120 152 198 260 304 342
#     4  11  19  35  61  91 117 150 207 261 300 348
#
# _framework density 27.460557000000001
#
# number of rings (size 3 to 8) (size 9 to 14) (size 15 to 20)
#    0.000    1.538    5.385    0.923    2.154    0.615 
#    0.000    0.000    0.000    0.923    2.000    0.000 
#    0.000    0.000    0.000    0.000    0.000    0.000 
#
# Total GULP energy -145243.281806 kJ/mol
# GULP energy per Si atom -5586.280069 kJ/mol
# Density = 2.739806 g / cm^3
# Si number density = 27.460557 Si / 1000 Ang^3
#
#
#
# Elastic Constant Matrix: (Units=GPa)
#
#
# Indices 1 2 3 4 5 6 
#
# 1 100.3447 27.5579 53.5335 -0.0004 23.7839 0.0002
# 2 27.5579 100.7845 51.1657 -0.0010 -0.1020 0.0006
# 3 53.5335 51.1657 139.3397 -0.0008 25.2009 0.0005
# 4 -0.0004 -0.0010 -0.0008 45.9122 0.0003 -21.6319
# 5 23.7839 -0.1020 25.2009 0.0003 71.1876 -0.0001
# 6 0.0002 0.0006 0.0005 -21.6319 -0.0001 22.2253
#
#
#
# Elastic Compliance Matrix: (Units=1/GPa)
#
#
# Indices 1 2 3 4 5 6 
#
# 1 0.013231 -0.001620 -0.003941 0.000000 -0.003028 0.000000
# 2 -0.001620 0.012593 -0.004383 0.000000 0.002111 0.000000
# 3 -0.003941 -0.004383 0.010752 0.000000 -0.002496 0.000000
# 4 0.000000 0.000000 0.000000 0.040229 0.000000 0.039155
# 5 -0.003028 0.002111 -0.002496 0.000000 0.015946 0.000000
# 6 0.000000 0.000000 0.000000 0.039155 0.000000 0.083103
#
#
# Mechanical properties :
#
#
# Convention : Reuss Voigt Hill
#
# Bulk Modulus (GPa) = 59.92871 67.22037 63.57454
# Shear Modulus (GPa) = 24.83823 41.74580 33.29201
#
# Velocity S-wave (km/s) = 3.01076 3.90322 3.48567
# Velocity P-wave (km/s) = 5.82728 6.69668 6.27705
#
# Compressibility (1/GPa) = 0.01668649
#
# Stress axis : x y z
#
# Youngs Moduli (GPa) = 75.58287 79.41142 93.00920
#
# Poissons Ratio (x) = 0.12866 0.36651
# Poissons Ratio (y) = 0.12246 0.40769
# Poissons Ratio (z) = 0.29784 0.34809
#
# Static dielectric constant tensor:
#      x y z
#    x 2.132760 0.000000 -0.024970 
#    y 0.000000 2.251100 0.000000 
#    z -0.024970 0.000000 2.131010 
# 
# From -- ./inp_files/167550.got.cif
#   From: 2010.05.17/outbox.cif.g08.bks.cpg/sg15_84_cif.got.tgz:167550.got - 2010.06.03 18:47:42.
