data_PCOD9256210
_publ_section_title
;
Structure prediction by ZEFSAII (Michael W. Deem and Ramdas Pophale) SiO2 
 PCOD9256210
Probable space group: C 2/C
;
_chemical_formula_sum "Si O2"
_cell_formula_units_Z 64
_cell_length_a 17.971333
_cell_length_b 20.220899
_cell_length_c 10.221818
_cell_angle_alpha 90.000000
_cell_angle_beta 116.697513
_cell_angle_gamma 90.000000
_cell_volume 3318.565665
_symmetry_space_group_name_H-M "C 2/C"
_symmetry_group_IT_number 15
_symmetry_cell_setting 'monoclinic'
loop_
_space_group_symop_operation_xyz
x,y,z
-x,y,1/2-z
-x,-y,-z
x,-y,1/2+z
1/2+x,1/2+y,z
1/2-x,1/2+y,1/2-z
1/2-x,1/2-y,-z
1/2+x,1/2-y,1/2+z
loop_
_atom_site_type_symbol
_atom_site_label
_atom_site_fract_x
_atom_site_fract_y
_atom_site_fract_z
Si Si1 0.235757 0.505407 0.369544
Si Si2 0.089266 0.219184 0.356230
Si Si3 0.623322 0.997331 0.531469
Si Si4 0.867643 0.646356 0.503994
Si Si5 0.665416 0.768104 0.147709
Si Si6 0.733517 0.149828 0.345039
Si Si7 0.724783 0.637064 0.613271
Si Si8 0.924786 0.637340 0.092337
O O1 0.200795 0.501734 0.489890
O O2 0.275121 0.577195 0.376724
O O3 0.288804 0.440740 0.377501
O O4 0.157643 0.501842 0.206399
O O5 0.078215 0.290383 0.417272
O O6 0.139920 0.233357 0.263259
O O7 0.145532 0.174007 0.492974
O O8 0.000000 0.190444 0.250000
O O9 0.570570 0.062517 0.458966
O O10 0.587035 0.924331 0.475068
O O11 0.815607 0.658786 0.330733
O O12 0.799270 0.640514 0.565013
O O13 0.703387 0.710090 0.089156
O O14 0.736645 0.822701 0.235124
O O15 0.587292 0.807949 0.028534
O O16 0.661360 0.144985 0.395613
O O17 0.000000 0.649332 0.250000
#
# Coordination Sequence:
#
# PCOD9256210 Si02
#       8
#     8   8   8   8   8   8   8   8
#     4   9  18  32  59  81 106 138 195 228 264 318
#     4  11  22  33  56  87 109 137 177 237 288 316
#     4   9  18  34  52  82 109 147 186 219 266 327
#     4   9  17  33  56  79 107 142 185 215 262 325
#     4  11  20  37  58  75 109 148 188 223 265 326
#     4  10  19  36  55  80 105 146 187 220 261 330
#     4  10  17  35  58  81 103 141 184 229 264 328
#     4  11  24  35  51  80 118 150 178 221 277 326
#
# _framework density 19.285440999999999
#
# number of rings (size 3 to 8) (size 9 to 14) (size 15 to 20)
#    0.000    2.000    3.750    1.125    1.750    0.500 
#    0.000    5.625    0.000    1.500    0.000    0.000 
#    0.000    0.000    0.000    0.000    0.000    0.000 
#
# Total GULP energy -178548.902680 kJ/mol
# GULP energy per Si atom -5579.653209 kJ/mol
# Density = 1.924155 g / cm^3
# Si number density = 19.285441 Si / 1000 Ang^3
#
#
#
# Elastic Constant Matrix: (Units=GPa)
#
#
# Indices 1 2 3 4 5 6 
#
# 1 41.0061 30.8301 5.1866 0.0000 5.0217 0.0000
# 2 30.8301 125.7661 37.8917 0.0000 17.1887 0.0000
# 3 5.1866 37.8917 69.6539 0.0000 15.6650 0.0000
# 4 0.0000 0.0000 0.0000 28.1371 0.0000 -2.1009
# 5 5.0217 17.1887 15.6650 0.0000 24.8722 0.0000
# 6 0.0000 0.0000 0.0000 -2.1009 0.0000 8.0588
#
#
#
# Elastic Compliance Matrix: (Units=1/GPa)
#
#
# Indices 1 2 3 4 5 6 
#
# 1 0.030263 -0.007874 0.002540 0.000000 -0.002268 0.000000
# 2 -0.007874 0.011888 -0.005115 0.000000 -0.003404 0.000000
# 3 0.002540 -0.005115 0.018955 0.000000 -0.008916 0.000000
# 4 0.000000 0.000000 0.000000 0.036246 0.000000 0.009449
# 5 -0.002268 -0.003404 -0.008916 0.000000 0.048632 0.000000
# 6 0.000000 0.000000 0.000000 0.009449 0.000000 0.126552
#
#
# Mechanical properties :
#
#
# Convention : Reuss Voigt Hill
#
# Bulk Modulus (GPa) = 24.87038 42.69368 33.78203
# Shear Modulus (GPa) = 16.29534 23.04812 19.67173
#
# Velocity S-wave (km/s) = 2.90997 3.46078 3.19726
# Velocity P-wave (km/s) = 4.92082 6.17699 5.58434
#
# Compressibility (1/GPa) = 0.04020847
#
# Stress axis : x y z
#
# Youngs Moduli (GPa) = 33.04364 84.11973 52.75533
#
# Poissons Ratio (x) = 0.66235 -0.13400
# Poissons Ratio (y) = 0.26018 0.26985
# Poissons Ratio (z) = -0.08393 0.43028
#
# Static dielectric constant tensor:
#      x y z
#    x 1.676100 0.000000 -0.041050 
#    y 0.000000 1.729050 0.000000 
#    z -0.041050 0.000000 1.673720 
# 
# From -- ./inp_files/114097.got.cif
#   From: 2010.05.17/outbox.cif.g08.bks.cpg/sg15_58_cif.got.tgz:114097.got - 2010.06.03 18:47:42.
