data_PCOD9256517
_publ_section_title
;
Structure prediction by ZEFSAII (Michael W. Deem and Ramdas Pophale) SiO2 
 PCOD9256517
Probable space group: C 2/C
;
_chemical_formula_sum "Si O2"
_cell_formula_units_Z 44
_cell_length_a 17.180806
_cell_length_b 15.742087
_cell_length_c 17.728308
_cell_angle_alpha 90.000000
_cell_angle_beta 150.405501
_cell_angle_gamma 90.000000
_cell_volume 2367.966538
_symmetry_space_group_name_H-M "C 2/C"
_symmetry_group_IT_number 15
_symmetry_cell_setting 'monoclinic'
loop_
_space_group_symop_operation_xyz
x,y,z
-x,y,1/2-z
-x,-y,-z
x,-y,1/2+z
1/2+x,1/2+y,z
1/2-x,1/2+y,1/2-z
1/2-x,1/2-y,-z
1/2+x,1/2-y,1/2+z
loop_
_atom_site_type_symbol
_atom_site_label
_atom_site_fract_x
_atom_site_fract_y
_atom_site_fract_z
Si Si1 0.069135 0.549701 0.222555
Si Si2 0.288007 0.317025 0.828371
Si Si3 0.169525 0.330077 0.019045
Si Si4 0.591312 0.852068 0.248034
Si Si5 0.403475 0.259768 0.470123
Si Si6 0.000000 0.213878 0.750000
O O1 0.214483 0.610970 0.320887
O O2 0.107817 0.451760 0.244116
O O3 0.000000 0.558884 0.250000
O O4 0.924246 0.583507 0.049562
O O5 0.304916 0.229238 0.888276
O O6 0.171052 0.294872 0.661240
O O7 0.466089 0.327890 0.948789
O O8 0.345655 0.341035 0.136544
O O9 0.061189 0.274516 0.869580
O O10 0.500000 0.844082 0.250000
O O11 0.761129 0.807692 0.391182
O O12 0.491632 0.803781 0.100446
#
# Coordination Sequence:
#
# PCOD9256517 Si02
#       6
#     8   8   8   8   8   4
#     4  11  21  35  60  92 122 153 200 237 285 341
#     4  11  20  35  59  89 124 158 190 230 294 357
#     4  11  17  32  51  84 122 160 190 222 277 351
#     4  10  23  42  68  83 109 151 202 260 292 345
#     4  10  22  41  61  86 113 158 198 238 306 349
#     4  10  18  26  54  76 118 174 184 218 268 344
#
# _framework density 18.581344000000001
#
# number of rings (size 3 to 8) (size 9 to 14) (size 15 to 20)
#    0.000    1.455    4.545    1.636    0.000    1.455 
#    0.000    0.000   26.000    0.000    0.000    0.000 
#    0.000    0.000    0.000    0.000    0.000    0.000 
#
# Total GULP energy -122653.826192 kJ/mol
# GULP energy per Si atom -5575.173918 kJ/mol
# Density = 1.853905 g / cm^3
# Si number density = 18.581344 Si / 1000 Ang^3
#
#
#
# Elastic Constant Matrix: (Units=GPa)
#
#
# Indices 1 2 3 4 5 6 
#
# 1 100.3772 44.4149 37.7768 -0.0007 22.6776 -0.0006
# 2 44.4149 90.2589 17.8729 -0.0007 12.2223 -0.0006
# 3 37.7768 17.8729 89.2191 -0.0013 14.8132 -0.0012
# 4 -0.0007 -0.0007 -0.0013 16.4233 -0.0006 0.5518
# 5 22.6776 12.2223 14.8132 -0.0006 38.5305 -0.0005
# 6 -0.0006 -0.0006 -0.0012 0.5518 -0.0005 19.5979
#
#
#
# Elastic Compliance Matrix: (Units=1/GPa)
#
#
# Indices 1 2 3 4 5 6 
#
# 1 0.015556 -0.006022 -0.004462 0.000000 -0.005530 0.000000
# 2 -0.006022 0.014193 -0.000143 0.000000 -0.000903 0.000000
# 3 -0.004462 -0.000143 0.013548 0.000001 -0.002537 0.000001
# 4 0.000000 0.000000 0.000001 0.060947 0.000001 -0.001716
# 5 -0.005530 -0.000903 -0.002537 0.000001 0.030470 0.000000
# 6 0.000000 0.000000 0.000001 -0.001716 0.000000 0.051074
#
#
# Mechanical properties :
#
#
# Convention : Reuss Voigt Hill
#
# Bulk Modulus (GPa) = 45.36995 53.33161 49.35078
# Shear Modulus (GPa) = 23.32198 26.89637 25.10917
#
# Velocity S-wave (km/s) = 3.54662 3.80872 3.68001
# Velocity P-wave (km/s) = 6.42194 6.93584 6.68383
#
# Compressibility (1/GPa) = 0.02204102
#
# Stress axis : x y z
#
# Youngs Moduli (GPa) = 64.28474 70.45530 73.81389
#
# Poissons Ratio (x) = 0.42431 0.32936
# Poissons Ratio (y) = 0.38715 0.01059
# Poissons Ratio (z) = 0.28684 0.01011
#
# Static dielectric constant tensor:
#      x y z
#    x 1.740130 0.000000 0.015450 
#    y 0.000000 1.621870 0.000000 
#    z 0.015450 0.000000 1.639770 
# 
# From -- ./inp_files/47072.got.cif
#   From: 2010.05.17/outbox.cif.g08.bks.cpg/sg15_24_cif.got.tgz:47072.got - 2010.06.03 18:47:42.
