data_PCOD9256626
_publ_section_title
;
Structure prediction by ZEFSAII (Michael W. Deem and Ramdas Pophale) SiO2 
 PCOD9256626
Probable space group: C 2/C
;
_chemical_formula_sum "Si O2"
_cell_formula_units_Z 56
_cell_length_a 5.933532
_cell_length_b 28.456391
_cell_length_c 16.015288
_cell_angle_alpha 90.000000
_cell_angle_beta 119.280191
_cell_angle_gamma 90.000000
_cell_volume 2358.647669
_symmetry_space_group_name_H-M "C 2/C"
_symmetry_group_IT_number 15
_symmetry_cell_setting 'monoclinic'
loop_
_space_group_symop_operation_xyz
x,y,z
-x,y,1/2-z
-x,-y,-z
x,-y,1/2+z
1/2+x,1/2+y,z
1/2-x,1/2+y,1/2-z
1/2-x,1/2-y,-z
1/2+x,1/2-y,1/2+z
loop_
_atom_site_type_symbol
_atom_site_label
_atom_site_fract_x
_atom_site_fract_y
_atom_site_fract_z
Si Si1 0.562114 0.219250 0.906464
Si Si2 0.167961 0.514809 0.113914
Si Si3 0.820358 0.118518 0.117473
Si Si4 0.169508 0.017377 0.613167
Si Si5 0.166735 0.121154 0.577746
Si Si6 0.706860 0.305200 0.674075
Si Si7 0.813934 0.672469 0.009296
O O1 0.686440 0.171867 0.888565
O O2 0.443389 0.258723 0.826123
O O3 0.750000 0.250000 0.000000
O O4 0.342052 0.201897 0.930877
O O5 0.236041 0.569635 0.139535
O O6 0.457768 0.494037 0.147484
O O7 0.956646 0.503758 0.148032
O O8 0.000000 0.500000 0.000000
O O9 0.086338 0.145617 0.182729
O O10 0.596957 0.156775 0.087634
O O11 0.819795 0.109453 0.017839
O O12 0.238205 0.072743 0.633396
O O13 0.000000 0.000000 0.500000
O O14 0.867800 0.129153 0.545926
O O15 0.000000 0.301363 0.750000
O O16 0.690587 0.306355 0.569864
#
# Coordination Sequence:
#
# PCOD9256626 Si02
#       7
#     8   8   8   8   8   8   8
#     4  11  20  36  54  83 109 149 199 240 294 353
#     4  10  18  28  49  78 116 148 179 228 287 339
#     4  10  19  32  50  79 111 147 188 230 287 353
#     4  10  18  28  47  79 118 145 178 233 292 334
#     4  10  19  29  51  79 112 144 186 237 289 342
#     4  11  24  38  54  81 116 153 194 240 299 366
#     4  10  19  33  58  76 114 150 186 242 296 346
#
# _framework density 23.742417
#
# number of rings (size 3 to 8) (size 9 to 14) (size 15 to 20)
#    0.000    1.714    7.143    2.143    4.000    0.571 
#    0.000    0.000    0.000    0.000    0.000    2.000 
#    0.000    0.000    0.000    0.000    0.000    0.000 
#
# Total GULP energy -155980.104892 kJ/mol
# GULP energy per Si atom -5570.718032 kJ/mol
# Density = 2.368838 g / cm^3
# Si number density = 23.742417 Si / 1000 Ang^3
#
#
#
# Elastic Constant Matrix: (Units=GPa)
#
#
# Indices 1 2 3 4 5 6 
#
# 1 149.2442 45.1722 41.4100 0.0000 18.3008 0.0000
# 2 45.1722 174.8160 44.2134 0.0000 34.8340 0.0000
# 3 41.4100 44.2134 53.9440 0.0000 16.5900 0.0000
# 4 0.0000 0.0000 0.0000 4.7463 0.0000 10.2712
# 5 18.3008 34.8340 16.5900 0.0000 43.2202 0.0000
# 6 0.0000 0.0000 0.0000 10.2712 0.0000 1.0281
#
#
#
# Elastic Compliance Matrix: (Units=1/GPa)
#
#
# Indices 1 2 3 4 5 6 
#
# 1 0.008612 -0.000552 -0.005866 0.000000 -0.000950 0.000000
# 2 -0.000552 0.007925 -0.004738 0.000000 -0.004335 0.000000
# 3 -0.005866 -0.004738 0.028330 0.000000 -0.004572 0.000000
# 4 0.000000 0.000000 0.000000 -0.010218 0.000000 0.102081
# 5 -0.000950 -0.004335 -0.004572 0.000000 0.028788 0.000000
# 6 0.000000 0.000000 0.000000 0.102081 0.000000 -0.047172
#
#
# Mechanical properties :
#
#
# Convention : Reuss Voigt Hill
#
# Bulk Modulus (GPa) = 44.33866 71.06613 57.70239
# Shear Modulus (GPa) = 108.46675 26.27952 67.37314
#
# Velocity S-wave (km/s) = 6.76639 3.33056 5.33276
# Velocity P-wave (km/s) = 8.93089 6.69233 7.89139
#
# Compressibility (1/GPa) = 0.02255368
#
# Stress axis : x y z
#
# Youngs Moduli (GPa) = 116.12172 126.17977 35.29781
#
# Poissons Ratio (x) = 0.06971 0.20705
# Poissons Ratio (y) = 0.06415 0.16726
# Poissons Ratio (z) = 0.68116 0.59789
#
# Static dielectric constant tensor:
#      x y z
#    x 1.902190 0.000000 -0.042910 
#    y 0.000000 1.875050 0.000000 
#    z -0.042910 0.000000 2.254240 
# 
# From -- ./inp_files/262019.got.cif
#   From: 2010.05.17/outbox.cif.g08.bks.cpg/sg15_132_cif.got.tgz:262019.got - 2010.06.03 18:47:42.
