data_PCOD9256049
_publ_section_title
;
Structure prediction by ZEFSAII (Michael W. Deem and Ramdas Pophale) SiO2 
 PCOD9256049
Probable space group: C 2/C
;
_chemical_formula_sum "Si O2"
_cell_formula_units_Z 60
_cell_length_a 24.608519
_cell_length_b 15.513941
_cell_length_c 19.192648
_cell_angle_alpha 90.000000
_cell_angle_beta 157.519016
_cell_angle_gamma 90.000000
_cell_volume 2801.779973
_symmetry_space_group_name_H-M "C 2/C"
_symmetry_group_IT_number 15
_symmetry_cell_setting 'monoclinic'
loop_
_space_group_symop_operation_xyz
x,y,z
-x,y,1/2-z
-x,-y,-z
x,-y,1/2+z
1/2+x,1/2+y,z
1/2-x,1/2+y,1/2-z
1/2-x,1/2-y,-z
1/2+x,1/2-y,1/2+z
loop_
_atom_site_type_symbol
_atom_site_label
_atom_site_fract_x
_atom_site_fract_y
_atom_site_fract_z
Si Si1 0.250826 0.256498 0.623815
Si Si2 0.260973 0.896171 0.767685
Si Si3 0.866363 0.163337 0.529522
Si Si4 0.988707 0.856640 0.840787
Si Si5 0.453067 0.854440 0.452318
Si Si6 0.330212 0.417795 0.311520
Si Si7 0.500000 0.509271 0.750000
Si Si8 0.113628 0.785299 0.238998
O O1 0.227493 0.322223 0.660686
O O2 0.104187 0.205327 0.439410
O O3 0.335784 0.311590 0.667413
O O4 0.367726 0.187266 0.787282
O O5 0.180479 0.860679 0.604924
O O6 0.176127 0.978921 0.695079
O O7 0.420587 0.913026 0.928285
O O8 0.758957 0.235962 0.426088
O O9 0.024270 0.197999 0.702347
O O10 0.872589 0.073721 0.578360
O O11 0.972932 0.946322 0.782143
O O12 0.062918 0.878044 0.003661
O O13 0.329487 0.893303 0.353452
O O14 0.528112 0.779312 0.586203
O O15 0.360568 0.372299 0.274270
#
# Coordination Sequence:
#
# PCOD9256049 Si02
#       8
#     8   8   8   8   8   8   4   8
#     4  11  20  39  65  92 121 158 194 257 312 363
#     4  11  20  33  61 100 125 156 189 260 311 360
#     4  11  23  41  62  88 125 162 206 242 302 361
#     4  11  23  41  62  88 125 162 206 242 302 361
#     4  10  17  34  55  96 130 152 186 239 336 363
#     4  11  20  33  61 100 125 156 189 260 311 360
#     4  12  28  44  62  88 118 170 212 252 276 356
#     4  11  20  39  65  92 121 158 194 257 312 363
#
# _framework density 21.414957000000001
#
# number of rings (size 3 to 8) (size 9 to 14) (size 15 to 20)
#    0.000    1.067    6.667    2.000    1.867    2.133 
#    0.000    0.000    0.000    1.600    0.000    0.000 
#    0.000    0.000    0.000    0.000    0.000    0.000 
#
# Total GULP energy -167675.136219 kJ/mol
# GULP energy per Si atom -5589.171207 kJ/mol
# Density = 2.136622 g / cm^3
# Si number density = 21.414957 Si / 1000 Ang^3
#
#
#
# Elastic Constant Matrix: (Units=GPa)
#
#
# Indices 1 2 3 4 5 6 
#
# 1 80.7709 41.4823 52.0177 -0.0002 22.4717 -0.0002
# 2 41.4823 104.4200 39.3635 -0.0003 11.1112 -0.0004
# 3 52.0177 39.3635 73.1716 -0.0002 21.9326 -0.0003
# 4 -0.0002 -0.0003 -0.0002 26.4396 -0.0002 -1.6939
# 5 22.4717 11.1112 21.9326 -0.0002 35.3853 -0.0003
# 6 -0.0002 -0.0004 -0.0003 -1.6939 -0.0003 41.5855
#
#
#
# Elastic Compliance Matrix: (Units=1/GPa)
#
#
# Indices 1 2 3 4 5 6 
#
# 1 0.025059 -0.004114 -0.013778 0.000000 -0.006082 0.000000
# 2 -0.004114 0.012691 -0.004288 0.000000 0.001285 0.000000
# 3 -0.013778 -0.004288 0.027931 0.000000 -0.007216 0.000000
# 4 0.000000 0.000000 0.000000 0.037921 0.000000 0.001545
# 5 -0.006082 0.001285 -0.007216 0.000000 0.036192 0.000000
# 6 0.000000 0.000000 0.000000 0.001545 0.000000 0.024110
#
#
# Mechanical properties :
#
#
# Convention : Reuss Voigt Hill
#
# Bulk Modulus (GPa) = 46.90250 58.23217 52.56734
# Shear Modulus (GPa) = 23.21586 29.04869 26.13228
#
# Velocity S-wave (km/s) = 3.29613 3.68702 3.49704
# Velocity P-wave (km/s) = 6.03616 6.73623 6.39578
#
# Compressibility (1/GPa) = 0.02132083
#
# Stress axis : x y z
#
# Youngs Moduli (GPa) = 39.90577 78.79852 35.80242
#
# Poissons Ratio (x) = 0.32416 0.49330
# Poissons Ratio (y) = 0.16416 0.15351
# Poissons Ratio (z) = 0.54984 0.33787
#
# Static dielectric constant tensor:
#      x y z
#    x 1.809090 0.000000 0.009480 
#    y 0.000000 1.783830 0.000000 
#    z 0.009480 0.000000 1.812980 
# 
# From -- ./inp_files/257899.got.cif
#   From: 2010.05.17/outbox.cif.g08.bks.cpg/sg15_129_cif.got.tgz:257899.got - 2010.06.03 18:47:42.
