data_PCOD9256825
_publ_section_title
;
Structure prediction by ZEFSAII (Michael W. Deem and Ramdas Pophale) SiO2 
 PCOD9256825
Probable space group: C 2/C
;
_chemical_formula_sum "Si O2"
_cell_formula_units_Z 48
_cell_length_a 21.458199
_cell_length_b 8.858903
_cell_length_c 14.118608
_cell_angle_alpha 90.000000
_cell_angle_beta 129.195935
_cell_angle_gamma 90.000000
_cell_volume 2079.987942
_symmetry_space_group_name_H-M "C 2/C"
_symmetry_group_IT_number 15
_symmetry_cell_setting 'monoclinic'
loop_
_space_group_symop_operation_xyz
x,y,z
-x,y,1/2-z
-x,-y,-z
x,-y,1/2+z
1/2+x,1/2+y,z
1/2-x,1/2+y,1/2-z
1/2-x,1/2-y,-z
1/2+x,1/2-y,1/2+z
loop_
_atom_site_type_symbol
_atom_site_label
_atom_site_fract_x
_atom_site_fract_y
_atom_site_fract_z
Si Si1 0.721408 0.391657 0.031050
Si Si2 0.053289 0.597226 0.620730
Si Si3 0.451274 0.631211 0.069541
Si Si4 0.799049 0.786547 0.772709
Si Si5 0.603088 0.433223 0.198994
Si Si6 0.823006 0.637475 0.174844
O O1 0.750926 0.333995 0.163145
O O2 0.767902 0.544755 0.048478
O O3 0.750000 0.250000 0.000000
O O4 0.625948 0.399884 0.941066
O O5 0.116133 0.704335 0.623797
O O6 0.107467 0.482378 0.732327
O O7 0.000000 0.500000 0.500000
O O8 0.994720 0.707548 0.622695
O O9 0.520525 0.509601 0.151905
O O10 0.419760 0.623782 0.929845
O O11 0.741562 0.831512 0.802995
O O12 0.828716 0.937370 0.746902
O O13 0.633108 0.296722 0.292675
#
# Coordination Sequence:
#
# PCOD9256825 Si02
#       6
#     8   8   8   8   8   8
#     4  11  23  39  58  86 121 166 201 245 314 369
#     4  10  18  29  53  87 117 149 197 254 299 345
#     4  10  19  33  55  88 121 152 191 251 303 363
#     4  10  19  34  55  86 122 156 201 253 297 360
#     4  10  18  32  57  88 119 147 203 250 301 340
#     4  11  19  34  58  89 116 153 203 256 295 357
#
# _framework density 23.077057
#
# number of rings (size 3 to 8) (size 9 to 14) (size 15 to 20)
#    0.000    1.667    5.000    1.000    0.000    0.000 
#    0.000    8.333    0.000    2.000    0.000    0.000 
#    0.000    0.000    0.000    0.000    0.000    0.000 
#
# Total GULP energy -134108.235753 kJ/mol
# GULP energy per Si atom -5587.843156 kJ/mol
# Density = 2.302453 g / cm^3
# Si number density = 23.077057 Si / 1000 Ang^3
#
#
#
# Elastic Constant Matrix: (Units=GPa)
#
#
# Indices 1 2 3 4 5 6 
#
# 1 63.3379 36.2476 38.6641 0.0000 39.7394 0.0000
# 2 36.2476 167.9501 51.6852 0.0000 33.6112 0.0000
# 3 38.6641 51.6852 93.7421 0.0000 31.7630 0.0000
# 4 0.0000 0.0000 0.0000 52.8186 0.0000 13.3324
# 5 39.7394 33.6112 31.7630 0.0000 40.7865 0.0000
# 6 0.0000 0.0000 0.0000 13.3324 0.0000 25.8024
#
#
#
# Elastic Compliance Matrix: (Units=1/GPa)
#
#
# Indices 1 2 3 4 5 6 
#
# 1 0.042101 -0.000208 -0.004631 0.000000 -0.037242 0.000000
# 2 -0.000208 0.007645 -0.002803 0.000000 -0.003915 0.000000
# 3 -0.004631 -0.002803 0.016045 0.000000 -0.005674 0.000000
# 4 0.000000 0.000000 0.000000 0.021772 0.000000 -0.011250
# 5 -0.037242 -0.003915 -0.005674 0.000000 0.068448 0.000000
# 6 0.000000 0.000000 0.000000 -0.011250 0.000000 0.044569
#
#
# Mechanical properties :
#
#
# Convention : Reuss Voigt Hill
#
# Bulk Modulus (GPa) = 19.79921 64.24712 42.02316
# Shear Modulus (GPa) = 21.48688 37.11039 29.29864
#
# Velocity S-wave (km/s) = 3.05469 4.01447 3.56701
# Velocity P-wave (km/s) = 4.58691 7.02771 5.93416
#
# Compressibility (1/GPa) = 0.05050706
#
# Stress axis : x y z
#
# Youngs Moduli (GPa) = 23.75265 130.80381 62.32295
#
# Poissons Ratio (x) = 0.02722 0.28862
# Poissons Ratio (y) = 0.00494 0.17469
# Poissons Ratio (z) = 0.11000 0.36663
#
# Static dielectric constant tensor:
#      x y z
#    x 1.875690 0.000000 -0.068730 
#    y 0.000000 1.895570 0.000000 
#    z -0.068730 0.000000 1.973130 
# 
# From -- ./inp_files/213715.got.cif
#   From: 2010.05.17/outbox.cif.g08.bks.cpg/sg15_107_cif.got.tgz:213715.got - 2010.06.03 18:47:42.
