data_PCOD9256615
_publ_section_title
;
Structure prediction by ZEFSAII (Michael W. Deem and Ramdas Pophale) SiO2 
 PCOD9256615
Probable space group: C 2/C
;
_chemical_formula_sum "Si O2"
_cell_formula_units_Z 44
_cell_length_a 9.192660
_cell_length_b 13.794987
_cell_length_c 15.125241
_cell_angle_alpha 90.000000
_cell_angle_beta 101.274814
_cell_angle_gamma 90.000000
_cell_volume 1881.054076
_symmetry_space_group_name_H-M "C 2/C"
_symmetry_group_IT_number 15
_symmetry_cell_setting 'monoclinic'
loop_
_space_group_symop_operation_xyz
x,y,z
-x,y,1/2-z
-x,-y,-z
x,-y,1/2+z
1/2+x,1/2+y,z
1/2-x,1/2+y,1/2-z
1/2-x,1/2-y,-z
1/2+x,1/2-y,1/2+z
loop_
_atom_site_type_symbol
_atom_site_label
_atom_site_fract_x
_atom_site_fract_y
_atom_site_fract_z
Si Si1 0.068535 0.881567 0.040818
Si Si2 0.500000 0.682723 0.250000
Si Si3 0.144146 0.480423 0.726691
Si Si4 0.695791 0.333385 0.625906
Si Si5 0.513448 0.222621 0.151620
Si Si6 0.644410 0.480297 0.888951
O O1 0.112647 0.785922 0.098271
O O2 0.992144 0.949935 0.104596
O O3 0.929739 0.855329 0.960343
O O4 0.183777 0.936009 0.990348
O O5 0.382026 0.728106 0.303793
O O6 0.407904 0.610739 0.175464
O O7 0.242352 0.431154 0.816700
O O8 0.237262 0.531250 0.660705
O O9 0.000000 0.532591 0.750000
O O10 0.077235 0.384882 0.669926
O O11 0.842126 0.285892 0.602407
O O12 0.500000 0.262383 0.250000
#
# Coordination Sequence:
#
# PCOD9256615 Si02
#       6
#     8   4   8   8   8   8
#     4  10  18  28  46  73  95 115 152 198 231 262
#     4   8  14  28  48  64  88 124 152 184 222 282
#     4   8  16  33  50  65  89 128 158 178 227 287
#     4   8  15  29  47  66  88 123 155 183 226 276
#     4   9  18  30  47  67  91 123 156 191 228 269
#     4   9  18  29  46  71  95 119 152 187 233 278
#
# _framework density 23.391141000000001
#
# number of rings (size 3 to 8) (size 9 to 14) (size 15 to 20)
#    0.000    3.636    0.000    0.545    1.273    0.727 
#    0.000    3.636    2.000    0.000    0.000    0.000 
#    0.000    0.000    0.000    0.000    0.000    0.000 
#
# Total GULP energy -122471.987521 kJ/mol
# GULP energy per Si atom -5566.908524 kJ/mol
# Density = 2.333790 g / cm^3
# Si number density = 23.391141 Si / 1000 Ang^3
#
#
#
# Elastic Constant Matrix: (Units=GPa)
#
#
# Indices 1 2 3 4 5 6 
#
# 1 82.5557 -2.1139 29.4668 0.0000 -25.6698 0.0000
# 2 -2.1139 22.5852 12.1628 0.0000 -8.1182 0.0000
# 3 29.4668 12.1628 59.5724 0.0000 -18.7064 0.0000
# 4 0.0000 0.0000 0.0000 -20.7157 0.0000 -15.4314
# 5 -25.6698 -8.1182 -18.7064 0.0000 44.0987 0.0000
# 6 0.0000 0.0000 0.0000 -15.4314 0.0000 13.4052
#
#
#
# Elastic Compliance Matrix: (Units=1/GPa)
#
#
# Indices 1 2 3 4 5 6 
#
# 1 0.017903 0.009104 -0.007978 0.000000 0.008713 0.000000
# 2 0.009104 0.055602 -0.012664 0.000000 0.010163 0.000000
# 3 -0.007978 -0.012664 0.024375 0.000000 0.003364 0.000000
# 4 0.000000 0.000000 0.000000 -0.025988 0.000000 -0.029916
# 5 0.008713 0.010163 0.003364 0.000000 0.031046 0.000000
# 6 0.000000 0.000000 0.000000 -0.029916 0.000000 0.040160
#
#
# Mechanical properties :
#
#
# Convention : Reuss Voigt Hill
#
# Bulk Modulus (GPa) = 13.36838 27.08276 20.22557
# Shear Modulus (GPa) = 26.16296 15.70414 20.93355
#
# Velocity S-wave (km/s) = 3.34802 2.59389 2.99479
# Velocity P-wave (km/s) = 4.54678 4.53590 4.54135
#
# Compressibility (1/GPa) = 0.07480336
#
# Stress axis : x y z
#
# Youngs Moduli (GPa) = 55.85623 17.98489 41.02616
#
# Poissons Ratio (x) = -0.16374 0.32732
# Poissons Ratio (y) = -0.50853 0.51956
# Poissons Ratio (z) = 0.44564 0.22776
#
# Static dielectric constant tensor:
#      x y z
#    x 2.032190 0.000000 -0.045060 
#    y 0.000000 1.944220 0.000000 
#    z -0.045060 0.000000 1.919380 
# 
# From -- ./inp_files/144732.got.cif
#   From: 2010.05.17/outbox.cif.g08.bks.cpg/sg15_73_cif.got.tgz:144732.got - 2010.06.03 18:47:42.
