data_PCOD9256833
_publ_section_title
;
Structure prediction by ZEFSAII (Michael W. Deem and Ramdas Pophale) SiO2 
 PCOD9256833
Probable space group: C 2/C
;
_chemical_formula_sum "Si O2"
_cell_formula_units_Z 48
_cell_length_a 15.693058
_cell_length_b 15.565437
_cell_length_c 14.265503
_cell_angle_alpha 90.000000
_cell_angle_beta 142.711388
_cell_angle_gamma 90.000000
_cell_volume 2111.091049
_symmetry_space_group_name_H-M "C 2/C"
_symmetry_group_IT_number 15
_symmetry_cell_setting 'monoclinic'
loop_
_space_group_symop_operation_xyz
x,y,z
-x,y,1/2-z
-x,-y,-z
x,-y,1/2+z
1/2+x,1/2+y,z
1/2-x,1/2+y,1/2-z
1/2-x,1/2-y,-z
1/2+x,1/2-y,1/2+z
loop_
_atom_site_type_symbol
_atom_site_label
_atom_site_fract_x
_atom_site_fract_y
_atom_site_fract_z
Si Si1 0.092941 0.854958 0.626492
Si Si2 0.786580 0.678349 0.458955
Si Si3 0.268548 0.968701 0.303693
Si Si4 0.500533 0.946516 0.359982
Si Si5 0.498736 0.373381 0.352956
Si Si6 0.115134 0.937076 0.929684
O O1 0.193055 0.805254 0.785677
O O2 0.069691 0.823031 0.501088
O O3 0.938559 0.877613 0.532664
O O4 0.172195 0.947550 0.699680
O O5 0.750000 0.750000 0.500000
O O6 0.945593 0.652306 0.577072
O O7 0.747008 0.593172 0.485759
O O8 0.347063 0.949784 0.274460
O O9 0.158926 0.901931 0.253923
O O10 0.394174 0.993897 0.485584
O O11 0.500000 0.971148 0.250000
O O12 0.500000 0.334877 0.250000
O O13 0.589270 0.462619 0.424755
O O14 0.000000 0.914431 0.750000
#
# Coordination Sequence:
#
# PCOD9256833 Si02
#       6
#     8   8   8   8   8   8
#     4   9  18  31  54  74 109 146 190 249 289 342
#     4  10  21  36  52  77 117 161 198 231 289 359
#     4   9  19  33  47  79 113 154 188 230 302 363
#     4  10  21  31  50  75 116 161 186 228 293 363
#     4  10  18  29  55  83 106 146 190 251 302 342
#     4   8  15  28  49  75 106 140 182 233 286 336
#
# _framework density 22.737058999999999
#
# number of rings (size 3 to 8) (size 9 to 14) (size 15 to 20)
#    0.000    2.667    0.000    5.000    7.000    2.000 
#    0.000    0.000    0.000    0.000    0.000    1.167 
#    0.000    1.667    0.000    0.000    0.000    0.000 
#
# Total GULP energy -133743.548859 kJ/mol
# GULP energy per Si atom -5572.647869 kJ/mol
# Density = 2.268531 g / cm^3
# Si number density = 22.737059 Si / 1000 Ang^3
#
#
#
# Elastic Constant Matrix: (Units=GPa)
#
#
# Indices 1 2 3 4 5 6 
#
# 1 143.8758 10.5775 66.4266 0.0000 -30.2735 0.0000
# 2 10.5775 8.1094 6.9418 0.0000 1.8517 0.0000
# 3 66.4266 6.9418 109.6417 0.0000 -32.4151 0.0000
# 4 0.0000 0.0000 0.0000 14.1075 0.0000 -5.9276
# 5 -30.2735 1.8517 -32.4151 0.0000 61.1662 0.0000
# 6 0.0000 0.0000 0.0000 -5.9276 0.0000 24.9848
#
#
#
# Elastic Compliance Matrix: (Units=1/GPa)
#
#
# Indices 1 2 3 4 5 6 
#
# 1 0.010587 -0.010303 -0.004886 0.000000 0.002963 0.000000
# 2 -0.010303 0.145632 -0.006865 0.000000 -0.013146 0.000000
# 3 -0.004886 -0.006865 0.014066 0.000000 0.005244 0.000000
# 4 0.000000 0.000000 0.000000 0.078733 0.000000 0.018679
# 5 0.002963 -0.013146 0.005244 0.000000 0.020992 0.000000
# 6 0.000000 0.000000 0.000000 0.018679 0.000000 0.044456
#
#
# Mechanical properties :
#
#
# Convention : Reuss Voigt Hill
#
# Bulk Modulus (GPa) = 7.92541 47.72430 27.82485
# Shear Modulus (GPa) = 12.48027 31.89712 22.18869
#
# Velocity S-wave (km/s) = 2.34539 3.74955 3.12730
# Velocity P-wave (km/s) = 3.29055 6.30720 5.03033
#
# Compressibility (1/GPa) = 0.12617648
#
# Stress axis : x y z
#
# Youngs Moduli (GPa) = 94.45433 6.86662 71.09472
#
# Poissons Ratio (x) = 0.07075 0.34737
# Poissons Ratio (y) = 0.97319 0.48805
# Poissons Ratio (z) = 0.46151 0.04714
#
# Static dielectric constant tensor:
#      x y z
#    x 2.120450 0.000000 0.072180 
#    y 0.000000 1.905440 0.000000 
#    z 0.072180 0.000000 1.950920 
# 
# From -- ./inp_files/155273.got.cif
#   From: 2010.05.17/outbox.cif.g08.bks.cpg/sg15_78_cif.got.tgz:155273.got - 2010.06.03 18:47:42.
