data_PCOD9256313
_publ_section_title
;
Structure prediction by ZEFSAII (Michael W. Deem and Ramdas Pophale) SiO2 
 PCOD9256313
Probable space group: C 2/C
;
_chemical_formula_sum "Si O2"
_cell_formula_units_Z 48
_cell_length_a 9.447603
_cell_length_b 16.159777
_cell_length_c 22.264997
_cell_angle_alpha 90.000000
_cell_angle_beta 52.420134
_cell_angle_gamma 90.000000
_cell_volume 2693.897727
_symmetry_space_group_name_H-M "C 2/C"
_symmetry_group_IT_number 15
_symmetry_cell_setting 'monoclinic'
loop_
_space_group_symop_operation_xyz
x,y,z
-x,y,1/2-z
-x,-y,-z
x,-y,1/2+z
1/2+x,1/2+y,z
1/2-x,1/2+y,1/2-z
1/2-x,1/2-y,-z
1/2+x,1/2-y,1/2+z
loop_
_atom_site_type_symbol
_atom_site_label
_atom_site_fract_x
_atom_site_fract_y
_atom_site_fract_z
Si Si1 0.540133 0.487084 0.919472
Si Si2 0.808311 0.568055 0.769767
Si Si3 0.696287 0.005349 0.423078
Si Si4 0.791309 0.153186 0.817903
Si Si5 0.795126 0.911006 0.785412
Si Si6 0.212288 0.337969 0.690621
O O1 0.654390 0.562295 0.860100
O O2 0.355605 0.480022 0.929602
O O3 0.667632 0.406787 0.874268
O O4 0.500000 0.500000 0.000000
O O5 0.801351 0.640054 0.722660
O O6 0.769165 0.487756 0.738649
O O7 0.000000 0.563314 0.750000
O O8 0.735697 0.918791 0.378183
O O9 0.500000 0.000000 0.500000
O O10 0.696054 0.079252 0.373909
O O11 0.764747 0.247738 0.844446
O O12 0.000000 0.141121 0.750000
O O13 0.771998 0.836378 0.745295
O O14 0.000000 0.922226 0.750000
O O15 0.000000 0.357427 0.750000
#
# Coordination Sequence:
#
# PCOD9256313 Si02
#       6
#     8   8   8   8   8   8
#     4  11  22  37  57  86 120 153 198 244 292 356
#     4  10  19  34  59  84 110 154 201 243 284 348
#     4  11  22  36  61  85 117 165 197 235 295 365
#     4  10  20  42  61  84 119 155 200 252 299 347
#     4  10  17  36  59  80 113 152 201 241 280 344
#     4  10  22  38  63  89 115 152 200 256 300 341
#
# _framework density 17.818048000000001
#
# number of rings (size 3 to 8) (size 9 to 14) (size 15 to 20)
#    0.000    1.667    5.000    3.000    7.000    0.667 
#    0.000    3.333    0.000    0.000    0.000    0.000 
#    0.000    0.000    0.000    0.000    0.000    0.000 
#
# Total GULP energy -133645.962679 kJ/mol
# GULP energy per Si atom -5568.581778 kJ/mol
# Density = 1.777749 g / cm^3
# Si number density = 17.818048 Si / 1000 Ang^3
#
#
#
# Elastic Constant Matrix: (Units=GPa)
#
#
# Indices 1 2 3 4 5 6 
#
# 1 145.0102 19.4603 46.6241 0.0000 -4.7693 0.0000
# 2 19.4603 87.7020 28.4451 0.0000 -2.0154 0.0000
# 3 46.6241 28.4451 115.7158 0.0000 2.4944 0.0000
# 4 0.0000 0.0000 0.0000 17.7525 0.0000 0.0657
# 5 -4.7693 -2.0154 2.4944 0.0000 36.4895 0.0000
# 6 0.0000 0.0000 0.0000 0.0657 0.0000 13.4049
#
#
#
# Elastic Compliance Matrix: (Units=1/GPa)
#
#
# Indices 1 2 3 4 5 6 
#
# 1 0.008026 -0.000756 -0.003074 0.000000 0.001217 0.000000
# 2 -0.000756 0.012490 -0.002783 0.000000 0.000781 0.000000
# 3 -0.003074 -0.002783 0.010592 0.000000 -0.001280 0.000000
# 4 0.000000 0.000000 0.000000 0.056331 0.000000 -0.000276
# 5 0.001217 0.000781 -0.001280 0.000000 0.027695 0.000000
# 6 0.000000 0.000000 0.000000 -0.000276 0.000000 0.074601
#
#
# Mechanical properties :
#
#
# Convention : Reuss Voigt Hill
#
# Bulk Modulus (GPa) = 55.91891 59.72076 57.81983
# Shear Modulus (GPa) = 23.93233 30.45593 27.19413
#
# Velocity S-wave (km/s) = 3.66888 4.13882 3.91092
# Velocity P-wave (km/s) = 7.02844 7.51196 7.27422
#
# Compressibility (1/GPa) = 0.01788304
#
# Stress axis : x y z
#
# Youngs Moduli (GPa) = 124.59527 80.06116 94.40934
#
# Poissons Ratio (x) = 0.06051 0.29024
# Poissons Ratio (y) = 0.09417 0.26271
# Poissons Ratio (z) = 0.38304 0.22279
#
# Static dielectric constant tensor:
#      x y z
#    x 1.698380 0.000000 0.058890 
#    y 0.000000 1.664000 0.000000 
#    z 0.058890 0.000000 1.641160 
# 
# From -- ./inp_files/189775.got.cif
#   From: 2010.05.17/outbox.cif.g08.bks.cpg/sg15_95_cif.got.tgz:189775.got - 2010.06.03 18:47:42.
