data_PCOD9256598
_publ_section_title
;
Structure prediction by ZEFSAII (Michael W. Deem and Ramdas Pophale) SiO2 
 PCOD9256598
Probable space group: C 2/C
;
_chemical_formula_sum "Si O2"
_cell_formula_units_Z 52
_cell_length_a 26.766514
_cell_length_b 11.021083
_cell_length_c 8.494411
_cell_angle_alpha 90.000000
_cell_angle_beta 116.359142
_cell_angle_gamma 90.000000
_cell_volume 2245.283740
_symmetry_space_group_name_H-M "C 2/C"
_symmetry_group_IT_number 15
_symmetry_cell_setting 'monoclinic'
loop_
_space_group_symop_operation_xyz
x,y,z
-x,y,1/2-z
-x,-y,-z
x,-y,1/2+z
1/2+x,1/2+y,z
1/2-x,1/2+y,1/2-z
1/2-x,1/2-y,-z
1/2+x,1/2-y,1/2+z
loop_
_atom_site_type_symbol
_atom_site_label
_atom_site_fract_x
_atom_site_fract_y
_atom_site_fract_z
Si Si1 0.500000 0.697588 0.250000
Si Si2 0.226257 0.541258 0.518826
Si Si3 0.336185 0.129928 0.366263
Si Si4 0.088352 0.035230 0.565526
Si Si5 0.921755 0.737001 0.257965
Si Si6 0.550412 0.258511 0.531115
Si Si7 0.700539 0.383971 0.092314
O O1 0.541131 0.607747 0.402322
O O2 0.458351 0.777935 0.299722
O O3 0.208772 0.612992 0.338383
O O4 0.172951 0.481273 0.529412
O O5 0.266944 0.434653 0.512039
O O6 0.258694 0.612052 0.699762
O O7 0.391932 0.152611 0.344344
O O8 0.323216 0.249094 0.449797
O O9 0.097002 0.124579 0.727750
O O10 0.147042 0.034437 0.558588
O O11 0.067026 0.900591 0.567469
O O12 0.987309 0.739097 0.383615
O O13 0.912551 0.708678 0.060584
#
# Coordination Sequence:
#
# PCOD9256598 Si02
#       7
#     4   8   8   8   8   8   8
#     4  10  18  28  44  76 112 154 192 224 274 370
#     4  10  22  40  60  85 121 160 208 256 299 349
#     4  10  21  41  62  84 116 160 207 258 305 352
#     4  10  19  30  51  82 124 163 190 223 299 370
#     4   9  19  34  54  80 116 155 193 240 295 363
#     4  10  18  31  51  80 120 154 192 234 297 358
#     4  10  22  36  59  89 125 160 200 245 304 369
#
# _framework density 23.159658
#
# number of rings (size 3 to 8) (size 9 to 14) (size 15 to 20)
#    0.000    2.154    0.000    4.615    6.462    0.000 
#    0.000    9.231    0.000    3.692    0.000    2.154 
#    0.000    0.000    0.000    0.000    0.000    0.000 
#
# Total GULP energy -144984.041990 kJ/mol
# GULP energy per Si atom -5576.309307 kJ/mol
# Density = 2.310695 g / cm^3
# Si number density = 23.159658 Si / 1000 Ang^3
#
#
#
# Elastic Constant Matrix: (Units=GPa)
#
#
# Indices 1 2 3 4 5 6 
#
# 1 142.1192 38.6585 5.0270 0.0000 -24.6720 0.0000
# 2 38.6585 33.0257 6.8651 0.0000 -1.3087 0.0000
# 3 5.0270 6.8651 36.4797 0.0000 -17.2694 0.0000
# 4 0.0000 0.0000 0.0000 71.3145 0.0000 -3.0534
# 5 -24.6720 -1.3087 -17.2694 0.0000 39.4225 0.0000
# 6 0.0000 0.0000 0.0000 -3.0534 0.0000 33.3530
#
#
#
# Elastic Compliance Matrix: (Units=1/GPa)
#
#
# Indices 1 2 3 4 5 6 
#
# 1 0.012959 -0.016026 0.006078 0.000000 0.010240 0.000000
# 2 -0.016026 0.051453 -0.014400 0.000000 -0.014630 0.000000
# 3 0.006078 -0.014400 0.038933 0.000000 0.020381 0.000000
# 4 0.000000 0.000000 0.000000 0.014078 0.000000 0.001289
# 5 0.010240 -0.014630 0.020381 0.000000 0.040217 0.000000
# 6 0.000000 0.000000 0.000000 0.001289 0.000000 0.030100
#
#
# Mechanical properties :
#
#
# Convention : Reuss Voigt Hill
#
# Bulk Modulus (GPa) = 18.29905 34.74729 26.52317
# Shear Modulus (GPa) = 19.63456 39.55626 29.59541
#
# Velocity S-wave (km/s) = 2.91484 4.13726 3.57863
# Velocity P-wave (km/s) = 4.38712 6.15292 5.34347
#
# Compressibility (1/GPa) = 0.05464765
#
# Stress axis : x y z
#
# Youngs Moduli (GPa) = 77.16925 19.43523 25.68500
#
# Poissons Ratio (x) = 0.31148 -0.15612
# Poissons Ratio (y) = 1.23674 0.36987
# Poissons Ratio (z) = -0.46904 0.27987
#
# Static dielectric constant tensor:
#      x y z
#    x 1.921100 0.000000 -0.069050 
#    y 0.000000 1.837460 0.000000 
#    z -0.069050 0.000000 2.001600 
# 
# From -- ./inp_files/65381.got.cif
#   From: 2010.05.17/outbox.cif.g08.bks.cpg/sg15_33_cif.got.tgz:65381.got - 2010.06.03 18:47:42.
