data_PCOD9256824
_publ_section_title
;
Structure prediction by ZEFSAII (Michael W. Deem and Ramdas Pophale) SiO2 
 PCOD9256824
Probable space group: C 2/C
;
_chemical_formula_sum "Si O2"
_cell_formula_units_Z 48
_cell_length_a 17.601896
_cell_length_b 9.069932
_cell_length_c 16.364060
_cell_angle_alpha 90.000000
_cell_angle_beta 91.163969
_cell_angle_gamma 90.000000
_cell_volume 2611.950375
_symmetry_space_group_name_H-M "C 2/C"
_symmetry_group_IT_number 15
_symmetry_cell_setting 'monoclinic'
loop_
_space_group_symop_operation_xyz
x,y,z
-x,y,1/2-z
-x,-y,-z
x,-y,1/2+z
1/2+x,1/2+y,z
1/2-x,1/2+y,1/2-z
1/2-x,1/2-y,-z
1/2+x,1/2-y,1/2+z
loop_
_atom_site_type_symbol
_atom_site_label
_atom_site_fract_x
_atom_site_fract_y
_atom_site_fract_z
Si Si1 0.419325 0.640845 0.718136
Si Si2 0.675454 0.174157 0.600295
Si Si3 0.216291 0.044871 0.203466
Si Si4 0.861124 0.608097 0.318858
Si Si5 0.696061 0.344079 0.057167
Si Si6 0.652584 0.611904 0.954458
O O1 0.500000 0.582512 0.750000
O O2 0.351507 0.544927 0.756024
O O3 0.411422 0.807304 0.753074
O O4 0.404436 0.632262 0.621547
O O5 0.688415 0.299191 0.668542
O O6 0.644814 0.256460 0.519414
O O7 0.760089 0.116578 0.577472
O O8 0.623149 0.045658 0.635659
O O9 0.283029 0.074079 0.268506
O O10 0.239710 0.947893 0.124406
O O11 0.850091 0.727927 0.389966
O O12 0.750000 0.250000 0.000000
O O13 0.646718 0.457559 0.002442
#
# Coordination Sequence:
#
# PCOD9256824 Si02
#       6
#     8   8   8   8   8   8
#     4  11  23  39  56  82 116 152 184 229 285 336
#     4  10  18  32  56  84 109 139 190 235 276 314
#     4  10  19  34  55  83 112 148 187 232 272 332
#     4  11  19  34  57  85 112 144 192 232 273 330
#     4  10  18  29  53  87 113 139 184 236 279 320
#     4  10  19  33  54  83 115 142 180 234 284 329
#
# _framework density 18.377071000000001
#
# number of rings (size 3 to 8) (size 9 to 14) (size 15 to 20)
#    0.000    1.667    5.000    1.000    0.000    0.000 
#    0.000    9.167    0.000    0.000    0.000    0.000 
#    0.000    0.000    0.000    0.000    0.000    0.000 
#
# Total GULP energy -133807.803078 kJ/mol
# GULP energy per Si atom -5575.325128 kJ/mol
# Density = 1.833524 g / cm^3
# Si number density = 18.377071 Si / 1000 Ang^3
#
#
#
# Elastic Constant Matrix: (Units=GPa)
#
#
# Indices 1 2 3 4 5 6 
#
# 1 44.5328 6.8635 28.9648 0.0000 14.3537 0.0000
# 2 6.8635 114.5023 51.3641 0.0000 -4.0172 0.0000
# 3 28.9648 51.3641 145.9079 0.0000 10.9383 0.0000
# 4 0.0000 0.0000 0.0000 19.1724 0.0000 -6.3750
# 5 14.3537 -4.0172 10.9383 0.0000 13.0417 0.0000
# 6 0.0000 0.0000 0.0000 -6.3750 0.0000 15.4707
#
#
#
# Elastic Compliance Matrix: (Units=1/GPa)
#
#
# Indices 1 2 3 4 5 6 
#
# 1 0.037854 -0.001869 -0.003938 0.000000 -0.038935 0.000000
# 2 -0.001869 0.011038 -0.004187 0.000000 0.008969 0.000000
# 3 -0.003938 -0.004187 0.009477 0.000000 -0.004904 0.000000
# 4 0.000000 0.000000 0.000000 0.060440 0.000000 0.024905
# 5 -0.038935 0.008969 -0.004904 0.000000 0.126405 0.000000
# 6 0.000000 0.000000 0.000000 0.024905 0.000000 0.074901
#
#
# Mechanical properties :
#
#
# Convention : Reuss Voigt Hill
#
# Bulk Modulus (GPa) = 26.05388 53.25863 39.65625
# Shear Modulus (GPa) = 14.16844 24.05366 19.11105
#
# Velocity S-wave (km/s) = 2.77967 3.62179 3.22831
# Velocity P-wave (km/s) = 4.95079 6.82157 5.96004
#
# Compressibility (1/GPa) = 0.03838200
#
# Stress axis : x y z
#
# Youngs Moduli (GPa) = 26.41730 90.59226 105.51760
#
# Poissons Ratio (x) = 0.16928 0.41552
# Poissons Ratio (y) = 0.04936 0.44183
# Poissons Ratio (z) = 0.10403 0.37934
#
# Static dielectric constant tensor:
#      x y z
#    x 2.069740 0.000000 -0.548040 
#    y 0.000000 1.658240 0.000000 
#    z -0.548040 0.000000 2.255700 
# 
# From -- ./inp_files/166410.got.cif
#   From: 2010.05.17/outbox.cif.g08.bks.cpg/sg15_84_cif.got.tgz:166410.got - 2010.06.03 18:47:42.
