data_PCOD9256526
_publ_section_title
;
Structure prediction by ZEFSAII (Michael W. Deem and Ramdas Pophale) SiO2 
 PCOD9256526
Probable space group: C 2/C
;
_chemical_formula_sum "Si O2"
_cell_formula_units_Z 48
_cell_length_a 20.493014
_cell_length_b 22.538983
_cell_length_c 8.564976
_cell_angle_alpha 90.000000
_cell_angle_beta 33.987467
_cell_angle_gamma 90.000000
_cell_volume 2211.500695
_symmetry_space_group_name_H-M "C 2/C"
_symmetry_group_IT_number 15
_symmetry_cell_setting 'monoclinic'
loop_
_space_group_symop_operation_xyz
x,y,z
-x,y,1/2-z
-x,-y,-z
x,-y,1/2+z
1/2+x,1/2+y,z
1/2-x,1/2+y,1/2-z
1/2-x,1/2-y,-z
1/2+x,1/2-y,1/2+z
loop_
_atom_site_type_symbol
_atom_site_label
_atom_site_fract_x
_atom_site_fract_y
_atom_site_fract_z
Si Si1 0.863619 0.826826 0.686934
Si Si2 0.510287 0.850851 0.534841
Si Si3 0.802992 0.426470 0.541984
Si Si4 0.780403 0.291078 0.216304
Si Si5 0.618759 0.962074 0.769205
Si Si6 0.433293 0.725359 0.549981
O O1 0.816810 0.890120 0.728553
O O2 0.818076 0.777331 0.657342
O O3 0.997926 0.816688 0.465274
O O4 0.797715 0.809126 0.979089
O O5 0.601600 0.826862 0.483170
O O6 0.416504 0.902820 0.751758
O O7 0.450143 0.792417 0.580285
O O8 0.599100 0.883518 0.233337
O O9 0.844942 0.441757 0.631747
O O10 0.792769 0.489961 0.476365
O O11 0.696909 0.295833 0.232863
O O12 0.500000 0.000000 0.000000
O O13 0.500000 0.725034 0.250000
#
# Coordination Sequence:
#
# PCOD9256526 Si02
#       6
#     8   8   8   8   8   8
#     4   8  14  22  35  57  87 113 132 169 222 265
#     4   9  15  23  36  58  88 113 133 169 222 266
#     4  10  18  28  40  60  87 114 144 175 214 257
#     4   8  13  20  34  58  86 109 132 170 225 265
#     4  10  18  27  41  59  86 116 142 175 215 256
#     4   9  13  20  36  59  87 109 131 172 229 262
#
# _framework density 21.704719000000001
#
# number of rings (size 3 to 8) (size 9 to 14) (size 15 to 20)
#    0.000    3.000    0.000    7.000    0.000    0.000 
#    0.000    0.000    0.000    0.000    0.000   44.333 
#    0.000  365.333    0.000    0.000    0.000    0.000 
#
# Total GULP energy -133939.912319 kJ/mol
# GULP energy per Si atom -5580.829680 kJ/mol
# Density = 2.165532 g / cm^3
# Si number density = 21.704719 Si / 1000 Ang^3
#
#
#
# Elastic Constant Matrix: (Units=GPa)
#
#
# Indices 1 2 3 4 5 6 
#
# 1 137.7123 84.7731 47.7963 0.0000 -49.8570 0.0000
# 2 84.7731 158.7044 43.5750 0.0000 -27.4554 0.0000
# 3 47.7963 43.5750 67.3533 -0.0001 -23.0327 0.0000
# 4 0.0000 0.0000 -0.0001 26.7325 0.0000 -3.5480
# 5 -49.8570 -27.4554 -23.0327 0.0000 34.9115 0.0000
# 6 0.0000 0.0000 0.0000 -3.5480 0.0000 47.9655
#
#
#
# Elastic Compliance Matrix: (Units=1/GPa)
#
#
# Indices 1 2 3 4 5 6 
#
# 1 0.019804 -0.006082 -0.002690 0.000000 0.021724 0.000000
# 2 -0.006082 0.009888 -0.003089 0.000000 -0.002947 0.000000
# 3 -0.002690 -0.003089 0.021449 0.000000 0.007880 0.000000
# 4 0.000000 0.000000 0.000000 0.037779 0.000000 0.002795
# 5 0.021724 -0.002947 0.007880 0.000000 0.062550 0.000000
# 6 0.000000 0.000000 0.000000 0.002795 0.000000 0.021055
#
#
# Mechanical properties :
#
#
# Convention : Reuss Voigt Hill
#
# Bulk Modulus (GPa) = 36.47004 79.56208 58.01606
# Shear Modulus (GPa) = 24.34444 34.43027 29.38736
#
# Velocity S-wave (km/s) = 3.35269 3.98716 3.68361
# Velocity P-wave (km/s) = 5.64151 7.61136 6.69923
#
# Compressibility (1/GPa) = 0.02741977
#
# Stress axis : x y z
#
# Youngs Moduli (GPa) = 50.49519 101.13384 46.62156
#
# Poissons Ratio (x) = 0.61505 0.12541
# Poissons Ratio (y) = 0.30709 0.14402
# Poissons Ratio (z) = 0.13583 0.31242
#
# Static dielectric constant tensor:
#      x y z
#    x 1.843610 0.000000 0.050760 
#    y 0.000000 1.784440 0.000000 
#    z 0.050760 0.000000 1.952280 
# 
# From -- ./inp_files/119669.got.cif
#   From: 2010.05.17/outbox.cif.g08.bks.cpg/sg15_60_cif.got.tgz:119669.got - 2010.06.03 18:47:42.
