data_PCOD9256055
_publ_section_title
;
Structure prediction by ZEFSAII (Michael W. Deem and Ramdas Pophale) SiO2 
 PCOD9256055
Probable space group: C 2/C
;
_chemical_formula_sum "Si O2"
_cell_formula_units_Z 40
_cell_length_a 15.940288
_cell_length_b 10.690585
_cell_length_c 19.879909
_cell_angle_alpha 90.000000
_cell_angle_beta 34.628627
_cell_angle_gamma 90.000000
_cell_volume 1925.108663
_symmetry_space_group_name_H-M "C 2/C"
_symmetry_group_IT_number 15
_symmetry_cell_setting 'monoclinic'
loop_
_space_group_symop_operation_xyz
x,y,z
-x,y,1/2-z
-x,-y,-z
x,-y,1/2+z
1/2+x,1/2+y,z
1/2-x,1/2+y,1/2-z
1/2-x,1/2-y,-z
1/2+x,1/2-y,1/2+z
loop_
_atom_site_type_symbol
_atom_site_label
_atom_site_fract_x
_atom_site_fract_y
_atom_site_fract_z
Si Si1 0.934146 0.689015 0.569858
Si Si2 0.303130 0.382224 0.495999
Si Si3 0.922026 0.903937 0.103790
Si Si4 0.702570 0.099826 0.216618
Si Si5 0.402229 0.015848 0.466705
O O1 0.799350 0.781473 0.678251
O O2 0.875207 0.587542 0.554789
O O3 0.053298 0.773779 0.450466
O O4 0.027711 0.618069 0.564057
O O5 0.250000 0.250000 0.500000
O O6 0.477470 0.395187 0.395978
O O7 0.231300 0.398755 0.617445
O O8 0.239924 0.483361 0.486287
O O9 0.766761 0.973941 0.209946
O O10 0.000000 0.000000 0.000000
O O11 0.530129 0.095986 0.345076
#
# Coordination Sequence:
#
# PCOD9256055 Si02
#       5
#     8   8   8   8   8
#     4   9  20  35  52  82 112 144 181 236 277 322
#     4  10  17  34  56  81 111 141 184 235 278 318
#     4   8  17  36  53  74 113 147 175 220 291 321
#     4  10  21  36  57  82 112 153 184 222 289 338
#     4  11  20  32  58  85 109 143 192 231 270 332
#
# _framework density 20.778048999999999
#
# number of rings (size 3 to 8) (size 9 to 14) (size 15 to 20)
#    0.000    2.800    4.000    0.600    2.800    0.000 
#    0.000    9.000    0.000    0.000    0.000    0.000 
#    0.000    0.000    0.000    0.000    0.000    0.000 
#
# Total GULP energy -111462.921646 kJ/mol
# GULP energy per Si atom -5573.146082 kJ/mol
# Density = 2.073076 g / cm^3
# Si number density = 20.778049 Si / 1000 Ang^3
#
#
#
# Elastic Constant Matrix: (Units=GPa)
#
#
# Indices 1 2 3 4 5 6 
#
# 1 146.5319 54.7067 11.1574 0.0000 -12.8098 0.0000
# 2 54.7067 80.8789 -1.4680 0.0000 -8.4994 0.0000
# 3 11.1574 -1.4680 52.2683 -0.0001 -7.3488 0.0000
# 4 0.0000 0.0000 -0.0001 16.2043 0.0000 0.0997
# 5 -12.8098 -8.4994 -7.3488 0.0000 27.5116 0.0000
# 6 0.0000 0.0000 0.0000 0.0997 0.0000 44.5654
#
#
#
# Elastic Compliance Matrix: (Units=1/GPa)
#
#
# Indices 1 2 3 4 5 6 
#
# 1 0.009470 -0.006233 -0.001919 0.000000 0.001971 0.000000
# 2 -0.006233 0.016927 0.002216 0.000000 0.002919 0.000000
# 3 -0.001919 0.002216 0.020338 0.000000 0.005224 0.000000
# 4 0.000000 0.000000 0.000000 0.061713 0.000000 -0.000138
# 5 0.001971 0.002919 0.005224 0.000000 0.039563 0.000000
# 6 0.000000 0.000000 0.000000 -0.000138 0.000000 0.022439
#
#
# Mechanical properties :
#
#
# Convention : Reuss Voigt Hill
#
# Bulk Modulus (GPa) = 28.68346 45.38571 37.03458
# Shear Modulus (GPa) = 25.78049 32.00846 28.89447
#
# Velocity S-wave (km/s) = 3.52626 3.92917 3.73315
# Velocity P-wave (km/s) = 5.51489 6.51729 6.03693
#
# Compressibility (1/GPa) = 0.03486330
#
# Stress axis : x y z
#
# Youngs Moduli (GPa) = 105.59583 59.07585 49.16787
#
# Poissons Ratio (x) = 0.36824 0.09438
# Poissons Ratio (y) = 0.65821 -0.10898
# Poissons Ratio (z) = 0.20269 -0.13094
#
# Static dielectric constant tensor:
#      x y z
#    x 1.745120 0.000000 -0.022230 
#    y 0.000000 1.824660 0.000000 
#    z -0.022230 0.000000 1.840760 
# 
# From -- ./inp_files/141822.got.cif
#   From: 2010.05.17/outbox.cif.g08.bks.cpg/sg15_71_cif.got.tgz:141822.got - 2010.06.03 18:47:42.
