data_PCOD9256860
_publ_section_title
;
Structure prediction by ZEFSAII (Michael W. Deem and Ramdas Pophale) SiO2 
 PCOD9256860
Probable space group: C 2/C
;
_chemical_formula_sum "Si O2"
_cell_formula_units_Z 56
_cell_length_a 26.505816
_cell_length_b 21.674369
_cell_length_c 5.418517
_cell_angle_alpha 90.000000
_cell_angle_beta 96.968244
_cell_angle_gamma 90.000000
_cell_volume 3089.927425
_symmetry_space_group_name_H-M "C 2/C"
_symmetry_group_IT_number 15
_symmetry_cell_setting 'monoclinic'
loop_
_space_group_symop_operation_xyz
x,y,z
-x,y,1/2-z
-x,-y,-z
x,-y,1/2+z
1/2+x,1/2+y,z
1/2-x,1/2+y,1/2-z
1/2-x,1/2-y,-z
1/2+x,1/2-y,1/2+z
loop_
_atom_site_type_symbol
_atom_site_label
_atom_site_fract_x
_atom_site_fract_y
_atom_site_fract_z
Si Si1 0.595870 0.077251 0.382522
Si Si2 0.300362 0.342287 0.975237
Si Si3 0.057231 0.439663 0.358883
Si Si4 0.189215 0.356571 0.694386
Si Si5 0.691588 0.729211 0.509093
Si Si6 0.338645 0.517528 0.483123
Si Si7 0.774593 0.532568 0.582228
O O1 0.579768 0.098761 0.644670
O O2 0.648626 0.105566 0.327269
O O3 0.590211 0.002606 0.402158
O O4 0.559444 0.091429 0.127148
O O5 0.239476 0.343884 0.888313
O O6 0.322958 0.303448 0.756855
O O7 0.310599 0.314112 0.250713
O O8 0.320602 0.411954 0.973799
O O9 0.000000 0.456845 0.250000
O O10 0.166236 0.293677 0.573101
O O11 0.208453 0.399466 0.480331
O O12 0.750000 0.750000 0.500000
O O13 0.366432 0.500243 0.249336
O O14 0.286594 0.475835 0.451289
O O15 0.791982 0.508500 0.857663
#
# Coordination Sequence:
#
# PCOD9256860 Si02
#       7
#     8   8   8   8   8   8   8
#     4  10  21  29  50  68  84 115 141 188 224 269
#     4  11  21  35  48  59  86 122 148 179 244 288
#     4  10  20  37  50  68  94 119 145 173 245 317
#     4  11  22  33  46  66  92 106 157 190 232 286
#     4  10  23  34  46  59  81 126 151 179 221 298
#     4  10  18  30  45  63  77 101 138 182 232 272
#     4  10  21  28  43  58  85 107 120 188 243 269
#
# _framework density 18.123404000000001
#
# number of rings (size 3 to 8) (size 9 to 14) (size 15 to 20)
#    0.000    1.714    2.857    4.714   10.000    4.571 
#    0.000    0.000    0.000    0.000    0.000    0.000 
#    0.000    0.000    0.000    0.000    0.000    0.000 
#
# Total GULP energy -156224.029049 kJ/mol
# GULP energy per Si atom -5579.429609 kJ/mol
# Density = 1.808215 g / cm^3
# Si number density = 18.123404 Si / 1000 Ang^3
#
#
#
# Elastic Constant Matrix: (Units=GPa)
#
#
# Indices 1 2 3 4 5 6 
#
# 1 25.3809 2.4820 -1.8678 0.0000 -3.7543 0.0000
# 2 2.4820 66.3309 20.2907 0.0000 -7.2763 0.0000
# 3 -1.8678 20.2907 139.9159 0.0000 -19.7549 0.0000
# 4 0.0000 0.0000 0.0000 24.5497 0.0000 -5.5823
# 5 -3.7543 -7.2763 -19.7549 0.0000 16.2198 0.0000
# 6 0.0000 0.0000 0.0000 -5.5823 0.0000 9.6194
#
#
#
# Elastic Compliance Matrix: (Units=1/GPa)
#
#
# Indices 1 2 3 4 5 6 
#
# 1 0.041458 -0.000959 0.002399 0.000000 0.012088 0.000000
# 2 -0.000959 0.016167 -0.001648 0.000000 0.005023 0.000000
# 3 0.002399 -0.001648 0.008927 0.000000 0.010689 0.000000
# 4 0.000000 0.000000 0.000000 0.046926 0.000000 0.027232
# 5 0.012088 0.005023 0.010689 0.000000 0.079723 0.000000
# 6 0.000000 0.000000 0.000000 0.027232 0.000000 0.119760
#
#
# Mechanical properties :
#
#
# Convention : Reuss Voigt Hill
#
# Bulk Modulus (GPa) = 15.12026 30.38194 22.75110
# Shear Modulus (GPa) = 14.90655 24.12596 19.51625
#
# Velocity S-wave (km/s) = 2.87104 3.65253 3.28510
# Velocity P-wave (km/s) = 4.39904 5.88118 5.19326
#
# Compressibility (1/GPa) = 0.06613643
#
# Stress axis : x y z
#
# Youngs Moduli (GPa) = 24.12069 61.85431 112.01477
#
# Poissons Ratio (x) = 0.05933 -0.26875
# Poissons Ratio (y) = 0.02314 0.18461
# Poissons Ratio (z) = -0.05787 0.10194
#
# Static dielectric constant tensor:
#      x y z
#    x 1.617740 0.000000 -0.019480 
#    y 0.000000 1.678250 0.000000 
#    z -0.019480 0.000000 1.756390 
# 
# From -- ./inp_files/17351.got.cif
#   From: 2010.05.17/outbox.cif.g08.bks.cpg/sg15_9_cif.got.tgz:17351.got - 2010.06.03 18:47:42.
