data_PCOD9256214
_publ_section_title
;
Structure prediction by ZEFSAII (Michael W. Deem and Ramdas Pophale) SiO2 
 PCOD9256214
Probable space group: C 2/C
;
_chemical_formula_sum "Si O2"
_cell_formula_units_Z 48
_cell_length_a 19.910914
_cell_length_b 9.369726
_cell_length_c 14.000213
_cell_angle_alpha 90.000000
_cell_angle_beta 115.192233
_cell_angle_gamma 90.000000
_cell_volume 2363.447751
_symmetry_space_group_name_H-M "C 2/C"
_symmetry_group_IT_number 15
_symmetry_cell_setting 'monoclinic'
loop_
_space_group_symop_operation_xyz
x,y,z
-x,y,1/2-z
-x,-y,-z
x,-y,1/2+z
1/2+x,1/2+y,z
1/2-x,1/2+y,1/2-z
1/2-x,1/2-y,-z
1/2+x,1/2-y,1/2+z
loop_
_atom_site_type_symbol
_atom_site_label
_atom_site_fract_x
_atom_site_fract_y
_atom_site_fract_z
Si Si1 0.607490 0.291805 0.521666
Si Si2 0.254116 0.583531 0.330910
Si Si3 0.130921 0.520035 0.109141
Si Si4 0.463363 0.752945 0.828961
Si Si5 0.274123 0.910453 0.000259
Si Si6 0.672890 0.351264 0.357382
O O1 0.656592 0.407953 0.608852
O O2 0.524520 0.319942 0.433890
O O3 0.651075 0.278994 0.446053
O O4 0.606948 0.142958 0.578558
O O5 0.209190 0.534200 0.212166
O O6 0.221637 0.486019 0.395208
O O7 0.229290 0.745455 0.338769
O O8 0.073962 0.617013 0.134879
O O9 0.150994 0.579041 0.016195
O O10 0.500000 0.803459 0.750000
O O11 0.399153 0.647357 0.752919
O O12 0.209743 0.000863 0.908196
O O13 0.250000 0.750000 0.000000
#
# Coordination Sequence:
#
# PCOD9256214 Si02
#       6
#     8   8   8   8   8   8
#     4  10  17  35  58  87 113 158 204 252 295 372
#     4  10  20  35  59  86 119 163 205 247 309 366
#     4  11  21  34  60  91 127 152 207 264 311 357
#     4   9  20  34  62  92 117 164 207 252 309 380
#     4  11  22  35  59  93 121 155 204 267 308 353
#     4   9  17  38  58  84 118 156 202 247 305 372
#
# _framework density 20.309311999999998
#
# number of rings (size 3 to 8) (size 9 to 14) (size 15 to 20)
#    0.000    2.000    3.333    1.500    2.333    0.000 
#    0.000    0.000    0.000   20.000    0.000    0.000 
#    0.000    0.000    0.000    0.000    0.000    0.000 
#
# Total GULP energy -133798.989418 kJ/mol
# GULP energy per Si atom -5574.957892 kJ/mol
# Density = 2.026309 g / cm^3
# Si number density = 20.309312 Si / 1000 Ang^3
#
#
#
# Elastic Constant Matrix: (Units=GPa)
#
#
# Indices 1 2 3 4 5 6 
#
# 1 46.8860 3.6715 8.5555 0.0000 -7.8998 0.0000
# 2 3.6715 77.5675 11.8664 0.0000 -13.6188 0.0000
# 3 8.5555 11.8664 68.4615 0.0000 19.9221 0.0000
# 4 0.0000 0.0000 0.0000 23.5100 0.0000 -3.2991
# 5 -7.8998 -13.6188 19.9221 0.0000 40.4107 0.0000
# 6 0.0000 0.0000 0.0000 -3.2991 0.0000 19.1358
#
#
#
# Elastic Compliance Matrix: (Units=1/GPa)
#
#
# Indices 1 2 3 4 5 6 
#
# 1 0.023491 0.001028 -0.005313 0.000000 0.007558 0.000000
# 2 0.001028 0.014950 -0.004955 0.000000 0.007682 0.000000
# 3 -0.005313 -0.004955 0.019751 0.000000 -0.012446 0.000000
# 4 0.000000 0.000000 0.000000 0.043590 0.000000 0.007515
# 5 0.007558 0.007682 -0.012446 0.000000 0.034948 0.000000
# 6 0.000000 0.000000 0.000000 0.007515 0.000000 0.053554
#
#
# Mechanical properties :
#
#
# Convention : Reuss Voigt Hill
#
# Bulk Modulus (GPa) = 25.18173 26.78910 25.98541
# Shear Modulus (GPa) = 22.52231 27.86605 25.19418
#
# Velocity S-wave (km/s) = 3.33373 3.70818 3.52593
# Velocity P-wave (km/s) = 5.21961 5.61724 5.42207
#
# Compressibility (1/GPa) = 0.03971133
#
# Stress axis : x y z
#
# Youngs Moduli (GPa) = 42.56989 66.88879 50.62951
#
# Poissons Ratio (x) = -0.06875 0.26900
# Poissons Ratio (y) = -0.04376 0.25088
# Poissons Ratio (z) = 0.22618 0.33145
#
# Static dielectric constant tensor:
#      x y z
#    x 1.787190 0.000000 0.015620 
#    y 0.000000 1.710600 0.000000 
#    z 0.015620 0.000000 1.769700 
# 
# From -- ./inp_files/166376.got.cif
#   From: 2010.05.17/outbox.cif.g08.bks.cpg/sg15_84_cif.got.tgz:166376.got - 2010.06.03 18:47:42.
