data_PCOD9256388
_publ_section_title
;
Structure prediction by ZEFSAII (Michael W. Deem and Ramdas Pophale) SiO2 
 PCOD9256388
Probable space group: C 2/C
;
_chemical_formula_sum "Si O2"
_cell_formula_units_Z 56
_cell_length_a 32.838763
_cell_length_b 13.002959
_cell_length_c 10.471339
_cell_angle_alpha 90.000000
_cell_angle_beta 42.777656
_cell_angle_gamma 90.000000
_cell_volume 3036.688035
_symmetry_space_group_name_H-M "C 2/C"
_symmetry_group_IT_number 15
_symmetry_cell_setting 'monoclinic'
loop_
_space_group_symop_operation_xyz
x,y,z
-x,y,1/2-z
-x,-y,-z
x,-y,1/2+z
1/2+x,1/2+y,z
1/2-x,1/2+y,1/2-z
1/2-x,1/2-y,-z
1/2+x,1/2-y,1/2+z
loop_
_atom_site_type_symbol
_atom_site_label
_atom_site_fract_x
_atom_site_fract_y
_atom_site_fract_z
Si Si1 0.066401 0.045452 0.849232
Si Si2 0.143173 0.983749 0.918804
Si Si3 0.728674 0.931907 0.346482
Si Si4 0.036125 0.236358 0.779127
Si Si5 0.529962 0.945876 0.549179
Si Si6 0.334664 0.243699 0.630791
Si Si7 0.828607 0.551453 0.785058
O O1 0.103803 0.012516 0.637817
O O2 0.055617 0.166826 0.851766
O O3 0.103073 0.013961 0.889765
O O4 0.000000 0.000000 0.000000
O O5 0.167658 0.865875 0.848906
O O6 0.200723 0.055938 0.800111
O O7 0.707613 0.813385 0.375633
O O8 0.705522 0.981698 0.266260
O O9 0.697807 0.992474 0.533728
O O10 0.097635 0.277758 0.575455
O O11 0.000000 0.175041 0.750000
O O12 0.990826 0.327136 0.916433
O O13 0.500000 0.981574 0.750000
O O14 0.600463 0.965960 0.386976
O O15 0.500000 0.000000 0.500000
O O16 0.322724 0.176702 0.786525
#
# Coordination Sequence:
#
# PCOD9256388 Si02
#       7
#     8   8   8   8   8   8   8
#     4  11  23  39  67  89 117 154 204 257 301 374
#     4  11  23  43  63  90 119 162 205 249 315 366
#     4  10  21  39  60  88 123 159 209 251 296 365
#     4  10  17  37  60  87 116 166 199 234 315 375
#     4  11  19  33  58  86 119 160 201 242 296 358
#     4   9  20  37  63  82 118 167 198 240 312 365
#     4  10  19  36  60  86 119 163 202 247 295 359
#
# _framework density 18.441143
#
# number of rings (size 3 to 8) (size 9 to 14) (size 15 to 20)
#    0.857    0.857    2.857    4.714    0.000    0.571 
#    0.000    9.286    0.000    0.000    0.000    0.000 
#    0.000    0.000    0.000    0.000    0.000    0.000 
#
# Total GULP energy -155908.170095 kJ/mol
# GULP energy per Si atom -5568.148932 kJ/mol
# Density = 1.839917 g / cm^3
# Si number density = 18.441143 Si / 1000 Ang^3
#
#
#
# Elastic Constant Matrix: (Units=GPa)
#
#
# Indices 1 2 3 4 5 6 
#
# 1 175.3678 51.4947 66.0103 0.0000 -2.5941 0.0000
# 2 51.4947 60.5367 30.7871 0.0000 3.7188 0.0000
# 3 66.0103 30.7871 58.3538 0.0000 2.9553 0.0000
# 4 0.0000 0.0000 0.0000 21.3337 0.0000 4.6709
# 5 -2.5941 3.7188 2.9553 0.0000 39.9946 0.0000
# 6 0.0000 0.0000 0.0000 4.6709 0.0000 34.4653
#
#
#
# Elastic Compliance Matrix: (Units=1/GPa)
#
#
# Indices 1 2 3 4 5 6 
#
# 1 0.010721 -0.004123 -0.010044 0.000000 0.001821 0.000000
# 2 -0.004123 0.024222 -0.008018 0.000000 -0.001927 0.000000
# 3 -0.010044 -0.008018 0.032847 0.000000 -0.002333 0.000000
# 4 0.000000 0.000000 0.000000 0.048308 0.000000 -0.006547
# 5 0.001821 -0.001927 -0.002333 0.000000 0.025473 0.000000
# 6 0.000000 0.000000 0.000000 -0.006547 0.000000 0.029902
#
#
# Mechanical properties :
#
#
# Convention : Reuss Voigt Hill
#
# Bulk Modulus (GPa) = 42.69871 65.64916 54.17393
# Shear Modulus (GPa) = 22.35640 28.88979 25.62309
#
# Velocity S-wave (km/s) = 3.48560 3.96232 3.73158
# Velocity P-wave (km/s) = 6.27722 7.52395 6.92869
#
# Compressibility (1/GPa) = 0.02341991
#
# Stress axis : x y z
#
# Youngs Moduli (GPa) = 93.27751 41.28454 30.44393
#
# Poissons Ratio (x) = 0.17022 0.30579
# Poissons Ratio (y) = 0.38459 0.24409
# Poissons Ratio (z) = 0.93690 0.33101
#
# Static dielectric constant tensor:
#      x y z
#    x 1.639310 0.000000 0.006900 
#    y 0.000000 1.704470 0.000000 
#    z 0.006900 0.000000 1.646600 
# 
# From -- ./inp_files/69883.got.cif
#   From: 2010.05.17/outbox.cif.g08.bks.cpg/sg15_35_cif.got.tgz:69883.got - 2010.06.03 18:47:42.
