data_PCOD9256021
_publ_section_title
;
Structure prediction by ZEFSAII (Michael W. Deem and Ramdas Pophale) SiO2 
 PCOD9256021
Probable space group: C 2/C
;
_chemical_formula_sum "Si O2"
_cell_formula_units_Z 56
_cell_length_a 21.557636
_cell_length_b 18.066325
_cell_length_c 12.824949
_cell_angle_alpha 90.000000
_cell_angle_beta 34.786041
_cell_angle_gamma 90.000000
_cell_volume 2849.656551
_symmetry_space_group_name_H-M "C 2/C"
_symmetry_group_IT_number 15
_symmetry_cell_setting 'monoclinic'
loop_
_space_group_symop_operation_xyz
x,y,z
-x,y,1/2-z
-x,-y,-z
x,-y,1/2+z
1/2+x,1/2+y,z
1/2-x,1/2+y,1/2-z
1/2-x,1/2-y,-z
1/2+x,1/2-y,1/2+z
loop_
_atom_site_type_symbol
_atom_site_label
_atom_site_fract_x
_atom_site_fract_y
_atom_site_fract_z
Si Si1 0.730607 0.375161 0.101502
Si Si2 0.190228 0.246042 0.927855
Si Si3 0.554591 0.742248 0.924339
Si Si4 0.359762 0.341682 0.810435
Si Si5 0.373159 0.480679 0.673581
Si Si6 0.621721 0.615559 0.540088
Si Si7 0.883596 0.711215 0.516966
O O1 0.642602 0.309818 0.246568
O O2 0.696435 0.445347 0.218259
O O3 0.709042 0.394923 0.011277
O O4 0.846402 0.342714 0.976468
O O5 0.113715 0.277126 0.942643
O O6 0.248448 0.307784 0.917052
O O7 0.287720 0.203847 0.734623
O O8 0.130746 0.189067 0.086381
O O9 0.459131 0.690630 0.104422
O O10 0.496175 0.795675 0.923186
O O11 0.355106 0.428366 0.798675
O O12 0.500000 0.500000 0.500000
O O13 0.352861 0.432269 0.597665
O O14 0.500000 0.596706 0.750000
O O15 0.619766 0.703131 0.515615
#
# Coordination Sequence:
#
# PCOD9256021 Si02
#       7
#     8   8   8   8   8   8   8
#     4  11  23  35  57  85 115 156 187 232 299 341
#     4   9  19  31  55  82 110 154 190 230 282 325
#     4  10  17  34  53  80 113 143 192 240 272 333
#     4  10  18  34  52  81 119 152 187 226 285 342
#     4  12  21  37  53  87 126 149 182 236 293 366
#     4  12  20  38  58  80 116 154 185 234 293 340
#     4  10  20  37  53  82 115 143 202 239 272 344
#
# _framework density 19.651491
#
# number of rings (size 3 to 8) (size 9 to 14) (size 15 to 20)
#    0.000    1.429    7.143    0.857    0.000    2.286 
#    2.571    0.000    0.000    0.857    0.000    6.000 
#    0.000    0.000    0.000    0.000    0.000    0.000 
#
# Total GULP energy -156304.705994 kJ/mol
# GULP energy per Si atom -5582.310928 kJ/mol
# Density = 1.960676 g / cm^3
# Si number density = 19.651491 Si / 1000 Ang^3
#
#
#
# Elastic Constant Matrix: (Units=GPa)
#
#
# Indices 1 2 3 4 5 6 
#
# 1 150.8957 45.8937 26.7576 0.0000 -11.3190 0.0000
# 2 45.8937 53.4793 12.1033 0.0000 -5.2298 0.0000
# 3 26.7576 12.1033 50.3424 0.0000 5.7958 0.0000
# 4 0.0000 0.0000 0.0000 22.8342 0.0000 -0.0958
# 5 -11.3190 -5.2298 5.7958 0.0000 31.5677 0.0000
# 6 0.0000 0.0000 0.0000 -0.0958 0.0000 22.3214
#
#
#
# Elastic Compliance Matrix: (Units=1/GPa)
#
#
# Indices 1 2 3 4 5 6 
#
# 1 0.009705 -0.007182 -0.003775 0.000000 0.002983 0.000000
# 2 -0.007182 0.025661 -0.002600 0.000000 0.002153 0.000000
# 3 -0.003775 -0.002600 0.023191 0.000000 -0.006042 0.000000
# 4 0.000000 0.000000 0.000000 0.043795 0.000000 0.000188
# 5 0.002983 0.002153 -0.006042 0.000000 0.034214 0.000000
# 6 0.000000 0.000000 0.000000 0.000188 0.000000 0.044801
#
#
# Mechanical properties :
#
#
# Convention : Reuss Voigt Hill
#
# Bulk Modulus (GPa) = 31.80356 47.13630 39.46993
# Shear Modulus (GPa) = 22.83515 26.67553 24.75534
#
# Velocity S-wave (km/s) = 3.41252 3.68833 3.55310
# Velocity P-wave (km/s) = 5.63436 6.49435 6.07958
#
# Compressibility (1/GPa) = 0.03144302
#
# Stress axis : x y z
#
# Youngs Moduli (GPa) = 103.04410 38.96937 43.12011
#
# Poissons Ratio (x) = 0.27988 0.16277
# Poissons Ratio (y) = 0.74007 0.11211
# Poissons Ratio (z) = 0.38897 0.10132
#
# Static dielectric constant tensor:
#      x y z
#    x 1.771410 0.000000 0.016610 
#    y 0.000000 1.675040 0.000000 
#    z 0.016610 0.000000 1.717740 
# 
# From -- ./inp_files/173780.got.cif
#   From: 2010.05.17/outbox.cif.g08.bks.cpg/sg15_87_cif.got.tgz:173780.got - 2010.06.03 18:47:42.
