data_PCOD9256624
_publ_section_title
;
Structure prediction by ZEFSAII (Michael W. Deem and Ramdas Pophale) SiO2 
 PCOD9256624
Probable space group: C 2/C
;
_chemical_formula_sum "Si O2"
_cell_formula_units_Z 56
_cell_length_a 5.520362
_cell_length_b 28.189134
_cell_length_c 14.526068
_cell_angle_alpha 90.000000
_cell_angle_beta 70.158587
_cell_angle_gamma 90.000000
_cell_volume 2126.271978
_symmetry_space_group_name_H-M "C 2/C"
_symmetry_group_IT_number 15
_symmetry_cell_setting 'monoclinic'
loop_
_space_group_symop_operation_xyz
x,y,z
-x,y,1/2-z
-x,-y,-z
x,-y,1/2+z
1/2+x,1/2+y,z
1/2-x,1/2+y,1/2-z
1/2-x,1/2-y,-z
1/2+x,1/2-y,1/2+z
loop_
_atom_site_type_symbol
_atom_site_label
_atom_site_fract_x
_atom_site_fract_y
_atom_site_fract_z
Si Si1 0.035708 0.708881 0.867299
Si Si2 0.384600 0.482233 0.612964
Si Si3 0.344140 0.153033 0.069521
Si Si4 0.308410 0.312952 0.611519
Si Si5 0.482512 0.325170 0.114897
Si Si6 0.291841 0.584059 0.696202
Si Si7 0.073499 0.547576 0.430754
O O1 0.293078 0.677086 0.838510
O O2 0.148356 0.761587 0.850626
O O3 0.786863 0.701888 0.834287
O O4 0.902795 0.691717 0.981937
O O5 0.500000 0.500000 0.500000
O O6 0.280606 0.529918 0.670249
O O7 0.630023 0.461216 0.633617
O O8 0.139687 0.450399 0.621305
O O9 0.036401 0.154526 0.123555
O O10 0.430736 0.100274 0.025261
O O11 0.518631 0.167551 0.135335
O O12 0.389669 0.305928 0.493811
O O13 0.407646 0.379807 0.107154
O O14 0.500000 0.585761 0.750000
O O15 0.000000 0.600132 0.750000
O O16 0.000000 0.500000 0.500000
#
# Coordination Sequence:
#
# PCOD9256624 Si02
#       7
#     8   8   8   8   8   8   8
#     4  10  19  31  53  83 121 156 190 237 305 356
#     4  10  23  38  60  83 119 156 214 256 313 362
#     4  10  18  28  47  74 119 152 186 240 304 369
#     4  10  19  31  51  83 121 160 186 235 309 356
#     4  10  20  32  56  75 115 162 198 232 301 367
#     4  12  26  43  61  87 127 173 213 255 321 394
#     4  10  21  31  52  81 116 149 203 253 313 368
#
# _framework density 26.337178000000002
#
# number of rings (size 3 to 8) (size 9 to 14) (size 15 to 20)
#    0.000    1.714    0.000    6.857   16.000    0.000 
#    0.000    0.000    0.000    0.000    0.000    0.000 
#    0.000  132.571    0.000    0.000    0.000    0.000 
#
# Total GULP energy -156439.091053 kJ/mol
# GULP energy per Si atom -5587.110395 kJ/mol
# Density = 2.627723 g / cm^3
# Si number density = 26.337178 Si / 1000 Ang^3
#
#
#
# Elastic Constant Matrix: (Units=GPa)
#
#
# Indices 1 2 3 4 5 6 
#
# 1 281.2282 29.2527 20.7998 0.0000 11.6425 0.0000
# 2 29.2527 126.3010 -8.2026 0.0000 16.1704 0.0000
# 3 20.7998 -8.2026 33.8152 0.0000 7.8994 0.0000
# 4 0.0000 0.0000 0.0000 6.9124 0.0000 -7.5509
# 5 11.6425 16.1704 7.8994 0.0000 23.9588 0.0000
# 6 0.0000 0.0000 0.0000 -7.5509 0.0000 43.8193
#
#
#
# Elastic Compliance Matrix: (Units=1/GPa)
#
#
# Indices 1 2 3 4 5 6 
#
# 1 0.003864 -0.001014 -0.002540 0.000000 -0.000356 0.000000
# 2 -0.001014 0.009397 0.004626 0.000000 -0.007375 0.000000
# 3 -0.002540 0.004626 0.035427 0.000000 -0.013569 0.000000
# 4 0.000000 0.000000 0.000000 0.178212 0.000000 0.030709
# 5 -0.000356 -0.007375 -0.013569 0.000000 0.051362 0.000000
# 6 0.000000 0.000000 0.000000 0.030709 0.000000 0.028113
#
#
# Mechanical properties :
#
#
# Convention : Reuss Voigt Hill
#
# Bulk Modulus (GPa) = 19.67264 58.33824 39.00544
# Shear Modulus (GPa) = 15.56786 41.57107 28.56947
#
# Velocity S-wave (km/s) = 2.43389 3.97724 3.29714
# Velocity P-wave (km/s) = 3.92227 6.57950 5.41637
#
# Compressibility (1/GPa) = 0.05083201
#
# Stress axis : x y z
#
# Youngs Moduli (GPa) = 258.80605 106.41513 28.22742
#
# Poissons Ratio (x) = 0.10794 0.07169
# Poissons Ratio (y) = 0.26251 -0.13058
# Poissons Ratio (z) = 0.65728 -0.49229
#
# Static dielectric constant tensor:
#      x y z
#    x 2.129480 0.000000 -0.004800 
#    y 0.000000 1.728950 0.000000 
#    z -0.004800 0.000000 2.144160 
# 
# From -- ./inp_files/186118.got.cif
#   From: 2010.05.17/outbox.cif.g08.bks.cpg/sg15_94_cif.got.tgz:186118.got - 2010.06.03 18:47:42.
