data_PCOD9256851
_publ_section_title
;
Structure prediction by ZEFSAII (Michael W. Deem and Ramdas Pophale) SiO2 
 PCOD9256851
Probable space group: C 2/C
;
_chemical_formula_sum "Si O2"
_cell_formula_units_Z 60
_cell_length_a 21.769235
_cell_length_b 27.125173
_cell_length_c 5.164142
_cell_angle_alpha 90.000000
_cell_angle_beta 97.149206
_cell_angle_gamma 90.000000
_cell_volume 3025.688469
_symmetry_space_group_name_H-M "C 2/C"
_symmetry_group_IT_number 15
_symmetry_cell_setting 'monoclinic'
loop_
_space_group_symop_operation_xyz
x,y,z
-x,y,1/2-z
-x,-y,-z
x,-y,1/2+z
1/2+x,1/2+y,z
1/2-x,1/2+y,1/2-z
1/2-x,1/2-y,-z
1/2+x,1/2-y,1/2+z
loop_
_atom_site_type_symbol
_atom_site_label
_atom_site_fract_x
_atom_site_fract_y
_atom_site_fract_z
Si Si1 0.564576 0.135548 0.167409
Si Si2 0.196078 0.629533 0.275628
Si Si3 0.335617 0.617961 0.317843
Si Si4 0.903896 0.263256 0.548830
Si Si5 0.927582 0.031531 0.203078
Si Si6 0.655616 0.314825 0.171283
Si Si7 0.793515 0.304552 0.217093
Si Si8 0.000000 0.706644 0.750000
O O1 0.500000 0.114158 0.250000
O O2 0.628414 0.104631 0.192150
O O3 0.584467 0.180609 0.360583
O O4 0.547336 0.167384 0.904661
O O5 0.262330 0.603556 0.261300
O O6 0.200920 0.650902 0.569289
O O7 0.195773 0.673771 0.062651
O O8 0.381162 0.573526 0.274769
O O9 0.345524 0.643979 0.600998
O O10 0.349205 0.658371 0.103689
O O11 0.893390 0.226273 0.775552
O O12 0.843356 0.264714 0.335057
O O13 0.965754 0.256449 0.423520
O O14 0.000000 0.046917 0.250000
O O15 0.918004 0.987218 0.405000
O O16 0.722774 0.288311 0.207265
#
# Coordination Sequence:
#
# PCOD9256851 Si02
#       8
#     8   8   8   8   8   8   8   4
#     4   9  18  30  44  65  93 140 186 222 248 285
#     4   9  17  31  49  71 100 128 166 220 259 289
#     4  10  21  37  54  82 104 128 158 205 263 307
#     4  10  19  30  44  63  93 136 189 219 256 289
#     4  10  21  40  66  86 105 131 160 191 241 320
#     4  10  21  32  50  71 105 132 166 215 260 299
#     4   9  17  30  47  66  90 133 178 215 254 297
#     4  10  18  30  44  56  92 132 192 222 250 280
#
# _framework density 19.830196000000001
#
# number of rings (size 3 to 8) (size 9 to 14) (size 15 to 20)
#    0.000    2.400    1.333    1.200    1.867    0.000 
#    1.200    5.333    0.000    0.000    0.000    0.000 
#    0.000    1.067    0.000    0.000    0.000    0.000 
#
# Total GULP energy -167153.883468 kJ/mol
# GULP energy per Si atom -5571.796116 kJ/mol
# Density = 1.978506 g / cm^3
# Si number density = 19.830196 Si / 1000 Ang^3
#
#
#
# Elastic Constant Matrix: (Units=GPa)
#
#
# Indices 1 2 3 4 5 6 
#
# 1 105.1345 30.7862 0.6879 0.0000 -14.3372 0.0000
# 2 30.7862 29.0960 -0.1987 0.0000 -0.5023 0.0000
# 3 0.6879 -0.1987 69.4493 0.0000 -8.6561 0.0000
# 4 0.0000 0.0000 0.0000 14.8490 0.0000 -9.1374
# 5 -14.3372 -0.5023 -8.6561 0.0000 26.3155 0.0000
# 6 0.0000 0.0000 0.0000 -9.1374 0.0000 24.8128
#
#
#
# Elastic Compliance Matrix: (Units=1/GPa)
#
#
# Indices 1 2 3 4 5 6 
#
# 1 0.015357 -0.016100 0.000841 0.000000 0.008336 0.000000
# 2 -0.016100 0.051261 -0.000694 0.000000 -0.008021 0.000000
# 3 0.000841 -0.000694 0.015062 0.000000 0.005399 0.000000
# 4 0.000000 0.000000 0.000000 0.087077 0.000000 0.032067
# 5 0.008336 -0.008021 0.005399 0.000000 0.044165 0.000000
# 6 0.000000 0.000000 0.000000 0.032067 0.000000 0.052111
#
#
# Mechanical properties :
#
#
# Convention : Reuss Voigt Hill
#
# Bulk Modulus (GPa) = 20.09056 29.58117 24.83586
# Shear Modulus (GPa) = 15.94749 24.68909 20.31829
#
# Velocity S-wave (km/s) = 2.83892 3.53232 3.20443
# Velocity P-wave (km/s) = 4.57157 5.62014 5.12276
#
# Compressibility (1/GPa) = 0.04977462
#
# Stress axis : x y z
#
# Youngs Moduli (GPa) = 65.11512 19.50808 66.39390
#
# Poissons Ratio (x) = 0.31408 -0.05583
# Poissons Ratio (y) = 1.04834 0.04605
# Poissons Ratio (z) = -0.05475 0.01353
#
# Static dielectric constant tensor:
#      x y z
#    x 1.854870 0.000000 -0.007240 
#    y 0.000000 1.671140 0.000000 
#    z -0.007240 0.000000 1.781850 
# 
# From -- ./inp_files/13913.got.cif
#   From: 2010.05.17/outbox.cif.g08.bks.cpg/sg15_7_cif.got.tgz:13913.got - 2010.06.03 18:47:42.
