data_PCOD9256161
_publ_section_title
;
Structure prediction by ZEFSAII (Michael W. Deem and Ramdas Pophale) SiO2 
 PCOD9256161
Probable space group: C 2/C
;
_chemical_formula_sum "Si O2"
_cell_formula_units_Z 32
_cell_length_a 8.308533
_cell_length_b 19.318578
_cell_length_c 16.305820
_cell_angle_alpha 90.000000
_cell_angle_beta 146.660980
_cell_angle_gamma 90.000000
_cell_volume 1438.409262
_symmetry_space_group_name_H-M "C 2/C"
_symmetry_group_IT_number 15
_symmetry_cell_setting 'monoclinic'
loop_
_space_group_symop_operation_xyz
x,y,z
-x,y,1/2-z
-x,-y,-z
x,-y,1/2+z
1/2+x,1/2+y,z
1/2-x,1/2+y,1/2-z
1/2-x,1/2-y,-z
1/2+x,1/2-y,1/2+z
loop_
_atom_site_type_symbol
_atom_site_label
_atom_site_fract_x
_atom_site_fract_y
_atom_site_fract_z
Si Si1 0.826829 0.400724 0.487960
Si Si2 0.690735 0.981668 0.404706
Si Si3 0.160665 0.642374 0.696600
Si Si4 0.043487 0.278669 0.670817
O O1 0.869621 0.479279 0.535429
O O2 0.857656 0.374820 0.408089
O O3 0.480867 0.386639 0.359841
O O4 0.052868 0.354847 0.637322
O O5 0.500000 0.011726 0.250000
O O6 0.602582 0.901458 0.377255
O O7 0.000000 0.000000 0.500000
O O8 0.192813 0.723873 0.729126
O O9 0.750000 0.250000 0.500000
O O10 0.000000 0.280807 0.750000
#
# Coordination Sequence:
#
# PCOD9256161 Si02
#       4
#     8   8   8   8
#     4  10  20  38  66  97 132 177 219 274 339 402
#     4  12  24  41  65  96 135 177 224 283 334 396
#     4  10  20  38  64 100 131 173 227 273 332 402
#     4  10  17  34  65  98 134 179 215 270 345 399
#
# _framework density 22.246797000000001
#
# number of rings (size 3 to 8) (size 9 to 14) (size 15 to 20)
#    0.000    1.500    7.500    1.500    0.000    0.000 
#    0.000    0.000    0.000   16.500    0.000    0.000 
#    0.000    0.000    0.000    0.000    0.000    0.000 
#
# Total GULP energy -89132.620235 kJ/mol
# GULP energy per Si atom -5570.788765 kJ/mol
# Density = 2.219616 g / cm^3
# Si number density = 22.246797 Si / 1000 Ang^3
#
#
#
# Elastic Constant Matrix: (Units=GPa)
#
#
# Indices 1 2 3 4 5 6 
#
# 1 93.4876 36.3313 46.8070 0.0017 -4.9556 0.0001
# 2 36.3313 125.3722 38.3734 0.0010 5.1037 0.0002
# 3 46.8070 38.3734 103.2384 -0.0026 -10.9948 0.0004
# 4 0.0017 0.0010 -0.0026 29.0095 -0.0009 4.1259
# 5 -4.9556 5.1037 -10.9948 -0.0009 39.5262 0.0000
# 6 0.0001 0.0002 0.0004 4.1259 0.0000 30.5351
#
#
#
# Elastic Compliance Matrix: (Units=1/GPa)
#
#
# Indices 1 2 3 4 5 6 
#
# 1 0.014498 -0.002519 -0.005573 -0.000001 0.000593 0.000000
# 2 -0.002519 0.009620 -0.002679 0.000000 -0.002303 0.000000
# 3 -0.005573 -0.002679 0.013573 0.000002 0.003423 0.000000
# 4 -0.000001 0.000000 0.000002 0.035147 0.000001 -0.004749
# 5 0.000593 -0.002303 0.003423 0.000001 0.026623 0.000000
# 6 0.000000 0.000000 0.000000 -0.004749 0.000000 0.033391
#
#
# Mechanical properties :
#
#
# Convention : Reuss Voigt Hill
#
# Bulk Modulus (GPa) = 61.92790 62.79130 62.35960
# Shear Modulus (GPa) = 31.29336 33.18658 32.23997
#
# Velocity S-wave (km/s) = 3.75460 3.86650 3.81096
# Velocity P-wave (km/s) = 6.83324 6.94401 6.88885
#
# Compressibility (1/GPa) = 0.01614781
#
# Stress axis : x y z
#
# Youngs Moduli (GPa) = 68.97680 103.94998 73.67315
#
# Poissons Ratio (x) = 0.26190 0.41061
# Poissons Ratio (y) = 0.17378 0.19735
# Poissons Ratio (z) = 0.38444 0.27845
#
# Static dielectric constant tensor:
#      x y z
#    x 1.866660 0.000000 -0.022840 
#    y 0.000000 1.897740 0.000000 
#    z -0.022840 0.000000 1.779290 
# 
# From -- ./inp_files/22138.got.cif
#   From: 2010.05.17/outbox.cif.g08.bks.cpg/sg15_12_cif.got.tgz:22138.got - 2010.06.03 18:47:42.
