data_PCOD9256324
_publ_section_title
;
Structure prediction by ZEFSAII (Michael W. Deem and Ramdas Pophale) SiO2 
 PCOD9256324
Probable space group: C 2/C
;
_chemical_formula_sum "Si O2"
_cell_formula_units_Z 56
_cell_length_a 15.165467
_cell_length_b 17.381824
_cell_length_c 18.901980
_cell_angle_alpha 90.000000
_cell_angle_beta 148.329437
_cell_angle_gamma 90.000000
_cell_volume 2616.051222
_symmetry_space_group_name_H-M "C 2/C"
_symmetry_group_IT_number 15
_symmetry_cell_setting 'monoclinic'
loop_
_space_group_symop_operation_xyz
x,y,z
-x,y,1/2-z
-x,-y,-z
x,-y,1/2+z
1/2+x,1/2+y,z
1/2-x,1/2+y,1/2-z
1/2-x,1/2-y,-z
1/2+x,1/2-y,1/2+z
loop_
_atom_site_type_symbol
_atom_site_label
_atom_site_fract_x
_atom_site_fract_y
_atom_site_fract_z
Si Si1 0.950016 0.336576 0.884886
Si Si2 0.042117 0.192989 0.357031
Si Si3 0.235326 0.428469 0.270684
Si Si4 0.195797 0.050097 0.286148
Si Si5 0.878501 0.481776 0.543008
Si Si6 0.195182 0.599632 0.897840
Si Si7 0.152878 0.268700 0.146025
O O1 0.851828 0.395604 0.869848
O O2 0.805826 0.291049 0.745098
O O3 0.068900 0.392756 0.920840
O O4 0.049550 0.278521 0.003585
O O5 0.231662 0.167350 0.503380
O O6 0.000000 0.221979 0.250000
O O7 0.949686 0.109636 0.296983
O O8 0.963057 0.241771 0.366994
O O9 0.343747 0.492655 0.305073
O O10 0.286041 0.404400 0.384299
O O11 0.220720 0.352556 0.213765
O O12 0.050423 0.468435 0.150097
O O13 0.257864 0.000722 0.395003
O O14 0.796677 0.517908 0.556845
O O15 0.000000 0.613188 0.750000
#
# Coordination Sequence:
#
# PCOD9256324 Si02
#       7
#     8   8   8   8   8   8   8
#     4  10  20  35  57  83 113 155 193 229 281 339
#     4  11  23  36  53  88 121 152 186 229 289 347
#     4  10  19  35  58  87 113 150 193 233 284 336
#     4  10  18  36  62  79 110 158 201 231 267 342
#     4  10  17  36  60  78 111 160 199 225 273 347
#     4  10  22  36  56  84 115 147 187 240 284 327
#     4  11  21  34  54  87 122 150 183 231 287 345
#
# _framework density 21.406309
#
# number of rings (size 3 to 8) (size 9 to 14) (size 15 to 20)
#    0.000    1.714    4.286    1.714    0.000    2.286 
#    0.000    7.857    0.000    0.000    0.000   58.000 
#    0.000    0.000    0.000    0.000    0.000    0.000 
#
# Total GULP energy -156496.540608 kJ/mol
# GULP energy per Si atom -5589.162165 kJ/mol
# Density = 2.135759 g / cm^3
# Si number density = 21.406309 Si / 1000 Ang^3
#
#
#
# Elastic Constant Matrix: (Units=GPa)
#
#
# Indices 1 2 3 4 5 6 
#
# 1 26.6799 17.7603 14.0772 -0.0002 -6.0603 -0.0018
# 2 17.7603 89.9813 32.5413 0.0056 -0.7039 0.0012
# 3 14.0772 32.5413 92.7538 0.0121 -15.0478 0.0028
# 4 -0.0002 0.0056 0.0121 30.8804 0.0051 -4.8898
# 5 -6.0603 -0.7039 -15.0478 0.0051 15.6842 -0.0004
# 6 -0.0018 0.0012 0.0028 -4.8898 -0.0004 27.9055
#
#
#
# Elastic Compliance Matrix: (Units=1/GPa)
#
#
# Indices 1 2 3 4 5 6 
#
# 1 0.047906 -0.008791 -0.001478 0.000000 0.016699 0.000004
# 2 -0.008791 0.014603 -0.005014 0.000000 -0.007552 -0.000001
# 3 -0.001478 -0.005014 0.014965 -0.000008 0.013562 -0.000003
# 4 0.000000 0.000000 -0.000008 0.033307 -0.000018 0.005836
# 5 0.016699 -0.007552 0.013562 -0.000018 0.082883 -0.000002
# 6 0.000004 -0.000001 -0.000003 0.005836 -0.000002 0.036858
#
#
# Mechanical properties :
#
#
# Convention : Reuss Voigt Hill
#
# Bulk Modulus (GPa) = 21.31799 37.57471 29.44635
# Shear Modulus (GPa) = 18.06862 24.56308 21.31585
#
# Velocity S-wave (km/s) = 2.90846 3.39111 3.15901
# Velocity P-wave (km/s) = 4.61077 5.73795 5.20496
#
# Compressibility (1/GPa) = 0.04690875
#
# Stress axis : x y z
#
# Youngs Moduli (GPa) = 20.87429 68.48005 66.82339
#
# Poissons Ratio (x) = 0.60198 0.09873
# Poissons Ratio (y) = 0.18350 0.33507
# Poissons Ratio (z) = 0.03084 0.34338
#
# Static dielectric constant tensor:
#      x y z
#    x 1.802380 0.000000 0.023470 
#    y 0.000000 1.788400 0.000000 
#    z 0.023470 0.000000 1.826870 
# 
# From -- ./inp_files/249280.got.cif
#   From: 2010.05.17/outbox.cif.g08.bks.cpg/sg15_125_cif.got.tgz:249280.got - 2010.06.03 18:47:42.
