data_PCOD9256973
_publ_section_title
;
Structure prediction by ZEFSAII (Michael W. Deem and Ramdas Pophale) SiO2 
 PCOD9256973
Probable space group: C 2/C
;
_chemical_formula_sum "Si O2"
_cell_formula_units_Z 64
_cell_length_a 10.499077
_cell_length_b 14.846884
_cell_length_c 20.565232
_cell_angle_alpha 90.000000
_cell_angle_beta 95.325025
_cell_angle_gamma 90.000000
_cell_volume 3191.844245
_symmetry_space_group_name_H-M "C 2/C"
_symmetry_group_IT_number 15
_symmetry_cell_setting 'monoclinic'
loop_
_space_group_symop_operation_xyz
x,y,z
-x,y,1/2-z
-x,-y,-z
x,-y,1/2+z
1/2+x,1/2+y,z
1/2-x,1/2+y,1/2-z
1/2-x,1/2-y,-z
1/2+x,1/2-y,1/2+z
loop_
_atom_site_type_symbol
_atom_site_label
_atom_site_fract_x
_atom_site_fract_y
_atom_site_fract_z
Si Si1 0.371736 0.871067 0.264981
Si Si2 0.541550 0.312553 0.426997
Si Si3 0.893661 0.855710 0.296467
Si Si4 0.582934 0.656676 0.065557
Si Si5 0.628446 0.893354 0.946101
Si Si6 0.169286 0.635884 0.588187
Si Si7 0.613383 0.065420 0.300156
Si Si8 0.905759 0.073540 0.303046
O O1 0.500000 0.820370 0.250000
O O2 0.242187 0.824132 0.236633
O O3 0.365061 0.894208 0.340930
O O4 0.375356 0.963399 0.224421
O O5 0.433430 0.321985 0.368671
O O6 0.502876 0.349565 0.495789
O O7 0.577641 0.208545 0.438266
O O8 0.675593 0.358520 0.410432
O O9 0.000000 0.827523 0.250000
O O10 0.898096 0.964846 0.300715
O O11 0.718512 0.610619 0.055283
O O12 0.616652 0.761323 0.080821
O O13 0.533508 0.608464 0.127032
O O14 0.582346 0.936852 0.875974
O O15 0.613244 0.917065 0.022326
O O16 0.500000 0.106485 0.250000
O O17 0.756487 0.106080 0.295856
O O18 0.000000 0.101120 0.250000
#
# Coordination Sequence:
#
# PCOD9256973 Si02
#       8
#     8   8   8   8   8   8   8   8
#     4  10  20  33  50  72 105 136 164 202 255 317
#     4   9  16  29  52  78  98 124 172 221 250 282
#     4  10  18  30  50  76 101 127 169 216 254 293
#     4   8  16  30  49  74 101 132 169 206 250 306
#     4   8  16  31  52  75  97 129 174 218 245 286
#     4   9  16  31  53  73  98 134 174 206 247 302
#     4   9  18  34  51  71  99 131 172 213 247 294
#     4   9  18  31  49  72 105 135 161 204 260 313
#
# _framework density 20.051102
#
# number of rings (size 3 to 8) (size 9 to 14) (size 15 to 20)
#    0.000    3.000    1.250    1.500    0.000    1.500 
#    2.250    2.500    2.750    1.500    0.000    0.000 
#    0.000    0.000    0.000    0.000    0.000    0.000 
#
# Total GULP energy -178144.152891 kJ/mol
# GULP energy per Si atom -5567.004778 kJ/mol
# Density = 2.000547 g / cm^3
# Si number density = 20.051102 Si / 1000 Ang^3
#
#
#
# Elastic Constant Matrix: (Units=GPa)
#
#
# Indices 1 2 3 4 5 6 
#
# 1 97.7388 -0.0691 65.4650 0.0000 7.2288 0.0000
# 2 -0.0691 14.3019 -8.2839 0.0000 3.0918 0.0000
# 3 65.4650 -8.2839 134.2520 0.0000 25.9409 0.0000
# 4 0.0000 0.0000 0.0000 31.7871 0.0000 5.1512
# 5 7.2288 3.0918 25.9409 0.0000 26.1851 0.0000
# 6 0.0000 0.0000 0.0000 5.1512 0.0000 -2.0144
#
#
#
# Elastic Compliance Matrix: (Units=1/GPa)
#
#
# Indices 1 2 3 4 5 6 
#
# 1 0.016043 -0.006507 -0.009297 0.000000 0.005550 0.000000
# 2 -0.006507 0.081066 0.011969 0.000000 -0.019633 0.000000
# 3 -0.009297 0.011969 0.015457 0.000000 -0.014159 0.000000
# 4 0.000000 0.000000 0.000000 0.022242 0.000000 0.056877
# 5 0.005550 -0.019633 -0.014159 0.000000 0.053003 0.000000
# 6 0.000000 0.000000 0.000000 0.056877 0.000000 -0.350972
#
#
# Mechanical properties :
#
#
# Convention : Reuss Voigt Hill
#
# Bulk Modulus (GPa) = 9.53337 40.05741 24.79539
# Shear Modulus (GPa) = -41.48508 23.80360 -8.84074
#
# Velocity S-wave (km/s) = -4.55353 3.44924 -2.10207
# Velocity P-wave (km/s) = 4.78344 5.99033 2.54978
#
# Compressibility (1/GPa) = 0.10489472
#
# Stress axis : x y z
#
# Youngs Moduli (GPa) = 62.33077 12.33565 64.69717
#
# Poissons Ratio (x) = 0.08027 0.60150
# Poissons Ratio (y) = 0.40560 -0.77434
# Poissons Ratio (z) = 0.57950 -0.14764
#
# Static dielectric constant tensor:
#      x y z
#    x 1.801270 0.000000 0.014990 
#    y 0.000000 1.724390 0.000000 
#    z 0.014990 0.000000 1.753930 
# 
# From -- ./inp_files/199181.got.cif
#   From: 2010.05.17/outbox.cif.g08.bks.cpg/sg15_100_cif.got.tgz:199181.got - 2010.06.03 18:47:42.
