data_PCOD9256763
_publ_section_title
;
Structure prediction by ZEFSAII (Michael W. Deem and Ramdas Pophale) SiO2 
 PCOD9256763
Probable space group: C 2/C
;
_chemical_formula_sum "Si O2"
_cell_formula_units_Z 56
_cell_length_a 22.918858
_cell_length_b 22.396659
_cell_length_c 13.235332
_cell_angle_alpha 90.000000
_cell_angle_beta 150.840949
_cell_angle_gamma 90.000000
_cell_volume 3310.168632
_symmetry_space_group_name_H-M "C 2/C"
_symmetry_group_IT_number 15
_symmetry_cell_setting 'monoclinic'
loop_
_space_group_symop_operation_xyz
x,y,z
-x,y,1/2-z
-x,-y,-z
x,-y,1/2+z
1/2+x,1/2+y,z
1/2-x,1/2+y,1/2-z
1/2-x,1/2-y,-z
1/2+x,1/2-y,1/2+z
loop_
_atom_site_type_symbol
_atom_site_label
_atom_site_fract_x
_atom_site_fract_y
_atom_site_fract_z
Si Si1 0.561592 0.069064 0.702020
Si Si2 0.708052 0.825176 0.528995
Si Si3 0.363753 0.312884 0.576141
Si Si4 0.781258 0.410563 0.789263
Si Si5 0.261171 0.987911 0.408668
Si Si6 0.366396 0.473532 0.085016
Si Si7 0.772461 0.417268 0.227634
O O1 0.419504 0.069495 0.491718
O O2 0.607612 0.072929 0.656729
O O3 0.612449 0.128251 0.835840
O O4 0.625545 0.013151 0.854966
O O5 0.662074 0.757790 0.463691
O O6 0.822223 0.830978 0.626932
O O7 0.729660 0.847037 0.675159
O O8 0.500000 0.324366 0.750000
O O9 0.279278 0.351837 0.374269
O O10 0.723314 0.456139 0.782208
O O11 0.716667 0.421824 0.587252
O O12 0.158234 0.974461 0.333452
O O13 0.285747 0.936142 0.364180
O O14 0.500000 0.464775 0.250000
O O15 0.318457 0.535853 0.964356
#
# Coordination Sequence:
#
# PCOD9256763 Si02
#       7
#     8   8   8   8   8   8   8
#     4   9  17  31  48  71  96 118 153 192 233 281
#     4   9  18  31  48  73  97 120 153 194 237 274
#     4  10  18  29  48  72  98 124 153 192 235 278
#     4  10  19  31  50  69  92 125 154 190 234 277
#     4   9  18  30  46  67  93 121 151 190 228 268
#     4  10  21  33  45  67  96 125 157 188 227 281
#     4   9  19  30  46  71  97 123 151 188 234 278
#
# _framework density 16.917566999999998
#
# number of rings (size 3 to 8) (size 9 to 14) (size 15 to 20)
#    0.000    2.571    0.000    3.857    0.000    9.714 
#    0.000    0.000    0.000    0.857    0.000    4.000 
#    0.000    0.000    0.000    0.000    0.000    0.000 
#
# Total GULP energy -155992.513959 kJ/mol
# GULP energy per Si atom -5571.161213 kJ/mol
# Density = 1.687906 g / cm^3
# Si number density = 16.917567 Si / 1000 Ang^3
#
#
#
# Elastic Constant Matrix: (Units=GPa)
#
#
# Indices 1 2 3 4 5 6 
#
# 1 145.2672 32.9591 48.3755 0.0000 10.1533 0.0000
# 2 32.9591 61.5386 22.0822 0.0000 -1.9302 0.0000
# 3 48.3755 22.0822 36.0618 0.0000 8.5179 0.0000
# 4 0.0000 0.0000 0.0000 9.5732 0.0000 -2.8610
# 5 10.1533 -1.9302 8.5179 0.0000 19.8711 0.0000
# 6 0.0000 0.0000 0.0000 -2.8610 0.0000 25.7729
#
#
#
# Elastic Compliance Matrix: (Units=1/GPa)
#
#
# Indices 1 2 3 4 5 6 
#
# 1 0.012484 -0.000782 -0.016404 0.000000 0.000577 0.000000
# 2 -0.000782 0.022194 -0.014626 0.000000 0.008825 0.000000
# 3 -0.016404 -0.014626 0.063474 0.000000 -0.020248 0.000000
# 4 0.000000 0.000000 0.000000 0.108042 0.000000 0.011994
# 5 0.000577 0.008825 -0.020248 0.000000 0.059566 0.000000
# 6 0.000000 0.000000 0.000000 0.011994 0.000000 0.040132
#
#
# Mechanical properties :
#
#
# Convention : Reuss Voigt Hill
#
# Bulk Modulus (GPa) = 28.96191 49.96682 39.46436
# Shear Modulus (GPa) = 13.12254 20.34017 16.73135
#
# Velocity S-wave (km/s) = 2.78812 3.47120 3.14824
# Velocity P-wave (km/s) = 5.24608 6.75760 6.04924
#
# Compressibility (1/GPa) = 0.03452812
#
# Stress axis : x y z
#
# Youngs Moduli (GPa) = 80.10555 45.05775 15.75447
#
# Poissons Ratio (x) = 0.03522 0.25843
# Poissons Ratio (y) = 0.06261 0.23043
# Poissons Ratio (z) = 1.31404 0.65902
#
# Static dielectric constant tensor:
#      x y z
#    x 1.615650 0.000000 -0.004610 
#    y 0.000000 1.588750 0.000000 
#    z -0.004610 0.000000 1.584000 
# 
# From -- ./inp_files/114767.got.cif
#   From: 2010.05.17/outbox.cif.g08.bks.cpg/sg15_58_cif.got.tgz:114767.got - 2010.06.03 18:47:42.
