data_PCOD9256863
_publ_section_title
;
Structure prediction by ZEFSAII (Michael W. Deem and Ramdas Pophale) SiO2 
 PCOD9256863
Probable space group: C 2/C
;
_chemical_formula_sum "Si O2"
_cell_formula_units_Z 48
_cell_length_a 12.944151
_cell_length_b 21.542525
_cell_length_c 8.006075
_cell_angle_alpha 90.000000
_cell_angle_beta 97.385460
_cell_angle_gamma 90.000000
_cell_volume 2213.970421
_symmetry_space_group_name_H-M "C 2/C"
_symmetry_group_IT_number 15
_symmetry_cell_setting 'monoclinic'
loop_
_space_group_symop_operation_xyz
x,y,z
-x,y,1/2-z
-x,-y,-z
x,-y,1/2+z
1/2+x,1/2+y,z
1/2-x,1/2+y,1/2-z
1/2-x,1/2-y,-z
1/2+x,1/2-y,1/2+z
loop_
_atom_site_type_symbol
_atom_site_label
_atom_site_fract_x
_atom_site_fract_y
_atom_site_fract_z
Si Si1 0.124555 0.285102 0.139399
Si Si2 0.254825 0.163723 0.167982
Si Si3 0.576751 0.570879 0.421556
Si Si4 0.209427 0.151321 0.637239
Si Si5 0.075075 0.276694 0.606719
Si Si6 0.127574 0.073307 0.937084
O O1 0.164530 0.215046 0.179139
O O2 0.173638 0.328165 0.294263
O O3 0.185615 0.310304 0.986845
O O4 0.003953 0.284536 0.063559
O O5 0.345123 0.168794 0.325367
O O6 0.200746 0.100052 0.099920
O O7 0.500000 0.576068 0.250000
O O8 0.674186 0.615490 0.464611
O O9 0.493328 0.588569 0.549731
O O10 0.620988 0.501125 0.434591
O O11 0.145681 0.215428 0.614921
O O12 0.171688 0.106395 0.781093
O O13 0.000000 0.267341 0.750000
#
# Coordination Sequence:
#
# PCOD9256863 Si02
#       6
#     8   8   8   8   8   8
#     4   8  14  23  41  68  91 112 139 178 226 262
#     4   8  14  23  41  68  92 112 137 180 227 260
#     4  11  21  29  42  64  89 120 150 178 217 262
#     4  10  18  30  47  67  93 117 143 183 220 259
#     4   9  14  24  46  73  93 110 141 184 226 261
#     4  10  18  30  45  64  90 117 146 179 220 263
#
# _framework density 21.680506999999999
#
# number of rings (size 3 to 8) (size 9 to 14) (size 15 to 20)
#    0.000    2.667    0.000    7.500    0.000    0.000 
#    0.000    0.000    0.000   10.000    0.000    2.333 
#    0.000    0.000    0.000    0.000    0.000    0.333 
#
# Total GULP energy -133987.960587 kJ/mol
# GULP energy per Si atom -5582.831691 kJ/mol
# Density = 2.163116 g / cm^3
# Si number density = 21.680507 Si / 1000 Ang^3
#
#
#
# Elastic Constant Matrix: (Units=GPa)
#
#
# Indices 1 2 3 4 5 6 
#
# 1 108.4833 36.7088 46.1390 0.0000 34.7784 0.0000
# 2 36.7088 54.7818 44.3495 0.0000 22.2086 0.0000
# 3 46.1390 44.3495 149.1699 0.0000 53.4686 0.0000
# 4 0.0000 0.0000 0.0000 21.3207 0.0000 18.7412
# 5 34.7784 22.2086 53.4686 0.0000 55.0940 0.0000
# 6 0.0000 0.0000 0.0000 18.7412 0.0000 33.9264
#
#
#
# Elastic Compliance Matrix: (Units=1/GPa)
#
#
# Indices 1 2 3 4 5 6 
#
# 1 0.013283 -0.006492 -0.000170 0.000000 -0.005603 0.000000
# 2 -0.006492 0.027872 -0.005705 0.000000 -0.001601 0.000000
# 3 -0.000170 -0.005705 0.011638 0.000000 -0.008888 0.000000
# 4 0.000000 0.000000 0.000000 0.091175 0.000000 -0.050366
# 5 -0.005603 -0.001601 -0.008888 0.000000 0.030959 0.000000
# 6 0.000000 0.000000 0.000000 -0.050366 0.000000 0.057298
#
#
# Mechanical properties :
#
#
# Convention : Reuss Voigt Hill
#
# Bulk Modulus (GPa) = 35.63804 62.98107 49.30955
# Shear Modulus (GPa) = 18.77494 34.41739 26.59616
#
# Velocity S-wave (km/s) = 2.94595 3.98864 3.50627
# Velocity P-wave (km/s) = 5.29575 7.09402 6.25979
#
# Compressibility (1/GPa) = 0.02805991
#
# Stress axis : x y z
#
# Youngs Moduli (GPa) = 75.28188 35.87880 85.92365
#
# Poissons Ratio (x) = 0.23292 0.01462
# Poissons Ratio (y) = 0.48871 0.49017
# Poissons Ratio (z) = 0.01281 0.20468
#
# Static dielectric constant tensor:
#      x y z
#    x 1.809590 0.000000 -0.101900 
#    y 0.000000 1.742940 0.000000 
#    z -0.101900 0.000000 2.003490 
# 
# From -- ./inp_files/40929.got.cif
#   From: 2010.05.17/outbox.cif.g08.bks.cpg/sg15_21_cif.got.tgz:40929.got - 2010.06.03 18:47:42.
