data_PCOD9256446
_publ_section_title
;
Structure prediction by ZEFSAII (Michael W. Deem and Ramdas Pophale) SiO2 
 PCOD9256446
Probable space group: C 2/C
;
_chemical_formula_sum "Si O2"
_cell_formula_units_Z 56
_cell_length_a 15.430797
_cell_length_b 11.111643
_cell_length_c 15.539731
_cell_angle_alpha 90.000000
_cell_angle_beta 99.945834
_cell_angle_gamma 90.000000
_cell_volume 2624.422715
_symmetry_space_group_name_H-M "C 2/C"
_symmetry_group_IT_number 15
_symmetry_cell_setting 'monoclinic'
loop_
_space_group_symop_operation_xyz
x,y,z
-x,y,1/2-z
-x,-y,-z
x,-y,1/2+z
1/2+x,1/2+y,z
1/2-x,1/2+y,1/2-z
1/2-x,1/2-y,-z
1/2+x,1/2-y,1/2+z
loop_
_atom_site_type_symbol
_atom_site_label
_atom_site_fract_x
_atom_site_fract_y
_atom_site_fract_z
Si Si1 0.665022 0.772032 0.680042
Si Si2 0.817949 0.251028 0.090666
Si Si3 0.129004 0.254492 0.983182
Si Si4 0.593744 0.515487 0.422504
Si Si5 0.401789 0.465024 0.374590
Si Si6 0.050718 0.373063 0.508664
Si Si7 0.744348 0.855376 0.866871
O O1 0.756590 0.716042 0.659603
O O2 0.602932 0.657008 0.678842
O O3 0.618943 0.856907 0.600393
O O4 0.687657 0.828908 0.773895
O O5 0.848073 0.114329 0.114342
O O6 0.750000 0.250000 0.000000
O O7 0.896794 0.334740 0.069213
O O8 0.172915 0.358342 0.932193
O O9 0.029358 0.280896 0.989820
O O10 0.127539 0.122708 0.935292
O O11 0.188549 0.241795 0.078772
O O12 0.494820 0.525074 0.370971
O O13 0.593656 0.560568 0.521892
O O14 0.313253 0.541590 0.353213
O O15 0.000000 0.500000 0.500000
#
# Coordination Sequence:
#
# PCOD9256446 Si02
#       7
#     8   8   8   8   8   8   8
#     4  11  23  41  60  96 128 165 211 263 321 376
#     4  10  20  36  63  93 120 162 204 258 317 378
#     4  10  22  42  63  92 119 170 217 264 312 381
#     4  10  17  38  67  87 116 163 218 251 304 379
#     4  10  19  37  64  85 123 161 209 259 310 374
#     4  11  23  39  65  91 128 169 212 254 320 393
#     4  10  24  37  63  91 127 159 213 269 321 361
#
# _framework density 21.338025999999999
#
# number of rings (size 3 to 8) (size 9 to 14) (size 15 to 20)
#    0.000    1.714    4.286    1.714    2.000    6.286 
#    0.000    4.286    3.143    0.000    0.000    0.000 
#    0.000    0.000    0.000    0.000    0.000    0.000 
#
# Total GULP energy -156038.386504 kJ/mol
# GULP energy per Si atom -5572.799518 kJ/mol
# Density = 2.128946 g / cm^3
# Si number density = 21.338026 Si / 1000 Ang^3
#
#
#
# Elastic Constant Matrix: (Units=GPa)
#
#
# Indices 1 2 3 4 5 6 
#
# 1 103.9880 25.6289 11.8604 0.0000 20.1490 0.0000
# 2 25.6289 87.2624 12.5820 0.0000 20.0501 0.0000
# 3 11.8604 12.5820 64.2083 0.0000 16.8247 0.0000
# 4 0.0000 0.0000 0.0000 7.6358 0.0000 8.0927
# 5 20.1490 20.0501 16.8247 0.0000 18.5122 0.0000
# 6 0.0000 0.0000 0.0000 8.0927 0.0000 42.4990
#
#
#
# Elastic Compliance Matrix: (Units=1/GPa)
#
#
# Indices 1 2 3 4 5 6 
#
# 1 0.012336 -0.000582 0.001560 0.000000 -0.014214 0.000000
# 2 -0.000582 0.015437 0.001703 0.000000 -0.017633 0.000000
# 3 0.001560 0.001703 0.020845 0.000000 -0.022487 0.000000
# 4 0.000000 0.000000 0.000000 0.164074 0.000000 -0.031243
# 5 -0.014214 -0.017633 -0.022487 0.000000 0.109025 0.000000
# 6 0.000000 0.000000 0.000000 -0.031243 0.000000 0.029479
#
#
# Mechanical properties :
#
#
# Convention : Reuss Voigt Hill
#
# Bulk Modulus (GPa) = 18.52547 39.51128 29.01837
# Shear Modulus (GPa) = 13.74277 27.42189 20.58233
#
# Velocity S-wave (km/s) = 2.54057 3.58874 3.10915
# Velocity P-wave (km/s) = 4.16014 5.97739 5.14956
#
# Compressibility (1/GPa) = 0.05397975
#
# Stress axis : x y z
#
# Youngs Moduli (GPa) = 81.06202 64.78089 47.97358
#
# Poissons Ratio (x) = 0.03771 -0.07484
# Poissons Ratio (y) = 0.04718 -0.08171
# Poissons Ratio (z) = -0.12645 -0.11033
#
# Static dielectric constant tensor:
#      x y z
#    x 1.809350 0.000000 -0.027190 
#    y 0.000000 1.733380 0.000000 
#    z -0.027190 0.000000 1.762730 
# 
# From -- ./inp_files/204095.got.cif
#   From: 2010.05.17/outbox.cif.g08.bks.cpg/sg15_103_cif.got.tgz:204095.got - 2010.06.03 18:47:42.
