data_PCOD9256611
_publ_section_title
;
Structure prediction by ZEFSAII (Michael W. Deem and Ramdas Pophale) SiO2 
 PCOD9256611
Probable space group: C 2/C
;
_chemical_formula_sum "Si O2"
_cell_formula_units_Z 40
_cell_length_a 21.088489
_cell_length_b 13.924026
_cell_length_c 7.889691
_cell_angle_alpha 90.000000
_cell_angle_beta 108.181083
_cell_angle_gamma 90.000000
_cell_volume 2201.041491
_symmetry_space_group_name_H-M "C 2/C"
_symmetry_group_IT_number 15
_symmetry_cell_setting 'monoclinic'
loop_
_space_group_symop_operation_xyz
x,y,z
-x,y,1/2-z
-x,-y,-z
x,-y,1/2+z
1/2+x,1/2+y,z
1/2-x,1/2+y,1/2-z
1/2-x,1/2-y,-z
1/2+x,1/2-y,1/2+z
loop_
_atom_site_type_symbol
_atom_site_label
_atom_site_fract_x
_atom_site_fract_y
_atom_site_fract_z
Si Si1 0.466486 0.603641 0.453905
Si Si2 0.785617 0.930931 0.267986
Si Si3 0.325380 0.628244 0.436155
Si Si4 0.906624 0.822611 0.556307
Si Si5 0.309105 0.204905 0.661600
O O1 0.500000 0.500000 0.500000
O O2 0.405116 0.615462 0.530581
O O3 0.527345 0.679503 0.504175
O O4 0.430490 0.617907 0.241898
O O5 0.847886 0.880517 0.415846
O O6 0.717625 0.898331 0.303773
O O7 0.799143 0.043850 0.290280
O O8 0.788415 0.890147 0.081000
O O9 0.315012 0.728895 0.334128
O O10 0.875447 0.724640 0.606162
O O11 0.250000 0.250000 0.500000
#
# Coordination Sequence:
#
# PCOD9256611 Si02
#       5
#     8   8   8   8   8
#     4  10  18  28  46  69 104 129 164 198 249 314
#     4  11  20  32  48  69 102 137 173 209 250 304
#     4  11  21  31  49  75 100 136 170 207 257 303
#     4   9  19  30  44  67  97 139 162 203 247 298
#     4   9  19  35  48  65  98 135 175 211 245 302
#
# _framework density 18.173213000000001
#
# number of rings (size 3 to 8) (size 9 to 14) (size 15 to 20)
#    0.000    2.000    2.000    4.200    2.800    0.800 
#    0.000    0.000    0.000    0.000    0.000    0.000 
#    0.000  233.600    0.000    0.000    0.000    2.400 
#
# Total GULP energy -111444.946241 kJ/mol
# GULP energy per Si atom -5572.247312 kJ/mol
# Density = 1.813185 g / cm^3
# Si number density = 18.173213 Si / 1000 Ang^3
#
#
#
# Elastic Constant Matrix: (Units=GPa)
#
#
# Indices 1 2 3 4 5 6 
#
# 1 102.7129 35.3509 -2.7586 0.0000 -3.9222 0.0000
# 2 35.3509 38.8555 -9.2347 0.0000 6.0399 0.0000
# 3 -2.7586 -9.2347 41.7406 0.0000 6.3936 0.0000
# 4 0.0000 0.0000 0.0000 16.2913 0.0000 3.8229
# 5 -3.9222 6.0399 6.3936 0.0000 20.5455 0.0000
# 6 0.0000 0.0000 0.0000 3.8229 0.0000 35.2385
#
#
#
# Elastic Compliance Matrix: (Units=1/GPa)
#
#
# Indices 1 2 3 4 5 6 
#
# 1 0.015723 -0.016696 -0.004060 0.000000 0.009173 0.000000
# 2 -0.016696 0.047165 0.012541 0.000000 -0.020955 0.000000
# 3 -0.004060 0.012541 0.028506 0.000000 -0.013333 0.000000
# 4 0.000000 0.000000 0.000000 0.062986 0.000000 -0.006833
# 5 0.009173 -0.020955 -0.013333 0.000000 0.060733 0.000000
# 6 0.000000 0.000000 0.000000 -0.006833 0.000000 0.029119
#
#
# Mechanical properties :
#
#
# Convention : Reuss Voigt Hill
#
# Bulk Modulus (GPa) = 13.33966 25.55824 19.44895
# Shear Modulus (GPa) = 17.50391 25.07848 21.29119
#
# Velocity S-wave (km/s) = 3.10687 3.71882 3.42653
# Velocity P-wave (km/s) = 4.49737 5.70384 5.13615
#
# Compressibility (1/GPa) = 0.07496442
#
# Stress axis : x y z
#
# Youngs Moduli (GPa) = 63.59920 21.20233 35.08034
#
# Poissons Ratio (x) = 0.35400 0.14242
# Poissons Ratio (y) = 1.06186 -0.43995
# Poissons Ratio (z) = 0.25820 -0.26590
#
# Static dielectric constant tensor:
#      x y z
#    x 1.710680 0.000000 -0.044970 
#    y 0.000000 1.609010 0.000000 
#    z -0.044970 0.000000 1.669740 
# 
# From -- ./inp_files/54245.got.cif
#   From: 2010.05.17/outbox.cif.g08.bks.cpg/sg15_28_cif.got.tgz:54245.got - 2010.06.03 18:47:42.
