data_PCOD9256993
_publ_section_title
;
Structure prediction by ZEFSAII (Michael W. Deem and Ramdas Pophale) SiO2 
 PCOD9256993
Probable space group: C 2/C
;
_chemical_formula_sum "Si O2"
_cell_formula_units_Z 52
_cell_length_a 14.545560
_cell_length_b 25.986791
_cell_length_c 5.523251
_cell_angle_alpha 90.000000
_cell_angle_beta 114.373478
_cell_angle_gamma 90.000000
_cell_volume 1901.676155
_symmetry_space_group_name_H-M "C 2/C"
_symmetry_group_IT_number 15
_symmetry_cell_setting 'monoclinic'
loop_
_space_group_symop_operation_xyz
x,y,z
-x,y,1/2-z
-x,-y,-z
x,-y,1/2+z
1/2+x,1/2+y,z
1/2-x,1/2+y,1/2-z
1/2-x,1/2-y,-z
1/2+x,1/2-y,1/2+z
loop_
_atom_site_type_symbol
_atom_site_label
_atom_site_fract_x
_atom_site_fract_y
_atom_site_fract_z
Si Si1 0.617958 0.635313 0.430966
Si Si2 0.000000 0.641021 0.250000
Si Si3 0.847073 0.482506 0.194968
Si Si4 0.383355 0.123333 0.534420
Si Si5 0.401368 0.222523 0.787590
Si Si6 0.621728 0.678001 0.936075
Si Si7 0.120433 0.018142 0.509542
O O1 0.500000 0.646695 0.250000
O O2 0.661432 0.670580 0.701394
O O3 0.621173 0.578930 0.551535
O O4 0.656088 0.638570 0.189799
O O5 0.907715 0.612204 0.281059
O O6 0.058115 0.681010 0.481410
O O7 0.896002 0.494909 0.505422
O O8 0.831615 0.421815 0.124034
O O9 0.734218 0.504472 0.101484
O O10 0.500000 0.118091 0.750000
O O11 0.348926 0.182329 0.543107
O O12 0.500000 0.242965 0.750000
O O13 0.356879 0.268219 0.899993
O O14 0.500000 0.675144 0.750000
O O15 0.079441 0.988833 0.696252
#
# Coordination Sequence:
#
# PCOD9256993 Si02
#       7
#     8   4   8   8   8   8   8
#     4  10  21  32  53  85 110 135 173 226 269 304
#     4   8  16  28  48  74 108 138 170 212 258 312
#     4  10  23  39  57  77 102 144 184 223 270 320
#     4   9  20  32  51  81 109 138 181 220 268 310
#     4   9  16  28  48  75 111 147 171 207 257 318
#     4  10  18  30  50  80 115 138 170 212 264 316
#     4  10  21  40  59  75 103 144 186 216 265 332
#
# _framework density 27.3443
#
# number of rings (size 3 to 8) (size 9 to 14) (size 15 to 20)
#    0.000    2.769    0.769    2.308    6.462    1.231 
#    0.000    0.000    0.000    1.846    0.000    0.000 
#    0.000    0.000    0.000    0.000    0.000    0.000 
#
# Total GULP energy -144870.740233 kJ/mol
# GULP energy per Si atom -5571.951547 kJ/mol
# Density = 2.728206 g / cm^3
# Si number density = 27.344300 Si / 1000 Ang^3
#
#
#
# Elastic Constant Matrix: (Units=GPa)
#
#
# Indices 1 2 3 4 5 6 
#
# 1 58.4141 1.0136 36.1561 0.0000 -22.5152 0.0000
# 2 1.0136 135.5629 39.2324 0.0000 -25.5405 0.0000
# 3 36.1561 39.2324 151.1281 0.0000 -45.8917 0.0000
# 4 0.0000 0.0000 0.0000 48.2112 0.0000 -12.1145
# 5 -22.5152 -25.5405 -45.8917 0.0000 54.0336 0.0000
# 6 0.0000 0.0000 0.0000 -12.1145 0.0000 22.0262
#
#
#
# Elastic Compliance Matrix: (Units=1/GPa)
#
#
# Indices 1 2 3 4 5 6 
#
# 1 0.022127 0.002253 -0.003713 0.000000 0.007131 0.000000
# 2 0.002253 0.008511 -0.001673 0.000000 0.003541 0.000000
# 3 -0.003713 -0.001673 0.009742 0.000000 0.005936 0.000000
# 4 0.000000 0.000000 0.000000 0.024068 0.000000 0.013238
# 5 0.007131 0.003541 0.005936 0.000000 0.028194 0.000000
# 6 0.000000 0.000000 0.000000 0.013238 0.000000 0.052681
#
#
# Mechanical properties :
#
#
# Convention : Reuss Voigt Hill
#
# Bulk Modulus (GPa) = 29.31423 55.32326 42.31874
# Shear Modulus (GPa) = 30.68203 42.76772 36.72487
#
# Velocity S-wave (km/s) = 3.35335 3.95909 3.66875
# Velocity P-wave (km/s) = 5.07317 6.41679 5.78413
#
# Compressibility (1/GPa) = 0.03411313
#
# Stress axis : x y z
#
# Youngs Moduli (GPa) = 45.19373 117.49359 102.64701
#
# Poissons Ratio (x) = -0.26467 0.38112
# Poissons Ratio (y) = -0.10181 0.17176
# Poissons Ratio (z) = 0.16780 0.19660
#
# Static dielectric constant tensor:
#      x y z
#    x 2.464380 0.000000 -0.311960 
#    y 0.000000 2.090460 0.000000 
#    z -0.311960 0.000000 2.928750 
# 
# From -- ./inp_files/14182.got.cif
#   From: 2010.05.17/outbox.cif.g08.bks.cpg/sg15_8_cif.got.tgz:14182.got - 2010.06.03 18:47:42.
