data_PCOD9256608
_publ_section_title
;
Structure prediction by ZEFSAII (Michael W. Deem and Ramdas Pophale) SiO2 
 PCOD9256608
Probable space group: C 2/C
;
_chemical_formula_sum "Si O2"
_cell_formula_units_Z 52
_cell_length_a 9.491553
_cell_length_b 21.443187
_cell_length_c 11.681535
_cell_angle_alpha 90.000000
_cell_angle_beta 104.193923
_cell_angle_gamma 90.000000
_cell_volume 2304.950003
_symmetry_space_group_name_H-M "C 2/C"
_symmetry_group_IT_number 15
_symmetry_cell_setting 'monoclinic'
loop_
_space_group_symop_operation_xyz
x,y,z
-x,y,1/2-z
-x,-y,-z
x,-y,1/2+z
1/2+x,1/2+y,z
1/2-x,1/2+y,1/2-z
1/2-x,1/2-y,-z
1/2+x,1/2-y,1/2+z
loop_
_atom_site_type_symbol
_atom_site_label
_atom_site_fract_x
_atom_site_fract_y
_atom_site_fract_z
Si Si1 0.787999 0.321700 0.362704
Si Si2 0.800780 0.605769 0.084934
Si Si3 0.349044 0.025462 0.525145
Si Si4 0.477672 0.723262 0.121779
Si Si5 0.182015 0.222618 0.624252
Si Si6 0.000000 0.404295 0.250000
Si Si7 0.350913 0.129137 0.348813
O O1 0.745572 0.346970 0.477266
O O2 0.666189 0.309045 0.243418
O O3 0.903585 0.368368 0.325445
O O4 0.876584 0.257188 0.387812
O O5 0.759431 0.536997 0.032806
O O6 0.770156 0.618188 0.211856
O O7 0.977086 0.613460 0.120815
O O8 0.389390 0.054473 0.655052
O O9 0.292141 0.080486 0.431606
O O10 0.500000 0.000000 0.500000
O O11 0.500000 0.691496 0.250000
O O12 0.354297 0.776091 0.127936
O O13 0.407020 0.692300 0.996705
O O14 0.151322 0.296907 0.625508
#
# Coordination Sequence:
#
# PCOD9256608 Si02
#       7
#     8   8   8   8   8   4   8
#     4  11  19  30  48  68  99 129 154 197 238 278
#     4  10  20  32  44  67  98 134 157 189 235 286
#     4  10  18  28  46  64  91 130 160 184 233 284
#     4   9  17  29  43  67  93 121 157 198 228 273
#     4  10  18  28  47  68  93 131 160 190 238 281
#     4  12  16  28  42  68  94 126 152 190 236 272
#     4  10  19  31  44  66  97 129 160 190 228 286
#
# _framework density 22.560143
#
# number of rings (size 3 to 8) (size 9 to 14) (size 15 to 20)
#    0.000    1.846    6.923    1.846    2.154    0.615 
#    0.000    0.000    0.000    0.000    0.000    0.000 
#    0.000   30.769    0.000    0.000    0.000    0.000 
#
# Total GULP energy -145034.494914 kJ/mol
# GULP energy per Si atom -5578.249804 kJ/mol
# Density = 2.250879 g / cm^3
# Si number density = 22.560143 Si / 1000 Ang^3
#
#
#
# Elastic Constant Matrix: (Units=GPa)
#
#
# Indices 1 2 3 4 5 6 
#
# 1 30.6962 14.6548 15.0049 0.0000 -1.9116 0.0000
# 2 14.6548 103.2176 63.3471 0.0000 -15.4506 0.0000
# 3 15.0049 63.3471 236.1542 0.0000 2.9893 0.0000
# 4 0.0000 0.0000 0.0000 44.7340 0.0000 1.4788
# 5 -1.9116 -15.4506 2.9893 0.0000 17.4593 0.0000
# 6 0.0000 0.0000 0.0000 1.4788 0.0000 10.9944
#
#
#
# Elastic Compliance Matrix: (Units=1/GPa)
#
#
# Indices 1 2 3 4 5 6 
#
# 1 0.035172 -0.004291 -0.001087 0.000000 0.000240 0.000000
# 2 -0.004291 0.014595 -0.003808 0.000000 0.013099 0.000000
# 3 -0.001087 -0.003808 0.005381 0.000000 -0.004410 0.000000
# 4 0.000000 0.000000 0.000000 0.022454 0.000000 -0.003020
# 5 0.000240 0.013099 -0.004410 0.000000 0.069649 0.000000
# 6 0.000000 0.000000 0.000000 -0.003020 0.000000 0.091362
#
#
# Mechanical properties :
#
#
# Convention : Reuss Voigt Hill
#
# Bulk Modulus (GPa) = 27.19128 61.78684 44.48906
# Shear Modulus (GPa) = 18.57051 33.10830 25.83940
#
# Velocity S-wave (km/s) = 2.87218 3.83503 3.38798
# Velocity P-wave (km/s) = 4.80398 6.85981 5.92179
#
# Compressibility (1/GPa) = 0.03677649
#
# Stress axis : x y z
#
# Youngs Moduli (GPa) = 28.43174 68.51450 185.84017
#
# Poissons Ratio (x) = 0.29398 0.20198
# Poissons Ratio (y) = 0.12199 0.70774
# Poissons Ratio (z) = 0.03090 0.26093
#
# Static dielectric constant tensor:
#      x y z
#    x 1.884070 0.000000 -0.022770 
#    y 0.000000 1.889630 0.000000 
#    z -0.022770 0.000000 1.928010 
# 
# From -- ./inp_files/90445.got.cif
#   From: 2010.05.17/outbox.cif.g08.bks.cpg/sg15_46_cif.got.tgz:90445.got - 2010.06.03 18:47:42.
