data_PCOD9256467
_publ_section_title
;
Structure prediction by ZEFSAII (Michael W. Deem and Ramdas Pophale) SiO2 
 PCOD9256467
Probable space group: C 2/C
;
_chemical_formula_sum "Si O2"
_cell_formula_units_Z 56
_cell_length_a 24.302112
_cell_length_b 19.007043
_cell_length_c 5.454588
_cell_angle_alpha 90.000000
_cell_angle_beta 66.209914
_cell_angle_gamma 90.000000
_cell_volume 2305.449504
_symmetry_space_group_name_H-M "C 2/C"
_symmetry_group_IT_number 15
_symmetry_cell_setting 'monoclinic'
loop_
_space_group_symop_operation_xyz
x,y,z
-x,y,1/2-z
-x,-y,-z
x,-y,1/2+z
1/2+x,1/2+y,z
1/2-x,1/2+y,1/2-z
1/2-x,1/2-y,-z
1/2+x,1/2-y,1/2+z
loop_
_atom_site_type_symbol
_atom_site_label
_atom_site_fract_x
_atom_site_fract_y
_atom_site_fract_z
Si Si1 0.500000 0.452749 0.250000
Si Si2 0.675942 0.825441 0.778973
Si Si3 0.306558 0.668202 0.836625
Si Si4 0.500000 0.696083 0.250000
Si Si5 0.442018 0.199060 0.251549
Si Si6 0.406029 0.661040 0.053248
Si Si7 0.198960 0.534518 0.432536
Si Si8 0.664890 0.479282 0.390194
O O1 0.500000 0.500000 0.500000
O O2 0.445052 0.395705 0.330543
O O3 0.674920 0.741482 0.823274
O O4 0.735284 0.833548 0.505550
O O5 0.613575 0.842434 0.757719
O O6 0.686315 0.882408 0.971582
O O7 0.340369 0.656900 0.038614
O O8 0.323177 0.602955 0.639721
O O9 0.468830 0.747421 0.502255
O O10 0.443668 0.652836 0.240168
O O11 0.500000 0.158772 0.250000
O O12 0.416762 0.254968 0.493153
O O13 0.175544 0.495269 0.714931
O O14 0.270440 0.518388 0.264832
O O15 0.633608 0.496772 0.698420
#
# Coordination Sequence:
#
# PCOD9256467 Si02
#       8
#     4   8   8   4   8   8   8   8
#     4  12  25  40  62  96 126 177 240 286 312 390
#     4  10  20  40  63 102 131 163 233 284 342 405
#     4  10  21  39  63  97 136 170 221 297 338 403
#     4  10  17  40  64  84 118 177 216 268 354 406
#     4   9  19  38  66  88 121 170 215 274 341 406
#     4  10  21  40  60  84 128 171 221 277 342 388
#     4  10  20  41  64  87 129 183 208 256 338 416
#     4  10  20  40  60  85 128 184 216 251 335 411
#
# _framework density 24.290274
#
# number of rings (size 3 to 8) (size 9 to 14) (size 15 to 20)
#    0.000    2.000    5.000    0.429    0.000    1.143 
#   12.857    3.571    0.000    0.857    0.000    0.000 
#    0.000    0.000    0.000    0.000    0.000    0.000 
#
# Total GULP energy -156186.361178 kJ/mol
# GULP energy per Si atom -5578.084328 kJ/mol
# Density = 2.423499 g / cm^3
# Si number density = 24.290274 Si / 1000 Ang^3
#
#
#
# Elastic Constant Matrix: (Units=GPa)
#
#
# Indices 1 2 3 4 5 6 
#
# 1 161.5738 40.2538 14.5554 0.0000 -10.9772 0.0000
# 2 40.2538 119.6809 24.8057 0.0000 12.9113 0.0000
# 3 14.5554 24.8057 78.3575 0.0000 30.2687 0.0000
# 4 0.0000 0.0000 0.0000 9.9415 0.0000 8.6381
# 5 -10.9772 12.9113 30.2687 0.0000 30.5079 0.0000
# 6 0.0000 0.0000 0.0000 8.6381 0.0000 43.9991
#
#
#
# Elastic Compliance Matrix: (Units=1/GPa)
#
#
# Indices 1 2 3 4 5 6 
#
# 1 0.007643 -0.002651 -0.003366 0.000000 0.007212 0.000000
# 2 -0.002651 0.009909 -0.001064 0.000000 -0.004092 0.000000
# 3 -0.003366 -0.001064 0.022729 0.000000 -0.023312 0.000000
# 4 0.000000 0.000000 0.000000 0.121277 0.000000 -0.023810
# 5 0.007212 -0.004092 -0.023312 0.000000 0.060234 0.000000
# 6 0.000000 0.000000 0.000000 -0.023810 0.000000 0.027402
#
#
# Mechanical properties :
#
#
# Convention : Reuss Voigt Hill
#
# Bulk Modulus (GPa) = 38.28618 57.64912 47.96765
# Shear Modulus (GPa) = 18.37808 35.55619 26.96714
#
# Velocity S-wave (km/s) = 2.75363 3.83012 3.33559
# Velocity P-wave (km/s) = 5.08980 6.58367 5.88433
#
# Compressibility (1/GPa) = 0.02611909
#
# Stress axis : x y z
#
# Youngs Moduli (GPa) = 130.84248 100.91744 43.99600
#
# Poissons Ratio (x) = 0.26752 0.14811
# Poissons Ratio (y) = 0.34685 0.04680
# Poissons Ratio (z) = 0.44046 0.10736
#
# Static dielectric constant tensor:
#      x y z
#    x 2.020560 0.000000 0.076510 
#    y 0.000000 1.940270 0.000000 
#    z 0.076510 0.000000 2.092330 
# 
# From -- ./inp_files/17183.got.cif
#   From: 2010.05.17/outbox.cif.g08.bks.cpg/sg15_9_cif.got.tgz:17183.got - 2010.06.03 18:47:42.
