data_PCOD9256288
_publ_section_title
;
Structure prediction by ZEFSAII (Michael W. Deem and Ramdas Pophale) SiO2 
 PCOD9256288
Probable space group: C 2/C
;
_chemical_formula_sum "Si O2"
_cell_formula_units_Z 40
_cell_length_a 16.636813
_cell_length_b 15.398515
_cell_length_c 9.011539
_cell_angle_alpha 90.000000
_cell_angle_beta 46.204209
_cell_angle_gamma 90.000000
_cell_volume 1666.370165
_symmetry_space_group_name_H-M "C 2/C"
_symmetry_group_IT_number 15
_symmetry_cell_setting 'monoclinic'
loop_
_space_group_symop_operation_xyz
x,y,z
-x,y,1/2-z
-x,-y,-z
x,-y,1/2+z
1/2+x,1/2+y,z
1/2-x,1/2+y,1/2-z
1/2-x,1/2-y,-z
1/2+x,1/2-y,1/2+z
loop_
_atom_site_type_symbol
_atom_site_label
_atom_site_fract_x
_atom_site_fract_y
_atom_site_fract_z
Si Si1 0.314571 0.492838 0.702790
Si Si2 0.324765 0.928358 0.385261
Si Si3 0.099386 0.706539 0.316241
Si Si4 0.000000 0.289130 0.250000
Si Si5 0.343782 0.627674 0.926438
Si Si6 0.500000 0.929382 0.750000
O O1 0.225771 0.537273 0.702818
O O2 0.344284 0.570359 0.775933
O O3 0.390629 0.436746 0.493373
O O4 0.273790 0.419724 0.871162
O O5 0.403568 0.846391 0.295410
O O6 0.396964 0.006273 0.365421
O O7 0.103592 0.782452 0.190523
O O8 0.066133 0.745618 0.519718
O O9 0.011327 0.633245 0.376554
O O10 0.219835 0.657695 0.144987
#
# Coordination Sequence:
#
# PCOD9256288 Si02
#       6
#     8   8   8   4   8   4
#     4  10  17  36  56  79 115 148 188 227 266 343
#     4  10  18  29  54  91 111 151 172 225 294 358
#     4  11  22  36  54  86 120 147 179 233 286 336
#     4  11  20  32  54  83 128 142 178 233 284 348
#     4  10  22  38  56  81 115 153 189 224 279 334
#     4  11  18  34  58  87 126 142 174 231 294 344
#
# _framework density 24.004270999999999
#
# number of rings (size 3 to 8) (size 9 to 14) (size 15 to 20)
#    0.000    1.600    6.000    1.200    0.000    3.200 
#    0.000    5.000    0.000    3.600    0.000    0.000 
#    0.000    0.000    0.000    0.000    0.000    0.000 
#
# Total GULP energy -111342.133766 kJ/mol
# GULP energy per Si atom -5567.106688 kJ/mol
# Density = 2.394964 g / cm^3
# Si number density = 24.004271 Si / 1000 Ang^3
#
#
#
# Elastic Constant Matrix: (Units=GPa)
#
#
# Indices 1 2 3 4 5 6 
#
# 1 58.4014 -6.8179 41.4569 0.0000 4.1366 0.0000
# 2 -6.8179 44.7980 16.8578 0.0000 -7.9247 0.0000
# 3 41.4569 16.8578 141.0757 0.0000 25.4951 0.0000
# 4 0.0000 0.0000 0.0000 22.5941 0.0000 7.2170
# 5 4.1366 -7.9247 25.4951 0.0000 24.4772 0.0000
# 6 0.0000 0.0000 0.0000 7.2170 0.0000 1.8705
#
#
#
# Elastic Compliance Matrix: (Units=1/GPa)
#
#
# Indices 1 2 3 4 5 6 
#
# 1 0.024632 0.009138 -0.009994 0.000000 0.009205 0.000000
# 2 0.009138 0.030619 -0.009678 0.000000 0.018450 0.000000
# 3 -0.009994 -0.009678 0.014096 0.000000 -0.016127 0.000000
# 4 0.000000 0.000000 0.000000 -0.190430 0.000000 0.734736
# 5 0.009205 0.018450 -0.016127 0.000000 0.062069 0.000000
# 6 0.000000 0.000000 0.000000 0.734736 0.000000 -2.300225
#
#
# Mechanical properties :
#
#
# Convention : Reuss Voigt Hill
#
# Bulk Modulus (GPa) = 20.71316 38.58541 29.64929
# Shear Modulus (GPa) = -2.15324 22.64025 10.24350
#
# Velocity S-wave (km/s) = -0.94814 3.07445 2.06800
# Velocity P-wave (km/s) = 2.72930 5.35838 4.25214
#
# Compressibility (1/GPa) = 0.04827847
#
# Stress axis : x y z
#
# Youngs Moduli (GPa) = 40.59767 32.65963 70.94135
#
# Poissons Ratio (x) = -0.29844 0.70898
# Poissons Ratio (y) = -0.37098 0.68659
# Poissons Ratio (z) = 0.40573 0.31609
#
# Static dielectric constant tensor:
#      x y z
#    x 2.019050 0.000000 -0.108310 
#    y 0.000000 1.912720 0.000000 
#    z -0.108310 0.000000 2.025790 
# 
# From -- ./inp_files/38692.got.cif
#   From: 2010.05.17/outbox.cif.g08.bks.cpg/sg15_20_cif.got.tgz:38692.got - 2010.06.03 18:47:42.
