data_PCOD9256671
_publ_section_title
;
Structure prediction by ZEFSAII (Michael W. Deem and Ramdas Pophale) SiO2 
 PCOD9256671
Probable space group: C 2/C
;
_chemical_formula_sum "Si O2"
_cell_formula_units_Z 36
_cell_length_a 11.244122
_cell_length_b 12.585425
_cell_length_c 17.008970
_cell_angle_alpha 90.000000
_cell_angle_beta 45.240727
_cell_angle_gamma 90.000000
_cell_volume 1709.123660
_symmetry_space_group_name_H-M "C 2/C"
_symmetry_group_IT_number 15
_symmetry_cell_setting 'monoclinic'
loop_
_space_group_symop_operation_xyz
x,y,z
-x,y,1/2-z
-x,-y,-z
x,-y,1/2+z
1/2+x,1/2+y,z
1/2-x,1/2+y,1/2-z
1/2-x,1/2-y,-z
1/2+x,1/2-y,1/2+z
loop_
_atom_site_type_symbol
_atom_site_label
_atom_site_fract_x
_atom_site_fract_y
_atom_site_fract_z
Si Si1 0.500000 0.758735 0.750000
Si Si2 0.204738 0.091529 0.571551
Si Si3 0.071285 0.380805 0.878291
Si Si4 0.098948 0.968480 0.834295
Si Si5 0.502691 0.338000 0.475258
O O1 0.652360 0.676946 0.661498
O O2 0.542929 0.829699 0.804756
O O3 0.397635 0.061614 0.480472
O O4 0.154048 0.149843 0.512301
O O5 0.069860 0.997457 0.633596
O O6 0.238804 0.448563 0.793315
O O7 0.080336 0.277674 0.930064
O O8 0.122213 0.069467 0.883084
O O9 0.056718 0.870775 0.911295
#
# Coordination Sequence:
#
# PCOD9256671 Si02
#       5
#     4   8   8   8   8
#     4  10  18  28  52  80  96 120 168 218 232 284
#     4   9  18  30  47  77 100 125 162 205 244 284
#     4  11  17  29  55  75  98 131 161 203 251 277
#     4   9  18  31  46  77 103 125 161 210 236 299
#     4   8  17  31  46  75 104 122 164 206 244 282
#
# _framework density 21.063426
#
# number of rings (size 3 to 8) (size 9 to 14) (size 15 to 20)
#    1.333    1.333    0.000    5.333    0.000    0.000 
#    0.000    1.111    0.000    1.333    0.000    0.000 
#    0.000    0.000    0.000    0.000    0.000    0.000 
#
# Total GULP energy -100353.635747 kJ/mol
# GULP energy per Si atom -5575.201986 kJ/mol
# Density = 2.101548 g / cm^3
# Si number density = 21.063426 Si / 1000 Ang^3
#
#
#
# Elastic Constant Matrix: (Units=GPa)
#
#
# Indices 1 2 3 4 5 6 
#
# 1 49.4004 25.8463 53.1803 0.0000 -15.7220 0.0000
# 2 25.8463 48.5997 48.0354 0.0000 -28.6058 0.0000
# 3 53.1803 48.0354 169.8897 0.0000 -47.5992 0.0000
# 4 0.0000 0.0000 0.0000 42.7332 0.0000 -0.3596
# 5 -15.7220 -28.6058 -47.5992 0.0000 42.0806 0.0000
# 6 0.0000 0.0000 0.0000 -0.3596 0.0000 21.7474
#
#
#
# Elastic Compliance Matrix: (Units=1/GPa)
#
#
# Indices 1 2 3 4 5 6 
#
# 1 0.034786 -0.013351 -0.008806 0.000000 -0.006041 0.000000
# 2 -0.013351 0.042112 -0.001617 0.000000 0.021810 0.000000
# 3 -0.008806 -0.001617 0.011522 0.000000 0.008643 0.000000
# 4 0.000000 0.000000 0.000000 0.023404 0.000000 0.000387
# 5 -0.006041 0.021810 0.008643 0.000000 0.046110 0.000000
# 6 0.000000 0.000000 0.000000 0.000387 0.000000 0.045989
#
#
# Mechanical properties :
#
#
# Convention : Reuss Voigt Hill
#
# Bulk Modulus (GPa) = 24.46752 58.00152 41.23452
# Shear Modulus (GPa) = 18.86110 30.70075 24.78093
#
# Velocity S-wave (km/s) = 2.99564 3.82191 3.43372
# Velocity P-wave (km/s) = 4.85865 6.86093 5.94470
#
# Compressibility (1/GPa) = 0.04087051
#
# Stress axis : x y z
#
# Youngs Moduli (GPa) = 28.74733 23.74595 86.79297
#
# Poissons Ratio (x) = 0.31704 0.76434
# Poissons Ratio (y) = 0.38381 0.14035
# Poissons Ratio (z) = 0.25316 0.03840
#
# Static dielectric constant tensor:
#      x y z
#    x 1.748010 0.000000 0.005150 
#    y 0.000000 1.809060 0.000000 
#    z 0.005150 0.000000 1.811380 
# 
# From -- ./inp_files/198622.got.cif
#   From: 2010.05.17/outbox.cif.g08.bks.cpg/sg15_100_cif.got.tgz:198622.got - 2010.06.03 18:47:42.
