data_PCOD9256471
_publ_section_title
;
Structure prediction by ZEFSAII (Michael W. Deem and Ramdas Pophale) SiO2 
 PCOD9256471
Probable space group: C 2/C
;
_chemical_formula_sum "Si O2"
_cell_formula_units_Z 44
_cell_length_a 7.439076
_cell_length_b 17.589829
_cell_length_c 13.074015
_cell_angle_alpha 90.000000
_cell_angle_beta 84.379218
_cell_angle_gamma 90.000000
_cell_volume 1702.536542
_symmetry_space_group_name_H-M "C 2/C"
_symmetry_group_IT_number 15
_symmetry_cell_setting 'monoclinic'
loop_
_space_group_symop_operation_xyz
x,y,z
-x,y,1/2-z
-x,-y,-z
x,-y,1/2+z
1/2+x,1/2+y,z
1/2-x,1/2+y,1/2-z
1/2-x,1/2-y,-z
1/2+x,1/2-y,1/2+z
loop_
_atom_site_type_symbol
_atom_site_label
_atom_site_fract_x
_atom_site_fract_y
_atom_site_fract_z
Si Si1 0.555328 0.665486 0.624070
Si Si2 0.717248 0.029680 0.226879
Si Si3 0.500000 0.786046 0.250000
Si Si4 0.199397 0.392507 0.093595
Si Si5 0.177585 0.995553 0.061977
Si Si6 0.313673 0.187955 0.321243
O O1 0.500000 0.665566 0.750000
O O2 0.374937 0.658803 0.565619
O O3 0.683424 0.593914 0.590502
O O4 0.637283 0.748409 0.599614
O O5 0.500000 0.020986 0.250000
O O6 0.819123 0.037194 0.328389
O O7 0.752207 0.102760 0.153582
O O8 0.771404 0.949688 0.177341
O O9 0.546142 0.840760 0.151553
O O10 0.668286 0.731826 0.260950
O O11 0.171309 0.453612 0.005614
O O12 0.000000 0.000000 0.000000
O O13 0.500000 0.174508 0.250000
#
# Coordination Sequence:
#
# PCOD9256471 Si02
#       6
#     8   8   4   8   8   8
#     4  10  17  40  67  88 131 181 218 270 342 394
#     4  11  23  42  64  97 136 176 221 287 344 396
#     4  12  20  38  66  94 124 184 222 268 346 402
#     4  11  22  39  70  97 127 173 235 278 330 408
#     4  10  23  39  70 103 130 175 236 283 331 404
#     4  10  22  39  66  88 135 179 219 274 344 404
#
# _framework density 25.843791
#
# number of rings (size 3 to 8) (size 9 to 14) (size 15 to 20)
#    0.000    1.455    6.364    0.000    0.000    3.636 
#    0.000    1.818    8.000    0.000    0.000    0.000 
#    0.000    0.000    0.000    0.000    0.000    0.000 
#
# Total GULP energy -122757.723257 kJ/mol
# GULP energy per Si atom -5579.896512 kJ/mol
# Density = 2.578497 g / cm^3
# Si number density = 25.843791 Si / 1000 Ang^3
#
#
#
# Elastic Constant Matrix: (Units=GPa)
#
#
# Indices 1 2 3 4 5 6 
#
# 1 107.4687 16.9508 12.7777 0.0000 12.4596 0.0000
# 2 16.9508 104.3095 -13.4069 0.0000 16.8136 0.0000
# 3 12.7777 -13.4069 71.6687 0.0000 -3.2051 0.0000
# 4 0.0000 0.0000 0.0000 6.7307 0.0000 -7.4515
# 5 12.4596 16.8136 -3.2051 0.0000 26.1068 0.0000
# 6 0.0000 0.0000 0.0000 -7.4515 0.0000 -5.9558
#
#
#
# Elastic Compliance Matrix: (Units=1/GPa)
#
#
# Indices 1 2 3 4 5 6 
#
# 1 0.010279 -0.001256 -0.002263 0.000000 -0.004375 0.000000
# 2 -0.001256 0.011061 0.002012 0.000000 -0.006277 0.000000
# 3 -0.002263 0.002012 0.014805 0.000000 0.001602 0.000000
# 4 0.000000 0.000000 0.000000 0.062292 0.000000 -0.077935
# 5 -0.004375 -0.006277 0.001602 0.000000 0.044632 0.000000
# 6 0.000000 0.000000 0.000000 -0.077935 0.000000 -0.070396
#
#
# Mechanical properties :
#
#
# Convention : Reuss Voigt Hill
#
# Bulk Modulus (GPa) = 30.18268 35.12111 32.65190
# Shear Modulus (GPa) = 57.64976 23.18469 40.41722
#
# Velocity S-wave (km/s) = 4.72815 2.99843 3.95891
# Velocity P-wave (km/s) = 6.44294 5.06031 5.79302
#
# Compressibility (1/GPa) = 0.03313158
#
# Stress axis : x y z
#
# Youngs Moduli (GPa) = 97.28119 90.40367 67.54600
#
# Poissons Ratio (x) = 0.11357 0.15288
# Poissons Ratio (y) = 0.12221 -0.13594
# Poissons Ratio (z) = 0.22018 -0.18194
#
# Static dielectric constant tensor:
#      x y z
#    x 2.110320 0.000000 -0.067590 
#    y 0.000000 2.005970 0.000000 
#    z -0.067590 0.000000 2.145060 
# 
# From -- ./inp_files/134432.got.cif
#   From: 2010.05.17/outbox.cif.g08.bks.cpg/sg15_68_cif.got.tgz:134432.got - 2010.06.03 18:47:42.
