data_PCOD9256882
_publ_section_title
;
Structure prediction by ZEFSAII (Michael W. Deem and Ramdas Pophale) SiO2 
 PCOD9256882
Probable space group: C 2/C
;
_chemical_formula_sum "Si O2"
_cell_formula_units_Z 52
_cell_length_a 18.204446
_cell_length_b 12.278328
_cell_length_c 21.447955
_cell_angle_alpha 90.000000
_cell_angle_beta 153.753603
_cell_angle_gamma 90.000000
_cell_volume 2120.083849
_symmetry_space_group_name_H-M "C 2/C"
_symmetry_group_IT_number 15
_symmetry_cell_setting 'monoclinic'
loop_
_space_group_symop_operation_xyz
x,y,z
-x,y,1/2-z
-x,-y,-z
x,-y,1/2+z
1/2+x,1/2+y,z
1/2-x,1/2+y,1/2-z
1/2-x,1/2-y,-z
1/2+x,1/2-y,1/2+z
loop_
_atom_site_type_symbol
_atom_site_label
_atom_site_fract_x
_atom_site_fract_y
_atom_site_fract_z
Si Si1 0.092798 0.052028 0.930543
Si Si2 0.190359 0.099002 0.256249
Si Si3 0.265404 0.963579 0.188466
Si Si4 0.000000 0.707192 0.250000
Si Si5 0.611416 0.023670 0.431975
Si Si6 0.658257 0.781336 0.034506
Si Si7 0.461848 0.738707 0.002712
O O1 0.183712 0.017131 0.064624
O O2 0.212069 0.005377 0.966364
O O3 0.080999 0.182689 0.932811
O O4 0.916498 0.994026 0.791385
O O5 0.248111 0.042377 0.235071
O O6 0.340815 0.156125 0.408127
O O7 0.050225 0.190264 0.131132
O O8 0.458863 0.940807 0.319817
O O9 0.156216 0.856383 0.115043
O O10 0.953376 0.623089 0.160649
O O11 0.845164 0.776166 0.153193
O O12 0.613364 0.091861 0.496454
O O13 0.613250 0.752853 0.070280
#
# Coordination Sequence:
#
# PCOD9256882 Si02
#       7
#     8   8   8   4   8   8   8
#     4  10  18  34  55  84 109 154 194 238 286 346
#     4  11  21  38  60  84 119 154 198 240 288 347
#     4  11  18  35  59  82 113 155 201 234 280 360
#     4  10  18  30  46  82 112 142 176 232 296 334
#     4  11  19  31  57  83 112 142 197 245 285 338
#     4  11  19  31  53  87 115 142 188 245 294 343
#     4  11  22  36  61  86 115 154 200 240 287 348
#
# _framework density 24.527331
#
# number of rings (size 3 to 8) (size 9 to 14) (size 15 to 20)
#    0.000    1.231    7.692    2.769    0.000    0.000 
#    0.000    1.538    6.769    0.000    0.000    0.000 
#    0.000    0.000    0.000    0.000    0.000    0.000 
#
# Total GULP energy -145162.623670 kJ/mol
# GULP energy per Si atom -5583.177833 kJ/mol
# Density = 2.447151 g / cm^3
# Si number density = 24.527331 Si / 1000 Ang^3
#
#
#
# Elastic Constant Matrix: (Units=GPa)
#
#
# Indices 1 2 3 4 5 6 
#
# 1 53.5080 17.3035 17.8223 0.0014 26.8159 -0.0005
# 2 17.3035 70.0574 41.0226 0.0030 7.3028 -0.0015
# 3 17.8223 41.0226 75.0132 0.0017 17.0626 -0.0029
# 4 0.0014 0.0030 0.0017 26.1291 0.0009 -12.6930
# 5 26.8159 7.3028 17.0626 0.0009 42.5142 -0.0007
# 6 -0.0005 -0.0015 -0.0029 -12.6930 -0.0007 6.4481
#
#
#
# Elastic Compliance Matrix: (Units=1/GPa)
#
#
# Indices 1 2 3 4 5 6 
#
# 1 0.029197 -0.005378 -0.000019 -0.000019 -0.017484 -0.000037
# 2 -0.005378 0.022036 -0.011757 -0.000038 0.004325 -0.000076
# 3 -0.000019 -0.011757 0.021242 0.000073 -0.006494 0.000149
# 4 -0.000019 -0.000038 0.000073 0.874811 0.000000 1.722058
# 5 -0.017484 0.004325 -0.006494 0.000000 0.036413 0.000001
# 6 -0.000037 -0.000076 0.000149 1.722058 0.000001 3.544943
#
#
# Mechanical properties :
#
#
# Convention : Reuss Voigt Hill
#
# Bulk Modulus (GPa) = 26.20027 38.98616 32.59322
# Shear Modulus (GPa) = 1.09274 23.18029 12.13651
#
# Velocity S-wave (km/s) = 0.66820 3.07755 2.22686
# Velocity P-wave (km/s) = 3.36163 5.34396 4.46422
#
# Compressibility (1/GPa) = 0.03816755
#
# Stress axis : x y z
#
# Youngs Moduli (GPa) = 34.25065 45.38105 47.07643
#
# Poissons Ratio (x) = 0.24404 0.00089
# Poissons Ratio (y) = 0.18419 0.55347
# Poissons Ratio (z) = 0.00065 0.53354
#
# Static dielectric constant tensor:
#      x y z
#    x 2.047960 0.000000 -0.173860 
#    y 0.000000 1.963120 0.000000 
#    z -0.173860 0.000000 2.243820 
# 
# From -- ./inp_files/277469.got.cif
#   From: 2010.05.17/outbox.cif.g08.bks.cpg/sg15_139_cif.got.tgz:277469.got - 2010.06.03 18:47:42.
