data_PCOD9256454
_publ_section_title
;
Structure prediction by ZEFSAII (Michael W. Deem and Ramdas Pophale) SiO2 
 PCOD9256454
Probable space group: C 2/C
;
_chemical_formula_sum "Si O2"
_cell_formula_units_Z 56
_cell_length_a 9.556055
_cell_length_b 17.247423
_cell_length_c 16.234908
_cell_angle_alpha 90.000000
_cell_angle_beta 101.410270
_cell_angle_gamma 90.000000
_cell_volume 2622.908955
_symmetry_space_group_name_H-M "C 2/C"
_symmetry_group_IT_number 15
_symmetry_cell_setting 'monoclinic'
loop_
_space_group_symop_operation_xyz
x,y,z
-x,y,1/2-z
-x,-y,-z
x,-y,1/2+z
1/2+x,1/2+y,z
1/2-x,1/2+y,1/2-z
1/2-x,1/2-y,-z
1/2+x,1/2-y,1/2+z
loop_
_atom_site_type_symbol
_atom_site_label
_atom_site_fract_x
_atom_site_fract_y
_atom_site_fract_z
Si Si1 0.662826 0.164939 0.349880
Si Si2 0.787805 0.932338 0.492817
Si Si3 0.906652 0.504682 0.666894
Si Si4 0.845542 0.554790 0.906132
Si Si5 0.060773 0.160357 0.001224
Si Si6 0.139262 0.165026 0.817251
Si Si7 0.543344 0.826927 0.527644
O O1 0.798586 0.160777 0.426521
O O2 0.679587 0.245324 0.302054
O O3 0.517255 0.173834 0.386371
O O4 0.649099 0.079284 0.309725
O O5 0.717975 0.949162 0.394707
O O6 0.695337 0.864549 0.525944
O O7 0.951465 0.908655 0.505989
O O8 0.756433 0.007588 0.544728
O O9 0.000000 0.542495 0.750000
O O10 0.030174 0.497716 0.611228
O O11 0.758322 0.598584 0.824530
O O12 0.930124 0.621348 0.964071
O O13 0.106548 0.163286 0.911223
O O14 0.973507 0.239612 0.005780
O O15 0.000000 0.144794 0.750000
#
# Coordination Sequence:
#
# PCOD9256454 Si02
#       7
#     8   8   8   8   8   8   8
#     4  11  19  41  63  86 112 162 209 236 283 365
#     4  11  22  37  62  95 117 154 201 252 294 352
#     4  11  23  37  62  87 123 159 198 242 304 359
#     4  11  20  41  62  83 123 157 197 246 294 360
#     4  11  22  36  64  91 118 151 208 252 283 350
#     4  11  23  37  61  87 123 158 196 245 305 350
#     4  10  17  39  61  83 112 159 196 237 290 350
#
# _framework density 21.350341
#
# number of rings (size 3 to 8) (size 9 to 14) (size 15 to 20)
#    0.000    1.143    5.714    2.571    2.000    2.286 
#    0.000    0.000    0.000    0.000    0.000    0.000 
#    0.000    0.000    0.000    0.000    0.000    0.000 
#
# Total GULP energy -156293.542645 kJ/mol
# GULP energy per Si atom -5581.912237 kJ/mol
# Density = 2.130175 g / cm^3
# Si number density = 21.350341 Si / 1000 Ang^3
#
#
#
# Elastic Constant Matrix: (Units=GPa)
#
#
# Indices 1 2 3 4 5 6 
#
# 1 71.7729 24.3090 3.5164 0.0000 12.3580 0.0000
# 2 24.3090 99.3806 -1.3861 0.0000 8.9370 0.0000
# 3 3.5164 -1.3861 52.9262 0.0000 24.2098 0.0000
# 4 0.0000 0.0000 0.0000 12.8235 0.0000 10.2435
# 5 12.3580 8.9370 24.2098 0.0000 24.2789 0.0000
# 6 0.0000 0.0000 0.0000 10.2435 0.0000 34.3993
#
#
#
# Elastic Compliance Matrix: (Units=1/GPa)
#
#
# Indices 1 2 3 4 5 6 
#
# 1 0.016722 -0.003006 0.004040 0.000000 -0.011434 0.000000
# 2 -0.003006 0.011362 0.003145 0.000000 -0.005789 0.000000
# 3 0.004040 0.003145 0.037101 0.000000 -0.040210 0.000000
# 4 0.000000 0.000000 0.000000 0.102321 0.000000 -0.030469
# 5 -0.011434 -0.005789 -0.040210 0.000000 0.089234 0.000000
# 6 0.000000 0.000000 0.000000 -0.030469 0.000000 0.038144
#
#
# Mechanical properties :
#
#
# Convention : Reuss Voigt Hill
#
# Bulk Modulus (GPa) = 13.59725 30.77315 22.18520
# Shear Modulus (GPa) = 16.07523 27.47638 21.77581
#
# Velocity S-wave (km/s) = 2.74693 3.59127 3.19710
# Velocity P-wave (km/s) = 4.05503 5.62504 4.90328
#
# Compressibility (1/GPa) = 0.07354428
#
# Stress axis : x y z
#
# Youngs Moduli (GPa) = 59.80300 88.01324 26.95347
#
# Poissons Ratio (x) = 0.26453 -0.10890
# Poissons Ratio (y) = 0.17974 -0.08477
# Poissons Ratio (z) = -0.24163 -0.27681
#
# Static dielectric constant tensor:
#      x y z
#    x 1.766420 0.000000 -0.029350 
#    y 0.000000 1.841030 0.000000 
#    z -0.029350 0.000000 1.784110 
# 
# From -- ./inp_files/191063.got.cif
#   From: 2010.05.17/outbox.cif.g08.bks.cpg/sg15_96_cif.got.tgz:191063.got - 2010.06.03 18:47:42.
