data_PCOD9256070
_publ_section_title
;
Structure prediction by ZEFSAII (Michael W. Deem and Ramdas Pophale) SiO2 
 PCOD9256070
Probable space group: C 2/C
;
_chemical_formula_sum "Si O2"
_cell_formula_units_Z 44
_cell_length_a 12.200191
_cell_length_b 13.358290
_cell_length_c 19.855960
_cell_angle_alpha 90.000000
_cell_angle_beta 135.306853
_cell_angle_gamma 90.000000
_cell_volume 2275.909465
_symmetry_space_group_name_H-M "C 2/C"
_symmetry_group_IT_number 15
_symmetry_cell_setting 'monoclinic'
loop_
_space_group_symop_operation_xyz
x,y,z
-x,y,1/2-z
-x,-y,-z
x,-y,1/2+z
1/2+x,1/2+y,z
1/2-x,1/2+y,1/2-z
1/2-x,1/2-y,-z
1/2+x,1/2-y,1/2+z
loop_
_atom_site_type_symbol
_atom_site_label
_atom_site_fract_x
_atom_site_fract_y
_atom_site_fract_z
Si Si1 0.828523 0.144035 0.549095
Si Si2 0.272859 0.930880 0.026831
Si Si3 0.932371 0.322374 0.296632
Si Si4 0.358928 0.569757 0.880622
Si Si5 0.053808 0.100571 0.167086
Si Si6 0.000000 0.940655 0.250000
O O1 0.750000 0.250000 0.500000
O O2 0.981832 0.126246 0.569451
O O3 0.893281 0.125326 0.653469
O O4 0.716049 0.049259 0.483982
O O5 0.433654 0.870715 0.098185
O O6 0.200192 0.919171 0.069645
O O7 0.135505 0.891386 0.918305
O O8 0.780105 0.389634 0.226246
O O9 0.885655 0.210827 0.296840
O O10 0.000000 0.316470 0.250000
O O11 0.388898 0.454123 0.875199
O O12 0.089733 0.019212 0.240533
#
# Coordination Sequence:
#
# PCOD9256070 Si02
#       6
#     8   8   8   8   8   4
#     4  10  20  38  59  79 116 150 184 227 286 332
#     4   9  19  36  55  79 107 142 189 227 271 337
#     4  10  19  33  56  81 107 141 185 225 275 323
#     4   9  20  36  51  84 109 139 186 229 272 334
#     4  10  17  34  57  72 112 142 179 229 282 324
#     4   8  18  36  54  80 108 148 186 224 282 326
#
# _framework density 19.332930000000001
#
# number of rings (size 3 to 8) (size 9 to 14) (size 15 to 20)
#    0.000    2.909    0.909    2.727    0.000    1.455 
#   18.000    0.000    0.000    9.818    0.000    0.000 
#    0.000    0.000    0.000    0.000    0.000    0.000 
#
# Total GULP energy -122559.502394 kJ/mol
# GULP energy per Si atom -5570.886472 kJ/mol
# Density = 1.928893 g / cm^3
# Si number density = 19.332930 Si / 1000 Ang^3
#
#
#
# Elastic Constant Matrix: (Units=GPa)
#
#
# Indices 1 2 3 4 5 6 
#
# 1 39.8604 19.8544 16.7403 0.0000 0.3463 0.0000
# 2 19.8544 114.3207 59.2865 0.0000 15.8941 0.0000
# 3 16.7403 59.2865 95.3540 0.0000 -1.5220 0.0000
# 4 0.0000 0.0000 0.0000 22.0324 0.0000 6.3794
# 5 0.3463 15.8941 -1.5220 0.0000 22.5003 0.0000
# 6 0.0000 0.0000 0.0000 6.3794 0.0000 9.9190
#
#
#
# Elastic Compliance Matrix: (Units=1/GPa)
#
#
# Indices 1 2 3 4 5 6 
#
# 1 0.028043 -0.003887 -0.002473 0.000000 0.002147 0.000000
# 2 -0.003887 0.015961 -0.009431 0.000000 -0.011853 0.000000
# 3 -0.002473 -0.009431 0.016910 0.000000 0.007844 0.000000
# 4 0.000000 0.000000 0.000000 0.055774 0.000000 -0.035871
# 5 0.002147 -0.011853 0.007844 0.000000 0.053314 0.000000
# 6 0.000000 0.000000 0.000000 -0.035871 0.000000 0.123886
#
#
# Mechanical properties :
#
#
# Convention : Reuss Voigt Hill
#
# Bulk Modulus (GPa) = 34.08923 49.03306 41.56115
# Shear Modulus (GPa) = 14.91441 21.13393 18.02417
#
# Velocity S-wave (km/s) = 2.78051 3.30988 3.05668
# Velocity P-wave (km/s) = 5.28955 6.32650 5.83112
#
# Compressibility (1/GPa) = 0.02933477
#
# Stress axis : x y z
#
# Youngs Moduli (GPa) = 35.65928 62.65306 59.13662
#
# Poissons Ratio (x) = 0.24350 0.14622
# Poissons Ratio (y) = 0.13859 0.55769
# Poissons Ratio (z) = 0.08817 0.59086
#
# Static dielectric constant tensor:
#      x y z
#    x 1.678140 0.000000 -0.027680 
#    y 0.000000 1.663920 0.000000 
#    z -0.027680 0.000000 1.735260 
# 
# From -- ./inp_files/243842.got.cif
#   From: 2010.05.17/outbox.cif.g08.bks.cpg/sg15_122_cif.got.tgz:243842.got - 2010.06.03 18:47:42.
