data_PCOD9256768
_publ_section_title
;
Structure prediction by ZEFSAII (Michael W. Deem and Ramdas Pophale) SiO2 
 PCOD9256768
Probable space group: C 2/C
;
_chemical_formula_sum "Si O2"
_cell_formula_units_Z 32
_cell_length_a 18.463165
_cell_length_b 5.404392
_cell_length_c 16.241253
_cell_angle_alpha 90.000000
_cell_angle_beta 45.021846
_cell_angle_gamma 90.000000
_cell_volume 1146.365359
_symmetry_space_group_name_H-M "C 2/C"
_symmetry_group_IT_number 15
_symmetry_cell_setting 'monoclinic'
loop_
_space_group_symop_operation_xyz
x,y,z
-x,y,1/2-z
-x,-y,-z
x,-y,1/2+z
1/2+x,1/2+y,z
1/2-x,1/2+y,1/2-z
1/2-x,1/2-y,-z
1/2+x,1/2-y,1/2+z
loop_
_atom_site_type_symbol
_atom_site_label
_atom_site_fract_x
_atom_site_fract_y
_atom_site_fract_z
Si Si1 0.923840 0.010780 0.417173
Si Si2 0.456361 0.006136 0.942702
Si Si3 0.239868 0.930783 0.804944
Si Si4 0.278966 0.575759 0.900807
O O1 0.750000 0.750000 0.500000
O O2 0.856804 0.977419 0.556679
O O3 0.862162 0.080270 0.383229
O O4 0.971926 0.739589 0.377006
O O5 0.497166 0.261147 0.873732
O O6 0.500000 0.000000 0.000000
O O7 0.330428 0.034220 0.040074
O O8 0.221292 0.702716 0.754497
O O9 0.314571 0.766487 0.802361
#
# Coordination Sequence:
#
# PCOD9256768 Si02
#       4
#     8   8   8   8
#     4  10  20  34  50  75 102 129 166 208 243 295
#     4  10  18  30  50  76 101 127 161 206 249 287
#     4  10  18  29  48  75 101 127 161 208 253 288
#     4   8  18  33  50  74  99 125 165 206 241 292
#
# _framework density 27.914313
#
# number of rings (size 3 to 8) (size 9 to 14) (size 15 to 20)
#    0.000    3.000    0.000    4.500    0.000    4.000 
#    0.000    1.250    0.000    0.000    0.000  337.750 
#    0.000    0.000    0.000    0.000    0.000    0.000 
#
# Total GULP energy -89105.429059 kJ/mol
# GULP energy per Si atom -5569.089316 kJ/mol
# Density = 2.785078 g / cm^3
# Si number density = 27.914313 Si / 1000 Ang^3
#
#
#
# Elastic Constant Matrix: (Units=GPa)
#
#
# Indices 1 2 3 4 5 6 
#
# 1 224.9588 49.0575 34.9955 -0.0040 -3.5523 0.0030
# 2 49.0575 223.0347 21.9545 -0.0064 -0.8100 0.0146
# 3 34.9955 21.9545 109.9511 0.0014 -9.2607 0.0039
# 4 -0.0040 -0.0064 0.0014 -6.3113 -0.0001 22.2965
# 5 -3.5523 -0.8100 -9.2607 -0.0001 20.2043 0.0049
# 6 0.0030 0.0146 0.0039 22.2965 0.0049 54.4501
#
#
#
# Elastic Compliance Matrix: (Units=1/GPa)
#
#
# Indices 1 2 3 4 5 6 
#
# 1 0.004862 -0.000936 -0.001343 -0.000001 0.000201 0.000000
# 2 -0.000936 0.004755 -0.000675 -0.000003 -0.000284 0.000000
# 3 -0.001343 -0.000675 0.010022 0.000000 0.004330 -0.000001
# 4 -0.000001 -0.000003 0.000000 -0.064761 -0.000007 0.026519
# 5 0.000201 -0.000284 0.004330 -0.000007 0.051503 -0.000002
# 6 0.000000 0.000000 -0.000001 0.026519 -0.000002 0.007506
#
#
# Mechanical properties :
#
#
# Convention : Reuss Voigt Hill
#
# Bulk Modulus (GPa) = 72.84096 85.55106 79.19601
# Shear Modulus (GPa) = 205.13706 43.79774 124.46740
#
# Velocity S-wave (km/s) = 8.58182 3.96537 6.68475
# Velocity P-wave (km/s) = 11.15114 7.18886 9.38157
#
# Compressibility (1/GPa) = 0.01372854
#
# Stress axis : x y z
#
# Youngs Moduli (GPa) = 205.69247 210.30456 99.77930
#
# Poissons Ratio (x) = 0.19692 0.13405
# Poissons Ratio (y) = 0.19260 0.06738
# Poissons Ratio (z) = 0.27633 0.14202
#
# Static dielectric constant tensor:
#      x y z
#    x 2.633150 -0.000020 -0.099450 
#    y -0.000020 2.293500 0.000010 
#    z -0.099450 0.000010 2.346330 
# 
# From -- ./inp_files/250703.got.cif
#   From: 2010.05.17/outbox.cif.g08.bks.cpg/sg15_126_cif.got.tgz:250703.got - 2010.06.03 18:47:42.
