data_PCOD9256035
_publ_section_title
;
Structure prediction by ZEFSAII (Michael W. Deem and Ramdas Pophale) SiO2 
 PCOD9256035
Probable space group: C 2/C
;
_chemical_formula_sum "Si O2"
_cell_formula_units_Z 32
_cell_length_a 14.615723
_cell_length_b 4.842027
_cell_length_c 16.324961
_cell_angle_alpha 90.000000
_cell_angle_beta 84.889334
_cell_angle_gamma 90.000000
_cell_volume 1150.720060
_symmetry_space_group_name_H-M "C 2/C"
_symmetry_group_IT_number 15
_symmetry_cell_setting 'monoclinic'
loop_
_space_group_symop_operation_xyz
x,y,z
-x,y,1/2-z
-x,-y,-z
x,-y,1/2+z
1/2+x,1/2+y,z
1/2-x,1/2+y,1/2-z
1/2-x,1/2-y,-z
1/2+x,1/2-y,1/2+z
loop_
_atom_site_type_symbol
_atom_site_label
_atom_site_fract_x
_atom_site_fract_y
_atom_site_fract_z
Si Si1 0.017696 0.692780 0.335242
Si Si2 0.652279 0.962497 0.449921
Si Si3 0.714405 0.268746 0.298454
Si Si4 0.904387 0.031380 0.457570
O O1 0.059717 0.488537 0.400312
O O2 0.109631 0.875273 0.312582
O O3 0.933873 0.880959 0.372030
O O4 0.000000 0.551153 0.250000
O O5 0.726492 0.097787 0.382570
O O6 0.663428 0.658090 0.482540
O O7 0.630613 0.160442 0.528218
O O8 0.724929 0.030149 0.229122
O O9 0.000000 0.000000 0.500000
#
# Coordination Sequence:
#
# PCOD9256035 Si02
#       4
#     8   8   8   8
#     4   9  20  34  59  85 109 135 183 239 269 302
#     4   9  20  33  58  78 106 142 186 217 264 324
#     4  10  21  35  55  79 111 148 179 212 270 339
#     4  10  17  34  54  85 100 141 183 230 255 321
#
# _framework density 27.808679000000001
#
# number of rings (size 3 to 8) (size 9 to 14) (size 15 to 20)
#    1.500    1.000    0.000    4.500    0.000    0.000 
#    0.000   20.000    0.000    9.000    0.000    0.000 
#    0.000    0.000    0.000    0.000    0.000    0.000 
#
# Total GULP energy -89387.626821 kJ/mol
# GULP energy per Si atom -5586.726676 kJ/mol
# Density = 2.774538 g / cm^3
# Si number density = 27.808679 Si / 1000 Ang^3
#
#
#
# Elastic Constant Matrix: (Units=GPa)
#
#
# Indices 1 2 3 4 5 6 
#
# 1 76.3535 -2.5503 20.8241 0.0000 -18.5622 0.0000
# 2 -2.5503 126.1568 38.4732 0.0000 -21.9417 0.0000
# 3 20.8241 38.4732 129.1196 0.0000 -10.4734 0.0000
# 4 0.0000 0.0000 0.0000 40.8588 0.0000 -19.5030
# 5 -18.5622 -21.9417 -10.4734 0.0000 49.2529 0.0000
# 6 0.0000 0.0000 0.0000 -19.5030 0.0000 29.5567
#
#
#
# Elastic Compliance Matrix: (Units=1/GPa)
#
#
# Indices 1 2 3 4 5 6 
#
# 1 0.015402 0.002197 -0.002634 0.000000 0.006223 0.000000
# 2 0.002197 0.009627 -0.002857 0.000000 0.004509 0.000000
# 3 -0.002634 -0.002857 0.008992 0.000000 -0.000353 0.000000
# 4 0.000000 0.000000 0.000000 0.035727 0.000000 0.023575
# 5 0.006223 0.004509 -0.000353 0.000000 0.024582 0.000000
# 6 0.000000 0.000000 0.000000 0.023575 0.000000 0.049389
#
#
# Mechanical properties :
#
#
# Convention : Reuss Voigt Hill
#
# Bulk Modulus (GPa) = 36.45293 49.45821 42.95557
# Shear Modulus (GPa) = 31.35772 42.25924 36.80848
#
# Velocity S-wave (km/s) = 3.36165 3.90249 3.64212
# Velocity P-wave (km/s) = 5.31080 6.17492 5.75909
#
# Compressibility (1/GPa) = 0.02743263
#
# Stress axis : x y z
#
# Youngs Moduli (GPa) = 64.92855 103.87955 111.20816
#
# Poissons Ratio (x) = -0.22821 0.29289
# Poissons Ratio (y) = -0.14264 0.31772
# Poissons Ratio (z) = 0.17100 0.29678
#
# Static dielectric constant tensor:
#      x y z
#    x 2.378350 0.000000 0.056460 
#    y 0.000000 2.063540 0.000000 
#    z 0.056460 0.000000 2.236550 
# 
# From -- ./inp_files/165017.got.cif
#   From: 2010.05.17/outbox.cif.g08.bks.cpg/sg15_83_cif.got.tgz:165017.got - 2010.06.03 18:47:42.
