data_PCOD9256840
_publ_section_title
;
Structure prediction by ZEFSAII (Michael W. Deem and Ramdas Pophale) SiO2 
 PCOD9256840
Probable space group: C 2/C
;
_chemical_formula_sum "Si O2"
_cell_formula_units_Z 44
_cell_length_a 24.263325
_cell_length_b 8.108887
_cell_length_c 18.498993
_cell_angle_alpha 90.000000
_cell_angle_beta 37.234443
_cell_angle_gamma 90.000000
_cell_volume 2202.271690
_symmetry_space_group_name_H-M "C 2/C"
_symmetry_group_IT_number 15
_symmetry_cell_setting 'monoclinic'
loop_
_space_group_symop_operation_xyz
x,y,z
-x,y,1/2-z
-x,-y,-z
x,-y,1/2+z
1/2+x,1/2+y,z
1/2-x,1/2+y,1/2-z
1/2-x,1/2-y,-z
1/2+x,1/2-y,1/2+z
loop_
_atom_site_type_symbol
_atom_site_label
_atom_site_fract_x
_atom_site_fract_y
_atom_site_fract_z
Si Si1 0.500000 0.153799 0.250000
Si Si2 0.575267 0.645151 0.107925
Si Si3 0.050791 0.465543 0.059508
Si Si4 0.830041 0.880305 0.406742
Si Si5 0.553459 0.768208 0.451982
Si Si6 0.924827 0.028314 0.664596
O O1 0.415634 0.273315 0.342140
O O2 0.497128 0.046278 0.181589
O O3 0.500000 0.677650 0.250000
O O4 0.605718 0.814985 0.038205
O O5 0.658698 0.542708 0.055095
O O6 0.514539 0.542606 0.113370
O O7 0.979809 0.381897 0.078918
O O8 0.098599 0.612332 0.964434
O O9 0.750000 0.750000 0.500000
O O10 0.849888 0.932327 0.303193
O O11 0.463490 0.688439 0.583400
O O12 0.603215 0.611562 0.364054
#
# Coordination Sequence:
#
# PCOD9256840 Si02
#       6
#     4   8   8   8   8   8
#     4  12  20  36  58  86 116 152 206 254 314 366
#     4   9  16  31  53  80 118 154 194 248 313 359
#     4  10  18  29  56  87 114 152 200 256 300 373
#     4  11  21  35  58  86 120 162 207 257 306 369
#     4   9  17  29  54  90 110 152 206 238 308 375
#     4   9  16  32  55  82 115 156 198 245 300 374
#
# _framework density 19.979369999999999
#
# number of rings (size 3 to 8) (size 9 to 14) (size 15 to 20)
#    0.000    2.182    5.455    0.000    0.000    0.000 
#    0.000    0.909    0.000    8.727    0.000    0.000 
#    0.000    0.000    0.000    0.000    0.000    0.000 
#
# Total GULP energy -122514.517425 kJ/mol
# GULP energy per Si atom -5568.841701 kJ/mol
# Density = 1.993390 g / cm^3
# Si number density = 19.979370 Si / 1000 Ang^3
#
#
#
# Elastic Constant Matrix: (Units=GPa)
#
#
# Indices 1 2 3 4 5 6 
#
# 1 48.9488 44.5002 30.7066 -0.0008 23.5360 0.0007
# 2 44.5002 136.1550 44.6753 -0.0017 22.3765 0.0012
# 3 30.7066 44.6753 49.7111 -0.0014 19.3180 0.0010
# 4 -0.0008 -0.0017 -0.0014 39.4699 0.0004 30.6398
# 5 23.5360 22.3765 19.3180 0.0004 39.7673 -0.0001
# 6 0.0007 0.0012 0.0010 30.6398 -0.0001 53.4560
#
#
#
# Elastic Compliance Matrix: (Units=1/GPa)
#
#
# Indices 1 2 3 4 5 6 
#
# 1 0.042711 -0.006773 -0.014735 0.000000 -0.014309 0.000000
# 2 -0.006773 0.011575 -0.006467 0.000000 0.000636 0.000000
# 3 -0.014735 -0.006467 0.037260 0.000002 -0.005741 -0.000002
# 4 0.000000 0.000000 0.000002 0.045646 -0.000002 -0.026163
# 5 -0.014309 0.000636 -0.005741 -0.000002 0.036046 0.000002
# 6 0.000000 0.000000 -0.000002 -0.026163 0.000002 0.033703
#
#
# Mechanical properties :
#
#
# Convention : Reuss Voigt Hill
#
# Bulk Modulus (GPa) = 28.09176 52.73100 40.41138
# Shear Modulus (GPa) = 18.19798 34.20083 26.19941
#
# Velocity S-wave (km/s) = 3.02128 4.14189 3.62515
# Velocity P-wave (km/s) = 5.12463 7.02308 6.14758
#
# Compressibility (1/GPa) = 0.03559763
#
# Stress axis : x y z
#
# Youngs Moduli (GPa) = 23.41332 86.39035 26.83811
#
# Poissons Ratio (x) = 0.58511 0.39546
# Poissons Ratio (y) = 0.15857 0.17355
# Poissons Ratio (z) = 0.34500 0.55864
#
# Static dielectric constant tensor:
#      x y z
#    x 1.719070 0.000000 0.051230 
#    y 0.000000 1.876180 0.000000 
#    z 0.051230 0.000000 1.691290 
# 
# From -- ./inp_files/218465.got.cif
#   From: 2010.05.17/outbox.cif.g08.bks.cpg/sg15_110_cif.got.tgz:218465.got - 2010.06.03 18:47:42.
