data_PCOD9256441
_publ_section_title
;
Structure prediction by ZEFSAII (Michael W. Deem and Ramdas Pophale) SiO2 
 PCOD9256441
Probable space group: C 2/C
;
_chemical_formula_sum "Si O2"
_cell_formula_units_Z 40
_cell_length_a 6.375460
_cell_length_b 21.857897
_cell_length_c 18.345632
_cell_angle_alpha 90.000000
_cell_angle_beta 137.363987
_cell_angle_gamma 90.000000
_cell_volume 1731.642929
_symmetry_space_group_name_H-M "C 2/C"
_symmetry_group_IT_number 15
_symmetry_cell_setting 'monoclinic'
loop_
_space_group_symop_operation_xyz
x,y,z
-x,y,1/2-z
-x,-y,-z
x,-y,1/2+z
1/2+x,1/2+y,z
1/2-x,1/2+y,1/2-z
1/2-x,1/2-y,-z
1/2+x,1/2-y,1/2+z
loop_
_atom_site_type_symbol
_atom_site_label
_atom_site_fract_x
_atom_site_fract_y
_atom_site_fract_z
Si Si1 0.349299 0.740993 0.608701
Si Si2 0.318777 0.616294 0.779564
Si Si3 0.359279 0.871848 0.640137
Si Si4 0.868243 0.345014 0.053634
Si Si5 0.156701 0.438348 0.013127
O O1 0.250000 0.750000 0.500000
O O2 0.578214 0.683720 0.669616
O O3 0.513591 0.804680 0.670719
O O4 0.062845 0.717696 0.587442
O O5 0.500000 0.603757 0.750000
O O6 0.023489 0.625705 0.840913
O O7 0.478979 0.566377 0.872695
O O8 0.500000 0.898306 0.750000
O O9 0.395479 0.919202 0.583472
O O10 0.999588 0.850362 0.546234
O O11 0.993886 0.386009 0.019417
O O12 0.000000 0.500000 0.000000
#
# Coordination Sequence:
#
# PCOD9256441 Si02
#       5
#     8   8   8   8   8
#     4  10  17  38  65  96 139 173 211 271 336 419
#     4   8  17  38  65  93 121 171 220 265 330 396
#     4  12  24  40  63 100 138 173 223 275 350 410
#     4  10  22  41  64  96 129 175 222 271 335 398
#     4  10  22  44  67  88 128 168 225 283 329 396
#
# _framework density 23.099450000000001
#
# number of rings (size 3 to 8) (size 9 to 14) (size 15 to 20)
#    0.000    2.400    4.000    2.400    0.000    2.400 
#   10.800    2.000    0.000    0.000    0.000    0.000 
#    0.000    0.000    0.000    0.000    0.000    0.000 
#
# Total GULP energy -111455.898740 kJ/mol
# GULP energy per Si atom -5572.794937 kJ/mol
# Density = 2.304688 g / cm^3
# Si number density = 23.099450 Si / 1000 Ang^3
#
#
#
# Elastic Constant Matrix: (Units=GPa)
#
#
# Indices 1 2 3 4 5 6 
#
# 1 82.3829 44.9098 27.2646 0.0000 11.3250 0.0000
# 2 44.9098 79.3236 66.9943 0.0000 -16.7206 0.0000
# 3 27.2646 66.9943 217.8411 0.0000 -9.1348 0.0000
# 4 0.0000 0.0000 0.0000 16.7403 0.0000 -6.6750
# 5 11.3250 -16.7206 -9.1348 0.0000 27.7001 0.0000
# 6 0.0000 0.0000 0.0000 -6.6750 0.0000 37.5222
#
#
#
# Elastic Compliance Matrix: (Units=1/GPa)
#
#
# Indices 1 2 3 4 5 6 
#
# 1 0.026539 -0.022036 0.002477 0.000000 -0.023335 0.000000
# 2 -0.022036 0.037663 -0.007599 0.000000 0.029238 0.000000
# 3 0.002477 -0.007599 0.006472 0.000000 -0.003465 0.000000
# 4 0.000000 0.000000 0.000000 0.064297 0.000000 0.011438
# 5 -0.023335 0.029238 -0.003465 0.000000 0.062148 0.000000
# 6 0.000000 0.000000 0.000000 0.011438 0.000000 0.028686
#
#
# Mechanical properties :
#
#
# Convention : Reuss Voigt Hill
#
# Bulk Modulus (GPa) = 61.13045 73.09833 67.11439
# Shear Modulus (GPa) = 17.50861 32.41778 24.96319
#
# Velocity S-wave (km/s) = 2.75611 3.75026 3.29094
# Velocity P-wave (km/s) = 6.05389 7.10397 6.59985
#
# Compressibility (1/GPa) = 0.01635846
#
# Stress axis : x y z
#
# Youngs Moduli (GPa) = 37.68014 26.55102 154.50840
#
# Poissons Ratio (x) = 0.58508 -0.38269
# Poissons Ratio (y) = 0.83032 1.17409
# Poissons Ratio (z) = -0.09333 0.20176
#
# Static dielectric constant tensor:
#      x y z
#    x 2.098180 0.000000 0.061580 
#    y 0.000000 1.879040 0.000000 
#    z 0.061580 0.000000 1.952000 
# 
# From -- ./inp_files/129556.got.cif
#   From: 2010.05.17/outbox.cif.g08.bks.cpg/sg15_65_cif.got.tgz:129556.got - 2010.06.03 18:47:42.
