data_PCOD9256386
_publ_section_title
;
Structure prediction by ZEFSAII (Michael W. Deem and Ramdas Pophale) SiO2 
 PCOD9256386
Probable space group: C 2/C
;
_chemical_formula_sum "Si O2"
_cell_formula_units_Z 60
_cell_length_a 9.674278
_cell_length_b 15.281176
_cell_length_c 20.965457
_cell_angle_alpha 90.000000
_cell_angle_beta 83.696700
_cell_angle_gamma 90.000000
_cell_volume 3080.677502
_symmetry_space_group_name_H-M "C 2/C"
_symmetry_group_IT_number 15
_symmetry_cell_setting 'monoclinic'
loop_
_space_group_symop_operation_xyz
x,y,z
-x,y,1/2-z
-x,-y,-z
x,-y,1/2+z
1/2+x,1/2+y,z
1/2-x,1/2+y,1/2-z
1/2-x,1/2-y,-z
1/2+x,1/2-y,1/2+z
loop_
_atom_site_type_symbol
_atom_site_label
_atom_site_fract_x
_atom_site_fract_y
_atom_site_fract_z
Si Si1 0.262959 0.051210 0.171367
Si Si2 0.431714 0.784252 0.857379
Si Si3 0.000000 0.590515 0.250000
Si Si4 0.153055 0.313484 0.047498
Si Si5 0.242164 0.750131 0.678626
Si Si6 0.663964 0.016602 0.477811
Si Si7 0.343873 0.636274 0.786019
Si Si8 0.645767 0.829749 0.502398
O O1 0.404181 0.041313 0.205348
O O2 0.199853 0.147483 0.190816
O O3 0.300925 0.050769 0.094521
O O4 0.180521 0.964188 0.194852
O O5 0.406002 0.845459 0.797650
O O6 0.594573 0.760141 0.848522
O O7 0.343323 0.697239 0.849074
O O8 0.404167 0.837025 0.922146
O O9 0.166137 0.289202 0.120815
O O10 0.250000 0.250000 0.000000
O O11 0.205954 0.411138 0.027383
O O12 0.992228 0.310673 0.032399
O O13 0.243858 0.683347 0.738633
O O14 0.500000 0.000000 0.500000
O O15 0.722183 0.919156 0.480209
O O16 0.500000 0.644114 0.750000
O O17 0.750000 0.750000 0.500000
#
# Coordination Sequence:
#
# PCOD9256386 Si02
#       8
#     8   8   4   8   8   8   8   8
#     4  11  20  35  60  86 118 147 197 247 291 345
#     4  10  17  37  60  79 113 153 206 232 280 358
#     4  10  18  34  62  80 100 158 206 230 278 352
#     4  11  19  38  64  84 113 159 204 240 283 358
#     4  10  19  37  61  85 108 152 204 245 271 360
#     4  10  21  37  60  88 118 153 194 246 300 349
#     4  10  21  37  59  83 113 160 195 238 295 345
#     4  11  23  37  57  90 128 153 186 251 314 341
#
# _framework density 19.476236
#
# number of rings (size 3 to 8) (size 9 to 14) (size 15 to 20)
#    0.000    1.600    6.000    3.200    0.000    3.200 
#    0.000    4.667    4.400    0.000    0.000    0.000 
#    0.000    0.000    0.000    0.000    0.000    0.000 
#
# Total GULP energy -167151.499203 kJ/mol
# GULP energy per Si atom -5571.716640 kJ/mol
# Density = 1.943191 g / cm^3
# Si number density = 19.476236 Si / 1000 Ang^3
#
#
#
# Elastic Constant Matrix: (Units=GPa)
#
#
# Indices 1 2 3 4 5 6 
#
# 1 23.2679 25.1267 11.4389 0.0000 12.2387 0.0000
# 2 25.1267 139.8138 34.6647 0.0000 17.7791 0.0000
# 3 11.4389 34.6647 101.8338 0.0000 22.8814 0.0000
# 4 0.0000 0.0000 0.0000 36.9137 0.0000 -1.6093
# 5 12.2387 17.7791 22.8814 0.0000 24.1396 0.0000
# 6 0.0000 0.0000 0.0000 -1.6093 0.0000 34.3809
#
#
#
# Elastic Compliance Matrix: (Units=1/GPa)
#
#
# Indices 1 2 3 4 5 6 
#
# 1 0.066942 -0.008806 0.002092 0.000000 -0.029437 0.000000
# 2 -0.008806 0.009304 -0.002086 0.000000 -0.000411 0.000000
# 3 0.002092 -0.002086 0.012945 0.000000 -0.011795 0.000000
# 4 0.000000 0.000000 0.000000 0.027146 0.000000 0.001271
# 5 -0.029437 -0.000411 -0.011795 0.000000 0.067833 0.000000
# 6 0.000000 0.000000 0.000000 0.001271 0.000000 0.029145
#
#
# Mechanical properties :
#
#
# Convention : Reuss Voigt Hill
#
# Bulk Modulus (GPa) = 13.96787 45.26401 29.61594
# Shear Modulus (GPa) = 19.62485 31.99917 25.81201
#
# Velocity S-wave (km/s) = 3.17776 4.05777 3.64443
# Velocity P-wave (km/s) = 4.54440 6.72645 5.74006
#
# Compressibility (1/GPa) = 0.07159289
#
# Stress axis : x y z
#
# Youngs Moduli (GPa) = 14.93829 107.47672 77.24901
#
# Poissons Ratio (x) = 0.94644 -0.16163
# Poissons Ratio (y) = 0.13155 0.16112
# Poissons Ratio (z) = -0.03126 0.22416
#
# Static dielectric constant tensor:
#      x y z
#    x 1.711260 0.000000 -0.007090 
#    y 0.000000 1.763050 0.000000 
#    z -0.007090 0.000000 1.708110 
# 
# From -- ./inp_files/238400.got.cif
#   From: 2010.05.17/outbox.cif.g08.bks.cpg/sg15_120_cif.got.tgz:238400.got - 2010.06.03 18:47:42.
