data_PCOD9256488
_publ_section_title
;
Structure prediction by ZEFSAII (Michael W. Deem and Ramdas Pophale) SiO2 
 PCOD9256488
Probable space group: C 2/C
;
_chemical_formula_sum "Si O2"
_cell_formula_units_Z 64
_cell_length_a 16.290177
_cell_length_b 35.043918
_cell_length_c 21.728639
_cell_angle_alpha 90.000000
_cell_angle_beta 159.221157
_cell_angle_gamma 90.000000
_cell_volume 4400.558166
_symmetry_space_group_name_H-M "C 2/C"
_symmetry_group_IT_number 15
_symmetry_cell_setting 'monoclinic'
loop_
_space_group_symop_operation_xyz
x,y,z
-x,y,1/2-z
-x,-y,-z
x,-y,1/2+z
1/2+x,1/2+y,z
1/2-x,1/2+y,1/2-z
1/2-x,1/2-y,-z
1/2+x,1/2-y,1/2+z
loop_
_atom_site_type_symbol
_atom_site_label
_atom_site_fract_x
_atom_site_fract_y
_atom_site_fract_z
Si Si1 0.618602 0.165196 0.942134
Si Si2 0.877784 0.412392 0.249230
Si Si3 0.745623 0.625189 0.334746
Si Si4 0.652372 0.498046 0.795510
Si Si5 0.863009 0.065712 0.039127
Si Si6 0.081245 0.559510 0.589645
Si Si7 0.034226 0.806012 0.645472
Si Si8 0.664093 0.231666 0.804127
O O1 0.460375 0.131553 0.802752
O O2 0.462499 0.203055 0.832011
O O3 0.702857 0.148096 0.065985
O O4 0.833989 0.177054 0.050308
O O5 0.815587 0.424667 0.274322
O O6 0.113228 0.434711 0.396032
O O7 0.684810 0.421609 0.063983
O O8 0.522693 0.597509 0.183847
O O9 0.695020 0.657261 0.248318
O O10 0.953804 0.595713 0.469526
O O11 0.500000 0.501955 0.750000
O O12 0.493864 0.474047 0.637182
O O13 0.740459 0.537410 0.828473
O O14 0.878833 0.471283 0.963905
O O15 0.168954 0.772842 0.776319
O O16 0.899914 0.787012 0.494356
O O17 0.500000 0.234835 0.750000
#
# Coordination Sequence:
#
# PCOD9256488 Si02
#       8
#     8   8   8   8   8   8   8   8
#     4  10  18  25  38  53  80 110 149 183 210 242
#     4  10  18  29  41  65  83 110 154 182 208 262
#     4  10  18  28  42  57  77 112 143 185 211 251
#     4  10  18  33  48  64  87 111 136 185 226 266
#     4  10  19  27  44  61  84 113 144 180 227 245
#     4   9  20  30  47  67  82 109 151 177 220 271
#     4  11  18  26  37  51  80 113 148 181 217 244
#     4  10  19  26  33  55  79 113 150 182 210 252
#
# _framework density 14.543609999999999
#
# number of rings (size 3 to 8) (size 9 to 14) (size 15 to 20)
#    0.000    2.000    2.500    4.125    5.250    0.500 
#    0.000    0.000    0.000    0.000    0.000    0.000 
#    0.000    0.000    0.000   10.125    0.000    1.500 
#
# Total GULP energy -178315.226277 kJ/mol
# GULP energy per Si atom -5572.350821 kJ/mol
# Density = 1.451051 g / cm^3
# Si number density = 14.543610 Si / 1000 Ang^3
#
#
#
# Elastic Constant Matrix: (Units=GPa)
#
#
# Indices 1 2 3 4 5 6 
#
# 1 32.5812 27.2399 25.6644 -0.0002 -2.4784 0.0004
# 2 27.2399 103.8606 40.6142 0.0005 -3.4990 -0.0009
# 3 25.6644 40.6142 60.8139 0.0139 -14.5489 -0.0042
# 4 -0.0002 0.0005 0.0139 22.9276 0.0041 0.1947
# 5 -2.4784 -3.4990 -14.5489 0.0041 16.3358 -0.0005
# 6 0.0004 -0.0009 -0.0042 0.1947 -0.0005 16.0521
#
#
#
# Elastic Compliance Matrix: (Units=1/GPa)
#
#
# Indices 1 2 3 4 5 6 
#
# 1 0.050590 -0.005715 -0.020319 0.000015 -0.011645 -0.000007
# 2 -0.005715 0.014209 -0.008332 0.000006 -0.005244 -0.000001
# 3 -0.020319 -0.008332 0.037384 -0.000028 0.028427 0.000011
# 4 0.000015 0.000006 -0.000028 0.043620 -0.000032 -0.000529
# 5 -0.011645 -0.005244 0.028427 -0.000032 0.083643 0.000011
# 6 -0.000007 -0.000001 0.000011 -0.000529 0.000011 0.062304
#
#
# Mechanical properties :
#
#
# Convention : Reuss Voigt Hill
#
# Bulk Modulus (GPa) = 29.89484 42.69919 36.29701
# Shear Modulus (GPa) = 13.45416 17.97891 15.71654
#
# Velocity S-wave (km/s) = 3.04483 3.51979 3.29089
# Velocity P-wave (km/s) = 5.74119 6.77803 6.28104
#
# Compressibility (1/GPa) = 0.03345059
#
# Stress axis : x y z
#
# Youngs Moduli (GPa) = 19.76659 70.37945 26.74953
#
# Poissons Ratio (x) = 0.40223 0.54353
# Poissons Ratio (y) = 0.11297 0.22287
# Poissons Ratio (z) = 0.40164 0.58639
#
# Static dielectric constant tensor:
#      x y z
#    x 1.456850 0.000000 -0.035980 
#    y 0.000000 1.514290 0.000000 
#    z -0.035980 0.000000 1.520820 
# 
# From -- ./inp_files/278374.got.cif
#   From: 2010.05.17/outbox.cif.g08.bks.cpg/sg15_140_cif.got.tgz:278374.got - 2010.06.03 18:47:42.
