data_PCOD9256956
_publ_section_title
;
Structure prediction by ZEFSAII (Michael W. Deem and Ramdas Pophale) SiO2 
 PCOD9256956
Probable space group: C 2/C
;
_chemical_formula_sum "Si O2"
_cell_formula_units_Z 44
_cell_length_a 13.851294
_cell_length_b 33.334230
_cell_length_c 5.452660
_cell_angle_alpha 90.000000
_cell_angle_beta 72.817749
_cell_angle_gamma 90.000000
_cell_volume 2405.252954
_symmetry_space_group_name_H-M "C 2/C"
_symmetry_group_IT_number 15
_symmetry_cell_setting 'monoclinic'
loop_
_space_group_symop_operation_xyz
x,y,z
-x,y,1/2-z
-x,-y,-z
x,-y,1/2+z
1/2+x,1/2+y,z
1/2-x,1/2+y,1/2-z
1/2-x,1/2-y,-z
1/2+x,1/2-y,1/2+z
loop_
_atom_site_type_symbol
_atom_site_label
_atom_site_fract_x
_atom_site_fract_y
_atom_site_fract_z
Si Si1 0.000000 0.663977 0.250000
Si Si2 0.884739 0.795366 0.363759
Si Si3 0.116130 0.745142 0.634255
Si Si4 0.899379 0.603084 0.951115
Si Si5 0.617425 0.983208 0.900213
Si Si6 0.308799 0.829400 0.198141
O O1 0.904559 0.683231 0.456690
O O2 0.056085 0.636625 0.405779
O O3 0.870003 0.774890 0.641430
O O4 0.794745 0.826484 0.374178
O O5 0.000000 0.811129 0.250000
O O6 0.876556 0.764116 0.141940
O O7 0.187006 0.706344 0.605471
O O8 0.000000 0.731699 0.750000
O O9 0.831433 0.627624 0.807466
O O10 0.000000 0.585509 0.750000
O O11 0.863796 0.564507 0.126609
O O12 0.662021 0.002834 0.624500
O O13 0.500000 0.000000 0.000000
#
# Coordination Sequence:
#
# PCOD9256956 Si02
#       6
#     4   8   8   8   8   8
#     4  10  22  32  50  74 114 138 174 208 280 312
#     4  10  23  39  58  74 100 141 188 228 268 312
#     4  10  21  37  56  76 101 139 181 225 274 319
#     4  10  20  32  47  75 104 144 174 211 257 318
#     4  10  18  30  50  67 100 140 176 201 244 308
#     4  11  23  34  53  78 109 138 180 224 271 318
#
# _framework density 18.293295000000001
#
# number of rings (size 3 to 8) (size 9 to 14) (size 15 to 20)
#    0.000    1.818    1.818    3.818   11.455    0.000 
#    0.000    0.000    0.000    0.000    0.000    0.000 
#    0.000    1.455    0.000    0.182    0.000    0.000 
#
# Total GULP energy -122546.385253 kJ/mol
# GULP energy per Si atom -5570.290239 kJ/mol
# Density = 1.825166 g / cm^3
# Si number density = 18.293295 Si / 1000 Ang^3
#
#
#
# Elastic Constant Matrix: (Units=GPa)
#
#
# Indices 1 2 3 4 5 6 
#
# 1 110.6687 42.2220 19.7167 0.0000 7.4511 0.0000
# 2 42.2220 44.7545 -0.1608 0.0000 6.5684 0.0000
# 3 19.7167 -0.1608 84.5855 0.0000 6.6030 0.0000
# 4 0.0000 0.0000 0.0000 -21.7508 0.0000 -1.2639
# 5 7.4511 6.5684 6.6030 0.0000 24.5609 0.0000
# 6 0.0000 0.0000 0.0000 -1.2639 0.0000 8.5643
#
#
#
# Elastic Compliance Matrix: (Units=1/GPa)
#
#
# Indices 1 2 3 4 5 6 
#
# 1 0.015114 -0.014300 -0.003566 0.000000 0.000198 0.000000
# 2 -0.014300 0.036812 0.003915 0.000000 -0.006559 0.000000
# 3 -0.003566 0.003915 0.012930 0.000000 -0.003441 0.000000
# 4 0.000000 0.000000 0.000000 -0.045585 0.000000 -0.006727
# 5 0.000198 -0.006559 -0.003441 0.000000 0.043334 0.000000
# 6 0.000000 0.000000 0.000000 -0.006727 0.000000 0.115771
#
#
# Mechanical properties :
#
#
# Convention : Reuss Voigt Hill
#
# Bulk Modulus (GPa) = 27.06062 40.39606 33.72834
# Shear Modulus (GPa) = 22.87336 14.15696 18.51516
#
# Velocity S-wave (km/s) = 3.53989 2.78490 3.18485
# Velocity P-wave (km/s) = 5.61538 5.69836 5.65702
#
# Compressibility (1/GPa) = 0.03695407
#
# Stress axis : x y z
#
# Youngs Moduli (GPa) = 66.16505 27.16513 77.34206
#
# Poissons Ratio (x) = 0.38847 0.27577
# Poissons Ratio (y) = 0.94618 -0.30282
# Poissons Ratio (z) = 0.23592 -0.10636
#
# Static dielectric constant tensor:
#      x y z
#    x 1.682960 0.000000 -0.038180 
#    y 0.000000 1.681120 0.000000 
#    z -0.038180 0.000000 1.800770 
# 
# From -- ./inp_files/8073.got.cif
#   From: 2010.05.17/outbox.cif.g08.bks.cpg/sg15_5_cif.got.tgz:8073.got - 2010.06.03 18:47:42.
