data_PCOD9256620
_publ_section_title
;
Structure prediction by ZEFSAII (Michael W. Deem and Ramdas Pophale) SiO2 
 PCOD9256620
Probable space group: C 2/C
;
_chemical_formula_sum "Si O2"
_cell_formula_units_Z 56
_cell_length_a 25.265464
_cell_length_b 23.666297
_cell_length_c 5.505637
_cell_angle_alpha 90.000000
_cell_angle_beta 101.308597
_cell_angle_gamma 90.000000
_cell_volume 3228.126296
_symmetry_space_group_name_H-M "C 2/C"
_symmetry_group_IT_number 15
_symmetry_cell_setting 'monoclinic'
loop_
_space_group_symop_operation_xyz
x,y,z
-x,y,1/2-z
-x,-y,-z
x,-y,1/2+z
1/2+x,1/2+y,z
1/2-x,1/2+y,1/2-z
1/2-x,1/2-y,-z
1/2+x,1/2-y,1/2+z
loop_
_atom_site_type_symbol
_atom_site_label
_atom_site_fract_x
_atom_site_fract_y
_atom_site_fract_z
Si Si1 0.876085 0.249670 0.880240
Si Si2 0.314002 0.985099 0.260594
Si Si3 0.467458 0.842685 0.967958
Si Si4 0.764867 0.316536 0.769751
Si Si5 0.192898 0.642905 0.692571
Si Si6 0.853894 0.764754 0.859566
Si Si7 0.433424 0.970935 0.850485
O O1 0.915046 0.303322 0.924938
O O2 0.813640 0.270921 0.817743
O O3 0.883474 0.218697 0.632450
O O4 0.881945 0.217028 0.136793
O O5 0.330738 0.919415 0.295080
O O6 0.284600 0.003244 0.480476
O O7 0.368247 0.022712 0.295114
O O8 0.500000 0.828734 0.750000
O O9 0.450020 0.907756 0.926723
O O10 0.500000 0.835522 0.250000
O O11 0.776636 0.353110 0.538739
O O12 0.707322 0.287057 0.694492
O O13 0.770640 0.346836 0.035269
O O14 0.151063 0.695607 0.649757
O O15 0.450111 0.989476 0.593303
#
# Coordination Sequence:
#
# PCOD9256620 Si02
#       7
#     8   8   8   8   8   8   8
#     4  10  20  32  53  65  93 117 139 188 253 302
#     4  10  21  31  45  67  85 117 164 195 233 300
#     4  12  26  40  51  67  89 124 172 211 259 305
#     4  10  19  31  51  77  92 108 140 182 257 323
#     4  10  18  28  47  65  96 117 134 187 240 295
#     4  10  19  31  53  77  92 106 142 180 259 321
#     4  10  23  35  54  60  84 107 167 217 261 284
#
# _framework density 17.347525999999998
#
# number of rings (size 3 to 8) (size 9 to 14) (size 15 to 20)
#    0.000    1.714    0.000    6.857   16.000    1.714 
#    0.000    0.000    0.000    0.000    0.000    0.000 
#    0.000    0.000    0.000    0.000    0.000    0.000 
#
# Total GULP energy -156238.593987 kJ/mol
# GULP energy per Si atom -5579.949785 kJ/mol
# Density = 1.730804 g / cm^3
# Si number density = 17.347526 Si / 1000 Ang^3
#
#
#
# Elastic Constant Matrix: (Units=GPa)
#
#
# Indices 1 2 3 4 5 6 
#
# 1 37.5274 10.8746 32.5667 0.0000 -11.4336 0.0000
# 2 10.8746 14.7971 14.7179 0.0000 -0.3908 0.0000
# 3 32.5667 14.7179 180.9147 0.0000 -32.9812 0.0000
# 4 0.0000 0.0000 0.0000 19.9200 0.0000 -2.1840
# 5 -11.4336 -0.3908 -32.9812 0.0000 30.3361 0.0000
# 6 0.0000 0.0000 0.0000 -2.1840 0.0000 14.6344
#
#
#
# Elastic Compliance Matrix: (Units=1/GPa)
#
#
# Indices 1 2 3 4 5 6 
#
# 1 0.040468 -0.026436 -0.003013 0.000000 0.011636 0.000000
# 2 -0.026436 0.091988 -0.005394 0.000000 -0.014643 0.000000
# 3 -0.003013 -0.005394 0.007844 0.000000 0.007322 0.000000
# 4 0.000000 0.000000 0.000000 0.051036 0.000000 0.007616
# 5 0.011636 -0.014643 0.007322 0.000000 0.045122 0.000000
# 6 0.000000 0.000000 0.000000 0.007616 0.000000 0.069469
#
#
# Mechanical properties :
#
#
# Convention : Reuss Voigt Hill
#
# Bulk Modulus (GPa) = 14.16176 38.83972 26.50074
# Shear Modulus (GPa) = 12.52666 24.65011 18.58838
#
# Velocity S-wave (km/s) = 2.69011 3.77365 3.27697
# Velocity P-wave (km/s) = 4.22258 6.43623 5.44313
#
# Compressibility (1/GPa) = 0.07061271
#
# Stress axis : x y z
#
# Youngs Moduli (GPa) = 24.71117 10.87102 127.49405
#
# Poissons Ratio (x) = 0.28739 0.38409
# Poissons Ratio (y) = 0.65327 0.68772
# Poissons Ratio (z) = 0.07445 0.05864
#
# Static dielectric constant tensor:
#      x y z
#    x 1.616210 0.000000 -0.052280 
#    y 0.000000 1.570300 0.000000 
#    z -0.052280 0.000000 1.739120 
# 
# From -- ./inp_files/11491.got.cif
#   From: 2010.05.17/outbox.cif.g08.bks.cpg/sg15_6_cif.got.tgz:11491.got - 2010.06.03 18:47:42.
