data_PCOD9256799
_publ_section_title
;
Structure prediction by ZEFSAII (Michael W. Deem and Ramdas Pophale) SiO2 
 PCOD9256799
Probable space group: C 2/C
;
_chemical_formula_sum "Si O2"
_cell_formula_units_Z 60
_cell_length_a 13.751594
_cell_length_b 17.998001
_cell_length_c 20.083640
_cell_angle_alpha 90.000000
_cell_angle_beta 144.029424
_cell_angle_gamma 90.000000
_cell_volume 2919.653320
_symmetry_space_group_name_H-M "C 2/C"
_symmetry_group_IT_number 15
_symmetry_cell_setting 'monoclinic'
loop_
_space_group_symop_operation_xyz
x,y,z
-x,y,1/2-z
-x,-y,-z
x,-y,1/2+z
1/2+x,1/2+y,z
1/2-x,1/2+y,1/2-z
1/2-x,1/2-y,-z
1/2+x,1/2-y,1/2+z
loop_
_atom_site_type_symbol
_atom_site_label
_atom_site_fract_x
_atom_site_fract_y
_atom_site_fract_z
Si Si1 0.018460 0.946473 0.917704
Si Si2 0.902109 0.295614 0.291868
Si Si3 0.500000 0.171925 0.250000
Si Si4 0.477523 0.818715 0.008664
Si Si5 0.654557 0.631342 0.286231
Si Si6 0.745400 0.321063 0.075209
Si Si7 0.061098 0.251065 0.917724
Si Si8 0.137566 0.898573 0.527162
O O1 0.885488 0.933898 0.786608
O O2 0.934545 0.919608 0.940235
O O3 0.163189 0.886171 0.988631
O O4 0.100335 0.026678 0.966020
O O5 0.835817 0.210945 0.247946
O O6 0.810508 0.343583 0.184579
O O7 0.893218 0.329467 0.360298
O O8 0.092891 0.292459 0.373212
O O9 0.531958 0.221258 0.200633
O O10 0.668689 0.124977 0.357582
O O11 0.327316 0.876415 0.919959
O O12 0.387603 0.742650 0.983542
O O13 0.543447 0.805752 0.971102
O O14 0.500000 0.638420 0.250000
O O15 0.250000 0.250000 0.000000
O O16 0.039151 0.169176 0.937260
#
# Coordination Sequence:
#
# PCOD9256799 Si02
#       8
#     8   8   4   8   8   8   8   8
#     4  11  21  36  57  83 123 145 195 224 296 369
#     4  10  18  30  49  83 120 150 193 227 277 357
#     4  10  22  42  66  80 114 142 212 254 288 330
#     4  11  18  31  55  80 120 146 195 240 291 328
#     4  11  19  30  51  85 119 155 180 230 291 347
#     4  10  18  29  50  81 117 155 185 233 283 342
#     4  10  21  38  59  86 102 144 201 250 293 318
#     4  10  22  40  59  85 108 154 189 245 294 344
#
# _framework density 20.550384999999999
#
# number of rings (size 3 to 8) (size 9 to 14) (size 15 to 20)
#    0.000    1.600    5.333    2.000    0.000    4.267 
#    1.200    0.000    0.000    0.000    0.000    7.467 
#    0.000    0.000    0.000    0.000    0.000    0.000 
#
# Total GULP energy -167302.353278 kJ/mol
# GULP energy per Si atom -5576.745109 kJ/mol
# Density = 2.050361 g / cm^3
# Si number density = 20.550385 Si / 1000 Ang^3
#
#
#
# Elastic Constant Matrix: (Units=GPa)
#
#
# Indices 1 2 3 4 5 6 
#
# 1 90.6309 3.2226 27.9929 -0.0002 -16.6212 -0.0001
# 2 3.2226 64.3529 30.1864 -0.0001 -7.8957 -0.0001
# 3 27.9929 30.1864 98.4371 -0.0003 -32.6842 -0.0002
# 4 -0.0002 -0.0001 -0.0003 29.0136 -0.0002 -3.4278
# 5 -16.6212 -7.8957 -32.6842 -0.0002 42.4447 -0.0001
# 6 -0.0001 -0.0001 -0.0002 -3.4278 -0.0001 15.1053
#
#
#
# Elastic Compliance Matrix: (Units=1/GPa)
#
#
# Indices 1 2 3 4 5 6 
#
# 1 0.012416 0.001100 -0.002937 0.000000 0.002805 0.000000
# 2 0.001100 0.018295 -0.006247 0.000000 -0.000977 0.000000
# 3 -0.002937 -0.006247 0.016313 0.000000 0.010249 0.000000
# 4 0.000000 0.000000 0.000000 0.035416 0.000000 0.008037
# 5 0.002805 -0.000977 0.010249 0.000000 0.032369 0.000000
# 6 0.000000 0.000000 0.000000 0.008037 0.000000 0.068026
#
#
# Mechanical properties :
#
#
# Convention : Reuss Voigt Hill
#
# Bulk Modulus (GPa) = 32.40891 41.80276 37.10584
# Shear Modulus (GPa) = 23.89047 30.11398 27.00223
#
# Velocity S-wave (km/s) = 3.41329 3.83217 3.62878
# Velocity P-wave (km/s) = 5.59810 6.32190 5.97098
#
# Compressibility (1/GPa) = 0.03085571
#
# Stress axis : x y z
#
# Youngs Moduli (GPa) = 80.54008 54.66016 61.30162
#
# Poissons Ratio (x) = -0.06012 0.18002
# Poissons Ratio (y) = -0.08859 0.38297
# Poissons Ratio (z) = 0.23652 0.34148
#
# Static dielectric constant tensor:
#      x y z
#    x 1.785020 0.000000 -0.015810 
#    y 0.000000 1.721710 0.000000 
#    z -0.015810 0.000000 1.833440 
# 
# From -- ./inp_files/244931.got.cif
#   From: 2010.05.17/outbox.cif.g08.bks.cpg/sg15_123_cif.got.tgz:244931.got - 2010.06.03 18:47:42.
