data_PCOD9256069
_publ_section_title
;
Structure prediction by ZEFSAII (Michael W. Deem and Ramdas Pophale) SiO2 
 PCOD9256069
Probable space group: C 2/C
;
_chemical_formula_sum "Si O2"
_cell_formula_units_Z 60
_cell_length_a 9.123621
_cell_length_b 17.725977
_cell_length_c 17.011176
_cell_angle_alpha 90.000000
_cell_angle_beta 105.955199
_cell_angle_gamma 90.000000
_cell_volume 2645.151941
_symmetry_space_group_name_H-M "C 2/C"
_symmetry_group_IT_number 15
_symmetry_cell_setting 'monoclinic'
loop_
_space_group_symop_operation_xyz
x,y,z
-x,y,1/2-z
-x,-y,-z
x,-y,1/2+z
1/2+x,1/2+y,z
1/2-x,1/2+y,1/2-z
1/2-x,1/2-y,-z
1/2+x,1/2-y,1/2+z
loop_
_atom_site_type_symbol
_atom_site_label
_atom_site_fract_x
_atom_site_fract_y
_atom_site_fract_z
Si Si1 0.772547 0.817942 0.835759
Si Si2 0.770014 0.049990 0.987829
Si Si3 0.425830 0.935890 0.634515
Si Si4 0.984049 0.665444 0.502510
Si Si5 0.703541 0.341834 0.352606
Si Si6 0.025464 0.834654 0.485233
Si Si7 0.500000 0.621490 0.250000
Si Si8 0.750508 0.001272 0.162407
O O1 0.650633 0.884520 0.810147
O O2 0.697964 0.737544 0.807675
O O3 0.923532 0.829459 0.806672
O O4 0.831367 0.825114 0.934493
O O5 0.929451 0.091535 0.995029
O O6 0.706433 0.993143 0.913337
O O7 0.652432 0.118961 0.979674
O O8 0.757489 0.004268 0.067976
O O9 0.475241 0.877734 0.572314
O O10 0.579465 0.984211 0.666912
O O11 0.130015 0.659259 0.580897
O O12 0.945125 0.752989 0.482043
O O13 0.582495 0.341785 0.404997
O O14 0.693941 0.418933 0.303224
O O15 0.364307 0.567678 0.202000
#
# Coordination Sequence:
#
# PCOD9256069 Si02
#       8
#     8   8   8   8   8   8   4   8
#     4  11  23  42  63  92 128 168 209 253 315 380
#     4  11  20  33  62 103 131 153 200 257 333 363
#     4  11  20  39  65  95 123 161 198 266 326 368
#     4  10  17  34  56  98 132 155 189 245 340 375
#     4  11  20  40  67  95 125 157 203 271 320 365
#     4  11  20  33  63 103 130 158 193 267 330 373
#     4  12  28  46  62  86 122 180 220 254 296 378
#     4  11  23  42  63  90 127 166 210 256 303 382
#
# _framework density 22.683007
#
# number of rings (size 3 to 8) (size 9 to 14) (size 15 to 20)
#    0.000    1.067    6.667    2.000    1.867    1.600 
#    0.000    2.667    0.000    0.000    0.000    0.000 
#    0.000    0.000    0.000    0.000    0.000    0.000 
#
# Total GULP energy -167768.550260 kJ/mol
# GULP energy per Si atom -5592.285009 kJ/mol
# Density = 2.263138 g / cm^3
# Si number density = 22.683007 Si / 1000 Ang^3
#
#
#
# Elastic Constant Matrix: (Units=GPa)
#
#
# Indices 1 2 3 4 5 6 
#
# 1 71.7837 30.4256 -4.0962 0.0000 -9.9617 0.0000
# 2 30.4256 160.0370 7.1535 0.0000 -12.3005 0.0000
# 3 -4.0962 7.1535 14.1500 0.0000 -4.7969 0.0000
# 4 0.0000 0.0000 0.0000 -123.8893 0.0000 -34.5081
# 5 -9.9617 -12.3005 -4.7969 0.0000 25.5595 0.0000
# 6 0.0000 0.0000 0.0000 -34.5081 0.0000 24.5877
#
#
#
# Elastic Compliance Matrix: (Units=1/GPa)
#
#
# Indices 1 2 3 4 5 6 
#
# 1 0.016629 -0.003036 0.008597 0.000000 0.006633 0.000000
# 2 -0.003036 0.007118 -0.003970 0.000000 0.001497 0.000000
# 3 0.008597 -0.003970 0.080796 0.000000 0.016604 0.000000
# 4 0.000000 0.000000 0.000000 -0.005803 0.000000 -0.008145
# 5 0.006633 0.001497 0.016604 0.000000 0.045546 0.000000
# 6 0.000000 0.000000 0.000000 -0.008145 0.000000 0.029240
#
#
# Mechanical properties :
#
#
# Convention : Reuss Voigt Hill
#
# Bulk Modulus (GPa) = 9.28282 34.77071 22.02676
# Shear Modulus (GPa) = 24.24224 -0.58257 11.82983
#
# Velocity S-wave (km/s) = 3.27271 -0.50734 2.28618
# Velocity P-wave (km/s) = 4.28743 3.87544 4.08663
#
# Compressibility (1/GPa) = 0.10772593
#
# Stress axis : x y z
#
# Youngs Moduli (GPa) = 60.13736 140.48403 12.37687
#
# Poissons Ratio (x) = 0.42648 -0.10641
# Poissons Ratio (y) = 0.18257 0.04913
# Poissons Ratio (z) = -0.51701 0.55769
#
# Static dielectric constant tensor:
#      x y z
#    x 1.824810 0.000000 0.017830 
#    y 0.000000 1.871090 0.000000 
#    z 0.017830 0.000000 1.850470 
# 
# From -- ./inp_files/190984.got.cif
#   From: 2010.05.17/outbox.cif.g08.bks.cpg/sg15_96_cif.got.tgz:190984.got - 2010.06.03 18:47:42.
