data_PCOD9256907
_publ_section_title
;
Structure prediction by ZEFSAII (Michael W. Deem and Ramdas Pophale) SiO2 
 PCOD9256907
Probable space group: C 2/C
;
_chemical_formula_sum "Si O2"
_cell_formula_units_Z 36
_cell_length_a 15.379667
_cell_length_b 13.033364
_cell_length_c 8.476932
_cell_angle_alpha 90.000000
_cell_angle_beta 81.181894
_cell_angle_gamma 90.000000
_cell_volume 1679.106374
_symmetry_space_group_name_H-M "C 2/C"
_symmetry_group_IT_number 15
_symmetry_cell_setting 'monoclinic'
loop_
_space_group_symop_operation_xyz
x,y,z
-x,y,1/2-z
-x,-y,-z
x,-y,1/2+z
1/2+x,1/2+y,z
1/2-x,1/2+y,1/2-z
1/2-x,1/2-y,-z
1/2+x,1/2-y,1/2+z
loop_
_atom_site_type_symbol
_atom_site_label
_atom_site_fract_x
_atom_site_fract_y
_atom_site_fract_z
Si Si1 0.294932 0.753104 0.237151
Si Si2 0.342124 0.633028 0.928221
Si Si3 0.563009 0.432550 0.591194
Si Si4 0.123744 0.713312 0.475653
Si Si5 0.500000 0.773746 0.750000
O O1 0.246743 0.832404 0.134279
O O2 0.216612 0.702076 0.361324
O O3 0.359877 0.808213 0.343600
O O4 0.335094 0.665903 0.113294
O O5 0.362522 0.515064 0.887555
O O6 0.422343 0.702500 0.840884
O O7 0.500000 0.398336 0.750000
O O8 0.500000 0.500000 0.500000
O O9 0.601485 0.335059 0.492306
O O10 0.046834 0.668924 0.384797
#
# Coordination Sequence:
#
# PCOD9256907 Si02
#       5
#     8   8   8   8   4
#     4   9  20  33  47  64 110 153 176 209 244 325
#     4  10  18  34  49  73 108 145 176 210 263 319
#     4  12  20  30  52  83 111 138 162 218 272 330
#     4  10  20  33  47  75 109 146 178 204 262 324
#     4  10  18  30  48  72 104 132 172 216 248 320
#
# _framework density 21.439976000000001
#
# number of rings (size 3 to 8) (size 9 to 14) (size 15 to 20)
#    0.000    1.778    3.333    2.667    0.000    0.000 
#    0.000    0.000    0.000    0.000    0.000    0.000 
#    0.000  401.778    0.000    0.000    0.000    0.000 
#
# Total GULP energy -100400.363602 kJ/mol
# GULP energy per Si atom -5577.797978 kJ/mol
# Density = 2.139118 g / cm^3
# Si number density = 21.439976 Si / 1000 Ang^3
#
#
#
# Elastic Constant Matrix: (Units=GPa)
#
#
# Indices 1 2 3 4 5 6 
#
# 1 98.8996 19.6039 48.9180 0.0000 34.4310 0.0000
# 2 19.6039 23.3239 9.2489 0.0000 -6.8229 0.0000
# 3 48.9180 9.2489 143.6253 0.0000 8.2536 0.0000
# 4 0.0000 0.0000 0.0000 19.7293 0.0000 3.3648
# 5 34.4310 -6.8229 8.2536 0.0000 60.7321 0.0000
# 6 0.0000 0.0000 0.0000 3.3648 0.0000 25.7220
#
#
#
# Elastic Compliance Matrix: (Units=1/GPa)
#
#
# Indices 1 2 3 4 5 6 
#
# 1 0.021392 -0.019905 -0.005220 0.000000 -0.013655 0.000000
# 2 -0.019905 0.064328 0.001586 0.000000 0.018296 0.000000
# 3 -0.005220 0.001586 0.008525 0.000000 0.001979 0.000000
# 4 0.000000 0.000000 0.000000 0.051843 0.000000 -0.006782
# 5 -0.013655 0.018296 0.001979 0.000000 0.025994 0.000000
# 6 0.000000 0.000000 0.000000 -0.006782 0.000000 0.039764
#
#
# Mechanical properties :
#
#
# Convention : Reuss Voigt Hill
#
# Bulk Modulus (GPa) = 21.20124 46.82116 34.01120
# Shear Modulus (GPa) = 18.20522 33.77522 25.99022
#
# Velocity S-wave (km/s) = 2.91714 3.97336 3.48549
# Velocity P-wave (km/s) = 4.61046 6.55254 5.66534
#
# Compressibility (1/GPa) = 0.04716705
#
# Stress axis : x y z
#
# Youngs Moduli (GPa) = 46.74543 15.54526 117.30871
#
# Poissons Ratio (x) = 0.30943 0.61231
# Poissons Ratio (y) = 0.93047 -0.18601
# Poissons Ratio (z) = 0.24399 -0.02465
#
# Static dielectric constant tensor:
#      x y z
#    x 1.864570 0.000000 0.090700 
#    y 0.000000 1.747950 0.000000 
#    z 0.090700 0.000000 1.877000 
# 
# From -- ./inp_files/37513.got.cif
#   From: 2010.05.17/outbox.cif.g08.bks.cpg/sg15_19_cif.got.tgz:37513.got - 2010.06.03 18:47:42.
