data_PCOD9256334
_publ_section_title
;
Structure prediction by ZEFSAII (Michael W. Deem and Ramdas Pophale) SiO2 
 PCOD9256334
Probable space group: C 2/C
;
_chemical_formula_sum "Si O2"
_cell_formula_units_Z 40
_cell_length_a 9.757161
_cell_length_b 12.559522
_cell_length_c 14.425369
_cell_angle_alpha 90.000000
_cell_angle_beta 64.799396
_cell_angle_gamma 90.000000
_cell_volume 1599.509912
_symmetry_space_group_name_H-M "C 2/C"
_symmetry_group_IT_number 15
_symmetry_cell_setting 'monoclinic'
loop_
_space_group_symop_operation_xyz
x,y,z
-x,y,1/2-z
-x,-y,-z
x,-y,1/2+z
1/2+x,1/2+y,z
1/2-x,1/2+y,1/2-z
1/2-x,1/2-y,-z
1/2+x,1/2-y,1/2+z
loop_
_atom_site_type_symbol
_atom_site_label
_atom_site_fract_x
_atom_site_fract_y
_atom_site_fract_z
Si Si1 0.816089 0.239684 0.632895
Si Si2 0.016110 0.633219 0.947109
Si Si3 0.500000 0.654156 0.250000
Si Si4 0.983562 0.877813 0.556745
Si Si5 0.177538 0.453460 0.566231
Si Si6 0.500000 0.790731 0.750000
O O1 0.612131 0.156391 0.437579
O O2 0.644079 0.269516 0.694286
O O3 0.901409 0.224765 0.705051
O O4 0.865611 0.148507 0.546429
O O5 0.933464 0.557455 0.897105
O O6 0.065760 0.753206 0.910241
O O7 0.149875 0.580083 0.967099
O O8 0.506094 0.583242 0.341180
O O9 0.856236 0.939041 0.535772
O O10 0.106763 0.367277 0.657687
#
# Coordination Sequence:
#
# PCOD9256334 Si02
#       6
#     8   8   4   8   8   4
#     4   9  21  36  58  93 127 166 234 273 345 415
#     4   8  20  34  57  92 127 164 222 284 340 406
#     4  12  20  37  62  87 130 182 220 286 342 411
#     4  10  21  35  61  91 126 179 229 277 336 424
#     4  10  17  36  60  89 130 171 221 283 346 402
#     4  10  18  33  64  91 112 186 220 268 364 411
#
# _framework density 25.007660000000001
#
# number of rings (size 3 to 8) (size 9 to 14) (size 15 to 20)
#    1.200    1.200    2.000    1.200    0.000    0.800 
#    0.000    1.000    0.000    1.200    0.000    0.000 
#    0.000    0.000    0.000    0.000    0.000    0.000 
#
# Total GULP energy -111485.218855 kJ/mol
# GULP energy per Si atom -5574.260943 kJ/mol
# Density = 2.495074 g / cm^3
# Si number density = 25.007660 Si / 1000 Ang^3
#
#
#
# Elastic Constant Matrix: (Units=GPa)
#
#
# Indices 1 2 3 4 5 6 
#
# 1 183.8346 4.4802 70.3521 0.0000 12.2912 0.0000
# 2 4.4802 69.9769 13.0983 0.0000 21.9534 0.0000
# 3 70.3521 13.0983 126.6387 0.0000 14.0540 0.0000
# 4 0.0000 0.0000 0.0000 11.4875 0.0000 7.3292
# 5 12.2912 21.9534 14.0540 0.0000 44.7514 0.0000
# 6 0.0000 0.0000 0.0000 7.3292 0.0000 27.2064
#
#
#
# Elastic Compliance Matrix: (Units=1/GPa)
#
#
# Indices 1 2 3 4 5 6 
#
# 1 0.006951 0.000581 -0.003811 0.000000 -0.000997 0.000000
# 2 0.000581 0.017029 -0.001181 0.000000 -0.008143 0.000000
# 3 -0.003811 -0.001181 0.010315 0.000000 -0.001614 0.000000
# 4 0.000000 0.000000 0.000000 0.105119 0.000000 -0.028318
# 5 -0.000997 -0.008143 -0.001614 0.000000 0.027121 0.000000
# 6 0.000000 0.000000 0.000000 -0.028318 0.000000 0.044385
#
#
# Mechanical properties :
#
#
# Convention : Reuss Voigt Hill
#
# Bulk Modulus (GPa) = 39.25602 61.81237 50.53419
# Shear Modulus (GPa) = 21.90778 36.19037 29.04908
#
# Velocity S-wave (km/s) = 2.96301 3.80830 3.41193
# Velocity P-wave (km/s) = 5.23809 6.64143 5.98106
#
# Compressibility (1/GPa) = 0.02547380
#
# Stress axis : x y z
#
# Youngs Moduli (GPa) = 143.87442 58.72440 96.94995
#
# Poissons Ratio (x) = -0.03413 0.36944
# Poissons Ratio (y) = -0.08362 0.11445
# Poissons Ratio (z) = 0.54826 0.06933
#
# Static dielectric constant tensor:
#      x y z
#    x 2.061770 0.000000 -0.017100 
#    y 0.000000 2.047420 0.000000 
#    z -0.017100 0.000000 2.033920 
# 
# From -- ./inp_files/133857.got.cif
#   From: 2010.05.17/outbox.cif.g08.bks.cpg/sg15_67_cif.got.tgz:133857.got - 2010.06.03 18:47:42.
