data_PCOD9256406
_publ_section_title
;
Structure prediction by ZEFSAII (Michael W. Deem and Ramdas Pophale) SiO2 
 PCOD9256406
Probable space group: C 2/C
;
_chemical_formula_sum "Si O2"
_cell_formula_units_Z 48
_cell_length_a 19.737283
_cell_length_b 14.258866
_cell_length_c 13.762836
_cell_angle_alpha 90.000000
_cell_angle_beta 30.599906
_cell_angle_gamma 90.000000
_cell_volume 1971.660809
_symmetry_space_group_name_H-M "C 2/C"
_symmetry_group_IT_number 15
_symmetry_cell_setting 'monoclinic'
loop_
_space_group_symop_operation_xyz
x,y,z
-x,y,1/2-z
-x,-y,-z
x,-y,1/2+z
1/2+x,1/2+y,z
1/2-x,1/2+y,1/2-z
1/2-x,1/2-y,-z
1/2+x,1/2-y,1/2+z
loop_
_atom_site_type_symbol
_atom_site_label
_atom_site_fract_x
_atom_site_fract_y
_atom_site_fract_z
Si Si1 0.963596 0.105146 0.518830
Si Si2 0.285628 0.411727 0.067903
Si Si3 0.847586 0.539497 0.952144
Si Si4 0.428116 0.214469 0.553885
Si Si5 0.130970 0.433934 0.851083
Si Si6 0.283700 0.827784 0.040233
O O1 0.919048 0.110821 0.461142
O O2 0.844072 0.138025 0.738682
O O3 0.074397 0.180824 0.405305
O O4 0.000000 0.000000 0.500000
O O5 0.255640 0.408901 0.991228
O O6 0.177076 0.345734 0.254633
O O7 0.246460 0.518369 0.146567
O O8 0.000000 0.572322 0.750000
O O9 0.824171 0.555564 0.093915
O O10 0.842219 0.428343 0.934006
O O11 0.572591 0.166704 0.394860
O O12 0.388022 0.210887 0.490952
O O13 0.000000 0.500000 0.000000
O O14 0.250000 0.750000 0.000000
#
# Coordination Sequence:
#
# PCOD9256406 Si02
#       6
#     8   8   8   8   8   8
#     4  11  26  46  64  93 143 191 218 281 361 412
#     4  10  22  40  65 100 127 180 225 280 348 409
#     4  12  20  38  72  98 134 168 228 290 342 405
#     4  10  21  42  65  93 131 180 227 279 343 414
#     4  10  17  37  64  95 130 163 225 281 339 403
#     4  11  26  40  66 110 133 172 235 289 349 413
#
# _framework density 24.344957999999998
#
# number of rings (size 3 to 8) (size 9 to 14) (size 15 to 20)
#    0.000    1.333    8.333    0.000    7.000    1.333 
#    0.000    0.833    3.667    0.000    0.000    0.000 
#    0.000    0.000    0.000    0.000    0.000    0.000 
#
# Total GULP energy -134273.252039 kJ/mol
# GULP energy per Si atom -5594.718835 kJ/mol
# Density = 2.428955 g / cm^3
# Si number density = 24.344958 Si / 1000 Ang^3
#
#
#
# Elastic Constant Matrix: (Units=GPa)
#
#
# Indices 1 2 3 4 5 6 
#
# 1 238.9424 67.6161 19.1008 0.0000 25.2777 0.0000
# 2 67.6161 145.8640 9.8304 0.0000 -9.1231 0.0000
# 3 19.1008 9.8304 34.9377 0.0000 0.5426 0.0000
# 4 0.0000 0.0000 0.0000 15.5333 0.0000 -0.6235
# 5 25.2777 -9.1231 0.5426 0.0000 24.9030 0.0000
# 6 0.0000 0.0000 0.0000 -0.6235 0.0000 49.3582
#
#
#
# Elastic Compliance Matrix: (Units=1/GPa)
#
#
# Indices 1 2 3 4 5 6 
#
# 1 0.005996 -0.003072 -0.002302 0.000000 -0.007162 0.000000
# 2 -0.003072 0.008735 -0.000877 0.000000 0.006338 0.000000
# 3 -0.002302 -0.000877 0.030107 0.000000 0.001360 0.000000
# 4 0.000000 0.000000 0.000000 0.064411 0.000000 0.000814
# 5 -0.007162 0.006338 0.001360 0.000000 0.049718 0.000000
# 6 0.000000 0.000000 0.000000 0.000814 0.000000 0.020270
#
#
# Mechanical properties :
#
#
# Convention : Reuss Voigt Hill
#
# Bulk Modulus (GPa) = 30.92588 68.09318 49.50953
# Shear Modulus (GPa) = 24.68915 39.50535 32.09725
#
# Velocity S-wave (km/s) = 3.18801 4.03269 3.63497
# Velocity P-wave (km/s) = 5.12659 7.05083 6.16426
#
# Compressibility (1/GPa) = 0.03233538
#
# Stress axis : x y z
#
# Youngs Moduli (GPa) = 166.77146 114.47684 33.21518
#
# Poissons Ratio (x) = 0.35171 0.07648
# Poissons Ratio (y) = 0.51238 0.02912
# Poissons Ratio (z) = 0.38399 0.10035
#
# Static dielectric constant tensor:
#      x y z
#    x 1.959330 0.000000 0.001250 
#    y 0.000000 2.093550 0.000000 
#    z 0.001250 0.000000 2.051000 
# 
# From -- ./inp_files/162138.got.cif
#   From: 2010.05.17/outbox.cif.g08.bks.cpg/sg15_82_cif.got.tgz:162138.got - 2010.06.03 18:47:42.
