data_PCOD9256540
_publ_section_title
;
Structure prediction by ZEFSAII (Michael W. Deem and Ramdas Pophale) SiO2 
 PCOD9256540
Probable space group: C 2/C
;
_chemical_formula_sum "Si O2"
_cell_formula_units_Z 56
_cell_length_a 12.387423
_cell_length_b 16.509147
_cell_length_c 13.826743
_cell_angle_alpha 90.000000
_cell_angle_beta 130.646379
_cell_angle_gamma 90.000000
_cell_volume 2145.462473
_symmetry_space_group_name_H-M "C 2/C"
_symmetry_group_IT_number 15
_symmetry_cell_setting 'monoclinic'
loop_
_space_group_symop_operation_xyz
x,y,z
-x,y,1/2-z
-x,-y,-z
x,-y,1/2+z
1/2+x,1/2+y,z
1/2-x,1/2+y,1/2-z
1/2-x,1/2-y,-z
1/2+x,1/2-y,1/2+z
loop_
_atom_site_type_symbol
_atom_site_label
_atom_site_fract_x
_atom_site_fract_y
_atom_site_fract_z
Si Si1 0.668564 0.175662 0.766266
Si Si2 0.312446 0.348271 0.145394
Si Si3 0.155776 0.963077 0.817009
Si Si4 0.777240 0.035160 0.939559
Si Si5 0.454889 0.192326 0.124131
Si Si6 0.596535 0.397978 0.585234
Si Si7 0.570707 0.237974 0.001954
O O1 0.764673 0.180982 0.724307
O O2 0.674140 0.083496 0.808767
O O3 0.507838 0.199076 0.638214
O O4 0.768241 0.225677 0.902035
O O5 0.361309 0.439766 0.196546
O O6 0.400714 0.281831 0.132794
O O7 0.170811 0.352650 0.001684
O O8 0.184174 0.924386 0.730942
O O9 0.000000 0.927695 0.750000
O O10 0.252017 0.944881 0.965695
O O11 0.814293 0.940926 0.946086
O O12 0.935950 0.067675 0.004320
O O13 0.500000 0.151170 0.250000
O O14 0.566312 0.191197 0.101376
O O15 0.553672 0.305702 0.549953
#
# Coordination Sequence:
#
# PCOD9256540 Si02
#       7
#     8   8   8   8   8   8   8
#     4  10  19  33  50  73 101 132 163 203 249 296
#     4  10  18  27  45  69  99 127 154 200 253 299
#     4  10  18  28  48  72  98 124 161 210 251 286
#     4   9  17  29  48  71  98 129 165 205 253 290
#     4  10  18  28  43  68  97 131 161 190 245 309
#     4   9  17  30  46  72  99 129 164 209 249 289
#     4  10  20  32  50  71 103 131 166 205 247 294
#
# _framework density 26.101600000000001
#
# number of rings (size 3 to 8) (size 9 to 14) (size 15 to 20)
#    0.000    2.286    2.857    1.286    2.000    0.000 
#    0.000    0.714    0.000    2.571    0.000    0.000 
#    0.000    0.000    0.000    0.000    0.000    0.000 
#
# Total GULP energy -155934.092699 kJ/mol
# GULP energy per Si atom -5569.074739 kJ/mol
# Density = 2.604219 g / cm^3
# Si number density = 26.101600 Si / 1000 Ang^3
#
#
#
# Elastic Constant Matrix: (Units=GPa)
#
#
# Indices 1 2 3 4 5 6 
#
# 1 53.9535 20.1720 28.5331 0.0000 5.3895 0.0000
# 2 20.1720 44.7966 31.3352 0.0000 13.1184 0.0000
# 3 28.5331 31.3352 177.3963 0.0000 1.0117 0.0000
# 4 0.0000 0.0000 0.0000 188.7964 0.0000 70.0998
# 5 5.3895 13.1184 1.0117 0.0000 34.0976 0.0000
# 6 0.0000 0.0000 0.0000 70.0998 0.0000 42.1710
#
#
#
# Elastic Compliance Matrix: (Units=1/GPa)
#
#
# Indices 1 2 3 4 5 6 
#
# 1 0.022973 -0.008793 -0.002141 0.000000 -0.000185 0.000000
# 2 -0.008793 0.032478 -0.004260 0.000000 -0.010979 0.000000
# 3 -0.002141 -0.004260 0.006724 0.000000 0.001778 0.000000
# 4 0.000000 0.000000 0.000000 0.013837 0.000000 -0.023001
# 5 -0.000185 -0.010979 0.001778 0.000000 0.033528 0.000000
# 6 0.000000 0.000000 0.000000 -0.023001 0.000000 0.061946
#
#
# Mechanical properties :
#
#
# Convention : Reuss Voigt Hill
#
# Bulk Modulus (GPa) = 31.45996 48.46965 39.96481
# Shear Modulus (GPa) = 23.53299 66.08673 44.80986
#
# Velocity S-wave (km/s) = 3.00591 5.03726 4.14786
# Velocity P-wave (km/s) = 4.91186 7.24168 6.18742
#
# Compressibility (1/GPa) = 0.03178644
#
# Stress axis : x y z
#
# Youngs Moduli (GPa) = 43.53019 30.79050 148.72664
#
# Poissons Ratio (x) = 0.27074 0.31838
# Poissons Ratio (y) = 0.38276 0.63356
# Poissons Ratio (z) = 0.09319 0.13116
#
# Static dielectric constant tensor:
#      x y z
#    x 2.032000 0.000000 -0.029810 
#    y 0.000000 2.187180 0.000000 
#    z -0.029810 0.000000 2.143490 
# 
# From -- ./inp_files/106350.got.cif
#   From: 2010.05.17/outbox.cif.g08.bks.cpg/sg15_54_cif.got.tgz:106350.got - 2010.06.03 18:47:42.
