data_PCOD9256681
_publ_section_title
;
Structure prediction by ZEFSAII (Michael W. Deem and Ramdas Pophale) SiO2 
 PCOD9256681
Probable space group: C 2/C
;
_chemical_formula_sum "Si O2"
_cell_formula_units_Z 60
_cell_length_a 16.525231
_cell_length_b 10.557174
_cell_length_c 20.049785
_cell_angle_alpha 90.000000
_cell_angle_beta 135.424057
_cell_angle_gamma 90.000000
_cell_volume 2455.001356
_symmetry_space_group_name_H-M "C 2/C"
_symmetry_group_IT_number 15
_symmetry_cell_setting 'monoclinic'
loop_
_space_group_symop_operation_xyz
x,y,z
-x,y,1/2-z
-x,-y,-z
x,-y,1/2+z
1/2+x,1/2+y,z
1/2-x,1/2+y,1/2-z
1/2-x,1/2-y,-z
1/2+x,1/2-y,1/2+z
loop_
_atom_site_type_symbol
_atom_site_label
_atom_site_fract_x
_atom_site_fract_y
_atom_site_fract_z
Si Si1 0.421776 0.047931 0.038944
Si Si2 0.500000 0.533571 0.250000
Si Si3 0.669181 0.746894 0.359022
Si Si4 0.502093 0.486756 0.606491
Si Si5 0.651177 0.117771 0.119328
Si Si6 0.763996 0.975224 0.299246
Si Si7 0.070722 0.698866 0.663167
Si Si8 0.266224 0.994501 0.565945
O O1 0.491860 0.919100 0.097604
O O2 0.341963 0.080691 0.055581
O O3 0.524007 0.141022 0.074788
O O4 0.354727 0.004714 0.933445
O O5 0.610266 0.614544 0.342470
O O6 0.461859 0.471667 0.296590
O O7 0.789782 0.721034 0.392708
O O8 0.580426 0.787893 0.248627
O O9 0.696655 0.858383 0.425782
O O10 0.599711 0.544483 0.616321
O O11 0.523391 0.333818 0.611483
O O12 0.370236 0.524898 0.519768
O O13 0.735359 0.085549 0.229768
O O14 0.698955 0.856294 0.227221
O O15 0.712587 0.014103 0.341501
#
# Coordination Sequence:
#
# PCOD9256681 Si02
#       8
#     8   4   8   8   8   8   8   8
#     4  10  21  34  53  89 114 152 187 237 286 356
#     4  10  18  28  54  78 110 148 182 222 290 348
#     4  10  18  32  52  85 114 151 180 233 292 348
#     4  11  20  34  53  83 114 149 182 235 287 342
#     4  10  19  35  54  76 123 153 188 219 293 360
#     4  10  21  36  53  83 114 151 189 230 288 348
#     4   9  19  33  55  81 113 145 182 230 278 344
#     4  11  22  33  56  86 119 143 192 244 294 337
#
# _framework density 24.439906000000001
#
# number of rings (size 3 to 8) (size 9 to 14) (size 15 to 20)
#    0.000    1.867    2.667    3.600    0.000    5.867 
#    0.000    0.000    0.000    0.000    6.933   13.067 
#    0.000    0.000    0.000    0.000    0.000    0.000 
#
# Total GULP energy -167210.463483 kJ/mol
# GULP energy per Si atom -5573.682116 kJ/mol
# Density = 2.438428 g / cm^3
# Si number density = 24.439906 Si / 1000 Ang^3
#
#
#
# Elastic Constant Matrix: (Units=GPa)
#
#
# Indices 1 2 3 4 5 6 
#
# 1 174.8596 16.3004 29.3408 0.0000 7.7930 0.0000
# 2 16.3004 25.3423 0.3647 0.0000 5.9484 0.0000
# 3 29.3408 0.3647 87.3669 0.0000 6.1753 0.0000
# 4 0.0000 0.0000 0.0000 23.8081 0.0000 4.9807
# 5 7.7930 5.9484 6.1753 0.0000 40.2581 0.0000
# 6 0.0000 0.0000 0.0000 4.9807 0.0000 36.2123
#
#
#
# Elastic Compliance Matrix: (Units=1/GPa)
#
#
# Indices 1 2 3 4 5 6 
#
# 1 0.006469 -0.004054 -0.002133 0.000000 -0.000326 0.000000
# 2 -0.004054 0.043423 0.001595 0.000000 -0.005876 0.000000
# 3 -0.002133 0.001595 0.012276 0.000000 -0.001706 0.000000
# 4 0.000000 0.000000 0.000000 0.043247 0.000000 -0.005948
# 5 -0.000326 -0.005876 -0.001706 0.000000 0.026033 0.000000
# 6 0.000000 0.000000 0.000000 -0.005948 0.000000 0.028433
#
#
# Mechanical properties :
#
#
# Convention : Reuss Voigt Hill
#
# Bulk Modulus (GPa) = 18.87262 42.17564 30.52413
# Shear Modulus (GPa) = 26.77731 36.15991 31.46861
#
# Velocity S-wave (km/s) = 3.31363 3.85066 3.59220
# Velocity P-wave (km/s) = 4.73065 6.08805 5.45176
#
# Compressibility (1/GPa) = 0.05298682
#
# Stress axis : x y z
#
# Youngs Moduli (GPa) = 154.58008 23.02909 81.45913
#
# Poissons Ratio (x) = 0.09335 0.17372
# Poissons Ratio (y) = 0.62663 -0.12996
# Poissons Ratio (z) = 0.32965 -0.03674
#
# Static dielectric constant tensor:
#      x y z
#    x 2.071630 0.000000 0.020080 
#    y 0.000000 2.055490 0.000000 
#    z 0.020080 0.000000 1.997350 
# 
# From -- ./inp_files/244368.got.cif
#   From: 2010.05.17/outbox.cif.g08.bks.cpg/sg15_123_cif.got.tgz:244368.got - 2010.06.03 18:47:42.
