data_PCOD9256318
_publ_section_title
;
Structure prediction by ZEFSAII (Michael W. Deem and Ramdas Pophale) SiO2 
 PCOD9256318
Probable space group: C 2/C
;
_chemical_formula_sum "Si O2"
_cell_formula_units_Z 52
_cell_length_a 8.871963
_cell_length_b 16.742567
_cell_length_c 29.875905
_cell_angle_alpha 90.000000
_cell_angle_beta 151.157654
_cell_angle_gamma 90.000000
_cell_volume 2140.775951
_symmetry_space_group_name_H-M "C 2/C"
_symmetry_group_IT_number 15
_symmetry_cell_setting 'monoclinic'
loop_
_space_group_symop_operation_xyz
x,y,z
-x,y,1/2-z
-x,-y,-z
x,-y,1/2+z
1/2+x,1/2+y,z
1/2-x,1/2+y,1/2-z
1/2-x,1/2-y,-z
1/2+x,1/2-y,1/2+z
loop_
_atom_site_type_symbol
_atom_site_label
_atom_site_fract_x
_atom_site_fract_y
_atom_site_fract_z
Si Si1 0.686008 0.552662 0.366905
Si Si2 0.368452 0.959565 0.262840
Si Si3 0.394826 0.692853 0.629093
Si Si4 0.681548 0.913647 0.499660
Si Si5 0.276230 0.229137 0.358554
Si Si6 0.323026 0.141316 0.592227
Si Si7 0.500000 0.705027 0.750000
O O1 0.350356 0.518395 0.265843
O O2 0.962027 0.489376 0.430539
O O3 0.768770 0.636935 0.368043
O O4 0.642962 0.561781 0.409687
O O5 0.500000 0.988667 0.250000
O O6 0.659490 0.930568 0.368146
O O7 0.138735 0.882659 0.192757
O O8 0.054566 0.655524 0.545129
O O9 0.429517 0.741634 0.593206
O O10 0.473960 0.744362 0.694432
O O11 0.848553 0.880211 0.498542
O O12 0.000000 0.244935 0.250000
O O13 0.242163 0.281859 0.394318
O O14 0.685248 0.153124 0.670741
#
# Coordination Sequence:
#
# PCOD9256318 Si02
#       7
#     8   8   8   8   8   8   4
#     4  10  24  37  59  87 127 148 200 250 299 343
#     4  10  17  36  59  85 113 160 193 244 292 360
#     4   9  16  33  62  82 114 153 201 233 292 357
#     4   9  21  42  60  83 116 172 194 228 299 383
#     4  12  21  35  57  95 115 145 198 269 289 331
#     4  10  18  34  63  83 110 158 205 230 299 354
#     4   8  14  28  50  86 106 142 188 238 270 346
#
# _framework density 24.290258000000001
#
# number of rings (size 3 to 8) (size 9 to 14) (size 15 to 20)
#    0.000    2.154    4.615    0.923    2.154    1.231 
#    1.385    0.769    0.000    0.000    0.000    0.000 
#    0.000    0.000    0.000    0.000    0.000    0.000 
#
# Total GULP energy -145212.466245 kJ/mol
# GULP energy per Si atom -5585.094856 kJ/mol
# Density = 2.423497 g / cm^3
# Si number density = 24.290258 Si / 1000 Ang^3
#
#
#
# Elastic Constant Matrix: (Units=GPa)
#
#
# Indices 1 2 3 4 5 6 
#
# 1 114.8502 57.2509 9.5155 0.0007 -26.3303 0.0004
# 2 57.2509 125.1213 13.3895 0.0024 -17.6386 0.0011
# 3 9.5155 13.3895 46.3317 0.0041 -9.7043 0.0028
# 4 0.0007 0.0024 0.0041 20.8202 -0.0001 -16.3986
# 5 -26.3303 -17.6386 -9.7043 -0.0001 26.2750 0.0000
# 6 0.0004 0.0011 0.0028 -16.3986 0.0000 8.9808
#
#
#
# Elastic Compliance Matrix: (Units=1/GPa)
#
#
# Indices 1 2 3 4 5 6 
#
# 1 0.013427 -0.004741 0.000828 0.000001 0.010578 0.000001
# 2 -0.004741 0.010589 -0.001726 0.000003 0.001720 0.000004
# 3 0.000828 -0.001726 0.023675 0.000023 0.008415 0.000035
# 4 0.000001 0.000003 0.000023 -0.109612 0.000011 -0.200148
# 5 0.010578 0.001720 0.008415 0.000011 0.052922 0.000016
# 6 0.000001 0.000004 0.000035 -0.200148 0.000016 -0.254115
#
#
# Mechanical properties :
#
#
# Convention : Reuss Voigt Hill
#
# Bulk Modulus (GPa) = 27.46314 49.62389 38.54351
# Shear Modulus (GPa) = -20.85948 24.95836 2.04944
#
# Velocity S-wave (km/s) = -2.93364 3.20895 0.91954
# Velocity P-wave (km/s) = 0.37973 5.84839 4.12671
#
# Compressibility (1/GPa) = 0.03641244
#
# Stress axis : x y z
#
# Youngs Moduli (GPa) = 74.47758 94.44011 42.23899
#
# Poissons Ratio (x) = 0.44774 -0.03498
# Poissons Ratio (y) = 0.35310 0.07291
# Poissons Ratio (z) = -0.06168 0.16302
#
# Static dielectric constant tensor:
#      x y z
#    x 1.979940 0.000000 -0.041450 
#    y 0.000000 1.910450 0.000000 
#    z -0.041450 0.000000 2.043610 
# 
# From -- ./inp_files/190327.got.cif
#   From: 2010.05.17/outbox.cif.g08.bks.cpg/sg15_96_cif.got.tgz:190327.got - 2010.06.03 18:47:42.
