data_PCOD9256660
_publ_section_title
;
Structure prediction by ZEFSAII (Michael W. Deem and Ramdas Pophale) SiO2 
 PCOD9256660
Probable space group: C 2/C
;
_chemical_formula_sum "Si O2"
_cell_formula_units_Z 48
_cell_length_a 13.693398
_cell_length_b 19.756987
_cell_length_c 12.045181
_cell_angle_alpha 90.000000
_cell_angle_beta 145.449085
_cell_angle_gamma 90.000000
_cell_volume 1848.137583
_symmetry_space_group_name_H-M "C 2/C"
_symmetry_group_IT_number 15
_symmetry_cell_setting 'monoclinic'
loop_
_space_group_symop_operation_xyz
x,y,z
-x,y,1/2-z
-x,-y,-z
x,-y,1/2+z
1/2+x,1/2+y,z
1/2-x,1/2+y,1/2-z
1/2-x,1/2-y,-z
1/2+x,1/2-y,1/2+z
loop_
_atom_site_type_symbol
_atom_site_label
_atom_site_fract_x
_atom_site_fract_y
_atom_site_fract_z
Si Si1 0.451655 0.718961 0.959524
Si Si2 0.500000 0.678925 0.250000
Si Si3 0.268127 0.075885 0.576201
Si Si4 0.277615 0.948423 0.443658
Si Si5 0.176582 0.820509 0.480422
Si Si6 0.414451 0.856031 0.406333
Si Si7 0.000000 0.000000 0.500000
O O1 0.488267 0.719132 0.124825
O O2 0.458288 0.797796 0.933903
O O3 0.606775 0.682329 0.040552
O O4 0.273987 0.681524 0.765271
O O5 0.665796 0.630958 0.407921
O O6 0.413229 0.114798 0.782182
O O7 0.321486 0.015558 0.548465
O O8 0.129224 0.043657 0.535193
O O9 0.269497 0.887844 0.526654
O O10 0.416949 0.920087 0.488126
O O11 0.107429 0.966656 0.209842
O O12 0.250000 0.750000 0.500000
O O13 0.000000 0.826094 0.250000
#
# Coordination Sequence:
#
# PCOD9256660 Si02
#       7
#     8   4   8   8   8   8   4
#     4  11  22  40  56  92 127 164 211 248 313 380
#     4  10  22  34  62  86 126 164 202 254 316 358
#     4  10  20  31  52  89 119 158 198 257 311 356
#     4  11  20  33  57  90 125 155 200 264 315 359
#     4  12  22  36  60  93 125 165 203 256 319 370
#     4  10  23  38  61  92 126 162 205 253 319 371
#     4  10  18  28  50  80 130 148 186 254 316 358
#
# _framework density 25.972093000000001
#
# number of rings (size 3 to 8) (size 9 to 14) (size 15 to 20)
#    0.000    1.333    5.000    1.000    4.667    2.667 
#    0.000    0.000    0.000    0.000    6.500   11.667 
#    0.000    0.000    0.000    0.000    0.000    0.000 
#
# Total GULP energy -133818.340352 kJ/mol
# GULP energy per Si atom -5575.764181 kJ/mol
# Density = 2.591298 g / cm^3
# Si number density = 25.972093 Si / 1000 Ang^3
#
#
#
# Elastic Constant Matrix: (Units=GPa)
#
#
# Indices 1 2 3 4 5 6 
#
# 1 79.1992 23.0666 32.9724 0.0000 -16.0784 0.0000
# 2 23.0666 115.3980 8.5989 0.0000 4.2834 0.0000
# 3 32.9724 8.5989 68.3796 0.0000 3.4808 0.0000
# 4 0.0000 0.0000 0.0000 43.7108 0.0000 -8.4859
# 5 -16.0784 4.2834 3.4808 0.0000 27.1880 0.0000
# 6 0.0000 0.0000 0.0000 -8.4859 0.0000 40.9214
#
#
#
# Elastic Compliance Matrix: (Units=1/GPa)
#
#
# Indices 1 2 3 4 5 6 
#
# 1 0.021016 -0.003962 -0.010368 0.000000 0.014380 0.000000
# 2 -0.003962 0.009537 0.000913 0.000000 -0.003962 0.000000
# 3 -0.010368 0.000913 0.019958 0.000000 -0.008830 0.000000
# 4 0.000000 0.000000 0.000000 0.023837 0.000000 0.004943
# 5 0.014380 -0.003962 -0.008830 0.000000 0.047040 0.000000
# 6 0.000000 0.000000 0.000000 0.004943 0.000000 0.025462
#
#
# Mechanical properties :
#
#
# Convention : Reuss Voigt Hill
#
# Bulk Modulus (GPa) = 42.23443 43.58363 42.90903
# Shear Modulus (GPa) = 27.53680 35.58664 31.56172
#
# Velocity S-wave (km/s) = 3.25967 3.70562 3.48978
# Velocity P-wave (km/s) = 5.51943 5.92674 5.72670
#
# Compressibility (1/GPa) = 0.02367737
#
# Stress axis : x y z
#
# Youngs Moduli (GPa) = 47.58321 104.85844 50.10495
#
# Poissons Ratio (x) = 0.41545 0.51946
# Poissons Ratio (y) = 0.18853 -0.04574
# Poissons Ratio (z) = 0.49332 -0.09573
#
# Static dielectric constant tensor:
#      x y z
#    x 1.203170 0.000000 -0.022690 
#    y 0.000000 1.941970 0.000000 
#    z -0.022690 0.000000 2.041320 
# 
# From -- ./inp_files/89823.got.cif
#   From: 2010.05.17/outbox.cif.g08.bks.cpg/sg15_45_cif.got.tgz:89823.got - 2010.06.03 18:47:42.
