data_PCOD9256686
_publ_section_title
;
Structure prediction by ZEFSAII (Michael W. Deem and Ramdas Pophale) SiO2 
 PCOD9256686
Probable space group: C 2/C
;
_chemical_formula_sum "Si O2"
_cell_formula_units_Z 56
_cell_length_a 29.853773
_cell_length_b 8.130521
_cell_length_c 29.538769
_cell_angle_alpha 90.000000
_cell_angle_beta 17.614531
_cell_angle_gamma 90.000000
_cell_volume 2169.679572
_symmetry_space_group_name_H-M "C 2/C"
_symmetry_group_IT_number 15
_symmetry_cell_setting 'monoclinic'
loop_
_space_group_symop_operation_xyz
x,y,z
-x,y,1/2-z
-x,-y,-z
x,-y,1/2+z
1/2+x,1/2+y,z
1/2-x,1/2+y,1/2-z
1/2-x,1/2-y,-z
1/2+x,1/2-y,1/2+z
loop_
_atom_site_type_symbol
_atom_site_label
_atom_site_fract_x
_atom_site_fract_y
_atom_site_fract_z
Si Si1 0.418833 0.113149 0.280125
Si Si2 0.347024 0.502097 0.915032
Si Si3 0.377876 0.228646 0.658427
Si Si4 0.173386 0.405999 0.916081
Si Si5 0.220340 0.103410 0.337020
Si Si6 0.517613 0.759283 0.593214
Si Si7 0.624131 0.164714 0.561088
O O1 0.500000 0.113291 0.250000
O O2 0.465313 0.235832 0.195613
O O3 0.248340 0.113794 0.459123
O O4 0.469213 0.934885 0.211478
O O5 0.500000 0.571894 0.750000
O O6 0.386716 0.333345 0.901942
O O7 0.242783 0.449220 0.973350
O O8 0.539230 0.159198 0.514200
O O9 0.359740 0.296224 0.625634
O O10 0.322668 0.373074 0.745074
O O11 0.268179 0.075285 0.773614
O O12 0.130676 0.588725 0.973827
O O13 0.174343 0.306922 0.961870
O O14 0.371453 0.194632 0.205722
O O15 0.108178 0.104747 0.487410
#
# Coordination Sequence:
#
# PCOD9256686 Si02
#       7
#     8   8   8   8   8   8   8
#     4   9  19  38  59  88 129 172 212 266 323 377
#     4  10  18  28  55  90 128 171 209 262 314 378
#     4  11  24  41  65  98 130 171 214 272 321 393
#     4  10  23  38  62  96 133 169 209 265 323 383
#     4  11  24  43  68  94 129 168 220 268 331 384
#     4  10  23  44  66  92 128 173 216 271 321 389
#     4   9  18  31  52  87 134 170 206 255 318 374
#
# _framework density 25.810262000000002
#
# number of rings (size 3 to 8) (size 9 to 14) (size 15 to 20)
#    0.000    2.000    0.000    3.857    8.000    5.714 
#    0.000    5.000    0.000    0.000    0.000    0.000 
#    0.000    0.000    0.000    0.000    0.000    0.000 
#
# Total GULP energy -156959.220393 kJ/mol
# GULP energy per Si atom -5605.686443 kJ/mol
# Density = 2.575152 g / cm^3
# Si number density = 25.810262 Si / 1000 Ang^3
#
#
#
# Elastic Constant Matrix: (Units=GPa)
#
#
# Indices 1 2 3 4 5 6 
#
# 1 86.5258 5.6604 1.8775 -0.0037 17.6481 0.0022
# 2 5.6604 52.2648 30.5557 -0.0875 -2.3080 0.0579
# 3 1.8775 30.5557 131.2733 0.0162 17.8594 0.0136
# 4 -0.0037 -0.0875 0.0162 30.1551 -0.0011 2.8976
# 5 17.6481 -2.3080 17.8594 -0.0011 34.3986 -0.0004
# 6 0.0022 0.0579 0.0136 2.8976 -0.0004 14.7553
#
#
#
# Elastic Compliance Matrix: (Units=1/GPa)
#
#
# Indices 1 2 3 4 5 6 
#
# 1 0.013281 -0.002648 0.001482 -0.000008 -0.007761 0.000008
# 2 -0.002648 0.023336 -0.006232 0.000081 0.006160 -0.000101
# 3 0.001482 -0.006232 0.009907 -0.000025 -0.006322 0.000020
# 4 -0.000008 0.000081 -0.000025 0.033800 0.000024 -0.006638
# 5 -0.007761 0.006160 -0.006322 0.000024 0.036748 -0.000021
# 6 0.000008 -0.000101 0.000020 -0.006638 -0.000021 0.069076
#
#
# Mechanical properties :
#
#
# Convention : Reuss Voigt Hill
#
# Bulk Modulus (GPa) = 31.51641 38.47233 34.99437
# Shear Modulus (GPa) = 23.63843 31.32649 27.48246
#
# Velocity S-wave (km/s) = 3.02959 3.48763 3.26665
# Velocity P-wave (km/s) = 4.94724 5.58178 5.27406
#
# Compressibility (1/GPa) = 0.03172951
#
# Stress axis : x y z
#
# Youngs Moduli (GPa) = 75.29393 42.85285 100.93702
#
# Poissons Ratio (x) = 0.11346 -0.14961
# Poissons Ratio (y) = 0.19936 0.62902
# Poissons Ratio (z) = -0.11160 0.26705
#
# Static dielectric constant tensor:
#      x y z
#    x 1.988320 -0.000010 -0.016910 
#    y -0.000010 2.045850 0.000020 
#    z -0.016910 0.000020 2.025430 
# 
# From -- ./inp_files/303254.got.cif
#   From: 2010.05.17/outbox.cif.g08.bks.cpg/sg15_152_cif.got.tgz:303254.got - 2010.06.03 18:47:42.
