data_PCOD9256061
_publ_section_title
;
Structure prediction by ZEFSAII (Michael W. Deem and Ramdas Pophale) SiO2 
 PCOD9256061
Probable space group: C 2/C
;
_chemical_formula_sum "Si O2"
_cell_formula_units_Z 56
_cell_length_a 18.679283
_cell_length_b 9.701533
_cell_length_c 16.947871
_cell_angle_alpha 90.000000
_cell_angle_beta 128.113166
_cell_angle_gamma 90.000000
_cell_volume 2416.441700
_symmetry_space_group_name_H-M "C 2/C"
_symmetry_group_IT_number 15
_symmetry_cell_setting 'monoclinic'
loop_
_space_group_symop_operation_xyz
x,y,z
-x,y,1/2-z
-x,-y,-z
x,-y,1/2+z
1/2+x,1/2+y,z
1/2-x,1/2+y,1/2-z
1/2-x,1/2-y,-z
1/2+x,1/2-y,1/2+z
loop_
_atom_site_type_symbol
_atom_site_label
_atom_site_fract_x
_atom_site_fract_y
_atom_site_fract_z
Si Si1 0.108109 0.475495 0.949019
Si Si2 0.211625 0.337965 0.900181
Si Si3 0.446602 0.260033 0.631512
Si Si4 0.323780 0.173372 0.861712
Si Si5 0.782603 0.858308 0.611861
Si Si6 0.910947 0.936466 0.836897
Si Si7 0.714844 0.413028 0.148810
O O1 0.105413 0.382577 0.024993
O O2 0.209624 0.536919 0.029877
O O3 0.115969 0.393350 0.871363
O O4 0.045766 0.610795 0.904196
O O5 0.232696 0.234578 0.842089
O O6 0.264040 0.473980 0.903618
O O7 0.250000 0.250000 0.000000
O O8 0.500000 0.246477 0.750000
O O9 0.343757 0.288063 0.586759
O O10 0.486802 0.392092 0.613760
O O11 0.371343 0.301197 0.852435
O O12 0.289832 0.069728 0.770554
O O13 0.854509 0.938015 0.716844
O O14 0.731928 0.739338 0.627500
O O15 0.881572 0.059644 0.874124
#
# Coordination Sequence:
#
# PCOD9256061 Si02
#       7
#     8   8   8   8   8   8   8
#     4  11  19  35  58  84 109 151 201 242 277 371
#     4   9  19  32  53  87 112 144 193 251 291 333
#     4  10  21  34  51  83 116 148 187 239 307 348
#     4   9  19  33  57  84 109 149 192 245 289 347
#     4  10  19  33  58  84 103 150 202 230 286 361
#     4   9  19  35  53  82 116 146 182 242 305 337
#     4  10  17  34  56  83 115 147 197 249 286 345
#
# _framework density 23.174571
#
# number of rings (size 3 to 8) (size 9 to 14) (size 15 to 20)
#    0.000    2.286    2.857    0.429    0.000    0.571 
#    0.000    0.714    0.000    0.000    7.429    0.000 
#    0.000    0.000    0.000    0.000    0.000    0.000 
#
# Total GULP energy -156086.558234 kJ/mol
# GULP energy per Si atom -5574.519937 kJ/mol
# Density = 2.312182 g / cm^3
# Si number density = 23.174571 Si / 1000 Ang^3
#
#
#
# Elastic Constant Matrix: (Units=GPa)
#
#
# Indices 1 2 3 4 5 6 
#
# 1 77.9827 16.2393 13.1701 0.0000 -7.8711 0.0000
# 2 16.2393 65.3131 3.1654 0.0000 1.5076 0.0000
# 3 13.1701 3.1654 60.4481 0.0000 -13.1810 0.0000
# 4 0.0000 0.0000 0.0000 28.0533 0.0000 -0.5506
# 5 -7.8711 1.5076 -13.1810 0.0000 25.5302 0.0000
# 6 0.0000 0.0000 0.0000 -0.5506 0.0000 28.4055
#
#
#
# Elastic Compliance Matrix: (Units=1/GPa)
#
#
# Indices 1 2 3 4 5 6 
#
# 1 0.014275 -0.003525 -0.002164 0.000000 0.003492 0.000000
# 2 -0.003525 0.016271 -0.000598 0.000000 -0.002356 0.000000
# 3 -0.002164 -0.000598 0.019053 0.000000 0.009205 0.000000
# 4 0.000000 0.000000 0.000000 0.035660 0.000000 0.000691
# 5 0.003492 -0.002356 0.009205 0.000000 0.045137 0.000000
# 6 0.000000 0.000000 0.000000 0.000691 0.000000 0.035218
#
#
# Mechanical properties :
#
#
# Convention : Reuss Voigt Hill
#
# Bulk Modulus (GPa) = 27.00878 29.87709 28.44294
# Shear Modulus (GPa) = 26.24252 27.80907 27.02579
#
# Velocity S-wave (km/s) = 3.36874 3.46783 3.41865
# Velocity P-wave (km/s) = 5.17794 5.38095 5.28042
#
# Compressibility (1/GPa) = 0.03702499
#
# Stress axis : x y z
#
# Youngs Moduli (GPa) = 70.05059 61.46021 52.48483
#
# Poissons Ratio (x) = 0.21665 0.11359
# Poissons Ratio (y) = 0.24694 0.03137
# Poissons Ratio (z) = 0.15160 0.03674
#
# Static dielectric constant tensor:
#      x y z
#    x 1.926390 0.000000 -0.021090 
#    y 0.000000 1.896610 0.000000 
#    z -0.021090 0.000000 1.941870 
# 
# From -- ./inp_files/210408.got.cif
#   From: 2010.05.17/outbox.cif.g08.bks.cpg/sg15_106_cif.got.tgz:210408.got - 2010.06.03 18:47:42.
