data_PCOD9256171
_publ_section_title
;
Structure prediction by ZEFSAII (Michael W. Deem and Ramdas Pophale) SiO2 
 PCOD9256171
Probable space group: C 2/C
;
_chemical_formula_sum "Si O2"
_cell_formula_units_Z 52
_cell_length_a 13.267772
_cell_length_b 11.273254
_cell_length_c 14.733750
_cell_angle_alpha 90.000000
_cell_angle_beta 67.274874
_cell_angle_gamma 90.000000
_cell_volume 2032.662046
_symmetry_space_group_name_H-M "C 2/C"
_symmetry_group_IT_number 15
_symmetry_cell_setting 'monoclinic'
loop_
_space_group_symop_operation_xyz
x,y,z
-x,y,1/2-z
-x,-y,-z
x,-y,1/2+z
1/2+x,1/2+y,z
1/2-x,1/2+y,1/2-z
1/2-x,1/2-y,-z
1/2+x,1/2-y,1/2+z
loop_
_atom_site_type_symbol
_atom_site_label
_atom_site_fract_x
_atom_site_fract_y
_atom_site_fract_z
Si Si1 0.945517 0.963757 0.615951
Si Si2 0.284253 0.224248 0.091226
Si Si3 0.000000 0.388653 0.750000
Si Si4 0.035847 0.731327 0.957057
Si Si5 0.203717 0.469200 0.153675
Si Si6 0.406587 0.330072 0.387216
Si Si7 0.695127 0.035683 0.938081
O O1 0.971218 0.824550 0.623636
O O2 0.817324 0.981422 0.651268
O O3 0.000000 0.000000 0.500000
O O4 0.005691 0.064306 0.653377
O O5 0.219686 0.328099 0.164050
O O6 0.268013 0.087771 0.119729
O O7 0.250000 0.250000 0.000000
O O8 0.415740 0.235935 0.043609
O O9 0.100394 0.473599 0.738420
O O10 0.049120 0.294484 0.662883
O O11 0.086275 0.600075 0.938007
O O12 0.114342 0.800063 0.000073
O O13 0.189882 0.501125 0.049126
O O14 0.293507 0.373663 0.386472
#
# Coordination Sequence:
#
# PCOD9256171 Si02
#       7
#     8   8   4   8   8   8   8
#     4  10  17  34  69  90 115 156 209 267 315 366
#     4  10  21  35  60  93 130 154 200 269 327 372
#     4  12  26  38  62  86 130 178 218 262 324 406
#     4  11  18  35  65  98 123 154 208 273 320 372
#     4  11  20  39  61  92 126 169 208 264 331 380
#     4  11  21  39  63  94 124 164 216 265 319 386
#     4  11  20  36  66 101 122 153 219 275 310 374
#
# _framework density 25.582215999999999
#
# number of rings (size 3 to 8) (size 9 to 14) (size 15 to 20)
#    0.000    1.231    7.692    2.769    0.000    0.000 
#    0.000    2.308   10.154    0.000    0.000    0.000 
#    0.000    0.000    0.000    0.000    0.000    0.000 
#
# Total GULP energy -145173.482016 kJ/mol
# GULP energy per Si atom -5583.595462 kJ/mol
# Density = 2.552399 g / cm^3
# Si number density = 25.582216 Si / 1000 Ang^3
#
#
#
# Elastic Constant Matrix: (Units=GPa)
#
#
# Indices 1 2 3 4 5 6 
#
# 1 80.4440 74.0165 30.2310 0.0000 -35.4535 0.0000
# 2 74.0165 225.8310 64.7090 0.0000 -37.0338 0.0000
# 3 30.2310 64.7090 57.1317 0.0000 -12.9565 0.0000
# 4 0.0000 0.0000 0.0000 16.4462 0.0000 -21.3092
# 5 -35.4535 -37.0338 -12.9565 0.0000 47.1442 0.0000
# 6 0.0000 0.0000 0.0000 -21.3092 0.0000 44.8991
#
#
#
# Elastic Compliance Matrix: (Units=1/GPa)
#
#
# Indices 1 2 3 4 5 6 
#
# 1 0.024148 -0.004328 -0.004830 0.000000 0.013433 0.000000
# 2 -0.004328 0.007856 -0.006342 0.000000 0.001174 0.000000
# 3 -0.004830 -0.006342 0.026970 0.000000 -0.001202 0.000000
# 4 0.000000 0.000000 0.000000 0.157908 0.000000 0.074944
# 5 0.013433 0.001174 -0.001202 0.000000 0.031905 0.000000
# 6 0.000000 0.000000 0.000000 0.074944 0.000000 0.057841
#
#
# Mechanical properties :
#
#
# Convention : Reuss Voigt Hill
#
# Bulk Modulus (GPa) = 35.74614 77.92440 56.83527
# Shear Modulus (GPa) = 14.41120 34.66125 24.53622
#
# Velocity S-wave (km/s) = 2.37603 3.68488 3.10031
# Velocity P-wave (km/s) = 4.64012 6.97359 5.92291
#
# Compressibility (1/GPa) = 0.02797505
#
# Stress axis : x y z
#
# Youngs Moduli (GPa) = 41.41060 127.28697 37.07891
#
# Poissons Ratio (x) = 0.55089 0.17908
# Poissons Ratio (y) = 0.17922 0.23515
# Poissons Ratio (z) = 0.20000 0.80725
#
# Static dielectric constant tensor:
#      x y z
#    x 2.140470 0.000000 0.117450 
#    y 0.000000 2.122390 0.000000 
#    z 0.117450 0.000000 2.152170 
# 
# From -- ./inp_files/243643.got.cif
#   From: 2010.05.17/outbox.cif.g08.bks.cpg/sg15_122_cif.got.tgz:243643.got - 2010.06.03 18:47:42.
