data_PCOD9256025
_publ_section_title
;
Structure prediction by ZEFSAII (Michael W. Deem and Ramdas Pophale) SiO2 
 PCOD9256025
Probable space group: C 2/C
;
_chemical_formula_sum "Si O2"
_cell_formula_units_Z 40
_cell_length_a 26.970291
_cell_length_b 9.892179
_cell_length_c 13.509900
_cell_angle_alpha 90.000000
_cell_angle_beta 34.977090
_cell_angle_gamma 90.000000
_cell_volume 2066.202697
_symmetry_space_group_name_H-M "C 2/C"
_symmetry_group_IT_number 15
_symmetry_cell_setting 'monoclinic'
loop_
_space_group_symop_operation_xyz
x,y,z
-x,y,1/2-z
-x,-y,-z
x,-y,1/2+z
1/2+x,1/2+y,z
1/2-x,1/2+y,1/2-z
1/2-x,1/2-y,-z
1/2+x,1/2-y,1/2+z
loop_
_atom_site_type_symbol
_atom_site_label
_atom_site_fract_x
_atom_site_fract_y
_atom_site_fract_z
Si Si1 0.804103 0.577584 0.494193
Si Si2 0.174760 0.080053 0.881256
Si Si3 0.989807 0.910310 0.647955
Si Si4 0.338368 0.223094 0.914094
Si Si5 0.354850 0.374496 0.396082
O O1 0.757361 0.575284 0.676933
O O2 0.852122 0.436335 0.400258
O O3 0.726607 0.588623 0.540293
O O4 0.859406 0.713766 0.395226
O O5 0.175866 0.205088 0.956124
O O6 0.088771 0.093119 0.953946
O O7 0.164559 0.946931 0.966567
O O8 0.919967 0.798740 0.730401
O O9 0.000000 0.888388 0.750000
O O10 0.942145 0.053548 0.715776
O O11 0.250000 0.250000 0.000000
#
# Coordination Sequence:
#
# PCOD9256025 Si02
#       5
#     8   8   8   8   8
#     4  11  19  31  58  77 102 134 176 220 249 299
#     4  10  20  35  54  80 102 138 178 207 255 315
#     4   8  17  35  53  73 108 137 172 205 258 316
#     4  10  17  34  54  76 103 142 169 212 256 306
#     4   9  19  34  49  79 106 133 169 216 260 298
#
# _framework density 19.359185
#
# number of rings (size 3 to 8) (size 9 to 14) (size 15 to 20)
#    0.000    2.800    4.000    1.200    0.000    0.800 
#    0.000    9.000    0.000    4.800    0.000    0.000 
#    0.000    0.000    0.000    0.000    0.000    0.000 
#
# Total GULP energy -111468.693597 kJ/mol
# GULP energy per Si atom -5573.434680 kJ/mol
# Density = 1.931512 g / cm^3
# Si number density = 19.359185 Si / 1000 Ang^3
#
#
#
# Elastic Constant Matrix: (Units=GPa)
#
#
# Indices 1 2 3 4 5 6 
#
# 1 78.3782 32.2687 19.2457 0.0000 -10.5784 0.0000
# 2 32.2687 185.6796 25.6868 0.0000 -17.7344 0.0000
# 3 19.2457 25.6868 22.2511 0.0000 -6.1677 0.0000
# 4 0.0000 0.0000 0.0000 9.0101 0.0000 -13.1088
# 5 -10.5784 -17.7344 -6.1677 0.0000 23.7436 0.0000
# 6 0.0000 0.0000 0.0000 -13.1088 0.0000 26.6930
#
#
#
# Elastic Compliance Matrix: (Units=1/GPa)
#
#
# Indices 1 2 3 4 5 6 
#
# 1 0.016637 -0.000830 -0.012445 0.000000 0.003560 0.000000
# 2 -0.000830 0.006668 -0.006144 0.000000 0.003015 0.000000
# 3 -0.012445 -0.006144 0.064644 0.000000 0.006658 0.000000
# 4 0.000000 0.000000 0.000000 0.388744 0.000000 0.190911
# 5 0.003560 0.003015 0.006658 0.000000 0.047684 0.000000
# 6 0.000000 0.000000 0.000000 0.190911 0.000000 0.131218
#
#
# Mechanical properties :
#
#
# Convention : Reuss Voigt Hill
#
# Bulk Modulus (GPa) = 20.36215 48.96792 34.66504
# Shear Modulus (GPa) = 7.03430 25.82986 16.43208
#
# Velocity S-wave (km/s) = 1.90826 3.65669 2.91658
# Velocity P-wave (km/s) = 3.92380 6.57099 5.41175
#
# Compressibility (1/GPa) = 0.04911072
#
# Stress axis : x y z
#
# Youngs Moduli (GPa) = 60.10878 149.97705 15.46933
#
# Poissons Ratio (x) = 0.12442 0.19252
# Poissons Ratio (y) = 0.04986 0.09504
# Poissons Ratio (z) = 0.74806 0.92147
#
# Static dielectric constant tensor:
#      x y z
#    x 1.716430 0.000000 0.009260 
#    y 0.000000 1.678460 0.000000 
#    z 0.009260 0.000000 1.704840 
# 
# From -- ./inp_files/176037.got.cif
#   From: 2010.05.17/outbox.cif.g08.bks.cpg/sg15_89_cif.got.tgz:176037.got - 2010.06.03 18:47:42.
