data_PCOD9256821
_publ_section_title
;
Structure prediction by ZEFSAII (Michael W. Deem and Ramdas Pophale) SiO2 
 PCOD9256821
Probable space group: C 2/C
;
_chemical_formula_sum "Si O2"
_cell_formula_units_Z 64
_cell_length_a 19.241654
_cell_length_b 28.848905
_cell_length_c 5.373477
_cell_angle_alpha 90.000000
_cell_angle_beta 113.846461
_cell_angle_gamma 90.000000
_cell_volume 2728.183538
_symmetry_space_group_name_H-M "C 2/C"
_symmetry_group_IT_number 15
_symmetry_cell_setting 'monoclinic'
loop_
_space_group_symop_operation_xyz
x,y,z
-x,y,1/2-z
-x,-y,-z
x,-y,1/2+z
1/2+x,1/2+y,z
1/2-x,1/2+y,1/2-z
1/2-x,1/2-y,-z
1/2+x,1/2-y,1/2+z
loop_
_atom_site_type_symbol
_atom_site_label
_atom_site_fract_x
_atom_site_fract_y
_atom_site_fract_z
Si Si1 0.897334 0.477506 0.497280
Si Si2 0.288766 0.608904 0.595614
Si Si3 0.190785 0.804129 0.723396
Si Si4 0.074994 0.760505 0.227010
Si Si5 0.870997 0.627297 0.006609
Si Si6 0.419479 0.645518 0.038448
Si Si7 0.276027 0.515949 0.295102
Si Si8 0.635209 0.815124 0.481221
O O1 0.926126 0.506414 0.772730
O O2 0.909021 0.423138 0.561176
O O3 0.806733 0.491405 0.356704
O O4 0.296637 0.657564 0.470672
O O5 0.217488 0.614437 0.673456
O O6 0.270534 0.568979 0.371981
O O7 0.368165 0.604939 0.850206
O O8 0.147242 0.762300 0.519328
O O9 0.134359 0.827893 0.839725
O O10 0.277371 0.798529 0.939531
O O11 0.092258 0.730554 0.009464
O O12 0.000000 0.742194 0.250000
O O13 0.060585 0.813384 0.125869
O O14 0.894793 0.659162 0.808686
O O15 0.872304 0.651636 0.281232
O O16 0.500000 0.628440 0.250000
O O17 0.313812 0.509505 0.083610
#
# Coordination Sequence:
#
# PCOD9256821 Si02
#       8
#     8   8   8   8   8   8   8   8
#     4  10  18  29  53  82 121 160 193 234 299 355
#     4  10  21  34  55  87 119 157 195 256 303 351
#     4  10  22  38  60  85 120 153 199 252 307 349
#     4  11  24  42  60  87 116 162 208 247 295 368
#     4  11  21  36  54  90 126 157 192 248 306 356
#     4  11  22  38  63  82 113 159 212 255 297 357
#     4  10  20  30  54  84 116 158 198 236 306 355
#     4  11  25  38  61  89 127 157 196 252 310 350
#
# _framework density 23.458832000000001
#
# number of rings (size 3 to 8) (size 9 to 14) (size 15 to 20)
#    0.000    1.500    5.000    1.125    8.750    0.500 
#    0.000    0.000    0.000    0.750    0.000    0.000 
#    0.000   10.000    0.000    0.000    0.000    0.000 
#
# Total GULP energy -178794.512997 kJ/mol
# GULP energy per Si atom -5587.328531 kJ/mol
# Density = 2.340544 g / cm^3
# Si number density = 23.458832 Si / 1000 Ang^3
#
#
#
# Elastic Constant Matrix: (Units=GPa)
#
#
# Indices 1 2 3 4 5 6 
#
# 1 82.6083 13.0612 19.4712 0.0000 -11.9555 0.0000
# 2 13.0612 97.8926 27.1055 0.0000 -0.7709 0.0000
# 3 19.4712 27.1055 98.5640 0.0000 -23.6935 0.0000
# 4 0.0000 0.0000 0.0000 34.8096 0.0000 -17.5859
# 5 -11.9555 -0.7709 -23.6935 0.0000 29.8989 0.0000
# 6 0.0000 0.0000 0.0000 -17.5859 0.0000 -3.3983
#
#
#
# Elastic Compliance Matrix: (Units=1/GPa)
#
#
# Indices 1 2 3 4 5 6 
#
# 1 0.013232 -0.001401 -0.001193 0.000000 0.004310 0.000000
# 2 -0.001401 0.011375 -0.003602 0.000000 -0.003121 0.000000
# 3 -0.001193 -0.003602 0.013879 0.000000 0.010428 0.000000
# 4 0.000000 0.000000 0.000000 0.007948 0.000000 -0.041131
# 5 0.004310 -0.003121 0.010428 0.000000 0.043353 0.000000
# 6 0.000000 0.000000 0.000000 -0.041131 0.000000 -0.081415
#
#
# Mechanical properties :
#
#
# Convention : Reuss Voigt Hill
#
# Bulk Modulus (GPa) = 38.32248 44.26005 41.29126
# Shear Modulus (GPa) = 169.72050 26.89050 98.30550
#
# Velocity S-wave (km/s) = 8.51500 3.38936 6.48047
# Velocity P-wave (km/s) = 10.63227 5.85022 8.58109
#
# Compressibility (1/GPa) = 0.02609435
#
# Stress axis : x y z
#
# Youngs Moduli (GPa) = 75.57615 87.91279 72.05346
#
# Poissons Ratio (x) = 0.12319 0.08593
# Poissons Ratio (y) = 0.10590 0.25951
# Poissons Ratio (z) = 0.09013 0.31663
#
# Static dielectric constant tensor:
#      x y z
#    x -1.801510 0.000000 -0.926730 
#    y 0.000000 1.880680 0.000000 
#    z -0.926730 0.000000 1.743530 
# 
# From -- ./inp_files/14668.got.cif
#   From: 2010.05.17/outbox.cif.g08.bks.cpg/sg15_8_cif.got.tgz:14668.got - 2010.06.03 18:47:42.
