data_PCOD9256795
_publ_section_title
;
Structure prediction by ZEFSAII (Michael W. Deem and Ramdas Pophale) SiO2 
 PCOD9256795
Probable space group: C 2/C
;
_chemical_formula_sum "Si O2"
_cell_formula_units_Z 40
_cell_length_a 16.248460
_cell_length_b 7.020087
_cell_length_c 15.944723
_cell_angle_alpha 90.000000
_cell_angle_beta 121.266248
_cell_angle_gamma 90.000000
_cell_volume 1554.598586
_symmetry_space_group_name_H-M "C 2/C"
_symmetry_group_IT_number 15
_symmetry_cell_setting 'monoclinic'
loop_
_space_group_symop_operation_xyz
x,y,z
-x,y,1/2-z
-x,-y,-z
x,-y,1/2+z
1/2+x,1/2+y,z
1/2-x,1/2+y,1/2-z
1/2-x,1/2-y,-z
1/2+x,1/2-y,1/2+z
loop_
_atom_site_type_symbol
_atom_site_label
_atom_site_fract_x
_atom_site_fract_y
_atom_site_fract_z
Si Si1 0.579195 0.420207 0.903282
Si Si2 0.822588 0.690026 0.265851
Si Si3 0.223923 0.548243 0.442673
Si Si4 0.877397 0.124719 0.265481
Si Si5 0.023723 0.370866 0.861977
O O1 0.599932 0.350205 0.819936
O O2 0.474368 0.332113 0.869929
O O3 0.554716 0.649102 0.890191
O O4 0.682878 0.413489 0.002397
O O5 0.794904 0.591219 0.164154
O O6 0.856604 0.901450 0.263448
O O7 0.724413 0.711286 0.264412
O O8 0.920955 0.594816 0.352714
O O9 0.250000 0.750000 0.500000
O O10 0.119394 0.504194 0.429127
O O11 0.000000 0.393513 0.750000
#
# Coordination Sequence:
#
# PCOD9256795 Si02
#       5
#     8   8   8   8   8
#     4   9  15  30  51  65  92 132 160 189 230 291
#     4  10  18  29  50  76  95 121 160 205 228 279
#     4   9  14  27  53  72  87 123 176 190 219 276
#     4  10  18  31  49  72  98 123 159 196 241 276
#     4   8  12  26  46  69  86 121 162 189 219 271
#
# _framework density 25.730115000000001
#
# number of rings (size 3 to 8) (size 9 to 14) (size 15 to 20)
#    0.000    2.800    8.000    0.000    0.000    0.800 
#    0.000    1.000   13.200    1.200    0.000    0.000 
#    0.000    0.000    0.000    0.000    0.000    0.000 
#
# Total GULP energy -111600.102819 kJ/mol
# GULP energy per Si atom -5580.005141 kJ/mol
# Density = 2.567155 g / cm^3
# Si number density = 25.730115 Si / 1000 Ang^3
#
#
#
# Elastic Constant Matrix: (Units=GPa)
#
#
# Indices 1 2 3 4 5 6 
#
# 1 212.1405 30.4360 62.7716 0.0000 72.0620 0.0000
# 2 30.4360 82.0326 20.8919 0.0000 14.5453 0.0000
# 3 62.7716 20.8919 85.5287 0.0000 58.3200 0.0000
# 4 0.0000 0.0000 0.0000 19.1763 0.0000 9.3220
# 5 72.0620 14.5453 58.3200 0.0000 53.4872 0.0000
# 6 0.0000 0.0000 0.0000 9.3220 0.0000 21.5180
#
#
#
# Elastic Compliance Matrix: (Units=1/GPa)
#
#
# Indices 1 2 3 4 5 6 
#
# 1 0.009906 -0.001863 0.007562 0.000000 -0.021084 0.000000
# 2 -0.001863 0.013350 -0.004404 0.000000 0.003681 0.000000
# 3 0.007562 -0.004404 0.052037 0.000000 -0.065729 0.000000
# 4 0.000000 0.000000 0.000000 0.066060 0.000000 -0.028619
# 5 -0.021084 0.003681 -0.065729 0.000000 0.117769 0.000000
# 6 0.000000 0.000000 0.000000 -0.028619 0.000000 0.058871
#
#
# Mechanical properties :
#
#
# Convention : Reuss Voigt Hill
#
# Bulk Modulus (GPa) = 12.83967 67.54452 40.19210
# Shear Modulus (GPa) = 14.64715 36.54312 25.59513
#
# Velocity S-wave (km/s) = 2.38851 3.77270 3.15739
# Velocity P-wave (km/s) = 3.55072 6.72948 5.38022
#
# Compressibility (1/GPa) = 0.07788364
#
# Stress axis : x y z
#
# Youngs Moduli (GPa) = 100.95239 74.90490 19.21712
#
# Poissons Ratio (x) = 0.13952 -0.14531
# Poissons Ratio (y) = 0.18803 0.08463
# Poissons Ratio (z) = -0.76337 0.32986
#
# Static dielectric constant tensor:
#      x y z
#    x 2.013130 0.000000 0.012150 
#    y 0.000000 2.172640 0.000000 
#    z 0.012150 0.000000 1.985720 
# 
# From -- ./inp_files/150599.got.cif
#   From: 2010.05.17/outbox.cif.g08.bks.cpg/sg15_76_cif.got.tgz:150599.got - 2010.06.03 18:47:42.
