data_PCOD9256590
_publ_section_title
;
Structure prediction by ZEFSAII (Michael W. Deem and Ramdas Pophale) SiO2 
 PCOD9256590
Probable space group: C 2/C
;
_chemical_formula_sum "Si O2"
_cell_formula_units_Z 64
_cell_length_a 31.415515
_cell_length_b 5.099574
_cell_length_c 23.632047
_cell_angle_alpha 90.000000
_cell_angle_beta 92.080584
_cell_angle_gamma 90.000000
_cell_volume 3783.493761
_symmetry_space_group_name_H-M "C 2/C"
_symmetry_group_IT_number 15
_symmetry_cell_setting 'monoclinic'
loop_
_space_group_symop_operation_xyz
x,y,z
-x,y,1/2-z
-x,-y,-z
x,-y,1/2+z
1/2+x,1/2+y,z
1/2-x,1/2+y,1/2-z
1/2-x,1/2-y,-z
1/2+x,1/2-y,1/2+z
loop_
_atom_site_type_symbol
_atom_site_label
_atom_site_fract_x
_atom_site_fract_y
_atom_site_fract_z
Si Si1 0.352017 0.239945 0.439035
Si Si2 0.554685 0.190496 0.094145
Si Si3 0.985338 0.659073 0.186427
Si Si4 0.986655 0.803132 0.949686
Si Si5 0.797907 0.218171 0.571463
Si Si6 0.557976 0.677827 0.362588
Si Si7 0.352340 0.226999 0.575660
Si Si8 0.297294 0.732668 0.435388
O O1 0.394853 0.167114 0.408010
O O2 0.361453 0.250276 0.507876
O O3 0.330913 0.512271 0.419016
O O4 0.316853 0.017831 0.427630
O O5 0.527424 0.123497 0.148947
O O6 0.545228 0.498906 0.084325
O O7 0.535724 0.980873 0.046891
O O8 0.957634 0.393787 0.183107
O O9 0.000000 0.724790 0.250000
O O10 0.956483 0.890839 0.158583
O O11 0.029037 0.759802 0.915813
O O12 0.000000 0.000000 0.000000
O O13 0.832663 0.441249 0.585197
O O14 0.750605 0.286607 0.590360
O O15 0.794283 0.199339 0.503167
O O16 0.816284 0.938370 0.589747
O O17 0.605993 0.711450 0.385716
#
# Coordination Sequence:
#
# PCOD9256590 Si02
#       8
#     8   8   8   8   8   8   8   8
#     4  10  18  28  44  66  96 125 154 188 219 263
#     4  10  20  31  46  68  90 121 158 190 227 273
#     4  10  21  37  52  66  91 121 154 201 243 276
#     4  10  19  30  44  64  96 126 149 179 223 278
#     4   9  17  28  42  62  93 130 158 181 216 260
#     4  10  20  32  49  71  91 120 158 191 232 281
#     4  10  18  28  44  67  96 123 152 189 221 265
#     4   9  17  28  42  62  92 131 160 180 214 261
#
# _framework density 16.915582000000001
#
# number of rings (size 3 to 8) (size 9 to 14) (size 15 to 20)
#    0.000    2.250    0.000    3.750    0.000    7.000 
#    0.000    0.000    0.000    0.000    0.000    0.000 
#    0.000   20.000    0.000    0.000    0.000    0.000 
#
# Total GULP energy -178195.561236 kJ/mol
# GULP energy per Si atom -5568.611289 kJ/mol
# Density = 1.687708 g / cm^3
# Si number density = 16.915582 Si / 1000 Ang^3
#
#
#
# Elastic Constant Matrix: (Units=GPa)
#
#
# Indices 1 2 3 4 5 6 
#
# 1 93.3770 5.1579 19.9419 0.0000 4.7544 0.0000
# 2 5.1579 65.2803 1.4159 0.0000 2.5015 0.0000
# 3 19.9419 1.4159 33.9281 0.0000 2.3993 0.0000
# 4 0.0000 0.0000 0.0000 11.3960 0.0000 -1.7916
# 5 4.7544 2.5015 2.3993 0.0000 7.9801 0.0000
# 6 0.0000 0.0000 0.0000 -1.7916 0.0000 2.0785
#
#
#
# Elastic Compliance Matrix: (Units=1/GPa)
#
#
# Indices 1 2 3 4 5 6 
#
# 1 0.012491 -0.000639 -0.006951 0.000000 -0.005152 0.000000
# 2 -0.000639 0.015541 0.000045 0.000000 -0.004505 0.000000
# 3 -0.006951 0.000045 0.033989 0.000000 -0.006092 0.000000
# 4 0.000000 0.000000 0.000000 0.101505 0.000000 0.087492
# 5 -0.005152 -0.004505 -0.006092 0.000000 0.131625 0.000000
# 6 0.000000 0.000000 0.000000 0.087492 0.000000 0.556520
#
#
# Mechanical properties :
#
#
# Convention : Reuss Voigt Hill
#
# Bulk Modulus (GPa) = 21.30748 27.29076 24.29912
# Shear Modulus (GPa) = 5.66634 15.36223 10.51429
#
# Velocity S-wave (km/s) = 1.83222 3.01686 2.49584
# Velocity P-wave (km/s) = 4.13519 5.32013 4.76464
#
# Compressibility (1/GPa) = 0.04693187
#
# Stress axis : x y z
#
# Youngs Moduli (GPa) = 80.05525 64.34738 29.42158
#
# Poissons Ratio (x) = 0.04110 0.20451
# Poissons Ratio (y) = 0.05114 -0.00134
# Poissons Ratio (z) = 0.55647 -0.00292
#
# Static dielectric constant tensor:
#      x y z
#    x 1.580370 0.000000 0.017190 
#    y 0.000000 1.621400 0.000000 
#    z 0.017190 0.000000 1.588050 
# 
# From -- ./inp_files/282879.got.cif
#   From: 2010.05.17/outbox.cif.g08.bks.cpg/sg15_142_cif.got.tgz:282879.got - 2010.06.03 18:47:42.
