data_PCOD9256570
_publ_section_title
;
Structure prediction by ZEFSAII (Michael W. Deem and Ramdas Pophale) SiO2 
 PCOD9256570
Probable space group: C 2/C
;
_chemical_formula_sum "Si O2"
_cell_formula_units_Z 60
_cell_length_a 10.533002
_cell_length_b 28.053026
_cell_length_c 17.522930
_cell_angle_alpha 90.000000
_cell_angle_beta 29.235314
_cell_angle_gamma 90.000000
_cell_volume 2528.786227
_symmetry_space_group_name_H-M "C 2/C"
_symmetry_group_IT_number 15
_symmetry_cell_setting 'monoclinic'
loop_
_space_group_symop_operation_xyz
x,y,z
-x,y,1/2-z
-x,-y,-z
x,-y,1/2+z
1/2+x,1/2+y,z
1/2-x,1/2+y,1/2-z
1/2-x,1/2-y,-z
1/2+x,1/2-y,1/2+z
loop_
_atom_site_type_symbol
_atom_site_label
_atom_site_fract_x
_atom_site_fract_y
_atom_site_fract_z
Si Si1 0.792086 0.737265 0.714571
Si Si2 0.708326 0.959117 0.076294
Si Si3 0.171038 0.162142 0.553638
Si Si4 0.500000 0.804009 0.750000
Si Si5 0.776736 0.473831 0.755601
Si Si6 0.088997 0.934651 0.277982
Si Si7 0.626231 0.192607 0.426844
Si Si8 0.351452 0.086386 0.060208
O O1 0.576146 0.695649 0.832010
O O2 0.691085 0.771819 0.700062
O O3 0.786826 0.769683 0.792563
O O4 0.054566 0.713335 0.547035
O O5 0.500000 0.938702 0.250000
O O6 0.565898 0.011442 0.135863
O O7 0.729272 0.936120 0.979409
O O8 0.017869 0.954624 0.936172
O O9 0.343181 0.163886 0.389040
O O10 0.350570 0.185285 0.525468
O O11 0.098979 0.107789 0.603665
O O12 0.669105 0.526836 0.796027
O O13 0.813907 0.446126 0.655449
O O14 0.000000 0.963180 0.250000
O O15 0.345842 0.908020 0.115851
O O16 0.738425 0.139630 0.373482
#
# Coordination Sequence:
#
# PCOD9256570 Si02
#       8
#     8   8   8   4   8   8   8   8
#     4  11  17  32  49  77 124 174 217 271 338 404
#     4  11  24  45  69  99 136 181 220 288 344 396
#     4  11  18  29  50  79 130 175 219 265 339 411
#     4  10  18  28  42  76 118 180 216 260 340 404
#     4  11  24  44  71  98 138 178 230 277 340 402
#     4  11  18  32  56  88 125 172 220 271 321 397
#     4  11  20  32  56  86 127 175 220 273 339 411
#     4  11  22  38  63  93 124 175 228 268 331 412
#
# _framework density 23.726799
#
# number of rings (size 3 to 8) (size 9 to 14) (size 15 to 20)
#    0.000    1.067    5.333    4.800    0.000    0.000 
#    1.200    6.667    0.000    0.000    0.000    6.533 
#    0.000    0.000    0.000    0.000    0.000    0.000 
#
# Total GULP energy -167213.075742 kJ/mol
# GULP energy per Si atom -5573.769191 kJ/mol
# Density = 2.367280 g / cm^3
# Si number density = 23.726799 Si / 1000 Ang^3
#
#
#
# Elastic Constant Matrix: (Units=GPa)
#
#
# Indices 1 2 3 4 5 6 
#
# 1 37.8850 17.7375 20.8032 0.0002 9.1774 -0.0001
# 2 17.7375 108.2595 43.7429 -0.0001 18.6819 0.0000
# 3 20.8032 43.7429 115.0381 -0.0058 23.4504 0.0016
# 4 0.0002 -0.0001 -0.0058 61.7177 0.0017 -4.5893
# 5 9.1774 18.6819 23.4504 0.0017 36.9977 -0.0005
# 6 -0.0001 0.0000 0.0016 -4.5893 -0.0005 7.9069
#
#
#
# Elastic Compliance Matrix: (Units=1/GPa)
#
#
# Indices 1 2 3 4 5 6 
#
# 1 0.030690 -0.002884 -0.003673 0.000000 -0.003829 0.000001
# 2 -0.002884 0.011549 -0.003247 0.000000 -0.003059 0.000000
# 3 -0.003673 -0.003247 0.011566 0.000001 -0.004780 -0.000002
# 4 0.000000 0.000000 0.000001 0.016934 -0.000001 0.009829
# 5 -0.003829 -0.003059 -0.004780 -0.000001 0.032553 0.000002
# 6 0.000001 0.000000 -0.000002 0.009829 0.000002 0.132176
#
#
# Mechanical properties :
#
#
# Convention : Reuss Voigt Hill
#
# Bulk Modulus (GPa) = 29.24062 47.30555 38.27309
# Shear Modulus (GPa) = 18.76357 33.25107 26.00732
#
# Velocity S-wave (km/s) = 2.81520 3.74761 3.31436
# Velocity P-wave (km/s) = 4.78725 6.22149 5.55089
#
# Compressibility (1/GPa) = 0.03419900
#
# Stress axis : x y z
#
# Youngs Moduli (GPa) = 32.58378 86.58662 86.46054
#
# Poissons Ratio (x) = 0.24968 0.31757
# Poissons Ratio (y) = 0.09396 0.28070
# Poissons Ratio (z) = 0.11968 0.28111
#
# Static dielectric constant tensor:
#      x y z
#    x 2.047240 0.000000 -0.062380 
#    y 0.000000 1.880580 0.000000 
#    z -0.062380 0.000000 1.993090 
# 
# From -- ./inp_files/201396.got.cif
#   From: 2010.05.17/outbox.cif.g08.bks.cpg/sg15_101_cif.got.tgz:201396.got - 2010.06.03 18:47:42.
