data_PCOD9256333
_publ_section_title
;
Structure prediction by ZEFSAII (Michael W. Deem and Ramdas Pophale) SiO2 
 PCOD9256333
Probable space group: C 2/C
;
_chemical_formula_sum "Si O2"
_cell_formula_units_Z 40
_cell_length_a 12.517613
_cell_length_b 18.365461
_cell_length_c 9.005275
_cell_angle_alpha 90.000000
_cell_angle_beta 89.990787
_cell_angle_gamma 90.000000
_cell_volume 2070.238252
_symmetry_space_group_name_H-M "C 2/C"
_symmetry_group_IT_number 15
_symmetry_cell_setting 'monoclinic'
loop_
_space_group_symop_operation_xyz
x,y,z
-x,y,1/2-z
-x,-y,-z
x,-y,1/2+z
1/2+x,1/2+y,z
1/2-x,1/2+y,1/2-z
1/2-x,1/2-y,-z
1/2+x,1/2-y,1/2+z
loop_
_atom_site_type_symbol
_atom_site_label
_atom_site_fract_x
_atom_site_fract_y
_atom_site_fract_z
Si Si1 0.375715 0.477872 0.021043
Si Si2 0.689693 0.597431 0.678445
Si Si3 0.879852 0.698144 0.687149
Si Si4 0.399130 0.335475 0.856246
Si Si5 0.455763 0.263955 0.399101
O O1 0.355450 0.450996 0.187265
O O2 0.500000 0.500000 0.000000
O O3 0.309913 0.547602 0.967768
O O4 0.348538 0.409439 0.914025
O O5 0.803474 0.631384 0.718478
O O6 0.613351 0.666195 0.648494
O O7 0.837806 0.772940 0.764954
O O8 0.889971 0.713849 0.512013
O O9 0.000000 0.688096 0.750000
O O10 0.500000 0.354787 0.750000
O O11 0.447719 0.295805 0.001121
O O12 0.500000 0.228139 0.250000
#
# Coordination Sequence:
#
# PCOD9256333 Si02
#       5
#     8   8   8   8   8
#     4  12  22  36  60  91 126 151 193 246 312 359
#     4  12  23  37  59  91 121 159 196 240 304 369
#     4   9  23  41  59  82 123 158 205 243 286 350
#     4   9  18  35  57  84 122 156 182 243 301 345
#     4  10  17  36  60  89 117 147 190 248 301 348
#
# _framework density 19.321446999999999
#
# number of rings (size 3 to 8) (size 9 to 14) (size 15 to 20)
#    0.000    2.000    4.000    2.400    2.800    0.800 
#    0.000    1.000    0.000    0.000    0.000    0.000 
#    0.000    0.000    0.000    0.000    0.000    0.000 
#
# Total GULP energy -111639.716723 kJ/mol
# GULP energy per Si atom -5581.985836 kJ/mol
# Density = 1.927747 g / cm^3
# Si number density = 19.321447 Si / 1000 Ang^3
#
#
#
# Elastic Constant Matrix: (Units=GPa)
#
#
# Indices 1 2 3 4 5 6 
#
# 1 44.7137 37.5172 23.0425 0.0000 3.5507 0.0000
# 2 37.5172 56.6468 14.9053 0.0000 0.1532 0.0000
# 3 23.0425 14.9053 115.4593 0.0000 -10.0032 0.0000
# 4 0.0000 0.0000 0.0000 29.0580 0.0000 0.9776
# 5 3.5507 0.1532 -10.0032 0.0000 15.3204 0.0000
# 6 0.0000 0.0000 0.0000 0.9776 0.0000 33.9366
#
#
#
# Elastic Compliance Matrix: (Units=1/GPa)
#
#
# Indices 1 2 3 4 5 6 
#
# 1 0.059452 -0.037023 -0.008742 0.000000 -0.019116 0.000000
# 2 -0.037023 0.041378 0.002920 0.000000 0.010073 0.000000
# 3 -0.008742 0.002920 0.010813 0.000000 0.009057 0.000000
# 4 0.000000 0.000000 0.000000 0.034447 0.000000 -0.000992
# 5 -0.019116 0.010073 0.009057 0.000000 0.075516 0.000000
# 6 0.000000 0.000000 0.000000 -0.000992 0.000000 0.029495
#
#
# Mechanical properties :
#
#
# Convention : Reuss Voigt Hill
#
# Bulk Modulus (GPa) = 38.53049 40.86110 39.69579
# Shear Modulus (GPa) = 14.47414 25.08666 19.78040
#
# Velocity S-wave (km/s) = 2.73998 3.60722 3.20309
# Velocity P-wave (km/s) = 5.47678 6.20833 5.85399
#
# Compressibility (1/GPa) = 0.02595347
#
# Stress axis : x y z
#
# Youngs Moduli (GPa) = 16.82030 24.16725 92.47757
#
# Poissons Ratio (x) = 0.89475 0.80841
# Poissons Ratio (y) = 0.62274 -0.27002
# Poissons Ratio (z) = 0.14704 -0.07056
#
# Static dielectric constant tensor:
#      x y z
#    x 1.700440 0.000000 -0.003850 
#    y 0.000000 1.669700 0.000000 
#    z -0.003850 0.000000 1.726540 
# 
# From -- ./inp_files/29222.got.cif
#   From: 2010.05.17/outbox.cif.g08.bks.cpg/sg15_15_cif.got.tgz:29222.got - 2010.06.03 18:47:42.
