data_PCOD9256643
_publ_section_title
;
Structure prediction by ZEFSAII (Michael W. Deem and Ramdas Pophale) SiO2 
 PCOD9256643
Probable space group: C 2/C
;
_chemical_formula_sum "Si O2"
_cell_formula_units_Z 48
_cell_length_a 10.503374
_cell_length_b 22.146733
_cell_length_c 8.174240
_cell_angle_alpha 90.000000
_cell_angle_beta 93.488070
_cell_angle_gamma 90.000000
_cell_volume 1897.931801
_symmetry_space_group_name_H-M "C 2/C"
_symmetry_group_IT_number 15
_symmetry_cell_setting 'monoclinic'
loop_
_space_group_symop_operation_xyz
x,y,z
-x,y,1/2-z
-x,-y,-z
x,-y,1/2+z
1/2+x,1/2+y,z
1/2-x,1/2+y,1/2-z
1/2-x,1/2-y,-z
1/2+x,1/2-y,1/2+z
loop_
_atom_site_type_symbol
_atom_site_label
_atom_site_fract_x
_atom_site_fract_y
_atom_site_fract_z
Si Si1 0.229949 0.478131 0.396346
Si Si2 0.123952 0.418860 0.672758
Si Si3 0.235810 0.090836 0.876582
Si Si4 0.500000 0.253011 0.250000
Si Si5 0.500000 0.136831 0.750000
Si Si6 0.765199 0.181738 0.339546
Si Si7 0.605992 0.252518 0.922764
O O1 0.129333 0.438428 0.488658
O O2 0.150583 0.519130 0.267466
O O3 0.288337 0.531057 0.513991
O O4 0.318911 0.431662 0.302966
O O5 0.240305 0.374930 0.718208
O O6 0.000000 0.393194 0.750000
O O7 0.383683 0.103611 0.835319
O O8 0.207613 0.150126 0.983253
O O9 0.631511 0.218333 0.317530
O O10 0.460878 0.281896 0.422210
O O11 0.558056 0.184269 0.889060
O O12 0.874504 0.219828 0.259110
O O13 0.750000 0.250000 0.000000
#
# Coordination Sequence:
#
# PCOD9256643 Si02
#       7
#     8   8   8   4   4   8   8
#     4   9  21  30  46  83 115 157 196 224 286 377
#     4  10  18  28  49  73 118 153 188 233 288 358
#     4  10  22  34  55  82 123 162 196 234 294 368
#     4  10  18  40  53  80 114 151 202 258 284 340
#     4  12  24  38  59  84 124 175 200 246 294 350
#     4  10  20  36  56  78 114 163 196 243 293 344
#     4  10  24  40  60  84 114 164 215 249 293 351
#
# _framework density 25.290686999999998
#
# number of rings (size 3 to 8) (size 9 to 14) (size 15 to 20)
#    0.000    2.000    2.500    0.500   14.000    0.667 
#    0.000    0.000    0.000    0.000    0.000    0.000 
#    0.000   64.000    0.000    0.000    0.000    0.000 
#
# Total GULP energy -133652.668619 kJ/mol
# GULP energy per Si atom -5568.861192 kJ/mol
# Density = 2.523312 g / cm^3
# Si number density = 25.290687 Si / 1000 Ang^3
#
#
#
# Elastic Constant Matrix: (Units=GPa)
#
#
# Indices 1 2 3 4 5 6 
#
# 1 50.5554 22.1074 7.6819 0.0000 -24.2546 0.0000
# 2 22.1074 108.0374 29.9022 0.0000 -19.1216 0.0000
# 3 7.6819 29.9022 165.0879 0.0000 -39.8521 0.0000
# 4 0.0000 0.0000 0.0000 45.3302 0.0000 -11.7939
# 5 -24.2546 -19.1216 -39.8521 0.0000 31.5502 0.0000
# 6 0.0000 0.0000 0.0000 -11.7939 0.0000 16.2314
#
#
#
# Elastic Compliance Matrix: (Units=1/GPa)
#
#
# Indices 1 2 3 4 5 6 
#
# 1 0.037656 -0.003351 0.007701 0.000000 0.036645 0.000000
# 2 -0.003351 0.010698 -0.001206 0.000000 0.002383 0.000000
# 3 0.007701 -0.001206 0.010316 0.000000 0.018219 0.000000
# 4 0.000000 0.000000 0.000000 0.027203 0.000000 0.019766
# 5 0.036645 0.002383 0.018219 0.000000 0.084324 0.000000
# 6 0.000000 0.000000 0.000000 0.019766 0.000000 0.075971
#
#
# Mechanical properties :
#
#
# Convention : Reuss Voigt Hill
#
# Bulk Modulus (GPa) = 15.39500 49.22930 32.31215
# Shear Modulus (GPa) = 19.11807 36.22166 27.66986
#
# Velocity S-wave (km/s) = 2.75241 3.78856 3.31127
# Velocity P-wave (km/s) = 4.02510 6.21653 5.23673
#
# Compressibility (1/GPa) = 0.06495613
#
# Stress axis : x y z
#
# Youngs Moduli (GPa) = 26.55594 93.47962 96.94074
#
# Poissons Ratio (x) = 0.31326 -0.74652
# Poissons Ratio (y) = 0.08899 0.11694
# Poissons Ratio (z) = -0.20450 0.11277
#
# Static dielectric constant tensor:
#      x y z
#    x 2.011740 0.000000 0.040740 
#    y 0.000000 2.021470 0.000000 
#    z 0.040740 0.000000 2.140350 
# 
# From -- ./inp_files/31970.got.cif
#   From: 2010.05.17/outbox.cif.g08.bks.cpg/sg15_16_cif.got.tgz:31970.got - 2010.06.03 18:47:42.
