data_PCOD9256170
_publ_section_title
;
Structure prediction by ZEFSAII (Michael W. Deem and Ramdas Pophale) SiO2 
 PCOD9256170
Probable space group: C 2/C
;
_chemical_formula_sum "Si O2"
_cell_formula_units_Z 48
_cell_length_a 13.194171
_cell_length_b 7.905345
_cell_length_c 17.848134
_cell_angle_alpha 90.000000
_cell_angle_beta 100.887974
_cell_angle_gamma 90.000000
_cell_volume 1828.127686
_symmetry_space_group_name_H-M "C 2/C"
_symmetry_group_IT_number 15
_symmetry_cell_setting 'monoclinic'
loop_
_space_group_symop_operation_xyz
x,y,z
-x,y,1/2-z
-x,-y,-z
x,-y,1/2+z
1/2+x,1/2+y,z
1/2-x,1/2+y,1/2-z
1/2-x,1/2-y,-z
1/2+x,1/2-y,1/2+z
loop_
_atom_site_type_symbol
_atom_site_label
_atom_site_fract_x
_atom_site_fract_y
_atom_site_fract_z
Si Si1 0.148047 0.314598 0.653394
Si Si2 0.131334 0.470484 0.502224
Si Si3 0.916119 0.691255 0.139066
Si Si4 0.443879 0.291006 0.907467
Si Si5 0.624427 0.513114 0.471172
Si Si6 0.228163 0.321575 0.213113
O O1 0.120639 0.318598 0.561592
O O2 0.208221 0.489149 0.681365
O O3 0.227449 0.178148 0.696884
O O4 0.036645 0.310497 0.678561
O O5 0.097169 0.524093 0.413949
O O6 0.083785 0.627027 0.545599
O O7 0.254033 0.475936 0.514155
O O8 0.905909 0.853742 0.084219
O O9 0.819320 0.724355 0.180469
O O10 0.565307 0.329621 0.924365
O O11 0.380298 0.269383 0.822315
O O12 0.405601 0.452752 0.949542
#
# Coordination Sequence:
#
# PCOD9256170 Si02
#       6
#     8   8   8   8   8   8
#     4  11  25  39  67  97 126 174 214 262 325 381
#     4  10  19  42  63  99 125 161 216 271 311 377
#     4  11  20  41  72  89 125 171 217 261 322 378
#     4   9  18  33  64  93 123 160 203 258 310 376
#     4  10  17  34  68  95 116 165 208 253 322 366
#     4  11  23  45  62  92 134 169 214 264 322 385
#
# _framework density 26.256368999999999
#
# number of rings (size 3 to 8) (size 9 to 14) (size 15 to 20)
#    0.000    1.667    5.000    2.000    2.333    0.000 
#    0.000    7.500    0.000    8.000    0.000    0.000 
#    0.000    0.000    0.000    0.000    0.000    0.000 
#
# Total GULP energy -134059.146122 kJ/mol
# GULP energy per Si atom -5585.797755 kJ/mol
# Density = 2.619661 g / cm^3
# Si number density = 26.256369 Si / 1000 Ang^3
#
#
#
# Elastic Constant Matrix: (Units=GPa)
#
#
# Indices 1 2 3 4 5 6 
#
# 1 86.6416 -17.6843 15.8811 0.0000 21.4775 0.0000
# 2 -17.6843 46.6151 -5.1097 0.0000 1.3103 0.0000
# 3 15.8811 -5.1097 98.8118 0.0000 39.9706 0.0000
# 4 0.0000 0.0000 0.0000 36.9577 0.0000 7.8557
# 5 21.4775 1.3103 39.9706 0.0000 49.6658 0.0000
# 6 0.0000 0.0000 0.0000 7.8557 0.0000 31.0038
#
#
#
# Elastic Compliance Matrix: (Units=1/GPa)
#
#
# Indices 1 2 3 4 5 6 
#
# 1 0.014290 0.005709 0.000829 0.000000 -0.006997 0.000000
# 2 0.005709 0.024015 0.002341 0.000000 -0.004987 0.000000
# 3 0.000829 0.002341 0.015239 0.000000 -0.012685 0.000000
# 4 0.000000 0.000000 0.000000 0.028598 0.000000 -0.007246
# 5 -0.006997 -0.004987 -0.012685 0.000000 0.033501 0.000000
# 6 0.000000 0.000000 0.000000 -0.007246 0.000000 0.034090
#
#
# Mechanical properties :
#
#
# Convention : Reuss Voigt Hill
#
# Bulk Modulus (GPa) = 14.02492 24.24918 19.13705
# Shear Modulus (GPa) = 32.10448 39.45754 35.78101
#
# Velocity S-wave (km/s) = 3.50055 3.88078 3.69556
# Velocity P-wave (km/s) = 4.65742 5.41629 5.05113
#
# Compressibility (1/GPa) = 0.07130164
#
# Stress axis : x y z
#
# Youngs Moduli (GPa) = 69.98125 41.64105 65.62026
#
# Poissons Ratio (x) = -0.23771 -0.05440
# Poissons Ratio (y) = -0.39949 -0.15365
# Poissons Ratio (z) = -0.05802 -0.09750
#
# Static dielectric constant tensor:
#      x y z
#    x 2.078360 0.000000 -0.029000 
#    y 0.000000 2.180840 0.000000 
#    z -0.029000 0.000000 2.132400 
# 
# From -- ./inp_files/236644.got.cif
#   From: 2010.05.17/outbox.cif.g08.bks.cpg/sg15_119_cif.got.tgz:236644.got - 2010.06.03 18:47:42.
