data_PCOD9256533
_publ_section_title
;
Structure prediction by ZEFSAII (Michael W. Deem and Ramdas Pophale) SiO2 
 PCOD9256533
Probable space group: C 2/C
;
_chemical_formula_sum "Si O2"
_cell_formula_units_Z 48
_cell_length_a 6.838618
_cell_length_b 22.794535
_cell_length_c 12.740900
_cell_angle_alpha 90.000000
_cell_angle_beta 103.253495
_cell_angle_gamma 90.000000
_cell_volume 1933.192218
_symmetry_space_group_name_H-M "C 2/C"
_symmetry_group_IT_number 15
_symmetry_cell_setting 'monoclinic'
loop_
_space_group_symop_operation_xyz
x,y,z
-x,y,1/2-z
-x,-y,-z
x,-y,1/2+z
1/2+x,1/2+y,z
1/2-x,1/2+y,1/2-z
1/2-x,1/2-y,-z
1/2+x,1/2-y,1/2+z
loop_
_atom_site_type_symbol
_atom_site_label
_atom_site_fract_x
_atom_site_fract_y
_atom_site_fract_z
Si Si1 0.758502 0.521871 0.208454
Si Si2 0.747437 0.382466 0.883552
Si Si3 0.757768 0.894871 0.377625
Si Si4 0.267298 0.117649 0.047724
Si Si5 0.690939 0.156179 0.668677
Si Si6 0.743088 0.784830 0.783001
O O1 0.697550 0.561107 0.302961
O O2 0.691518 0.456451 0.172400
O O3 0.709161 0.557943 0.097368
O O4 0.000000 0.518285 0.250000
O O5 0.703299 0.321359 0.816739
O O6 0.989101 0.383425 0.920910
O O7 0.671559 0.387593 0.993939
O O8 0.515056 0.882182 0.356258
O O9 0.807726 0.849675 0.292231
O O10 0.214517 0.168971 0.120485
O O11 0.203397 0.132551 0.922697
O O12 0.648770 0.225439 0.666520
O O13 0.500000 0.774920 0.750000
#
# Coordination Sequence:
#
# PCOD9256533 Si02
#       6
#     8   8   8   8   8   8
#     4   9  15  26  42  63  97 114 136 174 227 282
#     4   8  17  28  42  62  92 125 139 176 224 266
#     4  10  19  27  41  73  98 116 134 178 239 277
#     4   8  16  27  45  64  84 118 145 191 220 251
#     4  10  18  27  42  66  95 115 149 180 223 267
#     4   9  17  32  45  60  85 123 163 183 207 252
#
# _framework density 24.8294
#
# number of rings (size 3 to 8) (size 9 to 14) (size 15 to 20)
#    0.000    3.000    1.667    2.500    2.333    2.667 
#    0.000    0.000    0.000    0.000    0.000    1.167 
#   20.000    0.000    0.000    0.000    0.000    0.000 
#
# Total GULP energy -133929.090093 kJ/mol
# GULP energy per Si atom -5580.378754 kJ/mol
# Density = 2.477289 g / cm^3
# Si number density = 24.829400 Si / 1000 Ang^3
#
#
#
# Elastic Constant Matrix: (Units=GPa)
#
#
# Indices 1 2 3 4 5 6 
#
# 1 76.3954 -13.8648 19.8067 0.0000 17.3706 0.0000
# 2 -13.8648 124.8069 19.0630 0.0000 -9.5336 0.0000
# 3 19.8067 19.0630 174.5362 0.0000 -20.7209 0.0000
# 4 0.0000 0.0000 0.0000 46.0680 0.0000 22.5484
# 5 17.3706 -9.5336 -20.7209 0.0000 42.3006 0.0000
# 6 0.0000 0.0000 0.0000 22.5484 0.0000 11.3897
#
#
#
# Elastic Compliance Matrix: (Units=1/GPa)
#
#
# Indices 1 2 3 4 5 6 
#
# 1 0.015845 0.001622 -0.002871 0.000000 -0.007547 0.000000
# 2 0.001622 0.008403 -0.001015 0.000000 0.000731 0.000000
# 3 -0.002871 -0.001015 0.006667 0.000000 0.004216 0.000000
# 4 0.000000 0.000000 0.000000 0.700016 0.000000 -1.385835
# 5 -0.007547 0.000731 0.004216 0.000000 0.028969 0.000000
# 6 0.000000 0.000000 0.000000 -1.385835 0.000000 2.831362
#
#
# Mechanical properties :
#
#
# Convention : Reuss Voigt Hill
#
# Bulk Modulus (GPa) = 37.89838 47.30538 42.60188
# Shear Modulus (GPa) = 1.38712 43.33390 22.36051
#
# Velocity S-wave (km/s) = 0.74825 4.18217 3.00420
# Velocity P-wave (km/s) = 4.00539 6.51262 5.40636
#
# Compressibility (1/GPa) = 0.02638636
#
# Stress axis : x y z
#
# Youngs Moduli (GPa) = 63.11230 118.99875 149.99894
#
# Poissons Ratio (x) = -0.19304 0.43069
# Poissons Ratio (y) = -0.10238 0.15228
# Poissons Ratio (z) = 0.18122 0.12081
#
# Static dielectric constant tensor:
#      x y z
#    x 2.138320 0.000000 -0.026700 
#    y 0.000000 1.908760 0.000000 
#    z -0.026700 0.000000 1.973980 
# 
# From -- ./inp_files/88485.got.cif
#   From: 2010.05.17/outbox.cif.g08.bks.cpg/sg15_45_cif.got.tgz:88485.got - 2010.06.03 18:47:42.
