data_PCOD9256352
_publ_section_title
;
Structure prediction by ZEFSAII (Michael W. Deem and Ramdas Pophale) SiO2 
 PCOD9256352
Probable space group: C 2/C
;
_chemical_formula_sum "Si O2"
_cell_formula_units_Z 48
_cell_length_a 30.215812
_cell_length_b 10.898127
_cell_length_c 13.865536
_cell_angle_alpha 90.000000
_cell_angle_beta 23.730663
_cell_angle_gamma 90.000000
_cell_volume 1837.475318
_symmetry_space_group_name_H-M "C 2/C"
_symmetry_group_IT_number 15
_symmetry_cell_setting 'monoclinic'
loop_
_space_group_symop_operation_xyz
x,y,z
-x,y,1/2-z
-x,-y,-z
x,-y,1/2+z
1/2+x,1/2+y,z
1/2-x,1/2+y,1/2-z
1/2-x,1/2-y,-z
1/2+x,1/2-y,1/2+z
loop_
_atom_site_type_symbol
_atom_site_label
_atom_site_fract_x
_atom_site_fract_y
_atom_site_fract_z
Si Si1 0.887967 0.246014 0.660668
Si Si2 0.619462 0.967888 0.962716
Si Si3 0.946607 0.374565 0.066260
Si Si4 0.912343 0.877217 0.854136
Si Si5 0.222932 0.652752 0.419838
Si Si6 0.368971 0.508204 0.254047
O O1 0.849206 0.364572 0.679578
O O2 0.820539 0.122312 0.815436
O O3 0.950056 0.284126 0.634939
O O4 0.990204 0.200528 0.391333
O O5 0.500000 0.939337 0.250000
O O6 0.700795 0.958618 0.890119
O O7 0.601826 0.094052 0.940625
O O8 0.853447 0.347068 0.331559
O O9 0.000000 0.500000 0.000000
O O10 0.820389 0.770387 0.055404
O O11 0.000000 0.946457 0.750000
O O12 0.846200 0.960471 0.910600
O O13 0.336878 0.617005 0.244300
O O14 0.500000 0.500000 0.000000
#
# Coordination Sequence:
#
# PCOD9256352 Si02
#       6
#     8   8   8   8   8   8
#     4   9  17  36  56  87 126 163 192 260 327 359
#     4  11  17  35  67  92 117 161 222 265 305 378
#     4   9  18  33  61  91 121 159 213 261 313 366
#     4  10  17  36  63  85 114 163 215 258 304 373
#     4  11  19  37  62  94 117 168 219 258 310 381
#     4  10  23  37  55  86 133 165 202 261 320 377
#
# _framework density 26.122800000000002
#
# number of rings (size 3 to 8) (size 9 to 14) (size 15 to 20)
#    0.000    2.000    6.667    0.500    0.000    0.000 
#    6.000    7.500    0.000    0.000    0.000    0.000 
#    0.000    0.000    0.000    0.000    0.000    0.000 
#
# Total GULP energy -133624.731725 kJ/mol
# GULP energy per Si atom -5567.697155 kJ/mol
# Density = 2.606334 g / cm^3
# Si number density = 26.122800 Si / 1000 Ang^3
#
#
#
# Elastic Constant Matrix: (Units=GPa)
#
#
# Indices 1 2 3 4 5 6 
#
# 1 165.7306 25.8587 17.8569 0.0000 -23.4656 0.0000
# 2 25.8587 63.4010 -5.2549 0.0000 -1.5993 0.0000
# 3 17.8569 -5.2549 61.2753 0.0000 -13.4010 0.0000
# 4 0.0000 0.0000 0.0000 20.3639 0.0000 3.4448
# 5 -23.4656 -1.5993 -13.4010 0.0000 37.2071 0.0000
# 6 0.0000 0.0000 0.0000 3.4448 0.0000 55.6182
#
#
#
# Elastic Compliance Matrix: (Units=1/GPa)
#
#
# Indices 1 2 3 4 5 6 
#
# 1 0.007208 -0.002967 -0.001507 0.000000 0.003875 0.000000
# 2 -0.002967 0.017163 0.002267 0.000000 -0.000317 0.000000
# 3 -0.001507 0.002267 0.018201 0.000000 0.005702 0.000000
# 4 0.000000 0.000000 0.000000 0.049626 0.000000 -0.003074
# 5 0.003875 -0.000317 0.005702 0.000000 0.031361 0.000000
# 6 0.000000 0.000000 0.000000 -0.003074 0.000000 0.018170
#
#
# Mechanical properties :
#
#
# Convention : Reuss Voigt Hill
#
# Bulk Modulus (GPa) = 26.20775 40.81428 33.51101
# Shear Modulus (GPa) = 31.47387 39.43426 35.45406
#
# Velocity S-wave (km/s) = 3.47485 3.88954 3.68803
# Velocity P-wave (km/s) = 5.11407 5.98575 5.56700
#
# Compressibility (1/GPa) = 0.03815666
#
# Stress axis : x y z
#
# Youngs Moduli (GPa) = 138.73540 58.26603 54.94329
#
# Poissons Ratio (x) = 0.17288 0.08282
# Poissons Ratio (y) = 0.41163 -0.12457
# Poissons Ratio (z) = 0.20914 -0.13210
#
# Static dielectric constant tensor:
#      x y z
#    x 2.290470 0.000000 0.001260 
#    y 0.000000 2.180590 0.000000 
#    z 0.001260 0.000000 2.170760 
# 
# From -- ./inp_files/181720.got.cif
#   From: 2010.05.17/outbox.cif.g08.bks.cpg/sg15_91_cif.got.tgz:181720.got - 2010.06.03 18:47:42.
