data_PCOD9256535
_publ_section_title
;
Structure prediction by ZEFSAII (Michael W. Deem and Ramdas Pophale) SiO2 
 PCOD9256535
Probable space group: C 2/C
;
_chemical_formula_sum "Si O2"
_cell_formula_units_Z 48
_cell_length_a 20.677252
_cell_length_b 20.515934
_cell_length_c 8.448102
_cell_angle_alpha 90.000000
_cell_angle_beta 35.723935
_cell_angle_gamma 90.000000
_cell_volume 2092.508171
_symmetry_space_group_name_H-M "C 2/C"
_symmetry_group_IT_number 15
_symmetry_cell_setting 'monoclinic'
loop_
_space_group_symop_operation_xyz
x,y,z
-x,y,1/2-z
-x,-y,-z
x,-y,1/2+z
1/2+x,1/2+y,z
1/2-x,1/2+y,1/2-z
1/2-x,1/2-y,-z
1/2+x,1/2-y,1/2+z
loop_
_atom_site_type_symbol
_atom_site_label
_atom_site_fract_x
_atom_site_fract_y
_atom_site_fract_z
Si Si1 0.989503 0.425844 0.957510
Si Si2 0.359853 0.693889 0.135733
Si Si3 0.721065 0.071888 0.108825
Si Si4 0.739582 0.073030 0.443516
Si Si5 0.397983 0.763953 0.381901
Si Si6 0.150283 0.197640 0.702903
O O1 0.000000 0.426400 0.750000
O O2 0.104511 0.396618 0.786956
O O3 0.870757 0.399342 0.248820
O O4 0.000000 0.500000 0.000000
O O5 0.346491 0.620300 0.232975
O O6 0.409113 0.737534 0.179753
O O7 0.227506 0.709259 0.374574
O O8 0.402051 0.701681 0.871068
O O9 0.712744 0.066038 0.312757
O O10 0.810578 0.123303 0.875148
O O11 0.749402 0.000134 0.989265
O O12 0.500000 0.807390 0.250000
O O13 0.398946 0.712056 0.525861
O O14 0.250000 0.250000 0.500000
#
# Coordination Sequence:
#
# PCOD9256535 Si02
#       6
#     8   8   8   8   8   8
#     4  10  18  27  43  73 112 146 181 218 271 342
#     4   9  21  38  57  87 116 144 189 237 280 348
#     4  10  19  31  51  78 109 152 184 233 284 340
#     4  10  19  31  51  77 112 147 184 230 285 341
#     4  10  21  38  63  84 112 152 190 235 288 336
#     4   9  20  37  57  80 115 146 192 235 279 339
#
# _framework density 22.938977999999999
#
# number of rings (size 3 to 8) (size 9 to 14) (size 15 to 20)
#    0.000    2.333    0.000    4.500    4.667    4.667 
#    0.000    0.000    0.000    1.000    0.000    0.000 
#    0.000    0.000    0.000    0.000    0.000    0.000 
#
# Total GULP energy -133693.972637 kJ/mol
# GULP energy per Si atom -5570.582193 kJ/mol
# Density = 2.288677 g / cm^3
# Si number density = 22.938978 Si / 1000 Ang^3
#
#
#
# Elastic Constant Matrix: (Units=GPa)
#
#
# Indices 1 2 3 4 5 6 
#
# 1 104.5217 25.4466 8.5599 0.0000 8.3959 0.0000
# 2 25.4466 63.5999 19.3907 0.0000 14.3304 0.0000
# 3 8.5599 19.3907 101.6317 0.0000 47.7747 0.0000
# 4 0.0000 0.0000 0.0000 28.8249 0.0000 18.3666
# 5 8.3959 14.3304 47.7747 0.0000 41.2675 0.0000
# 6 0.0000 0.0000 0.0000 18.3666 0.0000 21.2212
#
#
#
# Elastic Compliance Matrix: (Units=1/GPa)
#
#
# Indices 1 2 3 4 5 6 
#
# 1 0.010633 -0.004111 0.000515 0.000000 -0.001332 0.000000
# 2 -0.004111 0.018697 -0.001233 0.000000 -0.004228 0.000000
# 3 0.000515 -0.001233 0.021675 0.000000 -0.024769 0.000000
# 4 0.000000 0.000000 0.000000 0.077347 0.000000 -0.066943
# 5 -0.001332 -0.004228 -0.024769 0.000000 0.054646 0.000000
# 6 0.000000 0.000000 0.000000 -0.066943 0.000000 0.105061
#
#
# Mechanical properties :
#
#
# Convention : Reuss Voigt Hill
#
# Bulk Modulus (GPa) = 24.18655 41.83863 33.01259
# Shear Modulus (GPa) = 16.05139 32.68646 24.36893
#
# Velocity S-wave (km/s) = 2.64814 3.77892 3.26289
# Velocity P-wave (km/s) = 4.46284 6.10893 5.34958
#
# Compressibility (1/GPa) = 0.04134528
#
# Stress axis : x y z
#
# Youngs Moduli (GPa) = 94.04578 53.48447 46.13678
#
# Poissons Ratio (x) = 0.21989 -0.02375
# Poissons Ratio (y) = 0.38665 0.05690
# Poissons Ratio (z) = -0.04842 0.06596
#
# Static dielectric constant tensor:
#      x y z
#    x 1.918420 0.000000 -0.163920 
#    y 0.000000 1.915500 0.000000 
#    z -0.163920 0.000000 2.073100 
# 
# From -- ./inp_files/58402.got.cif
#   From: 2010.05.17/outbox.cif.g08.bks.cpg/sg15_30_cif.got.tgz:58402.got - 2010.06.03 18:47:42.
