data_PCOD9256310
_publ_section_title
;
Structure prediction by ZEFSAII (Michael W. Deem and Ramdas Pophale) SiO2 
 PCOD9256310
Probable space group: C 2/C
;
_chemical_formula_sum "Si O2"
_cell_formula_units_Z 48
_cell_length_a 6.962779
_cell_length_b 12.324890
_cell_length_c 23.004880
_cell_angle_alpha 90.000000
_cell_angle_beta 109.893082
_cell_angle_gamma 90.000000
_cell_volume 1856.374379
_symmetry_space_group_name_H-M "C 2/C"
_symmetry_group_IT_number 15
_symmetry_cell_setting 'monoclinic'
loop_
_space_group_symop_operation_xyz
x,y,z
-x,y,1/2-z
-x,-y,-z
x,-y,1/2+z
1/2+x,1/2+y,z
1/2-x,1/2+y,1/2-z
1/2-x,1/2-y,-z
1/2+x,1/2-y,1/2+z
loop_
_atom_site_type_symbol
_atom_site_label
_atom_site_fract_x
_atom_site_fract_y
_atom_site_fract_z
Si Si1 0.744603 0.643884 0.674453
Si Si2 0.237945 0.871524 0.865729
Si Si3 0.569733 0.165474 0.995062
Si Si4 0.774838 0.402897 0.303714
Si Si5 0.304773 0.515726 0.938118
Si Si6 0.317415 0.294014 0.885127
O O1 0.726025 0.773496 0.675547
O O2 0.686718 0.591336 0.729542
O O3 0.630634 0.599114 0.606043
O O4 0.980611 0.613567 0.683016
O O5 0.397334 0.861130 0.934999
O O6 0.022216 0.837778 0.873399
O O7 0.238797 0.988164 0.836117
O O8 0.750000 0.250000 0.000000
O O9 0.373406 0.223769 0.948348
O O10 0.629122 0.065427 0.960206
O O11 0.714835 0.292907 0.331858
O O12 0.231154 0.407711 0.897846
O O13 0.500000 0.500000 0.000000
#
# Coordination Sequence:
#
# PCOD9256310 Si02
#       6
#     8   8   8   8   8   8
#     4  10  22  40  60  87 117 164 197 245 305 344
#     4  10  19  38  64  84 119 157 193 247 297 347
#     4  10  17  36  58  91 116 155 194 236 306 347
#     4  10  22  40  61  87 120 159 207 240 293 369
#     4  12  19  36  66  89 123 155 196 255 299 353
#     4  10  21  38  62  89 118 157 200 241 304 359
#
# _framework density 25.856853999999998
#
# number of rings (size 3 to 8) (size 9 to 14) (size 15 to 20)
#    0.000    1.667    8.333    0.000    2.333    0.667 
#    0.000    2.500    0.000    0.000    0.000    0.000 
#    0.000    0.000    0.000    0.000    0.000    0.000 
#
# Total GULP energy -134432.072413 kJ/mol
# GULP energy per Si atom -5601.336351 kJ/mol
# Density = 2.579800 g / cm^3
# Si number density = 25.856854 Si / 1000 Ang^3
#
#
#
# Elastic Constant Matrix: (Units=GPa)
#
#
# Indices 1 2 3 4 5 6 
#
# 1 67.3448 38.3504 15.8225 0.0000 -20.7027 0.0000
# 2 38.3504 191.3782 47.6827 0.0000 -11.3194 0.0000
# 3 15.8225 47.6827 129.0508 0.0000 -13.1547 0.0000
# 4 0.0000 0.0000 0.0000 47.2765 0.0000 -7.9690
# 5 -20.7027 -11.3194 -13.1547 0.0000 27.0410 0.0000
# 6 0.0000 0.0000 0.0000 -7.9690 0.0000 40.2032
#
#
#
# Elastic Compliance Matrix: (Units=1/GPa)
#
#
# Indices 1 2 3 4 5 6 
#
# 1 0.021383 -0.003442 0.000181 0.000000 0.015018 0.000000
# 2 -0.003442 0.006363 -0.002027 0.000000 -0.000957 0.000000
# 3 0.000181 -0.002027 0.008842 0.000000 0.003591 0.000000
# 4 0.000000 0.000000 0.000000 0.021883 0.000000 0.004338
# 5 0.015018 -0.000957 0.003591 0.000000 0.049825 0.000000
# 6 0.000000 0.000000 0.000000 0.004338 0.000000 0.025733
#
#
# Mechanical properties :
#
#
# Convention : Reuss Voigt Hill
#
# Bulk Modulus (GPa) = 38.44254 65.72056 52.08155
# Shear Modulus (GPa) = 32.62075 41.96535 37.29305
#
# Velocity S-wave (km/s) = 3.55574 4.03300 3.80187
# Velocity P-wave (km/s) = 5.63537 6.86725 6.28158
#
# Compressibility (1/GPa) = 0.02601285
#
# Stress axis : x y z
#
# Youngs Moduli (GPa) = 46.76549 157.15091 113.10105
#
# Poissons Ratio (x) = 0.54088 -0.02045
# Poissons Ratio (y) = 0.16096 0.22923
# Poissons Ratio (z) = -0.00846 0.31851
#
# Static dielectric constant tensor:
#      x y z
#    x 2.137270 0.000000 0.033590 
#    y 0.000000 2.020130 0.000000 
#    z 0.033590 0.000000 2.013860 
# 
# From -- ./inp_files/263563.got.cif
#   From: 2010.05.17/outbox.cif.g08.bks.cpg/sg15_132_cif.got.tgz:263563.got - 2010.06.03 18:47:42.
