data_PCOD9256486
_publ_section_title
;
Structure prediction by ZEFSAII (Michael W. Deem and Ramdas Pophale) SiO2 
 PCOD9256486
Probable space group: C 2/C
;
_chemical_formula_sum "Si O2"
_cell_formula_units_Z 60
_cell_length_a 14.435409
_cell_length_b 19.471189
_cell_length_c 21.725636
_cell_angle_alpha 90.000000
_cell_angle_beta 147.360288
_cell_angle_gamma 90.000000
_cell_volume 3293.581559
_symmetry_space_group_name_H-M "C 2/C"
_symmetry_group_IT_number 15
_symmetry_cell_setting 'monoclinic'
loop_
_space_group_symop_operation_xyz
x,y,z
-x,y,1/2-z
-x,-y,-z
x,-y,1/2+z
1/2+x,1/2+y,z
1/2-x,1/2+y,1/2-z
1/2-x,1/2-y,-z
1/2+x,1/2-y,1/2+z
loop_
_atom_site_type_symbol
_atom_site_label
_atom_site_fract_x
_atom_site_fract_y
_atom_site_fract_z
Si Si1 0.000000 0.076430 0.250000
Si Si2 0.229267 0.529263 0.574639
Si Si3 0.647872 0.000048 0.674077
Si Si4 0.691632 0.318454 0.349506
Si Si5 0.268631 0.850383 0.249208
Si Si6 0.548019 0.243537 0.065462
Si Si7 0.681953 0.361113 0.737594
Si Si8 0.426514 0.752897 0.062088
O O1 0.888771 0.121898 0.233721
O O2 0.877254 0.025464 0.142325
O O3 0.189461 0.514418 0.624822
O O4 0.291089 0.607869 0.606443
O O5 0.055013 0.516272 0.439874
O O6 0.697419 0.069078 0.737071
O O7 0.755757 0.933566 0.754090
O O8 0.500000 0.291082 0.250000
O O9 0.723640 0.333935 0.295312
O O10 0.845476 0.269521 0.457448
O O11 0.118584 0.817490 0.124596
O O12 0.443955 0.808138 0.335195
O O13 0.653446 0.188472 0.164863
O O14 0.598072 0.228358 0.022824
O O15 0.530854 0.318839 0.620904
O O16 0.250000 0.750000 0.000000
#
# Coordination Sequence:
#
# PCOD9256486 Si02
#       8
#     4   8   8   8   8   8   8   8
#     4  10  18  24  48  78 106 126 166 212 272 316
#     4   9  16  26  46  74 104 127 158 219 268 302
#     4   9  17  30  48  70 102 135 169 211 262 308
#     4  10  18  32  52  78 103 131 173 218 264 317
#     4   9  21  34  50  75 106 138 171 212 270 314
#     4  10  20  37  51  71 108 142 171 218 266 318
#     4  10  19  31  50  76 102 137 172 209 268 320
#     4  10  21  34  53  78 106 138 179 219 261 318
#
# _framework density 18.217251000000001
#
# number of rings (size 3 to 8) (size 9 to 14) (size 15 to 20)
#    0.000    2.400    2.000    0.800    7.467    2.133 
#    0.000    0.667    0.000    0.000    0.000    0.000 
#    0.000    0.000    0.000    0.000    0.000    0.000 
#
# Total GULP energy -167264.959421 kJ/mol
# GULP energy per Si atom -5575.498647 kJ/mol
# Density = 1.817579 g / cm^3
# Si number density = 18.217251 Si / 1000 Ang^3
#
#
#
# Elastic Constant Matrix: (Units=GPa)
#
#
# Indices 1 2 3 4 5 6 
#
# 1 31.9309 8.5542 24.2045 -0.0001 28.4934 0.0001
# 2 8.5542 92.0704 40.9317 -0.0013 19.2094 -0.0001
# 3 24.2045 40.9317 89.7630 -0.0046 33.8759 -0.0002
# 4 -0.0001 -0.0013 -0.0046 29.5817 -0.0008 -0.3222
# 5 28.4934 19.2094 33.8759 -0.0008 31.2935 0.0002
# 6 0.0001 -0.0001 -0.0002 -0.3222 0.0002 15.5360
#
#
#
# Elastic Compliance Matrix: (Units=1/GPa)
#
#
# Indices 1 2 3 4 5 6 
#
# 1 0.217883 0.019250 0.019949 -0.000002 -0.231799 0.000002
# 2 0.019250 0.015467 -0.003459 0.000000 -0.023278 0.000000
# 3 0.019949 -0.003459 0.022642 0.000002 -0.040552 0.000001
# 4 -0.000002 0.000000 0.000002 0.033812 0.000000 0.000701
# 5 -0.231799 -0.023278 -0.040552 0.000000 0.301201 -0.000003
# 6 0.000002 0.000000 0.000001 0.000701 -0.000003 0.064381
#
#
# Mechanical properties :
#
#
# Convention : Reuss Voigt Hill
#
# Bulk Modulus (GPa) = 3.05368 40.12725 21.59047
# Shear Modulus (GPa) = 7.21434 24.62048 15.91741
#
# Velocity S-wave (km/s) = 1.99218 3.68025 2.95914
# Velocity P-wave (km/s) = 2.64038 6.33513 4.85312
#
# Compressibility (1/GPa) = 0.32747340
#
# Stress axis : x y z
#
# Youngs Moduli (GPa) = 4.58962 64.65340 44.16492
#
# Poissons Ratio (x) = -1.24458 -0.88106
# Poissons Ratio (y) = -0.08835 0.15276
# Poissons Ratio (z) = -0.09156 0.22363
#
# Static dielectric constant tensor:
#      x y z
#    x 1.622640 0.000000 0.019450 
#    y 0.000000 1.643920 0.000000 
#    z 0.019450 0.000000 1.638480 
# 
# From -- ./inp_files/245455.got.cif
#   From: 2010.05.17/outbox.cif.g08.bks.cpg/sg15_123_cif.got.tgz:245455.got - 2010.06.03 18:47:42.
