data_PCOD9256609
_publ_section_title
;
Structure prediction by ZEFSAII (Michael W. Deem and Ramdas Pophale) SiO2 
 PCOD9256609
Probable space group: C 2/C
;
_chemical_formula_sum "Si O2"
_cell_formula_units_Z 56
_cell_length_a 21.202185
_cell_length_b 29.242171
_cell_length_c 14.026673
_cell_angle_alpha 90.000000
_cell_angle_beta 160.448330
_cell_angle_gamma 90.000000
_cell_volume 2910.345637
_symmetry_space_group_name_H-M "C 2/C"
_symmetry_group_IT_number 15
_symmetry_cell_setting 'monoclinic'
loop_
_space_group_symop_operation_xyz
x,y,z
-x,y,1/2-z
-x,-y,-z
x,-y,1/2+z
1/2+x,1/2+y,z
1/2-x,1/2+y,1/2-z
1/2-x,1/2-y,-z
1/2+x,1/2-y,1/2+z
loop_
_atom_site_type_symbol
_atom_site_label
_atom_site_fract_x
_atom_site_fract_y
_atom_site_fract_z
Si Si1 0.324169 0.798858 0.572904
Si Si2 0.591880 0.966509 0.014671
Si Si3 0.569775 0.638072 0.587566
Si Si4 0.826678 0.125516 0.074154
Si Si5 0.607873 0.460843 0.211361
Si Si6 0.936959 0.631592 0.970213
Si Si7 0.243045 0.022016 0.554910
O O1 0.500000 0.793831 0.750000
O O2 0.250000 0.750000 0.500000
O O3 0.149227 0.824800 0.273694
O O4 0.413757 0.831057 0.782871
O O5 0.457709 0.009994 0.831943
O O6 0.689067 0.960410 0.051958
O O7 0.490265 0.919777 0.904464
O O8 0.751960 0.972625 0.324368
O O9 0.388340 0.647504 0.262258
O O10 0.534253 0.590086 0.590798
O O11 0.749252 0.632848 0.770507
O O12 0.000000 0.135595 0.250000
O O13 0.639606 0.137222 0.746787
O O14 0.819721 0.070479 0.076773
O O15 0.631497 0.480146 0.350466
O O16 0.500000 0.500000 0.000000
#
# Coordination Sequence:
#
# PCOD9256609 Si02
#       7
#     8   8   8   8   8   8   8
#     4  10  20  36  61  80 102 132 172 221 276 328
#     4   9  19  31  45  70 101 137 184 211 244 313
#     4   9  17  31  50  77  99 133 176 218 257 308
#     4   9  16  29  50  74 100 128 177 219 245 295
#     4  11  19  28  49  74 103 137 178 216 252 295
#     4   8  16  31  53  73  95 132 173 222 258 300
#     4  10  18  28  46  66 100 138 168 215 255 285
#
# _framework density 19.241702
#
# number of rings (size 3 to 8) (size 9 to 14) (size 15 to 20)
#    0.000    2.571    1.429    2.143    0.000    2.286 
#    0.000    0.714   12.571    0.000    0.000    0.000 
#    0.000    0.000    0.000    0.000    0.000    0.000 
#
# Total GULP energy -155966.626546 kJ/mol
# GULP energy per Si atom -5570.236662 kJ/mol
# Density = 1.919791 g / cm^3
# Si number density = 19.241702 Si / 1000 Ang^3
#
#
#
# Elastic Constant Matrix: (Units=GPa)
#
#
# Indices 1 2 3 4 5 6 
#
# 1 36.7062 31.8971 28.3443 -0.0001 -21.5751 0.0000
# 2 31.8971 102.5346 58.0559 0.0000 -25.3353 0.0000
# 3 28.3443 58.0559 104.4318 -0.0002 -30.2840 0.0000
# 4 -0.0001 0.0000 -0.0002 28.6709 -0.0001 1.2768
# 5 -21.5751 -25.3353 -30.2840 -0.0001 30.9447 0.0000
# 6 0.0000 0.0000 0.0000 1.2768 0.0000 25.1149
#
#
#
# Elastic Compliance Matrix: (Units=1/GPa)
#
#
# Indices 1 2 3 4 5 6 
#
# 1 0.052211 -0.008586 -0.001229 0.000000 0.028170 0.000000
# 2 -0.008586 0.016337 -0.006435 0.000000 0.001092 0.000000
# 3 -0.001229 -0.006435 0.016351 0.000000 0.009876 0.000000
# 4 0.000000 0.000000 0.000000 0.034958 0.000000 -0.001777
# 5 0.028170 0.001092 0.009876 0.000000 0.062515 0.000000
# 6 0.000000 0.000000 0.000000 -0.001777 0.000000 0.039907
#
#
# Mechanical properties :
#
#
# Convention : Reuss Voigt Hill
#
# Bulk Modulus (GPa) = 19.08431 53.36303 36.22367
# Shear Modulus (GPa) = 18.36580 25.30446 21.83513
#
# Velocity S-wave (km/s) = 3.09282 3.63034 3.37231
# Velocity P-wave (km/s) = 4.76380 6.73541 5.83350
#
# Compressibility (1/GPa) = 0.05239907
#
# Stress axis : x y z
#
# Youngs Moduli (GPa) = 19.15305 61.20997 61.15995
#
# Poissons Ratio (x) = 0.52554 0.07515
# Poissons Ratio (y) = 0.16444 0.39358
# Poissons Ratio (z) = 0.02353 0.39391
#
# Static dielectric constant tensor:
#      x y z
#    x 1.691930 0.000000 -0.020570 
#    y 0.000000 1.642820 0.000000 
#    z -0.020570 0.000000 1.774320 
# 
# From -- ./inp_files/174890.got.cif
#   From: 2010.05.17/outbox.cif.g08.bks.cpg/sg15_88_cif.got.tgz:174890.got - 2010.06.03 18:47:42.
