data_PCOD9256839
_publ_section_title
;
Structure prediction by ZEFSAII (Michael W. Deem and Ramdas Pophale) SiO2 
 PCOD9256839
Probable space group: C 2/C
;
_chemical_formula_sum "Si O2"
_cell_formula_units_Z 52
_cell_length_a 13.495135
_cell_length_b 13.459064
_cell_length_c 22.978695
_cell_angle_alpha 90.000000
_cell_angle_beta 44.162698
_cell_angle_gamma 90.000000
_cell_volume 2907.784055
_symmetry_space_group_name_H-M "C 2/C"
_symmetry_group_IT_number 15
_symmetry_cell_setting 'monoclinic'
loop_
_space_group_symop_operation_xyz
x,y,z
-x,y,1/2-z
-x,-y,-z
x,-y,1/2+z
1/2+x,1/2+y,z
1/2-x,1/2+y,1/2-z
1/2-x,1/2-y,-z
1/2+x,1/2-y,1/2+z
loop_
_atom_site_type_symbol
_atom_site_label
_atom_site_fract_x
_atom_site_fract_y
_atom_site_fract_z
Si Si1 0.791997 0.582206 0.472024
Si Si2 0.560700 0.985135 0.785266
Si Si3 0.233797 0.272912 0.421375
Si Si4 0.304702 0.625630 0.726823
Si Si5 0.797291 0.822282 0.681268
Si Si6 0.500000 0.352402 0.250000
Si Si7 0.002886 0.998534 0.569426
O O1 0.821015 0.630079 0.522593
O O2 0.727607 0.675650 0.463417
O O3 0.664018 0.504080 0.524104
O O4 0.930870 0.544867 0.381027
O O5 0.500000 0.026119 0.750000
O O6 0.658067 0.889870 0.727769
O O7 0.665625 0.060080 0.773794
O O8 0.162452 0.245662 0.390854
O O9 0.399189 0.291289 0.335834
O O10 0.254623 0.740600 0.750177
O O11 0.386931 0.598702 0.752958
O O12 0.415397 0.593881 0.630093
O O13 0.921717 0.903869 0.632025
O O14 0.000000 0.000000 0.500000
#
# Coordination Sequence:
#
# PCOD9256839 Si02
#       7
#     8   8   8   8   8   4   8
#     4  11  19  30  53  88 114 141 190 243 295 336
#     4  11  21  37  58  87 116 149 196 244 292 350
#     4  10  18  29  56  84 112 141 190 248 288 335
#     4  10  22  37  60  84 118 158 193 241 294 359
#     4  10  21  36  57  83 114 157 194 236 297 349
#     4  10  18  36  54  80 114 158 192 226 294 346
#     4  11  20  35  57  92 118 147 197 251 293 341
#
# _framework density 17.883033999999999
#
# number of rings (size 3 to 8) (size 9 to 14) (size 15 to 20)
#    0.000    1.538    4.615    2.769    3.231    0.000 
#    0.000    3.846    6.769    0.000    0.000    0.000 
#    0.000    0.000    0.000    0.000    0.000    0.000 
#
# Total GULP energy -144742.474193 kJ/mol
# GULP energy per Si atom -5567.018238 kJ/mol
# Density = 1.784233 g / cm^3
# Si number density = 17.883034 Si / 1000 Ang^3
#
#
#
# Elastic Constant Matrix: (Units=GPa)
#
#
# Indices 1 2 3 4 5 6 
#
# 1 78.6979 49.4026 35.8151 0.0000 -13.9314 0.0000
# 2 49.4026 61.7480 33.8703 0.0000 0.8137 0.0000
# 3 35.8151 33.8703 105.8479 0.0000 -11.4793 0.0000
# 4 0.0000 0.0000 0.0000 26.3764 0.0000 0.7265
# 5 -13.9314 0.8137 -11.4793 0.0000 26.3485 0.0000
# 6 0.0000 0.0000 0.0000 0.7265 0.0000 24.2588
#
#
#
# Elastic Compliance Matrix: (Units=1/GPa)
#
#
# Indices 1 2 3 4 5 6 
#
# 1 0.032212 -0.025546 -0.000832 0.000000 0.017458 0.000000
# 2 -0.025546 0.040216 -0.006113 0.000000 -0.017412 0.000000
# 3 -0.000832 -0.006113 0.012236 0.000000 0.005080 0.000000
# 4 0.000000 0.000000 0.000000 0.037944 0.000000 -0.001136
# 5 0.017458 -0.017412 0.005080 0.000000 0.049935 0.000000
# 6 0.000000 0.000000 0.000000 -0.001136 0.000000 0.041256
#
#
# Mechanical properties :
#
#
# Convention : Reuss Voigt Hill
#
# Bulk Modulus (GPa) = 50.80617 53.82997 52.31807
# Shear Modulus (GPa) = 17.52285 23.87713 20.69999
#
# Velocity S-wave (km/s) = 3.13367 3.65798 3.40593
# Velocity P-wave (km/s) = 6.44710 6.92875 6.69226
#
# Compressibility (1/GPa) = 0.01968265
#
# Stress axis : x y z
#
# Youngs Moduli (GPa) = 31.04407 24.86571 81.72578
#
# Poissons Ratio (x) = 0.63522 0.06797
# Poissons Ratio (y) = 0.79305 0.49962
# Poissons Ratio (z) = 0.02582 0.15201
#
# Static dielectric constant tensor:
#      x y z
#    x 1.643360 0.000000 0.024860 
#    y 0.000000 1.637650 0.000000 
#    z 0.024860 0.000000 1.643810 
# 
# From -- ./inp_files/204883.got.cif
#   From: 2010.05.17/outbox.cif.g08.bks.cpg/sg15_103_cif.got.tgz:204883.got - 2010.06.03 18:47:42.
