data_PCOD9256712
_publ_section_title
;
Structure prediction by ZEFSAII (Michael W. Deem and Ramdas Pophale) SiO2 
 PCOD9256712
Probable space group: C 2/C
;
_chemical_formula_sum "Si O2"
_cell_formula_units_Z 36
_cell_length_a 31.720184
_cell_length_b 15.628362
_cell_length_c 5.029429
_cell_angle_alpha 90.000000
_cell_angle_beta 101.649533
_cell_angle_gamma 90.000000
_cell_volume 2441.902989
_symmetry_space_group_name_H-M "C 2/C"
_symmetry_group_IT_number 15
_symmetry_cell_setting 'monoclinic'
loop_
_space_group_symop_operation_xyz
x,y,z
-x,y,1/2-z
-x,-y,-z
x,-y,1/2+z
1/2+x,1/2+y,z
1/2-x,1/2+y,1/2-z
1/2-x,1/2-y,-z
1/2+x,1/2-y,1/2+z
loop_
_atom_site_type_symbol
_atom_site_label
_atom_site_fract_x
_atom_site_fract_y
_atom_site_fract_z
Si Si1 0.093611 0.060967 0.320336
Si Si2 0.323287 0.669282 0.935008
Si Si3 0.759630 0.556469 0.729726
Si Si4 0.000000 0.062735 0.250000
Si Si5 0.296370 0.769777 0.427404
O O1 0.132761 0.123807 0.427716
O O2 0.096262 0.982554 0.534385
O O3 0.046857 0.105875 0.299593
O O4 0.288053 0.597858 0.805144
O O5 0.303743 0.717495 0.166362
O O6 0.328203 0.735143 0.695812
O O7 0.764101 0.478057 0.937891
O O8 0.793377 0.369348 0.348495
O O9 0.000000 0.000000 0.500000
O O10 0.250000 0.750000 0.500000
#
# Coordination Sequence:
#
# PCOD9256712 Si02
#       5
#     8   8   8   4   8
#     4  10  18  29  44  65  87 115 148 177 204 244
#     4  11  19  30  44  61  84 112 144 177 207 246
#     4  11  19  29  43  59  78 108 144 176 203 242
#     4   8  16  28  42  60  88 114 138 172 212 242
#     4  10  20  32  42  58  84 111 138 177 221 247
#
# _framework density 14.742599999999999
#
# number of rings (size 3 to 8) (size 9 to 14) (size 15 to 20)
#    0.000    1.778    0.000    9.333    0.000    0.000 
#    0.000    0.000    0.000    0.000    0.000    0.000 
#    0.000    0.000    0.000   20.000    0.000    0.000 
#
# Total GULP energy -100317.451208 kJ/mol
# GULP energy per Si atom -5573.191734 kJ/mol
# Density = 1.470905 g / cm^3
# Si number density = 14.742600 Si / 1000 Ang^3
#
#
#
# Elastic Constant Matrix: (Units=GPa)
#
#
# Indices 1 2 3 4 5 6 
#
# 1 54.7078 25.1018 -1.6744 0.0000 11.1709 0.0000
# 2 25.1018 44.9644 4.6535 0.0000 4.6582 0.0000
# 3 -1.6744 4.6535 70.9969 0.0000 -1.4882 0.0000
# 4 0.0000 0.0000 0.0000 34.5221 0.0000 0.6100
# 5 11.1709 4.6582 -1.4882 0.0000 18.1216 0.0000
# 6 0.0000 0.0000 0.0000 0.6100 0.0000 14.9131
#
#
#
# Elastic Compliance Matrix: (Units=1/GPa)
#
#
# Indices 1 2 3 4 5 6 
#
# 1 0.027492 -0.014113 0.001296 0.000000 -0.013213 0.000000
# 2 -0.014113 0.030282 -0.002302 0.000000 0.000727 0.000000
# 3 0.001296 -0.002302 0.014287 0.000000 0.000966 0.000000
# 4 0.000000 0.000000 0.000000 0.028988 0.000000 -0.001186
# 5 -0.013213 0.000727 0.000966 0.000000 0.063220 0.000000
# 6 0.000000 0.000000 0.000000 -0.001186 0.000000 0.067103
#
#
# Mechanical properties :
#
#
# Convention : Reuss Voigt Hill
#
# Bulk Modulus (GPa) = 23.91056 25.20341 24.55698
# Shear Modulus (GPa) = 18.14543 23.01723 20.58133
#
# Velocity S-wave (km/s) = 3.51210 3.95558 3.74042
# Velocity P-wave (km/s) = 5.71843 6.16400 5.94539
#
# Compressibility (1/GPa) = 0.04182253
#
# Stress axis : x y z
#
# Youngs Moduli (GPa) = 36.37395 33.02334 69.99435
#
# Poissons Ratio (x) = 0.46606 -0.09075
# Poissons Ratio (y) = 0.51335 0.16116
# Poissons Ratio (z) = -0.04716 0.07603
#
# Static dielectric constant tensor:
#      x y z
#    x 1.511100 0.000000 0.011980 
#    y 0.000000 1.486690 0.000000 
#    z 0.011980 0.000000 1.514090 
# 
# From -- ./inp_files/16784.got.cif
#   From: 2010.05.17/outbox.cif.g08.bks.cpg/sg15_9_cif.got.tgz:16784.got - 2010.06.03 18:47:42.
