data_PCOD9256877
_publ_section_title
;
Structure prediction by ZEFSAII (Michael W. Deem and Ramdas Pophale) SiO2 
 PCOD9256877
Probable space group: C 2/C
;
_chemical_formula_sum "Si O2"
_cell_formula_units_Z 48
_cell_length_a 14.767450
_cell_length_b 27.441974
_cell_length_c 10.759464
_cell_angle_alpha 90.000000
_cell_angle_beta 30.977098
_cell_angle_gamma 90.000000
_cell_volume 2244.201201
_symmetry_space_group_name_H-M "C 2/C"
_symmetry_group_IT_number 15
_symmetry_cell_setting 'monoclinic'
loop_
_space_group_symop_operation_xyz
x,y,z
-x,y,1/2-z
-x,-y,-z
x,-y,1/2+z
1/2+x,1/2+y,z
1/2-x,1/2+y,1/2-z
1/2-x,1/2-y,-z
1/2+x,1/2-y,1/2+z
loop_
_atom_site_type_symbol
_atom_site_label
_atom_site_fract_x
_atom_site_fract_y
_atom_site_fract_z
Si Si1 0.694824 0.443538 0.062665
Si Si2 0.657072 0.695998 0.742904
Si Si3 0.225918 0.898908 0.298410
Si Si4 0.750414 0.807033 0.646413
Si Si5 0.106817 0.406284 0.904004
Si Si6 0.599182 0.538237 0.288073
O O1 0.500000 0.424627 0.250000
O O2 0.739387 0.422175 0.144236
O O3 0.673693 0.501591 0.097655
O O4 0.836981 0.428766 0.794993
O O5 0.711018 0.658287 0.785691
O O6 0.688497 0.751960 0.741624
O O7 0.759607 0.685996 0.491924
O O8 0.453168 0.688821 0.948560
O O9 0.049568 0.921658 0.561568
O O10 0.400439 0.911932 0.168091
O O11 0.648155 0.849029 0.839068
O O12 0.237722 0.433710 0.842490
O O13 0.500000 0.500000 0.500000
#
# Coordination Sequence:
#
# PCOD9256877 Si02
#       6
#     8   8   8   8   8   8
#     4  11  20  37  53  72 104 143 178 226 268 311
#     4  10  18  30  46  74 103 139 176 212 250 314
#     4  11  21  34  53  75 106 144 180 218 265 313
#     4  10  19  29  48  72 105 138 177 211 252 316
#     4  12  21  36  54  75 108 146 178 222 267 315
#     4  10  22  37  52  73 104 143 184 226 263 317
#
# _framework density 21.388456999999999
#
# number of rings (size 3 to 8) (size 9 to 14) (size 15 to 20)
#    0.000    1.333    6.667    1.500    0.000    4.000 
#    3.000    0.000    0.000    0.000    0.000    0.000 
#    0.000    1.333    0.000    0.000    0.333    0.167 
#
# Total GULP energy -134194.489439 kJ/mol
# GULP energy per Si atom -5591.437060 kJ/mol
# Density = 2.133978 g / cm^3
# Si number density = 21.388457 Si / 1000 Ang^3
#
#
#
# Elastic Constant Matrix: (Units=GPa)
#
#
# Indices 1 2 3 4 5 6 
#
# 1 57.2244 34.7881 41.2080 0.0000 -30.1417 -0.0001
# 2 34.7881 141.6780 34.3858 0.0000 -13.6738 0.0000
# 3 41.2080 34.3858 58.2947 0.0000 -31.2873 -0.0002
# 4 0.0000 0.0000 0.0000 28.8544 0.0000 -5.2454
# 5 -30.1417 -13.6738 -31.2873 0.0000 37.7704 0.0001
# 6 -0.0001 0.0000 -0.0002 -5.2454 0.0001 38.2375
#
#
#
# Elastic Compliance Matrix: (Units=1/GPa)
#
#
# Indices 1 2 3 4 5 6 
#
# 1 0.042078 -0.004306 -0.018039 0.000000 0.017078 0.000000
# 2 -0.004306 0.008753 -0.004074 0.000000 -0.003642 0.000000
# 3 -0.018039 -0.004074 0.042835 0.000000 0.019612 0.000000
# 4 0.000000 0.000000 0.000000 0.035543 0.000000 0.004876
# 5 0.017078 -0.003642 0.019612 0.000000 0.055032 0.000000
# 6 0.000000 0.000000 0.000000 0.004876 0.000000 0.026821
#
#
# Mechanical properties :
#
#
# Convention : Reuss Voigt Hill
#
# Bulk Modulus (GPa) = 24.49271 53.10676 38.79974
# Shear Modulus (GPa) = 18.01747 30.76014 24.38881
#
# Velocity S-wave (km/s) = 2.90555 3.79643 3.38047
# Velocity P-wave (km/s) = 4.76786 6.64084 5.78071
#
# Compressibility (1/GPa) = 0.04082847
#
# Stress axis : x y z
#
# Youngs Moduli (GPa) = 23.76531 114.24974 23.34550
#
# Poissons Ratio (x) = 0.49192 0.42113
# Poissons Ratio (y) = 0.10232 0.09511
# Poissons Ratio (z) = 0.42870 0.46546
#
# Static dielectric constant tensor:
#      x y z
#    x 1.836140 0.000000 -0.018990 
#    y 0.000000 1.791040 0.000000 
#    z -0.018990 0.000000 1.784120 
# 
# From -- ./inp_files/101234.got.cif
#   From: 2010.05.17/outbox.cif.g08.bks.cpg/sg15_51_cif.got.tgz:101234.got - 2010.06.03 18:47:42.
