data_PCOD9256747
_publ_section_title
;
Structure prediction by ZEFSAII (Michael W. Deem and Ramdas Pophale) SiO2 
 PCOD9256747
Probable space group: C 2/C
;
_chemical_formula_sum "Si O2"
_cell_formula_units_Z 52
_cell_length_a 4.875422
_cell_length_b 15.356350
_cell_length_c 25.073826
_cell_angle_alpha 90.000000
_cell_angle_beta 75.203015
_cell_angle_gamma 90.000000
_cell_volume 1814.989044
_symmetry_space_group_name_H-M "C 2/C"
_symmetry_group_IT_number 15
_symmetry_cell_setting 'monoclinic'
loop_
_space_group_symop_operation_xyz
x,y,z
-x,y,1/2-z
-x,-y,-z
x,-y,1/2+z
1/2+x,1/2+y,z
1/2-x,1/2+y,1/2-z
1/2-x,1/2-y,-z
1/2+x,1/2-y,1/2+z
loop_
_atom_site_type_symbol
_atom_site_label
_atom_site_fract_x
_atom_site_fract_y
_atom_site_fract_z
Si Si1 0.735640 0.956178 0.044520
Si Si2 0.878038 0.673647 0.029848
Si Si3 0.055288 0.799185 0.389392
Si Si4 0.138841 0.088949 0.381257
Si Si5 0.581159 0.710649 0.300229
Si Si6 0.993604 0.060859 0.685751
Si Si7 0.500000 0.132302 0.750000
O O1 0.837695 0.876016 0.076644
O O2 0.660536 0.033060 0.089904
O O3 0.525547 0.906303 0.013364
O O4 0.000000 0.000000 0.000000
O O5 0.068357 0.724738 0.064453
O O6 0.605124 0.634225 0.072658
O O7 0.750000 0.750000 0.000000
O O8 0.309438 0.749219 0.345718
O O9 0.884966 0.856888 0.354184
O O10 0.266849 0.158060 0.333021
O O11 0.966097 0.024909 0.349930
O O12 0.500000 0.658433 0.250000
O O13 0.705004 0.797033 0.266619
O O14 0.650459 0.076312 0.698434
O O15 0.000000 0.051168 0.750000
#
# Coordination Sequence:
#
# PCOD9256747 Si02
#       7
#     8   8   8   8   8   8   4
#     4   8  13  20  34  61  96 120 155 214 245 286
#     4   8  13  23  39  63 101 131 158 210 259 289
#     4   8  14  24  38  61  90 127 163 197 246 298
#     4   9  15  23  41  68  96 127 168 205 259 297
#     4   8  14  25  41  57  86 132 159 197 246 299
#     4  10  18  29  47  69  97 132 166 206 251 299
#     4   8  18  32  46  62  96 132 166 204 242 296
#
# _framework density 28.650310000000001
#
# number of rings (size 3 to 8) (size 9 to 14) (size 15 to 20)
#    0.462    3.077    0.000    0.462    0.000    0.000 
#    0.000    0.000    1.692    0.000    0.000    0.000 
#    0.000  556.308    0.000    0.000    0.000    0.000 
#
# Total GULP energy -144951.595020 kJ/mol
# GULP energy per Si atom -5575.061347 kJ/mol
# Density = 2.858510 g / cm^3
# Si number density = 28.650310 Si / 1000 Ang^3
#
#
#
# Elastic Constant Matrix: (Units=GPa)
#
#
# Indices 1 2 3 4 5 6 
#
# 1 80.2612 33.4222 49.0615 0.0000 3.9629 0.0000
# 2 33.4222 172.6590 87.8521 0.0000 1.7257 0.0000
# 3 49.0615 87.8521 212.2781 0.0000 28.6019 0.0000
# 4 0.0000 0.0000 0.0000 82.8156 0.0000 3.4699
# 5 3.9629 1.7257 28.6019 0.0000 37.2174 0.0000
# 6 0.0000 0.0000 0.0000 3.4699 0.0000 10.5258
#
#
#
# Elastic Compliance Matrix: (Units=1/GPa)
#
#
# Indices 1 2 3 4 5 6 
#
# 1 0.014799 -0.001368 -0.002957 0.000000 0.000760 0.000000
# 2 -0.001368 0.007632 -0.003139 0.000000 0.002204 0.000000
# 3 -0.002957 -0.003139 0.007397 0.000000 -0.005224 0.000000
# 4 0.000000 0.000000 0.000000 0.012244 0.000000 -0.004036
# 5 0.000760 0.002204 -0.005224 0.000000 0.030701 0.000000
# 6 0.000000 0.000000 0.000000 -0.004036 0.000000 0.096335
#
#
# Mechanical properties :
#
#
# Convention : Reuss Voigt Hill
#
# Bulk Modulus (GPa) = 67.11277 89.54110 78.32694
# Shear Modulus (GPa) = 26.45471 45.76929 36.11200
#
# Velocity S-wave (km/s) = 3.04199 4.00123 3.55412
# Velocity P-wave (km/s) = 5.98447 7.25723 6.65136
#
# Compressibility (1/GPa) = 0.01490029
#
# Stress axis : x y z
#
# Youngs Moduli (GPa) = 67.57374 131.02939 135.18492
#
# Poissons Ratio (x) = 0.17923 0.39968
# Poissons Ratio (y) = 0.09243 0.42439
# Poissons Ratio (z) = 0.19978 0.41135
#
# Static dielectric constant tensor:
#      x y z
#    x 2.414640 0.000000 0.142780 
#    y 0.000000 2.272740 0.000000 
#    z 0.142780 0.000000 2.415900 
# 
# From -- ./inp_files/288232.got.cif
#   From: 2010.05.17/outbox.cif.g08.bks.cpg/sg15_145_cif.got.tgz:288232.got - 2010.06.03 18:47:42.
