data_PCOD9256691
_publ_section_title
;
Structure prediction by ZEFSAII (Michael W. Deem and Ramdas Pophale) SiO2 
 PCOD9256691
Probable space group: C 2/C
;
_chemical_formula_sum "Si O2"
_cell_formula_units_Z 60
_cell_length_a 31.646381
_cell_length_b 11.818799
_cell_length_c 29.296942
_cell_angle_alpha 90.000000
_cell_angle_beta 15.562719
_cell_angle_gamma 90.000000
_cell_volume 2939.876752
_symmetry_space_group_name_H-M "C 2/C"
_symmetry_group_IT_number 15
_symmetry_cell_setting 'monoclinic'
loop_
_space_group_symop_operation_xyz
x,y,z
-x,y,1/2-z
-x,-y,-z
x,-y,1/2+z
1/2+x,1/2+y,z
1/2-x,1/2+y,1/2-z
1/2-x,1/2-y,-z
1/2+x,1/2-y,1/2+z
loop_
_atom_site_type_symbol
_atom_site_label
_atom_site_fract_x
_atom_site_fract_y
_atom_site_fract_z
Si Si1 0.569966 0.122590 0.011681
Si Si2 0.851146 0.762997 0.486296
Si Si3 0.813485 0.031501 0.865112
Si Si4 0.465837 0.328760 0.960109
Si Si5 0.327273 0.885994 0.560924
Si Si6 0.000000 0.907332 0.250000
Si Si7 0.893554 0.938823 0.508934
Si Si8 0.087230 0.206305 0.878728
O O1 0.543233 0.194297 0.086360
O O2 0.744391 0.161013 0.813021
O O3 0.586698 0.990478 0.003475
O O4 0.448638 0.166585 0.100516
O O5 0.753113 0.658792 0.568699
O O6 0.923279 0.826881 0.368039
O O7 0.787071 0.862835 0.586274
O O8 0.875855 0.017048 0.851232
O O9 0.958186 0.038213 0.679126
O O10 0.700683 0.936217 0.961064
O O11 0.650738 0.362122 0.764025
O O12 0.352497 0.435568 0.066803
O O13 0.425196 0.227054 0.968113
O O14 0.431935 0.298264 0.047580
O O15 0.958981 0.870618 0.484739
#
# Coordination Sequence:
#
# PCOD9256691 Si02
#       8
#     8   8   8   8   8   4   8   8
#     4  10  21  37  55  79 121 149 178 239 297 333
#     4   9  17  32  52  83 110 140 178 223 296 347
#     4   9  17  35  52  76 114 138 177 233 295 338
#     4  11  21  37  56  79 111 158 208 230 267 334
#     4  10  22  40  53  78 116 152 190 243 279 328
#     4  10  18  28  60  88 106 144 176 228 298 374
#     4   9  18  32  52  73 107 151 183 228 284 325
#     4  11  19  36  56  82 112 153 193 241 286 333
#
# _framework density 20.409019000000001
#
# number of rings (size 3 to 8) (size 9 to 14) (size 15 to 20)
#    0.000    2.133    4.000    1.600    0.000    0.533 
#    4.800    0.000    0.000    7.200    0.000   23.333 
#    0.000    0.000    0.000    0.000    0.000    0.000 
#
# Total GULP energy -167121.674764 kJ/mol
# GULP energy per Si atom -5570.722492 kJ/mol
# Density = 2.036257 g / cm^3
# Si number density = 20.409019 Si / 1000 Ang^3
#
#
#
# Elastic Constant Matrix: (Units=GPa)
#
#
# Indices 1 2 3 4 5 6 
#
# 1 130.3115 55.5843 21.7196 -0.0077 10.7027 -0.0004
# 2 55.5843 117.1658 12.2955 -0.0367 0.7764 -0.0281
# 3 21.7196 12.2955 25.2328 -0.0105 5.2684 -0.0098
# 4 -0.0077 -0.0367 -0.0105 7.6692 0.0084 -11.6621
# 5 10.7027 0.7764 5.2684 0.0084 19.1427 0.0112
# 6 -0.0004 -0.0281 -0.0098 -11.6621 0.0112 10.0868
#
#
#
# Elastic Compliance Matrix: (Units=1/GPa)
#
#
# Indices 1 2 3 4 5 6 
#
# 1 0.011018 -0.004528 -0.006397 0.000047 -0.004216 0.000041
# 2 -0.004528 0.010870 -0.001948 -0.000106 0.002627 -0.000097
# 3 -0.006397 -0.001948 0.048086 -0.000184 -0.009578 -0.000161
# 4 0.000047 -0.000106 -0.000184 -0.171986 0.000221 -0.198847
# 5 -0.004216 0.002627 -0.009578 0.000221 0.057126 0.000189
# 6 0.000041 -0.000097 -0.000161 -0.198847 0.000189 -0.130764
#
#
# Mechanical properties :
#
#
# Convention : Reuss Voigt Hill
#
# Bulk Modulus (GPa) = 22.60992 50.21209 36.41101
# Shear Modulus (GPa) = -36.99271 19.58712 -8.70279
#
# Velocity S-wave (km/s) = -4.26204 3.10131 -2.06723
# Velocity P-wave (km/s) = 3.62182 6.12213 3.49019
#
# Compressibility (1/GPa) = 0.04422838
#
# Stress axis : x y z
#
# Youngs Moduli (GPa) = 90.76345 91.99816 20.79589
#
# Poissons Ratio (x) = 0.41653 0.13304
# Poissons Ratio (y) = 0.41094 0.04051
# Poissons Ratio (z) = 0.58063 0.17921
#
# Static dielectric constant tensor:
#      x y z
#    x 1.745070 -0.000020 -0.059290 
#    y -0.000020 1.780910 0.000010 
#    z -0.059290 0.000010 1.804740 
# 
# From -- ./inp_files/304315.got.cif
#   From: 2010.05.17/outbox.cif.g08.bks.cpg/sg15_153_cif.got.tgz:304315.got - 2010.06.03 18:47:42.
