data_PCOD9256759
_publ_section_title
;
Structure prediction by ZEFSAII (Michael W. Deem and Ramdas Pophale) SiO2 
 PCOD9256759
Probable space group: C 2/C
;
_chemical_formula_sum "Si O2"
_cell_formula_units_Z 56
_cell_length_a 19.148863
_cell_length_b 21.936852
_cell_length_c 8.578150
_cell_angle_alpha 90.000000
_cell_angle_beta 42.043081
_cell_angle_gamma 90.000000
_cell_volume 2413.149472
_symmetry_space_group_name_H-M "C 2/C"
_symmetry_group_IT_number 15
_symmetry_cell_setting 'monoclinic'
loop_
_space_group_symop_operation_xyz
x,y,z
-x,y,1/2-z
-x,-y,-z
x,-y,1/2+z
1/2+x,1/2+y,z
1/2-x,1/2+y,1/2-z
1/2-x,1/2-y,-z
1/2+x,1/2-y,1/2+z
loop_
_atom_site_type_symbol
_atom_site_label
_atom_site_fract_x
_atom_site_fract_y
_atom_site_fract_z
Si Si1 0.130145 0.402477 0.161724
Si Si2 0.749327 0.924116 0.476786
Si Si3 0.358978 0.652793 0.214762
Si Si4 0.777840 0.699818 0.330345
Si Si5 0.848965 0.497711 0.623245
Si Si6 0.474886 0.434046 0.976318
Si Si7 0.131300 0.266735 0.132217
O O1 0.101476 0.453817 0.337040
O O2 0.090078 0.333095 0.255540
O O3 0.255815 0.384341 0.950659
O O4 0.107345 0.436143 0.033501
O O5 0.697946 0.861774 0.618203
O O6 0.677085 0.959344 0.476573
O O7 0.751852 0.970184 0.619777
O O8 0.857580 0.915063 0.211257
O O9 0.319246 0.682058 0.120312
O O10 0.448726 0.605617 0.045730
O O11 0.414395 0.704094 0.231731
O O12 0.750000 0.750000 0.500000
O O13 0.859886 0.724412 0.067429
O O14 0.500000 0.428822 0.750000
O O15 0.500000 0.500000 0.000000
O O16 0.250000 0.250000 0.000000
#
# Coordination Sequence:
#
# PCOD9256759 Si02
#       7
#     8   8   8   8   8   8   8
#     4   9  16  30  45  69  93 131 172 219 271 312
#     4  11  21  33  49  73 103 140 185 217 266 315
#     4  10  21  36  50  69 100 145 191 220 270 322
#     4  10  21  33  53  73  91 132 188 240 274 310
#     4  10  18  29  48  71 104 136 173 215 265 323
#     4  12  26  37  53  75 114 156 193 225 262 325
#     4   8  17  33  49  63  92 129 183 222 269 321
#
# _framework density 23.206188999999998
#
# number of rings (size 3 to 8) (size 9 to 14) (size 15 to 20)
#    0.000    2.286    2.857    3.429   10.000    0.000 
#    0.000    0.000    0.000    0.000    0.000    0.000 
#    0.000    0.000    0.000   14.143    0.286    2.429 
#
# Total GULP energy -155948.760574 kJ/mol
# GULP energy per Si atom -5569.598592 kJ/mol
# Density = 2.315337 g / cm^3
# Si number density = 23.206189 Si / 1000 Ang^3
#
#
#
# Elastic Constant Matrix: (Units=GPa)
#
#
# Indices 1 2 3 4 5 6 
#
# 1 43.2673 25.9428 22.9434 0.0000 13.5694 0.0000
# 2 25.9428 177.7766 43.1706 0.0000 15.3022 0.0000
# 3 22.9434 43.1706 74.0694 0.0000 23.8384 0.0000
# 4 0.0000 0.0000 0.0000 46.7524 0.0000 20.0251
# 5 13.5694 15.3022 23.8384 0.0000 29.1906 0.0000
# 6 0.0000 0.0000 0.0000 20.0251 0.0000 36.3437
#
#
#
# Elastic Compliance Matrix: (Units=1/GPa)
#
#
# Indices 1 2 3 4 5 6 
#
# 1 0.029929 -0.002387 -0.005161 0.000000 -0.008447 0.000000
# 2 -0.002387 0.006747 -0.003272 0.000000 0.000245 0.000000
# 3 -0.005161 -0.003272 0.021273 0.000000 -0.013259 0.000000
# 4 0.000000 0.000000 0.000000 0.027997 0.000000 -0.015426
# 5 -0.008447 0.000245 -0.013259 0.000000 0.048884 0.000000
# 6 0.000000 0.000000 0.000000 -0.015426 0.000000 0.036015
#
#
# Mechanical properties :
#
#
# Convention : Reuss Voigt Hill
#
# Bulk Modulus (GPa) = 27.54054 53.24740 40.39397
# Shear Modulus (GPa) = 24.43949 35.99445 30.21697
#
# Velocity S-wave (km/s) = 3.24874 3.94264 3.61239
# Velocity P-wave (km/s) = 5.09568 6.61219 5.90284
#
# Compressibility (1/GPa) = 0.03631010
#
# Stress axis : x y z
#
# Youngs Moduli (GPa) = 33.41211 148.21829 47.00694
#
# Poissons Ratio (x) = 0.35383 0.24260
# Poissons Ratio (y) = 0.07976 0.15379
# Poissons Ratio (z) = 0.17244 0.48491
#
# Static dielectric constant tensor:
#      x y z
#    x 1.986170 0.000000 -0.043910 
#    y 0.000000 1.938450 0.000000 
#    z -0.043910 0.000000 1.960820 
# 
# From -- ./inp_files/63223.got.cif
#   From: 2010.05.17/outbox.cif.g08.bks.cpg/sg15_32_cif.got.tgz:63223.got - 2010.06.03 18:47:42.
