data_PCOD9256845
_publ_section_title
;
Structure prediction by ZEFSAII (Michael W. Deem and Ramdas Pophale) SiO2 
 PCOD9256845
Probable space group: C 2/C
;
_chemical_formula_sum "Si O2"
_cell_formula_units_Z 60
_cell_length_a 23.770392
_cell_length_b 19.718332
_cell_length_c 5.312305
_cell_angle_alpha 90.000000
_cell_angle_beta 63.598224
_cell_angle_gamma 90.000000
_cell_volume 2230.237498
_symmetry_space_group_name_H-M "C 2/C"
_symmetry_group_IT_number 15
_symmetry_cell_setting 'monoclinic'
loop_
_space_group_symop_operation_xyz
x,y,z
-x,y,1/2-z
-x,-y,-z
x,-y,1/2+z
1/2+x,1/2+y,z
1/2-x,1/2+y,1/2-z
1/2-x,1/2-y,-z
1/2+x,1/2-y,1/2+z
loop_
_atom_site_type_symbol
_atom_site_label
_atom_site_fract_x
_atom_site_fract_y
_atom_site_fract_z
Si Si1 0.195004 0.337158 0.873840
Si Si2 0.327958 0.673771 0.161184
Si Si3 0.332582 0.584065 0.659029
Si Si4 0.197002 0.427769 0.369922
Si Si5 0.471991 0.425449 0.045160
Si Si6 0.067463 0.572045 0.232587
Si Si7 0.086714 0.712029 0.904881
Si Si8 0.000000 0.654607 0.750000
O O1 0.258545 0.294071 0.781605
O O2 0.193500 0.372025 0.604592
O O3 0.198363 0.393476 0.091201
O O4 0.134532 0.293464 0.070376
O O5 0.337142 0.630565 0.398681
O O6 0.384426 0.725869 0.008303
O O7 0.323874 0.626570 0.929100
O O8 0.267562 0.541538 0.758050
O O9 0.400740 0.556417 0.598073
O O10 0.132007 0.468818 0.555905
O O11 0.500000 0.394086 0.250000
O O12 0.500000 0.385754 0.750000
O O13 0.500000 0.500000 0.000000
O O14 0.051425 0.601636 0.539603
O O15 0.000000 0.547461 0.250000
O O16 0.085748 0.639946 0.044479
O O17 0.017862 0.706971 0.931525
#
# Coordination Sequence:
#
# PCOD9256845 Si02
#       8
#     8   8   8   8   8   8   8   4
#     4   9  17  30  47  63  86 124 170 213 257 302
#     4  10  21  32  49  69  98 126 161 210 264 302
#     4  10  21  37  52  78 100 125 158 202 258 314
#     4   9  17  31  49  69  94 124 163 215 258 291
#     4  10  21  40  64  84 103 132 162 191 241 312
#     4   9  18  30  44  63  89 132 178 218 249 292
#     4  10  19  30  42  61  88 126 177 218 258 294
#     4  10  18  30  42  54  86 122 180 212 254 288
#
# _framework density 26.902964999999998
#
# number of rings (size 3 to 8) (size 9 to 14) (size 15 to 20)
#    0.000    2.400    1.333    1.200    1.867    0.000 
#    3.600    5.333    0.000    0.000    0.000    0.000 
#    0.000    0.000    0.000    4.800    0.000    0.000 
#
# Total GULP energy -167148.995271 kJ/mol
# GULP energy per Si atom -5571.633176 kJ/mol
# Density = 2.684173 g / cm^3
# Si number density = 26.902965 Si / 1000 Ang^3
#
#
#
# Elastic Constant Matrix: (Units=GPa)
#
#
# Indices 1 2 3 4 5 6 
#
# 1 189.7949 19.7267 27.7205 0.0000 -19.2925 0.0000
# 2 19.7267 37.0360 11.3151 0.0000 3.3137 0.0000
# 3 27.7205 11.3151 98.3996 0.0000 24.8211 0.0000
# 4 0.0000 0.0000 0.0000 16.4524 0.0000 32.1568
# 5 -19.2925 3.3137 24.8211 0.0000 79.7251 0.0000
# 6 0.0000 0.0000 0.0000 32.1568 0.0000 -24.3652
#
#
#
# Elastic Compliance Matrix: (Units=1/GPa)
#
#
# Indices 1 2 3 4 5 6 
#
# 1 0.006069 -0.002837 -0.001936 0.000000 0.002189 0.000000
# 2 -0.002837 0.029312 -0.002269 0.000000 -0.001198 0.000000
# 3 -0.001936 -0.002269 0.012006 0.000000 -0.004112 0.000000
# 4 0.000000 0.000000 0.000000 0.016980 0.000000 0.022410
# 5 0.002189 -0.001198 -0.004112 0.000000 0.014403 0.000000
# 6 0.000000 0.000000 0.000000 0.022410 0.000000 -0.011466
#
#
# Mechanical properties :
#
#
# Convention : Reuss Voigt Hill
#
# Bulk Modulus (GPa) = 30.02671 49.19502 39.61087
# Shear Modulus (GPa) = 54.06009 32.12700 43.09355
#
# Velocity S-wave (km/s) = 4.48755 3.45944 4.00661
# Velocity P-wave (km/s) = 6.16734 5.85515 6.01327
#
# Compressibility (1/GPa) = 0.03330368
#
# Stress axis : x y z
#
# Youngs Moduli (GPa) = 164.77282 34.11537 83.29075
#
# Poissons Ratio (x) = 0.09679 0.16123
# Poissons Ratio (y) = 0.46746 0.18900
# Poissons Ratio (z) = 0.31895 0.07741
#
# Static dielectric constant tensor:
#      x y z
#    x 2.700440 0.000000 -0.241370 
#    y 0.000000 35.532890 0.000000 
#    z -0.241370 0.000000 2.310980 
# 
# From -- ./inp_files/16554.got.cif
#   From: 2010.05.17/outbox.cif.g08.bks.cpg/sg15_9_cif.got.tgz:16554.got - 2010.06.03 18:47:42.
