data_PCOD9256508
_publ_section_title
;
Structure prediction by ZEFSAII (Michael W. Deem and Ramdas Pophale) SiO2 
 PCOD9256508
Probable space group: C 2/C
;
_chemical_formula_sum "Si O2"
_cell_formula_units_Z 44
_cell_length_a 14.679869
_cell_length_b 24.790469
_cell_length_c 9.930115
_cell_angle_alpha 90.000000
_cell_angle_beta 45.123992
_cell_angle_gamma 90.000000
_cell_volume 2560.849261
_symmetry_space_group_name_H-M "C 2/C"
_symmetry_group_IT_number 15
_symmetry_cell_setting 'monoclinic'
loop_
_space_group_symop_operation_xyz
x,y,z
-x,y,1/2-z
-x,-y,-z
x,-y,1/2+z
1/2+x,1/2+y,z
1/2-x,1/2+y,1/2-z
1/2-x,1/2-y,-z
1/2+x,1/2-y,1/2+z
loop_
_atom_site_type_symbol
_atom_site_label
_atom_site_fract_x
_atom_site_fract_y
_atom_site_fract_z
Si Si1 0.500000 0.687622 0.250000
Si Si2 0.921485 0.425862 0.969361
Si Si3 0.608439 0.236852 0.404021
Si Si4 0.277417 0.151472 0.008031
Si Si5 0.396647 0.042318 0.973545
Si Si6 0.344831 0.812190 0.135541
O O1 0.459231 0.724237 0.417401
O O2 0.625316 0.654897 0.156493
O O3 0.842382 0.482366 0.056206
O O4 0.000000 0.418698 0.750000
O O5 0.839641 0.372148 0.079845
O O6 0.027516 0.434844 0.976270
O O7 0.672330 0.188598 0.422877
O O8 0.485403 0.212575 0.453715
O O9 0.726682 0.272355 0.220970
O O10 0.313254 0.090235 0.000523
O O11 0.335497 0.176312 0.808100
O O12 0.500000 0.031770 0.750000
#
# Coordination Sequence:
#
# PCOD9256508 Si02
#       6
#     4   8   8   8   8   8
#     4  10  18  26  44  84 112 132 158 220 266 312
#     4  10  21  33  50  79 106 135 175 213 259 308
#     4  11  17  29  48  79 111 132 170 211 270 305
#     4  11  17  29  52  79 110 127 173 216 270 297
#     4  10  18  33  55  79 100 132 174 222 260 295
#     4  11  19  31  52  79 107 137 167 219 261 309
#
# _framework density 17.181801
#
# number of rings (size 3 to 8) (size 9 to 14) (size 15 to 20)
#    0.000    1.455    7.273    1.091    0.000    0.000 
#    0.000    0.909    0.000    4.364    9.455    0.000 
#    0.000    0.000    0.000    0.000    0.000    0.000 
#
# Total GULP energy -122528.583678 kJ/mol
# GULP energy per Si atom -5569.481076 kJ/mol
# Density = 1.714269 g / cm^3
# Si number density = 17.181801 Si / 1000 Ang^3
#
#
#
# Elastic Constant Matrix: (Units=GPa)
#
#
# Indices 1 2 3 4 5 6 
#
# 1 52.5133 33.7684 24.2819 0.0000 -23.8763 0.0000
# 2 33.7684 140.5041 22.9108 0.0000 -33.0831 0.0000
# 3 24.2819 22.9108 42.3330 0.0000 -6.9724 0.0000
# 4 0.0000 0.0000 0.0000 34.8857 0.0000 -25.7910
# 5 -23.8763 -33.0831 -6.9724 0.0000 27.4568 0.0000
# 6 0.0000 0.0000 0.0000 -25.7910 0.0000 103.0665
#
#
#
# Elastic Compliance Matrix: (Units=1/GPa)
#
#
# Indices 1 2 3 4 5 6 
#
# 1 0.042475 0.000675 -0.019319 0.000000 0.032844 0.000000
# 2 0.000675 0.010487 -0.004055 0.000000 0.012194 0.000000
# 3 -0.019319 -0.004055 0.034781 0.000000 -0.012853 0.000000
# 4 0.000000 0.000000 0.000000 0.035172 0.000000 0.008801
# 5 0.032844 0.012194 -0.012853 0.000000 0.076410 0.000000
# 6 0.000000 0.000000 0.000000 0.008801 0.000000 0.011905
#
#
# Mechanical properties :
#
#
# Convention : Reuss Voigt Hill
#
# Bulk Modulus (GPa) = 23.61509 44.14139 33.87824
# Shear Modulus (GPa) = 18.46775 43.37442 30.92109
#
# Velocity S-wave (km/s) = 3.28204 5.02983 4.24682
# Velocity P-wave (km/s) = 5.30438 7.71225 6.61873
#
# Compressibility (1/GPa) = 0.04234580
#
# Stress axis : x y z
#
# Youngs Moduli (GPa) = 23.54347 95.35374 28.75129
#
# Poissons Ratio (x) = -0.06439 0.55545
# Poissons Ratio (y) = -0.01590 0.11658
# Poissons Ratio (z) = 0.45484 0.38663
#
# Static dielectric constant tensor:
#      x y z
#    x 1.573950 0.000000 -0.003780 
#    y 0.000000 1.642530 0.000000 
#    z -0.003780 0.000000 1.593550 
# 
# From -- ./inp_files/32753.got.cif
#   From: 2010.05.17/outbox.cif.g08.bks.cpg/sg15_17_cif.got.tgz:32753.got - 2010.06.03 18:47:42.
