data_PCOD9256284
_publ_section_title
;
Structure prediction by ZEFSAII (Michael W. Deem and Ramdas Pophale) SiO2 
 PCOD9256284
Probable space group: C 2/C
;
_chemical_formula_sum "Si O2"
_cell_formula_units_Z 60
_cell_length_a 8.556066
_cell_length_b 17.870473
_cell_length_c 26.194221
_cell_angle_alpha 90.000000
_cell_angle_beta 137.884493
_cell_angle_gamma 90.000000
_cell_volume 2685.944040
_symmetry_space_group_name_H-M "C 2/C"
_symmetry_group_IT_number 15
_symmetry_cell_setting 'monoclinic'
loop_
_space_group_symop_operation_xyz
x,y,z
-x,y,1/2-z
-x,-y,-z
x,-y,1/2+z
1/2+x,1/2+y,z
1/2-x,1/2+y,1/2-z
1/2-x,1/2-y,-z
1/2+x,1/2-y,1/2+z
loop_
_atom_site_type_symbol
_atom_site_label
_atom_site_fract_x
_atom_site_fract_y
_atom_site_fract_z
Si Si1 0.453249 0.088362 0.529848
Si Si2 0.888602 0.739545 0.111011
Si Si3 0.875307 0.488716 0.171775
Si Si4 0.000000 0.755484 0.250000
Si Si5 0.504964 0.166663 0.648385
Si Si6 0.603411 0.210968 0.060216
Si Si7 0.771247 0.042409 0.464685
Si Si8 0.561732 0.401517 0.401426
O O1 0.431754 0.139627 0.574350
O O2 0.340324 0.133646 0.455669
O O3 0.349155 0.010482 0.522824
O O4 0.723823 0.077467 0.582377
O O5 0.012107 0.821401 0.136972
O O6 0.921726 0.715276 0.177731
O O7 0.019118 0.695841 0.097562
O O8 0.619808 0.756747 0.027364
O O9 0.978030 0.407968 0.177086
O O10 0.871091 0.543105 0.121959
O O11 0.629505 0.464092 0.136954
O O12 0.000000 0.523550 0.250000
O O13 0.231642 0.803439 0.292153
O O14 0.320085 0.232221 0.615773
O O15 0.856492 0.110562 0.519729
O O16 0.000000 0.000000 0.500000
#
# Coordination Sequence:
#
# PCOD9256284 Si02
#       8
#     8   8   8   4   8   8   8   8
#     4  10  20  34  56  85 109 146 194 234 280 337
#     4  10  21  35  58  86 115 149 192 241 297 343
#     4  10  20  33  54  85 114 145 179 238 307 336
#     4  12  22  34  50  90 122 144 184 246 300 344
#     4  11  21  32  53  83 120 143 186 236 294 342
#     4  10  20  37  54  84 114 154 193 229 286 358
#     4   9  20  35  55  85 110 145 190 237 283 337
#     4  10  17  36  55  84 112 144 190 238 284 343
#
# _framework density 22.338515000000001
#
# number of rings (size 3 to 8) (size 9 to 14) (size 15 to 20)
#    0.000    1.867    4.000    1.600    0.000    0.000 
#    0.000    0.000    0.000    0.000   57.200    0.000 
#    0.000    0.000    0.000    0.000    0.000    0.000 
#
# Total GULP energy -167196.234466 kJ/mol
# GULP energy per Si atom -5573.207816 kJ/mol
# Density = 2.228767 g / cm^3
# Si number density = 22.338515 Si / 1000 Ang^3
#
#
#
# Elastic Constant Matrix: (Units=GPa)
#
#
# Indices 1 2 3 4 5 6 
#
# 1 95.9140 4.6599 20.3071 0.0001 -19.2295 0.0001
# 2 4.6599 27.3288 16.5314 0.0001 -18.0830 0.0001
# 3 20.3071 16.5314 99.1931 0.0002 -36.7678 0.0002
# 4 0.0001 0.0001 0.0002 18.3358 0.0001 -9.9402
# 5 -19.2295 -18.0830 -36.7678 0.0001 51.1635 0.0001
# 6 0.0001 0.0001 0.0002 -9.9402 0.0001 19.6094
#
#
#
# Elastic Compliance Matrix: (Units=1/GPa)
#
#
# Indices 1 2 3 4 5 6 
#
# 1 0.011387 0.001344 -0.001081 0.000000 0.003978 0.000000
# 2 0.001344 0.048315 -0.002468 -0.000001 0.015808 0.000000
# 3 -0.001081 -0.002468 0.013958 0.000000 0.008752 0.000000
# 4 0.000000 -0.000001 0.000000 0.075205 -0.000001 0.038122
# 5 0.003978 0.015808 0.008752 -0.000001 0.032917 -0.000001
# 6 0.000000 0.000000 0.000000 0.038122 -0.000001 0.070320
#
#
# Mechanical properties :
#
#
# Convention : Reuss Voigt Hill
#
# Bulk Modulus (GPa) = 14.43996 33.93696 24.18846
# Shear Modulus (GPa) = 17.88302 29.88425 23.88363
#
# Velocity S-wave (km/s) = 2.83246 3.66155 3.27336
# Velocity P-wave (km/s) = 4.14431 5.75335 5.01380
#
# Compressibility (1/GPa) = 0.06925227
#
# Stress axis : x y z
#
# Youngs Moduli (GPa) = 87.81878 20.69753 71.64306
#
# Poissons Ratio (x) = -0.02783 0.07742
# Poissons Ratio (y) = -0.11807 0.17680
# Poissons Ratio (z) = 0.09490 0.05108
#
# Static dielectric constant tensor:
#      x y z
#    x 1.833080 0.000000 -0.016620 
#    y 0.000000 1.920920 0.000000 
#    z -0.016620 0.000000 1.954190 
# 
# From -- ./inp_files/290227.got.cif
#   From: 2010.05.17/outbox.cif.g08.bks.cpg/sg15_146_cif.got.tgz:290227.got - 2010.06.03 18:47:42.
