data_PCOD9256936
_publ_section_title
;
Structure prediction by ZEFSAII (Michael W. Deem and Ramdas Pophale) SiO2 
 PCOD9256936
Probable space group: C 2/C
;
_chemical_formula_sum "Si O2"
_cell_formula_units_Z 48
_cell_length_a 13.607433
_cell_length_b 10.024736
_cell_length_c 17.790669
_cell_angle_alpha 90.000000
_cell_angle_beta 56.555224
_cell_angle_gamma 90.000000
_cell_volume 2024.998881
_symmetry_space_group_name_H-M "C 2/C"
_symmetry_group_IT_number 15
_symmetry_cell_setting 'monoclinic'
loop_
_space_group_symop_operation_xyz
x,y,z
-x,y,1/2-z
-x,-y,-z
x,-y,1/2+z
1/2+x,1/2+y,z
1/2-x,1/2+y,1/2-z
1/2-x,1/2-y,-z
1/2+x,1/2-y,1/2+z
loop_
_atom_site_type_symbol
_atom_site_label
_atom_site_fract_x
_atom_site_fract_y
_atom_site_fract_z
Si Si1 0.016436 0.989912 0.405662
Si Si2 0.690468 0.532690 0.128904
Si Si3 0.359449 0.000434 0.791140
Si Si4 0.405979 0.736519 0.204116
Si Si5 0.885241 0.207819 0.744559
Si Si6 0.157321 0.368814 0.050377
O O1 0.099117 0.115203 0.351196
O O2 0.901104 0.008653 0.401496
O O3 0.073415 0.853191 0.351821
O O4 0.000000 0.000000 0.500000
O O5 0.629662 0.651026 0.204561
O O6 0.691614 0.400879 0.178838
O O7 0.818831 0.557898 0.038905
O O8 0.500000 0.002940 0.750000
O O9 0.338104 0.857525 0.763041
O O10 0.334098 0.128283 0.749724
O O11 0.307436 0.034103 0.895206
O O12 0.468359 0.804264 0.375425
O O13 0.000000 0.213720 0.750000
O O14 0.250000 0.250000 0.000000
#
# Coordination Sequence:
#
# PCOD9256936 Si02
#       6
#     8   8   8   8   8   8
#     4  10  18  30  49  71  97 136 171 205 252 314
#     4  10  18  32  52  77 102 131 173 212 260 310
#     4   9  16  29  48  74 102 128 162 212 262 298
#     4  10  18  32  52  78 102 129 175 212 257 306
#     4   8  17  31  49  69 100 132 162 209 260 304
#     4  11  17  25  52  81  98 124 170 217 246 297
#
# _framework density 23.703717000000001
#
# number of rings (size 3 to 8) (size 9 to 14) (size 15 to 20)
#    0.000    2.333    3.333    3.500    0.000    0.667 
#    0.000    0.833    0.000    8.000    0.000    0.000 
#    0.000    0.000    0.000    0.000    0.000    0.000 
#
# Total GULP energy -133683.489708 kJ/mol
# GULP energy per Si atom -5570.145404 kJ/mol
# Density = 2.364977 g / cm^3
# Si number density = 23.703717 Si / 1000 Ang^3
#
#
#
# Elastic Constant Matrix: (Units=GPa)
#
#
# Indices 1 2 3 4 5 6 
#
# 1 82.1292 4.3663 41.0463 0.0000 -3.7001 0.0000
# 2 4.3663 211.7539 98.5571 0.0000 7.3188 0.0000
# 3 41.0463 98.5571 235.6283 0.0000 2.9661 0.0000
# 4 0.0000 0.0000 0.0000 28.0371 0.0000 -7.8924
# 5 -3.7001 7.3188 2.9661 0.0000 36.4034 0.0000
# 6 0.0000 0.0000 0.0000 -7.8924 0.0000 -20.5531
#
#
#
# Elastic Compliance Matrix: (Units=1/GPa)
#
#
# Indices 1 2 3 4 5 6 
#
# 1 0.013582 0.000969 -0.002789 0.000000 0.001413 0.000000
# 2 0.000969 0.005968 -0.002654 0.000000 -0.000885 0.000000
# 3 -0.002789 -0.002654 0.005843 0.000000 -0.000226 0.000000
# 4 0.000000 0.000000 0.000000 0.032188 0.000000 -0.012360
# 5 0.001413 -0.000885 -0.000226 0.000000 0.027810 0.000000
# 6 0.000000 0.000000 0.000000 -0.012360 0.000000 -0.043908
#
#
# Mechanical properties :
#
#
# Convention : Reuss Voigt Hill
#
# Bulk Modulus (GPa) = 60.80803 90.82787 75.81795
# Shear Modulus (GPa) = 89.42561 34.48027 61.95294
#
# Velocity S-wave (km/s) = 6.14885 3.81811 5.11792
# Velocity P-wave (km/s) = 8.72469 7.60516 8.18409
#
# Compressibility (1/GPa) = 0.01644520
#
# Stress axis : x y z
#
# Youngs Moduli (GPa) = 73.62669 167.54954 171.14954
#
# Poissons Ratio (x) = -0.16240 0.47737
# Poissons Ratio (y) = -0.07137 0.45425
# Poissons Ratio (z) = 0.20536 0.44470
#
# Static dielectric constant tensor:
#      x y z
#    x 2.065430 0.000000 0.002220 
#    y 0.000000 1.952200 0.000000 
#    z 0.002220 0.000000 1.911040 
# 
# From -- ./inp_files/218864.got.cif
#   From: 2010.05.17/outbox.cif.g08.bks.cpg/sg15_110_cif.got.tgz:218864.got - 2010.06.03 18:47:42.
