data_PCOD9256311
_publ_section_title
;
Structure prediction by ZEFSAII (Michael W. Deem and Ramdas Pophale) SiO2 
 PCOD9256311
Probable space group: C 2/C
;
_chemical_formula_sum "Si O2"
_cell_formula_units_Z 60
_cell_length_a 13.504639
_cell_length_b 18.460333
_cell_length_c 11.904400
_cell_angle_alpha 90.000000
_cell_angle_beta 85.130485
_cell_angle_gamma 90.000000
_cell_volume 2957.056647
_symmetry_space_group_name_H-M "C 2/C"
_symmetry_group_IT_number 15
_symmetry_cell_setting 'monoclinic'
loop_
_space_group_symop_operation_xyz
x,y,z
-x,y,1/2-z
-x,-y,-z
x,-y,1/2+z
1/2+x,1/2+y,z
1/2-x,1/2+y,1/2-z
1/2-x,1/2-y,-z
1/2+x,1/2-y,1/2+z
loop_
_atom_site_type_symbol
_atom_site_label
_atom_site_fract_x
_atom_site_fract_y
_atom_site_fract_z
Si Si1 0.310367 0.897618 0.357239
Si Si2 0.841848 0.014803 0.387886
Si Si3 0.416402 0.373520 0.043617
Si Si4 0.138617 0.720177 0.487883
Si Si5 0.823824 0.556628 0.450256
Si Si6 0.921886 0.446953 0.160257
Si Si7 0.160963 0.397767 0.800191
Si Si8 0.500000 0.433430 0.250000
O O1 0.196641 0.881707 0.398647
O O2 0.376013 0.836762 0.410862
O O3 0.324486 0.909204 0.224740
O O4 0.342108 0.974652 0.405942
O O5 0.919582 0.062560 0.452423
O O6 0.762110 0.071992 0.346956
O O7 0.780745 0.957772 0.472613
O O8 0.901700 0.980399 0.279890
O O9 0.427888 0.291595 0.000994
O O10 0.488719 0.387862 0.138930
O O11 0.250000 0.750000 0.500000
O O12 0.134017 0.674926 0.371275
O O13 0.910402 0.574669 0.531657
O O14 0.825228 0.604503 0.336579
O O15 0.912409 0.534483 0.167109
O O16 0.000000 0.426434 0.250000
#
# Coordination Sequence:
#
# PCOD9256311 Si02
#       8
#     8   8   8   8   8   8   8   4
#     4   9  17  33  56  73 101 146 186 223 260 333
#     4  10  18  35  56  81 108 146 184 238 284 327
#     4  10  20  34  54  80 105 145 181 227 280 338
#     4  10  17  36  59  75 102 145 195 217 271 347
#     4   9  17  32  52  82 110 135 190 233 278 323
#     4  10  19  31  50  80 113 140 176 226 287 320
#     4  10  18  33  56  82 104 147 189 235 270 326
#     4  12  22  32  54  88 120 136 180 246 290 324
#
# _framework density 20.290445999999999
#
# number of rings (size 3 to 8) (size 9 to 14) (size 15 to 20)
#    0.000    2.133    5.333    3.600    0.000    2.133 
#    1.200    0.000    1.467    8.800    0.000    0.000 
#    0.000    0.000    0.000    0.000    0.000    0.000 
#
# Total GULP energy -167027.725953 kJ/mol
# GULP energy per Si atom -5567.590865 kJ/mol
# Density = 2.024426 g / cm^3
# Si number density = 20.290446 Si / 1000 Ang^3
#
#
#
# Elastic Constant Matrix: (Units=GPa)
#
#
# Indices 1 2 3 4 5 6 
#
# 1 22.0080 1.5499 9.5302 0.0000 0.5167 0.0000
# 2 1.5499 69.1435 23.6845 0.0000 1.6893 0.0000
# 3 9.5302 23.6845 121.6941 0.0000 9.9795 0.0000
# 4 0.0000 0.0000 0.0000 28.4920 0.0000 1.1225
# 5 0.5167 1.6893 9.9795 0.0000 37.6962 0.0000
# 6 0.0000 0.0000 0.0000 1.1225 0.0000 5.4633
#
#
#
# Elastic Compliance Matrix: (Units=1/GPa)
#
#
# Indices 1 2 3 4 5 6 
#
# 1 0.047040 0.000224 -0.003755 0.000000 0.000339 0.000000
# 2 0.000224 0.015497 -0.003042 0.000000 0.000108 0.000000
# 3 -0.003755 -0.003042 0.009290 0.000000 -0.002272 0.000000
# 4 0.000000 0.000000 0.000000 0.035384 0.000000 -0.007270
# 5 0.000339 0.000108 -0.002272 0.000000 0.027120 0.000000
# 6 0.000000 0.000000 0.000000 -0.007270 0.000000 0.184533
#
#
# Mechanical properties :
#
#
# Convention : Reuss Voigt Hill
#
# Bulk Modulus (GPa) = 17.04179 31.37497 24.20838
# Shear Modulus (GPa) = 14.22185 26.20238 20.21212
#
# Velocity S-wave (km/s) = 2.65035 3.59746 3.15959
# Velocity P-wave (km/s) = 4.21698 5.72294 5.02668
#
# Compressibility (1/GPa) = 0.05867929
#
# Stress axis : x y z
#
# Youngs Moduli (GPa) = 21.25833 64.52777 107.64473
#
# Poissons Ratio (x) = -0.01443 0.40423
# Poissons Ratio (y) = -0.00475 0.32751
# Poissons Ratio (z) = 0.07983 0.19632
#
# Static dielectric constant tensor:
#      x y z
#    x 1.878980 0.000000 -0.003600 
#    y 0.000000 1.724070 0.000000 
#    z -0.003600 0.000000 1.755420 
# 
# From -- ./inp_files/99430.got.cif
#   From: 2010.05.17/outbox.cif.g08.bks.cpg/sg15_50_cif.got.tgz:99430.got - 2010.06.03 18:47:42.
