data_PCOD9256867
_publ_section_title
;
Structure prediction by ZEFSAII (Michael W. Deem and Ramdas Pophale) SiO2 
 PCOD9256867
Probable space group: C 2/C
;
_chemical_formula_sum "Si O2"
_cell_formula_units_Z 40
_cell_length_a 6.828499
_cell_length_b 19.926468
_cell_length_c 14.332649
_cell_angle_alpha 90.000000
_cell_angle_beta 48.169101
_cell_angle_gamma 90.000000
_cell_volume 1453.135744
_symmetry_space_group_name_H-M "C 2/C"
_symmetry_group_IT_number 15
_symmetry_cell_setting 'monoclinic'
loop_
_space_group_symop_operation_xyz
x,y,z
-x,y,1/2-z
-x,-y,-z
x,-y,1/2+z
1/2+x,1/2+y,z
1/2-x,1/2+y,1/2-z
1/2-x,1/2-y,-z
1/2+x,1/2-y,1/2+z
loop_
_atom_site_type_symbol
_atom_site_label
_atom_site_fract_x
_atom_site_fract_y
_atom_site_fract_z
Si Si1 0.743625 0.862272 0.729071
Si Si2 0.792668 0.343173 0.205864
Si Si3 0.773874 0.985311 0.245800
Si Si4 0.982387 0.885165 0.042275
Si Si5 0.446480 0.192665 0.473809
O O1 0.500000 0.829903 0.750000
O O2 0.673212 0.940088 0.771160
O O3 0.976010 0.870027 0.579429
O O4 0.717108 0.821331 0.833582
O O5 0.500000 0.340824 0.250000
O O6 0.894955 0.420640 0.168589
O O7 0.720543 0.335338 0.337957
O O8 0.961195 0.300574 0.080633
O O9 0.000000 0.989862 0.250000
O O10 0.888144 0.957033 0.111674
O O11 0.264907 0.871689 0.001945
O O12 0.250000 0.250000 0.500000
#
# Coordination Sequence:
#
# PCOD9256867 Si02
#       5
#     8   8   8   8   8
#     4  10  20  29  47  81 100 125 170 219 255 296
#     4   7  14  28  44  63  93 133 158 189 259 298
#     4   9  16  33  52  66 105 136 165 201 263 323
#     4   8  16  31  44  69  95 131 163 198 260 296
#     4  10  18  30  45  71 106 131 171 210 252 304
#
# _framework density 27.526675000000001
#
# number of rings (size 3 to 8) (size 9 to 14) (size 15 to 20)
#    1.200    2.000    2.000    0.600    0.000    8.000 
#    0.000    0.000    0.000    0.000    0.000    7.000 
#    0.000    0.000    0.000    0.000    0.000    0.000 
#
# Total GULP energy -111354.308257 kJ/mol
# GULP energy per Si atom -5567.715413 kJ/mol
# Density = 2.746402 g / cm^3
# Si number density = 27.526675 Si / 1000 Ang^3
#
#
#
# Elastic Constant Matrix: (Units=GPa)
#
#
# Indices 1 2 3 4 5 6 
#
# 1 83.7641 -1.2827 31.0446 0.0000 3.6497 0.0000
# 2 -1.2827 136.7797 68.5510 0.0000 5.6193 0.0000
# 3 31.0446 68.5510 299.4291 0.0000 32.1303 0.0000
# 4 0.0000 0.0000 0.0000 4.4239 0.0000 11.7638
# 5 3.6497 5.6193 32.1303 0.0000 47.6549 0.0000
# 6 0.0000 0.0000 0.0000 11.7638 0.0000 15.1035
#
#
#
# Elastic Compliance Matrix: (Units=1/GPa)
#
#
# Indices 1 2 3 4 5 6 
#
# 1 0.012506 0.000866 -0.001489 0.000000 -0.000056 0.000000
# 2 0.000866 0.008323 -0.002030 0.000000 0.000321 0.000000
# 3 -0.001489 -0.002030 0.004227 0.000000 -0.002496 0.000000
# 4 0.000000 0.000000 0.000000 -0.211032 0.000000 0.164368
# 5 -0.000056 0.000321 -0.002496 0.000000 0.022634 0.000000
# 6 0.000000 0.000000 0.000000 0.164368 0.000000 -0.061812
#
#
# Mechanical properties :
#
#
# Convention : Reuss Voigt Hill
#
# Bulk Modulus (GPa) = 50.63270 79.62211 65.12741
# Shear Modulus (GPa) = -23.44483 41.54712 9.05115
#
# Velocity S-wave (km/s) = -2.92158 3.88924 1.81529
# Velocity P-wave (km/s) = 2.65578 7.01117 5.30140
#
# Compressibility (1/GPa) = 0.01975008
#
# Stress axis : x y z
#
# Youngs Moduli (GPa) = 79.96321 120.14609 236.59760
#
# Poissons Ratio (x) = -0.10401 0.35224
# Poissons Ratio (y) = -0.06923 0.48022
# Poissons Ratio (z) = 0.11905 0.24386
#
# Static dielectric constant tensor:
#      x y z
#    x 2.216760 0.000000 -0.020320 
#    y 0.000000 2.148770 0.000000 
#    z -0.020320 0.000000 2.272590 
# 
# From -- ./inp_files/200561.got.cif
#   From: 2010.05.17/outbox.cif.g08.bks.cpg/sg15_101_cif.got.tgz:200561.got - 2010.06.03 18:47:42.
