data_PCOD9256848
_publ_section_title
;
Structure prediction by ZEFSAII (Michael W. Deem and Ramdas Pophale) SiO2 
 PCOD9256848
Probable space group: C 2/C
;
_chemical_formula_sum "Si O2"
_cell_formula_units_Z 64
_cell_length_a 19.632683
_cell_length_b 16.163377
_cell_length_c 8.747434
_cell_angle_alpha 90.000000
_cell_angle_beta 58.166550
_cell_angle_gamma 90.000000
_cell_volume 2358.300911
_symmetry_space_group_name_H-M "C 2/C"
_symmetry_group_IT_number 15
_symmetry_cell_setting 'monoclinic'
loop_
_space_group_symop_operation_xyz
x,y,z
-x,y,1/2-z
-x,-y,-z
x,-y,1/2+z
1/2+x,1/2+y,z
1/2-x,1/2+y,1/2-z
1/2-x,1/2-y,-z
1/2+x,1/2-y,1/2+z
loop_
_atom_site_type_symbol
_atom_site_label
_atom_site_fract_x
_atom_site_fract_y
_atom_site_fract_z
Si Si1 0.669311 0.641659 0.014015
Si Si2 0.543794 0.346803 0.417231
Si Si3 0.127645 0.102830 0.398952
Si Si4 0.641932 0.763596 0.554993
Si Si5 0.781644 0.596010 0.333170
Si Si6 0.834329 0.341923 0.438105
Si Si7 0.528250 0.818100 0.432056
Si Si8 0.943640 0.550455 0.175053
O O1 0.639297 0.597394 0.204265
O O2 0.660928 0.742392 0.040167
O O3 0.613320 0.615332 0.938966
O O4 0.765612 0.636456 0.894934
O O5 0.467495 0.402042 0.455771
O O6 0.589867 0.294958 0.230959
O O7 0.495887 0.276273 0.569728
O O8 0.164467 0.194484 0.401448
O O9 0.193060 0.055715 0.426161
O O10 0.703142 0.824458 0.570713
O O11 0.584231 0.818331 0.516862
O O12 0.850955 0.533437 0.308585
O O13 0.804918 0.616029 0.129108
O O14 0.921383 0.359521 0.262470
O O15 0.447824 0.860896 0.584723
O O16 0.000000 0.551674 0.250000
O O17 0.000000 0.500000 0.000000
#
# Coordination Sequence:
#
# PCOD9256848 Si02
#       8
#     8   8   8   8   8   8   8   8
#     4  10  18  30  42  73 109 137 186 211 243 311
#     4  11  19  29  49  73 109 147 179 212 252 319
#     4  10  21  30  48  73 102 150 182 211 267 318
#     4  11  19  32  48  72 107 147 180 216 258 326
#     4  11  22  37  50  72 106 137 185 226 268 321
#     4  10  20  30  49  72  99 146 178 217 256 308
#     4  11  20  36  51  71 102 140 185 219 272 312
#     4  12  26  43  60  79 102 137 184 236 279 322
#
# _framework density 27.138180999999999
#
# number of rings (size 3 to 8) (size 9 to 14) (size 15 to 20)
#    0.000    1.250    6.250    2.250    1.750    2.000 
#    0.000    0.000    0.000    0.000    0.000    0.000 
#    0.000    1.000    1.000    0.250    0.000    0.000 
#
# Total GULP energy -178658.104379 kJ/mol
# GULP energy per Si atom -5583.065762 kJ/mol
# Density = 2.707641 g / cm^3
# Si number density = 27.138181 Si / 1000 Ang^3
#
#
#
# Elastic Constant Matrix: (Units=GPa)
#
#
# Indices 1 2 3 4 5 6 
#
# 1 241.8772 13.2020 40.8647 0.0000 -14.7096 0.0000
# 2 13.2020 32.4257 11.2932 0.0000 -2.6430 0.0000
# 3 40.8647 11.2932 110.6845 0.0000 7.2261 0.0000
# 4 0.0000 0.0000 0.0000 27.7987 0.0000 -9.2558
# 5 -14.7096 -2.6430 7.2261 0.0000 36.9170 0.0000
# 6 0.0000 0.0000 0.0000 -9.2558 0.0000 16.8437
#
#
#
# Elastic Compliance Matrix: (Units=1/GPa)
#
#
# Indices 1 2 3 4 5 6 
#
# 1 0.004614 -0.001106 -0.001728 0.000000 0.002097 0.000000
# 2 -0.001106 0.032565 -0.003077 0.000000 0.002493 0.000000
# 3 -0.001728 -0.003077 0.010176 0.000000 -0.002900 0.000000
# 4 0.000000 0.000000 0.000000 0.044029 0.000000 0.024194
# 5 0.002097 0.002493 -0.002900 0.000000 0.028670 0.000000
# 6 0.000000 0.000000 0.000000 0.024194 0.000000 0.072665
#
#
# Mechanical properties :
#
#
# Convention : Reuss Voigt Hill
#
# Bulk Modulus (GPa) = 28.14241 57.30080 42.72161
# Shear Modulus (GPa) = 23.10710 37.62038 30.36374
#
# Velocity S-wave (km/s) = 2.92115 3.72728 3.34856
# Velocity P-wave (km/s) = 4.66583 6.29951 5.54319
#
# Compressibility (1/GPa) = 0.03553356
#
# Stress axis : x y z
#
# Youngs Moduli (GPa) = 216.72540 30.70796 98.27202
#
# Poissons Ratio (x) = 0.03396 0.16978
# Poissons Ratio (y) = 0.23969 0.30239
# Poissons Ratio (z) = 0.37442 0.09449
#
# Static dielectric constant tensor:
#      x y z
#    x 2.284460 0.000000 0.002150 
#    y 0.000000 2.419510 0.000000 
#    z 0.002150 0.000000 2.024790 
# 
# From -- ./inp_files/58462.got.cif
#   From: 2010.05.17/outbox.cif.g08.bks.cpg/sg15_30_cif.got.tgz:58462.got - 2010.06.03 18:47:42.
