data_PCOD9256317
_publ_section_title
;
Structure prediction by ZEFSAII (Michael W. Deem and Ramdas Pophale) SiO2 
 PCOD9256317
Probable space group: C 2/C
;
_chemical_formula_sum "Si O2"
_cell_formula_units_Z 56
_cell_length_a 9.348588
_cell_length_b 28.678860
_cell_length_c 15.318497
_cell_angle_alpha 90.000000
_cell_angle_beta 48.728961
_cell_angle_gamma 90.000000
_cell_volume 3086.806961
_symmetry_space_group_name_H-M "C 2/C"
_symmetry_group_IT_number 15
_symmetry_cell_setting 'monoclinic'
loop_
_space_group_symop_operation_xyz
x,y,z
-x,y,1/2-z
-x,-y,-z
x,-y,1/2+z
1/2+x,1/2+y,z
1/2-x,1/2+y,1/2-z
1/2-x,1/2-y,-z
1/2+x,1/2-y,1/2+z
loop_
_atom_site_type_symbol
_atom_site_label
_atom_site_fract_x
_atom_site_fract_y
_atom_site_fract_z
Si Si1 0.849544 0.436095 0.733998
Si Si2 0.219583 0.613138 0.684432
Si Si3 0.212406 0.726975 0.115385
Si Si4 0.595303 0.374785 0.955840
Si Si5 0.790359 0.031378 0.793567
Si Si6 0.724846 0.320235 0.185119
Si Si7 0.349108 0.099011 0.511889
O O1 0.687042 0.405338 0.843119
O O2 0.776212 0.482101 0.716099
O O3 0.000000 0.449190 0.750000
O O4 0.964185 0.403945 0.620778
O O5 0.369035 0.619235 0.546426
O O6 0.277709 0.569127 0.720887
O O7 0.250971 0.659435 0.729217
O O8 0.000000 0.608091 0.750000
O O9 0.321795 0.677868 0.075692
O O10 0.294216 0.768136 0.142556
O O11 0.000000 0.719647 0.250000
O O12 0.250000 0.750000 0.000000
O O13 0.674307 0.397065 0.014594
O O14 0.665239 0.053722 0.921507
O O15 0.000000 0.028769 0.750000
O O16 0.500000 0.322042 0.250000
O O17 0.833417 0.355848 0.078369
#
# Coordination Sequence:
#
# PCOD9256317 Si02
#       7
#     8   8   8   8   8   8   8
#     4  10  23  36  55  86 121 156 188 237 318 356
#     4  11  22  40  62  84 115 159 206 246 296 365
#     4  11  20  33  64 101 127 158 206 254 306 357
#     4  11  20  38  57  88 126 151 192 255 302 352
#     4  11  21  40  61  82 113 154 206 253 291 355
#     4  10  18  35  62  90 118 152 204 245 293 351
#     4  10  17  36  59  84 118 148 191 248 297 350
#
# _framework density 18.141725000000001
#
# number of rings (size 3 to 8) (size 9 to 14) (size 15 to 20)
#    0.000    1.429    4.286    3.857    0.000    0.571 
#    7.714    0.714    0.000    0.857    0.000    0.000 
#    0.000    0.000    0.000    0.000    0.000    0.000 
#
# Total GULP energy -155979.736067 kJ/mol
# GULP energy per Si atom -5570.704860 kJ/mol
# Density = 1.810043 g / cm^3
# Si number density = 18.141725 Si / 1000 Ang^3
#
#
#
# Elastic Constant Matrix: (Units=GPa)
#
#
# Indices 1 2 3 4 5 6 
#
# 1 68.2922 42.6666 45.4904 0.0000 -21.0114 0.0000
# 2 42.6666 118.8428 47.0002 0.0000 -5.7652 0.0000
# 3 45.4904 47.0002 128.0414 0.0000 -19.4394 0.0000
# 4 0.0000 0.0000 0.0000 16.1121 0.0000 7.1620
# 5 -21.0114 -5.7652 -19.4394 0.0000 22.3950 0.0000
# 6 0.0000 0.0000 0.0000 7.1620 0.0000 14.8541
#
#
#
# Elastic Compliance Matrix: (Units=1/GPa)
#
#
# Indices 1 2 3 4 5 6 
#
# 1 0.028789 -0.007648 -0.004168 0.000000 0.021423 0.000000
# 2 -0.007648 0.011885 -0.002615 0.000000 -0.006386 0.000000
# 3 -0.004168 -0.002615 0.011005 0.000000 0.004969 0.000000
# 4 0.000000 0.000000 0.000000 0.078995 0.000000 -0.038088
# 5 0.021423 -0.006386 0.004969 0.000000 0.067422 0.000000
# 6 0.000000 0.000000 0.000000 -0.038088 0.000000 0.085685
#
#
# Mechanical properties :
#
#
# Convention : Reuss Voigt Hill
#
# Bulk Modulus (GPa) = 43.82783 65.05454 54.44118
# Shear Modulus (GPa) = 15.61286 22.67353 19.14319
#
# Velocity S-wave (km/s) = 2.93679 3.53909 3.25191
# Velocity P-wave (km/s) = 5.97584 7.25514 6.64634
#
# Compressibility (1/GPa) = 0.02281655
#
# Stress axis : x y z
#
# Youngs Moduli (GPa) = 34.73538 84.14275 90.86749
#
# Poissons Ratio (x) = 0.64353 0.37876
# Poissons Ratio (y) = 0.26566 0.23760
# Poissons Ratio (z) = 0.14479 0.22001
#
# Static dielectric constant tensor:
#      x y z
#    x 1.546640 0.000000 -0.103270 
#    y 0.000000 1.611270 0.000000 
#    z -0.103270 0.000000 1.561020 
# 
# From -- ./inp_files/82285.got.cif
#   From: 2010.05.17/outbox.cif.g08.bks.cpg/sg15_42_cif.got.tgz:82285.got - 2010.06.03 18:47:42.
