data_PCOD9256432
_publ_section_title
;
Structure prediction by ZEFSAII (Michael W. Deem and Ramdas Pophale) SiO2 
 PCOD9256432
Probable space group: C 2/C
;
_chemical_formula_sum "Si O2"
_cell_formula_units_Z 56
_cell_length_a 20.295508
_cell_length_b 16.918620
_cell_length_c 17.653292
_cell_angle_alpha 90.000000
_cell_angle_beta 150.436989
_cell_angle_gamma 90.000000
_cell_volume 2990.697523
_symmetry_space_group_name_H-M "C 2/C"
_symmetry_group_IT_number 15
_symmetry_cell_setting 'monoclinic'
loop_
_space_group_symop_operation_xyz
x,y,z
-x,y,1/2-z
-x,-y,-z
x,-y,1/2+z
1/2+x,1/2+y,z
1/2-x,1/2+y,1/2-z
1/2-x,1/2-y,-z
1/2+x,1/2-y,1/2+z
loop_
_atom_site_type_symbol
_atom_site_label
_atom_site_fract_x
_atom_site_fract_y
_atom_site_fract_z
Si Si1 0.787767 0.589066 0.545216
Si Si2 0.329791 0.828652 0.246216
Si Si3 0.670210 0.171347 0.586635
Si Si4 0.894836 0.719732 0.535591
Si Si5 0.500000 0.644719 0.250000
Si Si6 0.212233 0.589066 0.469682
Si Si7 0.894837 0.719733 0.254082
Si Si8 0.000000 0.855281 0.250000
O O1 0.802159 0.615248 0.646882
O O2 0.859478 0.653649 0.563273
O O3 0.631893 0.594610 0.365975
O O4 0.837086 0.500000 0.587086
O O5 0.294727 0.859187 0.294727
O O6 0.487047 0.810379 0.399289
O O7 0.238819 0.751173 0.138415
O O8 0.697841 0.115248 0.542564
O O9 0.761182 0.248826 0.660778
O O10 0.512954 0.189621 0.425195
O O11 0.957424 0.795626 0.640731
O O12 0.140522 0.653649 0.344318
O O13 0.368106 0.594610 0.602188
O O14 0.957425 0.795626 0.274118
#
# Coordination Sequence:
#
# PCOD9256432 Si02
#       8
#     8   8   8   8   4   8   8   4
#     4  11  22  37  63  90 121 156 198 240 297 359
#     4  11  22  37  60  89 121 153 199 251 292 345
#     4  11  22  37  60  89 121 153 199 251 292 345
#     4  11  19  39  62  86 114 159 208 232 286 354
#     4  10  17  38  63  82 112 160 208 236 267 350
#     4  11  22  37  63  90 121 156 198 240 297 359
#     4  11  19  39  62  86 114 159 208 232 286 354
#     4  10  17  38  63  82 112 160 208 236 267 350
#
# _framework density 18.724729
#
# number of rings (size 3 to 8) (size 9 to 14) (size 15 to 20)
#    0.000    1.143    5.714    3.000    0.000    2.286 
#    0.000    4.286    0.000    3.429    0.000    0.000 
#    0.000    0.000    0.000    0.000    0.000    0.000 
#
# Total GULP energy -156181.934052 kJ/mol
# GULP energy per Si atom -5577.926216 kJ/mol
# Density = 1.868211 g / cm^3
# Si number density = 18.724729 Si / 1000 Ang^3
#
#
#
# Elastic Constant Matrix: (Units=GPa)
#
#
# Indices 1 2 3 4 5 6 
#
# 1 102.5519 39.7682 60.6781 0.0000 -15.7109 0.0000
# 2 39.7682 95.9363 32.3405 0.0000 -6.7078 0.0000
# 3 60.6781 32.3405 97.3078 0.0000 10.9773 0.0000
# 4 0.0000 0.0000 0.0000 6.4962 0.0000 -1.3370
# 5 -15.7109 -6.7078 10.9773 0.0000 36.3437 0.0000
# 6 0.0000 0.0000 0.0000 -1.3370 0.0000 7.9764
#
#
#
# Elastic Compliance Matrix: (Units=1/GPa)
#
#
# Indices 1 2 3 4 5 6 
#
# 1 0.020755 -0.003272 -0.013250 0.000000 0.012370 0.000000
# 2 -0.003272 0.012691 -0.002363 0.000000 0.001642 0.000000
# 3 -0.013250 -0.002363 0.020726 0.000000 -0.012424 0.000000
# 4 0.000000 0.000000 0.000000 0.159437 0.000000 0.026724
# 5 0.012370 0.001642 -0.012424 0.000000 0.036918 0.000000
# 6 0.000000 0.000000 0.000000 0.026724 0.000000 0.129849
#
#
# Mechanical properties :
#
#
# Convention : Reuss Voigt Hill
#
# Bulk Modulus (GPa) = 60.96772 62.37439 61.67106
# Shear Modulus (GPa) = 11.80320 21.03055 16.41688
#
# Velocity S-wave (km/s) = 2.51341 3.35497 2.96421
# Velocity P-wave (km/s) = 6.40731 6.95639 6.68749
#
# Compressibility (1/GPa) = 0.01640212
#
# Stress axis : x y z
#
# Youngs Moduli (GPa) = 48.18108 78.79480 48.24859
#
# Poissons Ratio (x) = 0.25781 0.63931
# Poissons Ratio (y) = 0.15764 0.11401
# Poissons Ratio (z) = 0.63841 0.18618
#
# Static dielectric constant tensor:
#      x y z
#    x 1.660190 0.000000 0.030380 
#    y 0.000000 1.630870 0.000000 
#    z 0.030380 0.000000 1.693830 
# 
# From -- ./inp_files/216078.got.cif
#   From: 2010.05.17/outbox.cif.g08.bks.cpg/sg15_109_cif.got.tgz:216078.got - 2010.06.03 18:47:42.
