data_PCOD9256904
_publ_section_title
;
Structure prediction by ZEFSAII (Michael W. Deem and Ramdas Pophale) SiO2 
 PCOD9256904
Probable space group: C 2/C
;
_chemical_formula_sum "Si O2"
_cell_formula_units_Z 56
_cell_length_a 5.090129
_cell_length_b 23.246582
_cell_length_c 28.878856
_cell_angle_alpha 90.000000
_cell_angle_beta 95.201988
_cell_angle_gamma 90.000000
_cell_volume 3403.105695
_symmetry_space_group_name_H-M "C 2/C"
_symmetry_group_IT_number 15
_symmetry_cell_setting 'monoclinic'
loop_
_space_group_symop_operation_xyz
x,y,z
-x,y,1/2-z
-x,-y,-z
x,-y,1/2+z
1/2+x,1/2+y,z
1/2-x,1/2+y,1/2-z
1/2-x,1/2-y,-z
1/2+x,1/2-y,1/2+z
loop_
_atom_site_type_symbol
_atom_site_label
_atom_site_fract_x
_atom_site_fract_y
_atom_site_fract_z
Si Si1 0.000000 0.330826 0.250000
Si Si2 0.269164 0.938137 0.537056
Si Si3 0.500000 0.413928 0.250000
Si Si4 0.081269 0.914413 0.351566
Si Si5 0.969011 0.748127 0.936896
Si Si6 0.419079 0.168433 0.648370
Si Si7 0.713707 0.502651 0.936842
Si Si8 0.480625 0.812276 0.963334
O O1 0.749974 0.372254 0.250769
O O2 0.957744 0.301511 0.199464
O O3 0.489933 0.979317 0.563535
O O4 0.395950 0.875214 0.539458
O O5 0.989502 0.950499 0.556623
O O6 0.224910 0.958044 0.483223
O O7 0.521733 0.443430 0.300455
O O8 0.354957 0.879916 0.352539
O O9 0.855938 0.866443 0.357389
O O10 0.109163 0.960109 0.392690
O O11 0.671683 0.771226 0.936093
O O12 0.038866 0.712392 0.892582
O O13 0.178924 0.800255 0.944724
O O14 0.002578 0.707994 0.982861
#
# Coordination Sequence:
#
# PCOD9256904 Si02
#       8
#     4   8   4   8   8   8   8   8
#     4   8  16  28  44  68  95 120 145 182 232 278
#     4  10  20  33  46  66  94 120 154 194 223 265
#     4   8  16  28  44  68  95 120 145 182 232 278
#     4  10  18  30  48  71  98 122 149 187 230 280
#     4  10  20  31  48  69  89 123 157 181 230 276
#     4  10  18  30  48  71  98 122 149 187 230 280
#     4  10  20  31  48  69  89 123 157 181 230 276
#     4  10  20  33  46  66  94 120 154 194 223 265
#
# _framework density 16.455556999999999
#
# number of rings (size 3 to 8) (size 9 to 14) (size 15 to 20)
#    0.000    2.286    0.000    3.429    0.000    4.571 
#    0.000    0.000    0.000    0.000    0.000    6.000 
#    0.000    0.000    0.000    0.000    0.000    0.000 
#
# Total GULP energy -155961.394837 kJ/mol
# GULP energy per Si atom -5570.049816 kJ/mol
# Density = 1.641810 g / cm^3
# Si number density = 16.455557 Si / 1000 Ang^3
#
#
#
# Elastic Constant Matrix: (Units=GPa)
#
#
# Indices 1 2 3 4 5 6 
#
# 1 68.5731 -12.1694 12.9300 0.0000 -1.1183 0.0000
# 2 -12.1694 42.3495 35.0362 0.0000 -1.1374 0.0000
# 3 12.9300 35.0362 105.4950 0.0000 -2.2869 0.0000
# 4 0.0000 0.0000 0.0000 12.2761 0.0000 -0.8166
# 5 -1.1183 -1.1374 -2.2869 0.0000 19.0493 0.0000
# 6 0.0000 0.0000 0.0000 -0.8166 0.0000 21.8037
#
#
#
# Elastic Compliance Matrix: (Units=1/GPa)
#
#
# Indices 1 2 3 4 5 6 
#
# 1 0.017210 0.009237 -0.005157 0.000000 0.000943 0.000000
# 2 0.009237 0.037524 -0.013569 0.000000 0.001154 0.000000
# 3 -0.005157 -0.013569 0.014632 0.000000 0.000644 0.000000
# 4 0.000000 0.000000 0.000000 0.081662 0.000000 0.003058
# 5 0.000943 0.001154 0.000644 0.000000 0.052697 0.000000
# 6 0.000000 0.000000 0.000000 0.003058 0.000000 0.045978
#
#
# Mechanical properties :
#
#
# Convention : Reuss Voigt Hill
#
# Bulk Modulus (GPa) = 19.84620 32.00124 25.92372
# Shear Modulus (GPa) = 17.51451 22.66722 20.09087
#
# Velocity S-wave (km/s) = 3.26598 3.71547 3.49795
# Velocity P-wave (km/s) = 5.12921 6.15594 5.66588
#
# Compressibility (1/GPa) = 0.05038747
#
# Stress axis : x y z
#
# Youngs Moduli (GPa) = 58.10625 26.64939 68.34502
#
# Poissons Ratio (x) = -0.24615 0.35242
# Poissons Ratio (y) = -0.53671 0.92740
# Poissons Ratio (z) = 0.29963 0.36162
#
# Static dielectric constant tensor:
#      x y z
#    x 1.559860 0.000000 -0.000880 
#    y 0.000000 1.527890 0.000000 
#    z -0.000880 0.000000 1.582810 
# 
# From -- ./inp_files/286272.got.cif
#   From: 2010.05.17/outbox.cif.g08.bks.cpg/sg15_144_cif.got.tgz:286272.got - 2010.06.03 18:47:42.
