data_PCOD9256407
_publ_section_title
;
Structure prediction by ZEFSAII (Michael W. Deem and Ramdas Pophale) SiO2 
 PCOD9256407
Probable space group: C 2/C
;
_chemical_formula_sum "Si O2"
_cell_formula_units_Z 48
_cell_length_a 29.070850
_cell_length_b 16.067636
_cell_length_c 14.497673
_cell_angle_alpha 90.000000
_cell_angle_beta 161.696212
_cell_angle_gamma 90.000000
_cell_volume 2126.738228
_symmetry_space_group_name_H-M "C 2/C"
_symmetry_group_IT_number 15
_symmetry_cell_setting 'monoclinic'
loop_
_space_group_symop_operation_xyz
x,y,z
-x,y,1/2-z
-x,-y,-z
x,-y,1/2+z
1/2+x,1/2+y,z
1/2-x,1/2+y,1/2-z
1/2-x,1/2-y,-z
1/2+x,1/2-y,1/2+z
loop_
_atom_site_type_symbol
_atom_site_label
_atom_site_fract_x
_atom_site_fract_y
_atom_site_fract_z
Si Si1 0.883833 0.791877 0.351564
Si Si2 0.166626 0.973006 0.319398
Si Si3 0.000000 0.872286 0.750000
Si Si4 0.228718 0.013521 0.149384
Si Si5 0.444315 0.787045 0.783446
Si Si6 0.031927 0.482280 0.669757
Si Si7 0.000000 0.157280 0.750000
O O1 0.845250 0.874601 0.219156
O O2 0.984688 0.816954 0.629041
O O3 0.949315 0.728063 0.402702
O O4 0.719811 0.765813 0.066024
O O5 0.294046 0.004509 0.492191
O O6 0.211125 0.997142 0.506148
O O7 0.000000 0.000000 0.000000
O O8 0.857945 0.933277 0.475682
O O9 0.403873 0.020675 0.488654
O O10 0.136311 0.094740 0.998055
O O11 0.479229 0.883014 0.832474
O O12 0.535731 0.718470 0.903207
O O13 0.000000 0.500000 0.500000
#
# Coordination Sequence:
#
# PCOD9256407 Si02
#       7
#     8   8   4   8   8   8   4
#     4  10  21  38  64  95 128 176 227 282 334 415
#     4  10  17  37  65  92 125 173 222 267 342 408
#     4  11  22  36  64  93 138 174 222 283 354 400
#     4  10  21  38  61  97 135 170 219 287 339 403
#     4  10  22  40  68  96 130 178 235 276 341 408
#     4   9  21  39  65  95 130 169 221 286 330 397
#     4  11  22  38  70  97 130 176 232 277 334 422
#
# _framework density 22.569773999999999
#
# number of rings (size 3 to 8) (size 9 to 14) (size 15 to 20)
#    0.000    2.000    3.333    0.000    4.667    0.000 
#    0.000    0.833    7.333    1.000    0.000    0.000 
#    0.000    0.000    0.000    0.000    0.000    0.000 
#
# Total GULP energy -133857.433799 kJ/mol
# GULP energy per Si atom -5577.393075 kJ/mol
# Density = 2.251840 g / cm^3
# Si number density = 22.569774 Si / 1000 Ang^3
#
#
#
# Elastic Constant Matrix: (Units=GPa)
#
#
# Indices 1 2 3 4 5 6 
#
# 1 80.0173 35.8742 48.0995 0.0000 23.3512 0.0000
# 2 35.8742 69.8418 22.0765 0.0000 20.8620 0.0000
# 3 48.0995 22.0765 123.5075 0.0000 24.1832 0.0000
# 4 0.0000 0.0000 0.0000 20.4142 0.0000 -3.2567
# 5 23.3512 20.8620 24.1832 0.0000 58.3149 0.0000
# 6 0.0000 0.0000 0.0000 -3.2567 0.0000 28.1107
#
#
#
# Elastic Compliance Matrix: (Units=1/GPa)
#
#
# Indices 1 2 3 4 5 6 
#
# 1 0.020417 -0.007717 -0.005999 0.000000 -0.002927 0.000000
# 2 -0.007717 0.019367 0.000321 0.000000 -0.003972 0.000000
# 3 -0.005999 0.000321 0.010805 0.000000 -0.002194 0.000000
# 4 0.000000 0.000000 0.000000 0.049908 0.000000 0.005782
# 5 -0.002927 -0.003972 -0.002194 0.000000 0.020651 0.000000
# 6 0.000000 0.000000 0.000000 0.005782 0.000000 0.036244
#
#
# Mechanical properties :
#
#
# Convention : Reuss Voigt Hill
#
# Bulk Modulus (GPa) = 42.01683 53.94077 47.97880
# Shear Modulus (GPa) = 26.02632 32.52239 29.27435
#
# Velocity S-wave (km/s) = 3.39949 3.80013 3.60538
# Velocity P-wave (km/s) = 5.83657 6.57313 6.21577
#
# Compressibility (1/GPa) = 0.02379998
#
# Stress axis : x y z
#
# Youngs Moduli (GPa) = 48.97824 51.63549 92.54948
#
# Poissons Ratio (x) = 0.39845 0.55520
# Poissons Ratio (y) = 0.37795 -0.02973
# Poissons Ratio (z) = 0.29382 -0.01658
#
# Static dielectric constant tensor:
#      x y z
#    x 1.926060 0.000000 0.085450 
#    y 0.000000 1.964870 0.000000 
#    z 0.085450 0.000000 2.063630 
# 
# From -- ./inp_files/182574.got.cif
#   From: 2010.05.17/outbox.cif.g08.bks.cpg/sg15_92_cif.got.tgz:182574.got - 2010.06.03 18:47:42.
