data_PCOD9256666
_publ_section_title
;
Structure prediction by ZEFSAII (Michael W. Deem and Ramdas Pophale) SiO2 
 PCOD9256666
Probable space group: C 2/C
;
_chemical_formula_sum "Si O2"
_cell_formula_units_Z 60
_cell_length_a 28.626313
_cell_length_b 12.444080
_cell_length_c 12.207405
_cell_angle_alpha 90.000000
_cell_angle_beta 37.708991
_cell_angle_gamma 90.000000
_cell_volume 2659.839252
_symmetry_space_group_name_H-M "C 2/C"
_symmetry_group_IT_number 15
_symmetry_cell_setting 'monoclinic'
loop_
_space_group_symop_operation_xyz
x,y,z
-x,y,1/2-z
-x,-y,-z
x,-y,1/2+z
1/2+x,1/2+y,z
1/2-x,1/2+y,1/2-z
1/2-x,1/2-y,-z
1/2+x,1/2-y,1/2+z
loop_
_atom_site_type_symbol
_atom_site_label
_atom_site_fract_x
_atom_site_fract_y
_atom_site_fract_z
Si Si1 0.303691 0.027605 0.491361
Si Si2 0.500000 0.354781 0.250000
Si Si3 0.248211 0.185816 0.147701
Si Si4 0.683389 0.396743 0.405553
Si Si5 0.055246 0.150786 0.980777
Si Si6 0.216570 0.888081 0.948739
Si Si7 0.603473 0.213439 0.209284
Si Si8 0.588682 0.419444 0.869966
O O1 0.243245 0.069256 0.696723
O O2 0.275305 0.061834 0.424374
O O3 0.380874 0.094260 0.358907
O O4 0.307318 0.899927 0.489693
O O5 0.559586 0.277332 0.197391
O O6 0.459374 0.414534 0.426082
O O7 0.247834 0.159751 0.277669
O O8 0.165897 0.147597 0.250684
O O9 0.225452 0.191104 0.904030
O O10 0.605016 0.350180 0.498974
O O11 0.668094 0.507740 0.498180
O O12 0.066084 0.261937 0.895261
O O13 0.096026 0.048116 0.843046
O O14 0.965749 0.124626 0.125606
O O15 0.179589 0.784824 0.073318
#
# Coordination Sequence:
#
# PCOD9256666 Si02
#       8
#     8   4   8   8   8   8   8   8
#     4  11  21  34  52  80 109 140 187 230 268 326
#     4  10  18  28  52  78 108 146 172 220 276 332
#     4  11  21  35  53  78 114 146 181 227 276 331
#     4  11  20  33  52  77 107 145 180 223 274 333
#     4  10  19  31  53  79 110 141 177 231 281 329
#     4  11  19  31  52  76 106 136 175 224 277 317
#     4  11  18  32  54  78 108 137 180 229 270 323
#     4  10  18  32  48  80 114 140 176 225 286 329
#
# _framework density 22.557755
#
# number of rings (size 3 to 8) (size 9 to 14) (size 15 to 20)
#    0.000    1.333    6.667    1.200    0.000    0.533 
#    0.000    0.000    0.000    1.600    0.000    8.400 
#    0.000    0.000    0.000    0.000    0.000    0.000 
#
# Total GULP energy -167337.608485 kJ/mol
# GULP energy per Si atom -5577.920283 kJ/mol
# Density = 2.250641 g / cm^3
# Si number density = 22.557755 Si / 1000 Ang^3
#
#
#
# Elastic Constant Matrix: (Units=GPa)
#
#
# Indices 1 2 3 4 5 6 
#
# 1 86.9712 25.2666 14.0550 0.0000 -8.6483 0.0000
# 2 25.2666 86.4555 16.3178 0.0000 -9.5347 0.0000
# 3 14.0550 16.3178 51.7152 0.0000 15.0217 0.0000
# 4 0.0000 0.0000 0.0000 10.4816 0.0000 3.1742
# 5 -8.6483 -9.5347 15.0217 0.0000 23.3806 0.0000
# 6 0.0000 0.0000 0.0000 3.1742 0.0000 31.2612
#
#
#
# Elastic Compliance Matrix: (Units=1/GPa)
#
#
# Indices 1 2 3 4 5 6 
#
# 1 0.013731 -0.002193 -0.005232 0.000000 0.007546 0.000000
# 2 -0.002193 0.014516 -0.006723 0.000000 0.009428 0.000000
# 3 -0.005232 -0.006723 0.029799 0.000000 -0.023822 0.000000
# 4 0.000000 0.000000 0.000000 0.098432 0.000000 -0.009995
# 5 0.007546 0.009428 -0.023822 0.000000 0.064712 0.000000
# 6 0.000000 0.000000 0.000000 -0.009995 0.000000 0.033003
#
#
# Mechanical properties :
#
#
# Convention : Reuss Voigt Hill
#
# Bulk Modulus (GPa) = 33.61172 37.38009 35.49590
# Shear Modulus (GPa) = 17.09951 24.32486 20.71219
#
# Velocity S-wave (km/s) = 2.75623 3.28737 3.03344
# Velocity P-wave (km/s) = 5.00616 5.56919 5.29516
#
# Compressibility (1/GPa) = 0.02975153
#
# Stress axis : x y z
#
# Youngs Moduli (GPa) = 72.82773 68.88844 33.55779
#
# Poissons Ratio (x) = 0.15109 0.17556
# Poissons Ratio (y) = 0.15973 0.22560
# Poissons Ratio (z) = 0.38100 0.46312
#
# Static dielectric constant tensor:
#      x y z
#    x 1.605090 0.000000 0.212620 
#    y 0.000000 1.852740 0.000000 
#    z 0.212620 0.000000 1.727210 
# 
# From -- ./inp_files/123139.got.cif
#   From: 2010.05.17/outbox.cif.g08.bks.cpg/sg15_62_cif.got.tgz:123139.got - 2010.06.03 18:47:42.
