data_PCOD9256148
_publ_section_title
;
Structure prediction by ZEFSAII (Michael W. Deem and Ramdas Pophale) SiO2 
 PCOD9256148
Probable space group: C 2/C
;
_chemical_formula_sum "Si O2"
_cell_formula_units_Z 52
_cell_length_a 24.948089
_cell_length_b 14.830317
_cell_length_c 20.254167
_cell_angle_alpha 90.000000
_cell_angle_beta 161.209462
_cell_angle_gamma 90.000000
_cell_volume 2413.823150
_symmetry_space_group_name_H-M "C 2/C"
_symmetry_group_IT_number 15
_symmetry_cell_setting 'monoclinic'
loop_
_space_group_symop_operation_xyz
x,y,z
-x,y,1/2-z
-x,-y,-z
x,-y,1/2+z
1/2+x,1/2+y,z
1/2-x,1/2+y,1/2-z
1/2-x,1/2-y,-z
1/2+x,1/2-y,1/2+z
loop_
_atom_site_type_symbol
_atom_site_label
_atom_site_fract_x
_atom_site_fract_y
_atom_site_fract_z
Si Si1 0.922349 0.076146 0.455824
Si Si2 0.937580 0.296751 0.577861
Si Si3 0.323952 0.637382 0.635214
Si Si4 0.615770 0.260157 0.690790
Si Si5 0.949922 0.164026 0.119784
Si Si6 0.500000 0.511596 0.750000
Si Si7 0.141938 0.655338 0.191463
O O1 0.890345 0.162877 0.371955
O O2 0.746491 0.068558 0.289525
O O3 0.058842 0.098333 0.669986
O O4 0.000000 0.000000 0.500000
O O5 0.852811 0.354939 0.535969
O O6 0.784239 0.230593 0.376391
O O7 0.087460 0.232821 0.776905
O O8 0.017038 0.349588 0.608366
O O9 0.352636 0.574280 0.605539
O O10 0.586187 0.310483 0.725171
O O11 0.468718 0.193262 0.497308
O O12 0.781750 0.203118 0.893741
O O13 0.000000 0.203418 0.250000
O O14 0.942524 0.057525 0.126162
#
# Coordination Sequence:
#
# PCOD9256148 Si02
#       7
#     8   8   8   8   8   4   8
#     4  11  22  35  64  99 129 166 214 282 346 372
#     4   9  17  34  65  92 121 166 219 262 340 407
#     4  10  20  39  62  89 132 168 220 274 332 403
#     4  12  18  39  69  93 126 172 226 267 322 407
#     4  10  24  38  64  93 126 180 223 259 328 402
#     4  10  24  42  58  88 140 180 214 272 328 396
#     4  10  17  34  62  99 126 161 210 278 334 400
#
# _framework density 21.542590000000001
#
# number of rings (size 3 to 8) (size 9 to 14) (size 15 to 20)
#    0.462    1.231    6.154    1.385    0.000    0.615 
#    0.000    0.769    6.769    5.538    0.000    0.000 
#    0.000    0.000    0.000    0.000    0.000    0.000 
#
# Total GULP energy -145079.357011 kJ/mol
# GULP energy per Si atom -5579.975270 kJ/mol
# Density = 2.149356 g / cm^3
# Si number density = 21.542590 Si / 1000 Ang^3
#
#
#
# Elastic Constant Matrix: (Units=GPa)
#
#
# Indices 1 2 3 4 5 6 
#
# 1 113.1685 38.0537 16.1870 -0.0016 41.6817 -0.0020
# 2 38.0537 69.7966 16.1606 -0.0014 20.6928 -0.0019
# 3 16.1870 16.1606 88.5160 -0.0018 11.2041 -0.0032
# 4 -0.0016 -0.0014 -0.0018 19.1714 -0.0007 1.3694
# 5 41.6817 20.6928 11.2041 -0.0007 51.0836 -0.0009
# 6 -0.0020 -0.0019 -0.0032 1.3694 -0.0009 37.7060
#
#
#
# Elastic Compliance Matrix: (Units=1/GPa)
#
#
# Indices 1 2 3 4 5 6 
#
# 1 0.013937 -0.004709 -0.000505 0.000000 -0.009354 0.000000
# 2 -0.004709 0.018301 -0.002086 0.000001 -0.003114 0.000000
# 3 -0.000505 -0.002086 0.011943 0.000001 -0.001362 0.000001
# 4 0.000000 0.000001 0.000001 0.052297 0.000000 -0.001899
# 5 -0.009354 -0.003114 -0.001362 0.000000 0.028768 0.000000
# 6 0.000000 0.000000 0.000001 -0.001899 0.000000 0.026590
#
#
# Mechanical properties :
#
#
# Convention : Reuss Voigt Hill
#
# Bulk Modulus (GPa) = 33.80485 45.80930 39.80707
# Shear Modulus (GPa) = 28.36151 34.99751 31.67951
#
# Velocity S-wave (km/s) = 3.63234 4.03497 3.83894
# Velocity P-wave (km/s) = 5.77218 6.55886 6.17806
#
# Compressibility (1/GPa) = 0.02958155
#
# Stress axis : x y z
#
# Youngs Moduli (GPa) = 71.75115 54.64300 83.73072
#
# Poissons Ratio (x) = 0.25729 0.04229
# Poissons Ratio (y) = 0.33784 0.17466
# Poissons Ratio (z) = 0.03624 0.11399
#
# Static dielectric constant tensor:
#      x y z
#    x 1.856390 0.000000 0.000120 
#    y 0.000000 1.816110 0.000000 
#    z 0.000120 0.000000 1.785980 
# 
# From -- ./inp_files/255858.got.cif
#   From: 2010.05.17/outbox.cif.g08.bks.cpg/sg15_128_cif.got.tgz:255858.got - 2010.06.03 18:47:42.
