data_PCOD9256356
_publ_section_title
;
Structure prediction by ZEFSAII (Michael W. Deem and Ramdas Pophale) SiO2 
 PCOD9256356
Probable space group: C 2/C
;
_chemical_formula_sum "Si O2"
_cell_formula_units_Z 56
_cell_length_a 13.160354
_cell_length_b 22.753937
_cell_length_c 21.885902
_cell_angle_alpha 90.000000
_cell_angle_beta 156.918776
_cell_angle_gamma 90.000000
_cell_volume 2569.296077
_symmetry_space_group_name_H-M "C 2/C"
_symmetry_group_IT_number 15
_symmetry_cell_setting 'monoclinic'
loop_
_space_group_symop_operation_xyz
x,y,z
-x,y,1/2-z
-x,-y,-z
x,-y,1/2+z
1/2+x,1/2+y,z
1/2-x,1/2+y,1/2-z
1/2-x,1/2-y,-z
1/2+x,1/2-y,1/2+z
loop_
_atom_site_type_symbol
_atom_site_label
_atom_site_fract_x
_atom_site_fract_y
_atom_site_fract_z
Si Si1 0.983792 0.725789 0.527814
Si Si2 0.192071 0.857231 0.081373
Si Si3 0.500000 0.565516 0.750000
Si Si4 0.318272 0.594525 0.278659
Si Si5 0.332498 0.978457 0.347759
Si Si6 0.000000 0.138877 0.250000
Si Si7 0.329616 0.837848 0.482365
Si Si8 0.674938 0.645017 0.712046
O O1 0.882597 0.791025 0.479326
O O2 0.744577 0.681200 0.393360
O O3 0.134504 0.715203 0.546025
O O4 0.155910 0.702434 0.679016
O O5 0.500000 0.865251 0.250000
O O6 0.107897 0.863313 0.104870
O O7 0.036933 0.898972 0.950053
O O8 0.459946 0.526829 0.786718
O O9 0.252910 0.607639 0.607213
O O10 0.170707 0.532324 0.200094
O O11 0.440403 0.602823 0.278513
O O12 0.099537 0.645480 0.162858
O O13 0.345528 0.913299 0.325544
O O14 0.500000 0.000000 0.500000
O O15 0.088270 0.841417 0.395104
#
# Coordination Sequence:
#
# PCOD9256356 Si02
#       8
#     8   8   4   8   8   4   8   8
#     4  11  21  42  69  95 136 177 225 284 339 393
#     4  12  29  46  64  98 143 188 227 280 343 420
#     4  10  17  36  64 102 134 156 217 290 336 386
#     4  11  24  42  68 103 138 177 232 274 351 409
#     4  11  20  39  72 100 130 172 223 286 334 397
#     4  10  21  38  68 100 128 174 227 282 332 398
#     4  10  20  42  66 103 132 165 228 287 331 402
#     4  11  25  44  68  99 141 175 227 289 346 400
#
# _framework density 21.795853000000001
#
# number of rings (size 3 to 8) (size 9 to 14) (size 15 to 20)
#    0.000    1.143    5.000    2.143    4.000    4.000 
#    2.571    0.000    0.000    0.000    0.000    0.000 
#    0.000    0.000    0.000    0.000    0.000    0.000 
#
# Total GULP energy -156139.332973 kJ/mol
# GULP energy per Si atom -5576.404749 kJ/mol
# Density = 2.174624 g / cm^3
# Si number density = 21.795853 Si / 1000 Ang^3
#
#
#
# Elastic Constant Matrix: (Units=GPa)
#
#
# Indices 1 2 3 4 5 6 
#
# 1 58.2667 -20.8439 25.6323 0.2432 -3.8026 -0.0591
# 2 -20.8439 52.4050 26.2251 -0.1200 -8.0252 0.0423
# 3 25.6323 26.2251 127.2569 -0.2528 -14.8021 0.0820
# 4 0.2432 -0.1200 -0.2528 -164.3883 0.1410 51.6888
# 5 -3.8026 -8.0252 -14.8021 0.1410 31.3501 -0.0276
# 6 -0.0591 0.0423 0.0820 51.6888 -0.0276 4.2629
#
#
#
# Elastic Compliance Matrix: (Units=1/GPa)
#
#
# Indices 1 2 3 4 5 6 
#
# 1 0.026220 0.014917 -0.007979 0.000034 0.003231 -0.000027
# 2 0.014917 0.030148 -0.008581 0.000011 0.005475 -0.000023
# 3 -0.007979 -0.008581 0.011497 -0.000020 0.002264 0.000005
# 4 0.000034 0.000011 -0.000020 -0.001264 0.000017 0.015326
# 5 0.003231 0.005475 0.002264 0.000017 0.034760 -0.000033
# 6 -0.000027 -0.000023 0.000005 0.015326 -0.000033 0.048744
#
#
# Mechanical properties :
#
#
# Convention : Reuss Voigt Hill
#
# Bulk Modulus (GPa) = 15.48513 33.32841 24.40677
# Shear Modulus (GPa) = 28.58509 -11.96070 8.31220
#
# Velocity S-wave (km/s) = 3.62538 -2.34510 1.95498
# Velocity P-wave (km/s) = 4.96433 2.82696 4.03957
#
# Compressibility (1/GPa) = 0.06457809
#
# Stress axis : x y z
#
# Youngs Moduli (GPa) = 38.13941 33.17001 86.97988
#
# Poissons Ratio (x) = -0.49479 0.69404
# Poissons Ratio (y) = -0.56892 0.74633
# Poissons Ratio (z) = 0.30433 0.28462
#
# Static dielectric constant tensor:
#      x y z
#    x 1.845080 -0.000010 0.002120 
#    y -0.000010 1.877570 -0.000060 
#    z 0.002120 -0.000060 1.813890 
# 
# From -- ./inp_files/275279.got.cif
#   From: 2010.05.17/outbox.cif.g08.bks.cpg/sg15_138_cif.got.tgz:275279.got - 2010.06.03 18:47:42.
