data_PCOD9256089
_publ_section_title
;
Structure prediction by ZEFSAII (Michael W. Deem and Ramdas Pophale) SiO2 
 PCOD9256089
Probable space group: C 2/C
;
_chemical_formula_sum "Si O2"
_cell_formula_units_Z 48
_cell_length_a 8.624877
_cell_length_b 21.532485
_cell_length_c 22.950882
_cell_angle_alpha 90.000000
_cell_angle_beta 33.123774
_cell_angle_gamma 90.000000
_cell_volume 2329.144787
_symmetry_space_group_name_H-M "C 2/C"
_symmetry_group_IT_number 15
_symmetry_cell_setting 'monoclinic'
loop_
_space_group_symop_operation_xyz
x,y,z
-x,y,1/2-z
-x,-y,-z
x,-y,1/2+z
1/2+x,1/2+y,z
1/2-x,1/2+y,1/2-z
1/2-x,1/2-y,-z
1/2+x,1/2-y,1/2+z
loop_
_atom_site_type_symbol
_atom_site_label
_atom_site_fract_x
_atom_site_fract_y
_atom_site_fract_z
Si Si1 0.500000 0.601028 0.250000
Si Si2 0.626254 0.093135 0.570730
Si Si3 0.215211 0.693979 0.630101
Si Si4 0.581348 0.967386 0.535346
Si Si5 0.821654 0.161416 0.931188
Si Si6 0.685959 0.319313 0.591126
Si Si7 0.000000 0.136724 0.750000
O O1 0.522453 0.645731 0.299058
O O2 0.786486 0.561015 0.152741
O O3 0.672762 0.125726 0.617394
O O4 0.787784 0.138407 0.474182
O O5 0.290502 0.098233 0.662146
O O6 0.703489 0.021813 0.537387
O O7 0.520433 0.694276 0.565387
O O8 0.141603 0.745422 0.603956
O O9 0.000000 0.705947 0.750000
O O10 0.800056 0.912063 0.452941
O O11 0.500000 0.000000 0.500000
O O12 0.972990 0.171906 0.820678
O O13 0.495338 0.178084 0.023998
#
# Coordination Sequence:
#
# PCOD9256089 Si02
#       7
#     4   8   8   8   8   8   4
#     4  10  19  34  64  88 106 150 211 234 276 344
#     4  11  22  36  59  90 114 157 193 246 293 341
#     4  12  23  37  59  86 124 153 190 247 300 347
#     4  11  20  35  62  87 115 152 199 247 281 348
#     4  10  22  37  59  90 112 156 192 246 291 342
#     4  10  21  40  60  83 115 160 200 235 284 358
#     4  10  17  34  58  86 112 138 211 222 286 350
#
# _framework density 20.608422000000001
#
# number of rings (size 3 to 8) (size 9 to 14) (size 15 to 20)
#    0.000    1.333    7.500    1.500    0.000    0.667 
#    0.000    0.000    0.000    3.000    0.000    0.000 
#    0.000    0.000    0.000    0.000    0.000    0.000 
#
# Total GULP energy -133808.435646 kJ/mol
# GULP energy per Si atom -5575.351485 kJ/mol
# Density = 2.056152 g / cm^3
# Si number density = 20.608422 Si / 1000 Ang^3
#
#
#
# Elastic Constant Matrix: (Units=GPa)
#
#
# Indices 1 2 3 4 5 6 
#
# 1 24.8896 8.9043 6.1015 -0.0301 -1.0911 0.0036
# 2 8.9043 111.6202 15.6870 0.0112 18.4632 0.0067
# 3 6.1015 15.6870 75.5495 0.0415 19.1841 0.0104
# 4 -0.0301 0.0112 0.0415 -6.4334 0.0000 3.7117
# 5 -1.0911 18.4632 19.1841 0.0000 19.5116 0.0038
# 6 0.0036 0.0067 0.0104 3.7117 0.0038 33.1194
#
#
#
# Elastic Compliance Matrix: (Units=1/GPa)
#
#
# Indices 1 2 3 4 5 6 
#
# 1 0.043852 -0.004779 -0.005758 -0.000237 0.012636 0.000023
# 2 -0.004779 0.011154 0.001090 0.000045 -0.011894 -0.000006
# 3 -0.005758 0.001090 0.018417 0.000137 -0.019461 -0.000018
# 4 -0.000237 0.000045 0.000137 -0.145997 -0.000194 0.016362
# 5 0.012636 -0.011894 -0.019461 -0.000194 0.082347 0.000020
# 6 0.000023 -0.000006 -0.000018 0.016362 0.000020 0.028360
#
#
# Mechanical properties :
#
#
# Convention : Reuss Voigt Hill
#
# Bulk Modulus (GPa) = 18.33852 30.38276 24.36064
# Shear Modulus (GPa) = 66.48593 21.33061 43.90827
#
# Velocity S-wave (km/s) = 5.68609 3.22070 4.62085
# Velocity P-wave (km/s) = 7.21295 5.34840 6.34949
#
# Compressibility (1/GPa) = 0.05453002
#
# Stress axis : x y z
#
# Youngs Moduli (GPa) = 22.80383 89.65061 54.29886
#
# Poissons Ratio (x) = 0.42845 0.31263
# Poissons Ratio (y) = 0.10898 -0.05919
# Poissons Ratio (z) = 0.13130 -0.09773
#
# Static dielectric constant tensor:
#      x y z
#    x 1.737240 0.000000 0.015100 
#    y 0.000000 1.790730 0.000010 
#    z 0.015100 0.000010 1.754450 
# 
# From -- ./inp_files/178939.got.cif
#   From: 2010.05.17/outbox.cif.g08.bks.cpg/sg15_90_cif.got.tgz:178939.got - 2010.06.03 18:47:42.
