data_PCOD9256280
_publ_section_title
;
Structure prediction by ZEFSAII (Michael W. Deem and Ramdas Pophale) SiO2 
 PCOD9256280
Probable space group: C 2/C
;
_chemical_formula_sum "Si O2"
_cell_formula_units_Z 44
_cell_length_a 18.654952
_cell_length_b 6.782415
_cell_length_c 29.727646
_cell_angle_alpha 90.000000
_cell_angle_beta 151.929436
_cell_angle_gamma 90.000000
_cell_volume 1769.916393
_symmetry_space_group_name_H-M "C 2/C"
_symmetry_group_IT_number 15
_symmetry_cell_setting 'monoclinic'
loop_
_space_group_symop_operation_xyz
x,y,z
-x,y,1/2-z
-x,-y,-z
x,-y,1/2+z
1/2+x,1/2+y,z
1/2-x,1/2+y,1/2-z
1/2-x,1/2-y,-z
1/2+x,1/2-y,1/2+z
loop_
_atom_site_type_symbol
_atom_site_label
_atom_site_fract_x
_atom_site_fract_y
_atom_site_fract_z
Si Si1 0.555170 0.391309 0.683827
Si Si2 0.187770 0.756173 0.539641
Si Si3 0.000000 0.792355 0.750000
Si Si4 0.157513 0.422947 0.796391
Si Si5 0.632809 0.008784 0.924981
Si Si6 0.866181 0.142442 0.854221
O O1 0.503665 0.420344 0.706922
O O2 0.722216 0.287788 0.773618
O O3 0.578026 0.575029 0.664006
O O4 0.429596 0.227162 0.600452
O O5 0.302206 0.757621 0.644976
O O6 0.234684 0.948163 0.536046
O O7 0.181271 0.584515 0.499125
O O8 0.014629 0.773374 0.460466
O O9 0.130700 0.628312 0.809968
O O10 0.302927 0.453468 0.845452
O O11 0.012397 0.415195 0.683008
#
# Coordination Sequence:
#
# PCOD9256280 Si02
#       6
#     8   8   4   8   8   8
#     4  10  19  39  55  84 113 151 181 237 274 335
#     4  11  18  34  57  87 105 149 189 229 268 338
#     4   8  16  34  60  72 108 154 186 208 272 336
#     4  10  17  36  54  84 106 151 185 227 260 347
#     4   9  20  33  59  78 116 146 185 228 279 321
#     4  10  21  31  60  81 114 139 193 227 285 316
#
# _framework density 24.859929999999999
#
# number of rings (size 3 to 8) (size 9 to 14) (size 15 to 20)
#    0.000    2.545    3.636    2.727    0.000    0.727 
#    0.000    0.909   16.000    0.000    0.000    0.000 
#    0.000    0.000    0.000    0.000    0.000    0.000 
#
# Total GULP energy -122664.715888 kJ/mol
# GULP energy per Si atom -5575.668904 kJ/mol
# Density = 2.480335 g / cm^3
# Si number density = 24.859930 Si / 1000 Ang^3
#
#
#
# Elastic Constant Matrix: (Units=GPa)
#
#
# Indices 1 2 3 4 5 6 
#
# 1 130.8070 26.9249 24.1269 0.0001 -14.8229 -0.0004
# 2 26.9249 49.4757 39.9082 0.0008 -12.3476 0.0015
# 3 24.1269 39.9082 112.0860 0.0008 -7.1015 -0.0003
# 4 0.0001 0.0008 0.0008 23.3934 -0.0006 7.3884
# 5 -14.8229 -12.3476 -7.1015 -0.0006 52.7986 -0.0002
# 6 -0.0004 0.0015 -0.0003 7.3884 -0.0002 3.0152
#
#
#
# Elastic Compliance Matrix: (Units=1/GPa)
#
#
# Indices 1 2 3 4 5 6 
#
# 1 0.008716 -0.004131 -0.000314 -0.000004 0.001439 0.000013
# 2 -0.004131 0.031876 -0.010148 0.000021 0.004930 -0.000068
# 3 -0.000314 -0.010148 0.012554 -0.000009 -0.000773 0.000028
# 4 -0.000004 0.000021 -0.000009 0.189071 0.000003 -0.463297
# 5 0.001439 0.004930 -0.000773 0.000003 0.020393 -0.000008
# 6 0.000013 -0.000068 0.000028 -0.463297 -0.000008 1.466916
#
#
# Mechanical properties :
#
#
# Convention : Reuss Voigt Hill
#
# Bulk Modulus (GPa) = 41.73687 52.69873 47.21780
# Shear Modulus (GPa) = 2.83014 29.26868 16.04941
#
# Velocity S-wave (km/s) = 1.06813 3.43497 2.54361
# Velocity P-wave (km/s) = 4.28328 6.08081 5.25941
#
# Compressibility (1/GPa) = 0.02395963
#
# Stress axis : x y z
#
# Youngs Moduli (GPa) = 114.72997 31.37178 79.65892
#
# Poissons Ratio (x) = 0.12959 0.02503
# Poissons Ratio (y) = 0.47393 0.80837
# Poissons Ratio (z) = 0.03605 0.31836
#
# Static dielectric constant tensor:
#      x y z
#    x 1.995520 0.000000 -0.039580 
#    y 0.000000 2.031290 0.000000 
#    z -0.039580 0.000000 2.006170 
# 
# From -- ./inp_files/315576.got.cif
#   From: 2010.05.17/outbox.cif.g08.bks.cpg/sg15_158_cif.got.tgz:315576.got - 2010.06.03 18:47:42.
