data_PCOD9256015
_publ_section_title
;
Structure prediction by ZEFSAII (Michael W. Deem and Ramdas Pophale) SiO2 
 PCOD9256015
Probable space group: C 2/C
;
_chemical_formula_sum "Si O2"
_cell_formula_units_Z 60
_cell_length_a 13.053769
_cell_length_b 25.496661
_cell_length_c 11.724659
_cell_angle_alpha 90.000000
_cell_angle_beta 110.596423
_cell_angle_gamma 90.000000
_cell_volume 3652.860738
_symmetry_space_group_name_H-M "C 2/C"
_symmetry_group_IT_number 15
_symmetry_cell_setting 'monoclinic'
loop_
_space_group_symop_operation_xyz
x,y,z
-x,y,1/2-z
-x,-y,-z
x,-y,1/2+z
1/2+x,1/2+y,z
1/2-x,1/2+y,1/2-z
1/2-x,1/2-y,-z
1/2+x,1/2-y,1/2+z
loop_
_atom_site_type_symbol
_atom_site_label
_atom_site_fract_x
_atom_site_fract_y
_atom_site_fract_z
Si Si1 0.838403 0.967914 0.244048
Si Si2 0.288114 0.670702 0.097073
Si Si3 0.243024 0.625456 0.838396
Si Si4 0.551759 0.686155 0.656106
Si Si5 0.886914 0.081569 0.278591
Si Si6 0.922020 0.738427 0.534315
Si Si7 0.943312 0.925593 0.066889
Si Si8 0.500000 0.167682 0.750000
O O1 0.761017 0.930994 0.288796
O O2 0.853339 0.942581 0.124554
O O3 0.954205 0.962655 0.358346
O O4 0.817391 0.029372 0.222469
O O5 0.326032 0.634929 0.216673
O O6 0.367364 0.719503 0.099656
O O7 0.288622 0.632930 0.985157
O O8 0.170594 0.699351 0.052822
O O9 0.320296 0.667424 0.799606
O O10 0.114985 0.637769 0.794919
O O11 0.500000 0.708900 0.750000
O O12 0.531659 0.726582 0.547599
O O13 0.486740 0.632214 0.612040
O O14 0.911093 0.076466 0.422657
O O15 0.000000 0.080063 0.250000
O O16 0.002809 0.703679 0.639015
#
# Coordination Sequence:
#
# PCOD9256015 Si02
#       8
#     8   8   8   8   8   8   8   4
#     4  10  19  33  49  74 113 137 169 205 272 322
#     4   9  20  34  50  76 104 138 175 226 264 301
#     4   9  18  36  54  72 105 139 178 214 262 314
#     4  10  17  34  53  73 108 147 162 210 279 323
#     4  12  21  28  52  82 107 140 174 215 263 324
#     4   9  19  35  52  72 104 135 181 225 261 299
#     4  10  19  32  47  78 113 141 167 204 262 333
#     4  10  20  34  58  78  94 136 192 230 250 306
#
# _framework density 16.425481999999999
#
# number of rings (size 3 to 8) (size 9 to 14) (size 15 to 20)
#    0.000    2.133    4.000    3.600    4.667    0.000 
#    0.000    2.000    0.000    3.200    1.733    0.000 
#    0.000    0.000    0.000    0.000    0.000    0.000 
#
# Total GULP energy -167014.599077 kJ/mol
# GULP energy per Si atom -5567.153303 kJ/mol
# Density = 1.638810 g / cm^3
# Si number density = 16.425482 Si / 1000 Ang^3
#
#
#
# Elastic Constant Matrix: (Units=GPa)
#
#
# Indices 1 2 3 4 5 6 
#
# 1 34.1868 6.9937 19.0318 0.0000 -2.2337 0.0000
# 2 6.9937 77.8147 25.1183 0.0000 -1.0976 0.0000
# 3 19.0318 25.1183 82.7840 0.0000 -9.3240 0.0000
# 4 0.0000 0.0000 0.0000 -4.6928 0.0000 -8.4802
# 5 -2.2337 -1.0976 -9.3240 0.0000 14.7779 0.0000
# 6 0.0000 0.0000 0.0000 -8.4802 0.0000 0.0802
#
#
#
# Elastic Compliance Matrix: (Units=1/GPa)
#
#
# Indices 1 2 3 4 5 6 
#
# 1 0.033569 -0.000590 -0.007505 0.000000 0.000295 0.000000
# 2 -0.000590 0.014301 -0.004407 0.000000 -0.001808 0.000000
# 3 -0.007505 -0.004407 0.016123 0.000000 0.008711 0.000000
# 4 0.000000 0.000000 0.000000 -0.001110 0.000000 -0.117307
# 5 0.000295 -0.001808 0.008711 0.000000 0.073075 0.000000
# 6 0.000000 0.000000 0.000000 -0.117307 0.000000 0.064917
#
#
# Mechanical properties :
#
#
# Convention : Reuss Voigt Hill
#
# Bulk Modulus (GPa) = 25.64850 33.00812 29.32831
# Shear Modulus (GPa) = 20.93128 11.60917 16.27023
#
# Velocity S-wave (km/s) = 3.57363 2.66141 3.15071
# Velocity P-wave (km/s) = 5.71636 5.43907 5.57944
#
# Compressibility (1/GPa) = 0.03898863
#
# Stress axis : x y z
#
# Youngs Moduli (GPa) = 29.78919 69.92415 62.02156
#
# Poissons Ratio (x) = 0.04127 0.46548
# Poissons Ratio (y) = 0.01758 0.27334
# Poissons Ratio (z) = 0.22357 0.30817
#
# Static dielectric constant tensor:
#      x y z
#    x 1.555200 0.000000 -0.010520 
#    y 0.000000 1.570420 0.000000 
#    z -0.010520 0.000000 1.575230 
# 
# From -- ./inp_files/90889.got.cif
#   From: 2010.05.17/outbox.cif.g08.bks.cpg/sg15_46_cif.got.tgz:90889.got - 2010.06.03 18:47:42.
