data_PCOD9256146
_publ_section_title
;
Structure prediction by ZEFSAII (Michael W. Deem and Ramdas Pophale) SiO2 
 PCOD9256146
Probable space group: C 2/C
;
_chemical_formula_sum "Si O2"
_cell_formula_units_Z 56
_cell_length_a 12.607971
_cell_length_b 14.084309
_cell_length_c 15.036855
_cell_angle_alpha 90.000000
_cell_angle_beta 101.191906
_cell_angle_gamma 90.000000
_cell_volume 2619.383304
_symmetry_space_group_name_H-M "C 2/C"
_symmetry_group_IT_number 15
_symmetry_cell_setting 'monoclinic'
loop_
_space_group_symop_operation_xyz
x,y,z
-x,y,1/2-z
-x,-y,-z
x,-y,1/2+z
1/2+x,1/2+y,z
1/2-x,1/2+y,1/2-z
1/2-x,1/2-y,-z
1/2+x,1/2-y,1/2+z
loop_
_atom_site_type_symbol
_atom_site_label
_atom_site_fract_x
_atom_site_fract_y
_atom_site_fract_z
Si Si1 0.965100 0.281950 0.045536
Si Si2 0.019986 0.096429 0.352633
Si Si3 0.054848 0.565693 0.085530
Si Si4 0.784679 0.945901 0.880819
Si Si5 0.279611 0.467287 0.096161
Si Si6 0.588568 0.938575 0.328864
Si Si7 0.721959 0.235952 0.599096
O O1 0.900669 0.358872 0.093532
O O2 0.937109 0.176448 0.071535
O O3 0.093783 0.284468 0.085518
O O4 0.950736 0.324889 0.944617
O O5 0.909537 0.051961 0.372908
O O6 0.000000 0.137110 0.250000
O O7 0.111555 0.018476 0.359934
O O8 0.175942 0.526970 0.111742
O O9 0.976924 0.533169 0.151296
O O10 0.000000 0.500000 0.000000
O O11 0.751650 0.836836 0.852754
O O12 0.706006 0.022637 0.823296
O O13 0.773574 0.959624 0.986449
O O14 0.277263 0.361428 0.135296
O O15 0.500000 0.892559 0.250000
O O16 0.750000 0.250000 0.500000
#
# Coordination Sequence:
#
# PCOD9256146 Si02
#       7
#     8   8   8   8   8   8   8
#     4  10  19  39  60  85 117 157 203 240 293 367
#     4  11  26  39  57  86 126 161 195 240 310 363
#     4  10  17  34  62  92 111 144 206 250 289 342
#     4  10  21  39  58  86 116 156 206 233 296 365
#     4  11  19  38  64  86 115 153 204 245 290 350
#     4  11  21  35  64  91 122 150 200 260 305 341
#     4   9  17  32  62  85 109 155 194 238 282 353
#
# _framework density 21.379078
#
# number of rings (size 3 to 8) (size 9 to 14) (size 15 to 20)
#    0.000    1.714    5.714    1.714    2.000    0.571 
#    0.000    0.714    0.000    0.000    0.000    0.000 
#    0.000    0.000    0.000    0.000    0.000    0.000 
#
# Total GULP energy -156084.998590 kJ/mol
# GULP energy per Si atom -5574.464235 kJ/mol
# Density = 2.133042 g / cm^3
# Si number density = 21.379078 Si / 1000 Ang^3
#
#
#
# Elastic Constant Matrix: (Units=GPa)
#
#
# Indices 1 2 3 4 5 6 
#
# 1 100.1808 44.9259 -15.3375 0.0000 15.8262 0.0000
# 2 44.9259 94.9367 -11.0820 0.0000 13.7810 0.0000
# 3 -15.3375 -11.0820 27.3928 0.0000 -1.6194 0.0000
# 4 0.0000 0.0000 0.0000 13.9215 0.0000 4.2501
# 5 15.8262 13.7810 -1.6194 0.0000 11.7824 0.0000
# 6 0.0000 0.0000 0.0000 4.2501 0.0000 29.1551
#
#
#
# Elastic Compliance Matrix: (Units=1/GPa)
#
#
# Indices 1 2 3 4 5 6 
#
# 1 0.015112 -0.004384 0.005838 0.000000 -0.014368 0.000000
# 2 -0.004384 0.014480 0.002773 0.000000 -0.010666 0.000000
# 3 0.005838 0.002773 0.040571 0.000000 -0.005509 0.000000
# 4 0.000000 0.000000 0.000000 0.075177 0.000000 -0.010959
# 5 -0.014368 -0.010666 -0.005509 0.000000 0.115890 0.000000
# 6 0.000000 0.000000 0.000000 -0.010959 0.000000 0.035897
#
#
# Mechanical properties :
#
#
# Convention : Reuss Voigt Hill
#
# Bulk Modulus (GPa) = 12.72000 28.83589 20.77795
# Shear Modulus (GPa) = 15.87918 24.57205 20.22561
#
# Velocity S-wave (km/s) = 2.72829 3.39388 3.07912
# Velocity P-wave (km/s) = 3.98590 5.37356 4.73088
#
# Compressibility (1/GPa) = 0.07861636
#
# Stress axis : x y z
#
# Youngs Moduli (GPa) = 66.17472 69.06128 24.64819
#
# Poissons Ratio (x) = 0.30276 -0.14390
# Poissons Ratio (y) = 0.29010 -0.06834
# Poissons Ratio (z) = -0.38634 -0.19149
#
# Static dielectric constant tensor:
#      x y z
#    x 1.752650 0.000000 -0.009210 
#    y 0.000000 1.816530 0.000000 
#    z -0.009210 0.000000 1.658590 
# 
# From -- ./inp_files/197944.got.cif
#   From: 2010.05.17/outbox.cif.g08.bks.cpg/sg15_99_cif.got.tgz:197944.got - 2010.06.03 18:47:42.
