data_PCOD9256579
_publ_section_title
;
Structure prediction by ZEFSAII (Michael W. Deem and Ramdas Pophale) SiO2 
 PCOD9256579
Probable space group: C 2/C
;
_chemical_formula_sum "Si O2"
_cell_formula_units_Z 52
_cell_length_a 20.968367
_cell_length_b 8.750659
_cell_length_c 14.292545
_cell_angle_alpha 90.000000
_cell_angle_beta 42.893795
_cell_angle_gamma 90.000000
_cell_volume 1784.980121
_symmetry_space_group_name_H-M "C 2/C"
_symmetry_group_IT_number 15
_symmetry_cell_setting 'monoclinic'
loop_
_space_group_symop_operation_xyz
x,y,z
-x,y,1/2-z
-x,-y,-z
x,-y,1/2+z
1/2+x,1/2+y,z
1/2-x,1/2+y,1/2-z
1/2-x,1/2-y,-z
1/2+x,1/2-y,1/2+z
loop_
_atom_site_type_symbol
_atom_site_label
_atom_site_fract_x
_atom_site_fract_y
_atom_site_fract_z
Si Si1 0.107004 0.321536 0.489263
Si Si2 0.272602 0.912657 0.633571
Si Si3 0.376082 0.471541 0.970992
Si Si4 0.500000 0.961688 0.250000
Si Si5 0.408137 0.794744 0.643322
Si Si6 0.675126 0.935326 0.141355
Si Si7 0.922764 0.049460 0.202012
O O1 0.201447 0.412266 0.364755
O O2 0.128100 0.152269 0.501959
O O3 0.061492 0.424113 0.621418
O O4 0.019398 0.330889 0.512550
O O5 0.348351 0.826990 0.615191
O O6 0.288552 0.914698 0.504613
O O7 0.163055 0.869797 0.760919
O O8 0.467536 0.415285 0.929139
O O9 0.402093 0.453902 0.834479
O O10 0.271804 0.402753 0.092015
O O11 0.571046 0.863121 0.237207
O O12 0.359350 0.906015 0.773811
O O13 0.408780 0.626385 0.685274
#
# Coordination Sequence:
#
# PCOD9256579 Si02
#       7
#     8   8   8   4   8   8   8
#     4   9  15  24  40  64  90 113 137 173 227 275
#     4  10  18  28  44  65  91 120 149 181 224 271
#     4   9  15  27  47  67  89 114 141 189 242 270
#     4   8  14  22  36  60  88 112 136 170 214 266
#     4  10  18  28  43  66  93 118 146 184 223 266
#     4   9  17  28  43  64  90 118 147 182 226 266
#     4   9  17  28  44  68  93 115 147 184 225 273
#
# _framework density 29.131978
#
# number of rings (size 3 to 8) (size 9 to 14) (size 15 to 20)
#    0.000    2.769    0.000    5.077    0.000    4.308 
#    0.000    0.769    0.000    0.923    0.000    0.000 
#    0.000   39.385    0.000    0.000    0.000    4.000 
#
# Total GULP energy -145417.538355 kJ/mol
# GULP energy per Si atom -5592.982244 kJ/mol
# Density = 2.906567 g / cm^3
# Si number density = 29.131978 Si / 1000 Ang^3
#
#
#
# Elastic Constant Matrix: (Units=GPa)
#
#
# Indices 1 2 3 4 5 6 
#
# 1 260.1635 84.1218 93.8321 0.0000 -66.5412 0.0000
# 2 84.1218 116.5700 42.8138 0.0001 -10.9515 0.0000
# 3 93.8321 42.8138 146.0733 0.0001 -32.6822 0.0000
# 4 0.0000 0.0001 0.0001 34.5744 0.0000 -3.5536
# 5 -66.5412 -10.9515 -32.6822 0.0000 103.6332 0.0000
# 6 0.0000 0.0000 0.0000 -3.5536 0.0000 39.1068
#
#
#
# Elastic Compliance Matrix: (Units=1/GPa)
#
#
# Indices 1 2 3 4 5 6 
#
# 1 0.006746 -0.003631 -0.002567 0.000000 0.003138 0.000000
# 2 -0.003631 0.011569 -0.001406 0.000000 -0.001552 0.000000
# 3 -0.002567 -0.001406 0.009151 0.000000 0.001089 0.000000
# 4 0.000000 0.000000 0.000000 0.029196 0.000000 0.002653
# 5 0.003138 -0.001552 0.001089 0.000000 0.011844 0.000000
# 6 0.000000 0.000000 0.000000 0.002653 0.000000 0.025812
#
#
# Mechanical properties :
#
#
# Convention : Reuss Voigt Hill
#
# Bulk Modulus (GPa) = 81.57656 107.14914 94.36285
# Shear Modulus (GPa) = 44.00954 55.59884 49.80419
#
# Velocity S-wave (km/s) = 3.89098 4.37340 4.13922
# Velocity P-wave (km/s) = 6.94619 7.89700 7.43680
#
# Compressibility (1/GPa) = 0.01225842
#
# Stress axis : x y z
#
# Youngs Moduli (GPa) = 148.22930 86.43683 109.28154
#
# Poissons Ratio (x) = 0.31382 0.28055
# Poissons Ratio (y) = 0.53817 0.15364
# Poissons Ratio (z) = 0.38054 0.12152
#
# Static dielectric constant tensor:
#      x y z
#    x 2.302670 0.000000 -0.047710 
#    y 0.000000 2.288300 0.000000 
#    z -0.047710 0.000000 2.286480 
# 
# From -- ./inp_files/215023.got.cif
#   From: 2010.05.17/outbox.cif.g08.bks.cpg/sg15_108_cif.got.tgz:215023.got - 2010.06.03 18:47:42.
