data_PCOD9256739
_publ_section_title
;
Structure prediction by ZEFSAII (Michael W. Deem and Ramdas Pophale) SiO2 
 PCOD9256739
Probable space group: C 2/C
;
_chemical_formula_sum "Si O2"
_cell_formula_units_Z 48
_cell_length_a 12.175447
_cell_length_b 11.582352
_cell_length_c 25.486053
_cell_angle_alpha 90.000000
_cell_angle_beta 135.774156
_cell_angle_gamma 90.000000
_cell_volume 2506.809013
_symmetry_space_group_name_H-M "C 2/C"
_symmetry_group_IT_number 15
_symmetry_cell_setting 'monoclinic'
loop_
_space_group_symop_operation_xyz
x,y,z
-x,y,1/2-z
-x,-y,-z
x,-y,1/2+z
1/2+x,1/2+y,z
1/2-x,1/2+y,1/2-z
1/2-x,1/2-y,-z
1/2+x,1/2-y,1/2+z
loop_
_atom_site_type_symbol
_atom_site_label
_atom_site_fract_x
_atom_site_fract_y
_atom_site_fract_z
Si Si1 0.340161 0.537154 0.042719
Si Si2 0.241703 0.399221 0.165826
Si Si3 0.184558 0.342476 0.935240
Si Si4 0.037997 0.787154 0.542719
Si Si5 0.994224 0.850779 0.334173
Si Si6 0.128838 0.592476 0.064760
O O1 0.422703 0.625000 0.031802
O O2 0.464569 0.440675 0.105535
O O3 0.267907 0.596678 0.069365
O O4 0.197332 0.465931 0.966894
O O5 0.102035 0.309325 0.105534
O O6 0.329469 0.375000 0.250000
O O7 0.369253 0.375000 0.162835
O O8 0.191038 0.531613 0.138564
O O9 0.309811 0.346678 0.930635
O O10 0.025344 0.281613 0.861435
O O11 0.250000 0.250000 0.000000
O O12 0.953349 0.715931 0.466894
O O13 0.000000 0.500000 0.000000
#
# Coordination Sequence:
#
# PCOD9256739 Si02
#       6
#     8   8   8   8   8   8
#     4  10  18  29  46  71  97 120 152 199 246 282
#     4   8  15  29  47  65  87 121 162 194 226 277
#     4   9  17  30  48  67  91 123 159 195 231 282
#     4  10  18  29  46  71  97 120 152 199 246 282
#     4   8  15  29  47  65  87 121 162 194 226 277
#     4   9  17  30  48  67  91 123 159 195 231 282
#
# _framework density 19.147849999999998
#
# number of rings (size 3 to 8) (size 9 to 14) (size 15 to 20)
#    0.000    3.000    0.000    4.000    0.000    0.000 
#    0.000    6.667    0.000    0.000    0.000   16.333 
#    0.000    2.667    0.000    0.000    0.000    0.000 
#
# Total GULP energy -133663.636148 kJ/mol
# GULP energy per Si atom -5569.318173 kJ/mol
# Density = 1.910427 g / cm^3
# Si number density = 19.147850 Si / 1000 Ang^3
#
#
#
# Elastic Constant Matrix: (Units=GPa)
#
#
# Indices 1 2 3 4 5 6 
#
# 1 61.5651 27.7446 4.2082 0.0000 -2.3113 0.0000
# 2 27.7446 82.5667 41.9177 0.0000 1.0207 0.0000
# 3 4.2082 41.9177 98.9641 0.0000 5.0049 0.0000
# 4 0.0000 0.0000 0.0000 25.2806 0.0000 -0.2001
# 5 -2.3113 1.0207 5.0049 0.0000 13.1633 0.0000
# 6 0.0000 0.0000 0.0000 -0.2001 0.0000 28.0560
#
#
#
# Elastic Compliance Matrix: (Units=1/GPa)
#
#
# Indices 1 2 3 4 5 6 
#
# 1 0.019744 -0.007855 0.002326 0.000000 0.003191 0.000000
# 2 -0.007855 0.018576 -0.007537 0.000000 0.000046 0.000000
# 3 0.002326 -0.007537 0.013406 0.000000 -0.004104 0.000000
# 4 0.000000 0.000000 0.000000 0.039558 0.000000 0.000282
# 5 0.003191 0.000046 -0.004104 0.000000 0.078086 0.000000
# 6 0.000000 0.000000 0.000000 0.000282 0.000000 0.035645
#
#
# Mechanical properties :
#
#
# Convention : Reuss Voigt Hill
#
# Bulk Modulus (GPa) = 39.07020 43.42633 41.24826
# Shear Modulus (GPa) = 20.86136 24.58164 22.72150
#
# Velocity S-wave (km/s) = 3.30432 3.58688 3.44849
# Velocity P-wave (km/s) = 5.91666 6.31530 6.11922
#
# Compressibility (1/GPa) = 0.02559496
#
# Stress axis : x y z
#
# Youngs Moduli (GPa) = 50.64946 53.83148 74.59572
#
# Poissons Ratio (x) = 0.42283 -0.17351
# Poissons Ratio (y) = 0.39784 0.56220
# Poissons Ratio (z) = -0.11781 0.40571
#
# Static dielectric constant tensor:
#      x y z
#    x 1.691930 0.000000 0.001130 
#    y 0.000000 1.703900 0.000000 
#    z 0.001130 0.000000 1.707620 
# 
# From -- ./inp_files/236518.got.cif
#   From: 2010.05.17/outbox.cif.g08.bks.cpg/sg15_119_cif.got.tgz:236518.got - 2010.06.03 18:47:42.
