data_PCOD9256180
_publ_section_title
;
Structure prediction by ZEFSAII (Michael W. Deem and Ramdas Pophale) SiO2 
 PCOD9256180
Probable space group: C 2/C
;
_chemical_formula_sum "Si O2"
_cell_formula_units_Z 52
_cell_length_a 11.760089
_cell_length_b 21.873895
_cell_length_c 18.746745
_cell_angle_alpha 90.000000
_cell_angle_beta 38.102641
_cell_angle_gamma 90.000000
_cell_volume 2975.764428
_symmetry_space_group_name_H-M "C 2/C"
_symmetry_group_IT_number 15
_symmetry_cell_setting 'monoclinic'
loop_
_space_group_symop_operation_xyz
x,y,z
-x,y,1/2-z
-x,-y,-z
x,-y,1/2+z
1/2+x,1/2+y,z
1/2-x,1/2+y,1/2-z
1/2-x,1/2-y,-z
1/2+x,1/2-y,1/2+z
loop_
_atom_site_type_symbol
_atom_site_label
_atom_site_fract_x
_atom_site_fract_y
_atom_site_fract_z
Si Si1 0.487858 0.542868 0.936858
Si Si2 0.699475 0.652748 0.886671
Si Si3 0.137198 0.487409 0.517308
Si Si4 0.811735 0.719453 0.043803
Si Si5 0.500000 0.627585 0.250000
Si Si6 0.736334 0.474928 0.699979
Si Si7 0.961450 0.376706 0.384865
O O1 0.533123 0.610908 0.941917
O O2 0.642705 0.519049 0.804220
O O3 0.500000 0.500000 0.000000
O O4 0.290782 0.535079 0.996326
O O5 0.660871 0.724939 0.914996
O O6 0.781941 0.632014 0.922546
O O7 0.865427 0.637041 0.750699
O O8 0.230817 0.491796 0.392870
O O9 0.066748 0.555991 0.570497
O O10 0.942940 0.451926 0.616071
O O11 0.653666 0.672816 0.144936
O O12 0.750000 0.750000 0.000000
O O13 0.973163 0.673408 0.941823
O O14 0.402294 0.581648 0.242855
#
# Coordination Sequence:
#
# PCOD9256180 Si02
#       7
#     8   8   8   8   4   8   8
#     4  12  22  36  59  85 126 160 196 247 311 363
#     4  10  21  33  54  87 117 150 192 248 300 361
#     4  11  21  38  57  89 121 159 195 246 301 361
#     4  10  20  33  54  83 114 151 193 245 298 345
#     4  12  20  38  58  88 116 148 204 246 290 354
#     4  11  23  36  60  88 122 158 203 246 302 359
#     4  10  17  35  53  78 120 150 191 243 296 350
#
# _framework density 17.474502000000001
#
# number of rings (size 3 to 8) (size 9 to 14) (size 15 to 20)
#    0.000    1.231    6.154    1.846    2.154    0.615 
#    0.000    0.000    0.000    0.923    0.000    2.154 
#    0.000    0.000    0.000    0.000    0.000    0.000 
#
# Total GULP energy -144864.511752 kJ/mol
# GULP energy per Si atom -5571.711990 kJ/mol
# Density = 1.743473 g / cm^3
# Si number density = 17.474502 Si / 1000 Ang^3
#
#
#
# Elastic Constant Matrix: (Units=GPa)
#
#
# Indices 1 2 3 4 5 6 
#
# 1 103.7603 38.6427 29.3849 -0.0018 -12.2997 0.0040
# 2 38.6427 116.0736 38.9705 -0.0005 1.6819 0.0026
# 3 29.3849 38.9705 64.4167 -0.0031 10.2955 0.0118
# 4 -0.0018 -0.0005 -0.0031 26.4832 0.0018 11.6711
# 5 -12.2997 1.6819 10.2955 0.0018 24.0561 -0.0051
# 6 0.0040 0.0026 0.0118 11.6711 -0.0051 -11.6848
#
#
#
# Elastic Compliance Matrix: (Units=1/GPa)
#
#
# Indices 1 2 3 4 5 6 
#
# 1 0.013486 -0.002565 -0.006151 0.000002 0.009707 -0.000005
# 2 -0.002565 0.011408 -0.005790 0.000001 0.000369 -0.000003
# 3 -0.006151 -0.005790 0.023906 -0.000006 -0.012972 0.000021
# 4 0.000002 0.000001 -0.000006 0.026219 0.000007 0.026188
# 5 0.009707 0.000369 -0.012972 0.000007 0.052058 -0.000026
# 6 -0.000005 -0.000003 0.000021 0.026188 -0.000026 -0.059424
#
#
# Mechanical properties :
#
#
# Convention : Reuss Voigt Hill
#
# Bulk Modulus (GPa) = 50.54036 55.36073 52.95054
# Shear Modulus (GPa) = 48.42044 19.58773 34.00409
#
# Velocity S-wave (km/s) = 5.26966 3.35166 4.41605
# Velocity P-wave (km/s) = 8.12471 6.83578 7.50796
#
# Compressibility (1/GPa) = 0.01978617
#
# Stress axis : x y z
#
# Youngs Moduli (GPa) = 74.15316 87.65892 41.82995
#
# Poissons Ratio (x) = 0.22484 0.25731
# Poissons Ratio (y) = 0.19020 0.24221
# Poissons Ratio (z) = 0.45615 0.50758
#
# Static dielectric constant tensor:
#      x y z
#    x 1.610240 0.000000 -0.002130 
#    y 0.000000 1.631170 0.000000 
#    z -0.002130 0.000000 1.653360 
# 
# From -- ./inp_files/200311.got.cif
#   From: 2010.05.17/outbox.cif.g08.bks.cpg/sg15_101_cif.got.tgz:200311.got - 2010.06.03 18:47:42.
