data_PCOD9256527
_publ_section_title
;
Structure prediction by ZEFSAII (Michael W. Deem and Ramdas Pophale) SiO2 
 PCOD9256527
Probable space group: C 2/C
;
_chemical_formula_sum "Si O2"
_cell_formula_units_Z 40
_cell_length_a 21.149713
_cell_length_b 26.429550
_cell_length_c 5.308293
_cell_angle_alpha 90.000000
_cell_angle_beta 104.534809
_cell_angle_gamma 90.000000
_cell_volume 2872.251095
_symmetry_space_group_name_H-M "C 2/C"
_symmetry_group_IT_number 15
_symmetry_cell_setting 'monoclinic'
loop_
_space_group_symop_operation_xyz
x,y,z
-x,y,1/2-z
-x,-y,-z
x,-y,1/2+z
1/2+x,1/2+y,z
1/2-x,1/2+y,1/2-z
1/2-x,1/2-y,-z
1/2+x,1/2-y,1/2+z
loop_
_atom_site_type_symbol
_atom_site_label
_atom_site_fract_x
_atom_site_fract_y
_atom_site_fract_z
Si Si1 0.269936 0.666926 0.519855
Si Si2 0.923004 0.966835 0.673032
Si Si3 0.855911 0.729882 0.105823
Si Si4 0.336858 0.366320 0.586771
Si Si5 0.422577 0.736500 0.172484
O O1 0.194442 0.683329 0.444436
O O2 0.310921 0.719521 0.560843
O O3 0.292513 0.638354 0.291249
O O4 0.292532 0.638342 0.793571
O O5 0.879063 0.917040 0.629037
O O6 0.000000 0.952774 0.750000
O O7 0.911000 0.000010 0.411060
O O8 0.898830 0.734088 0.399840
O O9 0.898799 0.734074 0.897524
O O10 0.385804 0.317874 0.635717
O O11 0.500000 0.729302 0.250000
#
# Coordination Sequence:
#
# PCOD9256527 Si02
#       5
#     8   8   8   8   8
#     4   9  17  28  43  59  77 104 137 176 207 237
#     4  10  20  32  44  59  82 110 140 177 218 250
#     4   9  17  28  40  58  82 105 135 171 206 240
#     4  10  18  29  44  60  78 105 146 180 205 238
#     4  10  18  27  41  60  83 110 140 172 202 236
#
# _framework density 13.926359
#
# number of rings (size 3 to 8) (size 9 to 14) (size 15 to 20)
#    0.000    2.400    0.000    3.600    0.000    4.800 
#    0.000    6.000    0.000    0.000    0.000    0.000 
#    0.000    0.000    0.000    0.000    0.000  252.000 
#
# Total GULP energy -111496.462892 kJ/mol
# GULP energy per Si atom -5574.823145 kJ/mol
# Density = 1.389466 g / cm^3
# Si number density = 13.926359 Si / 1000 Ang^3
#
#
#
# Elastic Constant Matrix: (Units=GPa)
#
#
# Indices 1 2 3 4 5 6 
#
# 1 73.7347 41.8676 57.3953 0.0000 -3.6785 0.0000
# 2 41.8676 72.0680 51.2361 0.0000 -2.4229 0.0000
# 3 57.3953 51.2361 148.7677 0.0000 -16.0540 0.0000
# 4 0.0000 0.0000 0.0000 11.0303 0.0000 5.1672
# 5 -3.6785 -2.4229 -16.0540 0.0000 18.5559 0.0000
# 6 0.0000 0.0000 0.0000 5.1672 0.0000 30.3595
#
#
#
# Elastic Compliance Matrix: (Units=1/GPa)
#
#
# Indices 1 2 3 4 5 6 
#
# 1 0.023517 -0.009449 -0.006010 0.000000 -0.001771 0.000000
# 2 -0.009449 0.022367 -0.004351 0.000000 -0.002717 0.000000
# 3 -0.006010 -0.004351 0.011415 0.000000 0.008116 0.000000
# 4 0.000000 0.000000 0.000000 0.098514 0.000000 -0.016767
# 5 -0.001771 -0.002717 0.008116 0.000000 0.060207 0.000000
# 6 0.000000 0.000000 0.000000 -0.016767 0.000000 0.035792
#
#
# Mechanical properties :
#
#
# Convention : Reuss Voigt Hill
#
# Bulk Modulus (GPa) = 56.56352 66.17427 61.36889
# Shear Modulus (GPa) = 16.81654 21.59391 19.20522
#
# Velocity S-wave (km/s) = 3.47873 3.94201 3.71759
# Velocity P-wave (km/s) = 7.53921 8.26678 7.91137
#
# Compressibility (1/GPa) = 0.01767924
#
# Stress axis : x y z
#
# Youngs Moduli (GPa) = 42.52200 44.70833 87.60471
#
# Poissons Ratio (x) = 0.42245 0.52650
# Poissons Ratio (y) = 0.40180 0.38117
# Poissons Ratio (z) = 0.25555 0.19453
#
# Static dielectric constant tensor:
#      x y z
#    x 1.440920 0.000000 -0.006960 
#    y 0.000000 1.423010 0.000000 
#    z -0.006960 0.000000 1.467030 
# 
# From -- ./inp_files/7271.got.cif
#   From: 2010.05.17/outbox.cif.g08.bks.cpg/sg15_4_cif.got.tgz:7271.got - 2010.06.03 18:47:42.
