data_PCOD9256966
_publ_section_title
;
Structure prediction by ZEFSAII (Michael W. Deem and Ramdas Pophale) SiO2 
 PCOD9256966
Probable space group: C 2/C
;
_chemical_formula_sum "Si O2"
_cell_formula_units_Z 56
_cell_length_a 19.826012
_cell_length_b 10.331262
_cell_length_c 14.593942
_cell_angle_alpha 90.000000
_cell_angle_beta 126.303414
_cell_angle_gamma 90.000000
_cell_volume 2409.010774
_symmetry_space_group_name_H-M "C 2/C"
_symmetry_group_IT_number 15
_symmetry_cell_setting 'monoclinic'
loop_
_space_group_symop_operation_xyz
x,y,z
-x,y,1/2-z
-x,-y,-z
x,-y,1/2+z
1/2+x,1/2+y,z
1/2-x,1/2+y,1/2-z
1/2-x,1/2-y,-z
1/2+x,1/2-y,1/2+z
loop_
_atom_site_type_symbol
_atom_site_label
_atom_site_fract_x
_atom_site_fract_y
_atom_site_fract_z
Si Si1 0.874664 0.724113 0.390176
Si Si2 0.751779 0.082903 0.446397
Si Si3 0.930141 0.734443 0.625663
Si Si4 0.707481 0.656417 0.832175
Si Si5 0.065920 0.577405 0.377433
Si Si6 0.292652 0.805081 0.155228
Si Si7 0.626715 0.071839 0.617671
O O1 0.927567 0.777287 0.518277
O O2 0.868366 0.814150 0.296419
O O3 0.779713 0.721980 0.356254
O O4 0.896197 0.576789 0.380086
O O5 0.756006 0.205399 0.383558
O O6 0.810871 0.101622 0.581919
O O7 0.657971 0.098779 0.411096
O O8 0.751111 0.943142 0.401542
O O9 0.943271 0.578721 0.626482
O O10 0.840612 0.748857 0.605191
O O11 0.000000 0.788153 0.750000
O O12 0.777272 0.568861 0.840648
O O13 0.071856 0.621478 0.487946
O O14 0.000000 0.628123 0.250000
O O15 0.366874 0.841340 0.286973
#
# Coordination Sequence:
#
# PCOD9256966 Si02
#       7
#     8   8   8   8   8   8   8
#     4  10  18  31  49  72  94 122 159 195 233 281
#     4   9  16  29  45  68  95 118 152 187 238 280
#     4   9  18  31  43  66  99 126 157 191 234 284
#     4   9  17  28  45  66  93 119 147 197 229 270
#     4   8  15  28  42  63  96 126 147 187 230 285
#     4  10  18  30  50  73  94 127 156 194 239 276
#     4   9  17  29  45  71  98 116 158 195 230 277
#
# _framework density 23.246054999999998
#
# number of rings (size 3 to 8) (size 9 to 14) (size 15 to 20)
#    0.000    2.857    1.429    1.286    0.000    0.000 
#    2.571    2.857    0.000    0.000    0.000   25.000 
#    0.000    0.000    0.000    0.000    0.000    0.000 
#
# Total GULP energy -156297.433919 kJ/mol
# GULP energy per Si atom -5582.051211 kJ/mol
# Density = 2.319315 g / cm^3
# Si number density = 23.246055 Si / 1000 Ang^3
#
#
#
# Elastic Constant Matrix: (Units=GPa)
#
#
# Indices 1 2 3 4 5 6 
#
# 1 25.6055 9.3703 4.5921 0.0000 -1.6059 0.0000
# 2 9.3703 54.0993 18.3806 0.0000 -0.2953 0.0000
# 3 4.5921 18.3806 207.5276 0.0000 -19.5318 0.0000
# 4 0.0000 0.0000 0.0000 23.6986 0.0000 -7.2803
# 5 -1.6059 -0.2953 -19.5318 0.0000 29.5304 0.0000
# 6 0.0000 0.0000 0.0000 -7.2803 0.0000 12.1205
#
#
#
# Elastic Compliance Matrix: (Units=1/GPa)
#
#
# Indices 1 2 3 4 5 6 
#
# 1 0.041841 -0.007206 -0.000086 0.000000 0.002147 0.000000
# 2 -0.007206 0.020326 -0.001769 0.000000 -0.001358 0.000000
# 3 -0.000086 -0.001769 0.005305 0.000000 0.003487 0.000000
# 4 0.000000 0.000000 0.000000 0.051745 0.000000 0.031081
# 5 0.002147 -0.001358 0.003487 0.000000 0.036273 0.000000
# 6 0.000000 0.000000 0.000000 0.031081 0.000000 0.101174
#
#
# Mechanical properties :
#
#
# Convention : Reuss Voigt Hill
#
# Bulk Modulus (GPa) = 20.26273 39.10203 29.68238
# Shear Modulus (GPa) = 17.16820 30.06253 23.61536
#
# Velocity S-wave (km/s) = 2.72056 3.60005 3.19076
# Velocity P-wave (km/s) = 4.31325 5.84277 5.13528
#
# Compressibility (1/GPa) = 0.04935170
#
# Stress axis : x y z
#
# Youngs Moduli (GPa) = 23.89984 49.19757 188.48960
#
# Poissons Ratio (x) = 0.35453 0.01612
# Poissons Ratio (y) = 0.17223 0.33338
# Poissons Ratio (z) = 0.00204 0.08701
#
# Static dielectric constant tensor:
#      x y z
#    x 1.873830 0.000000 -0.006410 
#    y 0.000000 1.850890 0.000000 
#    z -0.006410 0.000000 1.998790 
# 
# From -- ./inp_files/177602.got.cif
#   From: 2010.05.17/outbox.cif.g08.bks.cpg/sg15_89_cif.got.tgz:177602.got - 2010.06.03 18:47:42.
