data_PCOD9256622
_publ_section_title
;
Structure prediction by ZEFSAII (Michael W. Deem and Ramdas Pophale) SiO2 
 PCOD9256622
Probable space group: C 2/C
;
_chemical_formula_sum "Si O2"
_cell_formula_units_Z 56
_cell_length_a 15.747119
_cell_length_b 10.442313
_cell_length_c 14.827741
_cell_angle_alpha 90.000000
_cell_angle_beta 80.662100
_cell_angle_gamma 90.000000
_cell_volume 2405.909726
_symmetry_space_group_name_H-M "C 2/C"
_symmetry_group_IT_number 15
_symmetry_cell_setting 'monoclinic'
loop_
_space_group_symop_operation_xyz
x,y,z
-x,y,1/2-z
-x,-y,-z
x,-y,1/2+z
1/2+x,1/2+y,z
1/2-x,1/2+y,1/2-z
1/2-x,1/2-y,-z
1/2+x,1/2-y,1/2+z
loop_
_atom_site_type_symbol
_atom_site_label
_atom_site_fract_x
_atom_site_fract_y
_atom_site_fract_z
Si Si1 0.931663 0.112662 0.434773
Si Si2 0.241750 0.410877 0.051791
Si Si3 0.622539 0.720619 0.725143
Si Si4 0.940467 0.193585 0.949949
Si Si5 0.704636 0.838653 0.871174
Si Si6 0.709762 0.316461 0.892949
Si Si7 0.372373 0.571423 0.259027
O O1 0.836735 0.109116 0.493321
O O2 0.926609 0.137255 0.329077
O O3 0.987201 0.208834 0.486015
O O4 0.951996 0.960141 0.433621
O O5 0.242407 0.295508 0.122852
O O6 0.240746 0.550774 0.093231
O O7 0.182152 0.390685 0.974457
O O8 0.561976 0.752100 0.649926
O O9 0.630885 0.808475 0.811928
O O10 0.719349 0.726411 0.664671
O O11 0.602486 0.575920 0.758952
O O12 0.847236 0.223141 0.011283
O O13 0.774346 0.930927 0.813845
O O14 0.636709 0.354899 0.832461
#
# Coordination Sequence:
#
# PCOD9256622 Si02
#       7
#     8   8   8   8   8   8   8
#     4   8  16  29  43  62  94 126 151 184 231 283
#     4   9  16  30  47  68  92 122 158 194 235 290
#     4  10  18  30  45  69 100 121 153 200 237 283
#     4   9  17  28  42  64  95 127 151 183 234 285
#     4   9  17  28  46  66  92 120 155 196 241 275
#     4  10  18  28  47  71  97 124 155 196 238 281
#     4   9  17  29  45  69  97 121 156 195 235 284
#
# _framework density 23.276019000000002
#
# number of rings (size 3 to 8) (size 9 to 14) (size 15 to 20)
#    0.000    2.857    1.429    1.286    0.000    0.571 
#    0.000    0.714    0.000    0.000    0.000   16.000 
#   34.286    0.000    0.000    0.000    0.000    0.000 
#
# Total GULP energy -156136.935762 kJ/mol
# GULP energy per Si atom -5576.319134 kJ/mol
# Density = 2.322304 g / cm^3
# Si number density = 23.276019 Si / 1000 Ang^3
#
#
#
# Elastic Constant Matrix: (Units=GPa)
#
#
# Indices 1 2 3 4 5 6 
#
# 1 74.9386 16.9746 33.0704 0.0000 11.7613 0.0000
# 2 16.9746 45.4516 13.4784 0.0000 0.4922 0.0000
# 3 33.0704 13.4784 159.6366 0.0000 35.6185 0.0000
# 4 0.0000 0.0000 0.0000 30.5978 0.0000 4.3824
# 5 11.7613 0.4922 35.6185 0.0000 42.2884 0.0000
# 6 0.0000 0.0000 0.0000 4.3824 0.0000 15.9559
#
#
#
# Elastic Compliance Matrix: (Units=1/GPa)
#
#
# Indices 1 2 3 4 5 6 
#
# 1 0.015933 -0.005237 -0.002319 0.000000 -0.002417 0.000000
# 2 -0.005237 0.024382 -0.001521 0.000000 0.002454 0.000000
# 3 -0.002319 -0.001521 0.008282 0.000000 -0.006313 0.000000
# 4 0.000000 0.000000 0.000000 0.034020 0.000000 -0.009344
# 5 -0.002417 0.002454 -0.006313 0.000000 0.029608 0.000000
# 6 0.000000 0.000000 0.000000 -0.009344 0.000000 0.065239
#
#
# Mechanical properties :
#
#
# Convention : Reuss Voigt Hill
#
# Bulk Modulus (GPa) = 32.84923 45.23040 39.03981
# Shear Modulus (GPa) = 24.29949 32.20198 28.25074
#
# Velocity S-wave (km/s) = 3.23456 3.72356 3.48764
# Velocity P-wave (km/s) = 5.30032 6.16124 5.74692
#
# Compressibility (1/GPa) = 0.03044211
#
# Stress axis : x y z
#
# Youngs Moduli (GPa) = 62.76180 41.01447 120.74879
#
# Poissons Ratio (x) = 0.21477 0.28006
# Poissons Ratio (y) = 0.32865 0.18370
# Poissons Ratio (z) = 0.14557 0.06240
#
# Static dielectric constant tensor:
#      x y z
#    x 1.968060 0.000000 0.057780 
#    y 0.000000 1.861310 0.000000 
#    z 0.057780 0.000000 1.980340 
# 
# From -- ./inp_files/167303.got.cif
#   From: 2010.05.17/outbox.cif.g08.bks.cpg/sg15_84_cif.got.tgz:167303.got - 2010.06.03 18:47:42.
