data_PCOD9256490
_publ_section_title
;
Structure prediction by ZEFSAII (Michael W. Deem and Ramdas Pophale) SiO2 
 PCOD9256490
Probable space group: C 2/C
;
_chemical_formula_sum "Si O2"
_cell_formula_units_Z 40
_cell_length_a 11.546078
_cell_length_b 28.937935
_cell_length_c 6.867924
_cell_angle_alpha 90.000000
_cell_angle_beta 40.622090
_cell_angle_gamma 90.000000
_cell_volume 1494.008683
_symmetry_space_group_name_H-M "C 2/C"
_symmetry_group_IT_number 15
_symmetry_cell_setting 'monoclinic'
loop_
_space_group_symop_operation_xyz
x,y,z
-x,y,1/2-z
-x,-y,-z
x,-y,1/2+z
1/2+x,1/2+y,z
1/2-x,1/2+y,1/2-z
1/2-x,1/2-y,-z
1/2+x,1/2-y,1/2+z
loop_
_atom_site_type_symbol
_atom_site_label
_atom_site_fract_x
_atom_site_fract_y
_atom_site_fract_z
Si Si1 0.781966 0.557426 0.276468
Si Si2 0.354485 0.204355 0.151722
Si Si3 0.241717 0.693071 0.764435
Si Si4 0.852095 0.541080 0.583561
Si Si5 0.053587 0.135557 0.453761
O O1 0.748816 0.568874 0.549288
O O2 0.747499 0.502439 0.298077
O O3 0.656154 0.586998 0.299919
O O4 0.997019 0.567272 0.983700
O O5 0.334851 0.257490 0.114841
O O6 0.308923 0.197605 0.440586
O O7 0.204377 0.174562 0.238748
O O8 0.558427 0.189189 0.882904
O O9 0.377660 0.650913 0.565116
O O10 0.000000 0.516668 0.250000
O O11 0.000000 0.138408 0.750000
#
# Coordination Sequence:
#
# PCOD9256490 Si02
#       5
#     8   8   8   8   8
#     4   8  15  28  46  70  92 122 158 195 235 284
#     4   9  15  24  36  54  85 128 157 187 229 277
#     4   9  15  23  37  54  84 127 160 185 228 281
#     4   7  14  29  51  66  88 126 151 197 245 288
#     4  10  18  25  39  64  93 124 163 191 224 286
#
# _framework density 26.773606999999998
#
# number of rings (size 3 to 8) (size 9 to 14) (size 15 to 20)
#    1.200    2.000    2.000    0.000    0.000    6.400 
#    0.000    1.000    0.000    0.000    0.000    0.000 
#    0.000    1.600    0.000    0.800    0.000   14.000 
#
# Total GULP energy -111522.829491 kJ/mol
# GULP energy per Si atom -5576.141475 kJ/mol
# Density = 2.671267 g / cm^3
# Si number density = 26.773607 Si / 1000 Ang^3
#
#
#
# Elastic Constant Matrix: (Units=GPa)
#
#
# Indices 1 2 3 4 5 6 
#
# 1 125.3958 36.4244 39.7888 0.0000 -39.9212 0.0000
# 2 36.4244 119.7908 57.4444 0.0000 -41.1176 0.0000
# 3 39.7888 57.4444 119.2515 0.0000 -30.7386 0.0000
# 4 0.0000 0.0000 0.0000 37.5681 0.0000 -17.8729
# 5 -39.9212 -41.1176 -30.7386 0.0000 63.8861 0.0000
# 6 0.0000 0.0000 0.0000 -17.8729 0.0000 24.2745
#
#
#
# Elastic Compliance Matrix: (Units=1/GPa)
#
#
# Indices 1 2 3 4 5 6 
#
# 1 0.010389 -0.000431 -0.001891 0.000000 0.005304 0.000000
# 2 -0.000431 0.012557 -0.004442 0.000000 0.005675 0.000000
# 3 -0.001891 -0.004442 0.011547 0.000000 0.001515 0.000000
# 4 0.000000 0.000000 0.000000 0.040969 0.000000 0.030165
# 5 0.005304 0.005675 0.001515 0.000000 0.023349 0.000000
# 6 0.000000 0.000000 0.000000 0.030165 0.000000 0.063406
#
#
# Mechanical properties :
#
#
# Convention : Reuss Voigt Hill
#
# Bulk Modulus (GPa) = 47.70205 70.19481 58.94843
# Shear Modulus (GPa) = 27.36216 40.53108 33.94662
#
# Velocity S-wave (km/s) = 3.20031 3.89504 3.56464
# Velocity P-wave (km/s) = 5.61351 6.81933 6.24559
#
# Compressibility (1/GPa) = 0.02096346
#
# Stress axis : x y z
#
# Youngs Moduli (GPa) = 96.25750 79.63587 86.60256
#
# Poissons Ratio (x) = 0.03435 0.16379
# Poissons Ratio (y) = 0.04152 0.38470
# Poissons Ratio (z) = 0.18205 0.35375
#
# Static dielectric constant tensor:
#      x y z
#    x 2.294190 0.000000 0.045170 
#    y 0.000000 2.054390 0.000000 
#    z 0.045170 0.000000 2.128760 
# 
# From -- ./inp_files/100907.got.cif
#   From: 2010.05.17/outbox.cif.g08.bks.cpg/sg15_51_cif.got.tgz:100907.got - 2010.06.03 18:47:42.
