data_PCOD9256682
_publ_section_title
;
Structure prediction by ZEFSAII (Michael W. Deem and Ramdas Pophale) SiO2 
 PCOD9256682
Probable space group: C 2/C
;
_chemical_formula_sum "Si O2"
_cell_formula_units_Z 36
_cell_length_a 13.612077
_cell_length_b 14.426155
_cell_length_c 7.165699
_cell_angle_alpha 90.000000
_cell_angle_beta 104.579335
_cell_angle_gamma 90.000000
_cell_volume 1361.818345
_symmetry_space_group_name_H-M "C 2/C"
_symmetry_group_IT_number 15
_symmetry_cell_setting 'monoclinic'
loop_
_space_group_symop_operation_xyz
x,y,z
-x,y,1/2-z
-x,-y,-z
x,-y,1/2+z
1/2+x,1/2+y,z
1/2-x,1/2+y,1/2-z
1/2-x,1/2-y,-z
1/2+x,1/2-y,1/2+z
loop_
_atom_site_type_symbol
_atom_site_label
_atom_site_fract_x
_atom_site_fract_y
_atom_site_fract_z
Si Si1 0.906867 0.613776 0.334081
Si Si2 0.291348 0.279341 0.727279
Si Si3 0.124186 0.917476 0.970458
Si Si4 0.500000 0.415994 0.250000
Si Si5 0.645788 0.907154 0.289392
O O1 0.803920 0.668241 0.230549
O O2 0.893367 0.502436 0.312213
O O3 0.919186 0.625980 0.562509
O O4 0.000000 0.641730 0.250000
O O5 0.250000 0.250000 0.500000
O O6 0.375974 0.354194 0.714135
O O7 0.334533 0.183793 0.826440
O O8 0.066389 0.870339 0.118143
O O9 0.241067 0.933309 0.081545
O O10 0.076865 0.015364 0.894049
#
# Coordination Sequence:
#
# PCOD9256682 Si02
#       5
#     8   8   8   4   8
#     4  10  19  35  62  82 107 148 195 223 268 336
#     4   8  18  36  53  75 112 147 176 221 287 323
#     4   9  17  32  49  76 109 141 174 225 271 326
#     4  10  18  28  54  82 100 140 192 216 264 336
#     4  10  20  38  57  79 114 149 179 229 288 321
#
# _framework density 26.435247
#
# number of rings (size 3 to 8) (size 9 to 14) (size 15 to 20)
#    0.000    3.111    0.000    3.333    0.000    0.000 
#   20.000    1.111    0.000    0.000    0.000    3.111 
#    0.000    0.000    0.000    0.000    0.000    0.000 
#
# Total GULP energy -100642.232141 kJ/mol
# GULP energy per Si atom -5591.235119 kJ/mol
# Density = 2.637508 g / cm^3
# Si number density = 26.435247 Si / 1000 Ang^3
#
#
#
# Elastic Constant Matrix: (Units=GPa)
#
#
# Indices 1 2 3 4 5 6 
#
# 1 139.6937 52.7088 52.9742 0.0000 -50.0405 0.0000
# 2 52.7088 106.0661 30.6353 0.0000 -29.3363 0.0000
# 3 52.9742 30.6353 120.4956 0.0000 -36.4560 0.0000
# 4 0.0000 0.0000 0.0000 22.5194 0.0000 -6.7180
# 5 -50.0405 -29.3363 -36.4560 0.0000 51.7893 0.0000
# 6 0.0000 0.0000 0.0000 -6.7180 0.0000 22.1126
#
#
#
# Elastic Compliance Matrix: (Units=1/GPa)
#
#
# Indices 1 2 3 4 5 6 
#
# 1 0.012151 -0.003092 -0.001949 0.000000 0.008618 0.000000
# 2 -0.003092 0.012099 -0.000695 0.000000 0.003377 0.000000
# 3 -0.001949 -0.000695 0.010983 0.000000 0.005454 0.000000
# 4 0.000000 0.000000 0.000000 0.048832 0.000000 0.014836
# 5 0.008618 0.003377 0.005454 0.000000 0.033388 0.000000
# 6 0.000000 0.000000 0.000000 0.014836 0.000000 0.049730
#
#
# Mechanical properties :
#
#
# Convention : Reuss Voigt Hill
#
# Bulk Modulus (GPa) = 42.08509 70.98801 56.53655
# Shear Modulus (GPa) = 26.79875 34.61339 30.70607
#
# Velocity S-wave (km/s) = 3.18740 3.62244 3.41186
# Velocity P-wave (km/s) = 5.43145 6.66393 6.07900
#
# Compressibility (1/GPa) = 0.02376139
#
# Stress axis : x y z
#
# Youngs Moduli (GPa) = 82.29670 82.64861 91.05190
#
# Poissons Ratio (x) = 0.25556 0.17743
# Poissons Ratio (y) = 0.25447 0.06330
# Poissons Ratio (z) = 0.16037 0.05746
#
# Static dielectric constant tensor:
#      x y z
#    x 2.138300 0.000000 0.003370 
#    y 0.000000 2.173240 0.000000 
#    z 0.003370 0.000000 2.142370 
# 
# From -- ./inp_files/37503.got.cif
#   From: 2010.05.17/outbox.cif.g08.bks.cpg/sg15_19_cif.got.tgz:37503.got - 2010.06.03 18:47:42.
