data_PCOD9256573
_publ_section_title
;
Structure prediction by ZEFSAII (Michael W. Deem and Ramdas Pophale) SiO2 
 PCOD9256573
Probable space group: C 2/C
;
_chemical_formula_sum "Si O2"
_cell_formula_units_Z 48
_cell_length_a 16.411874
_cell_length_b 9.792695
_cell_length_c 23.092278
_cell_angle_alpha 90.000000
_cell_angle_beta 39.433767
_cell_angle_gamma 90.000000
_cell_volume 2357.371164
_symmetry_space_group_name_H-M "C 2/C"
_symmetry_group_IT_number 15
_symmetry_cell_setting 'monoclinic'
loop_
_space_group_symop_operation_xyz
x,y,z
-x,y,1/2-z
-x,-y,-z
x,-y,1/2+z
1/2+x,1/2+y,z
1/2-x,1/2+y,1/2-z
1/2-x,1/2-y,-z
1/2+x,1/2-y,1/2+z
loop_
_atom_site_type_symbol
_atom_site_label
_atom_site_fract_x
_atom_site_fract_y
_atom_site_fract_z
Si Si1 0.947545 0.460380 0.139303
Si Si2 0.059993 0.856396 0.850665
Si Si3 0.829398 0.818573 0.905143
Si Si4 0.615756 0.015519 0.648392
Si Si5 0.696703 0.463194 0.363254
Si Si6 0.692169 0.147606 0.369005
O O1 0.964126 0.300104 0.117105
O O2 0.824851 0.465112 0.251299
O O3 0.911464 0.550850 0.104144
O O4 0.072000 0.510753 0.106892
O O5 0.184707 0.857754 0.741178
O O6 0.941876 0.900536 0.874807
O O7 0.090948 0.948637 0.888667
O O8 0.886314 0.681426 0.844119
O O9 0.743959 0.891877 0.904045
O O10 0.750000 0.750000 0.000000
O O11 0.500000 0.956034 0.750000
O O12 0.750488 0.980049 0.604302
O O13 0.653254 0.306633 0.393304
#
# Coordination Sequence:
#
# PCOD9256573 Si02
#       6
#     8   8   8   8   8   8
#     4   8  14  25  45  66  85 109 141 174 211 254
#     4   9  16  29  46  66  88 113 142 177 214 254
#     4  10  18  28  43  64  86 116 150 178 208 252
#     4   8  14  28  45  60  81 114 144 170 210 266
#     4   8  14  25  45  66  85 109 141 174 211 254
#     4   9  16  29  46  66  88 113 142 177 214 254
#
# _framework density 20.361663
#
# number of rings (size 3 to 8) (size 9 to 14) (size 15 to 20)
#    0.000    3.333    0.000    3.500    0.000    0.000 
#    0.000    8.333    0.000    8.000    0.000   10.500 
#    0.000    0.000    0.000    0.000    0.000    0.000 
#
# Total GULP energy -133707.709358 kJ/mol
# GULP energy per Si atom -5571.154557 kJ/mol
# Density = 2.031532 g / cm^3
# Si number density = 20.361663 Si / 1000 Ang^3
#
#
#
# Elastic Constant Matrix: (Units=GPa)
#
#
# Indices 1 2 3 4 5 6 
#
# 1 265.9361 84.4667 8.2023 0.0000 -5.6352 0.0000
# 2 84.4667 50.7359 5.3375 0.0000 0.8446 0.0000
# 3 8.2023 5.3375 37.1135 0.0000 9.5302 0.0000
# 4 0.0000 0.0000 0.0000 8.2154 0.0000 0.7714
# 5 -5.6352 0.8446 9.5302 0.0000 9.3593 0.0000
# 6 0.0000 0.0000 0.0000 0.7714 0.0000 40.6920
#
#
#
# Elastic Compliance Matrix: (Units=1/GPa)
#
#
# Indices 1 2 3 4 5 6 
#
# 1 0.008440 -0.013980 -0.002009 0.000000 0.008389 0.000000
# 2 -0.013980 0.043185 0.000056 0.000000 -0.012371 0.000000
# 3 -0.002009 0.000056 0.037496 0.000000 -0.039396 0.000000
# 4 0.000000 0.000000 0.000000 0.121940 0.000000 -0.002312
# 5 0.008389 -0.012371 -0.039396 0.000000 0.153127 0.000000
# 6 0.000000 0.000000 0.000000 -0.002312 0.000000 0.024619
#
#
# Mechanical properties :
#
#
# Convention : Reuss Voigt Hill
#
# Bulk Modulus (GPa) = 17.46582 61.08872 39.27727
# Shear Modulus (GPa) = 11.36985 28.70527 20.03756
#
# Velocity S-wave (km/s) = 2.36560 3.75876 3.14041
# Velocity P-wave (km/s) = 4.00722 6.99319 5.69924
#
# Compressibility (1/GPa) = 0.05725469
#
# Stress axis : x y z
#
# Youngs Moduli (GPa) = 118.47764 23.15642 26.66917
#
# Poissons Ratio (x) = 0.32373 0.05358
# Poissons Ratio (y) = 1.65634 -0.00149
# Poissons Ratio (z) = 0.23802 -0.00129
#
# Static dielectric constant tensor:
#      x y z
#    x 1.780350 0.000000 0.003450 
#    y 0.000000 1.684980 0.000000 
#    z 0.003450 0.000000 1.794080 
# 
# From -- ./inp_files/151945.got.cif
#   From: 2010.05.17/outbox.cif.g08.bks.cpg/sg15_76_cif.got.tgz:151945.got - 2010.06.03 18:47:42.
