data_PCOD9256449
_publ_section_title
;
Structure prediction by ZEFSAII (Michael W. Deem and Ramdas Pophale) SiO2 
 PCOD9256449
Probable space group: C 2/C
;
_chemical_formula_sum "Si O2"
_cell_formula_units_Z 64
_cell_length_a 23.582177
_cell_length_b 14.846001
_cell_length_c 15.099085
_cell_angle_alpha 90.000000
_cell_angle_beta 150.571062
_cell_angle_gamma 90.000000
_cell_volume 2597.343626
_symmetry_space_group_name_H-M "C 2/C"
_symmetry_group_IT_number 15
_symmetry_cell_setting 'monoclinic'
loop_
_space_group_symop_operation_xyz
x,y,z
-x,y,1/2-z
-x,-y,-z
x,-y,1/2+z
1/2+x,1/2+y,z
1/2-x,1/2+y,1/2-z
1/2-x,1/2-y,-z
1/2+x,1/2-y,1/2+z
loop_
_atom_site_type_symbol
_atom_site_label
_atom_site_fract_x
_atom_site_fract_y
_atom_site_fract_z
Si Si1 0.235502 0.952714 0.497201
Si Si2 0.385041 0.887757 0.540954
Si Si3 0.422408 0.620641 0.229072
Si Si4 0.654164 0.674189 0.020711
Si Si5 0.937363 0.841746 0.929096
Si Si6 0.796325 0.242242 0.938594
Si Si7 0.081183 0.685303 0.061810
Si Si8 0.133286 0.430073 0.186569
O O1 0.286413 0.914655 0.475987
O O2 0.151449 0.878183 0.425503
O O3 0.171727 0.044262 0.390064
O O4 0.325156 0.987197 0.695648
O O5 0.500000 0.913561 0.750000
O O6 0.382017 0.778757 0.527175
O O7 0.377122 0.935645 0.434524
O O8 0.500000 0.599972 0.250000
O O9 0.488449 0.611162 0.412248
O O10 0.361854 0.716619 0.118842
O O11 0.585652 0.622472 0.005227
O O12 0.789293 0.673616 0.229059
O O13 0.808661 0.812633 0.718828
O O14 0.018607 0.754772 0.043053
O O15 0.894830 0.272870 0.003012
O O16 0.730905 0.148525 0.827540
O O17 0.988159 0.605139 0.937986
#
# Coordination Sequence:
#
# PCOD9256449 Si02
#       8
#     8   8   8   8   8   8   8   8
#     4  11  28  44  64 100 142 178 220 285 334 405
#     4  12  25  46  73  95 130 183 228 280 334 403
#     4  11  22  40  62  97 139 171 219 276 339 395
#     4  11  24  45  69  97 128 176 235 275 330 401
#     4  10  20  37  67  98 122 175 220 271 331 398
#     4   9  18  37  65  95 132 170 219 275 326 392
#     4  10  17  38  72  95 123 179 215 277 335 386
#     4  10  22  44  67  99 140 171 224 277 342 399
#
# _framework density 24.640559
#
# number of rings (size 3 to 8) (size 9 to 14) (size 15 to 20)
#    0.000    1.500    5.000    1.500    1.750    2.500 
#    4.500    0.625    0.000    0.000    0.000    0.000 
#    0.000    0.000    0.000    0.000    0.000    0.000 
#
# Total GULP energy -178589.869329 kJ/mol
# GULP energy per Si atom -5580.933417 kJ/mol
# Density = 2.458448 g / cm^3
# Si number density = 24.640559 Si / 1000 Ang^3
#
#
#
# Elastic Constant Matrix: (Units=GPa)
#
#
# Indices 1 2 3 4 5 6 
#
# 1 192.7685 33.4503 19.7996 0.0000 -14.5817 0.0000
# 2 33.4503 42.2680 -2.6535 0.0000 -14.7379 0.0000
# 3 19.7996 -2.6535 75.6069 0.0000 -11.6168 0.0000
# 4 0.0000 0.0000 0.0000-3373.0977 0.0000 -334.1978
# 5 -14.5817 -14.7379 -11.6168 0.0000 20.9293 0.0000
# 6 0.0000 0.0000 0.0000 -334.1978 0.0000 -9.1737
#
#
#
# Elastic Compliance Matrix: (Units=1/GPa)
#
#
# Indices 1 2 3 4 5 6 
#
# 1 0.006254 -0.005182 -0.001870 0.000000 -0.000330 0.000000
# 2 -0.005182 0.037413 0.006738 0.000000 0.026475 0.000000
# 3 -0.001870 0.006738 0.015831 0.000000 0.012229 0.000000
# 4 0.000000 0.000000 0.000000 0.000114 0.000000 -0.004139
# 5 -0.000330 0.026475 0.012229 0.000000 0.072981 0.000000
# 6 0.000000 0.000000 0.000000 -0.004139 0.000000 0.041775
#
#
# Mechanical properties :
#
#
# Convention : Reuss Voigt Hill
#
# Bulk Modulus (GPa) = 16.98634 45.75959 31.37297
# Shear Modulus (GPa) = 25.69110 -654.93194 -314.62042
#
# Velocity S-wave (km/s) = 3.23249 -16.32088 -11.31199
# Velocity P-wave (km/s) = 4.56515 18.34531 12.56404
#
# Compressibility (1/GPa) = 0.05887082
#
# Stress axis : x y z
#
# Youngs Moduli (GPa) = 159.90113 26.72834 63.16543
#
# Poissons Ratio (x) = 0.13849 0.11813
# Poissons Ratio (y) = 0.82854 -0.42560
# Poissons Ratio (z) = 0.29905 -0.18009
#
# Static dielectric constant tensor:
#      x y z
#    x 2.027240 0.000000 -0.009750 
#    y 0.000000 1.991380 0.000000 
#    z -0.009750 0.000000 2.011770 
# 
# From -- ./inp_files/174263.got.cif
#   From: 2010.05.17/outbox.cif.g08.bks.cpg/sg15_88_cif.got.tgz:174263.got - 2010.06.03 18:47:42.
