data_PCOD9256664
_publ_section_title
;
Structure prediction by ZEFSAII (Michael W. Deem and Ramdas Pophale) SiO2 
 PCOD9256664
Probable space group: C 2/C
;
_chemical_formula_sum "Si O2"
_cell_formula_units_Z 32
_cell_length_a 11.872524
_cell_length_b 11.854976
_cell_length_c 10.902877
_cell_angle_alpha 90.000000
_cell_angle_beta 47.528713
_cell_angle_gamma 90.000000
_cell_volume 1131.918252
_symmetry_space_group_name_H-M "C 2/C"
_symmetry_group_IT_number 15
_symmetry_cell_setting 'monoclinic'
loop_
_space_group_symop_operation_xyz
x,y,z
-x,y,1/2-z
-x,-y,-z
x,-y,1/2+z
1/2+x,1/2+y,z
1/2-x,1/2+y,1/2-z
1/2-x,1/2-y,-z
1/2+x,1/2-y,1/2+z
loop_
_atom_site_type_symbol
_atom_site_label
_atom_site_fract_x
_atom_site_fract_y
_atom_site_fract_z
Si Si1 0.825447 0.958523 0.625789
Si Si2 0.928479 0.718825 0.185331
Si Si3 0.151384 0.502358 0.006281
Si Si4 0.918344 0.255362 0.424830
O O1 0.757516 0.003541 0.547619
O O2 0.744517 0.831008 0.679193
O O3 0.748197 0.001342 0.809930
O O4 0.000000 0.000000 0.500000
O O5 0.000000 0.783416 0.250000
O O6 0.933655 0.782748 0.052784
O O7 0.043762 0.611435 0.094261
O O8 0.048495 0.389379 0.087412
O O9 0.750000 0.250000 0.500000
O O10 0.000000 0.198726 0.250000
#
# Coordination Sequence:
#
# PCOD9256664 Si02
#       4
#     8   8   8   8
#     4  10  18  28  51  84 111 135 179 247 289 313
#     4   9  19  38  61  79 106 155 201 231 280 357
#     4  10  19  36  57  79 110 151 193 233 284 351
#     4  11  22  36  55  82 114 151 191 237 290 349
#
# _framework density 28.270593000000002
#
# number of rings (size 3 to 8) (size 9 to 14) (size 15 to 20)
#    0.000    2.000    0.000    7.500    0.000    4.000 
#    0.000    1.250    0.000    3.000    0.000    0.000 
#    0.000    0.000    0.000    0.000    0.000    0.000 
#
# Total GULP energy -89511.515792 kJ/mol
# GULP energy per Si atom -5594.469737 kJ/mol
# Density = 2.820625 g / cm^3
# Si number density = 28.270593 Si / 1000 Ang^3
#
#
#
# Elastic Constant Matrix: (Units=GPa)
#
#
# Indices 1 2 3 4 5 6 
#
# 1 303.0964 17.8522 107.7153 0.0000 41.8149 0.0000
# 2 17.8522 107.8249 6.9854 0.0000 7.1958 0.0000
# 3 107.7153 6.9854 203.1435 0.0000 22.9751 0.0000
# 4 0.0000 0.0000 0.0000 6.0049 0.0000 -9.8548
# 5 41.8149 7.1958 22.9751 0.0000 80.0822 0.0000
# 6 0.0000 0.0000 0.0000 -9.8548 0.0000 17.7553
#
#
#
# Elastic Compliance Matrix: (Units=1/GPa)
#
#
# Indices 1 2 3 4 5 6 
#
# 1 0.004285 -0.000468 -0.002075 0.000000 -0.001600 0.000000
# 2 -0.000468 0.009392 -0.000007 0.000000 -0.000597 0.000000
# 3 -0.002075 -0.000007 0.006098 0.000000 -0.000665 0.000000
# 4 0.000000 0.000000 0.000000 1.868480 0.000000 1.037066
# 5 -0.001600 -0.000597 -0.000665 0.000000 0.013567 0.000000
# 6 0.000000 0.000000 0.000000 1.037066 0.000000 0.631926
#
#
# Mechanical properties :
#
#
# Convention : Reuss Voigt Hill
#
# Bulk Modulus (GPa) = 68.14410 97.68561 82.91486
# Shear Modulus (GPa) = 1.96561 52.86929 27.41745
#
# Velocity S-wave (km/s) = 0.83474 4.32918 3.11758
# Velocity P-wave (km/s) = 5.00855 7.72126 6.50782
#
# Compressibility (1/GPa) = 0.01467478
#
# Stress axis : x y z
#
# Youngs Moduli (GPa) = 233.37036 106.47192 163.97705
#
# Poissons Ratio (x) = 0.04985 0.34026
# Poissons Ratio (y) = 0.10927 0.00117
# Poissons Ratio (z) = 0.48425 0.00076
#
# Static dielectric constant tensor:
#      x y z
#    x 2.233920 0.000000 0.031160 
#    y 0.000000 2.404170 0.000000 
#    z 0.031160 0.000000 2.223990 
# 
# From -- ./inp_files/86999.got.cif
#   From: 2010.05.17/outbox.cif.g08.bks.cpg/sg15_44_cif.got.tgz:86999.got - 2010.06.03 18:47:42.
