data_PCOD9256974
_publ_section_title
;
Structure prediction by ZEFSAII (Michael W. Deem and Ramdas Pophale) SiO2 
 PCOD9256974
Probable space group: C 2/C
;
_chemical_formula_sum "Si O2"
_cell_formula_units_Z 60
_cell_length_a 23.670653
_cell_length_b 9.142339
_cell_length_c 17.094072
_cell_angle_alpha 90.000000
_cell_angle_beta 57.661092
_cell_angle_gamma 90.000000
_cell_volume 3125.487518
_symmetry_space_group_name_H-M "C 2/C"
_symmetry_group_IT_number 15
_symmetry_cell_setting 'monoclinic'
loop_
_space_group_symop_operation_xyz
x,y,z
-x,y,1/2-z
-x,-y,-z
x,-y,1/2+z
1/2+x,1/2+y,z
1/2-x,1/2+y,1/2-z
1/2-x,1/2-y,-z
1/2+x,1/2-y,1/2+z
loop_
_atom_site_type_symbol
_atom_site_label
_atom_site_fract_x
_atom_site_fract_y
_atom_site_fract_z
Si Si1 0.551343 0.893701 0.917446
Si Si2 0.152957 0.820316 0.416577
Si Si3 0.500000 0.775873 0.250000
Si Si4 0.093425 0.069270 0.375490
Si Si5 0.479075 0.632717 0.904499
Si Si6 0.780887 0.221261 0.391801
Si Si7 0.113350 0.051929 0.112197
Si Si8 0.389450 0.129208 0.723944
O O1 0.588974 0.781779 0.947476
O O2 0.511543 0.791624 0.885775
O O3 0.607741 0.990186 0.833466
O O4 0.500000 0.000000 0.000000
O O5 0.220110 0.726004 0.375723
O O6 0.143069 0.902432 0.506234
O O7 0.149344 0.948082 0.354303
O O8 0.557500 0.672716 0.172842
O O9 0.538638 0.867698 0.286548
O O10 0.057558 0.108548 0.484481
O O11 0.115706 0.220564 0.321491
O O12 0.038447 0.988176 0.361833
O O13 0.427055 0.597093 0.873880
O O14 0.750000 0.250000 0.500000
O O15 0.827993 0.077832 0.368111
O O16 0.830297 0.353468 0.330189
#
# Coordination Sequence:
#
# PCOD9256974 Si02
#       8
#     8   8   4   8   8   8   8   8
#     4  11  20  31  53  87 119 136 171 233 311 338
#     4   9  19  34  53  78 109 143 181 238 270 331
#     4  10  18  30  50  76 104 132 184 226 260 336
#     4   9  16  29  53  79 103 133 177 221 268 328
#     4   9  16  30  51  81 109 132 167 225 279 327
#     4   9  20  36  54  79 103 150 200 225 265 330
#     4   9  16  31  56  77 101 142 189 226 266 331
#     4  11  20  32  54  83 105 146 180 224 283 343
#
# _framework density 19.197005999999998
#
# number of rings (size 3 to 8) (size 9 to 14) (size 15 to 20)
#    0.000    2.400    2.667    1.600    0.000    1.067 
#    0.000    0.667    0.000    0.800    3.467    0.000 
#    0.000    0.000    0.000    0.000    0.000    0.000 
#
# Total GULP energy -167078.728427 kJ/mol
# GULP energy per Si atom -5569.290948 kJ/mol
# Density = 1.915331 g / cm^3
# Si number density = 19.197006 Si / 1000 Ang^3
#
#
#
# Elastic Constant Matrix: (Units=GPa)
#
#
# Indices 1 2 3 4 5 6 
#
# 1 114.4687 30.7242 -1.4066 0.0000 -0.9534 0.0000
# 2 30.7242 85.9958 8.2646 0.0000 1.9572 0.0000
# 3 -1.4066 8.2646 40.1359 0.0000 -8.8222 0.0000
# 4 0.0000 0.0000 0.0000 16.8178 0.0000 2.0842
# 5 -0.9534 1.9572 -8.8222 0.0000 20.5574 0.0000
# 6 0.0000 0.0000 0.0000 2.0842 0.0000 31.9541
#
#
#
# Elastic Compliance Matrix: (Units=1/GPa)
#
#
# Indices 1 2 3 4 5 6 
#
# 1 0.009744 -0.003648 0.001400 0.000000 0.001400 0.000000
# 2 -0.003648 0.013337 -0.003523 0.000000 -0.002951 0.000000
# 3 0.001400 -0.003523 0.028463 0.000000 0.012615 0.000000
# 4 0.000000 0.000000 0.000000 0.059945 0.000000 -0.003910
# 5 0.001400 -0.002951 0.012615 0.000000 0.054404 0.000000
# 6 0.000000 0.000000 0.000000 -0.003910 0.000000 0.031550
#
#
# Mechanical properties :
#
#
# Convention : Reuss Voigt Hill
#
# Bulk Modulus (GPa) = 24.99765 35.08498 30.04131
# Shear Modulus (GPa) = 22.49030 27.40042 24.94536
#
# Velocity S-wave (km/s) = 3.42651 3.78210 3.60869
# Velocity P-wave (km/s) = 5.35766 6.11460 5.74860
#
# Compressibility (1/GPa) = 0.04000377
#
# Stress axis : x y z
#
# Youngs Moduli (GPa) = 102.62774 74.97698 35.13367
#
# Poissons Ratio (x) = 0.27350 -0.04920
# Poissons Ratio (y) = 0.37436 0.12377
# Poissons Ratio (z) = -0.14372 0.26413
#
# Static dielectric constant tensor:
#      x y z
#    x 1.757280 0.000000 -0.054710 
#    y 0.000000 1.663020 0.000000 
#    z -0.054710 0.000000 1.864250 
# 
# From -- ./inp_files/218585.got.cif
#   From: 2010.05.17/outbox.cif.g08.bks.cpg/sg15_110_cif.got.tgz:218585.got - 2010.06.03 18:47:42.
