data_PCOD9256378
_publ_section_title
;
Structure prediction by ZEFSAII (Michael W. Deem and Ramdas Pophale) SiO2 
 PCOD9256378
Probable space group: C 2/C
;
_chemical_formula_sum "Si O2"
_cell_formula_units_Z 32
_cell_length_a 9.075057
_cell_length_b 12.346302
_cell_length_c 10.683467
_cell_angle_alpha 90.000000
_cell_angle_beta 104.351695
_cell_angle_gamma 90.000000
_cell_volume 1159.656137
_symmetry_space_group_name_H-M "C 2/C"
_symmetry_group_IT_number 15
_symmetry_cell_setting 'monoclinic'
loop_
_space_group_symop_operation_xyz
x,y,z
-x,y,1/2-z
-x,-y,-z
x,-y,1/2+z
1/2+x,1/2+y,z
1/2-x,1/2+y,1/2-z
1/2-x,1/2-y,-z
1/2+x,1/2-y,1/2+z
loop_
_atom_site_type_symbol
_atom_site_label
_atom_site_fract_x
_atom_site_fract_y
_atom_site_fract_z
Si Si1 0.300325 0.470770 0.140520
Si Si2 0.000000 0.830300 0.750000
Si Si3 0.000000 0.369179 0.750000
Si Si4 0.264484 0.468693 0.387023
Si Si5 0.995485 0.662980 0.534360
O O1 0.363756 0.590786 0.183489
O O2 0.344565 0.416825 0.282860
O O3 0.127200 0.427613 0.082381
O O4 0.355300 0.461684 0.008540
O O5 0.039504 0.758509 0.637936
O O6 0.142826 0.448913 0.800523
O O7 0.013280 0.312923 0.615928
O O8 0.162340 0.382013 0.440778
#
# Coordination Sequence:
#
# PCOD9256378 Si02
#       5
#     8   4   4   8   8
#     4  11  23  41  73 102 146 188 235 291 360 423
#     4  12  27  44  70 111 140 190 239 286 360 431
#     4  10  17  36  74 103 130 190 235 280 372 407
#     4  11  18  41  74  99 139 189 226 298 354 406
#     4  11  21  44  75 104 141 187 237 299 354 419
#
# _framework density 27.594387000000001
#
# number of rings (size 3 to 8) (size 9 to 14) (size 15 to 20)
#    0.000    1.000    7.500    1.500    0.000    2.000 
#    0.000    7.500    5.500    0.000    0.000    0.000 
#    0.000    0.000    0.000    0.000    0.000    0.000 
#
# Total GULP energy -89209.581227 kJ/mol
# GULP energy per Si atom -5575.598827 kJ/mol
# Density = 2.753158 g / cm^3
# Si number density = 27.594387 Si / 1000 Ang^3
#
#
#
# Elastic Constant Matrix: (Units=GPa)
#
#
# Indices 1 2 3 4 5 6 
#
# 1 106.7486 31.5732 57.9611 0.0000 -16.6462 0.0000
# 2 31.5732 109.4070 72.3124 0.0000 3.4419 0.0000
# 3 57.9611 72.3124 343.5189 0.0000 -30.7464 0.0000
# 4 0.0000 0.0000 0.0000 56.6663 0.0000 20.3423
# 5 -16.6462 3.4419 -30.7464 0.0000 54.7703 0.0000
# 6 0.0000 0.0000 0.0000 20.3423 0.0000 39.5106
#
#
#
# Elastic Compliance Matrix: (Units=1/GPa)
#
#
# Indices 1 2 3 4 5 6 
#
# 1 0.011184 -0.002612 -0.001072 0.000000 0.002962 0.000000
# 2 -0.002612 0.011445 -0.002215 0.000000 -0.002757 0.000000
# 3 -0.001072 -0.002215 0.003729 0.000000 0.001907 0.000000
# 4 0.000000 0.000000 0.000000 0.021648 0.000000 -0.011146
# 5 0.002962 -0.002757 0.001907 0.000000 0.020402 0.000000
# 6 0.000000 0.000000 0.000000 -0.011146 0.000000 0.031048
#
#
# Mechanical properties :
#
#
# Convention : Reuss Voigt Hill
#
# Bulk Modulus (GPa) = 68.68548 98.15197 83.41873
# Shear Modulus (GPa) = 43.06318 56.71129 49.88724
#
# Velocity S-wave (km/s) = 3.95470 4.53832 4.25653
# Velocity P-wave (km/s) = 6.76742 7.94409 7.37925
#
# Compressibility (1/GPa) = 0.01455912
#
# Stress axis : x y z
#
# Youngs Moduli (GPa) = 89.41045 87.37547 268.17459
#
# Poissons Ratio (x) = 0.22824 0.28753
# Poissons Ratio (y) = 0.23355 0.59406
# Poissons Ratio (z) = 0.09586 0.19355
#
# Static dielectric constant tensor:
#      x y z
#    x 2.459070 0.000000 -0.164250 
#    y 0.000000 2.204500 0.000000 
#    z -0.164250 0.000000 2.322540 
# 
# From -- ./inp_files/84567.got.cif
#   From: 2010.05.17/outbox.cif.g08.bks.cpg/sg15_43_cif.got.tgz:84567.got - 2010.06.03 18:47:42.
