data_PCOD9256097
_publ_section_title
;
Structure prediction by ZEFSAII (Michael W. Deem and Ramdas Pophale) SiO2 
 PCOD9256097
Probable space group: C 2/C
;
_chemical_formula_sum "Si O2"
_cell_formula_units_Z 64
_cell_length_a 20.029261
_cell_length_b 11.881477
_cell_length_c 12.316013
_cell_angle_alpha 90.000000
_cell_angle_beta 69.949115
_cell_angle_gamma 90.000000
_cell_volume 2753.282248
_symmetry_space_group_name_H-M "C 2/C"
_symmetry_group_IT_number 15
_symmetry_cell_setting 'monoclinic'
loop_
_space_group_symop_operation_xyz
x,y,z
-x,y,1/2-z
-x,-y,-z
x,-y,1/2+z
1/2+x,1/2+y,z
1/2-x,1/2+y,1/2-z
1/2-x,1/2-y,-z
1/2+x,1/2-y,1/2+z
loop_
_atom_site_type_symbol
_atom_site_label
_atom_site_fract_x
_atom_site_fract_y
_atom_site_fract_z
Si Si1 0.055300 0.564386 0.313142
Si Si2 0.665085 0.975696 0.404518
Si Si3 0.314667 0.167059 0.397750
Si Si4 0.603887 0.610162 0.048069
Si Si5 0.762900 0.022277 0.659437
Si Si6 0.513793 0.303576 0.414562
Si Si7 0.889398 0.120361 0.841646
Si Si8 0.321106 0.178389 0.942312
O O1 0.094126 0.475464 0.369965
O O2 0.120220 0.621666 0.211797
O O3 0.023171 0.668514 0.400583
O O4 0.000000 0.526100 0.250000
O O5 0.739289 0.980392 0.296542
O O6 0.662141 0.095390 0.468327
O O7 0.669426 0.879287 0.491579
O O8 0.247151 0.101969 0.385200
O O9 0.319824 0.300725 0.381228
O O10 0.665074 0.578039 0.924114
O O11 0.534385 0.635799 0.015141
O O12 0.611532 0.511007 0.130870
O O13 0.619802 0.727439 0.098919
O O14 0.699319 0.097483 0.643878
O O15 0.566502 0.354493 0.292275
O O16 0.436062 0.332098 0.415726
O O17 0.250000 0.250000 0.000000
#
# Coordination Sequence:
#
# PCOD9256097 Si02
#       8
#     8   8   8   8   8   8   8   8
#     4  10  17  34  59  81 108 146 193 226 279 343
#     4  10  19  36  58  81 117 149 183 240 286 329
#     4   9  19  36  56  83 115 142 187 238 277 336
#     4  11  21  36  58  83 110 154 186 226 289 336
#     4   9  21  37  56  84 113 148 190 230 284 343
#     4  10  19  37  59  79 107 152 189 227 287 339
#     4  10  21  38  56  84 113 142 191 240 273 342
#     4   9  19  36  56  79 108 145 190 226 269 343
#
# _framework density 23.244982
#
# number of rings (size 3 to 8) (size 9 to 14) (size 15 to 20)
#    0.000    2.250    3.750    0.375    0.000    4.000 
#    6.750    0.000    0.000    0.000    0.000    0.000 
#    0.000    0.000    0.000    0.000    0.000    0.000 
#
# Total GULP energy -178594.810433 kJ/mol
# GULP energy per Si atom -5581.087826 kJ/mol
# Density = 2.319208 g / cm^3
# Si number density = 23.244982 Si / 1000 Ang^3
#
#
#
# Elastic Constant Matrix: (Units=GPa)
#
#
# Indices 1 2 3 4 5 6 
#
# 1 75.2602 18.4677 -3.4919 0.0000 25.8103 0.0000
# 2 18.4677 84.0665 22.4053 0.0000 1.6124 0.0000
# 3 -3.4919 22.4053 33.2914 0.0000 4.1258 0.0000
# 4 0.0000 0.0000 0.0000 7.2084 0.0000 -2.9850
# 5 25.8103 1.6124 4.1258 0.0000 28.5501 0.0000
# 6 0.0000 0.0000 0.0000 -2.9850 0.0000 24.9837
#
#
#
# Elastic Compliance Matrix: (Units=1/GPa)
#
#
# Indices 1 2 3 4 5 6 
#
# 1 0.023057 -0.007327 0.010062 0.000000 -0.021885 0.000000
# 2 -0.007327 0.016834 -0.013034 0.000000 0.007557 0.000000
# 3 0.010062 -0.013034 0.041647 0.000000 -0.014379 0.000000
# 4 0.000000 0.000000 0.000000 0.145948 0.000000 0.017437
# 5 -0.021885 0.007557 -0.014379 0.000000 0.056462 0.000000
# 6 0.000000 0.000000 0.000000 0.017437 0.000000 0.042110
#
#
# Mechanical properties :
#
#
# Convention : Reuss Voigt Hill
#
# Bulk Modulus (GPa) = 16.40975 29.70893 23.05934
# Shear Modulus (GPa) = 13.62505 22.49756 18.06131
#
# Velocity S-wave (km/s) = 2.42368 3.11440 2.79049
# Velocity P-wave (km/s) = 3.86097 5.07358 4.50823
#
# Compressibility (1/GPa) = 0.06093939
#
# Stress axis : x y z
#
# Youngs Moduli (GPa) = 43.36984 59.40369 24.01114
#
# Poissons Ratio (x) = 0.43526 -0.24160
# Poissons Ratio (y) = 0.31778 0.31297
# Poissons Ratio (z) = -0.43638 0.77429
#
# Static dielectric constant tensor:
#      x y z
#    x 1.945570 0.000000 0.014990 
#    y 0.000000 1.905890 0.000000 
#    z 0.014990 0.000000 1.903820 
# 
# From -- ./inp_files/118003.got.cif
#   From: 2010.05.17/outbox.cif.g08.bks.cpg/sg15_60_cif.got.tgz:118003.got - 2010.06.03 18:47:42.
