data_PCOD9256207
_publ_section_title
;
Structure prediction by ZEFSAII (Michael W. Deem and Ramdas Pophale) SiO2 
 PCOD9256207
Probable space group: C 2/C
;
_chemical_formula_sum "Si O2"
_cell_formula_units_Z 56
_cell_length_a 12.544640
_cell_length_b 17.505939
_cell_length_c 18.099795
_cell_angle_alpha 90.000000
_cell_angle_beta 43.479695
_cell_angle_gamma 90.000000
_cell_volume 2735.062337
_symmetry_space_group_name_H-M "C 2/C"
_symmetry_group_IT_number 15
_symmetry_cell_setting 'monoclinic'
loop_
_space_group_symop_operation_xyz
x,y,z
-x,y,1/2-z
-x,-y,-z
x,-y,1/2+z
1/2+x,1/2+y,z
1/2-x,1/2+y,1/2-z
1/2-x,1/2-y,-z
1/2+x,1/2-y,1/2+z
loop_
_atom_site_type_symbol
_atom_site_label
_atom_site_fract_x
_atom_site_fract_y
_atom_site_fract_z
Si Si1 0.246432 0.691659 0.264654
Si Si2 0.088475 0.442365 0.400065
Si Si3 0.205820 0.657240 0.450557
Si Si4 0.025244 0.802124 0.065219
Si Si5 0.426410 0.679975 0.460415
Si Si6 0.554551 0.936000 0.803206
Si Si7 0.787464 0.644494 0.536639
O O1 0.240617 0.646367 0.346265
O O2 0.421124 0.709914 0.157609
O O3 0.176023 0.633326 0.240457
O O4 0.132343 0.763850 0.325458
O O5 0.127578 0.492667 0.309830
O O6 0.218109 0.400633 0.383429
O O7 0.000000 0.500000 0.500000
O O8 0.956381 0.381000 0.448040
O O9 0.332560 0.631707 0.446820
O O10 0.183475 0.748500 0.465123
O O11 0.126679 0.844947 0.075133
O O12 0.132177 0.727589 0.990279
O O13 0.982389 0.848459 0.012530
O O14 0.500000 0.957926 0.750000
O O15 0.408816 0.901170 0.922859
#
# Coordination Sequence:
#
# PCOD9256207 Si02
#       7
#     8   8   8   8   8   8   8
#     4  10  18  33  53  83 108 143 189 229 277 326
#     4  10  17  35  58  75 106 155 186 220 271 338
#     4  10  19  35  53  82 107 153 183 216 291 330
#     4   9  17  31  52  83 109 145 177 226 282 326
#     4  10  19  31  55  82 116 134 183 237 272 330
#     4  10  19  31  54  85 104 141 197 230 266 326
#     4   9  16  31  55  75 110 147 181 218 279 328
#
# _framework density 20.474851999999998
#
# number of rings (size 3 to 8) (size 9 to 14) (size 15 to 20)
#    0.000    2.286    5.714    1.286    0.000    0.000 
#    0.000    4.286    0.000   12.857    0.000    0.000 
#    0.000    0.000    0.000    0.000    0.000    0.000 
#
# Total GULP energy -156030.418841 kJ/mol
# GULP energy per Si atom -5572.514959 kJ/mol
# Density = 2.042825 g / cm^3
# Si number density = 20.474852 Si / 1000 Ang^3
#
#
#
# Elastic Constant Matrix: (Units=GPa)
#
#
# Indices 1 2 3 4 5 6 
#
# 1 179.3841 32.1336 26.4074 0.0000 10.3090 0.0000
# 2 32.1336 30.7914 0.3995 0.0000 13.4017 0.0000
# 3 26.4074 0.3995 26.8579 0.0000 2.6351 0.0000
# 4 0.0000 0.0000 0.0000 7.6974 0.0000 7.7172
# 5 10.3090 13.4017 2.6351 0.0000 20.7278 0.0000
# 6 0.0000 0.0000 0.0000 7.7172 0.0000 32.8611
#
#
#
# Elastic Compliance Matrix: (Units=1/GPa)
#
#
# Indices 1 2 3 4 5 6 
#
# 1 0.008461 -0.010240 -0.008510 0.000000 0.003495 0.000000
# 2 -0.010240 0.057720 0.012528 -0.000001 -0.033819 0.000000
# 3 -0.008510 0.012528 0.046371 0.000000 -0.009763 0.000000
# 4 0.000000 -0.000001 0.000000 0.169921 0.000000 -0.039905
# 5 0.003495 -0.033819 -0.009763 0.000000 0.069613 0.000000
# 6 0.000000 0.000000 0.000000 -0.039905 0.000000 0.039802
#
#
# Mechanical properties :
#
#
# Convention : Reuss Voigt Hill
#
# Bulk Modulus (GPa) = 9.98912 39.43490 24.71201
# Shear Modulus (GPa) = 11.42330 24.13013 17.77671
#
# Velocity S-wave (km/s) = 2.36459 3.43669 2.94976
# Velocity P-wave (km/s) = 3.51346 5.92028 4.86796
#
# Compressibility (1/GPa) = 0.10010894
#
# Stress axis : x y z
#
# Youngs Moduli (GPa) = 118.19116 17.32497 21.56502
#
# Poissons Ratio (x) = 0.17741 0.18351
# Poissons Ratio (y) = 1.21032 -0.27017
# Poissons Ratio (z) = 1.00575 -0.21705
#
# Static dielectric constant tensor:
#      x y z
#    x 1.796890 0.000000 0.032180 
#    y 0.000000 1.758460 0.000000 
#    z 0.032180 0.000000 1.747430 
# 
# From -- ./inp_files/199424.got.cif
#   From: 2010.05.17/outbox.cif.g08.bks.cpg/sg15_100_cif.got.tgz:199424.got - 2010.06.03 18:47:42.
