data_PCOD9256140
_publ_section_title
;
Structure prediction by ZEFSAII (Michael W. Deem and Ramdas Pophale) SiO2 
 PCOD9256140
Probable space group: C 2/C
;
_chemical_formula_sum "Si O2"
_cell_formula_units_Z 56
_cell_length_a 17.964624
_cell_length_b 20.337295
_cell_length_c 14.585848
_cell_angle_alpha 90.000000
_cell_angle_beta 27.293156
_cell_angle_gamma 90.000000
_cell_volume 2443.562523
_symmetry_space_group_name_H-M "C 2/C"
_symmetry_group_IT_number 15
_symmetry_cell_setting 'monoclinic'
loop_
_space_group_symop_operation_xyz
x,y,z
-x,y,1/2-z
-x,-y,-z
x,-y,1/2+z
1/2+x,1/2+y,z
1/2-x,1/2+y,1/2-z
1/2-x,1/2-y,-z
1/2+x,1/2-y,1/2+z
loop_
_atom_site_type_symbol
_atom_site_label
_atom_site_fract_x
_atom_site_fract_y
_atom_site_fract_z
Si Si1 0.143982 0.789876 0.360244
Si Si2 0.307244 0.682275 0.482568
Si Si3 0.650428 0.453428 0.042568
Si Si4 0.000000 0.257831 0.750000
Si Si5 0.350557 0.324722 0.577401
Si Si6 0.486765 0.993140 0.622854
Si Si7 0.500000 0.096973 0.750000
Si Si8 0.687064 0.872065 0.481578
O O1 0.197950 0.804928 0.402958
O O2 0.242747 0.837168 0.183760
O O3 0.958534 0.811706 0.548937
O O4 0.185002 0.715330 0.280291
O O5 0.500000 0.667388 0.250000
O O6 0.250000 0.750000 0.500000
O O7 0.158021 0.635542 0.613939
O O8 0.500000 0.492628 0.250000
O O9 0.650008 0.398933 0.960483
O O10 0.690709 0.412614 0.090665
O O11 0.798384 0.498329 0.853944
O O12 0.954084 0.214583 0.886563
O O13 0.141886 0.312134 0.599990
O O14 0.566303 0.050826 0.594623
O O15 0.500000 0.000000 0.500000
O O16 0.551913 0.923540 0.592635
#
# Coordination Sequence:
#
# PCOD9256140 Si02
#       8
#     8   8   8   4   8   8   4   8
#     4  11  24  39  63 109 142 191 248 294 361 449
#     4  12  27  51  78 103 147 193 240 311 372 431
#     4  12  22  42  68 104 148 188 233 308 370 428
#     4  10  17  34  62 100 143 196 216 270 368 444
#     4  11  22  34  65 105 151 186 234 285 368 449
#     4  12  27  48  74 102 139 199 250 299 370 444
#     4  12  27  54  78 108 143 192 254 306 372 444
#     4  11  20  42  66  94 149 186 233 297 357 436
#
# _framework density 22.917359999999999
#
# number of rings (size 3 to 8) (size 9 to 14) (size 15 to 20)
#    0.000    0.571    5.714    2.571    2.000    5.143 
#    0.000    0.714    0.000    0.000    0.000    0.000 
#    0.000    0.000    0.000    0.000    0.000    0.000 
#
# Total GULP energy -156214.998448 kJ/mol
# GULP energy per Si atom -5579.107087 kJ/mol
# Density = 2.286520 g / cm^3
# Si number density = 22.917360 Si / 1000 Ang^3
#
#
#
# Elastic Constant Matrix: (Units=GPa)
#
#
# Indices 1 2 3 4 5 6 
#
# 1 134.2619 34.6709 6.5726 -0.0267 9.7568 0.0103
# 2 34.6709 89.2549 13.1998 -0.0522 -2.2165 0.0276
# 3 6.5726 13.1998 67.8141 -0.0547 -8.6115 0.0325
# 4 -0.0267 -0.0522 -0.0547 19.2605 0.0262 -4.3725
# 5 9.7568 -2.2165 -8.6115 0.0262 37.3072 -0.0129
# 6 0.0103 0.0276 0.0325 -4.3725 -0.0129 29.6936
#
#
#
# Elastic Compliance Matrix: (Units=1/GPa)
#
#
# Indices 1 2 3 4 5 6 
#
# 1 0.008508 -0.003293 -0.000506 0.000005 -0.002537 0.000000
# 2 -0.003293 0.012812 -0.002028 0.000022 0.001154 -0.000005
# 3 -0.000506 -0.002028 0.015650 0.000031 0.003624 -0.000009
# 4 0.000005 0.000022 0.000031 0.053716 -0.000028 0.007910
# 5 -0.002537 0.001154 0.003624 -0.000028 0.028373 0.000004
# 6 0.000000 -0.000005 -0.000009 0.007910 0.000004 0.034842
#
#
# Mechanical properties :
#
#
# Convention : Reuss Voigt Hill
#
# Bulk Modulus (GPa) = 39.50081 44.46859 41.98470
# Shear Modulus (GPa) = 28.73683 33.04474 30.89079
#
# Velocity S-wave (km/s) = 3.54493 3.80137 3.67539
# Velocity P-wave (km/s) = 5.83344 6.22199 6.03085
#
# Compressibility (1/GPa) = 0.02531594
#
# Stress axis : x y z
#
# Youngs Moduli (GPa) = 117.54139 78.05413 63.89684
#
# Poissons Ratio (x) = 0.25703 0.03232
# Poissons Ratio (y) = 0.38706 0.12958
# Poissons Ratio (z) = 0.05945 0.15829
#
# Static dielectric constant tensor:
#      x y z
#    x 1.990700 -0.000050 -0.133650 
#    y -0.000050 1.889410 0.000040 
#    z -0.133650 0.000040 1.977580 
# 
# From -- ./inp_files/163795.got.cif
#   From: 2010.05.17/outbox.cif.g08.bks.cpg/sg15_82_cif.got.tgz:163795.got - 2010.06.03 18:47:42.
