data_PCOD9256016
_publ_section_title
;
Structure prediction by ZEFSAII (Michael W. Deem and Ramdas Pophale) SiO2 
 PCOD9256016
Probable space group: C 2/C
;
_chemical_formula_sum "Si O2"
_cell_formula_units_Z 60
_cell_length_a 17.208688
_cell_length_b 7.563519
_cell_length_c 25.018726
_cell_angle_alpha 90.000000
_cell_angle_beta 127.525913
_cell_angle_gamma 90.000000
_cell_volume 2582.573686
_symmetry_space_group_name_H-M "C 2/C"
_symmetry_group_IT_number 15
_symmetry_cell_setting 'monoclinic'
loop_
_space_group_symop_operation_xyz
x,y,z
-x,y,1/2-z
-x,-y,-z
x,-y,1/2+z
1/2+x,1/2+y,z
1/2-x,1/2+y,1/2-z
1/2-x,1/2-y,-z
1/2+x,1/2-y,1/2+z
loop_
_atom_site_type_symbol
_atom_site_label
_atom_site_fract_x
_atom_site_fract_y
_atom_site_fract_z
Si Si1 0.837243 0.237706 0.854325
Si Si2 0.550248 0.666033 0.454618
Si Si3 0.892000 0.489111 0.571019
Si Si4 0.000000 0.123507 0.250000
Si Si5 0.660400 0.095488 0.841166
Si Si6 0.942250 0.213004 0.507888
Si Si7 0.616561 0.978134 0.206094
Si Si8 0.899602 0.066295 0.307214
O O1 0.756790 0.203802 0.865223
O O2 0.945195 0.239069 0.925203
O O3 0.824155 0.410211 0.812613
O O4 0.837015 0.071913 0.813732
O O5 0.459776 0.747604 0.452199
O O6 0.588919 0.491574 0.500538
O O7 0.501090 0.580543 0.382233
O O8 0.618199 0.824943 0.464666
O O9 0.830177 0.489969 0.599642
O O10 0.881128 0.337714 0.521655
O O11 0.003937 0.484885 0.641156
O O12 0.926567 0.259575 0.189300
O O13 0.932600 0.013881 0.261783
O O14 0.633279 0.983206 0.776173
O O15 0.635550 0.768440 0.209958
#
# Coordination Sequence:
#
# PCOD9256016 Si02
#       8
#     8   8   8   4   8   8   8   8
#     4  10  22  34  52  80 107 134 176 216 263 304
#     4   9  16  33  57  75 102 135 177 215 251 307
#     4  10  17  34  53  75 102 136 176 210 262 306
#     4  10  18  36  54  72 106 140 172 210 260 310
#     4  11  19  34  53  76 109 140 166 224 259 310
#     4   9  19  33  54  81  98 134 181 216 250 311
#     4   9  19  35  51  72 105 138 173 212 250 317
#     4   9  18  36  56  77 101 141 174 211 257 315
#
# _framework density 23.23264
#
# number of rings (size 3 to 8) (size 9 to 14) (size 15 to 20)
#    0.000    2.400    4.000    0.400    3.733    0.000 
#    7.200    2.000    0.000    7.200    0.000    0.000 
#    0.000    0.000    0.000    0.000    0.000    0.000 
#
# Total GULP energy -167373.435740 kJ/mol
# GULP energy per Si atom -5579.114525 kJ/mol
# Density = 2.317976 g / cm^3
# Si number density = 23.232640 Si / 1000 Ang^3
#
#
#
# Elastic Constant Matrix: (Units=GPa)
#
#
# Indices 1 2 3 4 5 6 
#
# 1 94.0286 20.8861 9.3642 0.0000 -22.9958 0.0000
# 2 20.8861 57.2191 1.8439 0.0000 -15.8990 0.0000
# 3 9.3642 1.8439 50.3122 0.0000 -23.0154 0.0000
# 4 0.0000 0.0000 0.0000 28.7120 0.0000 -8.2925
# 5 -22.9958 -15.8990 -23.0154 0.0000 41.2529 0.0000
# 6 0.0000 0.0000 0.0000 -8.2925 0.0000 19.8960
#
#
#
# Elastic Compliance Matrix: (Units=1/GPa)
#
#
# Indices 1 2 3 4 5 6 
#
# 1 0.012773 -0.002919 0.000634 0.000000 0.006349 0.000000
# 2 -0.002919 0.020758 0.003622 0.000000 0.008394 0.000000
# 3 0.000634 0.003622 0.027425 0.000000 0.017050 0.000000
# 4 0.000000 0.000000 0.000000 0.039595 0.000000 0.016503
# 5 0.006349 0.008394 0.017050 0.000000 0.040527 0.000000
# 6 0.000000 0.000000 0.000000 0.016503 0.000000 0.057140
#
#
# Mechanical properties :
#
#
# Convention : Reuss Voigt Hill
#
# Bulk Modulus (GPa) = 15.71575 29.52759 22.62167
# Shear Modulus (GPa) = 23.06784 29.26990 26.16887
#
# Velocity S-wave (km/s) = 3.15446 3.55330 3.35981
# Velocity P-wave (km/s) = 4.47735 5.43799 4.98089
#
# Compressibility (1/GPa) = 0.06363043
#
# Stress axis : x y z
#
# Youngs Moduli (GPa) = 78.29051 48.17494 36.46357
#
# Poissons Ratio (x) = 0.14061 -0.02312
# Poissons Ratio (y) = 0.22851 -0.13208
# Poissons Ratio (z) = -0.04963 -0.17450
#
# Static dielectric constant tensor:
#      x y z
#    x 1.919860 0.000000 0.024890 
#    y 0.000000 1.856380 0.000000 
#    z 0.024890 0.000000 1.961480 
# 
# From -- ./inp_files/276337.got.cif
#   From: 2010.05.17/outbox.cif.g08.bks.cpg/sg15_139_cif.got.tgz:276337.got - 2010.06.03 18:47:42.
