data_PCOD9256088
_publ_section_title
;
Structure prediction by ZEFSAII (Michael W. Deem and Ramdas Pophale) SiO2 
 PCOD9256088
Probable space group: C 2/C
;
_chemical_formula_sum "Si O2"
_cell_formula_units_Z 40
_cell_length_a 8.697508
_cell_length_b 16.901924
_cell_length_c 27.225412
_cell_angle_alpha 90.000000
_cell_angle_beta 152.041215
_cell_angle_gamma 90.000000
_cell_volume 1876.405407
_symmetry_space_group_name_H-M "C 2/C"
_symmetry_group_IT_number 15
_symmetry_cell_setting 'monoclinic'
loop_
_space_group_symop_operation_xyz
x,y,z
-x,y,1/2-z
-x,-y,-z
x,-y,1/2+z
1/2+x,1/2+y,z
1/2-x,1/2+y,1/2-z
1/2-x,1/2-y,-z
1/2+x,1/2-y,1/2+z
loop_
_atom_site_type_symbol
_atom_site_label
_atom_site_fract_x
_atom_site_fract_y
_atom_site_fract_z
Si Si1 0.709956 0.984791 0.107667
Si Si2 0.846904 0.658301 0.369112
Si Si3 0.690939 0.239493 0.555486
Si Si4 0.891632 0.325474 0.368396
Si Si5 0.291137 0.119202 0.739161
O O1 0.689418 0.065504 0.131683
O O2 0.549884 0.910038 0.089740
O O3 0.082441 0.956187 0.200605
O O4 0.500000 0.000000 0.000000
O O5 0.500000 0.687411 0.250000
O O6 0.147040 0.679929 0.417687
O O7 0.937570 0.702124 0.445515
O O8 0.558467 0.238304 0.573664
O O9 0.000372 0.179199 0.641882
O O10 0.500000 0.317468 0.250000
O O11 0.998144 0.339298 0.341870
O O12 0.500000 0.100637 0.750000
#
# Coordination Sequence:
#
# PCOD9256088 Si02
#       5
#     8   8   8   8   8
#     4  10  17  34  58  85 119 161 199 254 304 361
#     4  11  19  31  59  87 120 155 207 249 308 357
#     4   9  19  34  56  87 114 160 204 251 300 370
#     4   8  16  33  57  80 112 155 200 242 299 365
#     4  10  19  35  61  88 118 163 209 246 304 373
#
# _framework density 21.317354000000002
#
# number of rings (size 3 to 8) (size 9 to 14) (size 15 to 20)
#    0.000    2.800    4.000    2.400    0.000    0.000 
#    0.000    1.000    0.000   49.200    0.000    0.000 
#    0.000    0.000    0.000    0.000    0.000    0.000 
#
# Total GULP energy -111426.672608 kJ/mol
# GULP energy per Si atom -5571.333630 kJ/mol
# Density = 2.126884 g / cm^3
# Si number density = 21.317354 Si / 1000 Ang^3
#
#
#
# Elastic Constant Matrix: (Units=GPa)
#
#
# Indices 1 2 3 4 5 6 
#
# 1 122.5967 59.7728 38.0078 0.0005 -18.6298 -0.0012
# 2 59.7728 71.9870 -10.4759 0.0008 6.9935 0.0002
# 3 38.0078 -10.4759 65.7087 -0.0034 -32.6340 0.0083
# 4 0.0005 0.0008 -0.0034 5.9744 0.0014 7.1474
# 5 -18.6298 6.9935 -32.6340 0.0014 43.7930 0.0023
# 6 -0.0012 0.0002 0.0083 7.1474 0.0023 32.7031
#
#
#
# Elastic Compliance Matrix: (Units=1/GPa)
#
#
# Indices 1 2 3 4 5 6 
#
# 1 0.025705 -0.024099 -0.018048 -0.000022 0.001335 0.000010
# 2 -0.024099 0.036839 0.018732 0.000021 -0.002176 -0.000010
# 3 -0.018048 0.018732 0.037062 0.000041 0.016949 -0.000020
# 4 -0.000022 0.000021 0.000041 0.226642 0.000013 -0.049534
# 5 0.001335 -0.002176 0.016949 0.000013 0.036380 -0.000010
# 6 0.000010 -0.000010 -0.000020 -0.049534 -0.000010 0.041404
#
#
# Mechanical properties :
#
#
# Convention : Reuss Voigt Hill
#
# Bulk Modulus (GPa) = 18.94773 48.32242 33.63507
# Shear Modulus (GPa) = 10.67343 28.02661 19.35002
#
# Velocity S-wave (km/s) = 2.24004 3.62986 3.01609
# Velocity P-wave (km/s) = 3.94944 6.34706 5.28598
#
# Compressibility (1/GPa) = 0.05277678
#
# Stress axis : x y z
#
# Youngs Moduli (GPa) = 38.90368 27.14509 26.98168
#
# Poissons Ratio (x) = 0.65418 0.48695
# Poissons Ratio (y) = 0.93755 -0.50543
# Poissons Ratio (z) = 0.70212 -0.50849
#
# Static dielectric constant tensor:
#      x y z
#    x 1.874470 0.000000 -0.016160 
#    y 0.000000 1.784980 0.000000 
#    z -0.016160 0.000000 1.824260 
# 
# From -- ./inp_files/289660.got.cif
#   From: 2010.05.17/outbox.cif.g08.bks.cpg/sg15_145_cif.got.tgz:289660.got - 2010.06.03 18:47:42.
