data_PCOD9256563
_publ_section_title
;
Structure prediction by ZEFSAII (Michael W. Deem and Ramdas Pophale) SiO2 
 PCOD9256563
Probable space group: C 2/C
;
_chemical_formula_sum "Si O2"
_cell_formula_units_Z 60
_cell_length_a 28.013246
_cell_length_b 25.758309
_cell_length_c 5.685300
_cell_angle_alpha 90.000000
_cell_angle_beta 63.026470
_cell_angle_gamma 90.000000
_cell_volume 3656.092935
_symmetry_space_group_name_H-M "C 2/C"
_symmetry_group_IT_number 15
_symmetry_cell_setting 'monoclinic'
loop_
_space_group_symop_operation_xyz
x,y,z
-x,y,1/2-z
-x,-y,-z
x,-y,1/2+z
1/2+x,1/2+y,z
1/2-x,1/2+y,1/2-z
1/2-x,1/2-y,-z
1/2+x,1/2-y,1/2+z
loop_
_atom_site_type_symbol
_atom_site_label
_atom_site_fract_x
_atom_site_fract_y
_atom_site_fract_z
Si Si1 0.080499 0.620462 0.927766
Si Si2 0.202266 0.524090 0.951384
Si Si3 0.667809 0.764500 0.614033
Si Si4 0.302387 0.868488 0.248642
Si Si5 0.948195 0.278136 0.749105
Si Si6 0.572914 0.976592 0.723384
Si Si7 0.743162 0.794886 0.825464
Si Si8 0.000000 0.646217 0.750000
O O1 0.143196 0.612027 0.745618
O O2 0.064096 0.584031 0.182289
O O3 0.042888 0.611504 0.791697
O O4 0.070505 0.680081 0.014438
O O5 0.221173 0.496398 0.664836
O O6 0.214174 0.585181 0.885251
O O7 0.137606 0.517318 0.094991
O O8 0.681448 0.816359 0.430271
O O9 0.606019 0.750287 0.712443
O O10 0.686294 0.783485 0.828676
O O11 0.707980 0.717313 0.459424
O O12 0.260082 0.849560 0.536253
O O13 0.000000 0.250442 0.750000
O O14 0.968217 0.314651 0.492811
O O15 0.554249 0.996730 0.019055
O O16 0.750000 0.750000 0.000000
#
# Coordination Sequence:
#
# PCOD9256563 Si02
#       8
#     8   8   8   8   8   8   8   4
#     4   9  18  29  42  57  74 100 135 176 217 264
#     4   9  18  29  42  64  86 112 147 185 218 268
#     4   9  17  29  45  64  87 111 142 186 222 269
#     4   9  17  28  45  62  83 112 141 179 225 262
#     4   9  18  30  44  61  78 103 139 176 218 260
#     4   9  18  30  43  57  76 101 136 177 227 269
#     4   9  17  28  43  66  88 111 141 177 223 272
#     4  10  18  28  42  54  74  98 136 176 220 266
#
# _framework density 16.410962999999999
#
# number of rings (size 3 to 8) (size 9 to 14) (size 15 to 20)
#    0.000    2.933    0.000    0.800    3.733    1.067 
#    0.000    0.667    0.000    0.000    0.000    0.000 
#    0.000    0.000    0.000    0.000    0.000    1.333 
#
# Total GULP energy -167024.151560 kJ/mol
# GULP energy per Si atom -5567.471719 kJ/mol
# Density = 1.637361 g / cm^3
# Si number density = 16.410963 Si / 1000 Ang^3
#
#
#
# Elastic Constant Matrix: (Units=GPa)
#
#
# Indices 1 2 3 4 5 6 
#
# 1 73.3743 7.4525 13.0548 0.0000 2.4824 0.0000
# 2 7.4525 35.7907 22.2795 0.0000 -6.8778 0.0000
# 3 13.0548 22.2795 54.9142 0.0000 5.5225 0.0000
# 4 0.0000 0.0000 0.0000 21.1464 0.0000 1.8073
# 5 2.4824 -6.8778 5.5225 0.0000 19.9130 0.0000
# 6 0.0000 0.0000 0.0000 1.8073 0.0000 6.5877
#
#
#
# Elastic Compliance Matrix: (Units=1/GPa)
#
#
# Indices 1 2 3 4 5 6 
#
# 1 0.014312 -0.001725 -0.002534 0.000000 -0.001677 0.000000
# 2 -0.001725 0.044739 -0.019871 0.000000 0.021178 0.000000
# 3 -0.002534 -0.019871 0.028323 0.000000 -0.014402 0.000000
# 4 0.000000 0.000000 0.000000 0.048425 0.000000 -0.013285
# 5 -0.001677 0.021178 -0.014402 0.000000 0.061737 0.000000
# 6 0.000000 0.000000 0.000000 -0.013285 0.000000 0.155442
#
#
# Mechanical properties :
#
#
# Convention : Reuss Voigt Hill
#
# Bulk Modulus (GPa) = 25.56650 27.73922 26.65286
# Shear Modulus (GPa) = 12.06932 17.61558 14.84245
#
# Velocity S-wave (km/s) = 2.71485 3.27984 3.01062
# Velocity P-wave (km/s) = 5.04380 5.59309 5.32553
#
# Compressibility (1/GPa) = 0.03911369
#
# Stress axis : x y z
#
# Youngs Moduli (GPa) = 69.87379 22.35202 35.30724
#
# Poissons Ratio (x) = 0.03856 0.08946
# Poissons Ratio (y) = 0.12054 0.70158
# Poissons Ratio (z) = 0.17704 0.44415
#
# Static dielectric constant tensor:
#      x y z
#    x 1.603270 0.000000 0.021800 
#    y 0.000000 1.564790 0.000000 
#    z 0.021800 0.000000 1.632340 
# 
# From -- ./inp_files/16391.got.cif
#   From: 2010.05.17/outbox.cif.g08.bks.cpg/sg15_9_cif.got.tgz:16391.got - 2010.06.03 18:47:42.
