data_PCOD9256957
_publ_section_title
;
Structure prediction by ZEFSAII (Michael W. Deem and Ramdas Pophale) SiO2 
 PCOD9256957
Probable space group: C 2/C
;
_chemical_formula_sum "Si O2"
_cell_formula_units_Z 52
_cell_length_a 29.090601
_cell_length_b 11.733342
_cell_length_c 8.012134
_cell_angle_alpha 90.000000
_cell_angle_beta 86.773567
_cell_angle_gamma 90.000000
_cell_volume 2730.446574
_symmetry_space_group_name_H-M "C 2/C"
_symmetry_group_IT_number 15
_symmetry_cell_setting 'monoclinic'
loop_
_space_group_symop_operation_xyz
x,y,z
-x,y,1/2-z
-x,-y,-z
x,-y,1/2+z
1/2+x,1/2+y,z
1/2-x,1/2+y,1/2-z
1/2-x,1/2-y,-z
1/2+x,1/2-y,1/2+z
loop_
_atom_site_type_symbol
_atom_site_label
_atom_site_fract_x
_atom_site_fract_y
_atom_site_fract_z
Si Si1 0.310474 0.396370 0.315532
Si Si2 0.277365 0.826101 0.698023
Si Si3 0.000000 0.572875 0.250000
Si Si4 0.791569 0.456178 0.038621
Si Si5 0.124356 0.633766 0.759433
Si Si6 0.170702 0.143687 0.312309
Si Si7 0.431875 0.958480 0.518922
O O1 0.304060 0.292909 0.188164
O O2 0.258130 0.424871 0.377485
O O3 0.332674 0.511873 0.242839
O O4 0.331507 0.354416 0.485736
O O5 0.222230 0.817513 0.740893
O O6 0.288570 0.906721 0.539935
O O7 0.294987 0.893883 0.860368
O O8 0.969827 0.496258 0.378829
O O9 0.959164 0.624268 0.142608
O O10 0.830043 0.413071 0.157898
O O11 0.132339 0.768933 0.756819
O O12 0.085938 0.572499 0.884089
O O13 0.110299 0.592901 0.577390
#
# Coordination Sequence:
#
# PCOD9256957 Si02
#       7
#     8   8   4   8   8   8   8
#     4  10  19  36  46  64  97 161 182 224 245 288
#     4  10  18  34  47  66  93 151 186 230 253 294
#     4   8  16  38  50  82 110 134 150 184 254 368
#     4  10  18  30  50  68 104 135 189 216 262 287
#     4  11  18  32  48  83 104 139 161 224 250 303
#     4  10  20  34  48  66 102 137 199 217 256 291
#     4   9  19  30  58  77 113 133 154 195 272 311
#
# _framework density 19.044504
#
# number of rings (size 3 to 8) (size 9 to 14) (size 15 to 20)
#    0.000    2.154    3.077    1.846    0.000    0.000 
#    5.538    3.077    0.000    0.000    0.000    0.000 
#    0.000   61.538    0.000    0.000    0.000    0.000 
#
# Total GULP energy -144827.805791 kJ/mol
# GULP energy per Si atom -5570.300223 kJ/mol
# Density = 1.900116 g / cm^3
# Si number density = 19.044504 Si / 1000 Ang^3
#
#
#
# Elastic Constant Matrix: (Units=GPa)
#
#
# Indices 1 2 3 4 5 6 
#
# 1 63.3501 17.0619 31.6235 0.0000 18.5780 0.0000
# 2 17.0619 127.5676 26.9705 0.0000 -0.2995 0.0000
# 3 31.6235 26.9705 59.7657 0.0000 19.3264 0.0000
# 4 0.0000 0.0000 0.0000 24.0851 0.0000 7.3765
# 5 18.5780 -0.2995 19.3264 0.0000 29.9953 0.0000
# 6 0.0000 0.0000 0.0000 7.3765 0.0000 -0.7798
#
#
#
# Elastic Compliance Matrix: (Units=1/GPa)
#
#
# Indices 1 2 3 4 5 6 
#
# 1 0.023062 -0.001228 -0.008874 0.000000 -0.008578 0.000000
# 2 -0.001228 0.008996 -0.004655 0.000000 0.003850 0.000000
# 3 -0.008874 -0.004655 0.027494 0.000000 -0.012265 0.000000
# 4 0.000000 0.000000 0.000000 0.010654 0.000000 0.100780
# 5 -0.008578 0.003850 -0.012265 0.000000 0.046593 0.000000
# 6 0.000000 0.000000 0.000000 0.100780 0.000000 -0.329055
#
#
# Mechanical properties :
#
#
# Convention : Reuss Voigt Hill
#
# Bulk Modulus (GPa) = 33.29165 44.66614 38.97890
# Shear Modulus (GPa) = -28.94711 22.32860 -3.30925
#
# Velocity S-wave (km/s) = -3.90291 3.42781 -1.31963
# Velocity P-wave (km/s) = 1.67074 6.25867 4.26495
#
# Compressibility (1/GPa) = 0.03003756
#
# Stress axis : x y z
#
# Youngs Moduli (GPa) = 43.36205 111.15515 36.37109
#
# Poissons Ratio (x) = 0.13654 0.32277
# Poissons Ratio (y) = 0.05326 0.16930
# Poissons Ratio (z) = 0.38481 0.51740
#
# Static dielectric constant tensor:
#      x y z
#    x 1.700880 0.000000 0.043760 
#    y 0.000000 1.725380 0.000000 
#    z 0.043760 0.000000 1.742010 
# 
# From -- ./inp_files/68847.got.cif
#   From: 2010.05.17/outbox.cif.g08.bks.cpg/sg15_35_cif.got.tgz:68847.got - 2010.06.03 18:47:42.
