data_PCOD9256906
_publ_section_title
;
Structure prediction by ZEFSAII (Michael W. Deem and Ramdas Pophale) SiO2 
 PCOD9256906
Probable space group: C 2/C
;
_chemical_formula_sum "Si O2"
_cell_formula_units_Z 56
_cell_length_a 30.546953
_cell_length_b 11.094905
_cell_length_c 8.409311
_cell_angle_alpha 90.000000
_cell_angle_beta 60.735690
_cell_angle_gamma 90.000000
_cell_volume 2486.306035
_symmetry_space_group_name_H-M "C 2/C"
_symmetry_group_IT_number 15
_symmetry_cell_setting 'monoclinic'
loop_
_space_group_symop_operation_xyz
x,y,z
-x,y,1/2-z
-x,-y,-z
x,-y,1/2+z
1/2+x,1/2+y,z
1/2-x,1/2+y,1/2-z
1/2-x,1/2-y,-z
1/2+x,1/2-y,1/2+z
loop_
_atom_site_type_symbol
_atom_site_label
_atom_site_fract_x
_atom_site_fract_y
_atom_site_fract_z
Si Si1 0.762381 0.165543 0.678787
Si Si2 0.800304 0.929717 0.421218
Si Si3 0.574047 0.923171 0.449931
Si Si4 0.335873 0.197557 0.849340
Si Si5 0.136470 0.089027 0.396432
Si Si6 0.474185 0.825042 0.449383
Si Si7 0.443284 0.707297 0.794790
O O1 0.763105 0.135488 0.864661
O O2 0.707821 0.188817 0.704571
O O3 0.803012 0.271348 0.564756
O O4 0.778141 0.051311 0.539227
O O5 0.824460 0.870687 0.533519
O O6 0.843711 0.968791 0.219526
O O7 0.622910 0.906733 0.250170
O O8 0.522520 0.876861 0.459570
O O9 0.579908 0.830714 0.587414
O O10 0.561282 0.059614 0.521919
O O11 0.366383 0.316850 0.743393
O O12 0.085340 0.094198 0.582693
O O13 0.500000 0.771174 0.250000
O O14 0.444333 0.729430 0.606370
O O15 0.500000 0.700132 0.750000
#
# Coordination Sequence:
#
# PCOD9256906 Si02
#       7
#     8   8   8   8   8   8   8
#     4   9  18  34  51  73 103 134 167 214 258 299
#     4   9  18  34  54  72  98 133 166 208 263 305
#     4   9  17  31  48  69  99 137 165 199 248 299
#     4   9  18  33  52  73 101 134 171 211 256 299
#     4   9  18  34  55  74  96 130 169 206 256 311
#     4  10  18  30  48  72 103 133 168 204 242 297
#     4   9  18  33  51  71 101 135 165 203 253 296
#
# _framework density 22.523375000000001
#
# number of rings (size 3 to 8) (size 9 to 14) (size 15 to 20)
#    0.000    2.857    0.000    2.143    0.000    1.714 
#    7.714    2.143    0.000    0.000    0.000    0.000 
#    0.000    0.000    0.000    0.000    0.000    0.000 
#
# Total GULP energy -155878.781830 kJ/mol
# GULP energy per Si atom -5567.099351 kJ/mol
# Density = 2.247211 g / cm^3
# Si number density = 22.523375 Si / 1000 Ang^3
#
#
#
# Elastic Constant Matrix: (Units=GPa)
#
#
# Indices 1 2 3 4 5 6 
#
# 1 34.6154 8.3439 19.6513 0.0000 -6.9100 0.0000
# 2 8.3439 19.7862 25.5684 0.0000 -4.9992 0.0000
# 3 19.6513 25.5684 75.9979 0.0000 3.7759 0.0000
# 4 0.0000 0.0000 0.0000 21.7372 0.0000 -5.0532
# 5 -6.9100 -4.9992 3.7759 0.0000 39.5108 0.0000
# 6 0.0000 0.0000 0.0000 -5.0532 0.0000 20.7375
#
#
#
# Elastic Compliance Matrix: (Units=1/GPa)
#
#
# Indices 1 2 3 4 5 6 
#
# 1 0.035804 -0.001670 -0.009040 0.000000 0.006914 0.000000
# 2 -0.001670 0.098267 -0.033390 0.000000 0.015332 0.000000
# 3 -0.009040 -0.033390 0.027147 0.000000 -0.008400 0.000000
# 4 0.000000 0.000000 0.000000 0.048767 0.000000 0.011883
# 5 0.006914 0.015332 -0.008400 0.000000 0.029261 0.000000
# 6 0.000000 0.000000 0.000000 0.011883 0.000000 0.051117
#
#
# Mechanical properties :
#
#
# Convention : Reuss Voigt Hill
#
# Bulk Modulus (GPa) = 13.69549 26.39186 20.04367
# Shear Modulus (GPa) = 12.40998 21.51947 16.96473
#
# Velocity S-wave (km/s) = 2.34985 3.09435 2.74744
# Velocity P-wave (km/s) = 3.66826 4.95073 4.35694
#
# Compressibility (1/GPa) = 0.07301674
#
# Stress axis : x y z
#
# Youngs Moduli (GPa) = 27.93022 10.17639 36.83685
#
# Poissons Ratio (x) = 0.01700 0.33299
# Poissons Ratio (y) = 0.04665 1.22999
# Poissons Ratio (z) = 0.25248 0.33979
#
# Static dielectric constant tensor:
#      x y z
#    x 1.874400 0.000000 -0.008990 
#    y 0.000000 1.866490 0.000000 
#    z -0.008990 0.000000 1.895520 
# 
# From -- ./inp_files/69298.got.cif
#   From: 2010.05.17/outbox.cif.g08.bks.cpg/sg15_35_cif.got.tgz:69298.got - 2010.06.03 18:47:42.
