data_PCOD9256699
_publ_section_title
;
Structure prediction by ZEFSAII (Michael W. Deem and Ramdas Pophale) SiO2 
 PCOD9256699
Probable space group: C 2/C
;
_chemical_formula_sum "Si O2"
_cell_formula_units_Z 48
_cell_length_a 20.858222
_cell_length_b 12.759833
_cell_length_c 9.173893
_cell_angle_alpha 90.000000
_cell_angle_beta 138.010757
_cell_angle_gamma 90.000000
_cell_volume 1633.413982
_symmetry_space_group_name_H-M "C 2/C"
_symmetry_group_IT_number 15
_symmetry_cell_setting 'monoclinic'
loop_
_space_group_symop_operation_xyz
x,y,z
-x,y,1/2-z
-x,-y,-z
x,-y,1/2+z
1/2+x,1/2+y,z
1/2-x,1/2+y,1/2-z
1/2-x,1/2-y,-z
1/2+x,1/2-y,1/2+z
loop_
_atom_site_type_symbol
_atom_site_label
_atom_site_fract_x
_atom_site_fract_y
_atom_site_fract_z
Si Si1 0.151354 0.169610 0.947239
Si Si2 0.500000 0.611601 0.250000
Si Si3 0.545072 0.131442 0.121418
Si Si4 0.000000 0.538028 0.750000
Si Si5 0.310731 0.333588 0.287218
Si Si6 0.853101 0.109700 0.246052
Si Si7 0.673925 0.140968 0.808641
O O1 0.179092 0.107079 0.848935
O O2 0.084833 0.263347 0.766117
O O3 0.250127 0.228326 0.157703
O O4 0.114902 0.110563 0.029330
O O5 0.581926 0.673847 0.474072
O O6 0.434320 0.565932 0.272550
O O7 0.430247 0.122027 0.931905
O O8 0.557260 0.105557 0.969443
O O9 0.569679 0.035300 0.270158
O O10 0.246637 0.386663 0.300344
O O11 0.845200 0.235127 0.190785
O O12 0.738278 0.091364 0.044625
#
# Coordination Sequence:
#
# PCOD9256699 Si02
#       7
#     8   4   8   4   8   8   8
#     4  10  20  31  49  73 105 136 172 218 267 316
#     4  10  18  29  42  62 102 134 162 203 238 294
#     4  11  22  39  55  74 109 148 179 233 269 291
#     4  10  24  37  54  78  98 140 210 225 250 320
#     4   9  19  30  45  73  99 133 175 201 254 345
#     4   9  18  30  46  73 100 134 176 202 252 345
#     4   9  18  32  49  68 103 139 172 211 264 318
#
# _framework density 29.386303000000002
#
# number of rings (size 3 to 8) (size 9 to 14) (size 15 to 20)
#    0.000    2.333    0.000    4.000    0.000   12.667 
#    0.000    0.000    0.000    0.000    0.000    0.000 
#    0.000  108.000    0.000    0.000    0.000    7.000 
#
# Total GULP energy -133785.648341 kJ/mol
# GULP energy per Si atom -5574.402014 kJ/mol
# Density = 2.931942 g / cm^3
# Si number density = 29.386303 Si / 1000 Ang^3
#
#
#
# Elastic Constant Matrix: (Units=GPa)
#
#
# Indices 1 2 3 4 5 6 
#
# 1 202.3000 24.9941 91.6917 0.0000 -14.5394 0.0000
# 2 24.9941 53.6705 34.2729 0.0000 13.5053 0.0000
# 3 91.6917 34.2729 222.3567 0.0000 6.1452 0.0000
# 4 0.0000 0.0000 0.0000 36.1126 0.0000 9.0896
# 5 -14.5394 13.5053 6.1452 0.0000 80.8541 0.0000
# 6 0.0000 0.0000 0.0000 9.0896 0.0000 24.3944
#
#
#
# Elastic Compliance Matrix: (Units=1/GPa)
#
#
# Indices 1 2 3 4 5 6 
#
# 1 0.006372 -0.001855 -0.002387 0.000000 0.001637 0.000000
# 2 -0.001855 0.022076 -0.002532 0.000000 -0.003829 0.000000
# 3 -0.002387 -0.002532 0.005884 0.000000 -0.000454 0.000000
# 4 0.000000 0.000000 0.000000 0.030557 0.000000 -0.011386
# 5 0.001637 -0.003829 -0.000454 0.000000 0.013336 0.000000
# 6 0.000000 0.000000 0.000000 -0.011386 0.000000 0.045235
#
#
# Mechanical properties :
#
#
# Convention : Reuss Voigt Hill
#
# Bulk Modulus (GPa) = 48.11206 86.69383 67.40294
# Shear Modulus (GPa) = 34.73734 50.09678 42.41706
#
# Velocity S-wave (km/s) = 3.44189 4.13336 3.80337
# Velocity P-wave (km/s) = 5.67479 7.23499 6.50186
#
# Compressibility (1/GPa) = 0.02078481
#
# Stress axis : x y z
#
# Youngs Moduli (GPa) = 156.94101 45.29721 169.94362
#
# Poissons Ratio (x) = 0.08403 0.40562
# Poissons Ratio (y) = 0.29114 0.43029
# Poissons Ratio (z) = 0.37459 0.11469
#
# Static dielectric constant tensor:
#      x y z
#    x 2.635240 0.000000 0.285420 
#    y 0.000000 2.594760 0.000000 
#    z 0.285420 0.000000 3.056280 
# 
# From -- ./inp_files/58006.got.cif
#   From: 2010.05.17/outbox.cif.g08.bks.cpg/sg15_30_cif.got.tgz:58006.got - 2010.06.03 18:47:42.
