data_PCOD9256861
_publ_section_title
;
Structure prediction by ZEFSAII (Michael W. Deem and Ramdas Pophale) SiO2 
 PCOD9256861
Probable space group: C 2/C
;
_chemical_formula_sum "Si O2"
_cell_formula_units_Z 64
_cell_length_a 27.407065
_cell_length_b 17.379237
_cell_length_c 8.084211
_cell_angle_alpha 90.000000
_cell_angle_beta 79.968858
_cell_angle_gamma 90.000000
_cell_volume 3791.758300
_symmetry_space_group_name_H-M "C 2/C"
_symmetry_group_IT_number 15
_symmetry_cell_setting 'monoclinic'
loop_
_space_group_symop_operation_xyz
x,y,z
-x,y,1/2-z
-x,-y,-z
x,-y,1/2+z
1/2+x,1/2+y,z
1/2-x,1/2+y,1/2-z
1/2-x,1/2-y,-z
1/2+x,1/2-y,1/2+z
loop_
_atom_site_type_symbol
_atom_site_label
_atom_site_fract_x
_atom_site_fract_y
_atom_site_fract_z
Si Si1 0.433908 0.073072 0.939915
Si Si2 0.842625 0.752827 0.759328
Si Si3 0.242568 0.651702 0.349312
Si Si4 0.196273 0.574834 0.071587
Si Si5 0.867397 0.713451 0.073572
Si Si6 0.954361 0.593541 0.539292
Si Si7 0.202823 0.585072 0.693966
Si Si8 0.886127 0.290361 0.913015
O O1 0.440450 0.091075 0.741738
O O2 0.486201 0.090438 0.000795
O O3 0.391966 0.128849 0.036475
O O4 0.429490 0.982073 0.972879
O O5 0.791315 0.797834 0.803721
O O6 0.830842 0.660978 0.771915
O O7 0.866949 0.765602 0.567809
O O8 0.875778 0.762822 0.903054
O O9 0.192321 0.703479 0.379950
O O10 0.241250 0.606659 0.525230
O O11 0.234705 0.598998 0.192249
O O12 0.218768 0.570051 0.873574
O O13 0.176440 0.491641 0.141299
O O14 0.154613 0.640891 0.088249
O O15 0.889084 0.745806 0.230414
O O16 0.933866 0.667148 0.456705
#
# Coordination Sequence:
#
# PCOD9256861 Si02
#       8
#     8   8   8   8   8   8   8   8
#     4  10  20  32  46  64  93 122 164 199 257 282
#     4  10  21  34  47  67  93 120 160 207 241 290
#     4  10  21  34  47  67  92 120 160 206 243 284
#     4  10  20  29  46  67  88 118 158 201 241 283
#     4  10  19  31  47  65  84 120 152 193 242 285
#     4  10  20  32  45  66  92 124 156 214 242 286
#     4  10  18  30  45  63  88 117 151 198 241 278
#     4  10  21  30  48  67  90 119 160 200 246 280
#
# _framework density 16.878713000000001
#
# number of rings (size 3 to 8) (size 9 to 14) (size 15 to 20)
#    0.000    2.000    2.500    2.250    3.500    8.000 
#    0.000    0.000    0.000    0.000    0.000    0.000 
#    0.000    0.000    0.000    0.000    0.000   11.250 
#
# Total GULP energy -178340.693286 kJ/mol
# GULP energy per Si atom -5573.146665 kJ/mol
# Density = 1.684030 g / cm^3
# Si number density = 16.878713 Si / 1000 Ang^3
#
#
#
# Elastic Constant Matrix: (Units=GPa)
#
#
# Indices 1 2 3 4 5 6 
#
# 1 47.2296 12.7973 14.4324 0.0000 6.9496 0.0000
# 2 12.7973 14.8924 7.0670 0.0000 4.9442 0.0000
# 3 14.4324 7.0670 123.2752 0.0000 27.7456 0.0000
# 4 0.0000 0.0000 0.0000 15.2024 0.0000 -1.8123
# 5 6.9496 4.9442 27.7456 0.0000 20.9520 0.0000
# 6 0.0000 0.0000 0.0000 -1.8123 0.0000 23.2063
#
#
#
# Elastic Compliance Matrix: (Units=1/GPa)
#
#
# Indices 1 2 3 4 5 6 
#
# 1 0.028100 -0.022782 -0.001561 0.000000 -0.001877 0.000000
# 2 -0.022782 0.091344 0.000828 0.000000 -0.015095 0.000000
# 3 -0.001561 0.000828 0.011646 0.000000 -0.015099 0.000000
# 4 0.000000 0.000000 0.000000 0.066397 0.000000 0.005185
# 5 -0.001877 -0.015095 -0.015099 0.000000 0.071908 0.000000
# 6 0.000000 0.000000 0.000000 0.005185 0.000000 0.043497
#
#
# Mechanical properties :
#
#
# Convention : Reuss Voigt Hill
#
# Bulk Modulus (GPa) = 11.89649 28.22117 20.05883
# Shear Modulus (GPa) = 12.88852 21.94549 17.41701
#
# Velocity S-wave (km/s) = 2.76632 3.60972 3.21579
# Velocity P-wave (km/s) = 4.15535 5.84207 5.06935
#
# Compressibility (1/GPa) = 0.08405843
#
# Stress axis : x y z
#
# Youngs Moduli (GPa) = 35.58778 10.94760 85.86909
#
# Poissons Ratio (x) = 0.24941 0.13407
# Poissons Ratio (y) = 0.81078 -0.07112
# Poissons Ratio (z) = 0.05556 -0.00907
#
# Static dielectric constant tensor:
#      x y z
#    x 1.581040 0.000000 0.016050 
#    y 0.000000 1.558540 0.000000 
#    z 0.016050 0.000000 1.696240 
# 
# From -- ./inp_files/62462.got.cif
#   From: 2010.05.17/outbox.cif.g08.bks.cpg/sg15_32_cif.got.tgz:62462.got - 2010.06.03 18:47:42.
