data_PCOD9256152
_publ_section_title
;
Structure prediction by ZEFSAII (Michael W. Deem and Ramdas Pophale) SiO2 
 PCOD9256152
Probable space group: C 2/C
;
_chemical_formula_sum "Si O2"
_cell_formula_units_Z 48
_cell_length_a 8.093533
_cell_length_b 16.597940
_cell_length_c 19.224382
_cell_angle_alpha 90.000000
_cell_angle_beta 130.461323
_cell_angle_gamma 90.000000
_cell_volume 1964.899997
_symmetry_space_group_name_H-M "C 2/C"
_symmetry_group_IT_number 15
_symmetry_cell_setting 'monoclinic'
loop_
_space_group_symop_operation_xyz
x,y,z
-x,y,1/2-z
-x,-y,-z
x,-y,1/2+z
1/2+x,1/2+y,z
1/2-x,1/2+y,1/2-z
1/2-x,1/2-y,-z
1/2+x,1/2-y,1/2+z
loop_
_atom_site_type_symbol
_atom_site_label
_atom_site_fract_x
_atom_site_fract_y
_atom_site_fract_z
Si Si1 0.728583 0.011758 0.354460
Si Si2 0.382008 0.180112 0.116575
Si Si3 0.209399 0.797410 0.210642
Si Si4 0.437286 0.456056 0.161528
Si Si5 0.426448 0.162238 0.967482
Si Si6 0.828493 0.343180 0.096969
O O1 0.500000 0.000079 0.250000
O O2 0.947786 0.001985 0.369756
O O3 0.720411 0.937703 0.406006
O O4 0.720466 0.101054 0.380463
O O5 0.609551 0.213713 0.208316
O O6 0.222541 0.257040 0.080842
O O7 0.440587 0.155388 0.053740
O O8 0.073286 0.872980 0.199279
O O9 0.182824 0.802597 0.118527
O O10 0.441386 0.815275 0.306719
O O11 0.500000 0.499928 0.250000
O O12 0.195794 0.420690 0.089680
O O13 0.636404 0.171885 0.975371
#
# Coordination Sequence:
#
# PCOD9256152 Si02
#       6
#     8   8   8   8   8   8
#     4  11  21  36  57  91 113 147 201 255 285 336
#     4  10  24  36  56  88 123 151 193 246 293 340
#     4   9  18  35  58  86 111 159 193 237 290 352
#     4  10  17  34  63  82 112 160 198 234 292 355
#     4  10  21  39  58  85 116 164 195 223 302 367
#     4  10  18  37  63  82 110 156 203 232 291 360
#
# _framework density 24.428725
#
# number of rings (size 3 to 8) (size 9 to 14) (size 15 to 20)
#    0.000    2.000    5.000    0.000    2.333    2.000 
#    0.000    3.333    0.000    0.000    0.000    0.000 
#    0.000    0.000    0.000    0.000    0.000    0.000 
#
# Total GULP energy -133909.513940 kJ/mol
# GULP energy per Si atom -5579.563081 kJ/mol
# Density = 2.437312 g / cm^3
# Si number density = 24.428725 Si / 1000 Ang^3
#
#
#
# Elastic Constant Matrix: (Units=GPa)
#
#
# Indices 1 2 3 4 5 6 
#
# 1 107.2791 34.4102 19.3594 0.0000 -46.3944 0.0000
# 2 34.4102 112.0863 21.0393 0.0000 -15.3535 0.0000
# 3 19.3594 21.0393 37.4385 0.0000 -19.0584 0.0000
# 4 0.0000 0.0000 0.0000 -0.1170 0.0000 4.6805
# 5 -46.3944 -15.3535 -19.0584 0.0000 45.6611 0.0000
# 6 0.0000 0.0000 0.0000 4.6805 0.0000 21.0504
#
#
#
# Elastic Compliance Matrix: (Units=1/GPa)
#
#
# Indices 1 2 3 4 5 6 
#
# 1 0.017671 -0.003336 0.001658 0.000000 0.017526 0.000000
# 2 -0.003336 0.010663 -0.005292 0.000000 -0.002013 0.000000
# 3 0.001658 -0.005292 0.036543 0.000000 0.015158 0.000000
# 4 0.000000 0.000000 0.000000 -0.863830 0.000000 0.192069
# 5 0.017526 -0.002013 0.015158 0.000000 0.045358 0.000000
# 6 0.000000 0.000000 0.000000 0.192069 0.000000 0.004799
#
#
# Mechanical properties :
#
#
# Convention : Reuss Voigt Hill
#
# Bulk Modulus (GPa) = 19.63125 45.15798 32.39462
# Shear Modulus (GPa) = -6.96499 25.45190 9.24345
#
# Velocity S-wave (km/s) = -1.69037 3.23132 1.94732
# Velocity P-wave (km/s) = 2.06005 5.69629 4.28319
#
# Compressibility (1/GPa) = 0.05093918
#
# Stress axis : x y z
#
# Youngs Moduli (GPa) = 56.58858 93.77844 27.36472
#
# Poissons Ratio (x) = 0.31282 -0.04538
# Poissons Ratio (y) = 0.18876 0.14482
# Poissons Ratio (z) = -0.09384 0.49629
#
# Static dielectric constant tensor:
#      x y z
#    x 2.021230 0.000000 -0.044590 
#    y 0.000000 1.898990 0.000000 
#    z -0.044590 0.000000 2.121140 
# 
# From -- ./inp_files/232318.got.cif
#   From: 2010.05.17/outbox.cif.g08.bks.cpg/sg15_117_cif.got.tgz:232318.got - 2010.06.03 18:47:42.
