data_PCOD9256263
_publ_section_title
;
Structure prediction by ZEFSAII (Michael W. Deem and Ramdas Pophale) SiO2 
 PCOD9256263
Probable space group: C 2/C
;
_chemical_formula_sum "Si O2"
_cell_formula_units_Z 60
_cell_length_a 17.262654
_cell_length_b 13.271290
_cell_length_c 13.505400
_cell_angle_alpha 90.000000
_cell_angle_beta 56.042323
_cell_angle_gamma 90.000000
_cell_volume 2566.365937
_symmetry_space_group_name_H-M "C 2/C"
_symmetry_group_IT_number 15
_symmetry_cell_setting 'monoclinic'
loop_
_space_group_symop_operation_xyz
x,y,z
-x,y,1/2-z
-x,-y,-z
x,-y,1/2+z
1/2+x,1/2+y,z
1/2-x,1/2+y,1/2-z
1/2-x,1/2-y,-z
1/2+x,1/2-y,1/2+z
loop_
_atom_site_type_symbol
_atom_site_label
_atom_site_fract_x
_atom_site_fract_y
_atom_site_fract_z
Si Si1 0.090560 0.951883 0.383565
Si Si2 0.000000 0.031564 0.250000
Si Si3 0.356084 0.777345 0.685985
Si Si4 0.982052 0.409895 0.376150
Si Si5 0.053436 0.623768 0.017290
Si Si6 0.609178 0.283558 0.131181
Si Si7 0.708409 0.837130 0.963929
Si Si8 0.669924 0.506030 0.019358
O O1 0.069782 0.981914 0.284468
O O2 0.103797 0.831916 0.375176
O O3 0.173586 0.989107 0.397180
O O4 0.000000 0.000000 0.500000
O O5 0.080623 0.073680 0.121034
O O6 0.444239 0.852159 0.618196
O O7 0.332227 0.759457 0.818036
O O8 0.280138 0.817244 0.661825
O O9 0.936874 0.510398 0.454038
O O10 0.901996 0.328000 0.440903
O O11 0.000000 0.429578 0.250000
O O12 0.064640 0.375844 0.390648
O O13 0.108670 0.704095 0.042168
O O14 0.500000 0.290667 0.250000
O O15 0.644248 0.391428 0.067269
O O16 0.750000 0.750000 0.000000
O O17 0.746099 0.941895 0.982314
#
# Coordination Sequence:
#
# PCOD9256263 Si02
#       8
#     8   4   8   8   8   8   8   8
#     4  10  18  30  56  89 119 152 193 255 302 358
#     4  10  18  34  56  94 114 150 200 244 308 360
#     4  10  18  35  59  85 123 160 203 244 311 371
#     4  10  21  42  66  89 121 168 212 252 304 379
#     4   9  19  36  67  95 119 158 213 265 303 356
#     4  10  17  35  65  96 122 160 208 262 310 369
#     4  11  24  42  57  90 129 169 196 256 318 370
#     4  11  20  37  61  90 129 159 205 252 316 373
#
# _framework density 23.379362
#
# number of rings (size 3 to 8) (size 9 to 14) (size 15 to 20)
#    0.000    1.867    3.333    3.600    0.000    0.000 
#    1.200   11.333    0.000    0.000    0.000    0.000 
#    0.000    0.000    0.000    0.000    0.000    0.000 
#
# Total GULP energy -167090.986545 kJ/mol
# GULP energy per Si atom -5569.699551 kJ/mol
# Density = 2.332615 g / cm^3
# Si number density = 23.379362 Si / 1000 Ang^3
#
#
#
# Elastic Constant Matrix: (Units=GPa)
#
#
# Indices 1 2 3 4 5 6 
#
# 1 122.6205 48.4173 58.4111 0.0000 65.4287 0.0000
# 2 48.4173 92.7340 17.7584 0.0000 36.0322 0.0000
# 3 58.4111 17.7584 70.9758 0.0000 55.4933 0.0000
# 4 0.0000 0.0000 0.0000 25.2214 0.0000 12.1909
# 5 65.4287 36.0322 55.4933 0.0000 57.6927 0.0000
# 6 0.0000 0.0000 0.0000 12.1909 0.0000 35.1720
#
#
#
# Elastic Compliance Matrix: (Units=1/GPa)
#
#
# Indices 1 2 3 4 5 6 
#
# 1 0.021247 -0.001263 0.004248 0.000000 -0.027394 0.000000
# 2 -0.001263 0.018594 0.017532 0.000000 -0.027044 0.000000
# 3 0.004248 0.017532 0.074753 0.000000 -0.087670 0.000000
# 4 0.000000 0.000000 0.000000 0.047628 0.000000 -0.016508
# 5 -0.027394 -0.027044 -0.087670 0.000000 0.149618 0.000000
# 6 0.000000 0.000000 0.000000 -0.016508 0.000000 0.034154
#
#
# Mechanical properties :
#
#
# Convention : Reuss Voigt Hill
#
# Bulk Modulus (GPa) = 6.42562 59.50045 32.96304
# Shear Modulus (GPa) = 14.01207 34.40012 24.20610
#
# Velocity S-wave (km/s) = 2.45079 3.84003 3.22119
# Velocity P-wave (km/s) = 3.28068 6.72059 5.28816
#
# Compressibility (1/GPa) = 0.15562703
#
# Stress axis : x y z
#
# Youngs Moduli (GPa) = 47.06526 53.78200 13.37745
#
# Poissons Ratio (x) = 0.06792 -0.05683
# Poissons Ratio (y) = 0.05944 -0.23453
# Poissons Ratio (z) = -0.19994 -0.94288
#
# Static dielectric constant tensor:
#      x y z
#    x 2.020320 0.000000 0.071440 
#    y 0.000000 1.889560 0.000000 
#    z 0.071440 0.000000 1.981650 
# 
# From -- ./inp_files/161295.got.cif
#   From: 2010.05.17/outbox.cif.g08.bks.cpg/sg15_81_cif.got.tgz:161295.got - 2010.06.03 18:47:42.
