data_PCOD9256192
_publ_section_title
;
Structure prediction by ZEFSAII (Michael W. Deem and Ramdas Pophale) SiO2 
 PCOD9256192
Probable space group: C 2/C
;
_chemical_formula_sum "Si O2"
_cell_formula_units_Z 56
_cell_length_a 9.583763
_cell_length_b 28.508594
_cell_length_c 12.142634
_cell_angle_alpha 90.000000
_cell_angle_beta 107.073130
_cell_angle_gamma 90.000000
_cell_volume 3171.401496
_symmetry_space_group_name_H-M "C 2/C"
_symmetry_group_IT_number 15
_symmetry_cell_setting 'monoclinic'
loop_
_space_group_symop_operation_xyz
x,y,z
-x,y,1/2-z
-x,-y,-z
x,-y,1/2+z
1/2+x,1/2+y,z
1/2-x,1/2+y,1/2-z
1/2-x,1/2-y,-z
1/2+x,1/2-y,1/2+z
loop_
_atom_site_type_symbol
_atom_site_label
_atom_site_fract_x
_atom_site_fract_y
_atom_site_fract_z
Si Si1 0.048040 0.661267 0.886395
Si Si2 0.500000 0.173797 0.250000
Si Si3 0.102565 0.568091 0.018305
Si Si4 0.500000 0.655346 0.250000
Si Si5 0.616696 0.014850 0.371255
Si Si6 0.747218 0.597707 0.228595
Si Si7 0.419339 0.236605 0.022359
Si Si8 0.344011 0.297293 0.515817
O O1 0.223522 0.668440 0.937176
O O2 0.000000 0.660467 0.750000
O O3 0.027587 0.611994 0.942178
O O4 0.957591 0.702139 0.928512
O O5 0.363927 0.138243 0.226442
O O6 0.479294 0.207320 0.140320
O O7 0.218678 0.584074 0.136822
O O8 0.976186 0.543214 0.059916
O O9 0.168885 0.531723 0.945467
O O10 0.591646 0.622210 0.190148
O O11 0.604872 0.686339 0.351447
O O12 0.500000 0.001015 0.250000
O O13 0.726359 0.051861 0.339973
O O14 0.514199 0.283462 0.021973
O O15 0.250000 0.250000 0.000000
O O16 0.250000 0.250000 0.500000
#
# Coordination Sequence:
#
# PCOD9256192 Si02
#       8
#     8   4   8   4   8   8   8   8
#     4  11  22  37  58  84 122 153 193 241 303 355
#     4  12  20  40  60  80 118 148 204 248 280 352
#     4  10  17  35  55  89 111 148 195 244 289 346
#     4  12  22  38  64  82 124 156 200 240 296 364
#     4   9  18  31  59  86 118 140 197 250 290 339
#     4  11  19  36  58  88 112 154 196 242 293 353
#     4  11  24  36  58  86 114 156 195 247 297 343
#     4  10  23  38  57  87 114 156 199 245 288 350
#
# _framework density 17.657809
#
# number of rings (size 3 to 8) (size 9 to 14) (size 15 to 20)
#    0.000    1.429    5.000    2.143    6.000    0.000 
#    0.000    0.714    0.000    0.000    0.000    0.000 
#    0.000    0.000    0.000    0.000    0.000    0.000 
#
# Total GULP energy -156086.348685 kJ/mol
# GULP energy per Si atom -5574.512453 kJ/mol
# Density = 1.761762 g / cm^3
# Si number density = 17.657809 Si / 1000 Ang^3
#
#
#
# Elastic Constant Matrix: (Units=GPa)
#
#
# Indices 1 2 3 4 5 6 
#
# 1 79.7813 10.6851 9.4799 0.0000 -2.2629 0.0000
# 2 10.6851 62.2785 36.1784 0.0000 -8.1981 0.0000
# 3 9.4799 36.1784 109.5611 0.0000 -9.0477 0.0000
# 4 0.0000 0.0000 0.0000 21.3316 0.0000 -19.4838
# 5 -2.2629 -8.1981 -9.0477 0.0000 20.8734 0.0000
# 6 0.0000 0.0000 0.0000 -19.4838 0.0000 12.7610
#
#
#
# Elastic Compliance Matrix: (Units=1/GPa)
#
#
# Indices 1 2 3 4 5 6 
#
# 1 0.012853 -0.001882 -0.000453 0.000000 0.000458 0.000000
# 2 -0.001882 0.020691 -0.006239 0.000000 0.005218 0.000000
# 3 -0.000453 -0.006239 0.011429 0.000000 0.002455 0.000000
# 4 0.000000 0.000000 0.000000 -0.118810 0.000000 -0.181403
# 5 0.000458 0.005218 0.002455 0.000000 0.051071 0.000000
# 6 0.000000 0.000000 0.000000 -0.181403 0.000000 -0.198607
#
#
# Mechanical properties :
#
#
# Convention : Reuss Voigt Hill
#
# Bulk Modulus (GPa) = 35.93689 40.47863 38.20776
# Shear Modulus (GPa) = -25.64748 24.01169 -0.81789
#
# Velocity S-wave (km/s) = -3.81527 3.69159 -0.68132
# Velocity P-wave (km/s) = 0.99382 6.41437 4.58976
#
# Compressibility (1/GPa) = 0.02782656
#
# Stress axis : x y z
#
# Youngs Moduli (GPa) = 77.80225 48.33078 87.49451
#
# Poissons Ratio (x) = 0.09095 0.03963
# Poissons Ratio (y) = 0.14641 0.54584
# Poissons Ratio (z) = 0.03524 0.30152
#
# Static dielectric constant tensor:
#      x y z
#    x 1.628450 0.000000 -0.003490 
#    y 0.000000 1.643880 0.000000 
#    z -0.003490 0.000000 1.608790 
# 
# From -- ./inp_files/82167.got.cif
#   From: 2010.05.17/outbox.cif.g08.bks.cpg/sg15_42_cif.got.tgz:82167.got - 2010.06.03 18:47:42.
