data_PCOD9256416
_publ_section_title
;
Structure prediction by ZEFSAII (Michael W. Deem and Ramdas Pophale) SiO2 
 PCOD9256416
Probable space group: C 2/C
;
_chemical_formula_sum "Si O2"
_cell_formula_units_Z 56
_cell_length_a 15.335128
_cell_length_b 13.757617
_cell_length_c 23.135531
_cell_angle_alpha 90.000000
_cell_angle_beta 33.669590
_cell_angle_gamma 90.000000
_cell_volume 2706.048000
_symmetry_space_group_name_H-M "C 2/C"
_symmetry_group_IT_number 15
_symmetry_cell_setting 'monoclinic'
loop_
_space_group_symop_operation_xyz
x,y,z
-x,y,1/2-z
-x,-y,-z
x,-y,1/2+z
1/2+x,1/2+y,z
1/2-x,1/2+y,1/2-z
1/2-x,1/2-y,-z
1/2+x,1/2-y,1/2+z
loop_
_atom_site_type_symbol
_atom_site_label
_atom_site_fract_x
_atom_site_fract_y
_atom_site_fract_z
Si Si1 0.759228 0.406324 0.529605
Si Si2 0.671442 0.298411 0.471539
Si Si3 0.352749 0.185632 0.288442
Si Si4 0.000000 0.633180 0.750000
Si Si5 0.467333 0.393812 0.489860
Si Si6 0.654066 0.390692 0.267381
Si Si7 0.438132 0.001389 0.672555
Si Si8 0.500000 0.487687 0.750000
O O1 0.659446 0.382292 0.526924
O O2 0.855725 0.306763 0.486520
O O3 0.643658 0.426318 0.645493
O O4 0.886868 0.489985 0.450020
O O5 0.851786 0.304779 0.351568
O O6 0.561622 0.320256 0.478960
O O7 0.500000 0.202190 0.250000
O O8 0.213398 0.137155 0.403172
O O9 0.307345 0.284985 0.280672
O O10 0.394995 0.106300 0.216231
O O11 0.054097 0.565431 0.773022
O O12 0.500000 0.500000 0.500000
O O13 0.539166 0.386033 0.386462
O O14 0.807898 0.449893 0.203408
O O15 0.564454 0.448057 0.266690
#
# Coordination Sequence:
#
# PCOD9256416 Si02
#       8
#     8   8   8   4   8   8   8   4
#     4  10  24  40  68  99 144 180 226 300 367 424
#     4  10  20  40  67 106 136 179 229 296 360 432
#     4  12  27  46  74 107 142 188 243 298 357 426
#     4  10  17  37  70 104 134 168 242 290 344 420
#     4  12  24  45  75 104 140 189 246 292 355 434
#     4  12  27  47  71 105 145 190 239 298 359 433
#     4  11  23  44  71 100 137 184 239 292 352 424
#     4  12  27  45  64 100 150 188 236 296 372 422
#
# _framework density 20.694385
#
# number of rings (size 3 to 8) (size 9 to 14) (size 15 to 20)
#    0.000    0.857    4.286    2.143    4.000    3.429 
#    0.000    0.000    0.000    0.000    0.000    0.000 
#    0.000    0.000    0.000    0.000    0.000    0.000 
#
# Total GULP energy -156589.205752 kJ/mol
# GULP energy per Si atom -5592.471634 kJ/mol
# Density = 2.064728 g / cm^3
# Si number density = 20.694385 Si / 1000 Ang^3
#
#
#
# Elastic Constant Matrix: (Units=GPa)
#
#
# Indices 1 2 3 4 5 6 
#
# 1 136.3099 21.8802 19.5884 -0.0001 -0.4660 0.0000
# 2 21.8802 70.9969 7.4456 -0.0004 -2.0639 0.0000
# 3 19.5884 7.4456 99.5103 -0.0016 20.6820 0.0001
# 4 -0.0001 -0.0004 -0.0016 16.2077 0.0003 -13.5450
# 5 -0.4660 -2.0639 20.6820 0.0003 27.1576 0.0001
# 6 0.0000 0.0000 0.0001 -13.5450 0.0001 -1.0072
#
#
#
# Elastic Compliance Matrix: (Units=1/GPa)
#
#
# Indices 1 2 3 4 5 6 
#
# 1 0.007936 -0.002237 -0.001649 0.000000 0.001222 0.000000
# 2 -0.002237 0.014943 -0.001076 0.000000 0.001917 0.000000
# 3 -0.001649 -0.001076 0.012447 0.000000 -0.009589 -0.000001
# 4 0.000000 0.000000 0.000000 0.005041 0.000000 -0.067795
# 5 0.001222 0.001917 -0.009589 0.000000 0.044292 0.000002
# 6 0.000000 0.000000 -0.000001 -0.067795 0.000002 -0.081123
#
#
# Mechanical properties :
#
#
# Convention : Reuss Voigt Hill
#
# Bulk Modulus (GPa) = 39.36624 44.96061 42.16343
# Shear Modulus (GPa) = 228.00618 25.66515 126.83567
#
# Velocity S-wave (km/s) = 10.50795 3.52547 7.83728
# Velocity P-wave (km/s) = 12.89522 6.19234 10.11513
#
# Compressibility (1/GPa) = 0.02540248
#
# Stress axis : x y z
#
# Youngs Moduli (GPa) = 126.00019 66.91994 80.33859
#
# Poissons Ratio (x) = 0.14973 0.13246
# Poissons Ratio (y) = 0.28192 0.08644
# Poissons Ratio (z) = 0.20775 0.07201
#
# Static dielectric constant tensor:
#      x y z
#    x 1.727090 0.000000 0.016190 
#    y 0.000000 1.743660 0.000000 
#    z 0.016190 0.000000 1.800870 
# 
# From -- ./inp_files/274497.got.cif
#   From: 2010.05.17/outbox.cif.g08.bks.cpg/sg15_138_cif.got.tgz:274497.got - 2010.06.03 18:47:42.
