data_PCOD9256649
_publ_section_title
;
Structure prediction by ZEFSAII (Michael W. Deem and Ramdas Pophale) SiO2 
 PCOD9256649
Probable space group: C 2/C
;
_chemical_formula_sum "Si O2"
_cell_formula_units_Z 60
_cell_length_a 22.002630
_cell_length_b 6.997417
_cell_length_c 19.385751
_cell_angle_alpha 90.000000
_cell_angle_beta 61.641485
_cell_angle_gamma 90.000000
_cell_volume 2626.479769
_symmetry_space_group_name_H-M "C 2/C"
_symmetry_group_IT_number 15
_symmetry_cell_setting 'monoclinic'
loop_
_space_group_symop_operation_xyz
x,y,z
-x,y,1/2-z
-x,-y,-z
x,-y,1/2+z
1/2+x,1/2+y,z
1/2-x,1/2+y,1/2-z
1/2-x,1/2-y,-z
1/2+x,1/2-y,1/2+z
loop_
_atom_site_type_symbol
_atom_site_label
_atom_site_fract_x
_atom_site_fract_y
_atom_site_fract_z
Si Si1 0.500000 0.500000 0.500000
Si Si2 0.624132 0.277075 0.377033
Si Si3 0.256748 0.394597 0.092349
Si Si4 0.017209 0.713404 0.906098
Si Si5 0.662188 0.799421 0.259232
Si Si6 0.735947 0.950857 0.459501
Si Si7 0.210133 0.866383 0.210678
Si Si8 0.412325 0.918732 0.007152
O O1 0.555914 0.399402 0.415570
O O2 0.535913 0.383670 0.551882
O O3 0.681338 0.403896 0.386287
O O4 0.657543 0.239834 0.284151
O O5 0.608712 0.078748 0.424423
O O6 0.187765 0.405980 0.176133
O O7 0.263018 0.175013 0.063397
O O8 0.260490 0.532216 0.024747
O O9 0.081206 0.697114 0.821128
O O10 0.052957 0.749934 0.965365
O O11 0.972883 0.520502 0.931759
O O12 0.714543 0.851047 0.293844
O O13 0.681019 0.578425 0.236327
O O14 0.656514 0.881926 0.497120
O O15 0.779267 0.846021 0.376462
#
# Coordination Sequence:
#
# PCOD9256649 Si02
#       8
#     4   8   8   8   8   8   8   8
#     4  10  18  30  50  70 104 124 164 210 254 302
#     4   9  17  30  47  76  96 129 162 214 253 300
#     4   8  17  28  47  69 104 126 163 209 258 289
#     4  10  18  30  47  74  99 129 165 213 249 306
#     4  10  18  30  47  75  99 128 167 218 250 305
#     4   9  15  30  47  70  97 135 161 210 249 306
#     4  10  18  28  50  72  98 128 170 209 262 295
#     4   9  18  30  48  70 100 130 168 201 262 300
#
# _framework density 22.844263999999999
#
# number of rings (size 3 to 8) (size 9 to 14) (size 15 to 20)
#    0.000    2.667    2.667    0.800    0.000    0.000 
#    0.000    0.667    0.000    8.000    0.000    0.000 
#    0.000    0.000    0.000    0.000    0.000    0.000 
#
# Total GULP energy -167023.315703 kJ/mol
# GULP energy per Si atom -5567.443857 kJ/mol
# Density = 2.279227 g / cm^3
# Si number density = 22.844264 Si / 1000 Ang^3
#
#
#
# Elastic Constant Matrix: (Units=GPa)
#
#
# Indices 1 2 3 4 5 6 
#
# 1 43.6192 21.2210 48.7677 -0.0005 -14.0042 -0.0006
# 2 21.2210 64.3022 38.4734 -0.0002 -3.7420 -0.0015
# 3 48.7677 38.4734 162.5016 -0.0002 -22.7663 -0.0002
# 4 -0.0005 -0.0002 -0.0002 48.5072 -0.0001 -3.0377
# 5 -14.0042 -3.7420 -22.7663 -0.0001 44.0762 -0.0002
# 6 -0.0006 -0.0015 -0.0002 -3.0377 -0.0002 25.8574
#
#
#
# Elastic Compliance Matrix: (Units=1/GPa)
#
#
# Indices 1 2 3 4 5 6 
#
# 1 0.038573 -0.006972 -0.008938 0.000000 0.007047 0.000001
# 2 -0.006972 0.019400 -0.002782 0.000000 -0.002005 0.000001
# 3 -0.008938 -0.002782 0.009771 0.000000 0.001971 0.000000
# 4 0.000000 0.000000 0.000000 0.020768 0.000000 0.002440
# 5 0.007047 -0.002005 0.001971 0.000000 0.025775 0.000000
# 6 0.000001 0.000001 0.000000 0.002440 0.000000 0.038960
#
#
# Mechanical properties :
#
#
# Convention : Reuss Voigt Hill
#
# Bulk Modulus (GPa) = 32.93729 54.14968 43.54349
# Shear Modulus (GPa) = 24.90646 34.48555 29.69600
#
# Velocity S-wave (km/s) = 3.30551 3.88956 3.60937
# Velocity P-wave (km/s) = 5.38684 6.62774 6.03924
#
# Compressibility (1/GPa) = 0.03036072
#
# Stress axis : x y z
#
# Youngs Moduli (GPa) = 25.92476 51.54612 102.34513
#
# Poissons Ratio (x) = 0.35938 0.91477
# Poissons Ratio (y) = 0.18075 0.28469
# Poissons Ratio (z) = 0.23172 0.14339
#
# Static dielectric constant tensor:
#      x y z
#    x 2.223600 0.000090 -0.319030 
#    y 0.000090 3.715990 -0.000080 
#    z -0.319030 -0.000080 2.171740 
# 
# From -- ./inp_files/218606.got.cif
#   From: 2010.05.17/outbox.cif.g08.bks.cpg/sg15_110_cif.got.tgz:218606.got - 2010.06.03 18:47:42.
