data_PCOD9256852
_publ_section_title
;
Structure prediction by ZEFSAII (Michael W. Deem and Ramdas Pophale) SiO2 
 PCOD9256852
Probable space group: C 2/C
;
_chemical_formula_sum "Si O2"
_cell_formula_units_Z 36
_cell_length_a 28.384102
_cell_length_b 11.429766
_cell_length_c 5.629704
_cell_angle_alpha 90.000000
_cell_angle_beta 133.881499
_cell_angle_gamma 90.000000
_cell_volume 1316.429965
_symmetry_space_group_name_H-M "C 2/C"
_symmetry_group_IT_number 15
_symmetry_cell_setting 'monoclinic'
loop_
_space_group_symop_operation_xyz
x,y,z
-x,y,1/2-z
-x,-y,-z
x,-y,1/2+z
1/2+x,1/2+y,z
1/2-x,1/2+y,1/2-z
1/2-x,1/2-y,-z
1/2+x,1/2-y,1/2+z
loop_
_atom_site_type_symbol
_atom_site_label
_atom_site_fract_x
_atom_site_fract_y
_atom_site_fract_z
Si Si1 0.640254 0.176819 0.152939
Si Si2 0.321202 0.804420 0.201406
Si Si3 0.500000 0.223363 0.750000
Si Si4 0.432515 0.612798 0.635677
Si Si5 0.318660 0.447760 0.245498
O O1 0.656385 0.134809 0.475994
O O2 0.671547 0.310452 0.272352
O O3 0.674806 0.129756 0.036508
O O4 0.561681 0.159877 0.843843
O O5 0.375882 0.701778 0.346101
O O6 0.250000 0.750000 0.000000
O O7 0.460413 0.307443 0.440782
O O8 0.500000 0.580688 0.750000
O O9 0.392374 0.496647 0.544512
O O10 0.291335 0.489407 0.408514
#
# Coordination Sequence:
#
# PCOD9256852 Si02
#       5
#     8   8   4   8   8
#     4  11  21  34  47  73  93 132 168 202 244 287
#     4  11  22  36  49  63  92 135 178 209 233 279
#     4  10  18  30  44  68 100 122 164 202 234 284
#     4  11  21  32  48  71 103 129 172 195 248 281
#     4  12  20  31  46  69 101 125 158 202 236 288
#
# _framework density 27.346689000000001
#
# number of rings (size 3 to 8) (size 9 to 14) (size 15 to 20)
#    0.000    0.889    8.889    0.667    1.556    1.778 
#    0.000    0.000    0.000    0.000    0.000    0.000 
#    0.000    0.000    0.000    8.000    0.000   11.111 
#
# Total GULP energy -100459.382924 kJ/mol
# GULP energy per Si atom -5581.076829 kJ/mol
# Density = 2.728445 g / cm^3
# Si number density = 27.346689 Si / 1000 Ang^3
#
#
#
# Elastic Constant Matrix: (Units=GPa)
#
#
# Indices 1 2 3 4 5 6 
#
# 1 191.0388 34.1080 143.5771 0.0000 -1.3586 0.0000
# 2 34.1080 86.5996 4.6676 0.0000 22.5368 0.0000
# 3 143.5771 4.6676 1.3210 0.0000 2.2540 0.0000
# 4 0.0000 0.0000 0.0000 -3.8903 0.0000 40.7788
# 5 -1.3586 22.5368 2.2540 0.0000 85.6686 0.0000
# 6 0.0000 0.0000 0.0000 40.7788 0.0000 11.0065
#
#
#
# Elastic Compliance Matrix: (Units=1/GPa)
#
#
# Indices 1 2 3 4 5 6 
#
# 1 -0.000053 -0.000337 0.007114 0.000000 -0.000099 0.000000
# 2 -0.000337 0.012671 -0.002593 0.000000 -0.003270 0.000000
# 3 0.007114 -0.002593 -0.008840 0.000000 0.001028 0.000000
# 4 0.000000 0.000000 0.000000 -0.006453 0.000000 0.023907
# 5 -0.000099 -0.003270 0.001028 0.000000 0.012505 0.000000
# 6 0.000000 0.000000 0.000000 0.023907 0.000000 0.002281
#
#
# Mechanical properties :
#
#
# Convention : Reuss Voigt Hill
#
# Bulk Modulus (GPa) = 82.32601 71.51831 76.92216
# Shear Modulus (GPa) = 641.87006 24.99741 333.43374
#
# Velocity S-wave (km/s) = 15.33706 3.02668 11.05410
# Velocity P-wave (km/s) = 18.54195 6.19868 13.82439
#
# Compressibility (1/GPa) = 0.01214683
#
# Stress axis : x y z
#
# Youngs Moduli (GPa) = -18885.22286 78.92111 -113.11617
#
# Poissons Ratio (x) = 0.02657 0.80475
# Poissons Ratio (y) = -6.35904 -0.29331
# Poissons Ratio (z) = 134.35712 0.20464
#
# Static dielectric constant tensor:
#      x y z
#    x 2.507310 0.000000 -0.109620 
#    y 0.000000 2.204550 0.000000 
#    z -0.109620 0.000000 2.262350 
# 
# From -- ./inp_files/12714.got.cif
#   From: 2010.05.17/outbox.cif.g08.bks.cpg/sg15_7_cif.got.tgz:12714.got - 2010.06.03 18:47:42.
