data_PCOD9256108
_publ_section_title
;
Structure prediction by ZEFSAII (Michael W. Deem and Ramdas Pophale) SiO2 
 PCOD9256108
Probable space group: C 2/C
;
_chemical_formula_sum "Si O2"
_cell_formula_units_Z 56
_cell_length_a 6.352952
_cell_length_b 24.063924
_cell_length_c 26.654638
_cell_angle_alpha 90.000000
_cell_angle_beta 133.552496
_cell_angle_gamma 90.000000
_cell_volume 2953.242197
_symmetry_space_group_name_H-M "C 2/C"
_symmetry_group_IT_number 15
_symmetry_cell_setting 'monoclinic'
loop_
_space_group_symop_operation_xyz
x,y,z
-x,y,1/2-z
-x,-y,-z
x,-y,1/2+z
1/2+x,1/2+y,z
1/2-x,1/2+y,1/2-z
1/2-x,1/2-y,-z
1/2+x,1/2-y,1/2+z
loop_
_atom_site_type_symbol
_atom_site_label
_atom_site_fract_x
_atom_site_fract_y
_atom_site_fract_z
Si Si1 0.758799 0.627970 0.010407
Si Si2 0.582609 0.104123 0.320968
Si Si3 0.189752 0.563827 0.943585
Si Si4 0.463876 0.174890 0.948847
Si Si5 0.628761 0.299361 0.584367
Si Si6 0.204921 0.050090 0.426753
Si Si7 0.759195 0.486921 0.827879
O O1 0.740372 0.675309 0.049660
O O2 0.057886 0.594299 0.054329
O O3 0.509667 0.583446 0.981085
O O4 0.732576 0.657817 0.952843
O O5 0.500000 0.093942 0.250000
O O6 0.658625 0.168618 0.342730
O O7 0.355724 0.072775 0.320236
O O8 0.893253 0.077344 0.383942
O O9 0.013995 0.621510 0.922125
O O10 0.043441 0.525397 0.878045
O O11 0.197342 0.534814 0.000346
O O12 0.370777 0.233292 0.910471
O O13 0.783585 0.184868 0.027183
O O14 0.162835 0.012624 0.370469
O O15 0.500000 0.507371 0.750000
#
# Coordination Sequence:
#
# PCOD9256108 Si02
#       7
#     8   8   8   8   8   8   8
#     4  10  17  34  59  89 116 146 190 244 292 352
#     4  12  23  38  58  89 118 153 202 243 306 361
#     4  10  22  38  59  90 115 155 201 245 293 360
#     4   9  19  34  58  87 118 147 192 240 296 342
#     4  10  18  35  57  87 117 149 190 244 294 353
#     4  11  20  39  58  86 119 152 194 246 297 353
#     4  12  25  40  59  83 119 161 197 249 307 359
#
# _framework density 18.962209999999999
#
# number of rings (size 3 to 8) (size 9 to 14) (size 15 to 20)
#    0.000    1.429    7.143    0.857    0.000    4.571 
#    0.000    0.714    0.000    0.000    3.714    0.000 
#    0.000    0.000    0.000    0.000    0.000    0.000 
#
# Total GULP energy -155985.849044 kJ/mol
# GULP energy per Si atom -5570.923180 kJ/mol
# Density = 1.891905 g / cm^3
# Si number density = 18.962210 Si / 1000 Ang^3
#
#
#
# Elastic Constant Matrix: (Units=GPa)
#
#
# Indices 1 2 3 4 5 6 
#
# 1 77.0853 14.2154 20.5220 0.0000 0.0841 0.0000
# 2 14.2154 85.6210 33.8710 0.0000 -9.9619 0.0000
# 3 20.5220 33.8710 103.3911 0.0000 -13.2079 0.0000
# 4 0.0000 0.0000 0.0000 25.7452 0.0000 -0.6400
# 5 0.0841 -9.9619 -13.2079 0.0000 20.5228 0.0000
# 6 0.0000 0.0000 0.0000 -0.6400 0.0000 18.5612
#
#
#
# Elastic Compliance Matrix: (Units=1/GPa)
#
#
# Indices 1 2 3 4 5 6 
#
# 1 0.013951 -0.001590 -0.002565 0.000000 -0.002480 0.000000
# 2 -0.001590 0.013910 -0.003681 0.000000 0.004390 0.000000
# 3 -0.002565 -0.003681 0.012160 0.000000 0.006050 0.000000
# 4 0.000000 0.000000 0.000000 0.038875 0.000000 0.001340
# 5 -0.002480 0.004390 0.006050 0.000000 0.054761 0.000000
# 6 0.000000 0.000000 0.000000 0.001340 0.000000 0.053922
#
#
# Mechanical properties :
#
#
# Convention : Reuss Voigt Hill
#
# Bulk Modulus (GPa) = 41.06808 44.81269 42.94039
# Shear Modulus (GPa) = 23.65545 26.13177 24.89361
#
# Velocity S-wave (km/s) = 3.53584 3.71630 3.62719
# Velocity P-wave (km/s) = 6.19471 6.48833 6.34322
#
# Compressibility (1/GPa) = 0.02434981
#
# Stress axis : x y z
#
# Youngs Moduli (GPa) = 71.67702 71.89001 82.23870
#
# Poissons Ratio (x) = 0.11431 0.21095
# Poissons Ratio (y) = 0.11398 0.30268
# Poissons Ratio (z) = 0.18386 0.26460
#
# Static dielectric constant tensor:
#      x y z
#    x 1.701690 0.000000 -0.003340 
#    y 0.000000 1.726580 0.000000 
#    z -0.003340 0.000000 1.658590 
# 
# From -- ./inp_files/286767.got.cif
#   From: 2010.05.17/outbox.cif.g08.bks.cpg/sg15_144_cif.got.tgz:286767.got - 2010.06.03 18:47:42.
