data_PCOD9256173
_publ_section_title
;
Structure prediction by ZEFSAII (Michael W. Deem and Ramdas Pophale) SiO2 
 PCOD9256173
Probable space group: C 2/C
;
_chemical_formula_sum "Si O2"
_cell_formula_units_Z 44
_cell_length_a 20.278270
_cell_length_b 8.664184
_cell_length_c 21.566908
_cell_angle_alpha 90.000000
_cell_angle_beta 156.475900
_cell_angle_gamma 90.000000
_cell_volume 1512.397733
_symmetry_space_group_name_H-M "C 2/C"
_symmetry_group_IT_number 15
_symmetry_cell_setting 'monoclinic'
loop_
_space_group_symop_operation_xyz
x,y,z
-x,y,1/2-z
-x,-y,-z
x,-y,1/2+z
1/2+x,1/2+y,z
1/2-x,1/2+y,1/2-z
1/2-x,1/2-y,-z
1/2+x,1/2-y,1/2+z
loop_
_atom_site_type_symbol
_atom_site_label
_atom_site_fract_x
_atom_site_fract_y
_atom_site_fract_z
Si Si1 0.000000 0.746998 0.750000
Si Si2 0.238136 0.531353 0.605105
Si Si3 0.421184 0.277202 0.499219
Si Si4 0.729863 0.925983 0.243715
Si Si5 0.092724 0.545801 0.245917
Si Si6 0.392928 0.480141 0.078920
O O1 0.942973 0.625069 0.753916
O O2 0.875107 0.875407 0.611598
O O3 0.206102 0.345782 0.581112
O O4 0.210143 0.556627 0.654369
O O5 0.424119 0.589761 0.749685
O O6 0.092083 0.595516 0.434913
O O7 0.591211 0.193293 0.644256
O O8 0.392045 0.338485 0.404965
O O9 0.430827 0.426671 0.548950
O O10 0.688447 0.053411 0.261392
O O11 0.222568 0.603622 0.411315
#
# Coordination Sequence:
#
# PCOD9256173 Si02
#       6
#     4   8   8   8   8   8
#     4  12  20  34  56  82 122 154 184 220 278 364
#     4  11  21  37  53  75 116 152 193 233 270 336
#     4  10  17  35  50  77 107 147 187 223 283 325
#     4  10  20  35  54  77 112 151 191 232 276 338
#     4  10  22  31  50  78 106 155 183 215 276 326
#     4  11  21  33  52  80 112 156 181 217 276 338
#
# _framework density 29.092876
#
# number of rings (size 3 to 8) (size 9 to 14) (size 15 to 20)
#    0.000    1.455    5.455    3.818    2.545    2.909 
#    3.273    0.000    0.000    0.000    0.000    0.000 
#    0.000   13.091    0.000    0.000    0.000    0.000 
#
# Total GULP energy -122601.637839 kJ/mol
# GULP energy per Si atom -5572.801720 kJ/mol
# Density = 2.902666 g / cm^3
# Si number density = 29.092876 Si / 1000 Ang^3
#
#
#
# Elastic Constant Matrix: (Units=GPa)
#
#
# Indices 1 2 3 4 5 6 
#
# 1 146.9273 19.2120 47.3507 0.0001 -24.5830 0.0000
# 2 19.2120 62.6371 58.4133 0.0008 0.5169 0.0005
# 3 47.3507 58.4133 252.8658 0.0008 -7.1225 0.0004
# 4 0.0001 0.0008 0.0008 58.0709 0.0002 -3.2690
# 5 -24.5830 0.5169 -7.1225 0.0002 39.4039 0.0001
# 6 0.0000 0.0005 0.0004 -3.2690 0.0001 28.9002
#
#
#
# Elastic Compliance Matrix: (Units=1/GPa)
#
#
# Indices 1 2 3 4 5 6 
#
# 1 0.008169 -0.001592 -0.001023 0.000000 0.004933 0.000000
# 2 -0.001592 0.020709 -0.004544 0.000000 -0.002087 0.000000
# 3 -0.001023 -0.004544 0.005206 0.000000 0.000362 0.000000
# 4 0.000000 0.000000 0.000000 0.017331 0.000000 0.001960
# 5 0.004933 -0.002087 0.000362 0.000000 0.028548 0.000000
# 6 0.000000 0.000000 0.000000 0.001960 0.000000 0.034824
#
#
# Mechanical properties :
#
#
# Convention : Reuss Voigt Hill
#
# Bulk Modulus (GPa) = 50.59558 79.15356 64.87457
# Shear Modulus (GPa) = 36.84754 47.77194 42.30974
#
# Velocity S-wave (km/s) = 3.56272 4.05662 3.81766
# Velocity P-wave (km/s) = 5.86112 7.01483 6.46377
#
# Compressibility (1/GPa) = 0.01976457
#
# Stress axis : x y z
#
# Youngs Moduli (GPa) = 122.41007 48.28926 192.07860
#
# Poissons Ratio (x) = 0.07690 0.19649
# Poissons Ratio (y) = 0.19493 0.87287
# Poissons Ratio (z) = 0.12522 0.21944
#
# Static dielectric constant tensor:
#      x y z
#    x 2.434120 0.000000 0.122280 
#    y 0.000000 2.359230 0.000000 
#    z 0.122280 0.000000 2.448070 
# 
# From -- ./inp_files/47163.got.cif
#   From: 2010.05.17/outbox.cif.g08.bks.cpg/sg15_24_cif.got.tgz:47163.got - 2010.06.03 18:47:42.
