data_PCOD9256221
_publ_section_title
;
Structure prediction by ZEFSAII (Michael W. Deem and Ramdas Pophale) SiO2 
 PCOD9256221
Probable space group: C 2/C
;
_chemical_formula_sum "Si O2"
_cell_formula_units_Z 60
_cell_length_a 8.568227
_cell_length_b 26.102921
_cell_length_c 19.364707
_cell_angle_alpha 90.000000
_cell_angle_beta 40.532116
_cell_angle_gamma 90.000000
_cell_volume 2814.623331
_symmetry_space_group_name_H-M "C 2/C"
_symmetry_group_IT_number 15
_symmetry_cell_setting 'monoclinic'
loop_
_space_group_symop_operation_xyz
x,y,z
-x,y,1/2-z
-x,-y,-z
x,-y,1/2+z
1/2+x,1/2+y,z
1/2-x,1/2+y,1/2-z
1/2-x,1/2-y,-z
1/2+x,1/2-y,1/2+z
loop_
_atom_site_type_symbol
_atom_site_label
_atom_site_fract_x
_atom_site_fract_y
_atom_site_fract_z
Si Si1 0.500000 0.988336 0.250000
Si Si2 0.077329 0.165041 0.643006
Si Si3 0.847529 0.050019 0.871415
Si Si4 0.451968 0.818315 0.451590
Si Si5 0.947406 0.148360 0.188048
Si Si6 0.462869 0.544940 0.103615
Si Si7 0.466746 0.071615 0.893906
Si Si8 0.668964 0.244581 0.760108
O O1 0.422895 0.954420 0.210558
O O2 0.722769 0.022848 0.151323
O O3 0.093261 0.105561 0.614451
O O4 0.351375 0.184788 0.553578
O O5 0.000000 0.163991 0.750000
O O6 0.889364 0.205241 0.674735
O O7 0.578712 0.051283 0.928690
O O8 0.000000 0.047377 0.750000
O O9 0.917753 0.001533 0.893128
O O10 0.512761 0.868390 0.384515
O O11 0.509110 0.773264 0.379415
O O12 0.192480 0.830322 0.570149
O O13 0.886672 0.094539 0.173487
O O14 0.763320 0.196112 0.248071
O O15 0.000000 0.137137 0.250000
O O16 0.682184 0.563557 0.983206
O O17 0.500000 0.244318 0.750000
#
# Coordination Sequence:
#
# PCOD9256221 Si02
#       8
#     4   8   8   8   8   8   8   8
#     4  12  24  38  56  88 128 150 190 238 302 352
#     4   8  17  33  56  90 115 139 193 249 289 333
#     4  10  17  35  60  87 110 150 199 239 283 332
#     4   9  19  38  63  86 114 149 200 245 291 340
#     4  10  22  40  60  82 116 163 203 233 282 355
#     4  11  23  39  59  83 122 160 194 235 293 356
#     4  10  22  37  61  89 117 152 194 244 291 351
#     4  10  20  35  60  90 117 147 192 244 302 343
#
# _framework density 21.317240000000002
#
# number of rings (size 3 to 8) (size 9 to 14) (size 15 to 20)
#    0.000    2.133    1.333    2.400    0.933    0.000 
#    3.600    2.667    0.000    0.000    0.000    0.000 
#    0.000    0.000    0.000    0.000    0.000    0.000 
#
# Total GULP energy -167217.605775 kJ/mol
# GULP energy per Si atom -5573.920193 kJ/mol
# Density = 2.126872 g / cm^3
# Si number density = 21.317240 Si / 1000 Ang^3
#
#
#
# Elastic Constant Matrix: (Units=GPa)
#
#
# Indices 1 2 3 4 5 6 
#
# 1 57.1583 50.8346 4.8839 0.0000 -15.3349 0.0000
# 2 50.8346 137.3916 3.5682 0.0000 0.4863 0.0000
# 3 4.8839 3.5682 26.4747 0.0000 -12.3359 -0.0001
# 4 0.0000 0.0000 0.0000 18.1353 0.0000 5.3234
# 5 -15.3349 0.4863 -12.3359 0.0000 30.4648 0.0000
# 6 0.0000 0.0000 -0.0001 5.3234 0.0000 6.9034
#
#
#
# Elastic Compliance Matrix: (Units=1/GPa)
#
#
# Indices 1 2 3 4 5 6 
#
# 1 0.033222 -0.012468 0.004236 0.000000 0.018637 0.000000
# 2 -0.012468 0.011993 -0.002872 0.000000 -0.007630 0.000000
# 3 0.004236 -0.002872 0.047321 0.000000 0.021339 0.000001
# 4 0.000000 0.000000 0.000000 0.071275 0.000000 -0.054962
# 5 0.018637 -0.007630 0.021339 0.000000 0.050969 0.000000
# 6 0.000000 0.000000 0.000001 -0.054962 0.000000 0.187239
#
#
# Mechanical properties :
#
#
# Convention : Reuss Voigt Hill
#
# Bulk Modulus (GPa) = 14.21909 37.73313 25.97611
# Shear Modulus (GPa) = 11.16896 21.88323 16.52610
#
# Velocity S-wave (km/s) = 2.29146 3.20746 2.78734
# Velocity P-wave (km/s) = 3.69943 5.60859 4.75089
#
# Compressibility (1/GPa) = 0.07032797
#
# Stress axis : x y z
#
# Youngs Moduli (GPa) = 30.10046 83.38045 21.13239
#
# Poissons Ratio (x) = 1.03959 -0.08951
# Poissons Ratio (y) = 0.37529 0.06069
# Poissons Ratio (z) = -0.12750 0.23945
#
# Static dielectric constant tensor:
#      x y z
#    x 1.787300 0.000000 -0.050520 
#    y 0.000000 1.799730 0.000000 
#    z -0.050520 0.000000 1.820900 
# 
# From -- ./inp_files/234561.got.cif
#   From: 2010.05.17/outbox.cif.g08.bks.cpg/sg15_118_cif.got.tgz:234561.got - 2010.06.03 18:47:42.
