data_PCOD9256487
_publ_section_title
;
Structure prediction by ZEFSAII (Michael W. Deem and Ramdas Pophale) SiO2 
 PCOD9256487
Probable space group: C 2/C
;
_chemical_formula_sum "Si O2"
_cell_formula_units_Z 52
_cell_length_a 7.172397
_cell_length_b 18.192149
_cell_length_c 15.257544
_cell_angle_alpha 90.000000
_cell_angle_beta 89.768358
_cell_angle_gamma 90.000000
_cell_volume 1990.808133
_symmetry_space_group_name_H-M "C 2/C"
_symmetry_group_IT_number 15
_symmetry_cell_setting 'monoclinic'
loop_
_space_group_symop_operation_xyz
x,y,z
-x,y,1/2-z
-x,-y,-z
x,-y,1/2+z
1/2+x,1/2+y,z
1/2-x,1/2+y,1/2-z
1/2-x,1/2-y,-z
1/2+x,1/2-y,1/2+z
loop_
_atom_site_type_symbol
_atom_site_label
_atom_site_fract_x
_atom_site_fract_y
_atom_site_fract_z
Si Si1 0.295661 0.294786 0.412845
Si Si2 0.684836 0.754190 0.769537
Si Si3 0.322626 0.496518 0.118842
Si Si4 0.500000 0.413531 0.750000
Si Si5 0.204029 0.619703 0.384801
Si Si6 0.746428 0.958314 0.429569
Si Si7 0.763839 0.162486 0.581455
O O1 0.250000 0.250000 0.500000
O O2 0.239112 0.245486 0.328344
O O3 0.199744 0.375437 0.402935
O O4 0.515985 0.315860 0.424198
O O5 0.500000 0.704386 0.750000
O O6 0.602334 0.825586 0.819455
O O7 0.808679 0.717684 0.844576
O O8 0.331578 0.539474 0.209017
O O9 0.539351 0.475905 0.097994
O O10 0.228969 0.417904 0.121121
O O11 0.248133 0.540117 0.035334
O O12 0.593292 0.376863 0.665041
O O13 0.149331 0.533907 0.396433
O O14 0.200719 0.655611 0.481165
#
# Coordination Sequence:
#
# PCOD9256487 Si02
#       7
#     8   8   8   4   8   8   8
#     4  10  20  32  53  80 111 133 171 221 268 309
#     4  10  22  35  53  75 102 148 180 207 257 315
#     4   8  15  26  48  75 104 127 159 211 271 312
#     4  10  18  24  52  84 108 122 164 220 272 308
#     4  10  20  33  54  77 106 137 176 218 259 314
#     4   8  16  31  46  73 105 133 161 211 267 306
#     4   9  19  35  52  74 107 141 173 215 265 320
#
# _framework density 26.120044
#
# number of rings (size 3 to 8) (size 9 to 14) (size 15 to 20)
#    0.000    2.769    0.000    3.231   11.846    0.000 
#    0.000    0.000    0.000    5.538    0.000    0.000 
#    0.000    0.000    0.000    0.000    0.000    0.000 
#
# Total GULP energy -144920.688049 kJ/mol
# GULP energy per Si atom -5573.872617 kJ/mol
# Density = 2.606059 g / cm^3
# Si number density = 26.120044 Si / 1000 Ang^3
#
#
#
# Elastic Constant Matrix: (Units=GPa)
#
#
# Indices 1 2 3 4 5 6 
#
# 1 60.0926 10.6986 7.3417 0.0000 -9.0154 0.0000
# 2 10.6986 146.3795 87.8278 0.0000 15.4898 0.0000
# 3 7.3417 87.8278 216.5599 0.0000 6.9356 0.0000
# 4 0.0000 0.0000 0.0000 -14.1447 0.0000 -3.5481
# 5 -9.0154 15.4898 6.9356 0.0000 18.4147 0.0000
# 6 0.0000 0.0000 0.0000 -3.5481 0.0000 20.6735
#
#
#
# Elastic Compliance Matrix: (Units=1/GPa)
#
#
# Indices 1 2 3 4 5 6 
#
# 1 0.018807 -0.002614 0.000058 0.000000 0.011385 0.000000
# 2 -0.002614 0.010174 -0.003768 0.000000 -0.008419 0.000000
# 3 0.000058 -0.003768 0.006115 0.000000 0.000895 0.000000
# 4 0.000000 0.000000 0.000000 -0.067780 0.000000 -0.011633
# 5 0.011385 -0.008419 0.000895 0.000000 0.066623 0.000000
# 6 0.000000 0.000000 0.000000 -0.011633 0.000000 0.046375
#
#
# Mechanical properties :
#
#
# Convention : Reuss Voigt Hill
#
# Bulk Modulus (GPa) = 44.54643 70.52981 57.53812
# Shear Modulus (GPa) = 49.77832 26.13297 37.95564
#
# Velocity S-wave (km/s) = 4.37023 3.16649 3.81612
# Velocity P-wave (km/s) = 6.52355 6.35843 6.44152
#
# Compressibility (1/GPa) = 0.02244849
#
# Stress axis : x y z
#
# Youngs Moduli (GPa) = 53.17091 98.28661 163.52683
#
# Poissons Ratio (x) = 0.25693 -0.00948
# Poissons Ratio (y) = 0.13899 0.61618
# Poissons Ratio (z) = -0.00308 0.37035
#
# Static dielectric constant tensor:
#      x y z
#    x 2.963920 0.000000 0.432800 
#    y 0.000000 2.247000 0.000000 
#    z 0.432800 0.000000 2.351670 
# 
# From -- ./inp_files/145084.got.cif
#   From: 2010.05.17/outbox.cif.g08.bks.cpg/sg15_73_cif.got.tgz:145084.got - 2010.06.03 18:47:42.
