data_PCOD9256581
_publ_section_title
;
Structure prediction by ZEFSAII (Michael W. Deem and Ramdas Pophale) SiO2 
 PCOD9256581
Probable space group: C 2/C
;
_chemical_formula_sum "Si O2"
_cell_formula_units_Z 64
_cell_length_a 7.656290
_cell_length_b 23.120845
_cell_length_c 19.986428
_cell_angle_alpha 90.000000
_cell_angle_beta 41.891424
_cell_angle_gamma 90.000000
_cell_volume 2362.394303
_symmetry_space_group_name_H-M "C 2/C"
_symmetry_group_IT_number 15
_symmetry_cell_setting 'monoclinic'
loop_
_space_group_symop_operation_xyz
x,y,z
-x,y,1/2-z
-x,-y,-z
x,-y,1/2+z
1/2+x,1/2+y,z
1/2-x,1/2+y,1/2-z
1/2-x,1/2-y,-z
1/2+x,1/2-y,1/2+z
loop_
_atom_site_type_symbol
_atom_site_label
_atom_site_fract_x
_atom_site_fract_y
_atom_site_fract_z
Si Si1 0.315363 0.493704 0.239336
Si Si2 0.506378 0.593933 0.591663
Si Si3 0.987206 0.630759 0.965367
Si Si4 0.871229 0.507342 0.961235
Si Si5 0.468720 0.299119 0.506352
Si Si6 0.533924 0.610912 0.311277
Si Si7 0.186524 0.262110 0.326355
Si Si8 0.853747 0.716933 0.152486
O O1 0.500000 0.473401 0.250000
O O2 0.296544 0.435647 0.200284
O O3 0.392993 0.551270 0.172247
O O4 0.052953 0.513103 0.349529
O O5 0.744170 0.619860 0.570102
O O6 0.632762 0.536032 0.525050
O O7 0.447441 0.641696 0.552932
O O8 0.047674 0.683521 0.899629
O O9 0.887286 0.576057 0.951823
O O10 0.749425 0.634688 0.086859
O O11 0.000000 0.500000 0.000000
O O12 0.443312 0.291124 0.593807
O O13 0.633768 0.247920 0.424126
O O14 0.162330 0.291422 0.575332
O O15 0.500000 0.579442 0.250000
O O16 0.727175 0.661542 0.230194
O O17 0.500000 0.261660 0.250000
O O18 0.203777 0.263310 0.241893
#
# Coordination Sequence:
#
# PCOD9256581 Si02
#       8
#     8   8   8   8   8   8   8   8
#     4  11  18  28  48  76 109 145 175 215 283 339
#     4  11  19  32  51  79 115 141 179 230 274 342
#     4  11  20  30  49  78 114 143 175 221 279 353
#     4  10  18  28  43  75 108 141 171 213 279 337
#     4  10  20  36  56  80 105 145 194 237 275 326
#     4  11  20  33  51  77 115 148 177 218 284 355
#     4  10  22  36  55  79 105 147 194 236 278 321
#     4  10  21  37  55  78 108 147 187 232 280 329
#
# _framework density 27.091158
#
# number of rings (size 3 to 8) (size 9 to 14) (size 15 to 20)
#    0.000    1.500    3.750    6.750    3.500    0.500 
#    0.000    0.000    0.000    0.750    0.000    0.000 
#    0.000    0.000    0.000    0.000    0.000    0.000 
#
# Total GULP energy -178268.330659 kJ/mol
# GULP energy per Si atom -5570.885333 kJ/mol
# Density = 2.702950 g / cm^3
# Si number density = 27.091158 Si / 1000 Ang^3
#
#
#
# Elastic Constant Matrix: (Units=GPa)
#
#
# Indices 1 2 3 4 5 6 
#
# 1 68.4425 18.5157 14.8599 -0.0009 5.2162 -0.0003
# 2 18.5157 131.8528 56.6630 0.0031 17.7638 0.0007
# 3 14.8599 56.6630 179.8692 0.0078 18.3961 0.0027
# 4 -0.0009 0.0031 0.0078 2501.7982 0.0019 659.8246
# 5 5.2162 17.7638 18.3961 0.0019 30.3467 0.0005
# 6 -0.0003 0.0007 0.0027 659.8246 0.0005 196.7822
#
#
#
# Elastic Compliance Matrix: (Units=1/GPa)
#
#
# Indices 1 2 3 4 5 6 
#
# 1 0.015302 -0.001724 -0.000592 0.000000 -0.001262 0.000000
# 2 -0.001724 0.009371 -0.002430 0.000000 -0.003716 0.000000
# 3 -0.000592 -0.002430 0.006629 0.000000 -0.002495 0.000000
# 4 0.000000 0.000000 0.000000 0.003456 0.000000 -0.011588
# 5 -0.001262 -0.003716 -0.002495 0.000000 0.036857 0.000000
# 6 0.000000 0.000000 0.000000 -0.011588 0.000000 0.043937
#
#
# Mechanical properties :
#
#
# Convention : Reuss Voigt Hill
#
# Bulk Modulus (GPa) = 45.84975 62.24909 54.04942
# Shear Modulus (GPa) = 37.78893 565.12713 301.45803
#
# Velocity S-wave (km/s) = 3.73886 14.45873 10.56016
# Velocity P-wave (km/s) = 5.96655 17.37145 12.98782
#
# Compressibility (1/GPa) = 0.02181037
#
# Stress axis : x y z
#
# Youngs Moduli (GPa) = 65.35093 106.71044 150.85233
#
# Poissons Ratio (x) = 0.18402 0.08928
# Poissons Ratio (y) = 0.11269 0.36651
# Poissons Ratio (z) = 0.03868 0.25926
#
# Static dielectric constant tensor:
#      x y z
#    x 2.075750 0.000000 -0.153960 
#    y 0.000000 2.317420 0.000000 
#    z -0.153960 0.000000 2.293920 
# 
# From -- ./inp_files/293748.got.cif
#   From: 2010.05.17/outbox.cif.g08.bks.cpg/sg15_147_cif.got.tgz:293748.got - 2010.06.03 18:47:42.
