data_PCOD9256525
_publ_section_title
;
Structure prediction by ZEFSAII (Michael W. Deem and Ramdas Pophale) SiO2 
 PCOD9256525
Probable space group: C 2/C
;
_chemical_formula_sum "Si O2"
_cell_formula_units_Z 32
_cell_length_a 23.686522
_cell_length_b 8.073663
_cell_length_c 23.327188
_cell_angle_alpha 90.000000
_cell_angle_beta 164.494950
_cell_angle_gamma 90.000000
_cell_volume 1192.534991
_symmetry_space_group_name_H-M "C 2/C"
_symmetry_group_IT_number 15
_symmetry_cell_setting 'monoclinic'
loop_
_space_group_symop_operation_xyz
x,y,z
-x,y,1/2-z
-x,-y,-z
x,-y,1/2+z
1/2+x,1/2+y,z
1/2-x,1/2+y,1/2-z
1/2-x,1/2-y,-z
1/2+x,1/2-y,1/2+z
loop_
_atom_site_type_symbol
_atom_site_label
_atom_site_fract_x
_atom_site_fract_y
_atom_site_fract_z
Si Si1 0.796031 0.103647 0.818953
Si Si2 0.495469 0.363107 0.859227
Si Si3 0.899966 0.500448 0.713156
Si Si4 0.103895 0.414463 0.018208
O O1 0.592225 0.007521 0.643119
O O2 0.710011 0.184999 0.675389
O O3 0.886622 0.184635 0.965421
O O4 0.000000 0.000000 0.000000
O O5 0.459729 0.191817 0.790335
O O6 0.297114 0.473829 0.683779
O O7 0.649080 0.481979 0.973064
O O8 0.000000 0.468317 0.750000
O O9 0.988906 0.368057 0.846344
#
# Coordination Sequence:
#
# PCOD9256525 Si02
#       4
#     8   8   8   8
#     4   8  16  30  44  56  71 108 155 188 219 246
#     4  10  18  27  41  58  83 118 151 182 214 250
#     4  11  20  27  39  63  94 125 149 172 212 260
#     4   9  17  29  42  56  80 111 151 187 213 251
#
# _framework density 26.833594999999999
#
# number of rings (size 3 to 8) (size 9 to 14) (size 15 to 20)
#    0.000    2.500    2.500    0.750    0.000    0.000 
#    0.000    0.000    0.000    0.000    0.000    0.000 
#    0.000    0.000    0.000   38.250   50.000  165.250 
#
# Total GULP energy -89261.965596 kJ/mol
# GULP energy per Si atom -5578.872850 kJ/mol
# Density = 2.677252 g / cm^3
# Si number density = 26.833595 Si / 1000 Ang^3
#
#
#
# Elastic Constant Matrix: (Units=GPa)
#
#
# Indices 1 2 3 4 5 6 
#
# 1 215.9125 26.5309 31.9300 -0.0016 24.0839 -0.0010
# 2 26.5309 58.1310 27.7005 -0.0033 21.4903 -0.0018
# 3 31.9300 27.7005 122.2523 -0.0108 45.7027 -0.0024
# 4 -0.0016 -0.0033 -0.0108 21.0734 -0.0016 -2.7720
# 5 24.0839 21.4903 45.7027 -0.0016 49.4369 -0.0001
# 6 -0.0010 -0.0018 -0.0024 -2.7720 -0.0001 30.5873
#
#
#
# Elastic Compliance Matrix: (Units=1/GPa)
#
#
# Indices 1 2 3 4 5 6 
#
# 1 0.005044 -0.001588 -0.000454 0.000000 -0.001347 0.000000
# 2 -0.001588 0.021323 -0.001896 0.000002 -0.006743 0.000001
# 3 -0.000454 -0.001896 0.012740 0.000006 -0.010733 0.000001
# 4 0.000000 0.000002 0.000006 0.048026 -0.000004 0.004352
# 5 -0.001347 -0.006743 -0.010733 -0.000004 0.033737 -0.000002
# 6 0.000000 0.000001 0.000001 0.004352 -0.000002 0.033088
#
#
# Mechanical properties :
#
#
# Convention : Reuss Voigt Hill
#
# Bulk Modulus (GPa) = 32.01803 63.17985 47.59894
# Shear Modulus (GPa) = 29.02851 40.89516 34.96183
#
# Velocity S-wave (km/s) = 3.29264 3.90812 3.61350
# Velocity P-wave (km/s) = 5.13938 6.63028 5.93186
#
# Compressibility (1/GPa) = 0.03123240
#
# Stress axis : x y z
#
# Youngs Moduli (GPa) = 198.25438 46.89674 78.49151
#
# Poissons Ratio (x) = 0.07445 0.03563
# Poissons Ratio (y) = 0.31476 0.14883
# Poissons Ratio (z) = 0.08999 0.08892
#
# Static dielectric constant tensor:
#      x y z
#    x 2.074600 0.000000 -0.031660 
#    y 0.000000 2.144760 0.000000 
#    z -0.031660 0.000000 2.226240 
# 
# From -- ./inp_files/12674.got.cif
#   From: 2010.05.17/outbox.cif.g08.bks.cpg/sg15_7_cif.got.tgz:12674.got - 2010.06.03 18:47:42.
