data_PCOD9256553
_publ_section_title
;
Structure prediction by ZEFSAII (Michael W. Deem and Ramdas Pophale) SiO2 
 PCOD9256553
Probable space group: C 2/C
;
_chemical_formula_sum "Si O2"
_cell_formula_units_Z 40
_cell_length_a 26.089000
_cell_length_b 9.700390
_cell_length_c 8.736603
_cell_angle_alpha 90.000000
_cell_angle_beta 43.733395
_cell_angle_gamma 90.000000
_cell_volume 1528.474143
_symmetry_space_group_name_H-M "C 2/C"
_symmetry_group_IT_number 15
_symmetry_cell_setting 'monoclinic'
loop_
_space_group_symop_operation_xyz
x,y,z
-x,y,1/2-z
-x,-y,-z
x,-y,1/2+z
1/2+x,1/2+y,z
1/2-x,1/2+y,1/2-z
1/2-x,1/2-y,-z
1/2+x,1/2-y,1/2+z
loop_
_atom_site_type_symbol
_atom_site_label
_atom_site_fract_x
_atom_site_fract_y
_atom_site_fract_z
Si Si1 0.715686 0.605766 0.683193
Si Si2 0.210935 0.620095 0.666572
Si Si3 0.583385 0.771910 0.932721
Si Si4 0.571013 0.538398 0.498119
Si Si5 0.565058 0.184396 0.833481
O O1 0.775152 0.636007 0.684730
O O2 0.746835 0.513215 0.483071
O O3 0.669491 0.737803 0.723646
O O4 0.650228 0.505994 0.900197
O O5 0.250000 0.750000 0.500000
O O6 0.126093 0.600569 0.796240
O O7 0.551167 0.614632 0.982418
O O8 0.522655 0.849059 0.960544
O O9 0.578642 0.817682 0.120872
O O10 0.500000 0.581928 0.750000
O O11 0.584613 0.661694 0.352339
#
# Coordination Sequence:
#
# PCOD9256553 Si02
#       5
#     8   8   8   8   8
#     4  10  22  33  62  91 123 156 206 249 317 361
#     4  12  21  40  59  91 127 167 194 258 314 369
#     4   9  18  30  54  88 106 156 196 245 291 365
#     4  10  18  27  51  89 118 138 189 258 293 356
#     4  11  19  33  57  81 124 154 192 239 329 346
#
# _framework density 26.169889999999999
#
# number of rings (size 3 to 8) (size 9 to 14) (size 15 to 20)
#    1.200    0.400    6.000    0.600    2.800    0.000 
#    0.000    1.000    8.800    4.800    0.000    0.000 
#    0.000    0.000    0.000    0.000    0.000    0.000 
#
# Total GULP energy -111601.381446 kJ/mol
# GULP energy per Si atom -5580.069072 kJ/mol
# Density = 2.611033 g / cm^3
# Si number density = 26.169890 Si / 1000 Ang^3
#
#
#
# Elastic Constant Matrix: (Units=GPa)
#
#
# Indices 1 2 3 4 5 6 
#
# 1 225.1152 27.4921 53.4229 0.0000 -30.0716 0.0000
# 2 27.4921 56.1739 29.3702 0.0000 -8.2315 0.0000
# 3 53.4229 29.3702 62.1786 0.0000 -2.4475 0.0000
# 4 0.0000 0.0000 0.0000 26.9679 0.0000 -3.0335
# 5 -30.0716 -8.2315 -2.4475 0.0000 43.0078 0.0000
# 6 0.0000 0.0000 0.0000 -3.0335 0.0000 27.3947
#
#
#
# Elastic Compliance Matrix: (Units=1/GPa)
#
#
# Indices 1 2 3 4 5 6 
#
# 1 0.006217 0.000356 -0.005348 0.000000 0.004111 0.000000
# 2 0.000356 0.024331 -0.011631 0.000000 0.004244 0.000000
# 3 -0.005348 -0.011631 0.025995 0.000000 -0.004486 0.000000
# 4 0.000000 0.000000 0.000000 0.037549 0.000000 0.004158
# 5 0.004111 0.004244 -0.004486 0.000000 0.026683 0.000000
# 6 0.000000 0.000000 0.000000 0.004158 0.000000 0.036964
#
#
# Mechanical properties :
#
#
# Convention : Reuss Voigt Hill
#
# Bulk Modulus (GPa) = 42.92566 62.67091 52.79828
# Shear Modulus (GPa) = 25.15714 35.01957 30.08835
#
# Velocity S-wave (km/s) = 3.10385 3.66206 3.39445
# Velocity P-wave (km/s) = 5.41142 6.47152 5.96507
#
# Compressibility (1/GPa) = 0.02329609
#
# Stress axis : x y z
#
# Youngs Moduli (GPa) = 160.85096 41.09971 38.46897
#
# Poissons Ratio (x) = -0.01462 0.20572
# Poissons Ratio (y) = -0.05723 0.44745
# Poissons Ratio (z) = 0.86019 0.47805
#
# Static dielectric constant tensor:
#      x y z
#    x 2.110990 0.000000 -0.133310 
#    y 0.000000 2.131460 0.000000 
#    z -0.133310 0.000000 2.166710 
# 
# From -- ./inp_files/65009.got.cif
#   From: 2010.05.17/outbox.cif.g08.bks.cpg/sg15_33_cif.got.tgz:65009.got - 2010.06.03 18:47:42.
