data_PCOD9256147
_publ_section_title
;
Structure prediction by ZEFSAII (Michael W. Deem and Ramdas Pophale) SiO2 
 PCOD9256147
Probable space group: C 2/C
;
_chemical_formula_sum "Si O2"
_cell_formula_units_Z 56
_cell_length_a 14.849900
_cell_length_b 24.624736
_cell_length_c 8.517548
_cell_angle_alpha 90.000000
_cell_angle_beta 116.291348
_cell_angle_gamma 90.000000
_cell_volume 2792.452717
_symmetry_space_group_name_H-M "C 2/C"
_symmetry_group_IT_number 15
_symmetry_cell_setting 'monoclinic'
loop_
_space_group_symop_operation_xyz
x,y,z
-x,y,1/2-z
-x,-y,-z
x,-y,1/2+z
1/2+x,1/2+y,z
1/2-x,1/2+y,1/2-z
1/2-x,1/2-y,-z
1/2+x,1/2-y,1/2+z
loop_
_atom_site_type_symbol
_atom_site_label
_atom_site_fract_x
_atom_site_fract_y
_atom_site_fract_z
Si Si1 0.256925 0.444380 0.664247
Si Si2 0.824586 0.788070 0.398809
Si Si3 0.000000 0.386703 0.250000
Si Si4 0.644797 0.393474 0.269135
Si Si5 0.823310 0.328905 0.950517
Si Si6 0.500000 0.679624 0.250000
Si Si7 0.557817 0.409882 0.545208
Si Si8 0.682563 0.045202 0.759083
O O1 0.229045 0.381334 0.665290
O O2 0.370761 0.452626 0.810953
O O3 0.180929 0.484020 0.695221
O O4 0.243378 0.454323 0.469691
O O5 0.849421 0.831165 0.283944
O O6 0.812074 0.725733 0.341003
O O7 0.732663 0.812824 0.429006
O O8 0.916054 0.787097 0.594275
O O9 0.921598 0.425015 0.283021
O O10 0.066191 0.349399 0.416686
O O11 0.612784 0.397294 0.424007
O O12 0.749935 0.421880 0.312963
O O13 0.556819 0.420855 0.094652
O O14 0.450440 0.640412 0.341231
#
# Coordination Sequence:
#
# PCOD9256147 Si02
#       8
#     8   8   4   8   8   4   8   8
#     4  11  21  40  57  89 114 163 204 256 305 365
#     4  10  18  35  62  91 122 156 204 251 309 372
#     4  10  21  40  58  94 116 170 213 256 294 364
#     4  10  20  38  57  95 122 162 192 255 308 378
#     4  10  20  35  61  88 120 158 212 253 299 369
#     4  10  17  34  62  92 116 158 189 248 310 386
#     4  10  20  35  63  86 128 148 199 247 315 366
#     4  11  23  38  63  83 125 159 214 253 301 361
#
# _framework density 20.054055000000002
#
# number of rings (size 3 to 8) (size 9 to 14) (size 15 to 20)
#    0.000    1.714    4.286    2.143    0.000    2.857 
#    0.000    2.143    0.000   13.714    0.000    0.000 
#    0.000    0.000    0.000    0.000    0.000    0.000 
#
# Total GULP energy -156231.938891 kJ/mol
# GULP energy per Si atom -5579.712103 kJ/mol
# Density = 2.000841 g / cm^3
# Si number density = 20.054055 Si / 1000 Ang^3
#
#
#
# Elastic Constant Matrix: (Units=GPa)
#
#
# Indices 1 2 3 4 5 6 
#
# 1 120.5915 43.9570 20.9714 0.0000 5.2470 0.0000
# 2 43.9570 134.2427 19.9451 0.0000 3.6561 0.0000
# 3 20.9714 19.9451 47.1618 0.0000 -0.8231 0.0000
# 4 0.0000 0.0000 0.0000 12.7214 0.0000 -4.4753
# 5 5.2470 3.6561 -0.8231 0.0000 18.5810 0.0000
# 6 0.0000 0.0000 0.0000 -4.4753 0.0000 20.7549
#
#
#
# Elastic Compliance Matrix: (Units=1/GPa)
#
#
# Indices 1 2 3 4 5 6 
#
# 1 0.009962 -0.002701 -0.003330 0.000000 -0.002429 0.000000
# 2 -0.002701 0.008736 -0.002512 0.000000 -0.001067 0.000000
# 3 -0.003330 -0.002512 0.023790 0.000000 0.002488 0.000000
# 4 0.000000 0.000000 0.000000 0.085060 0.000000 0.018341
# 5 -0.002429 -0.001067 0.002488 0.000000 0.054825 0.000000
# 6 0.000000 0.000000 0.000000 0.018341 0.000000 0.052136
#
#
# Mechanical properties :
#
#
# Convention : Reuss Voigt Hill
#
# Bulk Modulus (GPa) = 39.36703 52.41591 45.89147
# Shear Modulus (GPa) = 19.22620 24.88629 22.05624
#
# Velocity S-wave (km/s) = 3.09968 3.52655 3.31998
# Velocity P-wave (km/s) = 5.69945 6.54035 6.13432
#
# Compressibility (1/GPa) = 0.02540197
#
# Stress axis : x y z
#
# Youngs Moduli (GPa) = 100.38362 114.46965 42.03433
#
# Poissons Ratio (x) = 0.30919 0.13997
# Poissons Ratio (y) = 0.27114 0.10559
# Poissons Ratio (z) = 0.33426 0.28755
#
# Static dielectric constant tensor:
#      x y z
#    x 1.728160 0.000000 0.039560 
#    y 0.000000 1.743650 0.000000 
#    z 0.039560 0.000000 1.711190 
# 
# From -- ./inp_files/42768.got.cif
#   From: 2010.05.17/outbox.cif.g08.bks.cpg/sg15_22_cif.got.tgz:42768.got - 2010.06.03 18:47:42.
