data_PCOD9256305
_publ_section_title
;
Structure prediction by ZEFSAII (Michael W. Deem and Ramdas Pophale) SiO2 
 PCOD9256305
Probable space group: C 2/C
;
_chemical_formula_sum "Si O2"
_cell_formula_units_Z 60
_cell_length_a 25.892023
_cell_length_b 20.958210
_cell_length_c 13.615526
_cell_angle_alpha 90.000000
_cell_angle_beta 23.049792
_cell_angle_gamma 90.000000
_cell_volume 2892.815081
_symmetry_space_group_name_H-M "C 2/C"
_symmetry_group_IT_number 15
_symmetry_cell_setting 'monoclinic'
loop_
_space_group_symop_operation_xyz
x,y,z
-x,y,1/2-z
-x,-y,-z
x,-y,1/2+z
1/2+x,1/2+y,z
1/2-x,1/2+y,1/2-z
1/2-x,1/2-y,-z
1/2+x,1/2-y,1/2+z
loop_
_atom_site_type_symbol
_atom_site_label
_atom_site_fract_x
_atom_site_fract_y
_atom_site_fract_z
Si Si1 0.306722 0.644245 0.134669
Si Si2 0.500000 0.536101 0.250000
Si Si3 0.923847 0.550436 0.978821
Si Si4 0.757901 0.890881 0.392488
Si Si5 0.968041 0.919882 0.173845
Si Si6 0.320562 0.249557 0.269546
Si Si7 0.713524 0.076310 0.754458
Si Si8 0.006041 0.360977 0.973398
O O1 0.179166 0.602901 0.380660
O O2 0.264300 0.712557 0.165512
O O3 0.413766 0.632200 0.032695
O O4 0.371617 0.609466 0.926194
O O5 0.521062 0.486875 0.122291
O O6 0.368243 0.575286 0.459545
O O7 0.000000 0.527318 0.750000
O O8 0.849593 0.492170 0.161634
O O9 0.005289 0.588922 0.917798
O O10 0.875478 0.926651 0.242540
O O11 0.823841 0.824018 0.242676
O O12 0.705961 0.921891 0.385127
O O13 0.633787 0.880180 0.682960
O O14 0.250000 0.250000 0.500000
O O15 0.452532 0.207870 0.055347
O O16 0.624743 0.131330 0.862139
#
# Coordination Sequence:
#
# PCOD9256305 Si02
#       8
#     8   4   8   8   8   8   8   8
#     4   9  17  34  57  81 115 150 187 231 291 338
#     4  10  22  40  56  74 122 162 192 234 292 352
#     4  11  20  36  59  88 116 153 192 233 295 353
#     4  11  21  35  59  92 118 147 197 242 288 348
#     4  10  17  36  58  80 115 153 190 238 285 343
#     4   9  17  34  57  88 116 145 187 239 293 339
#     4  12  23  38  57  87 119 153 194 238 297 344
#     4  10  21  39  57  85 125 149 185 245 293 341
#
# _framework density 20.741042
#
# number of rings (size 3 to 8) (size 9 to 14) (size 15 to 20)
#    0.000    1.867    6.667    1.600    0.000    2.667 
#    4.800    0.000    5.867    0.800    0.000    0.000 
#    0.000    0.000    0.000    0.000    0.000    0.000 
#
# Total GULP energy -167192.621832 kJ/mol
# GULP energy per Si atom -5573.087394 kJ/mol
# Density = 2.069383 g / cm^3
# Si number density = 20.741042 Si / 1000 Ang^3
#
#
#
# Elastic Constant Matrix: (Units=GPa)
#
#
# Indices 1 2 3 4 5 6 
#
# 1 82.6282 19.2076 34.6806 0.0007 -32.4899 -0.0008
# 2 19.2076 53.7055 17.7598 -0.0006 -10.3470 0.0003
# 3 34.6806 17.7598 69.1815 0.0004 -28.0264 -0.0005
# 4 0.0007 -0.0006 0.0004 0.1824 -0.0006 10.6255
# 5 -32.4899 -10.3470 -28.0264 -0.0006 31.7722 0.0007
# 6 -0.0008 0.0003 -0.0005 10.6255 0.0007 6.3332
#
#
#
# Elastic Compliance Matrix: (Units=1/GPa)
#
#
# Indices 1 2 3 4 5 6 
#
# 1 0.021077 -0.003230 -0.002227 0.000001 0.018536 0.000000
# 2 -0.003230 0.021046 -0.003649 -0.000002 0.000332 0.000002
# 3 -0.002227 -0.003649 0.023503 0.000000 0.017266 0.000000
# 4 0.000001 -0.000002 0.000000 -0.056675 -0.000003 0.095086
# 5 0.018536 0.000332 0.017266 -0.000003 0.065768 0.000002
# 6 0.000000 0.000002 0.000000 0.095086 0.000002 -0.001632
#
#
# Mechanical properties :
#
#
# Convention : Reuss Voigt Hill
#
# Bulk Modulus (GPa) = 21.09155 38.75681 29.92418
# Shear Modulus (GPa) = 46.68415 16.58203 31.63309
#
# Velocity S-wave (km/s) = 4.74942 2.83057 3.90955
# Velocity P-wave (km/s) = 6.34563 5.42305 5.90239
#
# Compressibility (1/GPa) = 0.04741236
#
# Stress axis : x y z
#
# Youngs Moduli (GPa) = 47.44600 47.51497 42.54830
#
# Poissons Ratio (x) = 0.15349 0.09476
# Poissons Ratio (y) = 0.15326 0.15526
# Poissons Ratio (z) = 0.10567 0.17338
#
# Static dielectric constant tensor:
#      x y z
#    x 1.827850 0.000000 -0.063140 
#    y 0.000000 1.763840 0.000000 
#    z -0.063140 0.000000 1.835670 
# 
# From -- ./inp_files/179270.got.cif
#   From: 2010.05.17/outbox.cif.g08.bks.cpg/sg15_90_cif.got.tgz:179270.got - 2010.06.03 18:47:42.
