data_PCOD9256791
_publ_section_title
;
Structure prediction by ZEFSAII (Michael W. Deem and Ramdas Pophale) SiO2 
 PCOD9256791
Probable space group: C 2/C
;
_chemical_formula_sum "Si O2"
_cell_formula_units_Z 40
_cell_length_a 6.727856
_cell_length_b 28.888345
_cell_length_c 10.099595
_cell_angle_alpha 90.000000
_cell_angle_beta 47.475970
_cell_angle_gamma 90.000000
_cell_volume 1446.662479
_symmetry_space_group_name_H-M "C 2/C"
_symmetry_group_IT_number 15
_symmetry_cell_setting 'monoclinic'
loop_
_space_group_symop_operation_xyz
x,y,z
-x,y,1/2-z
-x,-y,-z
x,-y,1/2+z
1/2+x,1/2+y,z
1/2-x,1/2+y,1/2-z
1/2-x,1/2-y,-z
1/2+x,1/2-y,1/2+z
loop_
_atom_site_type_symbol
_atom_site_label
_atom_site_fract_x
_atom_site_fract_y
_atom_site_fract_z
Si Si1 0.889723 0.559215 0.441134
Si Si2 0.084624 0.370834 0.026039
Si Si3 0.725965 0.965404 0.032183
Si Si4 0.816611 0.204792 0.700268
Si Si5 0.230955 0.190454 0.285843
O O1 0.837996 0.599873 0.567130
O O2 0.666255 0.519344 0.518136
O O3 0.000000 0.574747 0.250000
O O4 0.141130 0.537334 0.412489
O O5 0.933621 0.327877 0.157185
O O6 0.261027 0.409148 0.028199
O O7 0.245115 0.349300 0.832234
O O8 0.500000 0.972109 0.250000
O O9 0.742325 0.258593 0.716546
O O10 0.000000 0.203796 0.750000
O O11 0.985653 0.188321 0.497935
O O12 0.500000 0.187206 0.250000
#
# Coordination Sequence:
#
# PCOD9256791 Si02
#       5
#     8   8   8   8   8
#     4   8  15  28  51  79  98 128 173 208 251 304
#     4  10  18  29  50  74 100 132 172 199 258 302
#     4   8  16  30  50  76 101 136 167 205 257 304
#     4  11  19  28  45  72 108 133 164 215 256 299
#     4  11  18  30  44  71 106 137 162 209 264 296
#
# _framework density 27.649847000000001
#
# number of rings (size 3 to 8) (size 9 to 14) (size 15 to 20)
#    1.200    1.200    4.000    1.800    0.000    0.000 
#    0.000    0.000    0.000    7.200    0.000    0.000 
#    0.000    0.000    0.000    0.000    0.000    0.000 
#
# Total GULP energy -111432.990778 kJ/mol
# GULP energy per Si atom -5571.649539 kJ/mol
# Density = 2.758691 g / cm^3
# Si number density = 27.649847 Si / 1000 Ang^3
#
#
#
# Elastic Constant Matrix: (Units=GPa)
#
#
# Indices 1 2 3 4 5 6 
#
# 1 80.2566 1.1870 17.2174 0.0000 -10.5049 0.0000
# 2 1.1870 201.0471 30.4959 0.0000 -14.4173 0.0000
# 3 17.2174 30.4959 149.1729 0.0000 2.3993 0.0000
# 4 0.0000 0.0000 0.0000 40.6432 0.0000 2.1639
# 5 -10.5049 -14.4173 2.3993 0.0000 40.6866 0.0000
# 6 0.0000 0.0000 0.0000 2.1639 0.0000 -4.1131
#
#
#
# Elastic Compliance Matrix: (Units=1/GPa)
#
#
# Indices 1 2 3 4 5 6 
#
# 1 0.013298 0.000442 -0.001684 0.000000 0.003689 0.000000
# 2 0.000442 0.005296 -0.001167 0.000000 0.002059 0.000000
# 3 -0.001684 -0.001167 0.007157 0.000000 -0.001270 0.000000
# 4 0.000000 0.000000 0.000000 0.023934 0.000000 0.012592
# 5 0.003689 0.002059 -0.001270 0.000000 0.026335 0.000000
# 6 0.000000 0.000000 0.000000 0.012592 0.000000 -0.236502
#
#
# Mechanical properties :
#
#
# Convention : Reuss Voigt Hill
#
# Bulk Modulus (GPa) = 47.77492 58.69746 53.23619
# Shear Modulus (GPa) = -33.62799 40.88177 3.62689
#
# Velocity S-wave (km/s) = -3.49120 3.84937 1.14655
# Velocity P-wave (km/s) = 1.03186 6.40561 4.58784
#
# Compressibility (1/GPa) = 0.02093148
#
# Stress axis : x y z
#
# Youngs Moduli (GPa) = 75.20075 188.82101 139.72330
#
# Poissons Ratio (x) = -0.08337 0.23535
# Poissons Ratio (y) = -0.03320 0.16302
# Poissons Ratio (z) = 0.12667 0.22031
#
# Static dielectric constant tensor:
#      x y z
#    x 2.363100 0.000000 -0.070480 
#    y 0.000000 2.277420 0.000000 
#    z -0.070480 0.000000 2.003380 
# 
# From -- ./inp_files/91663.got.cif
#   From: 2010.05.17/outbox.cif.g08.bks.cpg/sg15_46_cif.got.tgz:91663.got - 2010.06.03 18:47:42.
