data_PCOD9256927
_publ_section_title
;
Structure prediction by ZEFSAII (Michael W. Deem and Ramdas Pophale) SiO2 
 PCOD9256927
Probable space group: C 2/C
;
_chemical_formula_sum "Si O2"
_cell_formula_units_Z 52
_cell_length_a 28.734584
_cell_length_b 8.025896
_cell_length_c 28.753178
_cell_angle_alpha 90.000000
_cell_angle_beta 161.164892
_cell_angle_gamma 90.000000
_cell_volume 2140.815761
_symmetry_space_group_name_H-M "C 2/C"
_symmetry_group_IT_number 15
_symmetry_cell_setting 'monoclinic'
loop_
_space_group_symop_operation_xyz
x,y,z
-x,y,1/2-z
-x,-y,-z
x,-y,1/2+z
1/2+x,1/2+y,z
1/2-x,1/2+y,1/2-z
1/2-x,1/2-y,-z
1/2+x,1/2-y,1/2+z
loop_
_atom_site_type_symbol
_atom_site_label
_atom_site_fract_x
_atom_site_fract_y
_atom_site_fract_z
Si Si1 0.549731 0.500780 0.190839
Si Si2 0.618372 0.120098 0.724150
Si Si3 0.652512 0.051042 0.163066
Si Si4 0.418052 0.421466 0.377607
Si Si5 0.278733 0.371983 0.466137
Si Si6 0.847552 0.485997 0.516804
Si Si7 0.500000 0.027635 0.250000
O O1 0.577392 0.689983 0.198045
O O2 0.509858 0.411321 0.104773
O O3 0.697124 0.427368 0.352283
O O4 0.425686 0.525214 0.112371
O O5 0.741423 0.084487 0.877703
O O6 0.474129 0.013705 0.598889
O O7 0.677581 0.070891 0.730285
O O8 0.638709 0.238541 0.165868
O O9 0.773585 0.031377 0.238856
O O10 0.500000 0.000000 0.000000
O O11 0.500000 0.500000 0.500000
O O12 0.309297 0.175043 0.498329
O O13 0.131884 0.422489 0.352697
O O14 0.920043 0.391244 0.629378
#
# Coordination Sequence:
#
# PCOD9256927 Si02
#       7
#     8   8   8   8   8   8   4
#     4  10  19  34  53  80 116 154 196 246 297 350
#     4   9  18  34  52  76 113 156 192 237 298 353
#     4  12  24  40  62  89 122 164 207 254 303 361
#     4  12  25  40  61  91 123 162 208 257 304 359
#     4   9  18  30  50  77 112 151 189 240 300 354
#     4   9  18  30  50  78 112 151 190 239 297 351
#     4  10  18  30  48  82 118 148 186 238 304 360
#
# _framework density 24.289805000000001
#
# number of rings (size 3 to 8) (size 9 to 14) (size 15 to 20)
#    0.000    1.846    0.000    6.000    0.000    3.077 
#    0.000    0.000    0.000    0.000    0.000   17.231 
#    0.000    9.846    0.000    0.000    0.000    0.000 
#
# Total GULP energy -145126.269376 kJ/mol
# GULP energy per Si atom -5581.779591 kJ/mol
# Density = 2.423452 g / cm^3
# Si number density = 24.289805 Si / 1000 Ang^3
#
#
#
# Elastic Constant Matrix: (Units=GPa)
#
#
# Indices 1 2 3 4 5 6 
#
# 1 88.3533 7.2461 31.2146 -0.0001 -3.8269 0.0000
# 2 7.2461 64.0319 1.5450 0.0007 10.3957 -0.0005
# 3 31.2146 1.5450 114.1384 0.0028 -0.7487 0.0003
# 4 -0.0001 0.0007 0.0028 11.1738 0.0009 5.7654
# 5 -3.8269 10.3957 -0.7487 0.0009 48.1197 -0.0001
# 6 0.0000 -0.0005 0.0003 5.7654 -0.0001 2.3840
#
#
#
# Elastic Compliance Matrix: (Units=1/GPa)
#
#
# Indices 1 2 3 4 5 6 
#
# 1 0.012722 -0.001567 -0.003449 -0.000003 0.001297 0.000009
# 2 -0.001567 0.016385 0.000183 0.000010 -0.003661 -0.000020
# 3 -0.003449 0.000183 0.009701 0.000008 -0.000163 -0.000020
# 4 -0.000003 0.000010 0.000008 -0.361069 0.000006 0.873222
# 5 0.001297 -0.003661 -0.000163 0.000006 0.021673 -0.000014
# 6 0.000009 -0.000020 -0.000020 0.873222 -0.000014 -1.692360
#
#
# Mechanical properties :
#
#
# Convention : Reuss Voigt Hill
#
# Bulk Modulus (GPa) = 34.31701 38.50389 36.41045
# Shear Modulus (GPa) = -2.53348 27.43668 12.45160
#
# Velocity S-wave (km/s) = -1.02239 3.36453 2.26658
# Velocity P-wave (km/s) = 3.57283 5.56594 4.67680
#
# Compressibility (1/GPa) = 0.02914007
#
# Stress axis : x y z
#
# Youngs Moduli (GPa) = 78.60708 61.03305 103.08130
#
# Poissons Ratio (x) = 0.09563 0.35556
# Poissons Ratio (y) = 0.12317 -0.01883
# Poissons Ratio (z) = 0.27114 -0.01115
#
# Static dielectric constant tensor:
#      x y z
#    x 2.233040 -0.000010 -0.576440 
#    y -0.000010 1.896210 0.000020 
#    z -0.576440 0.000020 2.998210 
# 
# From -- ./inp_files/320223.got.cif
#   From: 2010.05.17/outbox.cif.g08.bks.cpg/sg15_161_cif.got.tgz:320223.got - 2010.06.03 18:47:42.
