data_PCOD9256060
_publ_section_title
;
Structure prediction by ZEFSAII (Michael W. Deem and Ramdas Pophale) SiO2 
 PCOD9256060
Probable space group: C 2/C
;
_chemical_formula_sum "Si O2"
_cell_formula_units_Z 60
_cell_length_a 16.019348
_cell_length_b 9.310490
_cell_length_c 16.510293
_cell_angle_alpha 90.000000
_cell_angle_beta 107.811257
_cell_angle_gamma 90.000000
_cell_volume 2344.448635
_symmetry_space_group_name_H-M "C 2/C"
_symmetry_group_IT_number 15
_symmetry_cell_setting 'monoclinic'
loop_
_space_group_symop_operation_xyz
x,y,z
-x,y,1/2-z
-x,-y,-z
x,-y,1/2+z
1/2+x,1/2+y,z
1/2-x,1/2+y,1/2-z
1/2-x,1/2-y,-z
1/2+x,1/2-y,1/2+z
loop_
_atom_site_type_symbol
_atom_site_label
_atom_site_fract_x
_atom_site_fract_y
_atom_site_fract_z
Si Si1 0.269285 0.277211 0.410841
Si Si2 0.867751 0.327145 0.711504
Si Si3 0.500000 0.397926 0.250000
Si Si4 0.683053 0.605367 0.123683
Si Si5 0.088898 0.362885 0.312282
Si Si6 0.985431 0.047964 0.098053
Si Si7 0.567637 0.155898 0.989501
Si Si8 0.089745 0.253522 0.963303
O O1 0.250000 0.250000 0.500000
O O2 0.293340 0.444556 0.400133
O O3 0.176667 0.267759 0.336664
O O4 0.350165 0.165232 0.423958
O O5 0.929630 0.208678 0.771435
O O6 0.764681 0.331192 0.697402
O O7 0.899102 0.489298 0.734073
O O8 0.883838 0.290307 0.620202
O O9 0.450657 0.501374 0.174938
O O10 0.587712 0.588862 0.135586
O O11 0.670368 0.715360 0.045066
O O12 0.079557 0.413149 0.404122
O O13 0.000000 0.298067 0.250000
O O14 0.935374 0.179811 0.046080
O O15 0.964003 0.897931 0.048343
O O16 0.475493 0.138398 0.009034
#
# Coordination Sequence:
#
# PCOD9256060 Si02
#       8
#     8   8   4   8   8   8   8   8
#     4   9  17  31  54  80 106 142 186 231 282 337
#     4  10  21  36  56  76 115 157 189 217 295 351
#     4  10  22  38  56  80 116 160 194 232 294 364
#     4  10  17  34  56  83 105 139 189 243 287 330
#     4  10  21  35  53  78 118 158 181 227 288 353
#     4  10  19  34  61  83 110 143 191 244 293 330
#     4  10  18  34  59  87 108 137 200 240 284 329
#     4  10  18  33  59  84 106 143 187 247 281 331
#
# _framework density 25.592369999999999
#
# number of rings (size 3 to 8) (size 9 to 14) (size 15 to 20)
#    0.000    2.133    3.333    1.200    0.933    0.533 
#    0.000    5.333    0.000    0.000    0.000    0.000 
#    0.000    0.000    0.000    0.000    0.000    0.000 
#
# Total GULP energy -167341.126201 kJ/mol
# GULP energy per Si atom -5578.037540 kJ/mol
# Density = 2.553412 g / cm^3
# Si number density = 25.592370 Si / 1000 Ang^3
#
#
#
# Elastic Constant Matrix: (Units=GPa)
#
#
# Indices 1 2 3 4 5 6 
#
# 1 113.6822 6.9071 28.8752 0.0000 31.3018 0.0000
# 2 6.9071 54.8456 7.2894 0.0000 0.7054 0.0000
# 3 28.8752 7.2894 68.7161 0.0000 34.7985 0.0000
# 4 0.0000 0.0000 0.0000 28.6146 0.0000 -3.6408
# 5 31.3018 0.7054 34.7985 0.0000 58.5905 0.0000
# 6 0.0000 0.0000 0.0000 -3.6408 0.0000 23.1075
#
#
#
# Elastic Compliance Matrix: (Units=1/GPa)
#
#
# Indices 1 2 3 4 5 6 
#
# 1 0.010606 -0.000996 -0.002128 0.000000 -0.004391 0.000000
# 2 -0.000996 0.018662 -0.002455 0.000000 0.001766 0.000000
# 3 -0.002128 -0.002455 0.021619 0.000000 -0.011674 0.000000
# 4 0.000000 0.000000 0.000000 0.035662 0.000000 0.005619
# 5 -0.004391 0.001766 -0.011674 0.000000 0.026325 0.000000
# 6 0.000000 0.000000 0.000000 0.005619 0.000000 0.044161
#
#
# Mechanical properties :
#
#
# Convention : Reuss Voigt Hill
#
# Bulk Modulus (GPa) = 25.17082 35.93194 30.55138
# Shear Modulus (GPa) = 27.55764 35.00732 31.28248
#
# Velocity S-wave (km/s) = 3.28501 3.70250 3.49999
# Velocity P-wave (km/s) = 4.92392 5.68758 5.31947
#
# Compressibility (1/GPa) = 0.03972854
#
# Stress axis : x y z
#
# Youngs Moduli (GPa) = 94.28269 53.58451 46.25599
#
# Poissons Ratio (x) = 0.05340 0.09842
# Poissons Ratio (y) = 0.09395 0.11357
# Poissons Ratio (z) = 0.20061 0.13156
#
# Static dielectric constant tensor:
#      x y z
#    x 2.105380 0.000000 -0.002920 
#    y 0.000000 2.024130 0.000000 
#    z -0.002920 0.000000 2.123180 
# 
# From -- ./inp_files/247838.got.cif
#   From: 2010.05.17/outbox.cif.g08.bks.cpg/sg15_124_cif.got.tgz:247838.got - 2010.06.03 18:47:42.
