data_PCOD9256498
_publ_section_title
;
Structure prediction by ZEFSAII (Michael W. Deem and Ramdas Pophale) SiO2 
 PCOD9256498
Probable space group: C 2/C
;
_chemical_formula_sum "Si O2"
_cell_formula_units_Z 48
_cell_length_a 15.283357
_cell_length_b 24.198811
_cell_length_c 16.669373
_cell_angle_alpha 90.000000
_cell_angle_beta 28.106083
_cell_angle_gamma 90.000000
_cell_volume 2904.358714
_symmetry_space_group_name_H-M "C 2/C"
_symmetry_group_IT_number 15
_symmetry_cell_setting 'monoclinic'
loop_
_space_group_symop_operation_xyz
x,y,z
-x,y,1/2-z
-x,-y,-z
x,-y,1/2+z
1/2+x,1/2+y,z
1/2-x,1/2+y,1/2-z
1/2-x,1/2-y,-z
1/2+x,1/2-y,1/2+z
loop_
_atom_site_type_symbol
_atom_site_label
_atom_site_fract_x
_atom_site_fract_y
_atom_site_fract_z
Si Si1 0.213145 0.523823 0.075405
Si Si2 0.054641 0.970870 0.872731
Si Si3 0.200329 0.396033 0.738730
Si Si4 0.631670 0.328582 0.218791
Si Si5 0.793217 0.438095 0.100213
Si Si6 0.481349 0.211729 0.168102
O O1 0.224549 0.570197 0.135793
O O2 0.000000 0.502218 0.250000
O O3 0.373697 0.479095 0.963402
O O4 0.242235 0.552053 0.965830
O O5 0.135167 0.911687 0.833524
O O6 0.222636 0.007079 0.700249
O O7 0.000000 0.000000 0.000000
O O8 0.168927 0.332464 0.740948
O O9 0.007899 0.420362 0.931691
O O10 0.500000 0.339518 0.250000
O O11 0.670570 0.386404 0.230151
O O12 0.554606 0.275115 0.326505
O O13 0.826303 0.308635 0.024212
O O14 0.500000 0.209978 0.250000
#
# Coordination Sequence:
#
# PCOD9256498 Si02
#       6
#     8   8   8   8   8   8
#     4   9  17  29  44  61  83 113 148 180 210 251
#     4  10  19  28  42  62  84 116 145 176 218 254
#     4   9  18  30  42  60  87 117 146 178 215 250
#     4  10  18  26  40  60  81 111 149 178 200 237
#     4  10  18  30  45  62  85 117 149 177 209 252
#     4  10  18  27  40  59  84 116 147 175 203 242
#
# _framework density 16.526883999999999
#
# number of rings (size 3 to 8) (size 9 to 14) (size 15 to 20)
#    0.000    2.333    0.000    6.500    0.000    4.000 
#    0.000    0.000    0.000    0.000    0.000    0.000 
#    0.000    0.000    0.000  186.000    0.000    6.167 
#
# Total GULP energy -133760.291600 kJ/mol
# GULP energy per Si atom -5573.345483 kJ/mol
# Density = 1.648927 g / cm^3
# Si number density = 16.526884 Si / 1000 Ang^3
#
#
#
# Elastic Constant Matrix: (Units=GPa)
#
#
# Indices 1 2 3 4 5 6 
#
# 1 49.1488 33.4376 8.9788 -0.0290 -21.7066 0.0068
# 2 33.4376 69.1223 10.2682 -0.0358 -9.9617 0.0452
# 3 8.9788 10.2682 41.2319 -0.0079 -1.7737 0.0599
# 4 -0.0290 -0.0358 -0.0079 47.4854 0.0227 31.8228
# 5 -21.7066 -9.9617 -1.7737 0.0227 21.7590 0.0333
# 6 0.0068 0.0452 0.0599 31.8228 0.0333 85.3441
#
#
#
# Elastic Compliance Matrix: (Units=1/GPa)
#
#
# Indices 1 2 3 4 5 6 
#
# 1 0.053812 -0.018839 -0.005106 0.000003 0.044642 -0.000009
# 2 -0.018839 0.022625 -0.001901 0.000018 -0.008591 -0.000012
# 3 -0.005106 -0.001901 0.025672 0.000016 -0.003872 -0.000021
# 4 0.000003 0.000018 0.000016 0.028075 -0.000001 -0.010468
# 5 0.044642 -0.008591 -0.003872 -0.000001 0.086243 -0.000029
# 6 -0.000009 -0.000012 -0.000021 -0.010468 -0.000029 0.015621
#
#
# Mechanical properties :
#
#
# Convention : Reuss Voigt Hill
#
# Bulk Modulus (GPa) = 19.83531 29.43026 24.63278
# Shear Modulus (GPa) = 16.63632 38.03892 27.33762
#
# Velocity S-wave (km/s) = 3.17617 4.80274 4.07151
# Velocity P-wave (km/s) = 5.04764 6.97146 6.08605
#
# Compressibility (1/GPa) = 0.05041515
#
# Stress axis : x y z
#
# Youngs Moduli (GPa) = 18.58311 44.19895 38.95292
#
# Poissons Ratio (x) = 0.83268 0.19890
# Poissons Ratio (y) = 0.35009 0.07407
# Poissons Ratio (z) = 0.09489 0.08404
#
# Static dielectric constant tensor:
#      x y z
#    x 1.550170 -0.000010 -0.037980 
#    y -0.000010 1.581450 0.000020 
#    z -0.037980 0.000020 1.620870 
# 
# From -- ./inp_files/40273.got.cif
#   From: 2010.05.17/outbox.cif.g08.bks.cpg/sg15_21_cif.got.tgz:40273.got - 2010.06.03 18:47:42.
