data_PCOD9256702
_publ_section_title
;
Structure prediction by ZEFSAII (Michael W. Deem and Ramdas Pophale) SiO2 
 PCOD9256702
Probable space group: C 2/C
;
_chemical_formula_sum "Si O2"
_cell_formula_units_Z 40
_cell_length_a 13.986038
_cell_length_b 5.431627
_cell_length_c 22.965758
_cell_angle_alpha 90.000000
_cell_angle_beta 107.727942
_cell_angle_gamma 90.000000
_cell_volume 1661.790923
_symmetry_space_group_name_H-M "C 2/C"
_symmetry_group_IT_number 15
_symmetry_cell_setting 'monoclinic'
loop_
_space_group_symop_operation_xyz
x,y,z
-x,y,1/2-z
-x,-y,-z
x,-y,1/2+z
1/2+x,1/2+y,z
1/2-x,1/2+y,1/2-z
1/2-x,1/2-y,-z
1/2+x,1/2-y,1/2+z
loop_
_atom_site_type_symbol
_atom_site_label
_atom_site_fract_x
_atom_site_fract_y
_atom_site_fract_z
Si Si1 0.549298 0.095453 0.568446
Si Si2 0.730852 0.845453 0.431554
Si Si3 0.926795 0.099567 0.883899
Si Si4 0.192097 0.875000 0.250000
Si Si5 0.292896 0.349567 0.116101
O O1 0.514284 0.368964 0.578386
O O2 0.670807 0.123886 0.590320
O O3 0.500000 0.000000 0.500000
O O4 0.528090 0.871742 0.608188
O O5 0.750000 0.750000 0.500000
O O6 0.830486 0.873886 0.409680
O O7 0.669902 0.621742 0.391812
O O8 0.685898 0.118964 0.421614
O O9 0.891646 0.045413 0.811941
O O10 0.241394 0.625000 0.232787
O O11 0.170295 0.795413 0.311941
#
# Coordination Sequence:
#
# PCOD9256702 Si02
#       5
#     8   8   8   8   8
#     4  10  18  29  43  63  95 124 152 182 224 285
#     4  10  18  29  43  63  95 124 152 182 224 285
#     4  10  19  30  45  69  92 123 151 188 238 275
#     4  12  16  30  48  64  98 120 142 196 242 284
#     4  10  19  30  45  69  92 123 151 188 238 275
#
# _framework density 24.070418
#
# number of rings (size 3 to 8) (size 9 to 14) (size 15 to 20)
#    0.000    1.600    8.000    1.200    0.000    0.000 
#    0.000    0.000    0.000    0.000    0.000    0.000 
#    0.000  153.600    0.000    0.000    0.000    0.000 
#
# Total GULP energy -111543.032900 kJ/mol
# GULP energy per Si atom -5577.151645 kJ/mol
# Density = 2.401563 g / cm^3
# Si number density = 24.070418 Si / 1000 Ang^3
#
#
#
# Elastic Constant Matrix: (Units=GPa)
#
#
# Indices 1 2 3 4 5 6 
#
# 1 128.6877 -5.6012 -25.7283 0.0000 -195.0834 0.0000
# 2 -5.6012 236.7476 21.5871 0.0000 -1.6762 0.0000
# 3 -25.7283 21.5871 202.2364 0.0000 190.5489 0.0000
# 4 0.0000 0.0000 0.0000 52.8836 0.0002 -4.5438
# 5 -195.0834 -1.6762 190.5489 0.0002 1638.6488 0.0000
# 6 0.0000 0.0000 0.0000 -4.5438 0.0000 -20.9588
#
#
#
# Elastic Compliance Matrix: (Units=1/GPa)
#
#
# Indices 1 2 3 4 5 6 
#
# 1 0.009498 0.000220 0.000134 0.000000 0.001115 0.000000
# 2 0.000220 0.004277 -0.000514 0.000000 0.000090 0.000000
# 3 0.000134 -0.000514 0.005618 0.000000 -0.000638 0.000000
# 4 0.000000 0.000000 0.000000 0.018564 0.000000 -0.004025
# 5 0.001115 0.000090 -0.000638 0.000000 0.000817 0.000000
# 6 0.000000 0.000000 0.000000 -0.004025 0.000000 -0.046840
#
#
# Mechanical properties :
#
#
# Convention : Reuss Voigt Hill
#
# Bulk Modulus (GPa) = 52.42878 60.90964 56.66921
# Shear Modulus (GPa) = -3595.41820 372.60898 -1611.40461
#
# Velocity S-wave (km/s) = -38.69045 12.45534 -25.90189
# Velocity P-wave (km/s) = 44.43091 15.23835 29.51185
#
# Compressibility (1/GPa) = 0.01907350
#
# Stress axis : x y z
#
# Youngs Moduli (GPa) = 105.28524 233.83114 178.01466
#
# Poissons Ratio (x) = -0.05154 -0.02383
# Poissons Ratio (y) = -0.02321 0.09142
# Poissons Ratio (z) = -0.01409 0.12009
#
# Static dielectric constant tensor:
#      x y z
#    x 1.830050 0.000000 -0.004270 
#    y 0.000000 1.647890 0.000000 
#    z -0.004270 0.000000 1.899430 
# 
# From -- ./inp_files/226747.got.cif
#   From: 2010.05.17/outbox.cif.g08.bks.cpg/sg15_114_cif.got.tgz:226747.got - 2010.06.03 18:47:42.
