data_PCOD9256119
_publ_section_title
;
Structure prediction by ZEFSAII (Michael W. Deem and Ramdas Pophale) SiO2 
 PCOD9256119
Probable space group: C 2/C
;
_chemical_formula_sum "Si O2"
_cell_formula_units_Z 48
_cell_length_a 25.829357
_cell_length_b 19.873056
_cell_length_c 13.437588
_cell_angle_alpha 90.000000
_cell_angle_beta 158.632639
_cell_angle_gamma 90.000000
_cell_volume 2513.124395
_symmetry_space_group_name_H-M "C 2/C"
_symmetry_group_IT_number 15
_symmetry_cell_setting 'monoclinic'
loop_
_space_group_symop_operation_xyz
x,y,z
-x,y,1/2-z
-x,-y,-z
x,-y,1/2+z
1/2+x,1/2+y,z
1/2-x,1/2+y,1/2-z
1/2-x,1/2-y,-z
1/2+x,1/2-y,1/2+z
loop_
_atom_site_type_symbol
_atom_site_label
_atom_site_fract_x
_atom_site_fract_y
_atom_site_fract_z
Si Si1 0.343513 0.257081 0.953495
Si Si2 0.186842 0.905000 0.686710
Si Si3 0.500000 0.489692 0.750000
Si Si4 0.066071 0.252353 0.552200
Si Si5 0.313788 0.199628 0.698430
Si Si6 0.000000 0.351930 0.250000
Si Si7 0.087752 0.107770 0.230235
O O1 0.358187 0.333067 0.939639
O O2 0.235725 0.254050 0.852151
O O3 0.267739 0.218637 0.726524
O O4 0.500000 0.229513 0.250000
O O5 0.132777 0.962528 0.516032
O O6 0.108351 0.913735 0.652595
O O7 0.356854 0.896147 0.003768
O O8 0.470304 0.444643 0.794022
O O9 0.981023 0.286272 0.490568
O O10 0.019270 0.301859 0.377989
O O11 0.007974 0.176081 0.437714
O O12 0.250000 0.250000 0.500000
O O13 0.246136 0.129321 0.549092
#
# Coordination Sequence:
#
# PCOD9256119 Si02
#       7
#     8   8   4   8   8   4   8
#     4  11  21  34  55  87 125 146 185 243 303 342
#     4  11  21  39  59  85 116 161 197 239 281 349
#     4  12  25  36  60  84 119 158 198 244 286 326
#     4  10  18  33  63  88 108 149 185 243 295 342
#     4  10  17  34  60  86 108 143 190 239 287 352
#     4  10  19  36  64  86 113 148 198 238 292 348
#     4  11  20  40  61  86 115 150 204 232 287 360
#
# _framework density 19.099730999999998
#
# number of rings (size 3 to 8) (size 9 to 14) (size 15 to 20)
#    0.000    1.333    5.833    5.000    0.000    0.667 
#    0.000    0.833    7.333    0.000    0.000    0.000 
#    0.000    0.000    0.000    0.000    0.000    0.000 
#
# Total GULP energy -133775.630883 kJ/mol
# GULP energy per Si atom -5573.984620 kJ/mol
# Density = 1.905626 g / cm^3
# Si number density = 19.099731 Si / 1000 Ang^3
#
#
#
# Elastic Constant Matrix: (Units=GPa)
#
#
# Indices 1 2 3 4 5 6 
#
# 1 85.9643 17.3159 14.2554 0.0000 12.3667 0.0000
# 2 17.3159 57.0984 6.7694 0.0000 -4.0713 0.0000
# 3 14.2554 6.7694 96.5875 0.0000 15.1272 0.0000
# 4 0.0000 0.0000 0.0000 11.2444 0.0000 3.7124
# 5 12.3667 -4.0713 15.1272 0.0000 24.3940 0.0000
# 6 0.0000 0.0000 0.0000 3.7124 0.0000 11.5926
#
#
#
# Elastic Compliance Matrix: (Units=1/GPa)
#
#
# Indices 1 2 3 4 5 6 
#
# 1 0.013717 -0.004622 -0.000543 0.000000 -0.007388 0.000000
# 2 -0.004622 0.019599 -0.001740 0.000000 0.006693 0.000000
# 3 -0.000543 -0.001740 0.011693 0.000000 -0.007266 0.000000
# 4 0.000000 0.000000 0.000000 0.099448 0.000000 -0.031847
# 5 -0.007388 0.006693 -0.007266 0.000000 0.050362 0.000000
# 6 0.000000 0.000000 0.000000 -0.031847 0.000000 0.096460
#
#
# Mechanical properties :
#
#
# Convention : Reuss Voigt Hill
#
# Bulk Modulus (GPa) = 32.05273 35.14797 33.60035
# Shear Modulus (GPa) = 15.84841 22.86685 19.35763
#
# Velocity S-wave (km/s) = 2.88370 3.46386 3.18701
# Velocity P-wave (km/s) = 5.28260 5.86857 5.58327
#
# Compressibility (1/GPa) = 0.03119859
#
# Stress axis : x y z
#
# Youngs Moduli (GPa) = 72.90356 51.02343 85.51802
#
# Poissons Ratio (x) = 0.23584 0.04647
# Poissons Ratio (y) = 0.33697 0.14877
# Poissons Ratio (z) = 0.03961 0.08876
#
# Static dielectric constant tensor:
#      x y z
#    x 1.727290 0.000000 0.016270 
#    y 0.000000 1.635110 0.000000 
#    z 0.016270 0.000000 1.752250 
# 
# From -- ./inp_files/178972.got.cif
#   From: 2010.05.17/outbox.cif.g08.bks.cpg/sg15_90_cif.got.tgz:178972.got - 2010.06.03 18:47:42.
