data_PCOD9256469
_publ_section_title
;
Structure prediction by ZEFSAII (Michael W. Deem and Ramdas Pophale) SiO2 
 PCOD9256469
Probable space group: C 2/C
;
_chemical_formula_sum "Si O2"
_cell_formula_units_Z 60
_cell_length_a 18.528946
_cell_length_b 18.630357
_cell_length_c 9.669472
_cell_angle_alpha 90.000000
_cell_angle_beta 113.214785
_cell_angle_gamma 90.000000
_cell_volume 3067.651834
_symmetry_space_group_name_H-M "C 2/C"
_symmetry_group_IT_number 15
_symmetry_cell_setting 'monoclinic'
loop_
_space_group_symop_operation_xyz
x,y,z
-x,y,1/2-z
-x,-y,-z
x,-y,1/2+z
1/2+x,1/2+y,z
1/2-x,1/2+y,1/2-z
1/2-x,1/2-y,-z
1/2+x,1/2-y,1/2+z
loop_
_atom_site_type_symbol
_atom_site_label
_atom_site_fract_x
_atom_site_fract_y
_atom_site_fract_z
Si Si1 0.416413 0.305350 0.243750
Si Si2 0.412263 0.079274 0.451031
Si Si3 0.768602 0.949523 0.759189
Si Si4 0.183963 0.207093 0.276419
Si Si5 0.000000 0.484780 0.750000
Si Si6 0.827322 0.709066 0.000485
Si Si7 0.281001 0.581851 0.583895
Si Si8 0.368245 0.760750 0.972219
O O1 0.500000 0.326013 0.250000
O O2 0.352256 0.362117 0.144174
O O3 0.408570 0.295733 0.400877
O O4 0.392690 0.227259 0.162289
O O5 0.321371 0.060022 0.356283
O O6 0.445501 0.034781 0.608432
O O7 0.411914 0.163349 0.490136
O O8 0.455529 0.060635 0.337546
O O9 0.814871 0.877980 0.747466
O O10 0.795713 0.022102 0.708693
O O11 0.773890 0.952418 0.927904
O O12 0.150056 0.251263 0.122554
O O13 0.276794 0.228713 0.355609
O O14 0.139845 0.231339 0.380026
O O15 0.798954 0.628279 0.955026
O O16 0.750000 0.750000 0.000000
#
# Coordination Sequence:
#
# PCOD9256469 Si02
#       8
#     8   8   8   8   4   8   8   8
#     4  11  23  42  64  94 126 168 215 257 322 387
#     4  10  22  40  59  92 125 175 211 250 325 385
#     4  11  22  38  65  95 121 164 216 264 316 376
#     4  10  19  37  66  90 125 152 215 273 309 356
#     4  10  22  42  58  84 144 170 200 260 322 400
#     4  10  17  40  64  89 120 163 210 261 303 369
#     4  11  23  39  67  96 124 162 219 263 319 377
#     4  10  21  37  62  94 120 162 213 267 311 363
#
# _framework density 19.558935000000002
#
# number of rings (size 3 to 8) (size 9 to 14) (size 15 to 20)
#    0.000    1.600    5.333    1.600    2.800    2.133 
#    4.800    0.667    0.000    0.000    0.000    0.000 
#    0.000    0.000    0.000    0.000    0.000    0.000 
#
# Total GULP energy -167440.447856 kJ/mol
# GULP energy per Si atom -5581.348262 kJ/mol
# Density = 1.951442 g / cm^3
# Si number density = 19.558935 Si / 1000 Ang^3
#
#
#
# Elastic Constant Matrix: (Units=GPa)
#
#
# Indices 1 2 3 4 5 6 
#
# 1 64.6971 34.5937 42.8172 0.0000 -15.6171 0.0000
# 2 34.5937 101.1436 55.8693 0.0000 -15.1943 0.0000
# 3 42.8172 55.8693 125.2288 0.0000 -33.5695 0.0000
# 4 0.0000 0.0000 0.0000 27.0686 0.0000 -7.6190
# 5 -15.6171 -15.1943 -33.5695 0.0000 23.8477 0.0000
# 6 0.0000 0.0000 0.0000 -7.6190 0.0000 14.9769
#
#
#
# Elastic Compliance Matrix: (Units=1/GPa)
#
#
# Indices 1 2 3 4 5 6 
#
# 1 0.021844 -0.004423 -0.003881 0.000000 0.006024 0.000000
# 2 -0.004423 0.014016 -0.005016 0.000000 -0.001027 0.000000
# 3 -0.003881 -0.005016 0.016080 0.000000 0.016898 0.000000
# 4 0.000000 0.000000 0.000000 0.043117 0.000000 0.021934
# 5 0.006024 -0.001027 0.016898 0.000000 0.069009 0.000000
# 6 0.000000 0.000000 0.000000 0.021934 0.000000 0.077928
#
#
# Mechanical properties :
#
#
# Convention : Reuss Voigt Hill
#
# Bulk Modulus (GPa) = 39.52470 61.95886 50.74178
# Shear Modulus (GPa) = 18.04616 23.69794 20.87205
#
# Velocity S-wave (km/s) = 3.04082 3.48460 3.27025
# Velocity P-wave (km/s) = 5.70795 6.92364 6.34498
#
# Compressibility (1/GPa) = 0.02530063
#
# Stress axis : x y z
#
# Youngs Moduli (GPa) = 45.77939 71.34616 62.18929
#
# Poissons Ratio (x) = 0.31553 0.24134
# Poissons Ratio (y) = 0.20246 0.31197
# Poissons Ratio (z) = 0.17766 0.35790
#
# Static dielectric constant tensor:
#      x y z
#    x 1.684510 0.000000 0.014960 
#    y 0.000000 1.709030 0.000000 
#    z 0.014960 0.000000 1.687010 
# 
# From -- ./inp_files/50280.got.cif
#   From: 2010.05.17/outbox.cif.g08.bks.cpg/sg15_26_cif.got.tgz:50280.got - 2010.06.03 18:47:42.
