data_PCOD9256481
_publ_section_title
;
Structure prediction by ZEFSAII (Michael W. Deem and Ramdas Pophale) SiO2 
 PCOD9256481
Probable space group: C 2/C
;
_chemical_formula_sum "Si O2"
_cell_formula_units_Z 52
_cell_length_a 8.842044
_cell_length_b 26.619758
_cell_length_c 12.113910
_cell_angle_alpha 90.000000
_cell_angle_beta 127.762394
_cell_angle_gamma 90.000000
_cell_volume 2254.106199
_symmetry_space_group_name_H-M "C 2/C"
_symmetry_group_IT_number 15
_symmetry_cell_setting 'monoclinic'
loop_
_space_group_symop_operation_xyz
x,y,z
-x,y,1/2-z
-x,-y,-z
x,-y,1/2+z
1/2+x,1/2+y,z
1/2-x,1/2+y,1/2-z
1/2-x,1/2-y,-z
1/2+x,1/2-y,1/2+z
loop_
_atom_site_type_symbol
_atom_site_label
_atom_site_fract_x
_atom_site_fract_y
_atom_site_fract_z
Si Si1 0.644721 0.529956 0.414377
Si Si2 0.930933 0.184803 0.865633
Si Si3 0.454253 0.430081 0.389486
Si Si4 0.500000 0.320177 0.750000
Si Si5 0.664041 0.837406 0.455854
Si Si6 0.536672 0.941934 0.143058
Si Si7 0.628550 0.246842 0.614816
O O1 0.500000 0.540879 0.250000
O O2 0.609065 0.472406 0.435140
O O3 0.597605 0.563017 0.503615
O O4 0.869432 0.537052 0.490575
O O5 0.000188 0.127512 0.881523
O O6 0.766562 0.178672 0.888212
O O7 0.816089 0.213061 0.717431
O O8 0.094824 0.219347 0.992244
O O9 0.263875 0.444748 0.234680
O O10 0.335188 0.350695 0.615588
O O11 0.602985 0.285163 0.705591
O O12 0.518469 0.882992 0.378446
O O13 0.550532 0.790669 0.454739
O O14 0.500000 0.963575 0.250000
#
# Coordination Sequence:
#
# PCOD9256481 Si02
#       7
#     8   8   8   4   8   8   8
#     4  10  22  37  56  81 103 139 192 233 269 320
#     4  11  18  29  45  69 105 146 172 207 257 325
#     4  10  21  38  56  76 109 148 183 222 276 326
#     4  10  18  20  34  62  98 130 172 204 222 318
#     4  11  16  25  40  65  99 143 169 191 262 318
#     4  10  18  32  52  71 106 144 172 216 271 318
#     4  11  17  26  39  66 101 140 177 197 248 325
#
# _framework density 23.069011
#
# number of rings (size 3 to 8) (size 9 to 14) (size 15 to 20)
#    0.000    1.538    7.692    0.923    1.077    0.615 
#    0.000    0.000    0.000    0.000    0.000    1.077 
#    0.000    0.000    0.000    0.000    0.308    0.000 
#
# Total GULP energy -145343.563518 kJ/mol
# GULP energy per Si atom -5590.137058 kJ/mol
# Density = 2.301650 g / cm^3
# Si number density = 23.069011 Si / 1000 Ang^3
#
#
#
# Elastic Constant Matrix: (Units=GPa)
#
#
# Indices 1 2 3 4 5 6 
#
# 1 41.2223 23.1509 15.1766 0.0000 -9.2593 0.0000
# 2 23.1509 139.7679 56.9027 0.0000 9.2293 0.0000
# 3 15.1766 56.9027 170.7536 0.0000 -2.4139 0.0000
# 4 0.0000 0.0000 0.0000 47.2639 0.0000 10.8403
# 5 -9.2593 9.2293 -2.4139 0.0000 31.1378 0.0000
# 6 0.0000 0.0000 0.0000 10.8403 0.0000 19.1380
#
#
#
# Elastic Compliance Matrix: (Units=1/GPa)
#
#
# Indices 1 2 3 4 5 6 
#
# 1 0.029861 -0.005337 -0.000729 0.000000 0.010405 0.000000
# 2 -0.005337 0.009459 -0.002743 0.000000 -0.004603 0.000000
# 3 -0.000729 -0.002743 0.006851 0.000000 0.001128 0.000000
# 4 0.000000 0.000000 0.000000 0.024317 0.000000 -0.013774
# 5 0.010405 -0.004603 0.001128 0.000000 0.036661 0.000000
# 6 0.000000 0.000000 0.000000 -0.013774 0.000000 0.060054
#
#
# Mechanical properties :
#
#
# Convention : Reuss Voigt Hill
#
# Bulk Modulus (GPa) = 35.01976 60.24493 47.63235
# Shear Modulus (GPa) = 25.72825 36.60884 31.16855
#
# Velocity S-wave (km/s) = 3.34319 3.98795 3.67972
# Velocity P-wave (km/s) = 5.48780 6.88308 6.22466
#
# Compressibility (1/GPa) = 0.02855531
#
# Stress axis : x y z
#
# Youngs Moduli (GPa) = 33.48826 105.71501 145.95994
#
# Poissons Ratio (x) = 0.56416 0.10634
# Poissons Ratio (y) = 0.17871 0.40038
# Poissons Ratio (z) = 0.02440 0.28998
#
# Static dielectric constant tensor:
#      x y z
#    x 1.914820 0.000000 -0.033700 
#    y 0.000000 1.874190 0.000000 
#    z -0.033700 0.000000 1.876930 
# 
# From -- ./inp_files/207446.got.cif
#   From: 2010.05.17/outbox.cif.g08.bks.cpg/sg15_104_cif.got.tgz:207446.got - 2010.06.03 18:47:42.
