data_PCOD9256344
_publ_section_title
;
Structure prediction by ZEFSAII (Michael W. Deem and Ramdas Pophale) SiO2 
 PCOD9256344
Probable space group: C 2/C
;
_chemical_formula_sum "Si O2"
_cell_formula_units_Z 44
_cell_length_a 9.665616
_cell_length_b 9.882436
_cell_length_c 16.501944
_cell_angle_alpha 90.000000
_cell_angle_beta 99.208053
_cell_angle_gamma 90.000000
_cell_volume 1555.950846
_symmetry_space_group_name_H-M "C 2/C"
_symmetry_group_IT_number 15
_symmetry_cell_setting 'monoclinic'
loop_
_space_group_symop_operation_xyz
x,y,z
-x,y,1/2-z
-x,-y,-z
x,-y,1/2+z
1/2+x,1/2+y,z
1/2-x,1/2+y,1/2-z
1/2-x,1/2-y,-z
1/2+x,1/2-y,1/2+z
loop_
_atom_site_type_symbol
_atom_site_label
_atom_site_fract_x
_atom_site_fract_y
_atom_site_fract_z
Si Si1 0.500000 0.144734 0.750000
Si Si2 0.740567 0.923849 0.794438
Si Si3 0.509419 0.786059 0.070987
Si Si4 0.250000 0.750000 0.000000
Si Si5 0.594202 0.233751 0.151838
Si Si6 0.649921 0.063369 0.448625
Si Si7 0.500000 0.452007 0.250000
O O1 0.466202 0.215875 0.832027
O O2 0.634086 0.050472 0.779770
O O3 0.660536 0.801488 0.745039
O O4 0.769628 0.908378 0.893504
O O5 0.863423 0.958918 0.745450
O O6 0.411138 0.670781 0.027703
O O7 0.376481 0.902355 0.038718
O O8 0.633576 0.852597 0.029881
O O9 0.212534 0.738349 0.096071
O O10 0.487367 0.117385 0.112765
O O11 0.509024 0.367569 0.166846
#
# Coordination Sequence:
#
# PCOD9256344 Si02
#       7
#     4   8   8   4   8   8   4
#     4  10  17  36  61  92 124 176 225 262 345 400
#     4  11  20  38  64  96 132 181 220 283 335 400
#     4   9  17  30  58 101 120 172 226 271 325 408
#     4  10  22  34  64 100 132 172 234 274 342 406
#     4  11  19  41  64  93 133 176 219 281 332 406
#     4   9  16  33  63  88 125 170 219 263 333 391
#     4  12  25  38  69 104 134 176 231 274 341 406
#
# _framework density 28.278528999999999
#
# number of rings (size 3 to 8) (size 9 to 14) (size 15 to 20)
#    0.000    1.818    5.455    2.182    0.000    0.000 
#    0.000    4.545    0.000    2.182    0.000    0.000 
#    0.000    0.000    0.000    0.000    0.000    0.000 
#
# Total GULP energy -122735.104993 kJ/mol
# GULP energy per Si atom -5578.868409 kJ/mol
# Density = 2.821417 g / cm^3
# Si number density = 28.278529 Si / 1000 Ang^3
#
#
#
# Elastic Constant Matrix: (Units=GPa)
#
#
# Indices 1 2 3 4 5 6 
#
# 1 81.9873 17.3172 20.1516 0.0000 -38.1384 0.0000
# 2 17.3172 68.9049 35.8669 0.0000 -7.5015 0.0000
# 3 20.1516 35.8669 223.3443 0.0000 -35.6100 0.0000
# 4 0.0000 0.0000 0.0000 37.6680 0.0000 -11.5379
# 5 -38.1384 -7.5015 -35.6100 0.0000 65.5987 0.0000
# 6 0.0000 0.0000 0.0000 -11.5379 0.0000 36.4387
#
#
#
# Elastic Compliance Matrix: (Units=1/GPa)
#
#
# Indices 1 2 3 4 5 6 
#
# 1 0.017508 -0.003619 0.000611 0.000000 0.010097 0.000000
# 2 -0.003619 0.016598 -0.002597 0.000000 -0.001616 0.000000
# 3 0.000611 -0.002597 0.005308 0.000000 0.002940 0.000000
# 4 0.000000 0.000000 0.000000 0.029399 0.000000 0.009309
# 5 0.010097 -0.001616 0.002940 0.000000 0.022526 0.000000
# 6 0.000000 0.000000 0.000000 0.009309 0.000000 0.030391
#
#
# Mechanical properties :
#
#
# Convention : Reuss Voigt Hill
#
# Bulk Modulus (GPa) = 35.45415 57.87866 46.66640
# Shear Modulus (GPa) = 35.12720 48.00115 41.56417
#
# Velocity S-wave (km/s) = 3.52829 4.12447 3.83797
# Velocity P-wave (km/s) = 5.40029 6.57217 6.01484
#
# Compressibility (1/GPa) = 0.02820545
#
# Stress axis : x y z
#
# Youngs Moduli (GPa) = 57.11666 60.24829 188.39685
#
# Poissons Ratio (x) = 0.21804 -0.11518
# Poissons Ratio (y) = 0.20671 0.48918
# Poissons Ratio (z) = -0.03492 0.15644
#
# Static dielectric constant tensor:
#      x y z
#    x 3.014460 0.000000 0.152250 
#    y 0.000000 2.549360 0.000000 
#    z 0.152250 0.000000 2.246750 
# 
# From -- ./inp_files/188848.got.cif
#   From: 2010.05.17/outbox.cif.g08.bks.cpg/sg15_95_cif.got.tgz:188848.got - 2010.06.03 18:47:42.
