data_PCOD9256002
_publ_section_title
;
Structure prediction by ZEFSAII (Michael W. Deem and Ramdas Pophale) SiO2 
 PCOD9256002
Probable space group: C 2/C
;
_chemical_formula_sum "Si O2"
_cell_formula_units_Z 56
_cell_length_a 22.360025
_cell_length_b 19.951794
_cell_length_c 8.601733
_cell_angle_alpha 90.000000
_cell_angle_beta 132.627401
_cell_angle_gamma 90.000000
_cell_volume 2823.476750
_symmetry_space_group_name_H-M "C 2/C"
_symmetry_group_IT_number 15
_symmetry_cell_setting 'monoclinic'
loop_
_space_group_symop_operation_xyz
x,y,z
-x,y,1/2-z
-x,-y,-z
x,-y,1/2+z
1/2+x,1/2+y,z
1/2-x,1/2+y,1/2-z
1/2-x,1/2-y,-z
1/2+x,1/2-y,1/2+z
loop_
_atom_site_type_symbol
_atom_site_label
_atom_site_fract_x
_atom_site_fract_y
_atom_site_fract_z
Si Si1 0.933451 0.156139 0.516389
Si Si2 0.384338 0.588253 0.154218
Si Si3 0.231835 0.092053 0.143642
Si Si4 0.413600 0.804097 0.592792
Si Si5 0.244079 0.192672 0.622019
Si Si6 0.172519 0.972653 0.238908
Si Si7 0.822560 0.721596 0.236427
O O1 0.943792 0.135280 0.356141
O O2 0.848512 0.129046 0.434237
O O3 0.931577 0.235384 0.532521
O O4 0.000000 0.127436 0.750000
O O5 0.380693 0.520178 0.245301
O O6 0.296964 0.625877 0.015049
O O7 0.386288 0.567792 0.979483
O O8 0.221400 0.074008 0.943333
O O9 0.300733 0.148986 0.271171
O O10 0.230312 0.021975 0.236961
O O11 0.500000 0.843156 0.750000
O O12 0.329092 0.825359 0.358620
O O13 0.393422 0.786763 0.736713
O O14 0.250000 0.250000 0.500000
O O15 0.179009 0.224226 0.629291
O O16 0.750000 0.750000 0.000000
#
# Coordination Sequence:
#
# PCOD9256002 Si02
#       7
#     8   8   8   8   8   8   8
#     4  10  19  33  51  73 111 142 174 219 266 307
#     4  10  19  33  50  76 102 138 179 218 257 309
#     4  10  17  34  49  76 102 138 182 213 261 311
#     4  10  20  34  52  80 113 140 171 214 276 329
#     4  11  18  32  56  83 105 136 179 220 268 316
#     4   9  19  31  51  72 103 135 183 224 245 303
#     4  10  18  31  55  78 101 141 176 214 274 324
#
# _framework density 19.833704000000001
#
# number of rings (size 3 to 8) (size 9 to 14) (size 15 to 20)
#    0.000    2.000    4.286    2.571    0.000    0.000 
#    0.000   12.857    0.000    0.000    0.000   16.000 
#    0.000    0.000    0.000    0.000    0.000    0.000 
#
# Total GULP energy -155877.897942 kJ/mol
# GULP energy per Si atom -5567.067784 kJ/mol
# Density = 1.978856 g / cm^3
# Si number density = 19.833704 Si / 1000 Ang^3
#
#
#
# Elastic Constant Matrix: (Units=GPa)
#
#
# Indices 1 2 3 4 5 6 
#
# 1 71.0539 -3.7078 22.9662 0.0000 -1.8049 0.0000
# 2 -3.7078 38.0237 11.1414 0.0000 -10.4509 0.0000
# 3 22.9662 11.1414 95.8053 0.0000 -11.8259 0.0000
# 4 0.0000 0.0000 0.0000 33.2324 0.0000 -16.0593
# 5 -1.8049 -10.4509 -11.8259 0.0000 27.0390 0.0000
# 6 0.0000 0.0000 0.0000 -16.0593 0.0000 16.9423
#
#
#
# Elastic Compliance Matrix: (Units=1/GPa)
#
#
# Indices 1 2 3 4 5 6 
#
# 1 0.015521 0.002785 -0.004000 0.000000 0.000363 0.000000
# 2 0.002785 0.030344 -0.002881 0.000000 0.010654 0.000000
# 3 -0.004000 -0.002881 0.012221 0.000000 0.003964 0.000000
# 4 0.000000 0.000000 0.000000 0.055524 0.000000 0.052630
# 5 0.000363 0.010654 0.003964 0.000000 0.042859 0.000000
# 6 0.000000 0.000000 0.000000 0.052630 0.000000 0.108911
#
#
# Mechanical properties :
#
#
# Convention : Reuss Voigt Hill
#
# Bulk Modulus (GPa) = 20.04238 29.52025 24.78131
# Shear Modulus (GPa) = 17.22931 27.07496 22.15214
#
# Velocity S-wave (km/s) = 2.95055 3.69873 3.34562
# Velocity P-wave (km/s) = 4.66206 5.75821 5.23888
#
# Compressibility (1/GPa) = 0.04989428
#
# Stress axis : x y z
#
# Youngs Moduli (GPa) = 64.42790 32.95599 81.82579
#
# Poissons Ratio (x) = -0.09179 0.32729
# Poissons Ratio (y) = -0.17946 0.23577
# Poissons Ratio (z) = 0.25770 0.09496
#
# Static dielectric constant tensor:
#      x y z
#    x 1.801160 0.000000 0.008680 
#    y 0.000000 1.739300 0.000000 
#    z 0.008680 0.000000 1.808720 
# 
# From -- ./inp_files/49731.got.cif
#   From: 2010.05.17/outbox.cif.g08.bks.cpg/sg15_25_cif.got.tgz:49731.got - 2010.06.03 18:47:42.
