data_PCOD9256583
_publ_section_title
;
Structure prediction by ZEFSAII (Michael W. Deem and Ramdas Pophale) SiO2 
 PCOD9256583
Probable space group: C 2/C
;
_chemical_formula_sum "Si O2"
_cell_formula_units_Z 48
_cell_length_a 14.017200
_cell_length_b 35.255920
_cell_length_c 14.355865
_cell_angle_alpha 90.000000
_cell_angle_beta 159.096106
_cell_angle_gamma 90.000000
_cell_volume 2531.333385
_symmetry_space_group_name_H-M "C 2/C"
_symmetry_group_IT_number 15
_symmetry_cell_setting 'monoclinic'
loop_
_space_group_symop_operation_xyz
x,y,z
-x,y,1/2-z
-x,-y,-z
x,-y,1/2+z
1/2+x,1/2+y,z
1/2-x,1/2+y,1/2-z
1/2-x,1/2-y,-z
1/2+x,1/2-y,1/2+z
loop_
_atom_site_type_symbol
_atom_site_label
_atom_site_fract_x
_atom_site_fract_y
_atom_site_fract_z
Si Si1 0.000000 0.712817 0.750000
Si Si2 0.000000 0.163385 0.250000
Si Si3 0.695078 0.896987 0.230286
Si Si4 0.000000 0.983930 0.750000
Si Si5 0.051797 0.269463 0.509550
Si Si6 0.215216 0.980400 0.261422
Si Si7 0.204516 0.853004 0.745730
Si Si8 0.000000 0.570915 0.750000
O O1 0.732867 0.687226 0.514584
O O2 0.936095 0.733147 0.593536
O O3 0.139018 0.140989 0.295282
O O4 0.777313 0.936544 0.259875
O O5 0.596153 0.905691 0.246316
O O6 0.934664 0.866252 0.449837
O O7 0.448334 0.880472 0.947161
O O8 0.886885 0.010198 0.728839
O O9 0.753118 0.956230 0.500609
O O10 0.181057 0.310000 0.653468
O O11 0.737156 0.261015 0.231920
O O12 0.500000 0.000000 0.500000
O O13 0.000000 0.000000 0.000000
#
# Coordination Sequence:
#
# PCOD9256583 Si02
#       8
#     4   4   8   4   8   8   8   4
#     4  10  18  28  44  63  88 130 182 234 274 314
#     4  10  18  32  44  63  98 132 178 232 274 320
#     4  12  22  36  54  79 109 145 183 234 286 331
#     4  12  22  41  60  87 112 145 194 239 270 342
#     4  11  20  32  47  65  93 137 185 231 276 326
#     4  12  23  41  61  86 114 150 189 231 288 340
#     4  11  22  34  48  72 104 138 183 233 283 327
#     4  12  22  35  60  81 108 151 188 239 290 318
#
# _framework density 18.962339
#
# number of rings (size 3 to 8) (size 9 to 14) (size 15 to 20)
#    0.000    0.667    3.333    8.500    0.000    1.333 
#    0.000    0.000    0.000    0.000    0.000    0.000 
#    0.000    0.000    0.000   15.000    0.000    0.000 
#
# Total GULP energy -133919.265251 kJ/mol
# GULP energy per Si atom -5579.969385 kJ/mol
# Density = 1.891918 g / cm^3
# Si number density = 18.962339 Si / 1000 Ang^3
#
#
#
# Elastic Constant Matrix: (Units=GPa)
#
#
# Indices 1 2 3 4 5 6 
#
# 1 58.6527 14.8429 25.6373 0.0002 6.7615 0.0000
# 2 14.8429 73.5399 44.3989 0.0020 11.1307 0.0002
# 3 25.6373 44.3989 149.0525 0.0087 26.4570 0.0018
# 4 0.0002 0.0020 0.0087 57.6859 0.0013 7.5527
# 5 6.7615 11.1307 26.4570 0.0013 14.2779 0.0002
# 6 0.0000 0.0002 0.0018 7.5527 0.0002 22.9949
#
#
#
# Elastic Compliance Matrix: (Units=1/GPa)
#
#
# Indices 1 2 3 4 5 6 
#
# 1 0.018858 -0.002056 -0.001983 0.000000 -0.003654 0.000000
# 2 -0.002056 0.017113 -0.003798 0.000000 -0.005330 0.000000
# 3 -0.001983 -0.003798 0.011160 -0.000001 -0.016779 0.000000
# 4 0.000000 0.000000 -0.000001 0.018114 0.000000 -0.005950
# 5 -0.003654 -0.005330 -0.016779 0.000000 0.107015 0.000000
# 6 0.000000 0.000000 0.000000 -0.005950 0.000000 0.045442
#
#
# Mechanical properties :
#
#
# Convention : Reuss Voigt Hill
#
# Bulk Modulus (GPa) = 31.78946 50.11149 40.95047
# Shear Modulus (GPa) = 20.50357 32.08282 26.29319
#
# Velocity S-wave (km/s) = 3.29185 4.11776 3.72775
# Velocity P-wave (km/s) = 5.59010 7.00658 6.33804
#
# Compressibility (1/GPa) = 0.03145697
#
# Stress axis : x y z
#
# Youngs Moduli (GPa) = 53.02894 58.43658 89.60845
#
# Poissons Ratio (x) = 0.12016 0.17765
# Poissons Ratio (y) = 0.10904 0.34031
# Poissons Ratio (z) = 0.10513 0.22193
#
# Static dielectric constant tensor:
#      x y z
#    x 1.626790 0.000000 0.032450 
#    y 0.000000 1.698660 0.000000 
#    z 0.032450 0.000000 1.709200 
# 
# From -- ./inp_files/8747.got.cif
#   From: 2010.05.17/outbox.cif.g08.bks.cpg/sg15_5_cif.got.tgz:8747.got - 2010.06.03 18:47:42.
