data_PCOD9256496
_publ_section_title
;
Structure prediction by ZEFSAII (Michael W. Deem and Ramdas Pophale) SiO2 
 PCOD9256496
Probable space group: C 2/C
;
_chemical_formula_sum "Si O2"
_cell_formula_units_Z 48
_cell_length_a 29.291912
_cell_length_b 8.784478
_cell_length_c 8.048862
_cell_angle_alpha 90.000000
_cell_angle_beta 92.510666
_cell_angle_gamma 90.000000
_cell_volume 2069.098068
_symmetry_space_group_name_H-M "C 2/C"
_symmetry_group_IT_number 15
_symmetry_cell_setting 'monoclinic'
loop_
_space_group_symop_operation_xyz
x,y,z
-x,y,1/2-z
-x,-y,-z
x,-y,1/2+z
1/2+x,1/2+y,z
1/2-x,1/2+y,1/2-z
1/2-x,1/2-y,-z
1/2+x,1/2-y,1/2+z
loop_
_atom_site_type_symbol
_atom_site_label
_atom_site_fract_x
_atom_site_fract_y
_atom_site_fract_z
Si Si1 0.645345 0.310522 0.216891
Si Si2 0.452276 0.758040 0.783935
Si Si3 0.801576 0.212020 0.457063
Si Si4 0.144272 0.555704 0.725375
Si Si5 0.799131 0.781963 0.585633
Si Si6 0.953003 0.584460 0.647760
O O1 0.592035 0.347895 0.229013
O O2 0.675046 0.359327 0.378492
O O3 0.644250 0.124510 0.209378
O O4 0.668779 0.355934 0.048272
O O5 0.500000 0.677914 0.750000
O O6 0.451026 0.898898 0.651270
O O7 0.452361 0.841089 0.965304
O O8 0.750000 0.250000 0.500000
O O9 0.835487 0.354677 0.428039
O O10 0.797524 0.144507 0.269516
O O11 0.179186 0.617971 0.868139
O O12 0.094215 0.620099 0.764584
O O13 0.750000 0.750000 0.500000
O O14 0.000000 0.625314 0.750000
#
# Coordination Sequence:
#
# PCOD9256496 Si02
#       6
#     8   8   8   8   8   8
#     4  11  18  32  44  61  83 108 152 177 201 246
#     4  10  19  25  37  57  80 107 137 177 206 233
#     4  10  20  29  44  59  79 109 140 177 218 249
#     4   9  20  29  44  62  79 112 147 179 204 240
#     4  10  19  31  42  59  82 106 140 180 214 249
#     4  10  18  26  37  56  81 107 136 176 209 231
#
# _framework density 23.198513999999999
#
# number of rings (size 3 to 8) (size 9 to 14) (size 15 to 20)
#    1.000    1.000    3.333    3.000    9.333    0.000 
#    0.000    0.000    0.000    0.000    0.000    0.000 
#    0.000    0.000    0.000    0.000    0.000  116.667 
#
# Total GULP energy -133835.620977 kJ/mol
# GULP energy per Si atom -5576.484207 kJ/mol
# Density = 2.314571 g / cm^3
# Si number density = 23.198514 Si / 1000 Ang^3
#
#
#
# Elastic Constant Matrix: (Units=GPa)
#
#
# Indices 1 2 3 4 5 6 
#
# 1 208.9126 11.4894 79.1220 0.0000 -26.6095 0.0000
# 2 11.4894 42.9013 26.8030 0.0000 -11.2229 0.0000
# 3 79.1220 26.8030 196.1269 0.0000 -12.7589 0.0000
# 4 0.0000 0.0000 0.0000 28.7812 0.0000 -8.9190
# 5 -26.6095 -11.2229 -12.7589 0.0000 47.9043 0.0000
# 6 0.0000 0.0000 0.0000 -8.9190 0.0000 -43.2170
#
#
#
# Elastic Compliance Matrix: (Units=1/GPa)
#
#
# Indices 1 2 3 4 5 6 
#
# 1 0.005993 0.000585 -0.002312 0.000000 0.002850 0.000000
# 2 0.000585 0.026846 -0.003536 0.000000 0.005673 0.000000
# 3 -0.002312 -0.003536 0.006490 0.000000 -0.000384 0.000000
# 4 0.000000 0.000000 0.000000 0.032656 0.000000 -0.006740
# 5 0.002850 0.005673 -0.000384 0.000000 0.023685 0.000000
# 6 0.000000 0.000000 0.000000 -0.006740 0.000000 -0.021748
#
#
# Mechanical properties :
#
#
# Convention : Reuss Voigt Hill
#
# Bulk Modulus (GPa) = 34.71887 75.86330 55.29108
# Shear Modulus (GPa) = 53.16399 28.72881 40.94640
#
# Velocity S-wave (km/s) = 4.79236 3.52289 4.20580
# Velocity P-wave (km/s) = 6.75432 7.02286 6.88989
#
# Compressibility (1/GPa) = 0.02880278
#
# Stress axis : x y z
#
# Youngs Moduli (GPa) = 166.85186 37.25011 154.08736
#
# Poissons Ratio (x) = -0.02180 0.35631
# Poissons Ratio (y) = -0.09765 0.54483
# Poissons Ratio (z) = 0.38583 0.13171
#
# Static dielectric constant tensor:
#      x y z
#    x 1.903680 0.000000 0.010440 
#    y 0.000000 1.940880 0.000000 
#    z 0.010440 0.000000 1.889730 
# 
# From -- ./inp_files/62081.got.cif
#   From: 2010.05.17/outbox.cif.g08.bks.cpg/sg15_32_cif.got.tgz:62081.got - 2010.06.03 18:47:42.
