data_PCOD9256769
_publ_section_title
;
Structure prediction by ZEFSAII (Michael W. Deem and Ramdas Pophale) SiO2 
 PCOD9256769
Probable space group: C 2/C
;
_chemical_formula_sum "Si O2"
_cell_formula_units_Z 60
_cell_length_a 6.430872
_cell_length_b 23.996710
_cell_length_c 28.589256
_cell_angle_alpha 90.000000
_cell_angle_beta 120.136495
_cell_angle_gamma 90.000000
_cell_volume 3815.540558
_symmetry_space_group_name_H-M "C 2/C"
_symmetry_group_IT_number 15
_symmetry_cell_setting 'monoclinic'
loop_
_space_group_symop_operation_xyz
x,y,z
-x,y,1/2-z
-x,-y,-z
x,-y,1/2+z
1/2+x,1/2+y,z
1/2-x,1/2+y,1/2-z
1/2-x,1/2-y,-z
1/2+x,1/2-y,1/2+z
loop_
_atom_site_type_symbol
_atom_site_label
_atom_site_fract_x
_atom_site_fract_y
_atom_site_fract_z
Si Si1 0.345274 0.402117 0.925991
Si Si2 0.905881 0.284629 0.582895
Si Si3 0.501448 0.581069 0.161299
Si Si4 0.939794 0.478224 0.917793
Si Si5 0.634295 0.081506 0.990185
Si Si6 0.759035 0.176706 0.197394
Si Si7 0.000000 0.610041 0.250000
Si Si8 0.031612 0.289802 0.489553
O O1 0.237436 0.342855 0.927919
O O2 0.442958 0.397006 0.884417
O O3 0.139083 0.448236 0.908421
O O4 0.576690 0.420264 0.981981
O O5 0.711867 0.235339 0.559841
O O6 0.103983 0.283663 0.646219
O O7 0.019975 0.286620 0.544444
O O8 0.321120 0.529666 0.134789
O O9 0.361359 0.627204 0.175869
O O10 0.764119 0.573765 0.212840
O O11 0.010214 0.540572 0.939294
O O12 0.932646 0.443117 0.965928
O O13 0.564657 0.146003 0.979512
O O14 0.581762 0.149336 0.215968
O O15 0.000000 0.199737 0.250000
O O16 0.250000 0.250000 0.500000
#
# Coordination Sequence:
#
# PCOD9256769 Si02
#       8
#     8   8   8   8   8   8   4   8
#     4  11  17  31  50  70 105 133 166 208 252 305
#     4  11  20  33  50  75 106 138 175 210 262 314
#     4  10  18  29  48  75 101 131 159 206 265 310
#     4  10  19  31  49  69 103 135 164 214 246 303
#     4  10  20  32  46  72  99 137 177 201 251 297
#     4  10  20  32  51  75 107 133 168 214 266 318
#     4  10  18  30  50  76 104 132 162 212 270 324
#     4  11  22  33  51  72 107 147 173 212 254 311
#
# _framework density 15.725165000000001
#
# number of rings (size 3 to 8) (size 9 to 14) (size 15 to 20)
#    0.000    1.600    5.333    1.200    0.000    0.000 
#    0.000    0.000    0.000    0.000    1.733    0.000 
#   10.000    0.000    0.000    0.000    0.000    0.000 
#
# Total GULP energy -167222.528753 kJ/mol
# GULP energy per Si atom -5574.084292 kJ/mol
# Density = 1.568937 g / cm^3
# Si number density = 15.725165 Si / 1000 Ang^3
#
#
#
# Elastic Constant Matrix: (Units=GPa)
#
#
# Indices 1 2 3 4 5 6 
#
# 1 103.0309 36.5425 42.7299 0.0000 4.1278 0.0000
# 2 36.5425 91.6842 37.4544 0.0000 12.7143 0.0000
# 3 42.7299 37.4544 110.0371 0.0000 26.8157 0.0000
# 4 0.0000 0.0000 0.0000 26.3630 0.0000 5.2192
# 5 4.1278 12.7143 26.8157 0.0000 33.0114 0.0000
# 6 0.0000 0.0000 0.0000 5.2192 0.0000 15.3947
#
#
#
# Elastic Compliance Matrix: (Units=1/GPa)
#
#
# Indices 1 2 3 4 5 6 
#
# 1 0.012773 -0.003720 -0.004555 0.000000 0.003536 0.000000
# 2 -0.003720 0.013831 -0.002591 0.000000 -0.002757 0.000000
# 3 -0.004555 -0.002591 0.014160 0.000000 -0.009935 0.000000
# 4 0.000000 0.000000 0.000000 0.040661 0.000000 -0.013785
# 5 0.003536 -0.002757 -0.009935 0.000000 0.038982 0.000000
# 6 0.000000 0.000000 0.000000 -0.013785 0.000000 0.069631
#
#
# Mechanical properties :
#
#
# Convention : Reuss Voigt Hill
#
# Bulk Modulus (GPa) = 52.54981 59.80064 56.17522
# Shear Modulus (GPa) = 22.92370 27.48885 25.20628
#
# Velocity S-wave (km/s) = 3.82222 4.18554 4.00800
# Velocity P-wave (km/s) = 7.27800 7.84025 7.56435
#
# Compressibility (1/GPa) = 0.01902957
#
# Stress axis : x y z
#
# Youngs Moduli (GPa) = 78.29054 72.30330 70.62219
#
# Poissons Ratio (x) = 0.26899 0.32172
# Poissons Ratio (y) = 0.29126 0.18299
# Poissons Ratio (z) = 0.35665 0.18735
#
# Static dielectric constant tensor:
#      x y z
#    x 1.548440 0.000000 0.014600 
#    y 0.000000 1.487330 0.000000 
#    z 0.014600 0.000000 1.564870 
# 
# From -- ./inp_files/261915.got.cif
#   From: 2010.05.17/outbox.cif.g08.bks.cpg/sg15_131_cif.got.tgz:261915.got - 2010.06.03 18:47:42.
