data_PCOD9256238
_publ_section_title
;
Structure prediction by ZEFSAII (Michael W. Deem and Ramdas Pophale) SiO2 
 PCOD9256238
Probable space group: C 2/C
;
_chemical_formula_sum "Si O2"
_cell_formula_units_Z 44
_cell_length_a 23.115814
_cell_length_b 17.120059
_cell_length_c 15.078580
_cell_angle_alpha 90.000000
_cell_angle_beta 163.216106
_cell_angle_gamma 90.000000
_cell_volume 1723.121722
_symmetry_space_group_name_H-M "C 2/C"
_symmetry_group_IT_number 15
_symmetry_cell_setting 'monoclinic'
loop_
_space_group_symop_operation_xyz
x,y,z
-x,y,1/2-z
-x,-y,-z
x,-y,1/2+z
1/2+x,1/2+y,z
1/2-x,1/2+y,1/2-z
1/2-x,1/2-y,-z
1/2+x,1/2-y,1/2+z
loop_
_atom_site_type_symbol
_atom_site_label
_atom_site_fract_x
_atom_site_fract_y
_atom_site_fract_z
Si Si1 0.500000 0.119627 0.250000
Si Si2 0.485106 0.183590 0.047333
Si Si3 0.775003 0.950316 0.412917
Si Si4 0.296777 0.510165 0.257753
Si Si5 0.725362 0.876008 0.513465
Si Si6 0.070614 0.754003 0.999498
O O1 0.426504 0.169402 0.226236
O O2 0.667570 0.064046 0.537752
O O3 0.403521 0.102373 0.887153
O O4 0.616873 0.222599 0.165578
O O5 0.276142 0.230981 0.750467
O O6 0.717352 0.950016 0.432577
O O7 0.807269 0.012787 0.380566
O O8 0.000000 0.914973 0.750000
O O9 0.500000 0.500000 0.500000
O O10 0.204123 0.587945 0.079469
O O11 0.941549 0.833049 0.823022
O O12 0.576132 0.807898 0.262840
#
# Coordination Sequence:
#
# PCOD9256238 Si02
#       6
#     4   8   8   8   8   8
#     4  10  24  42  60  86 134 170 214 266 338 398
#     4  10  21  39  60  92 122 174 213 266 333 381
#     4  10  17  35  62  86 122 169 207 257 331 391
#     4  11  21  37  65  90 121 170 209 258 327 397
#     4  10  20  35  61  96 124 159 220 267 321 382
#     4  10  21  36  66  91 127 166 217 270 314 386
#
# _framework density 25.535049999999998
#
# number of rings (size 3 to 8) (size 9 to 14) (size 15 to 20)
#    0.000    1.818    3.636    1.091    0.000    2.182 
#    0.000   10.000    2.000    0.000    0.000    0.000 
#    0.000    0.000    0.000    0.000    0.000    0.000 
#
# Total GULP energy -122909.025842 kJ/mol
# GULP energy per Si atom -5586.773902 kJ/mol
# Density = 2.547693 g / cm^3
# Si number density = 25.535050 Si / 1000 Ang^3
#
#
#
# Elastic Constant Matrix: (Units=GPa)
#
#
# Indices 1 2 3 4 5 6 
#
# 1 135.5630 41.7566 -9.6243 0.0000 -28.4148 0.0000
# 2 41.7566 65.8817 9.2679 0.0000 -20.8961 0.0000
# 3 -9.6243 9.2679 43.1636 0.0000 -7.5873 0.0000
# 4 0.0000 0.0000 0.0000 26.7630 0.0000 -16.3668
# 5 -28.4148 -20.8961 -7.5873 0.0000 49.9142 0.0000
# 6 0.0000 0.0000 0.0000 -16.3668 0.0000 19.0291
#
#
#
# Elastic Compliance Matrix: (Units=1/GPa)
#
#
# Indices 1 2 3 4 5 6 
#
# 1 0.010343 -0.005862 0.004283 0.000000 0.004085 0.000000
# 2 -0.005862 0.021100 -0.005005 0.000000 0.004735 0.000000
# 3 0.004283 -0.005005 0.025951 0.000000 0.004287 0.000000
# 4 0.000000 0.000000 0.000000 0.078826 0.000000 0.067798
# 5 0.004085 0.004735 0.004287 0.000000 0.024994 0.000000
# 6 0.000000 0.000000 0.000000 0.067798 0.000000 0.110863
#
#
# Mechanical properties :
#
#
# Convention : Reuss Voigt Hill
#
# Bulk Modulus (GPa) = 22.61191 36.37876 29.49533
# Shear Modulus (GPa) = 16.66733 32.68848 24.67791
#
# Velocity S-wave (km/s) = 2.55762 3.58179 3.11212
# Velocity P-wave (km/s) = 4.19480 5.60207 4.94871
#
# Compressibility (1/GPa) = 0.04422449
#
# Stress axis : x y z
#
# Youngs Moduli (GPa) = 96.68794 47.39267 38.53422
#
# Poissons Ratio (x) = 0.27782 -0.16503
# Poissons Ratio (y) = 0.56680 0.19287
# Poissons Ratio (z) = -0.41409 0.23721
#
# Static dielectric constant tensor:
#      x y z
#    x 2.048620 0.000000 0.020180 
#    y 0.000000 2.056480 0.000000 
#    z 0.020180 0.000000 2.053710 
# 
# From -- ./inp_files/174285.got.cif
#   From: 2010.05.17/outbox.cif.g08.bks.cpg/sg15_88_cif.got.tgz:174285.got - 2010.06.03 18:47:42.
