data_PCOD9256566
_publ_section_title
;
Structure prediction by ZEFSAII (Michael W. Deem and Ramdas Pophale) SiO2 
 PCOD9256566
Probable space group: C 2/C
;
_chemical_formula_sum "Si O2"
_cell_formula_units_Z 40
_cell_length_a 18.395072
_cell_length_b 20.981198
_cell_length_c 20.335419
_cell_angle_alpha 90.000000
_cell_angle_beta 160.856156
_cell_angle_gamma 90.000000
_cell_volume 2573.833696
_symmetry_space_group_name_H-M "C 2/C"
_symmetry_group_IT_number 15
_symmetry_cell_setting 'monoclinic'
loop_
_space_group_symop_operation_xyz
x,y,z
-x,y,1/2-z
-x,-y,-z
x,-y,1/2+z
1/2+x,1/2+y,z
1/2-x,1/2+y,1/2-z
1/2-x,1/2-y,-z
1/2+x,1/2-y,1/2+z
loop_
_atom_site_type_symbol
_atom_site_label
_atom_site_fract_x
_atom_site_fract_y
_atom_site_fract_z
Si Si1 0.200418 0.831037 0.012842
Si Si2 0.299000 0.192424 0.450091
Si Si3 0.337195 0.027791 0.669803
Si Si4 0.612502 0.508795 0.667367
Si Si5 0.005172 0.576429 0.949027
O O1 0.330344 0.817666 0.055324
O O2 0.943453 0.834016 0.773128
O O3 0.210469 0.768418 0.067304
O O4 0.265862 0.898894 0.096541
O O5 0.461103 0.148506 0.546575
O O6 0.500000 0.008576 0.750000
O O7 0.462238 0.032645 0.847024
O O8 0.106621 0.988704 0.474787
O O9 0.500000 0.500000 0.500000
O O10 0.789084 0.565995 0.809748
O O11 0.774880 0.450919 0.827729
#
# Coordination Sequence:
#
# PCOD9256566 Si02
#       5
#     8   8   8   8   8
#     4  10  19  27  40  68  96 124 162 191 229 279
#     4  10  18  28  42  62  97 130 157 195 230 273
#     4  11  19  29  46  67  93 123 159 199 237 280
#     4   9  20  33  45  62  83 122 170 206 239 275
#     4  10  18  32  47  61  88 125 166 201 238 278
#
# _framework density 15.54102
#
# number of rings (size 3 to 8) (size 9 to 14) (size 15 to 20)
#    0.000    2.000    4.000    1.200    2.800    0.800 
#    0.000    0.000    0.000    0.000    0.000    0.000 
#    0.000    0.000    0.000   28.800   24.000   48.800 
#
# Total GULP energy -111355.550862 kJ/mol
# GULP energy per Si atom -5567.777543 kJ/mol
# Density = 1.550565 g / cm^3
# Si number density = 15.541020 Si / 1000 Ang^3
#
#
#
# Elastic Constant Matrix: (Units=GPa)
#
#
# Indices 1 2 3 4 5 6 
#
# 1 62.6376 33.8155 40.8757 0.0059 19.9105 0.0190
# 2 33.8155 58.3718 20.2209 0.0077 16.4016 0.0205
# 3 40.8757 20.2209 99.0548 0.0644 10.8955 0.0273
# 4 0.0059 0.0077 0.0644 26.5852 0.0003 7.4234
# 5 19.9105 16.4016 10.8955 0.0003 40.1712 0.0052
# 6 0.0190 0.0205 0.0273 7.4234 0.0052 26.6191
#
#
#
# Elastic Compliance Matrix: (Units=1/GPa)
#
#
# Indices 1 2 3 4 5 6 
#
# 1 0.031611 -0.012792 -0.009570 0.000022 -0.007849 -0.000008
# 2 -0.012792 0.025549 0.000529 -0.000003 -0.004235 -0.000009
# 3 -0.009570 0.000529 0.013852 -0.000032 0.000770 0.000001
# 4 0.000022 -0.000003 -0.000032 0.040791 0.000000 -0.011376
# 5 -0.007849 -0.004235 0.000770 0.000000 0.030304 0.000002
# 6 -0.000008 -0.000009 0.000001 -0.011376 0.000002 0.040739
#
#
# Mechanical properties :
#
#
# Convention : Reuss Voigt Hill
#
# Bulk Modulus (GPa) = 36.56857 45.54314 41.05585
# Shear Modulus (GPa) = 21.22007 27.01857 24.11932
#
# Velocity S-wave (km/s) = 3.69917 4.17409 3.94379
# Velocity P-wave (km/s) = 6.46735 7.25255 6.87118
#
# Compressibility (1/GPa) = 0.02734589
#
# Stress axis : x y z
#
# Youngs Moduli (GPa) = 31.63504 39.14101 72.19309
#
# Poissons Ratio (x) = 0.50068 0.69086
# Poissons Ratio (y) = 0.40467 -0.03819
# Poissons Ratio (z) = 0.30274 -0.02070
#
# Static dielectric constant tensor:
#      x y z
#    x 1.549530 -0.000030 -0.000730 
#    y -0.000030 1.512570 -0.000070 
#    z -0.000730 -0.000070 1.613080 
# 
# From -- ./inp_files/47716.got.cif
#   From: 2010.05.17/outbox.cif.g08.bks.cpg/sg15_24_cif.got.tgz:47716.got - 2010.06.03 18:47:42.
