data_PCOD9256048
_publ_section_title
;
Structure prediction by ZEFSAII (Michael W. Deem and Ramdas Pophale) SiO2 
 PCOD9256048
Probable space group: C 2/C
;
_chemical_formula_sum "Si O2"
_cell_formula_units_Z 44
_cell_length_a 7.757800
_cell_length_b 26.792624
_cell_length_c 7.912164
_cell_angle_alpha 90.000000
_cell_angle_beta 100.866371
_cell_angle_gamma 90.000000
_cell_volume 1615.069984
_symmetry_space_group_name_H-M "C 2/C"
_symmetry_group_IT_number 15
_symmetry_cell_setting 'monoclinic'
loop_
_space_group_symop_operation_xyz
x,y,z
-x,y,1/2-z
-x,-y,-z
x,-y,1/2+z
1/2+x,1/2+y,z
1/2-x,1/2+y,1/2-z
1/2-x,1/2-y,-z
1/2+x,1/2-y,1/2+z
loop_
_atom_site_type_symbol
_atom_site_label
_atom_site_fract_x
_atom_site_fract_y
_atom_site_fract_z
Si Si1 0.302969 0.712196 0.355009
Si Si2 0.210501 0.100538 0.247490
Si Si3 0.130806 0.206022 0.620718
Si Si4 0.216247 0.396457 0.364329
Si Si5 0.340408 0.962376 0.461971
Si Si6 0.500000 0.457629 0.250000
O O1 0.250000 0.750000 0.500000
O O2 0.247128 0.654714 0.328688
O O3 0.210887 0.741230 0.184739
O O4 0.509809 0.706973 0.433102
O O5 0.313757 0.094730 0.443388
O O6 0.285448 0.061211 0.127882
O O7 0.000000 0.098964 0.250000
O O8 0.275142 0.162990 0.647934
O O9 0.000000 0.191398 0.750000
O O10 0.132426 0.420610 0.179122
O O11 0.411176 0.420853 0.369811
O O12 0.158337 0.987594 0.362083
O O13 0.500000 0.000000 0.500000
#
# Coordination Sequence:
#
# PCOD9256048 Si02
#       6
#     8   8   8   8   8   4
#     4  10  21  33  59  95 151 229 294 344 412 512
#     4  12  19  36  62  93 143 232 295 342 430 518
#     4  10  17  34  55  91 147 223 287 334 407 503
#     4  10  18  34  59  87 144 217 291 344 425 524
#     4  10  20  35  59  95 144 210 293 375 453 523
#     4   8  16  34  54  90 140 214 272 362 434 526
#
# _framework density 27.243402
#
# number of rings (size 3 to 8) (size 9 to 14) (size 15 to 20)
#    1.091    0.727    4.545    2.182    0.000    1.455 
#    0.000    0.000    0.000    0.000    0.000    0.000 
#    0.000   23.273  123.636   95.455    1.818   16.545 
#
# Total GULP energy -123073.482850 kJ/mol
# GULP energy per Si atom -5594.249220 kJ/mol
# Density = 2.718139 g / cm^3
# Si number density = 27.243402 Si / 1000 Ang^3
#
#
#
# Elastic Constant Matrix: (Units=GPa)
#
#
# Indices 1 2 3 4 5 6 
#
# 1 94.0006 66.8422 81.2275 0.0000 -13.5796 0.0000
# 2 66.8422 178.9243 84.3952 0.0000 8.8640 0.0000
# 3 81.2275 84.3952 238.2227 0.0000 14.7317 0.0000
# 4 0.0000 0.0000 0.0000 50.2058 0.0000 5.5614
# 5 -13.5796 8.8640 14.7317 0.0000 62.8647 0.0000
# 6 0.0000 0.0000 0.0000 5.5614 0.0000 36.9068
#
#
#
# Elastic Compliance Matrix: (Units=1/GPa)
#
#
# Indices 1 2 3 4 5 6 
#
# 1 0.019836 -0.005220 -0.005302 0.000000 0.006263 0.000000
# 2 -0.005220 0.008094 -0.000961 0.000000 -0.002044 0.000000
# 3 -0.005302 -0.000961 0.006503 0.000000 -0.002534 0.000000
# 4 0.000000 0.000000 0.000000 0.020256 0.000000 -0.003052
# 5 0.006263 -0.002044 -0.002534 0.000000 0.018142 0.000000
# 6 0.000000 0.000000 0.000000 -0.003052 0.000000 0.027555
#
#
# Mechanical properties :
#
#
# Convention : Reuss Voigt Hill
#
# Bulk Modulus (GPa) = 87.20681 108.45304 97.82992
# Shear Modulus (GPa) = 39.31648 48.57430 43.94539
#
# Velocity S-wave (km/s) = 3.80301 4.22711 4.02066
# Velocity P-wave (km/s) = 7.16684 7.98248 7.58563
#
# Compressibility (1/GPa) = 0.01146699
#
# Stress axis : x y z
#
# Youngs Moduli (GPa) = 50.41327 123.55493 153.78426
#
# Poissons Ratio (x) = 0.64495 0.81530
# Poissons Ratio (y) = 0.26315 0.14780
# Poissons Ratio (z) = 0.26727 0.11875
#
# Static dielectric constant tensor:
#      x y z
#    x 2.938910 0.000000 -0.220190 
#    y 0.000000 2.107010 0.000000 
#    z -0.220190 0.000000 2.257840 
# 
# From -- ./inp_files/26261.got.cif
#   From: 2010.05.17/outbox.cif.g08.bks.cpg/sg15_14_cif.got.tgz:26261.got - 2010.06.03 18:47:42.
