data_PCOD9256584
_publ_section_title
;
Structure prediction by ZEFSAII (Michael W. Deem and Ramdas Pophale) SiO2 
 PCOD9256584
Probable space group: C 2/C
;
_chemical_formula_sum "Si O2"
_cell_formula_units_Z 56
_cell_length_a 27.251952
_cell_length_b 11.646121
_cell_length_c 29.121093
_cell_angle_alpha 90.000000
_cell_angle_beta 158.651695
_cell_angle_gamma 90.000000
_cell_volume 3364.585938
_symmetry_space_group_name_H-M "C 2/C"
_symmetry_group_IT_number 15
_symmetry_cell_setting 'monoclinic'
loop_
_space_group_symop_operation_xyz
x,y,z
-x,y,1/2-z
-x,-y,-z
x,-y,1/2+z
1/2+x,1/2+y,z
1/2-x,1/2+y,1/2-z
1/2-x,1/2-y,-z
1/2+x,1/2-y,1/2+z
loop_
_atom_site_type_symbol
_atom_site_label
_atom_site_fract_x
_atom_site_fract_y
_atom_site_fract_z
Si Si1 0.452106 0.595495 0.405767
Si Si2 0.843255 0.590584 0.617199
Si Si3 0.760745 0.946437 0.375405
Si Si4 0.979381 0.665904 0.496156
Si Si5 0.275575 0.327424 0.667895
Si Si6 0.652026 0.369617 0.869268
Si Si7 0.823693 0.484568 0.793751
O O1 0.583867 0.530332 0.502504
O O2 0.496334 0.699068 0.477965
O O3 0.387222 0.652413 0.303844
O O4 0.330505 0.528080 0.323722
O O5 0.779093 0.532674 0.606589
O O6 0.756504 0.572955 0.495531
O O7 0.839781 0.730121 0.619373
O O8 0.000000 0.558229 0.750000
O O9 0.739455 0.808974 0.351904
O O10 0.674595 0.003585 0.259613
O O11 0.867050 0.632473 0.436298
O O12 0.912273 0.620947 0.390762
O O13 0.111985 0.595879 0.625579
O O14 0.313513 0.389122 0.653814
O O15 0.500000 0.402103 0.750000
#
# Coordination Sequence:
#
# PCOD9256584 Si02
#       7
#     8   8   8   8   8   8   8
#     4  10  18  31  46  68  90 126 157 193 230 279
#     4   9  18  26  39  61  89 123 157 189 219 267
#     4  10  18  28  44  63  92 124 160 186 225 272
#     4   9  19  31  45  66  93 123 158 191 235 279
#     4   9  17  27  46  61  92 129 157 181 224 279
#     4   9  16  26  39  61  88 123 160 186 214 263
#     4  10  19  31  46  66  90 124 159 196 232 277
#
# _framework density 16.64395
#
# number of rings (size 3 to 8) (size 9 to 14) (size 15 to 20)
#    0.000    2.571    1.429    1.286    2.000    3.429 
#    0.000    0.000    0.000    0.000    0.000    0.000 
#    0.000    1.143    0.000    0.000    0.000    0.429 
#
# Total GULP energy -155935.794631 kJ/mol
# GULP energy per Si atom -5569.135523 kJ/mol
# Density = 1.660607 g / cm^3
# Si number density = 16.643950 Si / 1000 Ang^3
#
#
#
# Elastic Constant Matrix: (Units=GPa)
#
#
# Indices 1 2 3 4 5 6 
#
# 1 103.4001 23.1060 47.5551 -0.0002 -14.2867 -0.0003
# 2 23.1060 16.3266 19.4449 -0.0191 2.5487 -0.0052
# 3 47.5551 19.4449 97.0893 -0.0055 -0.2802 -0.0029
# 4 -0.0002 -0.0191 -0.0055 18.4274 0.0004 -5.3766
# 5 -14.2867 2.5487 -0.2802 0.0004 22.0953 0.0010
# 6 -0.0003 -0.0052 -0.0029 -5.3766 0.0010 19.2322
#
#
#
# Elastic Compliance Matrix: (Units=1/GPa)
#
#
# Indices 1 2 3 4 5 6 
#
# 1 0.019281 -0.024249 -0.004543 -0.000031 0.015206 -0.000016
# 2 -0.024249 0.112972 -0.010832 0.000134 -0.028848 0.000067
# 3 -0.004543 -0.010832 0.014690 -0.000008 -0.001502 -0.000003
# 4 -0.000031 0.000134 -0.000008 0.059087 -0.000038 0.016519
# 5 0.015206 -0.028848 -0.001502 -0.000038 0.058399 -0.000021
# 6 -0.000016 0.000067 -0.000003 0.016519 -0.000021 0.056614
#
#
# Mechanical properties :
#
#
# Convention : Reuss Voigt Hill
#
# Bulk Modulus (GPa) = 14.77227 44.11424 29.44325
# Shear Modulus (GPa) = 11.82435 20.39831 16.11133
#
# Velocity S-wave (km/s) = 2.66828 3.50461 3.11464
# Velocity P-wave (km/s) = 4.28809 6.55276 5.53743
#
# Compressibility (1/GPa) = 0.06769442
#
# Stress axis : x y z
#
# Youngs Moduli (GPa) = 51.86587 8.85174 68.07296
#
# Poissons Ratio (x) = 0.21465 0.30927
# Poissons Ratio (y) = 1.25771 0.73734
# Poissons Ratio (z) = 0.23564 0.09588
#
# Static dielectric constant tensor:
#      x y z
#    x 1.577240 0.000000 -0.002200 
#    y 0.000000 1.551490 0.000000 
#    z -0.002200 0.000000 1.595790 
# 
# From -- ./inp_files/319543.got.cif
#   From: 2010.05.17/outbox.cif.g08.bks.cpg/sg15_160_cif.got.tgz:319543.got - 2010.06.03 18:47:42.
