data_PCOD9256707
_publ_section_title
;
Structure prediction by ZEFSAII (Michael W. Deem and Ramdas Pophale) SiO2 
 PCOD9256707
Probable space group: C 2/C
;
_chemical_formula_sum "Si O2"
_cell_formula_units_Z 48
_cell_length_a 15.891021
_cell_length_b 27.745447
_cell_length_c 5.707628
_cell_angle_alpha 90.000000
_cell_angle_beta 121.579475
_cell_angle_gamma 90.000000
_cell_volume 2143.854177
_symmetry_space_group_name_H-M "C 2/C"
_symmetry_group_IT_number 15
_symmetry_cell_setting 'monoclinic'
loop_
_space_group_symop_operation_xyz
x,y,z
-x,y,1/2-z
-x,-y,-z
x,-y,1/2+z
1/2+x,1/2+y,z
1/2-x,1/2+y,1/2-z
1/2-x,1/2-y,-z
1/2+x,1/2-y,1/2+z
loop_
_atom_site_type_symbol
_atom_site_label
_atom_site_fract_x
_atom_site_fract_y
_atom_site_fract_z
Si Si1 0.154975 0.309515 0.942724
Si Si2 0.773861 0.125655 0.992701
Si Si3 0.412486 0.113862 0.445587
Si Si4 0.186912 0.780764 0.721686
Si Si5 0.652129 0.517551 0.401831
Si Si6 0.876975 0.519012 0.184118
O O1 0.075439 0.335389 0.663211
O O2 0.241415 0.295594 0.885798
O O3 0.209755 0.347771 0.195644
O O4 0.118286 0.261238 0.017634
O O5 0.689654 0.112457 0.059599
O O6 0.830298 0.075223 0.029725
O O7 0.842052 0.168891 0.197879
O O8 0.500000 0.103500 0.750000
O O9 0.399569 0.074886 0.226028
O O10 0.250000 0.750000 0.000000
O O11 0.608023 0.505907 0.076968
O O12 0.760603 0.493258 0.528432
O O13 0.912564 0.500135 0.488008
#
# Coordination Sequence:
#
# PCOD9256707 Si02
#       6
#     8   8   8   8   8   8
#     4   9  17  31  45  60  81 100 136 187 229 268
#     4  10  18  30  46  61  81 108 150 183 225 269
#     4  11  22  30  41  59  83 116 151 187 225 265
#     4   8  16  29  48  65  75  97 132 187 230 270
#     4  10  18  29  44  60  85 116 145 186 222 261
#     4  10  19  33  43  57  79 116 155 195 225 257
#
# _framework density 22.389582000000001
#
# number of rings (size 3 to 8) (size 9 to 14) (size 15 to 20)
#    0.000    2.333    3.333    2.000    2.333    1.333 
#    0.000    0.000    0.000    0.000    0.000    0.000 
#    0.000    0.000    0.000    0.000    0.000    1.667 
#
# Total GULP energy -133746.161151 kJ/mol
# GULP energy per Si atom -5572.756715 kJ/mol
# Density = 2.233862 g / cm^3
# Si number density = 22.389582 Si / 1000 Ang^3
#
#
#
# Elastic Constant Matrix: (Units=GPa)
#
#
# Indices 1 2 3 4 5 6 
#
# 1 52.9166 8.8589 22.8108 0.0000 -20.2725 0.0000
# 2 8.8589 156.7927 34.1267 0.0000 2.5074 0.0000
# 3 22.8108 34.1267 88.0911 0.0000 -30.0653 0.0000
# 4 0.0000 0.0000 0.0000 56.6562 0.0000 -10.4950
# 5 -20.2725 2.5074 -30.0653 0.0000 20.9421 0.0000
# 6 0.0000 0.0000 0.0000 -10.4950 0.0000 8.7112
#
#
#
# Elastic Compliance Matrix: (Units=1/GPa)
#
#
# Indices 1 2 3 4 5 6 
#
# 1 0.033101 -0.004395 0.008327 0.000000 0.044522 0.000000
# 2 -0.004395 0.008595 -0.007833 0.000000 -0.016529 0.000000
# 3 0.008327 -0.007833 0.030001 0.000000 0.052069 0.000000
# 4 0.000000 0.000000 0.000000 0.022721 0.000000 0.027374
# 5 0.044522 -0.016529 0.052069 0.000000 0.167581 0.000000
# 6 0.000000 0.000000 0.000000 0.027374 0.000000 0.147774
#
#
# Mechanical properties :
#
#
# Convention : Reuss Voigt Hill
#
# Bulk Modulus (GPa) = 15.65061 47.71034 31.68047
# Shear Modulus (GPa) = 11.39280 32.72883 22.06081
#
# Velocity S-wave (km/s) = 2.25820 3.82748 3.14238
# Velocity P-wave (km/s) = 3.71546 6.39439 5.22938
#
# Compressibility (1/GPa) = 0.06389528
#
# Stress axis : x y z
#
# Youngs Moduli (GPa) = 30.21089 116.34156 33.33170
#
# Poissons Ratio (x) = 0.51126 -0.27754
# Poissons Ratio (y) = 0.13276 0.26109
# Poissons Ratio (z) = -0.25155 0.91132
#
# Static dielectric constant tensor:
#      x y z
#    x 1.783660 0.000000 0.039510 
#    y 0.000000 1.912450 0.000000 
#    z 0.039510 0.000000 1.747840 
# 
# From -- ./inp_files/8239.got.cif
#   From: 2010.05.17/outbox.cif.g08.bks.cpg/sg15_5_cif.got.tgz:8239.got - 2010.06.03 18:47:42.
