data_PCOD9256193
_publ_section_title
;
Structure prediction by ZEFSAII (Michael W. Deem and Ramdas Pophale) SiO2 
 PCOD9256193
Probable space group: C 2/C
;
_chemical_formula_sum "Si O2"
_cell_formula_units_Z 64
_cell_length_a 11.368020
_cell_length_b 18.003267
_cell_length_c 22.162239
_cell_angle_alpha 90.000000
_cell_angle_beta 55.026768
_cell_angle_gamma 90.000000
_cell_volume 3716.689707
_symmetry_space_group_name_H-M "C 2/C"
_symmetry_group_IT_number 15
_symmetry_cell_setting 'monoclinic'
loop_
_space_group_symop_operation_xyz
x,y,z
-x,y,1/2-z
-x,-y,-z
x,-y,1/2+z
1/2+x,1/2+y,z
1/2-x,1/2+y,1/2-z
1/2-x,1/2-y,-z
1/2+x,1/2-y,1/2+z
loop_
_atom_site_type_symbol
_atom_site_label
_atom_site_fract_x
_atom_site_fract_y
_atom_site_fract_z
Si Si1 0.866280 0.412821 0.828645
Si Si2 0.482380 0.491192 0.684175
Si Si3 0.335005 0.770745 0.289746
Si Si4 0.694028 0.057553 0.733111
Si Si5 0.997374 0.487490 0.604148
Si Si6 0.861352 0.831864 0.677821
Si Si7 0.714421 0.951311 0.943074
Si Si8 0.178060 0.215756 0.078857
O O1 0.834341 0.495890 0.810783
O O2 0.920378 0.424944 0.880644
O O3 0.734747 0.359121 0.850140
O O4 0.000000 0.384779 0.750000
O O5 0.500000 0.498227 0.750000
O O6 0.361574 0.548268 0.698687
O O7 0.414931 0.409383 0.691584
O O8 0.637894 0.497972 0.607235
O O9 0.500000 0.745172 0.250000
O O10 0.334990 0.857584 0.274806
O O11 0.279381 0.718134 0.252022
O O12 0.274221 0.757092 0.374033
O O13 0.594262 0.033813 0.819289
O O14 0.118502 0.529737 0.529596
O O15 0.883167 0.460627 0.587851
O O16 0.005640 0.786579 0.620024
O O17 0.769368 0.867958 0.929950
O O18 0.250000 0.250000 0.000000
#
# Coordination Sequence:
#
# PCOD9256193 Si02
#       8
#     8   8   8   8   8   8   8   8
#     4   9  19  33  57  80 107 138 184 230 273 323
#     4  10  17  35  56  79 107 139 186 229 268 322
#     4  10  20  34  56  81 108 144 185 226 276 329
#     4  10  20  33  58  82 110 141 186 238 270 324
#     4  10  20  35  57  82 108 144 181 232 277 329
#     4   9  19  35  56  81 103 143 184 228 270 329
#     4  10  21  35  58  81 109 145 185 226 277 337
#     4  10  22  35  55  80 111 143 182 229 278 330
#
# _framework density 17.219622999999999
#
# number of rings (size 3 to 8) (size 9 to 14) (size 15 to 20)
#    0.000    2.250    1.250    3.000    8.750    0.000 
#    2.250    2.500    0.000    0.750    0.000    0.000 
#    0.000    0.000    0.000    0.000    0.000    0.000 
#
# Total GULP energy -178226.881423 kJ/mol
# GULP energy per Si atom -5569.590044 kJ/mol
# Density = 1.718043 g / cm^3
# Si number density = 17.219623 Si / 1000 Ang^3
#
#
#
# Elastic Constant Matrix: (Units=GPa)
#
#
# Indices 1 2 3 4 5 6 
#
# 1 95.9662 22.6072 38.3489 0.0000 -4.3680 0.0000
# 2 22.6072 43.7963 28.2476 0.0000 3.8180 0.0000
# 3 38.3489 28.2476 102.0705 0.0000 5.8394 0.0000
# 4 0.0000 0.0000 0.0000 5.1832 0.0000 -2.9915
# 5 -4.3680 3.8180 5.8394 0.0000 21.6417 0.0000
# 6 0.0000 0.0000 0.0000 -2.9915 0.0000 22.2149
#
#
#
# Elastic Compliance Matrix: (Units=1/GPa)
#
#
# Indices 1 2 3 4 5 6 
#
# 1 0.013325 -0.004723 -0.003962 0.000000 0.004592 0.000000
# 2 -0.004723 0.029645 -0.006171 0.000000 -0.004518 0.000000
# 3 -0.003962 -0.006171 0.013180 0.000000 -0.003267 0.000000
# 4 0.000000 0.000000 0.000000 0.209192 0.000000 0.028171
# 5 0.004592 -0.004518 -0.003267 0.000000 0.048812 0.000000
# 6 0.000000 0.000000 0.000000 0.028171 0.000000 0.048808
#
#
# Mechanical properties :
#
#
# Convention : Reuss Voigt Hill
#
# Bulk Modulus (GPa) = 37.82413 46.69338 42.25876
# Shear Modulus (GPa) = 12.45364 19.98325 16.21844
#
# Velocity S-wave (km/s) = 2.69220 3.41030 3.07230
# Velocity P-wave (km/s) = 5.62826 6.53315 6.09752
#
# Compressibility (1/GPa) = 0.02643815
#
# Stress axis : x y z
#
# Youngs Moduli (GPa) = 75.04546 33.73232 75.86988
#
# Poissons Ratio (x) = 0.15933 0.30059
# Poissons Ratio (y) = 0.35446 0.46820
# Poissons Ratio (z) = 0.29733 0.20817
#
# Static dielectric constant tensor:
#      x y z
#    x 1.624390 0.000000 -0.016150 
#    y 0.000000 1.569560 0.000000 
#    z -0.016150 0.000000 1.607310 
# 
# From -- ./inp_files/270417.got.cif
#   From: 2010.05.17/outbox.cif.g08.bks.cpg/sg15_136_cif.got.tgz:270417.got - 2010.06.03 18:47:42.
