data_PCOD9256000
_publ_section_title
;
Structure prediction by ZEFSAII (Michael W. Deem and Ramdas Pophale) SiO2 
 PCOD9256000
Probable space group: C 2/C
;
_chemical_formula_sum "Si O2"
_cell_formula_units_Z 48
_cell_length_a 16.431798
_cell_length_b 19.023006
_cell_length_c 17.565766
_cell_angle_alpha 90.000000
_cell_angle_beta 155.079941
_cell_angle_gamma 90.000000
_cell_volume 2313.544012
_symmetry_space_group_name_H-M "C 2/C"
_symmetry_group_IT_number 15
_symmetry_cell_setting 'monoclinic'
loop_
_space_group_symop_operation_xyz
x,y,z
-x,y,1/2-z
-x,-y,-z
x,-y,1/2+z
1/2+x,1/2+y,z
1/2-x,1/2+y,1/2-z
1/2-x,1/2-y,-z
1/2+x,1/2-y,1/2+z
loop_
_atom_site_type_symbol
_atom_site_label
_atom_site_fract_x
_atom_site_fract_y
_atom_site_fract_z
Si Si1 0.011118 0.557513 0.440886
Si Si2 0.337829 0.483550 0.427967
Si Si3 0.936349 0.920723 0.290015
Si Si4 0.630133 0.654859 0.604554
Si Si5 0.213048 0.693037 0.235363
Si Si6 0.217238 0.317865 0.920354
O O1 0.840347 0.535287 0.238803
O O2 0.953518 0.635825 0.420241
O O3 0.000000 0.500000 0.500000
O O4 0.220910 0.561163 0.580351
O O5 0.500000 0.500000 0.500000
O O6 0.451615 0.506487 0.599229
O O7 0.265132 0.403982 0.357112
O O8 0.884164 0.880951 0.324867
O O9 0.109270 0.869960 0.409628
O O10 0.416451 0.658433 0.387916
O O11 0.691769 0.734380 0.672540
O O12 0.224785 0.704014 0.337303
O O13 0.000000 0.344725 0.750000
O O14 0.250000 0.250000 0.000000
#
# Coordination Sequence:
#
# PCOD9256000 Si02
#       6
#     8   8   8   8   8   8
#     4  12  19  33  58  75 101 142 183 225 288 350
#     4  10  17  34  49  73  99 130 180 222 281 341
#     4  10  20  35  51  73  97 138 188 227 276 324
#     4  10  18  30  47  72 102 132 174 227 270 335
#     4  11  21  33  49  77 107 141 192 229 271 328
#     4  11  23  39  52  69 109 153 199 246 270 305
#
# _framework density 20.747389999999999
#
# number of rings (size 3 to 8) (size 9 to 14) (size 15 to 20)
#    0.000    1.333    8.333    3.000    0.000    2.667 
#    0.000    0.000    0.000    0.000    0.000    0.000 
#    0.000    0.000    0.000   13.500    1.667    2.667 
#
# Total GULP energy -133807.529928 kJ/mol
# GULP energy per Si atom -5575.313747 kJ/mol
# Density = 2.070017 g / cm^3
# Si number density = 20.747390 Si / 1000 Ang^3
#
#
#
# Elastic Constant Matrix: (Units=GPa)
#
#
# Indices 1 2 3 4 5 6 
#
# 1 31.0405 25.3349 21.2924 -0.0008 12.4619 -0.0015
# 2 25.3349 147.5875 35.7278 0.0013 4.2741 -0.0022
# 3 21.2924 35.7278 140.1626 0.0230 32.1696 -0.0001
# 4 -0.0008 0.0013 0.0230 36.3242 0.0058 0.1519
# 5 12.4619 4.2741 32.1696 0.0058 21.4936 -0.0009
# 6 -0.0015 -0.0022 -0.0001 0.1519 -0.0009 26.5637
#
#
#
# Elastic Compliance Matrix: (Units=1/GPa)
#
#
# Indices 1 2 3 4 5 6 
#
# 1 0.049477 -0.007928 0.001107 0.000005 -0.028767 0.000001
# 2 -0.007928 0.008549 -0.002498 0.000000 0.006635 0.000000
# 3 0.001107 -0.002498 0.011632 -0.000004 -0.017555 -0.000001
# 4 0.000005 0.000000 -0.000004 0.027531 -0.000004 -0.000157
# 5 -0.028767 0.006635 -0.017555 -0.000004 0.088161 0.000002
# 6 0.000001 0.000000 -0.000001 -0.000157 0.000002 0.037646
#
#
# Mechanical properties :
#
#
# Convention : Reuss Voigt Hill
#
# Bulk Modulus (GPa) = 19.59975 53.72231 36.66103
# Shear Modulus (GPa) = 19.33196 32.63867 25.98532
#
# Velocity S-wave (km/s) = 3.05582 3.97059 3.54285
# Velocity P-wave (km/s) = 4.68167 6.85351 5.86893
#
# Compressibility (1/GPa) = 0.05102107
#
# Stress axis : x y z
#
# Youngs Moduli (GPa) = 20.21161 116.97189 85.96789
#
# Poissons Ratio (x) = 0.92737 -0.09520
# Poissons Ratio (y) = 0.16024 0.21471
# Poissons Ratio (z) = -0.02238 0.29215
#
# Static dielectric constant tensor:
#      x y z
#    x 1.847860 -0.000010 -0.075070 
#    y -0.000010 1.822430 0.000000 
#    z -0.075070 0.000000 1.880270 
# 
# From -- ./inp_files/253300.got.cif
#   From: 2010.05.17/outbox.cif.g08.bks.cpg/sg15_127_cif.got.tgz:253300.got - 2010.06.03 18:47:42.
