data_PCOD9256477
_publ_section_title
;
Structure prediction by ZEFSAII (Michael W. Deem and Ramdas Pophale) SiO2 
 PCOD9256477
Probable space group: C 2/C
;
_chemical_formula_sum "Si O2"
_cell_formula_units_Z 56
_cell_length_a 16.927302
_cell_length_b 14.868648
_cell_length_c 8.751824
_cell_angle_alpha 90.000000
_cell_angle_beta 87.188182
_cell_angle_gamma 90.000000
_cell_volume 2200.060430
_symmetry_space_group_name_H-M "C 2/C"
_symmetry_group_IT_number 15
_symmetry_cell_setting 'monoclinic'
loop_
_space_group_symop_operation_xyz
x,y,z
-x,y,1/2-z
-x,-y,-z
x,-y,1/2+z
1/2+x,1/2+y,z
1/2-x,1/2+y,1/2-z
1/2-x,1/2-y,-z
1/2+x,1/2-y,1/2+z
loop_
_atom_site_type_symbol
_atom_site_label
_atom_site_fract_x
_atom_site_fract_y
_atom_site_fract_z
Si Si1 0.500000 0.606787 0.250000
Si Si2 0.103893 0.742398 0.775970
Si Si3 0.132316 0.449621 0.286268
Si Si4 0.429103 0.742342 0.583815
Si Si5 0.000000 0.395582 0.750000
Si Si6 0.762619 0.707345 0.168261
Si Si7 0.922280 0.968903 0.103855
Si Si8 0.246128 0.471075 0.994574
O O1 0.452139 0.680573 0.150611
O O2 0.429109 0.533136 0.251030
O O3 0.082756 0.640872 0.811323
O O4 0.094414 0.756329 0.592911
O O5 0.196683 0.759157 0.791205
O O6 0.192391 0.453290 0.423107
O O7 0.074365 0.535278 0.265579
O O8 0.189648 0.436096 0.135521
O O9 0.491683 0.821307 0.614517
O O10 0.352929 0.771309 0.692886
O O11 0.437358 0.637119 0.623870
O O12 0.751171 0.602328 0.140714
O O13 0.750000 0.750000 0.000000
O O14 0.834526 0.983685 0.046377
O O15 0.000000 0.000000 0.000000
#
# Coordination Sequence:
#
# PCOD9256477 Si02
#       8
#     4   8   8   8   4   8   8   8
#     4  12  26  40  68  98 136 180 220 296 358 408
#     4  11  22  43  67  93 139 182 231 273 363 415
#     4  12  26  46  71 106 138 190 234 290 344 419
#     4  11  21  43  66  96 129 182 230 280 334 419
#     4  12  26  40  70 102 144 178 240 292 338 410
#     4  10  17  42  68  88 122 188 227 267 329 427
#     4  12  25  45  70 103 134 183 236 291 348 419
#     4  12  25  44  73 102 140 179 238 287 346 415
#
# _framework density 25.453848000000001
#
# number of rings (size 3 to 8) (size 9 to 14) (size 15 to 20)
#    0.000    0.571    8.571    0.857    4.000    3.429 
#    2.571    0.714    0.000    0.000    0.000    0.000 
#    0.000    0.000    0.000    0.000    0.000    0.000 
#
# Total GULP energy -155966.973381 kJ/mol
# GULP energy per Si atom -5570.249049 kJ/mol
# Density = 2.539591 g / cm^3
# Si number density = 25.453848 Si / 1000 Ang^3
#
#
#
# Elastic Constant Matrix: (Units=GPa)
#
#
# Indices 1 2 3 4 5 6 
#
# 1 178.4364 68.8984 43.2946 0.0000 22.4304 0.0000
# 2 68.8984 215.6198 30.0317 0.0000 32.6443 0.0000
# 3 43.2946 30.0317 45.6286 0.0000 14.6186 0.0000
# 4 0.0000 0.0000 0.0000 12.8830 0.0000 9.0351
# 5 22.4304 32.6443 14.6186 0.0000 39.1905 0.0000
# 6 0.0000 0.0000 0.0000 9.0351 0.0000 44.5246
#
#
#
# Elastic Compliance Matrix: (Units=1/GPa)
#
#
# Indices 1 2 3 4 5 6 
#
# 1 0.007778 -0.001495 -0.006098 0.000000 -0.000932 0.000000
# 2 -0.001495 0.005828 -0.001290 0.000000 -0.003517 0.000000
# 3 -0.006098 -0.001290 0.030765 0.000000 -0.006911 0.000000
# 4 0.000000 0.000000 0.000000 0.090502 0.000000 -0.018365
# 5 -0.000932 -0.003517 -0.006911 0.000000 0.031558 0.000000
# 6 0.000000 0.000000 0.000000 -0.018365 0.000000 0.026186
#
#
# Mechanical properties :
#
#
# Convention : Reuss Voigt Hill
#
# Bulk Modulus (GPa) = 37.58653 80.45936 59.02295
# Shear Modulus (GPa) = 22.80492 39.15029 30.97760
#
# Velocity S-wave (km/s) = 2.99646 3.92610 3.49235
# Velocity P-wave (km/s) = 5.17400 7.22709 6.28495
#
# Compressibility (1/GPa) = 0.02660527
#
# Stress axis : x y z
#
# Youngs Moduli (GPa) = 128.56515 171.59343 32.50410
#
# Poissons Ratio (x) = 0.25653 0.19820
# Poissons Ratio (y) = 0.19221 0.04194
# Poissons Ratio (z) = 0.78396 0.22140
#
# Static dielectric constant tensor:
#      x y z
#    x 2.050220 0.000000 0.066520 
#    y 0.000000 2.139170 0.000000 
#    z 0.066520 0.000000 1.836290 
# 
# From -- ./inp_files/105457.got.cif
#   From: 2010.05.17/outbox.cif.g08.bks.cpg/sg15_53_cif.got.tgz:105457.got - 2010.06.03 18:47:42.
