data_PCOD9256735
_publ_section_title
;
Structure prediction by ZEFSAII (Michael W. Deem and Ramdas Pophale) SiO2 
 PCOD9256735
Probable space group: C 2/C
;
_chemical_formula_sum "Si O2"
_cell_formula_units_Z 52
_cell_length_a 23.254457
_cell_length_b 5.508364
_cell_length_c 20.689713
_cell_angle_alpha 90.000000
_cell_angle_beta 102.243401
_cell_angle_gamma 90.000000
_cell_volume 2589.950362
_symmetry_space_group_name_H-M "C 2/C"
_symmetry_group_IT_number 15
_symmetry_cell_setting 'monoclinic'
loop_
_space_group_symop_operation_xyz
x,y,z
-x,y,1/2-z
-x,-y,-z
x,-y,1/2+z
1/2+x,1/2+y,z
1/2-x,1/2+y,1/2-z
1/2-x,1/2-y,-z
1/2+x,1/2-y,1/2+z
loop_
_atom_site_type_symbol
_atom_site_label
_atom_site_fract_x
_atom_site_fract_y
_atom_site_fract_z
Si Si1 0.883073 0.731016 0.245019
Si Si2 0.067027 0.044035 0.487735
Si Si3 0.500000 0.499191 0.250000
Si Si4 0.245136 0.299759 0.790471
Si Si5 0.363115 0.470275 0.873837
Si Si6 0.550566 0.867989 0.167286
Si Si7 0.537391 0.955074 0.942923
O O1 0.820215 0.731687 0.196272
O O2 0.905099 0.463730 0.268119
O O3 0.872140 0.863348 0.312149
O O4 0.939862 0.851467 0.226985
O O5 0.114088 0.093298 0.555725
O O6 0.077220 0.781945 0.457688
O O7 0.067396 0.281832 0.443262
O O8 0.000000 0.000000 0.500000
O O9 0.510844 0.667413 0.190930
O O10 0.241443 0.541455 0.742691
O O11 0.297517 0.365907 0.852017
O O12 0.409217 0.250010 0.877501
O O13 0.509801 0.071886 0.126028
O O14 0.500000 0.000000 0.000000
#
# Coordination Sequence:
#
# PCOD9256735 Si02
#       7
#     8   8   4   8   8   8   8
#     4  10  20  35  51  74 111 142 186 222 264 334
#     4  10  18  29  45  77 106 134 170 206 277 325
#     4  10  24  34  52  76 104 152 188 220 272 312
#     4  10  20  33  52  79 106 145 178 217 275 327
#     4  10  19  30  52  77 111 140 170 222 276 330
#     4  11  19  34  52  74 112 141 181 224 268 327
#     4  10  19  29  50  75 105 138 170 219 275 321
#
# _framework density 20.077605999999999
#
# number of rings (size 3 to 8) (size 9 to 14) (size 15 to 20)
#    0.000    1.846    4.615    2.308    2.154    0.000 
#    0.000    0.000    0.000    0.000    0.000    2.154 
#    0.000    0.000    0.000    0.000    0.000    0.000 
#
# Total GULP energy -144870.749884 kJ/mol
# GULP energy per Si atom -5571.951919 kJ/mol
# Density = 2.003191 g / cm^3
# Si number density = 20.077606 Si / 1000 Ang^3
#
#
#
# Elastic Constant Matrix: (Units=GPa)
#
#
# Indices 1 2 3 4 5 6 
#
# 1 112.6587 16.8492 33.7320 0.0000 25.3171 0.0000
# 2 16.8492 98.8236 0.0801 0.0000 3.6216 0.0000
# 3 33.7320 0.0801 54.3614 0.0000 31.9884 0.0000
# 4 0.0000 0.0000 0.0000 23.5682 0.0000 5.7873
# 5 25.3171 3.6216 31.9884 0.0000 21.4216 0.0000
# 6 0.0000 0.0000 0.0000 5.7873 0.0000 6.0559
#
#
#
# Elastic Compliance Matrix: (Units=1/GPa)
#
#
# Indices 1 2 3 4 5 6 
#
# 1 0.012610 -0.001246 0.006784 0.000000 -0.024822 0.000000
# 2 -0.001246 0.010772 0.007935 0.000000 -0.012198 0.000000
# 3 0.006784 0.007935 0.162265 0.000000 -0.251667 0.000000
# 4 0.000000 0.000000 0.000000 0.055440 0.000000 -0.052981
# 5 -0.024822 -0.012198 -0.251667 0.000000 0.453891 0.000000
# 6 0.000000 0.000000 0.000000 -0.052981 0.000000 0.215758
#
#
# Mechanical properties :
#
#
# Convention : Reuss Voigt Hill
#
# Bulk Modulus (GPa) = 4.70383 40.79625 22.75004
# Shear Modulus (GPa) = 5.23750 24.55463 14.89606
#
# Velocity S-wave (km/s) = 1.61688 3.50092 2.72678
# Velocity P-wave (km/s) = 2.41529 6.05849 4.61188
#
# Compressibility (1/GPa) = 0.21259267
#
# Stress axis : x y z
#
# Youngs Moduli (GPa) = 79.30430 92.83312 6.16274
#
# Poissons Ratio (x) = 0.11565 -0.04181
# Poissons Ratio (y) = 0.09879 -0.04890
# Poissons Ratio (z) = -0.53799 -0.73660
#
# Static dielectric constant tensor:
#      x y z
#    x 1.689180 0.000000 -0.047230 
#    y 0.000000 1.336450 0.000000 
#    z -0.047230 0.000000 1.653820 
# 
# From -- ./inp_files/253993.got.cif
#   From: 2010.05.17/outbox.cif.g08.bks.cpg/sg15_127_cif.got.tgz:253993.got - 2010.06.03 18:47:42.
