data_PCOD9256900
_publ_section_title
;
Structure prediction by ZEFSAII (Michael W. Deem and Ramdas Pophale) SiO2 
 PCOD9256900
Probable space group: C 2/C
;
_chemical_formula_sum "Si O2"
_cell_formula_units_Z 52
_cell_length_a 17.375331
_cell_length_b 22.770722
_cell_length_c 10.480045
_cell_angle_alpha 90.000000
_cell_angle_beta 128.467290
_cell_angle_gamma 90.000000
_cell_volume 3246.493280
_symmetry_space_group_name_H-M "C 2/C"
_symmetry_group_IT_number 15
_symmetry_cell_setting 'monoclinic'
loop_
_space_group_symop_operation_xyz
x,y,z
-x,y,1/2-z
-x,-y,-z
x,-y,1/2+z
1/2+x,1/2+y,z
1/2-x,1/2+y,1/2-z
1/2-x,1/2-y,-z
1/2+x,1/2-y,1/2+z
loop_
_atom_site_type_symbol
_atom_site_label
_atom_site_fract_x
_atom_site_fract_y
_atom_site_fract_z
Si Si1 0.396915 0.764698 0.093868
Si Si2 0.311043 0.758230 0.434463
Si Si3 0.705959 0.324506 0.816844
Si Si4 0.624522 0.455335 0.749233
Si Si5 0.000000 0.781276 0.250000
Si Si6 0.612239 0.546628 0.524365
Si Si7 0.134787 0.175178 0.662422
O O1 0.500000 0.788068 0.250000
O O2 0.640558 0.717813 0.339351
O O3 0.315199 0.814251 0.985049
O O4 0.404063 0.726222 0.972194
O O5 0.250000 0.750000 0.500000
O O6 0.298591 0.703027 0.328241
O O7 0.424527 0.758792 0.591390
O O8 0.250078 0.810406 0.305448
O O9 0.666376 0.390161 0.772098
O O10 0.654720 0.502609 0.674316
O O11 0.506270 0.455673 0.611510
O O12 0.649925 0.469427 0.922188
O O13 0.932773 0.819513 0.279296
O O14 0.630005 0.613094 0.587811
#
# Coordination Sequence:
#
# PCOD9256900 Si02
#       7
#     8   8   8   8   4   8   8
#     4  10  18  30  51  75 100 128 163 205 254 294
#     4   9  19  30  45  71  99 128 160 195 248 299
#     4  10  19  31  50  73 101 131 164 206 250 302
#     4  10  20  33  48  72  98 135 172 204 255 304
#     4  10  18  30  48  68 102 134 156 202 250 300
#     4  10  20  32  49  69 101 133 168 211 247 305
#     4  10  19  31  47  71 100 128 165 201 246 299
#
# _framework density 16.017282999999999
#
# number of rings (size 3 to 8) (size 9 to 14) (size 15 to 20)
#    0.000    2.154    1.538    2.769    0.000    4.923 
#    0.000    0.000    0.000    0.000    2.000    1.077 
#    0.000    0.000    0.000    0.000    0.000    0.000 
#
# Total GULP energy -144766.766439 kJ/mol
# GULP energy per Si atom -5567.952555 kJ/mol
# Density = 1.598083 g / cm^3
# Si number density = 16.017283 Si / 1000 Ang^3
#
#
#
# Elastic Constant Matrix: (Units=GPa)
#
#
# Indices 1 2 3 4 5 6 
#
# 1 71.5800 32.4730 35.9539 0.0000 -17.3874 0.0000
# 2 32.4730 52.8929 23.7786 0.0000 -15.5958 0.0000
# 3 35.9539 23.7786 105.9319 0.0000 2.1668 0.0000
# 4 0.0000 0.0000 0.0000 12.7342 0.0000 9.5507
# 5 -17.3874 -15.5958 2.1668 0.0000 32.2205 0.0000
# 6 0.0000 0.0000 0.0000 9.5507 0.0000 11.2427
#
#
#
# Elastic Compliance Matrix: (Units=1/GPa)
#
#
# Indices 1 2 3 4 5 6 
#
# 1 0.023142 -0.008986 -0.006012 0.000000 0.008543 0.000000
# 2 -0.008986 0.028795 -0.003605 0.000000 0.009331 0.000000
# 3 -0.006012 -0.003605 0.012409 0.000000 -0.005824 0.000000
# 4 0.000000 0.000000 0.000000 0.216412 0.000000 -0.183843
# 5 0.008543 0.009331 -0.005824 0.000000 0.040554 0.000000
# 6 0.000000 0.000000 0.000000 -0.183843 0.000000 0.245122
#
#
# Mechanical properties :
#
#
# Convention : Reuss Voigt Hill
#
# Bulk Modulus (GPa) = 36.84578 46.09065 41.46822
# Shear Modulus (GPa) = 8.16078 20.45275 14.30676
#
# Velocity S-wave (km/s) = 2.25966 3.57727 2.99190
# Velocity P-wave (km/s) = 5.46459 6.77500 6.15477
#
# Compressibility (1/GPa) = 0.02714015
#
# Stress axis : x y z
#
# Youngs Moduli (GPa) = 43.21143 34.72865 80.58774
#
# Poissons Ratio (x) = 0.31207 0.48451
# Poissons Ratio (y) = 0.38830 0.29048
# Poissons Ratio (z) = 0.25980 0.12518
#
# Static dielectric constant tensor:
#      x y z
#    x 1.578990 0.000000 -0.016200 
#    y 0.000000 1.500300 0.000000 
#    z -0.016200 0.000000 1.574690 
# 
# From -- ./inp_files/100515.got.cif
#   From: 2010.05.17/outbox.cif.g08.bks.cpg/sg15_51_cif.got.tgz:100515.got - 2010.06.03 18:47:42.
