data_PCOD9256428
_publ_section_title
;
Structure prediction by ZEFSAII (Michael W. Deem and Ramdas Pophale) SiO2 
 PCOD9256428
Probable space group: C 2/C
;
_chemical_formula_sum "Si O2"
_cell_formula_units_Z 56
_cell_length_a 11.429456
_cell_length_b 19.056353
_cell_length_c 13.876501
_cell_angle_alpha 90.000000
_cell_angle_beta 61.328247
_cell_angle_gamma 90.000000
_cell_volume 2651.761379
_symmetry_space_group_name_H-M "C 2/C"
_symmetry_group_IT_number 15
_symmetry_cell_setting 'monoclinic'
loop_
_space_group_symop_operation_xyz
x,y,z
-x,y,1/2-z
-x,-y,-z
x,-y,1/2+z
1/2+x,1/2+y,z
1/2-x,1/2+y,1/2-z
1/2-x,1/2-y,-z
1/2+x,1/2-y,1/2+z
loop_
_atom_site_type_symbol
_atom_site_label
_atom_site_fract_x
_atom_site_fract_y
_atom_site_fract_z
Si Si1 0.627789 0.006693 0.272225
Si Si2 0.728009 0.879697 0.134305
Si Si3 0.858094 0.599058 0.044830
Si Si4 0.359876 0.278899 0.853238
Si Si5 0.013792 0.184986 0.006250
Si Si6 0.723913 0.141735 0.164537
Si Si7 0.979243 0.313477 0.902215
O O1 0.500000 0.017678 0.250000
O O2 0.626501 0.035054 0.383819
O O3 0.732719 0.059364 0.180975
O O4 0.673746 0.927490 0.241138
O O5 0.686105 0.797971 0.163845
O O6 0.665565 0.911588 0.059361
O O7 0.888555 0.878731 0.060047
O O8 0.738031 0.654200 0.118825
O O9 0.991590 0.642858 0.012929
O O10 0.500000 0.296251 0.750000
O O11 0.394874 0.273545 0.952640
O O12 0.871555 0.171187 0.110467
O O13 0.985587 0.232534 0.925149
O O14 0.657318 0.161419 0.089680
O O15 0.605683 0.168859 0.282772
#
# Coordination Sequence:
#
# PCOD9256428 Si02
#       7
#     8   8   8   8   8   8   8
#     4  11  22  40  60  86 121 174 206 249 316 378
#     4  11  23  37  61  94 127 156 210 263 309 373
#     4  10  19  40  61  87 124 159 209 256 306 370
#     4  11  20  36  63  96 122 156 201 260 321 361
#     4  11  21  36  63  94 121 157 205 265 312 357
#     4  10  21  36  62  87 121 172 204 241 310 377
#     4  10  17  38  61  88 121 159 210 247 298 371
#
# _framework density 21.118037999999999
#
# number of rings (size 3 to 8) (size 9 to 14) (size 15 to 20)
#    0.000    1.429    5.714    3.429    0.000    1.143 
#    0.000    0.000    6.286    0.000    0.000    0.000 
#    0.000    0.000    0.000    0.000    0.000    0.000 
#
# Total GULP energy -155945.785884 kJ/mol
# GULP energy per Si atom -5569.492353 kJ/mol
# Density = 2.106997 g / cm^3
# Si number density = 21.118038 Si / 1000 Ang^3
#
#
#
# Elastic Constant Matrix: (Units=GPa)
#
#
# Indices 1 2 3 4 5 6 
#
# 1 90.2288 17.3652 19.1382 0.0000 -9.7877 0.0000
# 2 17.3652 82.5092 31.5421 0.0000 -4.7579 0.0000
# 3 19.1382 31.5421 45.0988 0.0000 -0.3009 0.0000
# 4 0.0000 0.0000 0.0000 22.4408 0.0000 2.5143
# 5 -9.7877 -4.7579 -0.3009 0.0000 23.3518 0.0000
# 6 0.0000 0.0000 0.0000 2.5143 0.0000 16.2816
#
#
#
# Elastic Compliance Matrix: (Units=1/GPa)
#
#
# Indices 1 2 3 4 5 6 
#
# 1 0.012814 -0.000452 -0.005087 0.000000 0.005214 0.000000
# 2 -0.000452 0.016805 -0.011541 0.000000 0.003086 0.000000
# 3 -0.005087 -0.011541 0.032377 0.000000 -0.004067 0.000000
# 4 0.000000 0.000000 0.000000 0.045346 0.000000 -0.007003
# 5 0.005214 0.003086 -0.004067 0.000000 0.045585 0.000000
# 6 0.000000 0.000000 0.000000 -0.007003 0.000000 0.062500
#
#
# Mechanical properties :
#
#
# Convention : Reuss Voigt Hill
#
# Bulk Modulus (GPa) = 35.92415 39.32529 37.62472
# Shear Modulus (GPa) = 19.31497 22.40094 20.85795
#
# Velocity S-wave (km/s) = 3.02755 3.26045 3.14615
# Velocity P-wave (km/s) = 5.41012 5.73028 5.57250
#
# Compressibility (1/GPa) = 0.02783643
#
# Stress axis : x y z
#
# Youngs Moduli (GPa) = 78.03690 59.50661 30.88597
#
# Poissons Ratio (x) = 0.02687 0.15713
# Poissons Ratio (y) = 0.03523 0.35646
# Poissons Ratio (z) = 0.39700 0.68677
#
# Static dielectric constant tensor:
#      x y z
#    x 1.796060 0.000000 0.051480 
#    y 0.000000 1.795040 0.000000 
#    z 0.051480 0.000000 1.886660 
# 
# From -- ./inp_files/145539.got.cif
#   From: 2010.05.17/outbox.cif.g08.bks.cpg/sg15_73_cif.got.tgz:145539.got - 2010.06.03 18:47:42.
