data_PCOD9256996
_publ_section_title
;
Structure prediction by ZEFSAII (Michael W. Deem and Ramdas Pophale) SiO2 
 PCOD9256996
Probable space group: C 2/C
;
_chemical_formula_sum "Si O2"
_cell_formula_units_Z 40
_cell_length_a 19.576256
_cell_length_b 15.746495
_cell_length_c 7.425023
_cell_angle_alpha 90.000000
_cell_angle_beta 114.115433
_cell_angle_gamma 90.000000
_cell_volume 2089.059858
_symmetry_space_group_name_H-M "C 2/C"
_symmetry_group_IT_number 15
_symmetry_cell_setting 'monoclinic'
loop_
_space_group_symop_operation_xyz
x,y,z
-x,y,1/2-z
-x,-y,-z
x,-y,1/2+z
1/2+x,1/2+y,z
1/2-x,1/2+y,1/2-z
1/2-x,1/2-y,-z
1/2+x,1/2-y,1/2+z
loop_
_atom_site_type_symbol
_atom_site_label
_atom_site_fract_x
_atom_site_fract_y
_atom_site_fract_z
Si Si1 0.261788 0.881080 0.494924
Si Si2 0.677708 0.054330 0.783822
Si Si3 0.997734 0.737239 0.532770
Si Si4 0.377277 0.266987 0.124620
Si Si5 0.066543 0.437693 0.445593
O O1 0.271424 0.889834 0.289863
O O2 0.328180 0.816515 0.619881
O O3 0.183374 0.840959 0.464875
O O4 0.276673 0.974386 0.589269
O O5 0.632229 0.101805 0.890630
O O6 0.611349 0.010520 0.595701
O O7 0.934068 0.785380 0.349550
O O8 0.972512 0.638446 0.491167
O O9 0.000000 0.755825 0.750000
O O10 0.073991 0.750651 0.502876
O O11 0.000000 0.474315 0.250000
#
# Coordination Sequence:
#
# PCOD9256996 Si02
#       5
#     8   8   8   8   8
#     4  10  20  38  54  84 113 154 185 229 282 335
#     4  10  20  33  53  82 116 149 182 223 284 340
#     4  10  20  37  56  83 109 146 193 232 279 326
#     4  10  21  38  59  81 118 148 189 235 277 333
#     4  10  18  30  50  81 113 147 178 222 276 344
#
# _framework density 19.147369000000001
#
# number of rings (size 3 to 8) (size 9 to 14) (size 15 to 20)
#    0.000    2.000    2.000    3.000    0.000    1.600 
#    7.200    3.000    0.000    4.800    0.000    0.000 
#    0.000    0.000    0.000    0.000    0.000    0.000 
#
# Total GULP energy -111517.020587 kJ/mol
# GULP energy per Si atom -5575.851029 kJ/mol
# Density = 1.910379 g / cm^3
# Si number density = 19.147369 Si / 1000 Ang^3
#
#
#
# Elastic Constant Matrix: (Units=GPa)
#
#
# Indices 1 2 3 4 5 6 
#
# 1 157.7179 46.3464 46.7823 0.0000 3.1122 0.0000
# 2 46.3464 38.4094 7.5822 0.0000 4.0985 0.0000
# 3 46.7823 7.5822 68.3213 0.0000 0.3911 0.0000
# 4 0.0000 0.0000 0.0000 2.2256 0.0000 -1.1831
# 5 3.1122 4.0985 0.3911 0.0000 24.7841 0.0000
# 6 0.0000 0.0000 0.0000 -1.1831 0.0000 41.1906
#
#
#
# Elastic Compliance Matrix: (Units=1/GPa)
#
#
# Indices 1 2 3 4 5 6 
#
# 1 0.012423 -0.013697 -0.006991 0.000000 0.000815 0.000000
# 2 -0.013697 0.042199 0.004726 0.000000 -0.005333 0.000000
# 3 -0.006991 0.004726 0.018900 0.000000 -0.000202 0.000000
# 4 0.000000 0.000000 0.000000 0.456283 0.000000 0.013105
# 5 0.000815 -0.005333 -0.000202 0.000000 0.041131 0.000000
# 6 0.000000 0.000000 0.000000 0.013105 0.000000 0.024654
#
#
# Mechanical properties :
#
#
# Convention : Reuss Voigt Hill
#
# Bulk Modulus (GPa) = 24.03938 51.76337 37.90138
# Shear Modulus (GPa) = 7.79569 24.55590 16.17579
#
# Velocity S-wave (km/s) = 2.01996 3.58504 2.90971
# Velocity P-wave (km/s) = 4.24529 6.65053 5.57907
#
# Compressibility (1/GPa) = 0.04159841
#
# Stress axis : x y z
#
# Youngs Moduli (GPa) = 80.49586 23.69742 52.90878
#
# Poissons Ratio (x) = 0.32458 0.36989
# Poissons Ratio (y) = 1.10255 -0.25006
# Poissons Ratio (z) = 0.56276 -0.11200
#
# Static dielectric constant tensor:
#      x y z
#    x 1.707680 0.000000 -0.058840 
#    y 0.000000 1.654290 0.000000 
#    z -0.058840 0.000000 1.758870 
# 
# From -- ./inp_files/48154.got.cif
#   From: 2010.05.17/outbox.cif.g08.bks.cpg/sg15_25_cif.got.tgz:48154.got - 2010.06.03 18:47:42.
