data_PCOD9256514
_publ_section_title
;
Structure prediction by ZEFSAII (Michael W. Deem and Ramdas Pophale) SiO2 
 PCOD9256514
Probable space group: C 2/C
;
_chemical_formula_sum "Si O2"
_cell_formula_units_Z 60
_cell_length_a 22.057311
_cell_length_b 15.801128
_cell_length_c 9.094465
_cell_angle_alpha 90.000000
_cell_angle_beta 113.312218
_cell_angle_gamma 90.000000
_cell_volume 2910.929751
_symmetry_space_group_name_H-M "C 2/C"
_symmetry_group_IT_number 15
_symmetry_cell_setting 'monoclinic'
loop_
_space_group_symop_operation_xyz
x,y,z
-x,y,1/2-z
-x,-y,-z
x,-y,1/2+z
1/2+x,1/2+y,z
1/2-x,1/2+y,1/2-z
1/2-x,1/2-y,-z
1/2+x,1/2-y,1/2+z
loop_
_atom_site_type_symbol
_atom_site_label
_atom_site_fract_x
_atom_site_fract_y
_atom_site_fract_z
Si Si1 0.827162 0.929579 0.426094
Si Si2 0.241728 0.524285 0.586184
Si Si3 0.488159 0.091593 0.410941
Si Si4 0.430622 0.119852 0.764306
Si Si5 0.349093 0.950185 0.752522
Si Si6 0.080727 0.077125 0.093877
Si Si7 0.918802 0.201106 0.171974
Si Si8 0.000000 0.037063 0.750000
O O1 0.784719 0.959189 0.527454
O O2 0.880026 0.856412 0.515844
O O3 0.782847 0.916387 0.237898
O O4 0.865208 0.014890 0.418111
O O5 0.194897 0.471045 0.649547
O O6 0.196868 0.575354 0.427243
O O7 0.500000 0.089941 0.250000
O O8 0.541857 0.146855 0.548134
O O9 0.500000 0.000000 0.500000
O O10 0.410566 0.108961 0.352545
O O11 0.500000 0.099962 0.750000
O O12 0.383264 0.039455 0.733039
O O13 0.400704 0.200604 0.654973
O O14 0.103318 0.161241 0.194079
O O15 0.045780 0.024377 0.193875
O O16 0.034320 0.091619 0.909179
O O17 0.000000 0.196647 0.250000
#
# Coordination Sequence:
#
# PCOD9256514 Si02
#       8
#     8   8   8   8   8   8   8   4
#     4  11  20  35  55  83 112 142 201 251 273 337
#     4  10  21  33  56  85 106 146 202 242 271 319
#     4  10  18  33  62  92 117 146 186 238 291 342
#     4  10  21  36  58  89 124 150 183 232 305 362
#     4  10  18  35  59  86 112 147 191 240 279 330
#     4  11  17  32  51  76 106 138 188 238 287 323
#     4  11  21  35  57  85 118 151 183 234 305 363
#     4  10  18  26  52  78  96 136 188 234 288 340
#
# _framework density 20.611972000000002
#
# number of rings (size 3 to 8) (size 9 to 14) (size 15 to 20)
#    0.000    1.600    3.333    4.800    0.000    0.000 
#    1.200    2.667    0.000    0.800    0.000    0.000 
#    0.000    0.000    0.000    0.000    0.000    0.000 
#
# Total GULP energy -167148.949222 kJ/mol
# GULP energy per Si atom -5571.631641 kJ/mol
# Density = 2.056506 g / cm^3
# Si number density = 20.611972 Si / 1000 Ang^3
#
#
#
# Elastic Constant Matrix: (Units=GPa)
#
#
# Indices 1 2 3 4 5 6 
#
# 1 88.8185 14.3213 24.3581 0.0000 -15.8053 0.0000
# 2 14.3213 57.4947 13.7408 0.0000 -0.7689 0.0000
# 3 24.3581 13.7408 159.2504 0.0000 6.4955 0.0000
# 4 0.0000 0.0000 0.0000 3.4178 0.0000 10.4943
# 5 -15.8053 -0.7689 6.4955 0.0000 45.0557 0.0000
# 6 0.0000 0.0000 0.0000 10.4943 0.0000 3.5898
#
#
#
# Elastic Compliance Matrix: (Units=1/GPa)
#
#
# Indices 1 2 3 4 5 6 
#
# 1 0.013097 -0.002728 -0.001965 0.000000 0.004831 0.000000
# 2 -0.002728 0.018340 -0.001146 0.000000 -0.000479 0.000000
# 3 -0.001965 -0.001146 0.006747 0.000000 -0.001682 0.000000
# 4 0.000000 0.000000 0.000000 -0.036683 0.000000 0.107237
# 5 0.004831 -0.000479 -0.001682 0.000000 0.024124 0.000000
# 6 0.000000 0.000000 0.000000 0.107237 0.000000 -0.034926
#
#
# Mechanical properties :
#
#
# Convention : Reuss Voigt Hill
#
# Bulk Modulus (GPa) = 37.72571 45.60044 41.66308
# Shear Modulus (GPa) = 445.90164 27.28889 236.59527
#
# Velocity S-wave (km/s) = 14.72416 3.64254 10.72542
# Velocity P-wave (km/s) = 17.53313 6.31364 13.17711
#
# Compressibility (1/GPa) = 0.02650712
#
# Stress axis : x y z
#
# Youngs Moduli (GPa) = 76.35093 54.52609 148.20505
#
# Poissons Ratio (x) = 0.14876 0.29122
# Poissons Ratio (y) = 0.20830 0.16979
# Poissons Ratio (z) = 0.15003 0.06247
#
# Static dielectric constant tensor:
#      x y z
#    x 1.809110 0.000000 0.060190 
#    y 0.000000 1.761240 0.000000 
#    z 0.060190 0.000000 1.914300 
# 
# From -- ./inp_files/62539.got.cif
#   From: 2010.05.17/outbox.cif.g08.bks.cpg/sg15_32_cif.got.tgz:62539.got - 2010.06.03 18:47:42.
