data_PCOD9256132
_publ_section_title
;
Structure prediction by ZEFSAII (Michael W. Deem and Ramdas Pophale) SiO2 
 PCOD9256132
Probable space group: C 2/C
;
_chemical_formula_sum "Si O2"
_cell_formula_units_Z 56
_cell_length_a 11.049617
_cell_length_b 14.662661
_cell_length_c 15.442291
_cell_angle_alpha 90.000000
_cell_angle_beta 106.723648
_cell_angle_gamma 90.000000
_cell_volume 2396.089112
_symmetry_space_group_name_H-M "C 2/C"
_symmetry_group_IT_number 15
_symmetry_cell_setting 'monoclinic'
loop_
_space_group_symop_operation_xyz
x,y,z
-x,y,1/2-z
-x,-y,-z
x,-y,1/2+z
1/2+x,1/2+y,z
1/2-x,1/2+y,1/2-z
1/2-x,1/2-y,-z
1/2+x,1/2-y,1/2+z
loop_
_atom_site_type_symbol
_atom_site_label
_atom_site_fract_x
_atom_site_fract_y
_atom_site_fract_z
Si Si1 0.000000 0.378953 0.750000
Si Si2 0.339494 0.969242 0.144512
Si Si3 0.868032 0.746484 0.957906
Si Si4 0.760113 0.651295 0.764763
Si Si5 0.000000 0.048021 0.750000
Si Si6 0.905026 0.071363 0.369402
Si Si7 0.572049 0.096793 0.011005
Si Si8 0.231195 0.667478 0.191186
O O1 0.072084 0.442247 0.833839
O O2 0.107213 0.323316 0.725762
O O3 0.345225 0.928891 0.242713
O O4 0.379101 0.902422 0.077179
O O5 0.195152 0.003484 0.105877
O O6 0.815897 0.698017 0.860613
O O7 0.923390 0.844899 0.939381
O O8 0.978768 0.680378 0.012202
O O9 0.750000 0.750000 0.000000
O O10 0.624346 0.608630 0.759288
O O11 0.765823 0.727084 0.689488
O O12 0.010575 0.987078 0.840608
O O13 0.832002 0.115647 0.271415
O O14 0.689072 0.109719 0.100269
O O15 0.500000 0.000000 0.000000
#
# Coordination Sequence:
#
# PCOD9256132 Si02
#       8
#     4   8   8   8   4   8   8   8
#     4  10  17  34  61  82 118 166 206 253 302 377
#     4  10  20  38  60  89 123 157 217 256 317 376
#     4  11  25  41  63  94 133 164 215 267 323 385
#     4  10  23  40  64  92 122 172 210 262 318 393
#     4  10  21  40  73  86 120 170 220 249 318 391
#     4   9  22  44  62  92 125 173 211 263 318 393
#     4  12  24  38  66  99 125 167 212 274 323 367
#     4  10  22  37  64  90 124 165 212 262 316 380
#
# _framework density 23.371418999999999
#
# number of rings (size 3 to 8) (size 9 to 14) (size 15 to 20)
#    0.000    1.714    1.429    2.143   10.000    2.857 
#    0.000    0.714    0.000    0.000    0.000    0.000 
#    0.000    0.000    0.000    0.000    0.000    0.000 
#
# Total GULP energy -156410.246914 kJ/mol
# GULP energy per Si atom -5586.080247 kJ/mol
# Density = 2.331822 g / cm^3
# Si number density = 23.371419 Si / 1000 Ang^3
#
#
#
# Elastic Constant Matrix: (Units=GPa)
#
#
# Indices 1 2 3 4 5 6 
#
# 1 45.3653 13.6167 8.9254 0.0000 -9.4307 0.0000
# 2 13.6167 82.1810 25.0070 0.0000 -8.8623 0.0000
# 3 8.9254 25.0070 82.9418 0.0000 -6.9709 0.0000
# 4 0.0000 0.0000 0.0000 36.3481 0.0000 -3.2294
# 5 -9.4307 -8.8623 -6.9709 0.0000 26.0311 0.0000
# 6 0.0000 0.0000 0.0000 -3.2294 0.0000 24.0872
#
#
#
# Elastic Compliance Matrix: (Units=1/GPa)
#
#
# Indices 1 2 3 4 5 6 
#
# 1 0.024738 -0.002927 -0.001136 0.000000 0.007662 0.000000
# 2 -0.002927 0.014074 -0.003698 0.000000 0.002741 0.000000
# 3 -0.001136 -0.003698 0.013456 0.000000 0.001933 0.000000
# 4 0.000000 0.000000 0.000000 0.027843 0.000000 0.003733
# 5 0.007662 0.002741 0.001933 0.000000 0.042642 0.000000
# 6 0.000000 0.000000 0.000000 0.003733 0.000000 0.042016
#
#
# Mechanical properties :
#
#
# Convention : Reuss Voigt Hill
#
# Bulk Modulus (GPa) = 27.21318 33.95404 30.58361
# Shear Modulus (GPa) = 25.96855 28.15587 27.06221
#
# Velocity S-wave (km/s) = 3.33697 3.47466 3.40651
# Velocity P-wave (km/s) = 5.14939 5.53690 5.34666
#
# Compressibility (1/GPa) = 0.03674690
#
# Stress axis : x y z
#
# Youngs Moduli (GPa) = 40.42363 71.05254 74.31482
#
# Poissons Ratio (x) = 0.20798 0.08439
# Poissons Ratio (y) = 0.11832 0.27482
# Poissons Ratio (z) = 0.04591 0.26275
#
# Static dielectric constant tensor:
#      x y z
#    x 1.881090 0.000000 0.031700 
#    y 0.000000 1.887310 0.000000 
#    z 0.031700 0.000000 1.915370 
# 
# From -- ./inp_files/144297.got.cif
#   From: 2010.05.17/outbox.cif.g08.bks.cpg/sg15_73_cif.got.tgz:144297.got - 2010.06.03 18:47:42.
