data_PCOD9256411
_publ_section_title
;
Structure prediction by ZEFSAII (Michael W. Deem and Ramdas Pophale) SiO2 
 PCOD9256411
Probable space group: C 2/C
;
_chemical_formula_sum "Si O2"
_cell_formula_units_Z 32
_cell_length_a 12.697728
_cell_length_b 7.023186
_cell_length_c 21.530735
_cell_angle_alpha 90.000000
_cell_angle_beta 143.817889
_cell_angle_gamma 90.000000
_cell_volume 1133.525583
_symmetry_space_group_name_H-M "C 2/C"
_symmetry_group_IT_number 15
_symmetry_cell_setting 'monoclinic'
loop_
_space_group_symop_operation_xyz
x,y,z
-x,y,1/2-z
-x,-y,-z
x,-y,1/2+z
1/2+x,1/2+y,z
1/2-x,1/2+y,1/2-z
1/2-x,1/2-y,-z
1/2+x,1/2-y,1/2+z
loop_
_atom_site_type_symbol
_atom_site_label
_atom_site_fract_x
_atom_site_fract_y
_atom_site_fract_z
Si Si1 0.884933 0.032366 0.576603
Si Si2 0.176443 0.160143 0.632158
Si Si3 0.317378 0.239257 0.227691
Si Si4 0.064374 0.353897 0.456422
O O1 0.921901 0.805889 0.590791
O O2 0.672151 0.038084 0.483373
O O3 0.975854 0.087584 0.554351
O O4 0.996552 0.145932 0.681516
O O5 0.216680 0.277882 0.713797
O O6 0.168743 0.277745 0.566398
O O7 0.301425 0.972120 0.692345
O O8 0.142658 0.355638 0.122998
#
# Coordination Sequence:
#
# PCOD9256411 Si02
#       4
#     8   8   8   8
#     4   8  18  32  61 100 137 171 248 269 337 442
#     4   9  19  36  65  98 139 182 224 291 352 408
#     4   9  18  34  61 104 138 173 234 293 331 432
#     4  10  17  37  66  96 139 196 215 287 366 401
#
# _framework density 28.230504
#
# number of rings (size 3 to 8) (size 9 to 14) (size 15 to 20)
#    1.500    1.500    0.000    3.000    0.000    0.000 
#    0.000   13.750    0.000    0.000   26.000    3.500 
#    0.000    0.000    0.000    0.000    0.000    0.000 
#
# Total GULP energy -89320.875114 kJ/mol
# GULP energy per Si atom -5582.554695 kJ/mol
# Density = 2.816625 g / cm^3
# Si number density = 28.230504 Si / 1000 Ang^3
#
#
#
# Elastic Constant Matrix: (Units=GPa)
#
#
# Indices 1 2 3 4 5 6 
#
# 1 84.3789 33.6627 38.3953 0.0000 2.9957 0.0000
# 2 33.6627 125.4395 55.6585 0.0000 13.4106 0.0000
# 3 38.3953 55.6585 139.9135 0.0000 1.4126 0.0000
# 4 0.0000 0.0000 0.0000 56.1108 0.0000 9.4278
# 5 2.9957 13.4106 1.4126 0.0000 55.1361 0.0000
# 6 0.0000 0.0000 0.0000 9.4278 0.0000 34.3909
#
#
#
# Elastic Compliance Matrix: (Units=1/GPa)
#
#
# Indices 1 2 3 4 5 6 
#
# 1 0.014171 -0.002512 -0.002889 0.000000 -0.000085 0.000000
# 2 -0.002512 0.010415 -0.003431 0.000000 -0.002309 0.000000
# 3 -0.002889 -0.003431 0.009297 0.000000 0.000753 0.000000
# 4 0.000000 0.000000 0.000000 0.018682 0.000000 -0.005122
# 5 -0.000085 -0.002309 0.000753 0.000000 0.018684 0.000000
# 6 0.000000 0.000000 0.000000 -0.005122 0.000000 0.030481
#
#
# Mechanical properties :
#
#
# Convention : Reuss Voigt Hill
#
# Bulk Modulus (GPa) = 61.64993 67.24054 64.44524
# Shear Modulus (GPa) = 40.06406 43.92859 41.99633
#
# Velocity S-wave (km/s) = 3.77128 3.94898 3.86115
# Velocity P-wave (km/s) = 6.39131 6.68302 6.53879
#
# Compressibility (1/GPa) = 0.01622062
#
# Stress axis : x y z
#
# Youngs Moduli (GPa) = 70.56696 96.01445 107.56100
#
# Poissons Ratio (x) = 0.24120 0.31070
# Poissons Ratio (y) = 0.17727 0.36899
# Poissons Ratio (z) = 0.20384 0.32938
#
# Static dielectric constant tensor:
#      x y z
#    x 2.229960 0.000000 0.117520 
#    y 0.000000 2.265290 0.000000 
#    z 0.117520 0.000000 2.234250 
# 
# From -- ./inp_files/242686.got.cif
#   From: 2010.05.17/outbox.cif.g08.bks.cpg/sg15_122_cif.got.tgz:242686.got - 2010.06.03 18:47:42.
