data_PCOD9256776
_publ_section_title
;
Structure prediction by ZEFSAII (Michael W. Deem and Ramdas Pophale) SiO2 
 PCOD9256776
Probable space group: C 2/C
;
_chemical_formula_sum "Si O2"
_cell_formula_units_Z 56
_cell_length_a 12.696992
_cell_length_b 30.323137
_cell_length_c 9.415683
_cell_angle_alpha 90.000000
_cell_angle_beta 48.319826
_cell_angle_gamma 90.000000
_cell_volume 2707.514834
_symmetry_space_group_name_H-M "C 2/C"
_symmetry_group_IT_number 15
_symmetry_cell_setting 'monoclinic'
loop_
_space_group_symop_operation_xyz
x,y,z
-x,y,1/2-z
-x,-y,-z
x,-y,1/2+z
1/2+x,1/2+y,z
1/2-x,1/2+y,1/2-z
1/2-x,1/2-y,-z
1/2+x,1/2-y,1/2+z
loop_
_atom_site_type_symbol
_atom_site_label
_atom_site_fract_x
_atom_site_fract_y
_atom_site_fract_z
Si Si1 0.628727 0.260778 0.797617
Si Si2 0.589464 0.768199 0.809124
Si Si3 0.245705 0.824957 0.459267
Si Si4 0.894412 0.515531 0.723064
Si Si5 0.729533 0.898481 0.269270
Si Si6 0.414081 0.136377 0.060015
Si Si7 0.169043 0.420259 0.628055
O O1 0.662769 0.213669 0.696275
O O2 0.652548 0.298495 0.659600
O O3 0.742935 0.263923 0.823704
O O4 0.475496 0.260263 0.003591
O O5 0.500000 0.757461 0.750000
O O6 0.561398 0.818898 0.873565
O O7 0.191250 0.860236 0.390778
O O8 0.346111 0.853012 0.471619
O O9 0.779497 0.551791 0.781998
O O10 0.819427 0.472061 0.852954
O O11 0.000000 0.532987 0.750000
O O12 0.000000 0.500000 0.500000
O O13 0.565122 0.885120 0.406005
O O14 0.754540 0.902376 0.416248
O O15 0.309635 0.106516 0.247108
O O16 0.000000 0.413933 0.750000
#
# Coordination Sequence:
#
# PCOD9256776 Si02
#       7
#     8   8   8   8   8   8   8
#     4  10  23  36  55  78 108 139 191 237 274 328
#     4  11  21  37  56  80 108 146 185 229 281 325
#     4  10  21  32  48  72  95 141 180 232 267 314
#     4  11  17  26  38  62  99 135 183 221 267 317
#     4  11  18  28  46  64  98 141 188 219 270 325
#     4  10  18  29  49  69 101 136 192 215 265 329
#     4   9  18  28  38  69  96 140 181 228 255 331
#
# _framework density 20.683174000000001
#
# number of rings (size 3 to 8) (size 9 to 14) (size 15 to 20)
#    0.000    1.714    5.714    3.000    2.000    1.714 
#    0.000    0.000    0.000    0.000    0.000    0.000 
#    0.000    0.000    0.000   32.143    7.714    3.429 
#
# Total GULP energy -156159.503551 kJ/mol
# GULP energy per Si atom -5577.125127 kJ/mol
# Density = 2.063610 g / cm^3
# Si number density = 20.683174 Si / 1000 Ang^3
#
#
#
# Elastic Constant Matrix: (Units=GPa)
#
#
# Indices 1 2 3 4 5 6 
#
# 1 43.3166 -0.6071 12.1040 0.0000 12.7083 0.0000
# 2 -0.6071 93.4375 38.6920 0.0000 11.0825 0.0000
# 3 12.1040 38.6920 61.3688 0.0000 13.2700 0.0000
# 4 0.0000 0.0000 0.0000 24.1158 0.0000 6.7084
# 5 12.7083 11.0825 13.2700 0.0000 29.3935 0.0000
# 6 0.0000 0.0000 0.0000 6.7084 0.0000 16.3168
#
#
#
# Elastic Compliance Matrix: (Units=1/GPa)
#
#
# Indices 1 2 3 4 5 6 
#
# 1 0.027902 0.003762 -0.005496 0.000000 -0.011000 0.000000
# 2 0.003762 0.015050 -0.009588 0.000000 -0.002972 0.000000
# 3 -0.005496 -0.009588 0.024522 0.000000 -0.005080 0.000000
# 4 0.000000 0.000000 0.000000 0.046822 0.000000 -0.019250
# 5 -0.011000 -0.002972 -0.005080 0.000000 0.042191 0.000000
# 6 0.000000 0.000000 0.000000 -0.019250 0.000000 0.069201
#
#
# Mechanical properties :
#
#
# Convention : Reuss Voigt Hill
#
# Bulk Modulus (GPa) = 22.30689 33.16676 27.73683
# Shear Modulus (GPa) = 18.99158 23.82747 21.40953
#
# Velocity S-wave (km/s) = 3.03349 3.39783 3.22082
# Velocity P-wave (km/s) = 4.80394 5.60929 5.22216
#
# Compressibility (1/GPa) = 0.04482920
#
# Stress axis : x y z
#
# Youngs Moduli (GPa) = 35.84010 66.44701 40.77918
#
# Poissons Ratio (x) = -0.24998 0.22414
# Poissons Ratio (y) = -0.13483 0.39098
# Poissons Ratio (z) = 0.19699 0.63708
#
# Static dielectric constant tensor:
#      x y z
#    x 1.745380 0.000000 0.047190 
#    y 0.000000 1.783370 0.000000 
#    z 0.047190 0.000000 1.802130 
# 
# From -- ./inp_files/44231.got.cif
#   From: 2010.05.17/outbox.cif.g08.bks.cpg/sg15_23_cif.got.tgz:44231.got - 2010.06.03 18:47:42.
