data_PCOD9256644
_publ_section_title
;
Structure prediction by ZEFSAII (Michael W. Deem and Ramdas Pophale) SiO2 
 PCOD9256644
Probable space group: C 2/C
;
_chemical_formula_sum "Si O2"
_cell_formula_units_Z 52
_cell_length_a 11.413545
_cell_length_b 25.834239
_cell_length_c 9.661598
_cell_angle_alpha 90.000000
_cell_angle_beta 57.643994
_cell_angle_gamma 90.000000
_cell_volume 2406.510670
_symmetry_space_group_name_H-M "C 2/C"
_symmetry_group_IT_number 15
_symmetry_cell_setting 'monoclinic'
loop_
_space_group_symop_operation_xyz
x,y,z
-x,y,1/2-z
-x,-y,-z
x,-y,1/2+z
1/2+x,1/2+y,z
1/2-x,1/2+y,1/2-z
1/2-x,1/2-y,-z
1/2+x,1/2-y,1/2+z
loop_
_atom_site_type_symbol
_atom_site_label
_atom_site_fract_x
_atom_site_fract_y
_atom_site_fract_z
Si Si1 0.862379 0.021199 0.008587
Si Si2 0.097797 0.522879 0.820635
Si Si3 0.413705 0.371562 0.550144
Si Si4 0.201119 0.683656 0.373285
Si Si5 0.500000 0.444704 0.750000
Si Si6 0.178086 0.805079 0.394985
Si Si7 0.931123 0.637203 0.640865
O O1 0.872144 0.082295 0.971660
O O2 0.728363 0.009533 0.185024
O O3 0.000000 0.000000 0.000000
O O4 0.872028 0.982509 0.872058
O O5 0.136669 0.581310 0.838356
O O6 0.000000 0.528043 0.750000
O O7 0.000000 0.500000 0.000000
O O8 0.294715 0.334596 0.686289
O O9 0.457794 0.406988 0.653414
O O10 0.545170 0.336925 0.429591
O O11 0.158189 0.743756 0.399485
O O12 0.285273 0.679135 0.467423
O O13 0.062110 0.649359 0.462608
O O14 0.311416 0.820346 0.220217
O O15 0.000000 0.639099 0.750000
#
# Coordination Sequence:
#
# PCOD9256644 Si02
#       7
#     8   8   8   8   4   8   8
#     4  10  23  35  58  81 113 160 207 238 295 353
#     4  11  24  39  58  84 120 159 201 249 305 363
#     4  11  19  33  53  76 113 149 187 235 288 341
#     4  10  18  28  49  74 109 145 181 223 293 357
#     4  10  20  34  54  78 116 154 196 242 278 352
#     4  10  18  30  46  76 108 146 180 227 287 355
#     4   9  18  29  47  69 106 142 178 223 283 338
#
# _framework density 21.608049999999999
#
# number of rings (size 3 to 8) (size 9 to 14) (size 15 to 20)
#    0.000    1.846    1.538    3.692    8.615    2.462 
#    0.000    0.000    0.000    0.000    0.000    1.077 
#    4.615    0.000    0.000    0.000    0.000    0.000 
#
# Total GULP energy -145121.112706 kJ/mol
# GULP energy per Si atom -5581.581258 kJ/mol
# Density = 2.155887 g / cm^3
# Si number density = 21.608050 Si / 1000 Ang^3
#
#
#
# Elastic Constant Matrix: (Units=GPa)
#
#
# Indices 1 2 3 4 5 6 
#
# 1 33.3183 14.8214 16.7839 0.0000 -17.9465 0.0000
# 2 14.8214 99.0462 17.2586 0.0000 -18.4165 0.0000
# 3 16.7839 17.2586 88.7129 0.0000 -34.8932 0.0000
# 4 0.0000 0.0000 0.0000 42.8480 0.0000 -8.2410
# 5 -17.9465 -18.4165 -34.8932 0.0000 35.5875 0.0000
# 6 0.0000 0.0000 0.0000 -8.2410 0.0000 17.7690
#
#
#
# Elastic Compliance Matrix: (Units=1/GPa)
#
#
# Indices 1 2 3 4 5 6 
#
# 1 0.041814 -0.002580 0.000586 0.000000 0.020326 0.000000
# 2 -0.002580 0.011332 0.000128 0.000000 0.004688 0.000000
# 3 0.000586 0.000128 0.018359 0.000000 0.018362 0.000000
# 4 0.000000 0.000000 0.000000 0.025624 0.000000 0.011884
# 5 0.020326 0.004688 0.018362 0.000000 0.058780 0.000000
# 6 0.000000 0.000000 0.000000 0.011884 0.000000 0.061790
#
#
# Mechanical properties :
#
#
# Convention : Reuss Voigt Hill
#
# Bulk Modulus (GPa) = 14.75539 35.42280 25.08909
# Shear Modulus (GPa) = 20.48987 30.72179 25.60583
#
# Velocity S-wave (km/s) = 3.08271 3.77473 3.44614
# Velocity P-wave (km/s) = 4.41750 5.95206 5.24125
#
# Compressibility (1/GPa) = 0.06777184
#
# Stress axis : x y z
#
# Youngs Moduli (GPa) = 23.91520 88.24682 54.46891
#
# Poissons Ratio (x) = 0.22767 -0.03189
# Poissons Ratio (y) = 0.06170 -0.00695
# Poissons Ratio (z) = -0.01400 -0.01126
#
# Static dielectric constant tensor:
#      x y z
#    x 1.448310 0.000000 0.069290 
#    y 0.000000 1.815190 0.000000 
#    z 0.069290 0.000000 1.836630 
# 
# From -- ./inp_files/33713.got.cif
#   From: 2010.05.17/outbox.cif.g08.bks.cpg/sg15_17_cif.got.tgz:33713.got - 2010.06.03 18:47:42.
