data_PCOD9256078
_publ_section_title
;
Structure prediction by ZEFSAII (Michael W. Deem and Ramdas Pophale) SiO2 
 PCOD9256078
Probable space group: C 2/C
;
_chemical_formula_sum "Si O2"
_cell_formula_units_Z 60
_cell_length_a 7.883748
_cell_length_b 22.527748
_cell_length_c 22.933874
_cell_angle_alpha 90.000000
_cell_angle_beta 41.238207
_cell_angle_gamma 90.000000
_cell_volume 2684.968773
_symmetry_space_group_name_H-M "C 2/C"
_symmetry_group_IT_number 15
_symmetry_cell_setting 'monoclinic'
loop_
_space_group_symop_operation_xyz
x,y,z
-x,y,1/2-z
-x,-y,-z
x,-y,1/2+z
1/2+x,1/2+y,z
1/2-x,1/2+y,1/2-z
1/2-x,1/2-y,-z
1/2+x,1/2-y,1/2+z
loop_
_atom_site_type_symbol
_atom_site_label
_atom_site_fract_x
_atom_site_fract_y
_atom_site_fract_z
Si Si1 0.520106 0.592133 0.097144
Si Si2 0.884640 0.491516 0.463114
Si Si3 0.505830 0.886246 0.554826
Si Si4 0.421699 0.221709 0.386336
Si Si5 0.599047 0.123487 0.838806
Si Si6 0.042839 0.852128 0.146751
Si Si7 0.646437 0.299123 0.481147
Si Si8 0.000000 0.645956 0.250000
O O1 0.245716 0.603796 0.195407
O O2 0.753146 0.604536 0.081396
O O3 0.591568 0.528956 0.050173
O O4 0.553434 0.642935 0.040347
O O5 0.943368 0.555067 0.419843
O O6 0.000000 0.500000 0.500000
O O7 0.006081 0.437847 0.393730
O O8 0.464332 0.825601 0.599020
O O9 0.770110 0.880965 0.449310
O O10 0.535641 0.286922 0.353488
O O11 0.458377 0.189780 0.314815
O O12 0.114526 0.226488 0.478554
O O13 0.767987 0.154227 0.846272
O O14 0.372631 0.170947 0.884538
O O15 0.792337 0.113685 0.734983
O O16 0.750000 0.250000 0.500000
#
# Coordination Sequence:
#
# PCOD9256078 Si02
#       8
#     8   8   8   8   8   8   8   4
#     4   9  19  36  62  84 121 159 210 251 313 377
#     4   9  17  38  61  90 123 164 211 254 317 390
#     4  11  21  40  62  91 128 165 200 270 334 374
#     4  11  23  36  61  89 127 159 211 263 326 380
#     4  10  19  34  62  89 118 166 220 257 295 379
#     4  11  20  35  59  94 120 157 214 263 309 375
#     4  10  17  34  57  85 114 169 208 249 309 383
#     4  10  22  40  56  90 120 162 214 258 296 394
#
# _framework density 22.346630000000001
#
# number of rings (size 3 to 8) (size 9 to 14) (size 15 to 20)
#    0.000    1.867    5.333    1.200    1.867    0.533 
#    2.400    6.667    2.933    0.000    0.000    0.000 
#    0.000    0.000    0.000    0.000    0.000    0.000 
#
# Total GULP energy -167345.282428 kJ/mol
# GULP energy per Si atom -5578.176081 kJ/mol
# Density = 2.229577 g / cm^3
# Si number density = 22.346630 Si / 1000 Ang^3
#
#
#
# Elastic Constant Matrix: (Units=GPa)
#
#
# Indices 1 2 3 4 5 6 
#
# 1 28.5592 14.6438 23.1791 0.0000 -6.4991 0.0000
# 2 14.6438 119.0132 37.2663 0.0000 -5.8027 0.0000
# 3 23.1791 37.2663 127.2357 0.0000 -20.4114 0.0000
# 4 0.0000 0.0000 0.0000 24.8784 0.0000 0.6122
# 5 -6.4991 -5.8027 -20.4114 0.0000 25.2461 0.0000
# 6 0.0000 0.0000 0.0000 0.6122 0.0000 25.2219
#
#
#
# Elastic Compliance Matrix: (Units=1/GPa)
#
#
# Indices 1 2 3 4 5 6 
#
# 1 0.042716 -0.003113 -0.005999 0.000000 0.005431 0.000000
# 2 -0.003113 0.009478 -0.002284 0.000000 -0.000470 0.000000
# 3 -0.005999 -0.002284 0.010674 0.000000 0.006560 0.000000
# 4 0.000000 0.000000 0.000000 0.040219 0.000000 -0.000976
# 5 0.005431 -0.000470 0.006560 0.000000 0.046204 0.000000
# 6 0.000000 0.000000 0.000000 -0.000976 0.000000 0.039672
#
#
# Mechanical properties :
#
#
# Convention : Reuss Voigt Hill
#
# Bulk Modulus (GPa) = 24.95280 47.22074 36.08677
# Shear Modulus (GPa) = 22.21107 28.38386 25.29747
#
# Velocity S-wave (km/s) = 3.15609 3.56780 3.36824
# Velocity P-wave (km/s) = 4.94689 6.17650 5.59557
#
# Compressibility (1/GPa) = 0.04007566
#
# Stress axis : x y z
#
# Youngs Moduli (GPa) = 23.41062 105.50985 93.68796
#
# Poissons Ratio (x) = 0.32842 0.56201
# Poissons Ratio (y) = 0.07287 0.21401
# Poissons Ratio (z) = 0.14044 0.24101
#
# Static dielectric constant tensor:
#      x y z
#    x 1.887580 0.000000 0.006830 
#    y 0.000000 1.857390 0.000000 
#    z 0.006830 0.000000 1.887900 
# 
# From -- ./inp_files/266514.got.cif
#   From: 2010.05.17/outbox.cif.g08.bks.cpg/sg15_134_cif.got.tgz:266514.got - 2010.06.03 18:47:42.
