data_PCOD9256051
_publ_section_title
;
Structure prediction by ZEFSAII (Michael W. Deem and Ramdas Pophale) SiO2 
 PCOD9256051
Probable space group: C 2/C
;
_chemical_formula_sum "Si O2"
_cell_formula_units_Z 60
_cell_length_a 9.513864
_cell_length_b 18.552788
_cell_length_c 14.790733
_cell_angle_alpha 90.000000
_cell_angle_beta 117.889330
_cell_angle_gamma 90.000000
_cell_volume 2307.468274
_symmetry_space_group_name_H-M "C 2/C"
_symmetry_group_IT_number 15
_symmetry_cell_setting 'monoclinic'
loop_
_space_group_symop_operation_xyz
x,y,z
-x,y,1/2-z
-x,-y,-z
x,-y,1/2+z
1/2+x,1/2+y,z
1/2-x,1/2+y,1/2-z
1/2-x,1/2-y,-z
1/2+x,1/2-y,1/2+z
loop_
_atom_site_type_symbol
_atom_site_label
_atom_site_fract_x
_atom_site_fract_y
_atom_site_fract_z
Si Si1 0.897578 0.969538 0.829446
Si Si2 0.813683 0.108394 0.702457
Si Si3 0.245993 0.808812 0.139265
Si Si4 0.726170 0.553212 0.528383
Si Si5 0.836557 0.410853 0.531791
Si Si6 0.611116 0.293535 0.511374
Si Si7 0.000000 0.661445 0.250000
Si Si8 0.172154 0.805172 0.720469
O O1 0.841419 0.891060 0.780438
O O2 0.845565 0.025081 0.736200
O O3 0.824860 0.013353 0.893328
O O4 0.078047 0.954601 0.916160
O O5 0.729285 0.146381 0.761144
O O6 0.698662 0.114789 0.581126
O O7 0.000000 0.135016 0.750000
O O8 0.273285 0.865140 0.066295
O O9 0.336274 0.734534 0.186557
O O10 0.060105 0.789038 0.082902
O O11 0.855608 0.496582 0.533117
O O12 0.670972 0.376826 0.523952
O O13 0.957993 0.381949 0.644688
O O14 0.750000 0.250000 0.500000
O O15 0.576646 0.276261 0.605501
O O16 0.152607 0.706934 0.270338
#
# Coordination Sequence:
#
# PCOD9256051 Si02
#       8
#     8   8   8   8   8   8   4   8
#     4  10  18  34  54  79 107 143 184 226 272 316
#     4  11  20  31  57  89 105 130 185 243 266 303
#     4  11  21  31  51  82 114 141 179 223 274 324
#     4  10  17  34  56  76 104 147 190 226 264 322
#     4  11  19  35  55  81 110 144 186 223 273 324
#     4  11  19  29  49  76 115 145 172 211 268 339
#     4  10  22  34  54  76 116 154 168 206 286 356
#     4  11  21  34  49  77 114 152 175 212 274 340
#
# _framework density 26.002524999999999
#
# number of rings (size 3 to 8) (size 9 to 14) (size 15 to 20)
#    0.000    1.333    6.667    3.200    0.933    0.000 
#    0.000    0.667    2.933    0.800    1.733    0.000 
#    0.000    0.000    0.000    0.000    0.000    0.000 
#
# Total GULP energy -167320.715355 kJ/mol
# GULP energy per Si atom -5577.357179 kJ/mol
# Density = 2.594334 g / cm^3
# Si number density = 26.002525 Si / 1000 Ang^3
#
#
#
# Elastic Constant Matrix: (Units=GPa)
#
#
# Indices 1 2 3 4 5 6 
#
# 1 38.0835 0.9229 20.7179 0.0000 -5.6891 0.0000
# 2 0.9229 136.9677 35.2647 0.0000 4.6443 0.0000
# 3 20.7179 35.2647 174.3970 0.0000 1.1925 0.0000
# 4 0.0000 0.0000 0.0000 43.8733 0.0000 -0.5550
# 5 -5.6891 4.6443 1.1925 0.0000 23.9177 0.0000
# 6 0.0000 0.0000 0.0000 -0.5550 0.0000 16.9305
#
#
#
# Elastic Compliance Matrix: (Units=1/GPa)
#
#
# Indices 1 2 3 4 5 6 
#
# 1 0.029271 0.000497 -0.003626 0.000000 0.007047 0.000000
# 2 0.000497 0.007759 -0.001619 0.000000 -0.001308 0.000000
# 3 -0.003626 -0.001619 0.006498 0.000000 -0.000872 0.000000
# 4 0.000000 0.000000 0.000000 0.022802 0.000000 0.000747
# 5 0.007047 -0.001308 -0.000872 0.000000 0.043783 0.000000
# 6 0.000000 0.000000 0.000000 0.000747 0.000000 0.059089
#
#
# Mechanical properties :
#
#
# Convention : Reuss Voigt Hill
#
# Bulk Modulus (GPa) = 29.38337 51.47323 40.42830
# Shear Modulus (GPa) = 26.30978 36.44716 31.37847
#
# Velocity S-wave (km/s) = 3.18436 3.74796 3.47760
# Velocity P-wave (km/s) = 4.98447 6.21032 5.63085
#
# Compressibility (1/GPa) = 0.03403286
#
# Stress axis : x y z
#
# Youngs Moduli (GPa) = 34.16310 128.88545 153.88948
#
# Poissons Ratio (x) = -0.06411 0.55802
# Poissons Ratio (y) = -0.01699 0.24916
# Poissons Ratio (z) = 0.12388 0.20867
#
# Static dielectric constant tensor:
#      x y z
#    x 2.167790 0.000000 -0.124720 
#    y 0.000000 2.154170 0.000000 
#    z -0.124720 0.000000 2.157320 
# 
# From -- ./inp_files/206128.got.cif
#   From: 2010.05.17/outbox.cif.g08.bks.cpg/sg15_104_cif.got.tgz:206128.got - 2010.06.03 18:47:42.
