data_PCOD9256572
_publ_section_title
;
Structure prediction by ZEFSAII (Michael W. Deem and Ramdas Pophale) SiO2 
 PCOD9256572
Probable space group: C 2/C
;
_chemical_formula_sum "Si O2"
_cell_formula_units_Z 56
_cell_length_a 21.184226
_cell_length_b 26.279262
_cell_length_c 5.435064
_cell_angle_alpha 90.000000
_cell_angle_beta 106.140041
_cell_angle_gamma 90.000000
_cell_volume 2906.472931
_symmetry_space_group_name_H-M "C 2/C"
_symmetry_group_IT_number 15
_symmetry_cell_setting 'monoclinic'
loop_
_space_group_symop_operation_xyz
x,y,z
-x,y,1/2-z
-x,-y,-z
x,-y,1/2+z
1/2+x,1/2+y,z
1/2-x,1/2+y,1/2-z
1/2-x,1/2-y,-z
1/2+x,1/2-y,1/2+z
loop_
_atom_site_type_symbol
_atom_site_label
_atom_site_fract_x
_atom_site_fract_y
_atom_site_fract_z
Si Si1 0.038060 0.566532 0.538562
Si Si2 0.485254 0.279304 0.470154
Si Si3 0.313278 0.029701 0.817755
Si Si4 0.915866 0.318937 0.403946
Si Si5 0.146953 0.256337 0.522655
Si Si6 0.723632 0.307681 0.769175
Si Si7 0.727003 0.854237 0.158542
O O1 0.108395 0.539534 0.609320
O O2 0.048564 0.627625 0.539763
O O3 0.000000 0.556428 0.750000
O O4 0.000000 0.552779 0.250000
O O5 0.500000 0.312138 0.250000
O O6 0.531957 0.227791 0.506810
O O7 0.407885 0.268701 0.374450
O O8 0.500000 0.301831 0.750000
O O9 0.283664 0.085552 0.833175
O O10 0.296020 0.005519 0.533827
O O11 0.887681 0.308444 0.099737
O O12 0.845379 0.327682 0.465615
O O13 0.218365 0.266041 0.704638
O O14 0.159525 0.223044 0.287878
O O15 0.726848 0.339730 0.523216
O O16 0.745246 0.336956 0.044114
#
# Coordination Sequence:
#
# PCOD9256572 Si02
#       7
#     8   8   8   8   8   8   8
#     4  11  22  34  49  69  96 128 162 207 255 294
#     4  10  18  28  43  63  90 122 161 196 225 263
#     4  11  23  38  55  72  91 120 162 211 264 317
#     4   9  19  32  48  69  96 130 170 203 234 278
#     4   9  19  31  48  70  97 129 167 205 236 278
#     4  10  20  33  49  70  96 126 161 203 247 286
#     4  10  21  36  52  70  94 124 163 209 255 295
#
# _framework density 19.267340000000001
#
# number of rings (size 3 to 8) (size 9 to 14) (size 15 to 20)
#    0.000    2.000    0.000    4.286    0.000   16.000 
#    0.000    0.000    0.000    0.000    0.000    0.000 
#    0.000    0.000    0.000    0.000    0.000  207.143 
#
# Total GULP energy -156067.173734 kJ/mol
# GULP energy per Si atom -5573.827633 kJ/mol
# Density = 1.922349 g / cm^3
# Si number density = 19.267340 Si / 1000 Ang^3
#
#
#
# Elastic Constant Matrix: (Units=GPa)
#
#
# Indices 1 2 3 4 5 6 
#
# 1 72.8111 21.1229 28.4250 0.0000 -18.8364 0.0000
# 2 21.1229 69.2446 28.2311 0.0000 -9.7043 0.0000
# 3 28.4250 28.2311 130.3950 0.0000 -31.0666 0.0000
# 4 0.0000 0.0000 0.0000 25.3790 0.0000 5.2347
# 5 -18.8364 -9.7043 -31.0666 0.0000 36.2477 0.0000
# 6 0.0000 0.0000 0.0000 5.2347 0.0000 18.4806
#
#
#
# Elastic Compliance Matrix: (Units=1/GPa)
#
#
# Indices 1 2 3 4 5 6 
#
# 1 0.017073 -0.003729 -0.001305 0.000000 0.006755 0.000000
# 2 -0.003729 0.016732 -0.002770 0.000000 0.000168 0.000000
# 3 -0.001305 -0.002770 0.010323 0.000000 0.007428 0.000000
# 4 0.000000 0.000000 0.000000 0.041848 0.000000 -0.011854
# 5 0.006755 0.000168 0.007428 0.000000 0.037509 0.000000
# 6 0.000000 0.000000 0.000000 -0.011854 0.000000 0.057468
#
#
# Mechanical properties :
#
#
# Convention : Reuss Voigt Hill
#
# Bulk Modulus (GPa) = 35.06307 47.55652 41.30979
# Shear Modulus (GPa) = 24.26389 28.99956 26.63172
#
# Velocity S-wave (km/s) = 3.55255 3.88379 3.72186
# Velocity P-wave (km/s) = 5.92159 6.69685 6.32111
#
# Compressibility (1/GPa) = 0.02852004
#
# Stress axis : x y z
#
# Youngs Moduli (GPa) = 58.57152 59.76616 96.87355
#
# Poissons Ratio (x) = 0.22289 0.12641
# Poissons Ratio (y) = 0.21844 0.26830
# Poissons Ratio (z) = 0.07643 0.16553
#
# Static dielectric constant tensor:
#      x y z
#    x 1.732520 0.000000 -0.001730 
#    y 0.000000 1.681080 0.000000 
#    z -0.001730 0.000000 1.767310 
# 
# From -- ./inp_files/13742.got.cif
#   From: 2010.05.17/outbox.cif.g08.bks.cpg/sg15_7_cif.got.tgz:13742.got - 2010.06.03 18:47:42.
