data_PCOD9256534
_publ_section_title
;
Structure prediction by ZEFSAII (Michael W. Deem and Ramdas Pophale) SiO2 
 PCOD9256534
Probable space group: C 2/C
;
_chemical_formula_sum "Si O2"
_cell_formula_units_Z 52
_cell_length_a 20.992699
_cell_length_b 19.655216
_cell_length_c 5.367709
_cell_angle_alpha 90.000000
_cell_angle_beta 97.206303
_cell_angle_gamma 90.000000
_cell_volume 2197.307863
_symmetry_space_group_name_H-M "C 2/C"
_symmetry_group_IT_number 15
_symmetry_cell_setting 'monoclinic'
loop_
_space_group_symop_operation_xyz
x,y,z
-x,y,1/2-z
-x,-y,-z
x,-y,1/2+z
1/2+x,1/2+y,z
1/2-x,1/2+y,1/2-z
1/2-x,1/2-y,-z
1/2+x,1/2-y,1/2+z
loop_
_atom_site_type_symbol
_atom_site_label
_atom_site_fract_x
_atom_site_fract_y
_atom_site_fract_z
Si Si1 0.000000 0.289209 0.250000
Si Si2 0.628193 0.735058 0.522202
Si Si3 0.346857 0.896341 0.928101
Si Si4 0.322312 0.259740 0.957247
Si Si5 0.566603 0.543128 0.341232
Si Si6 0.901380 0.620648 0.956716
Si Si7 0.706506 0.543083 0.307634
O O1 0.968127 0.340614 0.435429
O O2 0.054676 0.242961 0.400888
O O3 0.648659 0.814201 0.565595
O O4 0.670047 0.709509 0.312064
O O5 0.641023 0.702792 0.797792
O O6 0.388659 0.916931 0.707874
O O7 0.272907 0.917053 0.874554
O O8 0.379354 0.919708 0.201441
O O9 0.353250 0.185305 0.943112
O O10 0.250000 0.250000 0.000000
O O11 0.500000 0.581945 0.250000
O O12 0.564822 0.516088 0.625005
O O13 0.636068 0.574953 0.325056
O O14 0.707861 0.485117 0.525310
#
# Coordination Sequence:
#
# PCOD9256534 Si02
#       7
#     4   8   8   8   8   8   8
#     4   8  16  30  44  68  88 110 148 182 232 258
#     4   9  18  27  45  64  88 115 139 183 214 259
#     4   9  17  29  39  63  88 110 147 175 221 266
#     4   9  16  27  41  64  92 111 135 166 212 264
#     4   8  14  24  37  56  81 102 125 163 212 258
#     4   9  18  28  46  64  88 113 139 185 215 262
#     4  10  18  27  43  62  85 114 140 181 224 264
#
# _framework density 23.665320999999999
#
# number of rings (size 3 to 8) (size 9 to 14) (size 15 to 20)
#    0.000    3.385    0.000    1.385    0.000    9.846 
#    0.000    0.000    0.000    0.000    0.000   57.077 
#  120.000    0.000    0.000    0.000    0.000    0.000 
#
# Total GULP energy -144913.898111 kJ/mol
# GULP energy per Si atom -5573.611466 kJ/mol
# Density = 2.361146 g / cm^3
# Si number density = 23.665321 Si / 1000 Ang^3
#
#
#
# Elastic Constant Matrix: (Units=GPa)
#
#
# Indices 1 2 3 4 5 6 
#
# 1 474.3237 32.8929 194.2502 0.0000 -28.4637 0.0000
# 2 32.8929 42.4022 17.3688 0.0000 -11.0544 0.0000
# 3 194.2502 17.3688 281.2166 0.0000 -34.3807 0.0000
# 4 0.0000 0.0000 0.0000 -7.2251 0.0000 3.0759
# 5 -28.4637 -11.0544 -34.3807 0.0000 36.1585 0.0000
# 6 0.0000 0.0000 0.0000 3.0759 0.0000 1.1570
#
#
#
# Elastic Compliance Matrix: (Units=1/GPa)
#
#
# Indices 1 2 3 4 5 6 
#
# 1 0.003034 -0.001530 -0.001999 0.000000 0.000020 0.000000
# 2 -0.001530 0.026522 0.000297 0.000000 0.007187 0.000000
# 3 -0.001999 0.000297 0.005360 0.000000 0.003614 0.000000
# 4 0.000000 0.000000 0.000000 -0.064924 0.000000 0.172603
# 5 0.000020 0.007187 0.003614 0.000000 0.033305 0.000000
# 6 0.000000 0.000000 0.000000 0.172603 0.000000 0.405427
#
#
# Mechanical properties :
#
#
# Convention : Reuss Voigt Hill
#
# Bulk Modulus (GPa) = 35.14476 142.99624 89.07050
# Shear Modulus (GPa) = 11.77378 42.91347 27.34363
#
# Velocity S-wave (km/s) = 2.23292 4.26296 3.40285
# Velocity P-wave (km/s) = 4.64014 9.20793 7.29098
#
# Compressibility (1/GPa) = 0.02845374
#
# Stress axis : x y z
#
# Youngs Moduli (GPa) = 329.57990 37.70428 186.56025
#
# Poissons Ratio (x) = 0.05767 0.37292
# Poissons Ratio (y) = 0.50414 -0.05544
# Poissons Ratio (z) = 0.65880 -0.01120
#
# Static dielectric constant tensor:
#      x y z
#    x 1.895660 0.000000 -0.017450 
#    y 0.000000 1.868670 0.000000 
#    z -0.017450 0.000000 2.154760 
# 
# From -- ./inp_files/14474.got.cif
#   From: 2010.05.17/outbox.cif.g08.bks.cpg/sg15_8_cif.got.tgz:14474.got - 2010.06.03 18:47:42.
