data_PCOD9257315
_publ_section_title
;
Structure prediction by ZEFSAII (Michael W. Deem and Ramdas Pophale) SiO2 
 PCOD9257315
Probable space group: C 2/C
;
_chemical_formula_sum "Si O2"
_cell_formula_units_Z 64
_cell_length_a 8.863556
_cell_length_b 24.597905
_cell_length_c 17.075715
_cell_angle_alpha 90.000000
_cell_angle_beta 91.989304
_cell_angle_gamma 90.000000
_cell_volume 3720.687481
_symmetry_space_group_name_H-M "C 2/C"
_symmetry_group_IT_number 15
_symmetry_cell_setting 'monoclinic'
loop_
_space_group_symop_operation_xyz
x,y,z
-x,y,1/2-z
-x,-y,-z
x,-y,1/2+z
1/2+x,1/2+y,z
1/2-x,1/2+y,1/2-z
1/2-x,1/2-y,-z
1/2+x,1/2-y,1/2+z
loop_
_atom_site_type_symbol
_atom_site_label
_atom_site_fract_x
_atom_site_fract_y
_atom_site_fract_z
Si Si1 0.403181 0.944109 0.823684
Si Si2 0.204837 0.663991 0.957392
Si Si3 0.335094 0.642086 0.242089
Si Si4 0.652270 0.340360 0.578350
Si Si5 0.053247 0.080185 0.522630
Si Si6 0.371225 0.723086 0.101371
Si Si7 0.427064 0.897746 0.521696
Si Si8 0.219500 0.985130 0.433499
O O1 0.500000 0.961038 0.750000
O O2 0.291130 0.896379 0.795007
O O3 0.507915 0.920267 0.894990
O O4 0.299072 0.991093 0.858531
O O5 0.256711 0.692714 0.039908
O O6 0.063317 0.625964 0.973511
O O7 0.345315 0.626361 0.935965
O O8 0.165319 0.713513 0.899762
O O9 0.500000 0.614185 0.250000
O O10 0.299548 0.656729 0.330486
O O11 0.357485 0.693208 0.184475
O O12 0.543469 0.390331 0.548323
O O13 0.539578 0.289169 0.570746
O O14 0.803903 0.349876 0.532495
O O15 0.932615 0.050708 0.576077
O O16 0.163938 0.036050 0.485358
O O17 0.340847 0.947622 0.479573
#
# Coordination Sequence:
#
# PCOD9257315 Si02
#       8
#     8   8   8   8   8   8   8   8
#     4  12  21  33  51  83 113 138 171 226 281 327
#     4  10  18  31  51  76 103 135 173 223 259 312
#     4  10  18  32  52  75 107 132 171 218 270 323
#     4   9  18  32  51  80 105 136 168 225 273 316
#     4   9  18  34  55  77 108 138 184 221 266 317
#     4   9  18  31  49  74 104 135 173 207 270 325
#     4  11  20  32  52  82 111 136 177 227 270 314
#     4  10  20  34  53  78 109 143 179 220 269 321
#
# _framework density 17.201122999999999
#
# number of rings (size 3 to 8) (size 9 to 14) (size 15 to 20)
#    0.000    2.000    3.750    1.875    0.000    0.500 
#    0.000    0.000    0.000    2.250    0.000    3.500 
#    0.000    0.000    0.000    0.000    0.000    0.000 
#
# Total GULP energy -178277.967324 kJ/mol
# GULP energy per Si atom -5571.186479 kJ/mol
# Density = 1.716197 g / cm^3
# Si number density = 17.201123 Si / 1000 Ang^3
#
#
#
# Elastic Constant Matrix: (Units=GPa)
#
#
# Indices 1 2 3 4 5 6 
#
# 1 108.1501 59.9313 40.7102 0.0000 -7.8538 0.0000
# 2 59.9313 92.7199 31.8490 0.0000 -4.6971 0.0000
# 3 40.7102 31.8490 54.4121 0.0000 -8.0525 0.0000
# 4 0.0000 0.0000 0.0000 0.8253 0.0000 3.3663
# 5 -7.8538 -4.6971 -8.0525 0.0000 23.2759 0.0000
# 6 0.0000 0.0000 0.0000 3.3663 0.0000 24.3926
#
#
#
# Elastic Compliance Matrix: (Units=1/GPa)
#
#
# Indices 1 2 3 4 5 6 
#
# 1 0.016682 -0.008131 -0.007517 0.000000 0.001388 0.000000
# 2 -0.008131 0.017462 -0.004239 0.000000 -0.000686 0.000000
# 3 -0.007517 -0.004239 0.027384 0.000000 0.006082 0.000000
# 4 0.000000 0.000000 0.000000 2.772214 0.000000 -0.382578
# 5 0.001388 -0.000686 0.006082 0.000000 0.045397 0.000000
# 6 0.000000 0.000000 0.000000 -0.382578 0.000000 0.093794
#
#
# Mechanical properties :
#
#
# Convention : Reuss Voigt Hill
#
# Bulk Modulus (GPa) = 45.96815 57.80700 51.88758
# Shear Modulus (GPa) = 1.65565 17.88485 9.77025
#
# Velocity S-wave (km/s) = 0.98215 3.22801 2.38586
# Velocity P-wave (km/s) = 5.29793 6.89731 6.14984
#
# Compressibility (1/GPa) = 0.02175419
#
# Stress axis : x y z
#
# Youngs Moduli (GPa) = 59.94378 57.26719 36.51788
#
# Poissons Ratio (x) = 0.46562 0.27450
# Poissons Ratio (y) = 0.48738 0.15481
# Poissons Ratio (z) = 0.45060 0.24278
#
# Static dielectric constant tensor:
#      x y z
#    x 1.615400 0.000000 -0.000310 
#    y 0.000000 1.590080 0.000000 
#    z -0.000310 0.000000 1.568530 
# 
# From -- ./inp_files/192973.got.cif
#   From: 2010.05.17/outbox.cif.g08.bks.cpg/sg15_97_cif.got.tgz:192973.got - 2010.06.03 18:47:42.
