data_PCOD9257528
_publ_section_title
;
Structure prediction by ZEFSAII (Michael W. Deem and Ramdas Pophale) SiO2 
 PCOD9257528
Probable space group: C 2/C
;
_chemical_formula_sum "Si O2"
_cell_formula_units_Z 56
_cell_length_a 18.207313
_cell_length_b 15.305495
_cell_length_c 13.548632
_cell_angle_alpha 90.000000
_cell_angle_beta 42.507457
_cell_angle_gamma 90.000000
_cell_volume 2551.136562
_symmetry_space_group_name_H-M "C 2/C"
_symmetry_group_IT_number 15
_symmetry_cell_setting 'monoclinic'
loop_
_space_group_symop_operation_xyz
x,y,z
-x,y,1/2-z
-x,-y,-z
x,-y,1/2+z
1/2+x,1/2+y,z
1/2-x,1/2+y,1/2-z
1/2-x,1/2-y,-z
1/2+x,1/2-y,1/2+z
loop_
_atom_site_type_symbol
_atom_site_label
_atom_site_fract_x
_atom_site_fract_y
_atom_site_fract_z
Si Si1 0.005383 0.333646 0.134212
Si Si2 0.326030 0.294318 0.506610
Si Si3 0.025383 0.461420 0.835582
Si Si4 0.368816 0.841345 0.091998
Si Si5 0.550258 0.528845 0.605109
Si Si6 0.701730 0.120660 0.301819
Si Si7 0.339058 0.547195 0.684201
O O1 0.000000 0.295954 0.250000
O O2 0.969289 0.434806 0.178514
O O3 0.918206 0.299257 0.141669
O O4 0.122018 0.338010 0.962807
O O5 0.250000 0.250000 0.500000
O O6 0.406144 0.218847 0.463343
O O7 0.382231 0.385810 0.425963
O O8 0.267934 0.310506 0.670421
O O9 0.131323 0.423867 0.783478
O O10 0.000000 0.430532 0.750000
O O11 0.930471 0.431791 0.003421
O O12 0.245074 0.874250 0.219090
O O13 0.500000 0.483700 0.750000
O O14 0.449196 0.558769 0.637076
O O15 0.625354 0.467523 0.464344
O O16 0.780406 0.045636 0.267912
#
# Coordination Sequence:
#
# PCOD9257528 Si02
#       7
#     8   8   8   8   8   8   8
#     4  10  20  34  57  86 109 147 197 245 286 340
#     4  11  24  38  60  90 120 157 191 245 321 376
#     4  10  18  31  57  89 115 141 186 244 293 347
#     4  11  20  36  57  86 119 153 194 242 305 352
#     4  10  23  39  58  85 120 155 200 242 295 362
#     4  10  19  38  56  85 121 154 195 242 303 354
#     4  10  20  37  58  81 116 158 200 241 286 351
#
# _framework density 21.951000000000001
#
# number of rings (size 3 to 8) (size 9 to 14) (size 15 to 20)
#    0.000    1.714    2.857    2.571    0.000    7.429 
#    0.000    0.714    0.000    8.571    0.000    0.000 
#    0.000    0.000    0.000    0.000    0.000    0.000 
#
# Total GULP energy -156121.246400 kJ/mol
# GULP energy per Si atom -5575.758800 kJ/mol
# Density = 2.190104 g / cm^3
# Si number density = 21.951000 Si / 1000 Ang^3
#
#
#
# Elastic Constant Matrix: (Units=GPa)
#
#
# Indices 1 2 3 4 5 6 
#
# 1 88.3626 -4.4183 6.0598 0.0000 19.5417 0.0000
# 2 -4.4183 28.2276 -9.5572 0.0000 3.3428 0.0000
# 3 6.0598 -9.5572 77.0280 0.0000 11.0129 0.0000
# 4 0.0000 0.0000 0.0000 15.1198 0.0000 6.7481
# 5 19.5417 3.3428 11.0129 0.0000 37.0217 0.0000
# 6 0.0000 0.0000 0.0000 6.7481 0.0000 25.3054
#
#
#
# Elastic Compliance Matrix: (Units=1/GPa)
#
#
# Indices 1 2 3 4 5 6 
#
# 1 0.013052 0.003037 0.000391 0.000000 -0.007280 0.000000
# 2 0.003037 0.038563 0.005507 0.000000 -0.006723 0.000000
# 3 0.000391 0.005507 0.014346 0.000000 -0.004971 0.000000
# 4 0.000000 0.000000 0.000000 0.075073 0.000000 -0.020019
# 5 -0.007280 -0.006723 -0.004971 0.000000 0.032940 0.000000
# 6 0.000000 0.000000 0.000000 -0.020019 0.000000 0.044856
#
#
# Mechanical properties :
#
#
# Convention : Reuss Voigt Hill
#
# Bulk Modulus (GPa) = 11.92881 19.75407 15.84144
# Shear Modulus (GPa) = 21.84340 28.92496 25.38418
#
# Velocity S-wave (km/s) = 3.15794 3.63396 3.40428
# Velocity P-wave (km/s) = 4.32930 5.16006 4.76283
#
# Compressibility (1/GPa) = 0.08383063
#
# Stress axis : x y z
#
# Youngs Moduli (GPa) = 76.61616 25.93192 69.70820
#
# Poissons Ratio (x) = -0.07877 -0.02725
# Poissons Ratio (y) = -0.23272 -0.38388
# Poissons Ratio (z) = -0.02995 -0.14281
#
# Static dielectric constant tensor:
#      x y z
#    x 1.938530 0.000000 -0.005330 
#    y 0.000000 1.930350 0.000000 
#    z -0.005330 0.000000 1.867110 
# 
# From -- ./inp_files/163062.got.cif
#   From: 2010.05.17/outbox.cif.g08.bks.cpg/sg15_82_cif.got.tgz:163062.got - 2010.06.03 18:47:42.
