data_PCOD9257688
_publ_section_title
;
Structure prediction by ZEFSAII (Michael W. Deem and Ramdas Pophale) SiO2 
 PCOD9257688
Probable space group: C 2/C
;
_chemical_formula_sum "Si O2"
_cell_formula_units_Z 44
_cell_length_a 21.355137
_cell_length_b 7.739267
_cell_length_c 28.394930
_cell_angle_alpha 90.000000
_cell_angle_beta 19.492571
_cell_angle_gamma 90.000000
_cell_volume 1565.954723
_symmetry_space_group_name_H-M "C 2/C"
_symmetry_group_IT_number 15
_symmetry_cell_setting 'monoclinic'
loop_
_space_group_symop_operation_xyz
x,y,z
-x,y,1/2-z
-x,-y,-z
x,-y,1/2+z
1/2+x,1/2+y,z
1/2-x,1/2+y,1/2-z
1/2-x,1/2-y,-z
1/2+x,1/2-y,1/2+z
loop_
_atom_site_type_symbol
_atom_site_label
_atom_site_fract_x
_atom_site_fract_y
_atom_site_fract_z
Si Si1 0.667013 0.960545 0.222765
Si Si2 0.857436 0.978826 0.957096
Si Si3 0.115271 0.714153 0.949321
Si Si4 0.248753 0.499132 0.772520
Si Si5 0.500000 0.208940 0.750000
Si Si6 0.275631 0.877536 0.032338
O O1 0.819906 0.088875 0.090867
O O2 0.609963 0.811229 0.226575
O O3 0.473428 0.063988 0.370184
O O4 0.739725 0.949088 0.224682
O O5 0.875870 0.006018 0.887123
O O6 0.049285 0.954785 0.849079
O O7 0.700336 0.844915 0.083602
O O8 0.770057 0.171078 0.029708
O O9 0.178936 0.662767 0.852398
O O10 0.223989 0.603738 0.912041
O O11 0.906453 0.645558 0.105527
#
# Coordination Sequence:
#
# PCOD9257688 Si02
#       6
#     8   8   8   8   4   8
#     4  10  19  34  53  84 115 150 188 236 285 337
#     4  10  18  32  51  87 117 142 180 227 295 343
#     4  10  19  36  54  82 118 152 187 229 292 336
#     4  10  22  33  52  84 118 153 188 230 287 347
#     4  10  20  32  54  82 116 148 174 238 306 320
#     4   9  18  30  55  82 116 143 176 235 283 344
#
# _framework density 28.097874000000001
#
# number of rings (size 3 to 8) (size 9 to 14) (size 15 to 20)
#    0.000    2.182    3.636    0.000    0.000    1.455 
#    0.000    0.000    0.000    0.000    0.000   45.818 
#    0.000    0.000    0.000    0.000    0.000    0.000 
#
# Total GULP energy -122617.779282 kJ/mol
# GULP energy per Si atom -5573.535422 kJ/mol
# Density = 2.803392 g / cm^3
# Si number density = 28.097874 Si / 1000 Ang^3
#
#
#
# Elastic Constant Matrix: (Units=GPa)
#
#
# Indices 1 2 3 4 5 6 
#
# 1 255.7700 11.2125 51.5681 0.0291 -21.0496 0.0104
# 2 11.2125 97.3485 27.1386 0.0126 -14.6546 0.0305
# 3 51.5681 27.1386 133.6782 0.0655 -45.8894 0.0001
# 4 0.0291 0.0126 0.0655 21.0652 0.0180 -20.1124
# 5 -21.0496 -14.6546 -45.8894 0.0180 61.0974 0.0107
# 6 0.0104 0.0305 0.0001 -20.1124 0.0107 5.2275
#
#
#
# Elastic Compliance Matrix: (Units=1/GPa)
#
#
# Indices 1 2 3 4 5 6 
#
# 1 0.004244 -0.000016 -0.001527 0.000004 0.000311 0.000005
# 2 -0.000016 0.010964 -0.001777 0.000025 0.001290 0.000028
# 3 -0.001527 -0.001777 0.010919 0.000014 0.007249 0.000054
# 4 0.000004 0.000025 0.000014 -0.017757 0.000035 -0.068318
# 5 0.000311 0.001290 0.007249 0.000035 0.022228 0.000082
# 6 0.000005 0.000028 0.000054 -0.068318 0.000082 -0.071554
#
#
# Mechanical properties :
#
#
# Convention : Reuss Voigt Hill
#
# Bulk Modulus (GPa) = 51.31823 74.07054 62.69438
# Shear Modulus (GPa) = -179.72009 43.93651 -67.89179
#
# Velocity S-wave (km/s) = -8.00631 3.95865 -4.92088
# Velocity P-wave (km/s) = 8.19538 6.87847 3.15047
#
# Compressibility (1/GPa) = 0.01948625
#
# Stress axis : x y z
#
# Youngs Moduli (GPa) = 235.62850 91.21002 91.58550
#
# Poissons Ratio (x) = 0.00148 0.13985
# Poissons Ratio (y) = 0.00383 0.16273
# Poissons Ratio (z) = 0.35980 0.16207
#
# Static dielectric constant tensor:
#      x y z
#    x 2.266580 -0.000080 -0.072110 
#    y -0.000080 2.351190 -0.000030 
#    z -0.072110 -0.000030 2.061960 
# 
# From -- ./inp_files/105018.got.cif
#   From: 2010.05.17/outbox.cif.g08.bks.cpg/sg15_53_cif.got.tgz:105018.got - 2010.06.03 18:47:42.
