data_PCOD9257375
_publ_section_title
;
Structure prediction by ZEFSAII (Michael W. Deem and Ramdas Pophale) SiO2 
 PCOD9257375
Probable space group: C 2/C
;
_chemical_formula_sum "Si O2"
_cell_formula_units_Z 64
_cell_length_a 12.046387
_cell_length_b 23.237547
_cell_length_c 13.839024
_cell_angle_alpha 90.000000
_cell_angle_beta 114.040786
_cell_angle_gamma 90.000000
_cell_volume 3537.895020
_symmetry_space_group_name_H-M "C 2/C"
_symmetry_group_IT_number 15
_symmetry_cell_setting 'monoclinic'
loop_
_space_group_symop_operation_xyz
x,y,z
-x,y,1/2-z
-x,-y,-z
x,-y,1/2+z
1/2+x,1/2+y,z
1/2-x,1/2+y,1/2-z
1/2-x,1/2-y,-z
1/2+x,1/2-y,1/2+z
loop_
_atom_site_type_symbol
_atom_site_label
_atom_site_fract_x
_atom_site_fract_y
_atom_site_fract_z
Si Si1 0.692241 0.893289 0.952125
Si Si2 0.330477 0.878005 0.232148
Si Si3 0.481808 0.906430 0.035425
Si Si4 0.127690 0.269214 0.900131
Si Si5 0.132116 0.147844 0.819676
Si Si6 0.874232 0.255970 0.154963
Si Si7 0.119320 0.491337 0.358333
Si Si8 0.115888 0.288156 0.558973
O O1 0.652907 0.835578 0.880387
O O2 0.700090 0.951596 0.894382
O O3 0.582416 0.908359 0.987342
O O4 0.806518 0.876380 0.060261
O O5 0.445973 0.884865 0.343825
O O6 0.219179 0.867403 0.263156
O O7 0.349064 0.822214 0.174012
O O8 0.317043 0.936954 0.169512
O O9 0.420487 0.964836 0.051496
O O10 0.393826 0.855727 0.969662
O O11 0.121915 0.217225 0.823104
O O12 0.003188 0.271548 0.919709
O O13 0.250000 0.250000 0.000000
O O14 0.000000 0.124045 0.750000
O O15 0.751250 0.224185 0.145346
O O16 0.000000 0.237839 0.250000
O O17 0.890771 0.253562 0.045136
O O18 0.000000 0.504440 0.250000
#
# Coordination Sequence:
#
# PCOD9257375 Si02
#       8
#     8   8   8   8   8   8   8   8
#     4   9  19  32  53  79 107 134 169 223 272 308
#     4  10  18  32  54  81 102 135 183 228 259 323
#     4   9  16  32  52  77 105 134 171 218 266 324
#     4   9  19  35  52  78 112 139 181 223 266 327
#     4  10  20  35  55  75 103 145 186 213 258 326
#     4  11  19  30  51  80 112 141 180 228 274 316
#     4  10  18  31  52  80 105 130 171 220 275 322
#     4  10  19  31  52  80 108 143 180 223 274 318
#
# _framework density 18.089852
#
# number of rings (size 3 to 8) (size 9 to 14) (size 15 to 20)
#    0.000    2.250    2.500    2.250    0.000    0.500 
#    0.000    0.625    0.000    0.750    0.000    0.000 
#    0.000    0.000    0.000    0.000    0.000    0.000 
#
# Total GULP energy -178237.465882 kJ/mol
# GULP energy per Si atom -5569.920809 kJ/mol
# Density = 1.804868 g / cm^3
# Si number density = 18.089852 Si / 1000 Ang^3
#
#
#
# Elastic Constant Matrix: (Units=GPa)
#
#
# Indices 1 2 3 4 5 6 
#
# 1 92.1197 41.3576 28.9120 0.0000 26.1327 0.0000
# 2 41.3576 134.6344 30.6909 0.0000 10.6266 0.0000
# 3 28.9120 30.6909 37.3897 0.0000 13.9089 0.0000
# 4 0.0000 0.0000 0.0000 19.0025 0.0000 -1.6812
# 5 26.1327 10.6266 13.9089 0.0000 25.7944 0.0000
# 6 0.0000 0.0000 0.0000 -1.6812 0.0000 23.8113
#
#
#
# Elastic Compliance Matrix: (Units=1/GPa)
#
#
# Indices 1 2 3 4 5 6 
#
# 1 0.018095 -0.003013 -0.006457 0.000000 -0.013610 0.000000
# 2 -0.003013 0.009641 -0.006558 0.000000 0.002616 0.000000
# 3 -0.006457 -0.006558 0.042134 0.000000 -0.013477 0.000000
# 4 0.000000 0.000000 0.000000 0.052955 0.000000 0.003739
# 5 -0.013610 0.002616 -0.013477 0.000000 0.058746 0.000000
# 6 0.000000 0.000000 0.000000 0.003739 0.000000 0.042261
#
#
# Mechanical properties :
#
#
# Convention : Reuss Voigt Hill
#
# Bulk Modulus (GPa) = 26.44320 51.78499 39.11410
# Shear Modulus (GPa) = 18.62252 24.60053 21.61153
#
# Velocity S-wave (km/s) = 3.21198 3.69169 3.46016
# Velocity P-wave (km/s) = 5.32965 6.84545 6.13455
#
# Compressibility (1/GPa) = 0.03781690
#
# Stress axis : x y z
#
# Youngs Moduli (GPa) = 55.26300 103.72036 23.73375
#
# Poissons Ratio (x) = 0.31246 0.15324
# Poissons Ratio (y) = 0.16648 0.15564
# Poissons Ratio (z) = 0.35682 0.68017
#
# Static dielectric constant tensor:
#      x y z
#    x 1.666010 0.000000 -0.018250 
#    y 0.000000 1.646020 0.000000 
#    z -0.018250 0.000000 1.703800 
# 
# From -- ./inp_files/147162.got.cif
#   From: 2010.05.17/outbox.cif.g08.bks.cpg/sg15_74_cif.got.tgz:147162.got - 2010.06.03 18:47:42.
