data_PCOD9257821
_publ_section_title
;
Structure prediction by ZEFSAII (Michael W. Deem and Ramdas Pophale) SiO2 
 PCOD9257821
Probable space group: C 2/C
;
_chemical_formula_sum "Si O2"
_cell_formula_units_Z 56
_cell_length_a 32.169805
_cell_length_b 22.776749
_cell_length_c 9.688868
_cell_angle_alpha 90.000000
_cell_angle_beta 154.624059
_cell_angle_gamma 90.000000
_cell_volume 3042.429739
_symmetry_space_group_name_H-M "C 2/C"
_symmetry_group_IT_number 15
_symmetry_cell_setting 'monoclinic'
loop_
_space_group_symop_operation_xyz
x,y,z
-x,y,1/2-z
-x,-y,-z
x,-y,1/2+z
1/2+x,1/2+y,z
1/2-x,1/2+y,1/2-z
1/2-x,1/2-y,-z
1/2+x,1/2-y,1/2+z
loop_
_atom_site_type_symbol
_atom_site_label
_atom_site_fract_x
_atom_site_fract_y
_atom_site_fract_z
Si Si1 0.249988 0.250005 0.771525
Si Si2 0.608368 0.151929 0.738756
Si Si3 0.108416 0.348046 0.911645
Si Si4 0.230323 0.060463 0.273984
Si Si5 0.612184 0.353610 0.934304
Si Si6 0.112234 0.853596 0.238865
Si Si7 0.230275 0.939532 0.107734
O O1 0.173800 0.290984 0.462561
O O2 0.181865 0.202933 0.642753
O O3 0.326189 0.209062 0.919638
O O4 0.318102 0.297043 0.051596
O O5 0.499969 0.155547 0.474196
O O6 0.599399 0.147058 0.548215
O O7 0.670547 0.095110 0.968300
O O8 0.170640 0.404848 0.055304
O O9 0.224945 0.054184 0.424796
O O10 0.225500 0.999998 0.176461
O O11 0.146814 0.103111 0.963354
O O12 0.499975 0.336767 0.579068
O O13 0.621542 0.382182 0.114589
O O14 0.646714 0.396913 0.917134
#
# Coordination Sequence:
#
# PCOD9257821 Si02
#       7
#     8   8   8   8   8   8   8
#     4  10  18  32  54  80 109 142 179 218 259 308
#     4   9  18  32  51  78 111 144 178 217 263 315
#     4   9  18  32  51  78 111 144 178 217 263 315
#     4  10  21  37  57  79 105 139 178 222 269 316
#     4  10  21  36  55  80 110 143 177 216 263 314
#     4  10  21  36  55  80 110 143 177 216 263 314
#     4  10  21  37  57  79 105 139 178 222 269 316
#
# _framework density 18.406341000000001
#
# number of rings (size 3 to 8) (size 9 to 14) (size 15 to 20)
#    0.000    2.286    0.000    2.571    0.000    2.857 
#    0.000    0.000    0.000   16.286    0.000    0.000 
#    0.000    0.000    0.000    0.000    0.000    0.000 
#
# Total GULP energy -155889.683999 kJ/mol
# GULP energy per Si atom -5567.488714 kJ/mol
# Density = 1.836445 g / cm^3
# Si number density = 18.406341 Si / 1000 Ang^3
#
#
#
# Elastic Constant Matrix: (Units=GPa)
#
#
# Indices 1 2 3 4 5 6 
#
# 1 71.6135 42.7458 47.1991 0.0000 8.0966 0.0000
# 2 42.7458 110.8690 43.2710 0.0000 0.3081 0.0000
# 3 47.1991 43.2710 114.7161 0.0000 23.4499 0.0000
# 4 0.0000 0.0000 0.0000 11.1743 0.0000 -5.7577
# 5 8.0966 0.3081 23.4499 0.0000 29.0408 0.0000
# 6 0.0000 0.0000 0.0000 -5.7577 0.0000 18.9417
#
#
#
# Elastic Compliance Matrix: (Units=1/GPa)
#
#
# Indices 1 2 3 4 5 6 
#
# 1 0.021933 -0.005845 -0.006686 0.000000 -0.000654 0.000000
# 2 -0.005845 0.012482 -0.003125 0.000000 0.004021 0.000000
# 3 -0.006686 -0.003125 0.014682 0.000000 -0.009959 0.000000
# 4 0.000000 0.000000 0.000000 0.106110 0.000000 0.032254
# 5 -0.000654 0.004021 -0.009959 0.000000 0.042616 0.000000
# 6 0.000000 0.000000 0.000000 0.032254 0.000000 0.062598
#
#
# Mechanical properties :
#
#
# Convention : Reuss Voigt Hill
#
# Bulk Modulus (GPa) = 56.22542 62.62560 59.42551
# Shear Modulus (GPa) = 16.79761 22.76355 19.78058
#
# Velocity S-wave (km/s) = 3.02420 3.52052 3.28176
# Velocity P-wave (km/s) = 6.54274 7.11500 6.83486
#
# Compressibility (1/GPa) = 0.01778555
#
# Stress axis : x y z
#
# Youngs Moduli (GPa) = 45.59289 80.11663 68.10868
#
# Poissons Ratio (x) = 0.46830 0.45535
# Poissons Ratio (y) = 0.26650 0.21284
# Poissons Ratio (z) = 0.30482 0.25037
#
# Static dielectric constant tensor:
#      x y z
#    x 1.642550 0.000000 0.014340 
#    y 0.000000 1.620770 0.000000 
#    z 0.014340 0.000000 1.661990 
# 
# From -- ./inp_files/70857.got.cif
#   From: 2010.05.17/outbox.cif.g08.bks.cpg/sg15_36_cif.got.tgz:70857.got - 2010.06.03 18:47:42.
