data_PCOD9257027
_publ_section_title
;
Structure prediction by ZEFSAII (Michael W. Deem and Ramdas Pophale) SiO2 
 PCOD9257027
Probable space group: C 2/C
;
_chemical_formula_sum "Si O2"
_cell_formula_units_Z 64
_cell_length_a 11.992369
_cell_length_b 22.360222
_cell_length_c 21.148091
_cell_angle_alpha 90.000000
_cell_angle_beta 142.972434
_cell_angle_gamma 90.000000
_cell_volume 3415.013559
_symmetry_space_group_name_H-M "C 2/C"
_symmetry_group_IT_number 15
_symmetry_cell_setting 'monoclinic'
loop_
_space_group_symop_operation_xyz
x,y,z
-x,y,1/2-z
-x,-y,-z
x,-y,1/2+z
1/2+x,1/2+y,z
1/2-x,1/2+y,1/2-z
1/2-x,1/2-y,-z
1/2+x,1/2-y,1/2+z
loop_
_atom_site_type_symbol
_atom_site_label
_atom_site_fract_x
_atom_site_fract_y
_atom_site_fract_z
Si Si1 0.460687 0.286098 0.409957
Si Si2 0.952722 0.262232 0.418823
Si Si3 0.786890 0.447311 0.268646
Si Si4 0.881005 0.909904 0.047257
Si Si5 0.709067 0.627699 0.854949
Si Si6 0.085692 0.304343 0.719533
Si Si7 0.053505 0.670015 0.702434
Si Si8 0.491327 0.057138 0.172420
O O1 0.437861 0.264154 0.471722
O O2 0.595230 0.343325 0.471131
O O3 0.505353 0.234996 0.378302
O O4 0.268651 0.311371 0.295729
O O5 0.842693 0.317508 0.401257
O O6 0.801550 0.214188 0.325439
O O7 0.044415 0.292232 0.397816
O O8 0.584721 0.439562 0.144226
O O9 0.752190 0.423614 0.323720
O O10 0.935962 0.400563 0.306695
O O11 0.874817 0.512211 0.303698
O O12 0.795313 0.898364 0.077506
O O13 0.725123 0.947501 0.942198
O O14 0.500000 0.650160 0.750000
O O15 0.054855 0.374169 0.691543
O O16 0.000000 0.292371 0.750000
O O17 0.000000 0.682277 0.750000
O O18 0.500000 0.042815 0.250000
#
# Coordination Sequence:
#
# PCOD9257027 Si02
#       8
#     8   8   8   8   8   8   8   8
#     4  10  19  32  53  79 106 132 164 208 260 318
#     4  10  18  30  51  79 106 130 163 211 262 311
#     4   9  20  37  53  73 101 133 177 218 248 299
#     4  10  20  34  55  79 103 136 170 208 261 310
#     4   9  17  32  55  79 102 132 169 210 258 311
#     4  10  19  30  48  78 110 132 159 205 263 315
#     4   9  19  35  53  70  95 136 178 213 248 294
#     4  11  22  33  50  75 105 139 173 213 257 301
#
# _framework density 18.740774999999999
#
# number of rings (size 3 to 8) (size 9 to 14) (size 15 to 20)
#    0.000    2.250    0.000    6.000    0.000    3.000 
#    0.000    1.250    0.000   10.500    0.000    0.000 
#    0.000    0.000    0.000    0.000    0.000    0.000 
#
# Total GULP energy -178363.786744 kJ/mol
# GULP energy per Si atom -5573.868336 kJ/mol
# Density = 1.869812 g / cm^3
# Si number density = 18.740775 Si / 1000 Ang^3
#
#
#
# Elastic Constant Matrix: (Units=GPa)
#
#
# Indices 1 2 3 4 5 6 
#
# 1 54.4905 30.1675 1.5748 -0.0001 -15.2014 0.0001
# 2 30.1675 88.2683 16.7078 0.0001 3.3165 0.0003
# 3 1.5748 16.7078 68.1700 -0.0019 -17.5038 0.0010
# 4 -0.0001 0.0001 -0.0019 7.9953 -0.0006 7.1678
# 5 -15.2014 3.3165 -17.5038 -0.0006 23.5583 0.0003
# 6 0.0001 0.0003 0.0010 7.1678 0.0003 16.1645
#
#
#
# Elastic Compliance Matrix: (Units=1/GPa)
#
#
# Indices 1 2 3 4 5 6 
#
# 1 0.036665 -0.016126 0.012065 0.000012 0.034893 -0.000007
# 2 -0.016126 0.019417 -0.009589 -0.000008 -0.020264 0.000004
# 3 0.012065 -0.009589 0.023586 0.000016 0.026659 -0.000009
# 4 0.000012 -0.000008 0.000016 0.207606 0.000028 -0.092059
# 5 0.034893 -0.020264 0.026659 0.000028 0.087624 -0.000016
# 6 -0.000007 0.000004 -0.000009 -0.092059 -0.000016 0.102686
#
#
# Mechanical properties :
#
#
# Convention : Reuss Voigt Hill
#
# Bulk Modulus (GPa) = 19.09614 34.20323 26.64969
# Shear Modulus (GPa) = 9.57232 20.37552 14.97392
#
# Velocity S-wave (km/s) = 2.26249 3.30089 2.82973
# Velocity P-wave (km/s) = 4.12757 5.72872 4.99275
#
# Compressibility (1/GPa) = 0.05236660
#
# Stress axis : x y z
#
# Youngs Moduli (GPa) = 27.27406 51.50164 42.39816
#
# Poissons Ratio (x) = 0.83050 -0.51151
# Poissons Ratio (y) = 0.43981 0.40657
# Poissons Ratio (z) = -0.32905 0.49387
#
# Static dielectric constant tensor:
#      x y z
#    x 1.686510 0.000000 -0.076970 
#    y 0.000000 1.655910 0.000000 
#    z -0.076970 0.000000 1.892890 
# 
# From -- ./inp_files/240440.got.cif
#   From: 2010.05.17/outbox.cif.g08.bks.cpg/sg15_121_cif.got.tgz:240440.got - 2010.06.03 18:47:42.
