data_PCOD9257049
_publ_section_title
;
Structure prediction by ZEFSAII (Michael W. Deem and Ramdas Pophale) SiO2 
 PCOD9257049
Probable space group: C 2/C
;
_chemical_formula_sum "Si O2"
_cell_formula_units_Z 28
_cell_length_a 12.255291
_cell_length_b 22.377855
_cell_length_c 5.423921
_cell_angle_alpha 90.000000
_cell_angle_beta 80.231504
_cell_angle_gamma 90.000000
_cell_volume 1465.928058
_symmetry_space_group_name_H-M "C 2/C"
_symmetry_group_IT_number 15
_symmetry_cell_setting 'monoclinic'
loop_
_space_group_symop_operation_xyz
x,y,z
-x,y,1/2-z
-x,-y,-z
x,-y,1/2+z
1/2+x,1/2+y,z
1/2-x,1/2+y,1/2-z
1/2-x,1/2-y,-z
1/2+x,1/2-y,1/2+z
loop_
_atom_site_type_symbol
_atom_site_label
_atom_site_fract_x
_atom_site_fract_y
_atom_site_fract_z
Si Si1 0.131565 0.535786 0.206426
Si Si2 0.847623 0.759640 0.160397
Si Si3 0.204960 0.653949 0.943838
Si Si4 0.500000 0.802834 0.250000
O O1 0.152785 0.510547 0.472332
O O2 0.000000 0.550783 0.250000
O O3 0.199870 0.594253 0.103610
O O4 0.827388 0.708918 0.369137
O O5 0.820752 0.825070 0.279106
O O6 0.750000 0.750000 0.000000
O O7 0.959566 0.741849 0.980292
O O8 0.103511 0.655505 0.786092
#
# Coordination Sequence:
#
# PCOD9257049 Si02
#       4
#     8   8   8   4
#     4  10  22  33  50  74 104 142 178 207 252 310
#     4   9  19  31  50  73 101 132 170 212 266 304
#     4  10  20  33  49  74 106 136 171 213 256 310
#     4  10  18  30  52  74 104 134 166 216 262 308
#
# _framework density 19.100525999999999
#
# number of rings (size 3 to 8) (size 9 to 14) (size 15 to 20)
#    0.000    2.286    0.000    2.571   14.000    0.000 
#    0.000    0.000    0.000    0.000    0.000    2.000 
#    0.000    0.000    0.000    0.000    0.000    0.000 
#
# Total GULP energy -78008.988283 kJ/mol
# GULP energy per Si atom -5572.070592 kJ/mol
# Density = 1.905705 g / cm^3
# Si number density = 19.100526 Si / 1000 Ang^3
#
#
#
# Elastic Constant Matrix: (Units=GPa)
#
#
# Indices 1 2 3 4 5 6 
#
# 1 21.5360 4.1218 -1.7192 0.0000 3.2780 0.0000
# 2 4.1218 78.0581 21.9243 0.0000 -18.2102 0.0000
# 3 -1.7192 21.9243 83.5895 0.0000 -18.3944 0.0000
# 4 0.0000 0.0000 0.0000 36.9953 0.0000 -10.8239
# 5 3.2780 -18.2102 -18.3944 0.0000 32.8231 0.0000
# 6 0.0000 0.0000 0.0000 -10.8239 0.0000 18.4481
#
#
#
# Elastic Compliance Matrix: (Units=1/GPa)
#
#
# Indices 1 2 3 4 5 6 
#
# 1 0.048361 -0.004334 0.000615 0.000000 -0.006889 0.000000
# 2 -0.004334 0.015521 -0.002475 0.000000 0.007657 0.000000
# 3 0.000615 -0.002475 0.014041 0.000000 0.006434 0.000000
# 4 0.000000 0.000000 0.000000 0.032632 0.000000 0.019146
# 5 -0.006889 0.007657 0.006434 0.000000 0.039008 0.000000
# 6 0.000000 0.000000 0.000000 0.019146 0.000000 0.065439
#
#
# Mechanical properties :
#
#
# Convention : Reuss Voigt Hill
#
# Bulk Modulus (GPa) = 15.25879 25.75970 20.50924
# Shear Modulus (GPa) = 20.06138 28.24376 24.15257
#
# Velocity S-wave (km/s) = 3.24436 3.84955 3.55984
# Velocity P-wave (km/s) = 4.69473 5.76839 5.25903
#
# Compressibility (1/GPa) = 0.06553601
#
# Stress axis : x y z
#
# Youngs Moduli (GPa) = 20.67785 64.42767 71.22036
#
# Poissons Ratio (x) = 0.27921 -0.04382
# Poissons Ratio (y) = 0.08961 0.17628
# Poissons Ratio (z) = -0.01272 0.15947
#
# Static dielectric constant tensor:
#      x y z
#    x 1.720760 0.000000 0.033820 
#    y 0.000000 1.670220 0.000000 
#    z 0.033820 0.000000 1.762870 
# 
# From -- ./inp_files/3459.got.cif
#   From: 2010.05.17/outbox.cif.g08.bks.cpg/sg15_2_cif.got.tgz:3459.got - 2010.06.03 18:47:42.
