data_PCOD9257262
_publ_section_title
;
Structure prediction by ZEFSAII (Michael W. Deem and Ramdas Pophale) SiO2 
 PCOD9257262
Probable space group: C 2/C
;
_chemical_formula_sum "Si O2"
_cell_formula_units_Z 48
_cell_length_a 12.810379
_cell_length_b 8.420537
_cell_length_c 24.107495
_cell_angle_alpha 90.000000
_cell_angle_beta 139.031197
_cell_angle_gamma 90.000000
_cell_volume 1705.000824
_symmetry_space_group_name_H-M "C 2/C"
_symmetry_group_IT_number 15
_symmetry_cell_setting 'monoclinic'
loop_
_space_group_symop_operation_xyz
x,y,z
-x,y,1/2-z
-x,-y,-z
x,-y,1/2+z
1/2+x,1/2+y,z
1/2-x,1/2+y,1/2-z
1/2-x,1/2-y,-z
1/2+x,1/2-y,1/2+z
loop_
_atom_site_type_symbol
_atom_site_label
_atom_site_fract_x
_atom_site_fract_y
_atom_site_fract_z
Si Si1 0.970174 0.189718 0.430034
Si Si2 0.819832 0.116929 0.818308
Si Si3 0.308643 0.875820 0.114146
Si Si4 0.110984 0.481397 0.635691
Si Si5 0.626711 0.794161 0.851412
Si Si6 0.629106 0.455266 0.850894
O O1 0.006289 0.372177 0.426573
O O2 0.807996 0.201746 0.401548
O O3 0.124956 0.129142 0.523901
O O4 0.920911 0.041855 0.371086
O O5 0.693497 0.121955 0.819300
O O6 0.895884 0.294526 0.848185
O O7 0.728839 0.075077 0.725346
O O8 0.382944 0.711749 0.123907
O O9 0.390844 0.036297 0.126012
O O10 0.203997 0.455855 0.614563
O O11 0.500000 0.793335 0.750000
O O12 0.614736 0.623455 0.875302
O O13 0.500000 0.454478 0.750000
#
# Coordination Sequence:
#
# PCOD9257262 Si02
#       6
#     8   8   8   8   8   8
#     4  10  20  33  51  82 104 132 175 218 264 299
#     4  10  18  31  49  76 106 133 167 216 260 304
#     4  10  20  32  53  80 106 133 173 223 259 297
#     4  10  19  31  53  76 105 135 169 214 262 303
#     4   9  17  30  49  75 104 134 167 208 255 303
#     4   9  19  33  51  78 106 137 177 214 250 312
#
# _framework density 28.152480000000001
#
# number of rings (size 3 to 8) (size 9 to 14) (size 15 to 20)
#    0.000    2.333    1.667    2.500    0.000    7.333 
#    0.000    0.000    0.000    1.000    8.667   21.000 
#    0.000    0.000    0.000    0.000    0.000    0.000 
#
# Total GULP energy -134290.188628 kJ/mol
# GULP energy per Si atom -5595.424526 kJ/mol
# Density = 2.808840 g / cm^3
# Si number density = 28.152480 Si / 1000 Ang^3
#
#
#
# Elastic Constant Matrix: (Units=GPa)
#
#
# Indices 1 2 3 4 5 6 
#
# 1 61.1216 61.2590 1.6133 0.0000 0.0124 0.0000
# 2 61.2590 327.2746 24.7118 0.0000 11.7650 0.0000
# 3 1.6133 24.7118 78.9961 0.0000 6.7132 0.0000
# 4 0.0000 0.0000 0.0000 41.8102 0.0000 21.4666
# 5 0.0124 11.7650 6.7132 0.0000 20.5861 0.0000
# 6 0.0000 0.0000 0.0000 21.4666 0.0000 60.3248
#
#
#
# Elastic Compliance Matrix: (Units=1/GPa)
#
#
# Indices 1 2 3 4 5 6 
#
# 1 0.020267 -0.003914 0.000639 0.000000 0.002016 0.000000
# 2 -0.003914 0.003932 -0.000987 0.000000 -0.001923 0.000000
# 3 0.000639 -0.000987 0.013274 0.000000 -0.003765 0.000000
# 4 0.000000 0.000000 0.000000 0.029264 0.000000 -0.010414
# 5 0.002016 -0.001923 -0.003765 0.000000 0.050902 0.000000
# 6 0.000000 0.000000 0.000000 -0.010414 0.000000 0.020283
#
#
# Mechanical properties :
#
#
# Convention : Reuss Voigt Hill
#
# Bulk Modulus (GPa) = 34.54282 71.39561 52.96922
# Shear Modulus (GPa) = 32.03177 49.86477 40.94827
#
# Velocity S-wave (km/s) = 3.37678 4.21317 3.81795
# Velocity P-wave (km/s) = 5.24405 7.00594 6.18802
#
# Compressibility (1/GPa) = 0.02894957
#
# Stress axis : x y z
#
# Youngs Moduli (GPa) = 49.34232 254.33494 75.33281
#
# Poissons Ratio (x) = 0.99553 -0.04815
# Poissons Ratio (y) = 0.19314 0.07432
# Poissons Ratio (z) = -0.03154 0.25093
#
# Static dielectric constant tensor:
#      x y z
#    x 2.424660 0.000000 -0.165790 
#    y 0.000000 2.224590 0.000000 
#    z -0.165790 0.000000 2.305900 
# 
# From -- ./inp_files/209315.got.cif
#   From: 2010.05.17/outbox.cif.g08.bks.cpg/sg15_105_cif.got.tgz:209315.got - 2010.06.03 18:47:42.
