data_PCOD9257297
_publ_section_title
;
Structure prediction by ZEFSAII (Michael W. Deem and Ramdas Pophale) SiO2 
 PCOD9257297
Probable space group: C 2/C
;
_chemical_formula_sum "Si O2"
_cell_formula_units_Z 56
_cell_length_a 18.379789
_cell_length_b 6.880650
_cell_length_c 14.789200
_cell_angle_alpha 90.000000
_cell_angle_beta 80.529561
_cell_angle_gamma 90.000000
_cell_volume 1844.823407
_symmetry_space_group_name_H-M "C 2/C"
_symmetry_group_IT_number 15
_symmetry_cell_setting 'monoclinic'
loop_
_space_group_symop_operation_xyz
x,y,z
-x,y,1/2-z
-x,-y,-z
x,-y,1/2+z
1/2+x,1/2+y,z
1/2-x,1/2+y,1/2-z
1/2-x,1/2-y,-z
1/2+x,1/2-y,1/2+z
loop_
_atom_site_type_symbol
_atom_site_label
_atom_site_fract_x
_atom_site_fract_y
_atom_site_fract_z
Si Si1 0.972764 0.306236 0.074070
Si Si2 0.889256 0.913147 0.287603
Si Si3 0.814991 0.802884 0.561226
Si Si4 0.674452 0.257146 0.463598
Si Si5 0.903106 0.351426 0.337290
Si Si6 0.242642 0.305737 0.238907
Si Si7 0.504589 0.342489 0.390151
O O1 0.886298 0.334082 0.067721
O O2 0.011817 0.406417 0.152308
O O3 0.983277 0.071069 0.090413
O O4 0.014599 0.307147 0.968759
O O5 0.847002 0.984778 0.031623
O O6 0.912013 0.135496 0.294328
O O7 0.803807 0.913150 0.289009
O O8 0.921842 0.811102 0.369457
O O9 0.750000 0.750000 0.500000
O O10 0.785738 0.823695 0.669981
O O11 0.750000 0.250000 0.500000
O O12 0.627444 0.156625 0.553609
O O13 0.705278 0.221844 0.354115
O O14 0.564788 0.313596 0.300914
O O15 0.830903 0.408985 0.290824
#
# Coordination Sequence:
#
# PCOD9257297 Si02
#       7
#     8   8   8   8   8   8   8
#     4  10  18  32  52  83 119 149 198 260 316 361
#     4  10  18  31  50  82 117 150 197 252 309 364
#     4  12  24  38  62  94 126 163 211 263 312 375
#     4  10  22  40  60  88 126 164 204 254 318 379
#     4  10  20  34  57  85 118 159 202 256 316 369
#     4  11  21  33  54  84 123 162 198 244 306 372
#     4   9  17  29  52  77 113 151 188 254 318 358
#
# _framework density 30.355207
#
# number of rings (size 3 to 8) (size 9 to 14) (size 15 to 20)
#    0.000    1.714    0.000    7.714    0.000    2.857 
#    0.000    0.000    0.000    3.429    0.000   48.000 
#    0.000    2.286    0.000    0.000    0.000    0.000 
#
# Total GULP energy -156075.142304 kJ/mol
# GULP energy per Si atom -5574.112225 kJ/mol
# Density = 3.028612 g / cm^3
# Si number density = 30.355207 Si / 1000 Ang^3
#
#
#
# Elastic Constant Matrix: (Units=GPa)
#
#
# Indices 1 2 3 4 5 6 
#
# 1 180.9177 20.5499 62.6138 0.0000 88.8586 0.0000
# 2 20.5499 66.0324 25.2989 0.0000 10.2478 0.0000
# 3 62.6138 25.2989 183.3850 0.0000 35.1449 0.0000
# 4 0.0000 0.0000 0.0000 52.4098 0.0000 6.4560
# 5 88.8586 10.2478 35.1449 0.0000 82.3794 0.0000
# 6 0.0000 0.0000 0.0000 6.4560 0.0000 51.4234
#
#
#
# Elastic Compliance Matrix: (Units=1/GPa)
#
#
# Indices 1 2 3 4 5 6 
#
# 1 0.012379 -0.001280 -0.001657 0.000000 -0.012487 0.000000
# 2 -0.001280 0.016221 -0.001828 0.000000 0.000143 0.000000
# 3 -0.001657 -0.001828 0.006409 0.000000 -0.000719 0.000000
# 4 0.000000 0.000000 0.000000 0.019380 0.000000 -0.002433
# 5 -0.012487 0.000143 -0.000719 0.000000 0.025897 0.000000
# 6 0.000000 0.000000 0.000000 -0.002433 0.000000 0.019752
#
#
# Mechanical properties :
#
#
# Convention : Reuss Voigt Hill
#
# Bulk Modulus (GPa) = 39.24854 71.91782 55.58318
# Shear Modulus (GPa) = 42.35133 58.70068 50.52600
#
# Velocity S-wave (km/s) = 3.73928 4.40226 4.08424
# Velocity P-wave (km/s) = 5.62146 7.04155 6.37119
#
# Compressibility (1/GPa) = 0.02547866
#
# Stress axis : x y z
#
# Youngs Moduli (GPa) = 80.78149 61.64988 156.03436
#
# Poissons Ratio (x) = 0.07890 0.25856
# Poissons Ratio (y) = 0.10338 0.28524
# Poissons Ratio (z) = 0.13386 0.11270
#
# Static dielectric constant tensor:
#      x y z
#    x 2.464240 0.000000 -0.058500 
#    y 0.000000 2.793640 0.000000 
#    z -0.058500 0.000000 2.385010 
# 
# From -- ./inp_files/161709.got.cif
#   From: 2010.05.17/outbox.cif.g08.bks.cpg/sg15_81_cif.got.tgz:161709.got - 2010.06.03 18:47:42.
