data_PCOD9257762
_publ_section_title
;
Structure prediction by ZEFSAII (Michael W. Deem and Ramdas Pophale) SiO2 
 PCOD9257762
Probable space group: C 2/C
;
_chemical_formula_sum "Si O2"
_cell_formula_units_Z 40
_cell_length_a 27.435894
_cell_length_b 10.937023
_cell_length_c 8.932461
_cell_angle_alpha 90.000000
_cell_angle_beta 133.913748
_cell_angle_gamma 90.000000
_cell_volume 1930.873656
_symmetry_space_group_name_H-M "C 2/C"
_symmetry_group_IT_number 15
_symmetry_cell_setting 'monoclinic'
loop_
_space_group_symop_operation_xyz
x,y,z
-x,y,1/2-z
-x,-y,-z
x,-y,1/2+z
1/2+x,1/2+y,z
1/2-x,1/2+y,1/2-z
1/2-x,1/2-y,-z
1/2+x,1/2-y,1/2+z
loop_
_atom_site_type_symbol
_atom_site_label
_atom_site_fract_x
_atom_site_fract_y
_atom_site_fract_z
Si Si1 0.470709 0.151216 0.886964
Si Si2 0.814525 0.031995 0.672140
Si Si3 0.274345 0.894311 0.769560
Si Si4 0.586386 0.984480 0.510959
Si Si5 0.631744 0.665999 0.445709
O O1 0.437243 0.048010 0.706263
O O2 0.438400 0.274095 0.756916
O O3 0.441985 0.111146 0.985616
O O4 0.549453 0.125101 0.026416
O O5 0.779275 0.123877 0.478552
O O6 0.761248 0.969350 0.673262
O O7 0.844850 0.926245 0.632914
O O8 0.867972 0.097597 0.894688
O O9 0.333675 0.975397 0.820651
O O10 0.312460 0.774375 0.912906
#
# Coordination Sequence:
#
# PCOD9257762 Si02
#       5
#     8   8   8   8   8
#     4   9  18  33  54  78 109 138 169 221 268 312
#     4  10  21  33  51  81 109 144 183 212 265 330
#     4  10  18  32  53  77 107 137 174 224 268 313
#     4   9  17  31  54  82 105 133 173 213 268 323
#     4  10  20  35  51  75 112 145 179 222 264 312
#
# _framework density 20.716013
#
# number of rings (size 3 to 8) (size 9 to 14) (size 15 to 20)
#    0.000    2.400    0.000    3.600    0.000    1.600 
#    0.000    8.000    0.000   19.200    0.000    0.000 
#    0.000    0.000    0.000    0.000    0.000    0.000 
#
# Total GULP energy -111430.731171 kJ/mol
# GULP energy per Si atom -5571.536559 kJ/mol
# Density = 2.066886 g / cm^3
# Si number density = 20.716013 Si / 1000 Ang^3
#
#
#
# Elastic Constant Matrix: (Units=GPa)
#
#
# Indices 1 2 3 4 5 6 
#
# 1 53.5075 11.4391 26.3239 0.0000 -4.4150 0.0000
# 2 11.4391 60.3256 14.1827 0.0000 -5.8230 0.0000
# 3 26.3239 14.1827 47.8151 0.0000 -10.6745 0.0000
# 4 0.0000 0.0000 0.0000 39.0562 0.0000 -1.5326
# 5 -4.4150 -5.8230 -10.6745 0.0000 21.2355 0.0000
# 6 0.0000 0.0000 0.0000 -1.5326 0.0000 22.3482
#
#
#
# Elastic Compliance Matrix: (Units=1/GPa)
#
#
# Indices 1 2 3 4 5 6 
#
# 1 0.025881 -0.001781 -0.014224 0.000000 -0.002258 0.000000
# 2 -0.001781 0.018062 -0.003778 0.000000 0.002683 0.000000
# 3 -0.014224 -0.003778 0.032636 0.000000 0.012412 0.000000
# 4 0.000000 0.000000 0.000000 0.025673 0.000000 0.001761
# 5 -0.002258 0.002683 0.012412 0.000000 0.053597 0.000000
# 6 0.000000 0.000000 0.000000 0.001761 0.000000 0.044867
#
#
# Mechanical properties :
#
#
# Convention : Reuss Voigt Hill
#
# Bulk Modulus (GPa) = 27.01766 29.50440 28.26103
# Shear Modulus (GPa) = 19.79255 23.84149 21.81702
#
# Velocity S-wave (km/s) = 3.09434 3.39613 3.24874
# Velocity P-wave (km/s) = 5.08300 5.44532 5.26728
#
# Compressibility (1/GPa) = 0.03701283
#
# Stress axis : x y z
#
# Youngs Moduli (GPa) = 38.63777 55.36598 30.64073
#
# Poissons Ratio (x) = 0.09863 0.43584
# Poissons Ratio (y) = 0.06883 0.11575
# Poissons Ratio (z) = 0.54959 0.20915
#
# Static dielectric constant tensor:
#      x y z
#    x 1.766970 0.000000 0.016770 
#    y 0.000000 1.766990 0.000000 
#    z 0.016770 0.000000 1.798870 
# 
# From -- ./inp_files/54160.got.cif
#   From: 2010.05.17/outbox.cif.g08.bks.cpg/sg15_28_cif.got.tgz:54160.got - 2010.06.03 18:47:42.
