data_PCOD9257131
_publ_section_title
;
Structure prediction by ZEFSAII (Michael W. Deem and Ramdas Pophale) SiO2 
 PCOD9257131
Probable space group: C 2/C
;
_chemical_formula_sum "Si O2"
_cell_formula_units_Z 48
_cell_length_a 22.225868
_cell_length_b 8.402742
_cell_length_c 13.481183
_cell_angle_alpha 90.000000
_cell_angle_beta 52.718590
_cell_angle_gamma 90.000000
_cell_volume 2003.275954
_symmetry_space_group_name_H-M "C 2/C"
_symmetry_group_IT_number 15
_symmetry_cell_setting 'monoclinic'
loop_
_space_group_symop_operation_xyz
x,y,z
-x,y,1/2-z
-x,-y,-z
x,-y,1/2+z
1/2+x,1/2+y,z
1/2-x,1/2+y,1/2-z
1/2-x,1/2-y,-z
1/2+x,1/2-y,1/2+z
loop_
_atom_site_type_symbol
_atom_site_label
_atom_site_fract_x
_atom_site_fract_y
_atom_site_fract_z
Si Si1 0.270397 0.587942 0.536810
Si Si2 0.067928 0.868614 0.550867
Si Si3 0.180381 0.687465 0.172453
Si Si4 0.596156 0.498261 0.300002
Si Si5 0.416142 0.958514 0.556981
Si Si6 0.191800 0.724756 0.802278
O O1 0.250000 0.750000 0.500000
O O2 0.361224 0.570208 0.455414
O O3 0.217157 0.438042 0.557686
O O4 0.243690 0.624168 0.676005
O O5 0.078158 0.924233 0.426583
O O6 0.080687 0.678150 0.529242
O O7 0.983127 0.928663 0.660747
O O8 0.138206 0.855990 0.198405
O O9 0.120946 0.599255 0.303032
O O10 0.252625 0.715774 0.169697
O O11 0.652422 0.641636 0.273450
O O12 0.500000 0.000000 0.500000
O O13 0.370515 0.118170 0.580680
#
# Coordination Sequence:
#
# PCOD9257131 Si02
#       6
#     8   8   8   8   8   8
#     4  11  23  39  58  90 129 173 212 262 335 393
#     4  10  19  34  56  93 123 160 203 265 319 381
#     4  10  20  34  57  91 120 159 214 267 316 381
#     4  10  18  32  60  90 122 154 215 266 313 363
#     4  10  18  30  54  89 119 150 209 267 314 364
#     4  11  18  34  59  91 121 164 213 268 311 377
#
# _framework density 23.960751999999999
#
# number of rings (size 3 to 8) (size 9 to 14) (size 15 to 20)
#    0.000    1.667    6.667    1.000    0.000    0.000 
#    0.000    1.667    0.000    0.000    8.667    0.000 
#    0.000    0.000    0.000    0.000    0.000    0.000 
#
# Total GULP energy -134008.375885 kJ/mol
# GULP energy per Si atom -5583.682329 kJ/mol
# Density = 2.390622 g / cm^3
# Si number density = 23.960752 Si / 1000 Ang^3
#
#
#
# Elastic Constant Matrix: (Units=GPa)
#
#
# Indices 1 2 3 4 5 6 
#
# 1 111.5344 56.7384 54.9577 0.0000 -39.1341 0.0000
# 2 56.7384 158.9076 62.3180 0.0000 -28.3068 0.0000
# 3 54.9577 62.3180 94.4001 0.0000 -51.1252 0.0000
# 4 0.0000 0.0000 0.0000 46.8299 0.0000 -16.9084
# 5 -39.1341 -28.3068 -51.1252 0.0000 52.6592 0.0000
# 6 0.0000 0.0000 0.0000 -16.9084 0.0000 39.3543
#
#
#
# Elastic Compliance Matrix: (Units=1/GPa)
#
#
# Indices 1 2 3 4 5 6 
#
# 1 0.013951 -0.002693 -0.003191 0.000000 0.005822 0.000000
# 2 -0.002693 0.009097 -0.006059 0.000000 -0.002993 0.000000
# 3 -0.003191 -0.006059 0.028264 0.000000 0.021812 0.000000
# 4 0.000000 0.000000 0.000000 0.025275 0.000000 0.010859
# 5 0.005822 -0.002993 0.021812 0.000000 0.042884 0.000000
# 6 0.000000 0.000000 0.000000 0.010859 0.000000 0.030076
#
#
# Mechanical properties :
#
#
# Convention : Reuss Voigt Hill
#
# Bulk Modulus (GPa) = 36.46208 79.20782 57.83495
# Shear Modulus (GPa) = 27.38608 40.49056 33.93832
#
# Velocity S-wave (km/s) = 3.38443 4.11526 3.76761
# Velocity P-wave (km/s) = 5.52476 7.46389 6.56630
#
# Compressibility (1/GPa) = 0.02742575
#
# Stress axis : x y z
#
# Youngs Moduli (GPa) = 71.68043 109.92243 35.38082
#
# Poissons Ratio (x) = 0.29597 0.11291
# Poissons Ratio (y) = 0.19300 0.21438
# Poissons Ratio (z) = 0.22876 0.66604
#
# Static dielectric constant tensor:
#      x y z
#    x 1.852510 0.000000 0.058820 
#    y 0.000000 2.128200 0.000000 
#    z 0.058820 0.000000 1.907370 
# 
# From -- ./inp_files/218120.got.cif
#   From: 2010.05.17/outbox.cif.g08.bks.cpg/sg15_110_cif.got.tgz:218120.got - 2010.06.03 18:47:42.
