data_PCOD9257243
_publ_section_title
;
Structure prediction by ZEFSAII (Michael W. Deem and Ramdas Pophale) SiO2 
 PCOD9257243
Probable space group: C 2/C
;
_chemical_formula_sum "Si O2"
_cell_formula_units_Z 64
_cell_length_a 16.679797
_cell_length_b 17.972224
_cell_length_c 11.492819
_cell_angle_alpha 90.000000
_cell_angle_beta 113.720241
_cell_angle_gamma 90.000000
_cell_volume 3154.185585
_symmetry_space_group_name_H-M "C 2/C"
_symmetry_group_IT_number 15
_symmetry_cell_setting 'monoclinic'
loop_
_space_group_symop_operation_xyz
x,y,z
-x,y,1/2-z
-x,-y,-z
x,-y,1/2+z
1/2+x,1/2+y,z
1/2-x,1/2+y,1/2-z
1/2-x,1/2-y,-z
1/2+x,1/2-y,1/2+z
loop_
_atom_site_type_symbol
_atom_site_label
_atom_site_fract_x
_atom_site_fract_y
_atom_site_fract_z
Si Si1 0.732407 0.532630 0.857546
Si Si2 0.148697 0.385532 0.233201
Si Si3 0.065104 0.631589 0.433043
Si Si4 0.092107 0.528837 0.911880
Si Si5 0.101067 0.247666 0.345624
Si Si6 0.100399 0.672026 0.068933
Si Si7 0.799869 0.126570 0.238080
Si Si8 0.745919 0.336554 0.534972
O O1 0.766236 0.571431 0.759451
O O2 0.682701 0.459331 0.784994
O O3 0.813062 0.496974 0.980396
O O4 0.705103 0.603566 0.919837
O O5 0.097574 0.445120 0.282032
O O6 0.157039 0.314725 0.320586
O O7 0.105913 0.359867 0.086861
O O8 0.038199 0.545778 0.399506
O O9 0.149119 0.644688 0.399511
O O10 0.976307 0.679057 0.380618
O O11 0.068513 0.602294 0.970048
O O12 0.105889 0.257614 0.486620
O O13 0.140365 0.174555 0.312416
O O14 0.000000 0.258383 0.250000
O O15 0.197587 0.648580 0.160264
O O16 0.807408 0.149535 0.377598
O O17 0.750000 0.250000 0.500000
#
# Coordination Sequence:
#
# PCOD9257243 Si02
#       8
#     8   8   8   8   8   8   8   8
#     4   9  18  33  52  80 115 148 190 233 295 355
#     4   9  16  31  50  76 108 147 189 230 286 353
#     4  10  18  31  48  76 115 148 188 224 290 363
#     4   8  16  26  45  75 111 148 177 221 280 357
#     4  11  21  36  60  84 111 156 202 248 292 354
#     4  10  20  33  50  82 116 147 192 239 296 356
#     4  11  22  38  56  86 119 155 197 247 300 353
#     4  10  21  36  59  87 116 157 197 246 304 361
#
# _framework density 20.290499000000001
#
# number of rings (size 3 to 8) (size 9 to 14) (size 15 to 20)
#    0.000    2.500    1.250    3.750    0.000    0.500 
#    0.000    5.000    0.000    0.750    6.500    0.000 
#    0.000    0.000    0.000    0.000    0.000    0.000 
#
# Total GULP energy -178213.676340 kJ/mol
# GULP energy per Si atom -5569.177386 kJ/mol
# Density = 2.024432 g / cm^3
# Si number density = 20.290499 Si / 1000 Ang^3
#
#
#
# Elastic Constant Matrix: (Units=GPa)
#
#
# Indices 1 2 3 4 5 6 
#
# 1 39.0581 22.2302 2.5356 0.0000 -18.7307 0.0000
# 2 22.2302 136.7633 16.9288 0.0000 -22.5662 0.0000
# 3 2.5356 16.9288 38.2384 0.0000 -15.4800 0.0000
# 4 0.0000 0.0000 0.0000 20.2912 0.0000 -9.7928
# 5 -18.7307 -22.5662 -15.4800 0.0000 21.5320 0.0000
# 6 0.0000 0.0000 0.0000 -9.7928 0.0000 27.6389
#
#
#
# Elastic Compliance Matrix: (Units=1/GPa)
#
#
# Indices 1 2 3 4 5 6 
#
# 1 0.054694 -0.001395 0.022089 0.000000 0.061997 0.000000
# 2 -0.001395 0.008878 -0.000793 0.000000 0.007520 0.000000
# 3 0.022089 -0.000793 0.045814 0.000000 0.051321 0.000000
# 4 0.000000 0.000000 0.000000 0.059448 0.000000 0.021063
# 5 0.061997 0.007520 0.051321 0.000000 0.145151 0.000000
# 6 0.000000 0.000000 0.000000 0.021063 0.000000 0.043644
#
#
# Mechanical properties :
#
#
# Convention : Reuss Voigt Hill
#
# Bulk Modulus (GPa) = 6.70300 33.04990 19.87645
# Shear Modulus (GPa) = 13.60336 25.38343 19.49339
#
# Velocity S-wave (km/s) = 2.59208 3.54079 3.10290
# Velocity P-wave (km/s) = 3.50274 5.74804 4.75968
#
# Compressibility (1/GPa) = 0.14918699
#
# Stress axis : x y z
#
# Youngs Moduli (GPa) = 18.28353 112.64175 21.82724
#
# Poissons Ratio (x) = 0.15712 -0.48214
# Poissons Ratio (y) = 0.02550 0.01732
# Poissons Ratio (z) = -0.40386 0.08937
#
# Static dielectric constant tensor:
#      x y z
#    x 1.773540 0.000000 -0.000920 
#    y 0.000000 1.739020 0.000000 
#    z -0.000920 0.000000 1.794630 
# 
# From -- ./inp_files/106433.got.cif
#   From: 2010.05.17/outbox.cif.g08.bks.cpg/sg15_54_cif.got.tgz:106433.got - 2010.06.03 18:47:42.
