data_PCOD9257102
_publ_section_title
;
Structure prediction by ZEFSAII (Michael W. Deem and Ramdas Pophale) SiO2 
 PCOD9257102
Probable space group: C 2/C
;
_chemical_formula_sum "Si O2"
_cell_formula_units_Z 60
_cell_length_a 30.127926
_cell_length_b 18.477858
_cell_length_c 11.976535
_cell_angle_alpha 90.000000
_cell_angle_beta 32.118442
_cell_angle_gamma 90.000000
_cell_volume 3544.828264
_symmetry_space_group_name_H-M "C 2/C"
_symmetry_group_IT_number 15
_symmetry_cell_setting 'monoclinic'
loop_
_space_group_symop_operation_xyz
x,y,z
-x,y,1/2-z
-x,-y,-z
x,-y,1/2+z
1/2+x,1/2+y,z
1/2-x,1/2+y,1/2-z
1/2-x,1/2-y,-z
1/2+x,1/2-y,1/2+z
loop_
_atom_site_type_symbol
_atom_site_label
_atom_site_fract_x
_atom_site_fract_y
_atom_site_fract_z
Si Si1 0.973668 0.125684 0.539934
Si Si2 0.294506 0.350189 0.706901
Si Si3 0.718226 0.183938 0.987601
Si Si4 0.824649 0.220176 0.543901
Si Si5 0.437578 0.253239 0.288859
Si Si6 0.843998 0.087249 0.333328
Si Si7 0.710062 0.568326 0.507688
Si Si8 0.000000 0.801936 0.750000
O O1 0.983456 0.195934 0.599938
O O2 0.885400 0.091868 0.761076
O O3 0.055702 0.076914 0.378787
O O4 0.971278 0.150157 0.416437
O O5 0.225297 0.291003 0.885698
O O6 0.374431 0.305432 0.491784
O O7 0.318268 0.396875 0.762133
O O8 0.267086 0.399068 0.661112
O O9 0.623904 0.199864 0.148069
O O10 0.750000 0.250000 0.000000
O O11 0.775720 0.188760 0.755442
O O12 0.733602 0.109953 0.021380
O O13 0.828678 0.157962 0.442135
O O14 0.918484 0.239631 0.381517
O O15 0.500000 0.222527 0.250000
O O16 0.793359 0.017918 0.483364
#
# Coordination Sequence:
#
# PCOD9257102 Si02
#       8
#     8   8   8   8   8   8   8   4
#     4  10  19  32  49  79 114 145 174 212 269 338
#     4  10  21  36  54  75 109 143 184 223 267 326
#     4  11  18  35  58  75 109 146 192 228 248 330
#     4  10  20  35  53  79 104 142 183 226 272 318
#     4  10  18  33  56  79 106 142 191 229 267 313
#     4  11  23  33  52  80 117 143 172 225 283 338
#     4  11  22  34  53  80 108 152 181 215 270 330
#     4  10  18  30  54  76 106 136 178 228 268 324
#
# _framework density 16.926067
#
# number of rings (size 3 to 8) (size 9 to 14) (size 15 to 20)
#    0.000    1.600    6.667    0.800    1.867    0.000 
#    0.000    0.000    0.000    0.000    1.733    4.667 
#    0.000    0.000    0.000    0.000    0.000    0.000 
#
# Total GULP energy -167272.455210 kJ/mol
# GULP energy per Si atom -5575.748507 kJ/mol
# Density = 1.688754 g / cm^3
# Si number density = 16.926067 Si / 1000 Ang^3
#
#
#
# Elastic Constant Matrix: (Units=GPa)
#
#
# Indices 1 2 3 4 5 6 
#
# 1 94.2148 28.1901 11.8095 0.0000 -7.4210 0.0000
# 2 28.1901 66.4177 17.7225 0.0000 -10.0920 0.0000
# 3 11.8095 17.7225 35.0685 0.0000 1.9883 0.0000
# 4 0.0000 0.0000 0.0000 15.4420 0.0000 -5.4803
# 5 -7.4210 -10.0920 1.9883 0.0000 26.8602 0.0000
# 6 0.0000 0.0000 0.0000 -5.4803 0.0000 18.0230
#
#
#
# Elastic Compliance Matrix: (Units=1/GPa)
#
#
# Indices 1 2 3 4 5 6 
#
# 1 0.012337 -0.004403 -0.002037 0.000000 0.001905 0.000000
# 2 -0.004403 0.020490 -0.009279 0.000000 0.007169 0.000000
# 3 -0.002037 -0.009279 0.034264 0.000000 -0.006586 0.000000
# 4 0.000000 0.000000 0.000000 0.072592 0.000000 0.022073
# 5 0.001905 0.007169 -0.006586 0.000000 0.040937 0.000000
# 6 0.000000 0.000000 0.000000 0.022073 0.000000 0.062197
#
#
# Mechanical properties :
#
#
# Convention : Reuss Voigt Hill
#
# Bulk Modulus (GPa) = 28.04817 34.57168 31.30992
# Shear Modulus (GPa) = 17.47396 21.26363 19.36880
#
# Velocity S-wave (km/s) = 3.21654 3.54823 3.38645
# Velocity P-wave (km/s) = 5.51378 6.10377 5.81626
#
# Compressibility (1/GPa) = 0.03565295
#
# Stress axis : x y z
#
# Youngs Moduli (GPa) = 81.05735 48.80353 29.18491
#
# Poissons Ratio (x) = 0.21489 0.05946
# Poissons Ratio (y) = 0.35691 0.27080
# Poissons Ratio (z) = 0.16514 0.45284
#
# Static dielectric constant tensor:
#      x y z
#    x 1.587850 0.000000 -0.013090 
#    y 0.000000 1.570120 0.000000 
#    z -0.013090 0.000000 1.579110 
# 
# From -- ./inp_files/127208.got.cif
#   From: 2010.05.17/outbox.cif.g08.bks.cpg/sg15_64_cif.got.tgz:127208.got - 2010.06.03 18:47:42.
