data_PCOD9257685
_publ_section_title
;
Structure prediction by ZEFSAII (Michael W. Deem and Ramdas Pophale) SiO2 
 PCOD9257685
Probable space group: C 2/C
;
_chemical_formula_sum "Si O2"
_cell_formula_units_Z 48
_cell_length_a 7.800769
_cell_length_b 23.157623
_cell_length_c 20.846218
_cell_angle_alpha 90.000000
_cell_angle_beta 145.160678
_cell_angle_gamma 90.000000
_cell_volume 2151.321915
_symmetry_space_group_name_H-M "C 2/C"
_symmetry_group_IT_number 15
_symmetry_cell_setting 'monoclinic'
loop_
_space_group_symop_operation_xyz
x,y,z
-x,y,1/2-z
-x,-y,-z
x,-y,1/2+z
1/2+x,1/2+y,z
1/2-x,1/2+y,1/2-z
1/2-x,1/2-y,-z
1/2+x,1/2-y,1/2+z
loop_
_atom_site_type_symbol
_atom_site_label
_atom_site_fract_x
_atom_site_fract_y
_atom_site_fract_z
Si Si1 0.694561 0.716670 0.194833
Si Si2 0.706413 0.318565 0.473315
Si Si3 0.177399 0.387889 0.669011
Si Si4 0.113882 0.861350 0.992983
Si Si5 0.643257 0.160914 0.727483
Si Si6 0.263734 0.968229 0.622490
O O1 0.786122 0.664634 0.269445
O O2 0.569667 0.771553 0.193772
O O3 0.000000 0.732119 0.250000
O O4 0.447985 0.692282 0.071267
O O5 0.750000 0.250000 0.500000
O O6 0.545532 0.344268 0.488064
O O7 0.495837 0.335275 0.348971
O O8 0.011984 0.354127 0.560830
O O9 0.500000 0.409962 0.750000
O O10 0.980715 0.438822 0.637186
O O11 0.462317 0.871718 0.116406
O O12 0.929723 0.915046 0.907516
O O13 0.500000 0.140184 0.750000
O O14 0.500000 0.992076 0.750000
O O15 0.000000 0.000000 0.500000
#
# Coordination Sequence:
#
# PCOD9257685 Si02
#       6
#     8   8   8   8   8   8
#     4  12  18  35  55  82 125 162 200 236 294 369
#     4  10  18  32  51  82 124 161 200 241 286 360
#     4  11  22  38  64  88 119 162 202 251 307 371
#     4  10  20  36  57  84 120 154 206 247 298 368
#     4  10  21  32  52  86 123 166 203 239 290 355
#     4  11  23  45  71  93 117 159 212 270 324 373
#
# _framework density 22.311864
#
# number of rings (size 3 to 8) (size 9 to 14) (size 15 to 20)
#    0.000    1.333    6.667    1.000    2.333    3.333 
#    3.000    0.833    0.000    1.000    0.000    0.000 
#    0.000    0.000    0.000    0.000    0.000    0.000 
#
# Total GULP energy -133796.238676 kJ/mol
# GULP energy per Si atom -5574.843278 kJ/mol
# Density = 2.226108 g / cm^3
# Si number density = 22.311864 Si / 1000 Ang^3
#
#
#
# Elastic Constant Matrix: (Units=GPa)
#
#
# Indices 1 2 3 4 5 6 
#
# 1 31.4498 12.8810 22.5151 -0.0001 10.8065 0.0000
# 2 12.8810 44.8710 29.4654 0.0000 9.2773 0.0000
# 3 22.5151 29.4654 213.8242 -0.0008 5.9007 0.0000
# 4 -0.0001 0.0000 -0.0008 45.0229 -0.0003 1.6716
# 5 10.8065 9.2773 5.9007 -0.0003 30.9630 0.0000
# 6 0.0000 0.0000 0.0000 1.6716 0.0000 12.8552
#
#
#
# Elastic Compliance Matrix: (Units=1/GPa)
#
#
# Indices 1 2 3 4 5 6 
#
# 1 0.040908 -0.007419 -0.002968 0.000000 -0.011489 0.000000
# 2 -0.007419 0.027330 -0.002845 0.000000 -0.005057 0.000000
# 3 -0.002968 -0.002845 0.005357 0.000000 0.000867 0.000000
# 4 0.000000 0.000000 0.000000 0.022319 0.000000 -0.002902
# 5 -0.011489 -0.005057 0.000867 0.000000 0.037656 0.000000
# 6 0.000000 0.000000 0.000000 -0.002902 0.000000 0.078167
#
#
# Mechanical properties :
#
#
# Convention : Reuss Voigt Hill
#
# Bulk Modulus (GPa) = 21.21768 46.65201 33.93484
# Shear Modulus (GPa) = 19.69189 32.78714 26.23952
#
# Velocity S-wave (km/s) = 2.97404 3.83756 3.43306
# Velocity P-wave (km/s) = 4.61773 6.37105 5.56389
#
# Compressibility (1/GPa) = 0.04713051
#
# Stress axis : x y z
#
# Youngs Moduli (GPa) = 24.44518 36.58999 186.65665
#
# Poissons Ratio (x) = 0.27146 0.55402
# Poissons Ratio (y) = 0.18136 0.53111
# Poissons Ratio (z) = 0.07256 0.10411
#
# Static dielectric constant tensor:
#      x y z
#    x 1.865630 0.000000 0.015400 
#    y 0.000000 1.815330 0.000000 
#    z 0.015400 0.000000 2.011670 
# 
# From -- ./inp_files/266551.got.cif
#   From: 2010.05.17/outbox.cif.g08.bks.cpg/sg15_134_cif.got.tgz:266551.got - 2010.06.03 18:47:42.
