data_PCOD9257419
_publ_section_title
;
Structure prediction by ZEFSAII (Michael W. Deem and Ramdas Pophale) SiO2 
 PCOD9257419
Probable space group: C 2/C
;
_chemical_formula_sum "Si O2"
_cell_formula_units_Z 60
_cell_length_a 16.872372
_cell_length_b 21.454195
_cell_length_c 13.154556
_cell_angle_alpha 90.000000
_cell_angle_beta 32.965495
_cell_angle_gamma 90.000000
_cell_volume 2591.017328
_symmetry_space_group_name_H-M "C 2/C"
_symmetry_group_IT_number 15
_symmetry_cell_setting 'monoclinic'
loop_
_space_group_symop_operation_xyz
x,y,z
-x,y,1/2-z
-x,-y,-z
x,-y,1/2+z
1/2+x,1/2+y,z
1/2-x,1/2+y,1/2-z
1/2-x,1/2-y,-z
1/2+x,1/2-y,1/2+z
loop_
_atom_site_type_symbol
_atom_site_label
_atom_site_fract_x
_atom_site_fract_y
_atom_site_fract_z
Si Si1 0.000000 0.165238 0.250000
Si Si2 0.757057 0.108203 0.795111
Si Si3 0.975411 0.941574 0.614223
Si Si4 0.155391 0.941827 0.944117
Si Si5 0.568863 0.788933 0.946488
Si Si6 0.724518 0.785608 0.158751
Si Si7 0.957699 0.404579 0.679536
Si Si8 0.529143 0.318431 0.325741
O O1 0.963965 0.117908 0.197271
O O2 0.847480 0.199523 0.442519
O O3 0.894927 0.071744 0.605763
O O4 0.732402 0.158190 0.732693
O O5 0.814669 0.147042 0.830357
O O6 0.612218 0.069796 0.971585
O O7 0.838179 0.945131 0.686424
O O8 0.042516 0.002837 0.595604
O O9 0.313829 0.946734 0.824761
O O10 0.088331 0.874162 0.042536
O O11 0.719915 0.774746 0.839564
O O12 0.571751 0.846875 0.866377
O O13 0.527435 0.730489 0.918703
O O14 0.448789 0.786221 0.166363
O O15 0.000000 0.387605 0.750000
O O16 0.500000 0.286008 0.250000
#
# Coordination Sequence:
#
# PCOD9257419 Si02
#       8
#     4   8   8   8   8   8   8   8
#     4  10  20  38  64  84 112 144 208 262 308 352
#     4   8  18  34  51  75 115 153 189 237 309 350
#     4   9  20  40  61  83 110 155 199 262 305 348
#     4  10  21  36  59  88 114 155 204 247 308 357
#     4  10  20  35  54  82 126 163 196 238 309 355
#     4   9  19  34  55  82 112 157 196 247 296 355
#     4  11  21  35  56  87 123 160 194 243 300 370
#     4  10  18  31  53  83 117 155 204 242 277 360
#
# _framework density 23.156928000000001
#
# number of rings (size 3 to 8) (size 9 to 14) (size 15 to 20)
#    0.000    2.400    0.000    2.800    0.933    1.067 
#    2.400    5.333    0.000    5.600    0.000    0.000 
#    0.000    0.000    0.000    0.000    0.000    0.000 
#
# Total GULP energy -167126.121723 kJ/mol
# GULP energy per Si atom -5570.870724 kJ/mol
# Density = 2.310422 g / cm^3
# Si number density = 23.156928 Si / 1000 Ang^3
#
#
#
# Elastic Constant Matrix: (Units=GPa)
#
#
# Indices 1 2 3 4 5 6 
#
# 1 78.2738 11.8477 39.2586 0.0029 -3.1510 -0.0004
# 2 11.8477 43.6584 7.9831 0.0030 3.4409 -0.0016
# 3 39.2586 7.9831 85.8116 0.0068 -9.1743 -0.0028
# 4 0.0029 0.0030 0.0068 11.1706 -0.0029 -2.0685
# 5 -3.1510 3.4409 -9.1743 -0.0029 35.5139 0.0019
# 6 -0.0004 -0.0016 -0.0028 -2.0685 0.0019 19.5412
#
#
#
# Elastic Compliance Matrix: (Units=1/GPa)
#
#
# Indices 1 2 3 4 5 6 
#
# 1 0.017022 -0.003239 -0.007498 0.000001 -0.000113 -0.000001
# 2 -0.003239 0.024212 -0.001082 -0.000005 -0.002913 0.000001
# 3 -0.007498 -0.001082 0.015554 -0.000006 0.003458 0.000001
# 4 0.000001 -0.000005 -0.000006 0.091311 0.000006 0.009665
# 5 -0.000113 -0.002913 0.003458 0.000006 0.029323 -0.000002
# 6 -0.000001 0.000001 0.000001 0.009665 -0.000002 0.052197
#
#
# Mechanical properties :
#
#
# Convention : Reuss Voigt Hill
#
# Bulk Modulus (GPa) = 30.16685 36.21362 33.19023
# Shear Modulus (GPa) = 18.91733 23.15543 21.03638
#
# Velocity S-wave (km/s) = 2.86128 3.16561 3.01728
# Velocity P-wave (km/s) = 4.89605 5.38829 5.14806
#
# Compressibility (1/GPa) = 0.03314897
#
# Stress axis : x y z
#
# Youngs Moduli (GPa) = 58.74654 41.30257 64.29120
#
# Poissons Ratio (x) = 0.13379 0.48208
# Poissons Ratio (y) = 0.19030 0.06955
# Poissons Ratio (z) = 0.44050 0.04468
#
# Static dielectric constant tensor:
#      x y z
#    x 1.946010 0.000000 -0.004910 
#    y 0.000000 1.927940 0.000000 
#    z -0.004910 0.000000 1.930010 
# 
# From -- ./inp_files/164101.got.cif
#   From: 2010.05.17/outbox.cif.g08.bks.cpg/sg15_83_cif.got.tgz:164101.got - 2010.06.03 18:47:42.
