data_PCOD9257605
_publ_section_title
;
Structure prediction by ZEFSAII (Michael W. Deem and Ramdas Pophale) SiO2 
 PCOD9257605
Probable space group: C 2/C
;
_chemical_formula_sum "Si O2"
_cell_formula_units_Z 56
_cell_length_a 7.168274
_cell_length_b 34.558687
_cell_length_c 14.266718
_cell_angle_alpha 90.000000
_cell_angle_beta 41.994626
_cell_angle_gamma 90.000000
_cell_volume 2364.621092
_symmetry_space_group_name_H-M "C 2/C"
_symmetry_group_IT_number 15
_symmetry_cell_setting 'monoclinic'
loop_
_space_group_symop_operation_xyz
x,y,z
-x,y,1/2-z
-x,-y,-z
x,-y,1/2+z
1/2+x,1/2+y,z
1/2-x,1/2+y,1/2-z
1/2-x,1/2-y,-z
1/2+x,1/2-y,1/2+z
loop_
_atom_site_type_symbol
_atom_site_label
_atom_site_fract_x
_atom_site_fract_y
_atom_site_fract_z
Si Si1 0.500000 0.985228 0.250000
Si Si2 0.364144 0.284663 0.648314
Si Si3 0.415633 0.053203 0.605820
Si Si4 0.420736 0.452686 0.602669
Si Si5 0.452218 0.215862 0.041193
Si Si6 0.000000 0.008452 0.250000
Si Si7 0.357938 0.370148 0.654475
Si Si8 0.458213 0.869755 0.534185
O O1 0.673092 0.956716 0.253721
O O2 0.265239 0.014875 0.378176
O O3 0.377084 0.250896 0.567404
O O4 0.146241 0.278969 0.814630
O O5 0.663027 0.284921 0.589718
O O6 0.324481 0.327900 0.622356
O O7 0.234155 0.020636 0.621729
O O8 0.375351 0.094350 0.572006
O O9 0.746508 0.047761 0.501845
O O10 0.334761 0.463406 0.742052
O O11 0.343733 0.409560 0.601445
O O12 0.583807 0.173274 0.978630
O O13 0.665610 0.369930 0.585985
O O14 0.142138 0.373793 0.821137
#
# Coordination Sequence:
#
# PCOD9257605 Si02
#       8
#     4   8   8   8   8   4   8   8
#     4  10  22  32  44  68  98 128 160 196 248 304
#     4   8  13  22  37  61  92 121 155 199 244 292
#     4  10  19  33  47  66  96 127 158 199 245 290
#     4  10  18  32  49  68  94 125 159 201 247 287
#     4   8  13  22  37  61  91 123 156 197 245 295
#     4  10  20  30  50  74  88 116 168 206 238 292
#     4   8  14  25  44  67  87 115 159 201 234 283
#     4   8  14  26  44  64  89 119 155 199 241 281
#
# _framework density 23.682442000000002
#
# number of rings (size 3 to 8) (size 9 to 14) (size 15 to 20)
#    0.000    3.143    0.000    4.286    0.000    1.143 
#    0.000    5.714    0.000    0.000    0.000    1.000 
#    0.000    4.571    0.000    0.571    0.000   13.714 
#
# Total GULP energy -155919.091407 kJ/mol
# GULP energy per Si atom -5568.538979 kJ/mol
# Density = 2.362854 g / cm^3
# Si number density = 23.682442 Si / 1000 Ang^3
#
#
#
# Elastic Constant Matrix: (Units=GPa)
#
#
# Indices 1 2 3 4 5 6 
#
# 1 57.1407 17.0155 19.4401 0.0000 -23.5714 0.0000
# 2 17.0155 241.1405 73.3487 0.0000 14.5945 0.0000
# 3 19.4401 73.3487 47.3525 0.0000 -5.5698 0.0000
# 4 0.0000 0.0000 0.0000 36.1093 0.0000 -1.2083
# 5 -23.5714 14.5945 -5.5698 0.0000 35.0457 0.0000
# 6 0.0000 0.0000 0.0000 -1.2083 0.0000 16.5860
#
#
#
# Elastic Compliance Matrix: (Units=1/GPa)
#
#
# Indices 1 2 3 4 5 6 
#
# 1 0.027800 -0.000317 -0.008873 0.000000 0.017420 0.000000
# 2 -0.000317 0.008945 -0.014459 0.000000 -0.006236 0.000000
# 3 -0.008873 -0.014459 0.048062 0.000000 0.007692 0.000000
# 4 0.000000 0.000000 0.000000 0.027761 0.000000 0.002022
# 5 0.017420 -0.006236 0.007692 0.000000 0.044070 0.000000
# 6 0.000000 0.000000 0.000000 0.002022 0.000000 0.060439
#
#
# Mechanical properties :
#
#
# Convention : Reuss Voigt Hill
#
# Bulk Modulus (GPa) = 26.66013 62.80472 44.73242
# Shear Modulus (GPa) = 18.05857 33.27015 25.66436
#
# Velocity S-wave (km/s) = 2.76439 3.75219 3.29551
# Velocity P-wave (km/s) = 4.63367 6.73417 5.78014
#
# Compressibility (1/GPa) = 0.03750919
#
# Stress axis : x y z
#
# Youngs Moduli (GPa) = 35.97167 111.79817 20.80649
#
# Poissons Ratio (x) = 0.03544 0.18461
# Poissons Ratio (y) = 0.01140 0.30083
# Poissons Ratio (z) = 0.31917 1.61645
#
# Static dielectric constant tensor:
#      x y z
#    x 1.958090 0.000000 0.038840 
#    y 0.000000 1.899240 0.000000 
#    z 0.038840 0.000000 2.113120 
# 
# From -- ./inp_files/194077.got.cif
#   From: 2010.05.17/outbox.cif.g08.bks.cpg/sg15_98_cif.got.tgz:194077.got - 2010.06.03 18:47:42.
