data_PCOD9257744
_publ_section_title
;
Structure prediction by ZEFSAII (Michael W. Deem and Ramdas Pophale) SiO2 
 PCOD9257744
Probable space group: C 2/C
;
_chemical_formula_sum "Si O2"
_cell_formula_units_Z 52
_cell_length_a 21.551428
_cell_length_b 18.017623
_cell_length_c 5.338791
_cell_angle_alpha 90.000000
_cell_angle_beta 73.647900
_cell_angle_gamma 90.000000
_cell_volume 1989.225107
_symmetry_space_group_name_H-M "C 2/C"
_symmetry_group_IT_number 15
_symmetry_cell_setting 'monoclinic'
loop_
_space_group_symop_operation_xyz
x,y,z
-x,y,1/2-z
-x,-y,-z
x,-y,1/2+z
1/2+x,1/2+y,z
1/2-x,1/2+y,1/2-z
1/2-x,1/2-y,-z
1/2+x,1/2-y,1/2+z
loop_
_atom_site_type_symbol
_atom_site_label
_atom_site_fract_x
_atom_site_fract_y
_atom_site_fract_z
Si Si1 0.231941 0.690622 0.309364
Si Si2 0.134972 0.948019 0.508505
Si Si3 0.742376 0.045958 0.824376
Si Si4 0.500000 0.260369 0.250000
Si Si5 0.141453 0.777983 0.016989
Si Si6 0.500000 0.158370 0.750000
Si Si7 0.500000 0.551824 0.250000
Si Si8 0.633295 0.873039 0.237648
O O1 0.250000 0.750000 0.500000
O O2 0.184067 0.733303 0.173484
O O3 0.186853 0.626310 0.462276
O O4 0.303197 0.665901 0.137429
O O5 0.198184 0.901919 0.347876
O O6 0.134037 0.002866 0.264920
O O7 0.067309 0.904770 0.630887
O O8 0.671085 0.080908 0.901083
O O9 0.749116 0.987124 0.590985
O O10 0.568539 0.304118 0.155687
O O11 0.509693 0.208646 0.487845
O O12 0.128327 0.712601 0.829828
O O13 0.437291 0.108146 0.771984
O O14 0.500000 0.500000 0.500000
#
# Coordination Sequence:
#
# PCOD9257744 Si02
#       8
#     8   8   8   4   8   4   4   8
#     4   9  17  32  52  82 108 134 179 216 271 335
#     4   8  14  26  41  65  88 112 152 202 250 302
#     4  10  22  35  51  74 104 139 187 229 275 318
#     4  10  18  32  52  83 115 138 176 225 261 322
#     4   9  18  31  54  83 109 139 179 219 272 327
#     4  10  20  32  52  79 103 142 186 225 271 322
#     4   8  12  20  40  62  84 106 140 194 250 294
#     4  10  20  34  54  75 109 144 182 234 272 320
#
# _framework density 26.140830000000001
#
# number of rings (size 3 to 8) (size 9 to 14) (size 15 to 20)
#    0.000    2.769    1.538    0.000    2.154    0.000 
#    0.000    0.769    0.000    0.000   12.000    1.077 
#    0.000    0.000    0.000    0.000    0.000    0.000 
#
# Total GULP energy -144853.021243 kJ/mol
# GULP energy per Si atom -5571.270048 kJ/mol
# Density = 2.608133 g / cm^3
# Si number density = 26.140830 Si / 1000 Ang^3
#
#
#
# Elastic Constant Matrix: (Units=GPa)
#
#
# Indices 1 2 3 4 5 6 
#
# 1 206.7508 13.4794 56.7014 0.0000 -62.6126 0.0000
# 2 13.4794 37.2048 35.7391 0.0000 -4.9836 0.0000
# 3 56.7014 35.7391 153.1683 0.0000 10.0364 0.0000
# 4 0.0000 0.0000 0.0000 46.7185 0.0000 12.4765
# 5 -62.6126 -4.9836 10.0364 0.0000 48.7623 0.0000
# 6 0.0000 0.0000 0.0000 12.4765 0.0000 10.9804
#
#
#
# Elastic Compliance Matrix: (Units=1/GPa)
#
#
# Indices 1 2 3 4 5 6 
#
# 1 0.011012 0.003909 -0.006023 0.000000 0.015779 0.000000
# 2 0.003909 0.037424 -0.010906 0.000000 0.011089 0.000000
# 3 -0.006023 -0.010906 0.012045 0.000000 -0.011327 0.000000
# 4 0.000000 0.000000 0.000000 0.030729 0.000000 -0.034916
# 5 0.015779 0.011089 -0.011327 0.000000 0.044233 0.000000
# 6 0.000000 0.000000 0.000000 -0.034916 0.000000 0.130745
#
#
# Mechanical properties :
#
#
# Convention : Reuss Voigt Hill
#
# Bulk Modulus (GPa) = 29.03405 67.66265 48.34835
# Shear Modulus (GPa) = 16.46317 40.70584 28.58450
#
# Velocity S-wave (km/s) = 2.51228 3.95039 3.31037
# Velocity P-wave (km/s) = 4.42112 6.83721 5.75733
#
# Compressibility (1/GPa) = 0.03444232
#
# Stress axis : x y z
#
# Youngs Moduli (GPa) = 90.80852 26.72114 83.02043
#
# Poissons Ratio (x) = -0.10446 0.50001
# Poissons Ratio (y) = -0.35500 0.90542
# Poissons Ratio (z) = 0.54691 0.29142
#
# Static dielectric constant tensor:
#      x y z
#    x 2.447840 0.000000 0.053830 
#    y 0.000000 2.109430 0.000000 
#    z 0.053830 0.000000 2.182790 
# 
# From -- ./inp_files/11238.got.cif
#   From: 2010.05.17/outbox.cif.g08.bks.cpg/sg15_6_cif.got.tgz:11238.got - 2010.06.03 18:47:42.
