data_PCOD9257036
_publ_section_title
;
Structure prediction by ZEFSAII (Michael W. Deem and Ramdas Pophale) SiO2 
 PCOD9257036
Probable space group: C 2/C
;
_chemical_formula_sum "Si O2"
_cell_formula_units_Z 40
_cell_length_a 11.691511
_cell_length_b 21.366075
_cell_length_c 7.693224
_cell_angle_alpha 90.000000
_cell_angle_beta 57.075961
_cell_angle_gamma 90.000000
_cell_volume 1613.126929
_symmetry_space_group_name_H-M "C 2/C"
_symmetry_group_IT_number 15
_symmetry_cell_setting 'monoclinic'
loop_
_space_group_symop_operation_xyz
x,y,z
-x,y,1/2-z
-x,-y,-z
x,-y,1/2+z
1/2+x,1/2+y,z
1/2-x,1/2+y,1/2-z
1/2-x,1/2-y,-z
1/2+x,1/2-y,1/2+z
loop_
_atom_site_type_symbol
_atom_site_label
_atom_site_fract_x
_atom_site_fract_y
_atom_site_fract_z
Si Si1 0.210736 0.103548 0.435659
Si Si2 0.979921 0.192143 0.478227
Si Si3 0.294057 0.875572 0.332296
Si Si4 0.661465 0.484913 0.650171
Si Si5 0.557130 0.835302 0.946002
O O1 0.199007 0.058123 0.610588
O O2 0.090391 0.151769 0.491827
O O3 0.191984 0.050588 0.302740
O O4 0.352160 0.138939 0.285938
O O5 0.829997 0.165219 0.638793
O O6 0.988878 0.263846 0.528034
O O7 0.000000 0.186552 0.250000
O O8 0.427437 0.876946 0.103411
O O9 0.344441 0.838996 0.465896
O O10 0.242183 0.941425 0.447948
O O11 0.500000 0.480491 0.750000
#
# Coordination Sequence:
#
# PCOD9257036 Si02
#       5
#     8   8   8   8   8
#     4  11  23  37  60  89 114 153 187 235 289 336
#     4  12  17  32  56  87 115 143 192 245 284 324
#     4  10  18  30  51  83 116 145 178 237 290 324
#     4  11  21  37  58  84 117 148 196 232 278 344
#     4  10  20  31  53  86 118 143 185 239 292 323
#
# _framework density 24.796561000000001
#
# number of rings (size 3 to 8) (size 9 to 14) (size 15 to 20)
#    0.000    1.200    8.000    2.400    0.000    0.800 
#    0.000    0.000    0.000    1.200    0.000    0.000 
#    0.000    0.000    0.000    0.000    0.000    0.000 
#
# Total GULP energy -112094.316939 kJ/mol
# GULP energy per Si atom -5604.715847 kJ/mol
# Density = 2.474012 g / cm^3
# Si number density = 24.796561 Si / 1000 Ang^3
#
#
#
# Elastic Constant Matrix: (Units=GPa)
#
#
# Indices 1 2 3 4 5 6 
#
# 1 71.7452 40.3856 42.4376 0.0000 -6.6595 0.0000
# 2 40.3856 190.2238 44.3528 0.0000 -18.7042 0.0000
# 3 42.4376 44.3528 89.6654 0.0000 -30.9329 0.0000
# 4 0.0000 0.0000 0.0000 32.5763 0.0000 14.5939
# 5 -6.6595 -18.7042 -30.9329 0.0000 55.4603 0.0000
# 6 0.0000 0.0000 0.0000 14.5939 0.0000 -14.0959
#
#
#
# Elastic Compliance Matrix: (Units=1/GPa)
#
#
# Indices 1 2 3 4 5 6 
#
# 1 0.020895 -0.002487 -0.010009 0.000000 -0.003912 0.000000
# 2 -0.002487 0.006248 -0.001596 0.000000 0.000918 0.000000
# 3 -0.010009 -0.001596 0.019910 0.000000 0.009364 0.000000
# 4 0.000000 0.000000 0.000000 0.020971 0.000000 0.021712
# 5 -0.003912 0.000918 0.009364 0.000000 0.023094 0.000000
# 6 0.000000 0.000000 0.000000 0.021712 0.000000 -0.048464
#
#
# Mechanical properties :
#
#
# Convention : Reuss Voigt Hill
#
# Bulk Modulus (GPa) = 53.00074 67.33181 60.16628
# Shear Modulus (GPa) = 64.82765 29.75205 47.28985
#
# Velocity S-wave (km/s) = 5.11865 3.46764 4.37179
# Velocity P-wave (km/s) = 7.50698 6.57612 7.05691
#
# Compressibility (1/GPa) = 0.01886766
#
# Stress axis : x y z
#
# Youngs Moduli (GPa) = 47.85729 160.06381 50.22613
#
# Poissons Ratio (x) = 0.39811 0.50271
# Poissons Ratio (y) = 0.11903 0.08019
# Poissons Ratio (z) = 0.47900 0.25554
#
# Static dielectric constant tensor:
#      x y z
#    x 2.030490 0.000000 0.139500 
#    y 0.000000 1.880010 0.000000 
#    z 0.139500 0.000000 2.050180 
# 
# From -- ./inp_files/98104.got.cif
#   From: 2010.05.17/outbox.cif.g08.bks.cpg/sg15_50_cif.got.tgz:98104.got - 2010.06.03 18:47:42.
