data_PCOD9257850
_publ_section_title
;
Structure prediction by ZEFSAII (Michael W. Deem and Ramdas Pophale) SiO2 
 PCOD9257850
Probable space group: C 2/C
;
_chemical_formula_sum "Si O2"
_cell_formula_units_Z 64
_cell_length_a 12.023951
_cell_length_b 30.870851
_cell_length_c 7.781134
_cell_angle_alpha 90.000000
_cell_angle_beta 93.822510
_cell_angle_gamma 90.000000
_cell_volume 2881.850623
_symmetry_space_group_name_H-M "C 2/C"
_symmetry_group_IT_number 15
_symmetry_cell_setting 'monoclinic'
loop_
_space_group_symop_operation_xyz
x,y,z
-x,y,1/2-z
-x,-y,-z
x,-y,1/2+z
1/2+x,1/2+y,z
1/2-x,1/2+y,1/2-z
1/2-x,1/2-y,-z
1/2+x,1/2-y,1/2+z
loop_
_atom_site_type_symbol
_atom_site_label
_atom_site_fract_x
_atom_site_fract_y
_atom_site_fract_z
Si Si1 0.477851 0.310617 0.043421
Si Si2 0.184538 0.870581 0.013773
Si Si3 0.960396 0.712030 0.937987
Si Si4 0.266531 0.463624 0.418692
Si Si5 0.027793 0.556592 0.946939
Si Si6 0.747224 0.851881 0.081570
Si Si7 0.789419 0.449460 0.486304
Si Si8 0.583292 0.141153 0.106148
O O1 0.500000 0.305986 0.250000
O O2 0.579809 0.338949 0.978270
O O3 0.363249 0.336146 0.017262
O O4 0.458250 0.263024 0.966972
O O5 0.158644 0.922530 0.018123
O O6 0.234718 0.859003 0.209839
O O7 0.283874 0.863641 0.887324
O O8 0.847765 0.684333 0.957309
O O9 0.000000 0.703713 0.750000
O O10 0.054103 0.690627 0.067142
O O11 0.150705 0.458153 0.513916
O O12 0.235266 0.455546 0.218343
O O13 0.290468 0.514718 0.436165
O O14 0.000000 0.543725 0.750000
O O15 0.920106 0.542402 0.042543
O O16 0.040048 0.608669 0.952963
O O17 0.723521 0.898254 0.993080
O O18 0.500000 0.127794 0.250000
#
# Coordination Sequence:
#
# PCOD9257850 Si02
#       8
#     8   8   8   8   8   8   8   8
#     4  10  23  43  64  87 114 157 207 250 290 354
#     4   9  20  41  60  84 123 158 196 242 302 354
#     4  12  22  40  62  88 121 153 195 243 307 357
#     4   9  19  31  54  82 114 156 194 236 295 353
#     4   9  17  32  51  76 117 154 190 235 298 353
#     4  10  20  40  66  84 116 161 200 241 300 358
#     4  10  18  32  54  83 116 154 194 240 290 350
#     4  11  21  34  57  89 117 155 191 241 291 348
#
# _framework density 22.207951999999999
#
# number of rings (size 3 to 8) (size 9 to 14) (size 15 to 20)
#    0.000    2.000    2.500    2.250    0.000    2.500 
#    4.500    1.250    0.000    0.000    0.000    0.000 
#    0.000    0.000    0.000    0.000    0.000    0.000 
#
# Total GULP energy -178447.305322 kJ/mol
# GULP energy per Si atom -5576.478291 kJ/mol
# Density = 2.215741 g / cm^3
# Si number density = 22.207952 Si / 1000 Ang^3
#
#
#
# Elastic Constant Matrix: (Units=GPa)
#
#
# Indices 1 2 3 4 5 6 
#
# 1 103.8244 71.4151 31.5572 0.0000 -16.5452 0.0000
# 2 71.4151 181.1416 25.2885 0.0000 -6.4862 0.0000
# 3 31.5572 25.2885 42.0967 0.0000 -13.2931 0.0000
# 4 0.0000 0.0000 0.0000 2.7404 0.0000 -57.8848
# 5 -16.5452 -6.4862 -13.2931 0.0000 19.1151 0.0000
# 6 0.0000 0.0000 0.0000 -57.8848 0.0000 -80.9726
#
#
#
# Elastic Compliance Matrix: (Units=1/GPa)
#
#
# Indices 1 2 3 4 5 6 
#
# 1 0.016598 -0.005318 -0.006767 0.000000 0.007856 0.000000
# 2 -0.005318 0.007735 -0.001646 0.000000 -0.003123 0.000000
# 3 -0.006767 -0.001646 0.035611 0.000000 0.018348 0.000000
# 4 0.000000 0.000000 0.000000 0.022665 0.000000 -0.016203
# 5 0.007856 -0.003123 0.018348 0.000000 0.070815 0.000000
# 6 0.000000 0.000000 0.000000 -0.016203 0.000000 -0.000767
#
#
# Mechanical properties :
#
#
# Convention : Reuss Voigt Hill
#
# Bulk Modulus (GPa) = 30.78713 64.84270 47.81491
# Shear Modulus (GPa) = 26.18517 1.43005 13.80761
#
# Velocity S-wave (km/s) = 3.43751 0.80333 2.49618
# Velocity P-wave (km/s) = 5.44505 5.48833 5.46673
#
# Compressibility (1/GPa) = 0.03248110
#
# Stress axis : x y z
#
# Youngs Moduli (GPa) = 60.24700 129.28053 28.08122
#
# Poissons Ratio (x) = 0.68749 0.19004
# Poissons Ratio (y) = 0.32038 0.04623
# Poissons Ratio (z) = 0.40772 0.21286
#
# Static dielectric constant tensor:
#      x y z
#    x 1.806410 0.000000 0.008380 
#    y 0.000000 1.874030 0.000000 
#    z 0.008380 0.000000 1.917930 
# 
# From -- ./inp_files/35659.got.cif
#   From: 2010.05.17/outbox.cif.g08.bks.cpg/sg15_18_cif.got.tgz:35659.got - 2010.06.03 18:47:42.
