data_PCOD9257017
_publ_section_title
;
Structure prediction by ZEFSAII (Michael W. Deem and Ramdas Pophale) SiO2 
 PCOD9257017
Probable space group: C 2/C
;
_chemical_formula_sum "Si O2"
_cell_formula_units_Z 48
_cell_length_a 17.293556
_cell_length_b 13.560309
_cell_length_c 26.030899
_cell_angle_alpha 90.000000
_cell_angle_beta 27.256306
_cell_angle_gamma 90.000000
_cell_volume 2795.643276
_symmetry_space_group_name_H-M "C 2/C"
_symmetry_group_IT_number 15
_symmetry_cell_setting 'monoclinic'
loop_
_space_group_symop_operation_xyz
x,y,z
-x,y,1/2-z
-x,-y,-z
x,-y,1/2+z
1/2+x,1/2+y,z
1/2-x,1/2+y,1/2-z
1/2-x,1/2-y,-z
1/2+x,1/2-y,1/2+z
loop_
_atom_site_type_symbol
_atom_site_label
_atom_site_fract_x
_atom_site_fract_y
_atom_site_fract_z
Si Si1 0.889729 0.116685 0.435492
Si Si2 0.359138 0.419911 0.291947
Si Si3 0.763038 0.377849 0.680727
Si Si4 0.809723 0.227999 0.380055
Si Si5 0.364827 0.615791 0.949969
Si Si6 0.885102 0.687404 0.487738
O O1 0.822273 0.146336 0.418258
O O2 0.791133 0.182237 0.534948
O O3 0.088664 0.142688 0.314144
O O4 0.866716 0.000686 0.459622
O O5 0.500000 0.458556 0.250000
O O6 0.259982 0.509942 0.324872
O O7 0.471567 0.366650 0.182791
O O8 0.231603 0.350481 0.397123
O O9 0.772888 0.314617 0.622530
O O10 0.928422 0.354728 0.615202
O O11 0.000000 0.254603 0.250000
O O12 0.201821 0.644033 0.012333
O O13 0.379222 0.694276 0.986907
#
# Coordination Sequence:
#
# PCOD9257017 Si02
#       6
#     8   8   8   8   8   8
#     4   9  18  34  53  72 100 130 157 202 249 285
#     4   9  17  32  52  70  94 128 164 205 244 285
#     4  10  18  30  51  76  96 122 165 208 241 280
#     4   9  17  32  53  74  96 127 165 199 240 288
#     4   9  19  35  49  68 101 134 161 194 246 296
#     4  10  19  31  50  73  96 128 167 199 238 294
#
# _framework density 17.169571999999999
#
# number of rings (size 3 to 8) (size 9 to 14) (size 15 to 20)
#    0.000    2.667    0.000    4.000    0.000    1.333 
#    0.000   13.333    0.000    0.000    0.000    0.000 
#    0.000    0.000    0.000    0.000    0.000    0.000 
#
# Total GULP energy -133748.139263 kJ/mol
# GULP energy per Si atom -5572.839136 kJ/mol
# Density = 1.713049 g / cm^3
# Si number density = 17.169572 Si / 1000 Ang^3
#
#
#
# Elastic Constant Matrix: (Units=GPa)
#
#
# Indices 1 2 3 4 5 6 
#
# 1 55.9552 36.3672 47.4601 -0.0009 -14.7742 -0.0026
# 2 36.3672 106.5981 62.1700 -0.0050 -3.8077 -0.0036
# 3 47.4601 62.1700 75.8901 -0.0072 -2.9448 -0.0026
# 4 -0.0009 -0.0050 -0.0072 21.9981 -0.0029 12.2804
# 5 -14.7742 -3.8077 -2.9448 -0.0029 27.5650 0.0005
# 6 -0.0026 -0.0036 -0.0026 12.2804 0.0005 20.8441
#
#
#
# Elastic Compliance Matrix: (Units=1/GPa)
#
#
# Indices 1 2 3 4 5 6 
#
# 1 0.049997 0.002851 -0.032683 -0.000009 0.023700 0.000007
# 2 0.002851 0.018149 -0.016563 -0.000003 0.002266 0.000003
# 3 -0.032683 -0.016563 0.046610 0.000013 -0.014826 -0.000008
# 4 -0.000009 -0.000003 0.000013 0.067737 0.000004 -0.039907
# 5 0.023700 0.002266 -0.014826 0.000004 0.047710 -0.000002
# 6 0.000007 0.000003 -0.000008 -0.039907 -0.000002 0.071487
#
#
# Mechanical properties :
#
#
# Convention : Reuss Voigt Hill
#
# Bulk Modulus (GPa) = 45.52571 58.93757 52.23164
# Shear Modulus (GPa) = 12.44394 20.24451 16.34422
#
# Velocity S-wave (km/s) = 2.69507 3.43752 3.08868
# Velocity P-wave (km/s) = 6.02142 7.08213 6.57321
#
# Compressibility (1/GPa) = 0.02196561
#
# Stress axis : x y z
#
# Youngs Moduli (GPa) = 20.00102 55.09882 21.45481
#
# Poissons Ratio (x) = -0.15708 0.70121
# Poissons Ratio (y) = -0.05702 0.35536
# Poissons Ratio (z) = 0.65370 0.91260
#
# Static dielectric constant tensor:
#      x y z
#    x 1.588880 0.000000 -0.002050 
#    y 0.000000 1.583200 0.000000 
#    z -0.002050 0.000000 1.576600 
# 
# From -- ./inp_files/153279.got.cif
#   From: 2010.05.17/outbox.cif.g08.bks.cpg/sg15_77_cif.got.tgz:153279.got - 2010.06.03 18:47:42.
