data_PCOD9257259
_publ_section_title
;
Structure prediction by ZEFSAII (Michael W. Deem and Ramdas Pophale) SiO2 
 PCOD9257259
Probable space group: C 2/C
;
_chemical_formula_sum "Si O2"
_cell_formula_units_Z 56
_cell_length_a 8.097685
_cell_length_b 20.234897
_cell_length_c 15.593980
_cell_angle_alpha 90.000000
_cell_angle_beta 63.081509
_cell_angle_gamma 90.000000
_cell_volume 2278.316101
_symmetry_space_group_name_H-M "C 2/C"
_symmetry_group_IT_number 15
_symmetry_cell_setting 'monoclinic'
loop_
_space_group_symop_operation_xyz
x,y,z
-x,y,1/2-z
-x,-y,-z
x,-y,1/2+z
1/2+x,1/2+y,z
1/2-x,1/2+y,1/2-z
1/2-x,1/2-y,-z
1/2+x,1/2-y,1/2+z
loop_
_atom_site_type_symbol
_atom_site_label
_atom_site_fract_x
_atom_site_fract_y
_atom_site_fract_z
Si Si1 0.382258 0.420109 0.186089
Si Si2 0.619244 0.933481 0.983998
Si Si3 0.972268 0.943313 0.654064
Si Si4 0.624806 0.302248 0.805235
Si Si5 0.885301 0.658891 0.643774
Si Si6 0.126400 0.171013 0.534349
Si Si7 0.481101 0.809266 0.613901
O O1 0.500000 0.423661 0.250000
O O2 0.333953 0.495527 0.174808
O O3 0.221752 0.369546 0.249118
O O4 0.495487 0.391371 0.079141
O O5 0.542571 0.893578 0.083288
O O6 0.594641 0.874792 0.917800
O O7 0.828987 0.957402 0.933379
O O8 0.500000 0.000000 0.000000
O O9 0.000000 0.939758 0.750000
O O10 0.916863 0.870837 0.638380
O O11 0.500000 0.305997 0.750000
O O12 0.758440 0.164817 0.902257
O O13 0.838929 0.298830 0.725038
O O14 0.944573 0.733925 0.639496
O O15 0.298925 0.177315 0.428757
O O16 0.999788 0.236979 0.564351
#
# Coordination Sequence:
#
# PCOD9257259 Si02
#       7
#     8   8   8   8   8   8   8
#     4   9  16  31  50  77 102 131 178 229 269 309
#     4  11  20  34  55  85 109 140 183 235 275 317
#     4  10  18  31  49  75 109 140 176 221 277 319
#     4  11  21  35  52  77 114 151 181 219 276 335
#     4  10  21  33  55  81 110 143 186 228 270 330
#     4   9  18  32  54  78 103 136 180 232 275 308
#     4  10  18  32  51  81 108 137 178 227 274 320
#
# _framework density 24.579556
#
# number of rings (size 3 to 8) (size 9 to 14) (size 15 to 20)
#    0.000    2.000    4.286    3.429    0.000    0.571 
#    0.000    0.000    0.000    1.714    0.000    7.000 
#    0.000    0.000    0.000    0.000    0.000    0.000 
#
# Total GULP energy -156200.407161 kJ/mol
# GULP energy per Si atom -5578.585970 kJ/mol
# Density = 2.452361 g / cm^3
# Si number density = 24.579556 Si / 1000 Ang^3
#
#
#
# Elastic Constant Matrix: (Units=GPa)
#
#
# Indices 1 2 3 4 5 6 
#
# 1 32.5064 16.3743 7.1292 0.0000 0.0396 0.0000
# 2 16.3743 167.6081 40.0221 0.0000 -6.0724 0.0000
# 3 7.1292 40.0221 142.5127 0.0000 -18.9876 0.0000
# 4 0.0000 0.0000 0.0000 51.4009 0.0000 -18.0625
# 5 0.0396 -6.0724 -18.9876 0.0000 11.8599 0.0000
# 6 0.0000 0.0000 0.0000 -18.0625 0.0000 22.7492
#
#
#
# Elastic Compliance Matrix: (Units=1/GPa)
#
#
# Indices 1 2 3 4 5 6 
#
# 1 0.032564 -0.003010 -0.001275 0.000000 -0.003692 0.000000
# 2 -0.003010 0.006676 -0.001611 0.000000 0.000849 0.000000
# 3 -0.001275 -0.001611 0.009437 0.000000 0.014288 0.000000
# 4 0.000000 0.000000 0.000000 0.026984 0.000000 0.021425
# 5 -0.003692 0.000849 0.014288 0.000000 0.107640 0.000000
# 6 0.000000 0.000000 0.000000 0.021425 0.000000 0.060968
#
#
# Mechanical properties :
#
#
# Convention : Reuss Voigt Hill
#
# Bulk Modulus (GPa) = 27.11326 52.18646 39.64986
# Shear Modulus (GPa) = 18.63196 35.80877 27.22036
#
# Velocity S-wave (km/s) = 2.75622 3.82101 3.33143
# Velocity P-wave (km/s) = 4.60258 6.38315 5.56455
#
# Compressibility (1/GPa) = 0.03688233
#
# Stress axis : x y z
#
# Youngs Moduli (GPa) = 30.70892 149.79341 105.96828
#
# Poissons Ratio (x) = 0.45095 0.13516
# Poissons Ratio (y) = 0.09245 0.17073
# Poissons Ratio (z) = 0.03917 0.24133
#
# Static dielectric constant tensor:
#      x y z
#    x 1.942740 0.000000 0.035970 
#    y 0.000000 1.940660 0.000000 
#    z 0.035970 0.000000 1.984470 
# 
# From -- ./inp_files/314211.got.cif
#   From: 2010.05.17/outbox.cif.g08.bks.cpg/sg15_158_cif.got.tgz:314211.got - 2010.06.03 18:47:42.
