data_PCOD9257809
_publ_section_title
;
Structure prediction by ZEFSAII (Michael W. Deem and Ramdas Pophale) SiO2 
 PCOD9257809
Probable space group: C 2/C
;
_chemical_formula_sum "Si O2"
_cell_formula_units_Z 40
_cell_length_a 24.300103
_cell_length_b 19.104419
_cell_length_c 5.227531
_cell_angle_alpha 90.000000
_cell_angle_beta 73.163497
_cell_angle_gamma 90.000000
_cell_volume 2322.800104
_symmetry_space_group_name_H-M "C 2/C"
_symmetry_group_IT_number 15
_symmetry_cell_setting 'monoclinic'
loop_
_space_group_symop_operation_xyz
x,y,z
-x,y,1/2-z
-x,-y,-z
x,-y,1/2+z
1/2+x,1/2+y,z
1/2-x,1/2+y,1/2-z
1/2-x,1/2-y,-z
1/2+x,1/2-y,1/2+z
loop_
_atom_site_type_symbol
_atom_site_label
_atom_site_fract_x
_atom_site_fract_y
_atom_site_fract_z
Si Si1 0.839167 0.791507 0.815065
Si Si2 0.764995 0.685947 0.669526
Si Si3 0.370105 0.418164 0.461098
Si Si4 0.242967 0.461623 0.571167
Si Si5 0.067761 0.116990 0.131919
O O1 0.818947 0.714845 0.761759
O O2 0.844852 0.840278 0.557006
O O3 0.899277 0.808506 0.872882
O O4 0.788263 0.822502 0.061763
O O5 0.750000 0.750000 0.500000
O O6 0.775014 0.614874 0.502717
O O7 0.312898 0.461840 0.487179
O O8 0.405573 0.430134 0.674649
O O9 0.411739 0.412556 0.165260
O O10 0.224113 0.516729 0.379656
O O11 0.000000 0.122067 0.250000
#
# Coordination Sequence:
#
# PCOD9257809 Si02
#       5
#     8   8   8   8   8
#     4   9  19  29  56  77 100 135 172 217 267 306
#     4  11  18  34  54  77 104 134 182 210 270 325
#     4  10  19  36  48  76  96 145 169 213 266 300
#     4  12  23  35  52  77 108 141 177 220 266 311
#     4  10  18  32  54  78 101 132 179 226 264 290
#
# _framework density 17.220596
#
# number of rings (size 3 to 8) (size 9 to 14) (size 15 to 20)
#    1.200    0.400    4.000    3.000    2.800    0.000 
#    0.000    0.000    0.000   12.000    0.000    0.000 
#    0.000    1.600    0.000    0.200    0.000    0.000 
#
# Total GULP energy -111448.959651 kJ/mol
# GULP energy per Si atom -5572.447983 kJ/mol
# Density = 1.718140 g / cm^3
# Si number density = 17.220596 Si / 1000 Ang^3
#
#
#
# Elastic Constant Matrix: (Units=GPa)
#
#
# Indices 1 2 3 4 5 6 
#
# 1 52.5496 30.2151 16.3820 0.0000 -2.7688 0.0000
# 2 30.2151 66.1318 10.8116 0.0000 4.5681 0.0000
# 3 16.3820 10.8116 105.2102 0.0000 9.7923 0.0000
# 4 0.0000 0.0000 0.0000 14.5205 0.0000 7.4515
# 5 -2.7688 4.5681 9.7923 0.0000 19.8473 0.0000
# 6 0.0000 0.0000 0.0000 7.4515 0.0000 25.5647
#
#
#
# Elastic Compliance Matrix: (Units=1/GPa)
#
#
# Indices 1 2 3 4 5 6 
#
# 1 0.028051 -0.012789 -0.003869 0.000000 0.008766 0.000000
# 2 -0.012789 0.021371 0.000439 0.000000 -0.006920 0.000000
# 3 -0.003869 0.000439 0.010609 0.000000 -0.005875 0.000000
# 4 0.000000 0.000000 0.000000 0.080981 0.000000 -0.023604
# 5 0.008766 -0.006920 -0.005875 0.000000 0.056099 0.000000
# 6 0.000000 0.000000 0.000000 -0.023604 0.000000 0.045997
#
#
# Mechanical properties :
#
#
# Convention : Reuss Voigt Hill
#
# Bulk Modulus (GPa) = 36.24207 37.63433 36.93820
# Shear Modulus (GPa) = 17.55961 23.08536 20.32248
#
# Velocity S-wave (km/s) = 3.19672 3.66535 3.43902
# Velocity P-wave (km/s) = 5.89210 6.30989 6.10457
#
# Compressibility (1/GPa) = 0.02759224
#
# Stress axis : x y z
#
# Youngs Moduli (GPa) = 35.64874 46.79271 94.25985
#
# Poissons Ratio (x) = 0.59845 0.36473
# Poissons Ratio (y) = 0.45593 -0.04141
# Poissons Ratio (z) = 0.13794 -0.02056
#
# Static dielectric constant tensor:
#      x y z
#    x 1.592090 0.000000 0.058460 
#    y 0.000000 1.640540 0.000000 
#    z 0.058460 0.000000 1.620940 
# 
# From -- ./inp_files/15201.got.cif
#   From: 2010.05.17/outbox.cif.g08.bks.cpg/sg15_8_cif.got.tgz:15201.got - 2010.06.03 18:47:42.
