data_PCOD9257885
_publ_section_title
;
Structure prediction by ZEFSAII (Michael W. Deem and Ramdas Pophale) SiO2 
 PCOD9257885
Probable space group: C 2/C
;
_chemical_formula_sum "Si O2"
_cell_formula_units_Z 56
_cell_length_a 16.978986
_cell_length_b 23.038544
_cell_length_c 8.635694
_cell_angle_alpha 90.000000
_cell_angle_beta 63.125223
_cell_angle_gamma 90.000000
_cell_volume 3013.194950
_symmetry_space_group_name_H-M "C 2/C"
_symmetry_group_IT_number 15
_symmetry_cell_setting 'monoclinic'
loop_
_space_group_symop_operation_xyz
x,y,z
-x,y,1/2-z
-x,-y,-z
x,-y,1/2+z
1/2+x,1/2+y,z
1/2-x,1/2+y,1/2-z
1/2-x,1/2-y,-z
1/2+x,1/2-y,1/2+z
loop_
_atom_site_type_symbol
_atom_site_label
_atom_site_fract_x
_atom_site_fract_y
_atom_site_fract_z
Si Si1 0.907717 0.537960 0.422187
Si Si2 0.364730 0.244375 0.175335
Si Si3 0.597206 0.081605 0.716670
Si Si4 0.713637 0.140067 0.061599
Si Si5 0.702128 0.812344 0.223390
Si Si6 0.090087 0.843292 0.110922
Si Si7 0.539053 0.729621 0.368803
O O1 0.912635 0.555830 0.598862
O O2 0.880581 0.471359 0.417910
O O3 0.842858 0.582222 0.394058
O O4 0.000000 0.543829 0.250000
O O5 0.317050 0.187232 0.283934
O O6 0.296620 0.280553 0.127744
O O7 0.389865 0.287723 0.294970
O O8 0.458459 0.232595 0.011980
O O9 0.500000 0.104117 0.750000
O O10 0.673683 0.130132 0.655509
O O11 0.697786 0.170946 0.909441
O O12 0.816936 0.124841 0.978723
O O13 0.623440 0.768308 0.261694
O O14 0.000000 0.872789 0.250000
O O15 0.067143 0.818171 0.965323
O O16 0.500000 0.702295 0.250000
#
# Coordination Sequence:
#
# PCOD9257885 Si02
#       7
#     8   8   8   8   8   8   8
#     4  10  21  33  53  76 104 137 174 215 254 303
#     4  10  19  33  54  72 100 136 179 213 251 311
#     4  10  20  36  51  73 105 139 178 209 255 306
#     4  10  18  32  55  78  96 130 186 212 253 305
#     4  10  19  34  52  74 103 136 174 218 252 308
#     4   9  17  33  53  70 101 133 166 213 253 305
#     4  11  21  31  44  74 108 137 163 203 264 306
#
# _framework density 18.584924999999998
#
# number of rings (size 3 to 8) (size 9 to 14) (size 15 to 20)
#    0.000    2.000    2.857    3.000    4.000    0.571 
#    2.571    0.000    0.000    0.000    0.000   17.000 
#    0.000    0.000    0.000    0.000    0.000    0.000 
#
# Total GULP energy -156165.708364 kJ/mol
# GULP energy per Si atom -5577.346727 kJ/mol
# Density = 1.854262 g / cm^3
# Si number density = 18.584925 Si / 1000 Ang^3
#
#
#
# Elastic Constant Matrix: (Units=GPa)
#
#
# Indices 1 2 3 4 5 6 
#
# 1 139.7000 43.1575 31.6988 0.0000 7.4193 0.0000
# 2 43.1575 42.3840 9.3338 0.0000 -0.8694 0.0000
# 3 31.6988 9.3338 38.6277 0.0000 5.2592 0.0000
# 4 0.0000 0.0000 0.0000 6.7258 0.0000 4.3736
# 5 7.4193 -0.8694 5.2592 0.0000 23.8811 0.0000
# 6 0.0000 0.0000 0.0000 4.3736 0.0000 34.0387
#
#
#
# Elastic Compliance Matrix: (Units=1/GPa)
#
#
# Indices 1 2 3 4 5 6 
#
# 1 0.012315 -0.011036 -0.007076 0.000000 -0.002669 0.000000
# 2 -0.011036 0.034933 -0.000025 0.000000 0.004706 0.000000
# 3 -0.007076 -0.000025 0.032372 0.000000 -0.004932 0.000000
# 4 0.000000 0.000000 0.000000 0.162235 0.000000 -0.020845
# 5 -0.002669 0.004706 -0.004932 0.000000 0.043961 0.000000
# 6 0.000000 0.000000 0.000000 -0.020845 0.000000 0.032057
#
#
# Mechanical properties :
#
#
# Convention : Reuss Voigt Hill
#
# Bulk Modulus (GPa) = 23.07005 43.23243 33.15124
# Shear Modulus (GPa) = 13.56497 22.03058 17.79777
#
# Velocity S-wave (km/s) = 2.70458 3.44670 3.09794
# Velocity P-wave (km/s) = 4.71097 6.25718 5.53830
#
# Compressibility (1/GPa) = 0.04334625
#
# Stress axis : x y z
#
# Youngs Moduli (GPa) = 81.20248 28.62583 30.89063
#
# Poissons Ratio (x) = 0.31592 0.21857
# Poissons Ratio (y) = 0.89617 0.00078
# Poissons Ratio (z) = 0.57457 0.00072
#
# Static dielectric constant tensor:
#      x y z
#    x 1.664370 0.000000 0.006060 
#    y 0.000000 1.633990 0.000000 
#    z 0.006060 0.000000 1.690070 
# 
# From -- ./inp_files/42110.got.cif
#   From: 2010.05.17/outbox.cif.g08.bks.cpg/sg15_22_cif.got.tgz:42110.got - 2010.06.03 18:47:42.
