data_PCOD9257106
_publ_section_title
;
Structure prediction by ZEFSAII (Michael W. Deem and Ramdas Pophale) SiO2 
 PCOD9257106
Probable space group: C 2/C
;
_chemical_formula_sum "Si O2"
_cell_formula_units_Z 44
_cell_length_a 7.577337
_cell_length_b 24.482635
_cell_length_c 11.884932
_cell_angle_alpha 90.000000
_cell_angle_beta 113.539438
_cell_angle_gamma 90.000000
_cell_volume 2021.338953
_symmetry_space_group_name_H-M "C 2/C"
_symmetry_group_IT_number 15
_symmetry_cell_setting 'monoclinic'
loop_
_space_group_symop_operation_xyz
x,y,z
-x,y,1/2-z
-x,-y,-z
x,-y,1/2+z
1/2+x,1/2+y,z
1/2-x,1/2+y,1/2-z
1/2-x,1/2-y,-z
1/2+x,1/2-y,1/2+z
loop_
_atom_site_type_symbol
_atom_site_label
_atom_site_fract_x
_atom_site_fract_y
_atom_site_fract_z
Si Si1 0.500000 0.372840 0.750000
Si Si2 0.807969 0.332318 0.587579
Si Si3 0.890774 0.946522 0.340315
Si Si4 0.698407 0.789877 0.656955
Si Si5 0.588648 0.324912 0.148649
Si Si6 0.287669 0.443189 0.884337
O O1 0.353660 0.331881 0.648552
O O2 0.390859 0.411749 0.808236
O O3 0.795182 0.305197 0.707823
O O4 0.602111 0.327614 0.477047
O O5 0.861107 0.396972 0.612284
O O6 0.980792 0.303682 0.565671
O O7 0.814787 0.884555 0.323957
O O8 0.000000 0.955360 0.250000
O O9 0.059444 0.948725 0.476167
O O10 0.745252 0.995734 0.331876
O O11 0.723210 0.725562 0.648588
O O12 0.500000 0.313889 0.250000
#
# Coordination Sequence:
#
# PCOD9257106 Si02
#       6
#     4   8   8   8   8   8
#     4  10  20  34  52  80 106 142 178 214 272 310
#     4   9  18  32  52  78 101 137 182 218 255 309
#     4   9  17  30  52  80 101 138 173 212 261 315
#     4  10  19  32  52  77 105 139 176 223 258 313
#     4  10  18  30  54  79 103 139 180 217 258 314
#     4   9  17  32  53  78 102 133 179 214 259 315
#
# _framework density 21.767748999999998
#
# number of rings (size 3 to 8) (size 9 to 14) (size 15 to 20)
#    0.000    2.545    2.727    0.545    0.000    0.000 
#    0.000    8.182    0.000   14.182    4.727    0.000 
#    0.000    0.000    0.000    0.000    0.000    0.000 
#
# Total GULP energy -122633.143144 kJ/mol
# GULP energy per Si atom -5574.233779 kJ/mol
# Density = 2.171820 g / cm^3
# Si number density = 21.767749 Si / 1000 Ang^3
#
#
#
# Elastic Constant Matrix: (Units=GPa)
#
#
# Indices 1 2 3 4 5 6 
#
# 1 28.3892 16.9191 -1.5868 0.0000 2.3570 0.0000
# 2 16.9191 205.5813 10.4873 0.0000 4.2011 0.0000
# 3 -1.5868 10.4873 58.2356 0.0000 1.4102 0.0000
# 4 0.0000 0.0000 0.0000 24.7369 0.0000 2.5038
# 5 2.3570 4.2011 1.4102 0.0000 13.1716 0.0000
# 6 0.0000 0.0000 0.0000 2.5038 0.0000 16.6923
#
#
#
# Elastic Compliance Matrix: (Units=1/GPa)
#
#
# Indices 1 2 3 4 5 6 
#
# 1 0.037640 -0.003064 0.001721 0.000000 -0.005943 0.000000
# 2 -0.003064 0.005188 -0.000993 0.000000 -0.001000 0.000000
# 3 0.001721 -0.000993 0.017442 0.000000 -0.001859 0.000000
# 4 0.000000 0.000000 0.000000 0.041049 0.000000 -0.006157
# 5 -0.005943 -0.001000 -0.001859 0.000000 0.077502 0.000000
# 6 0.000000 0.000000 0.000000 -0.006157 0.000000 0.060831
#
#
# Mechanical properties :
#
#
# Convention : Reuss Voigt Hill
#
# Bulk Modulus (GPa) = 17.98631 38.20503 28.09567
# Shear Modulus (GPa) = 19.02169 28.67926 23.85047
#
# Velocity S-wave (km/s) = 2.95930 3.63369 3.31370
# Velocity P-wave (km/s) = 4.46737 5.93248 5.25127
#
# Compressibility (1/GPa) = 0.05559785
#
# Stress axis : x y z
#
# Youngs Moduli (GPa) = 26.56717 192.76948 57.33140
#
# Poissons Ratio (x) = 0.59067 -0.09869
# Poissons Ratio (y) = 0.08141 0.05696
# Poissons Ratio (z) = -0.04573 0.19151
#
# Static dielectric constant tensor:
#      x y z
#    x 1.840640 0.000000 -0.019100 
#    y 0.000000 1.874480 0.000000 
#    z -0.019100 0.000000 1.809360 
# 
# From -- ./inp_files/136994.got.cif
#   From: 2010.05.17/outbox.cif.g08.bks.cpg/sg15_69_cif.got.tgz:136994.got - 2010.06.03 18:47:42.
