data_PCOD9257360
_publ_section_title
;
Structure prediction by ZEFSAII (Michael W. Deem and Ramdas Pophale) SiO2 
 PCOD9257360
Probable space group: C 2/C
;
_chemical_formula_sum "Si O2"
_cell_formula_units_Z 48
_cell_length_a 10.849101
_cell_length_b 12.540633
_cell_length_c 14.425874
_cell_angle_alpha 90.000000
_cell_angle_beta 110.139742
_cell_angle_gamma 90.000000
_cell_volume 1842.698029
_symmetry_space_group_name_H-M "C 2/C"
_symmetry_group_IT_number 15
_symmetry_cell_setting 'monoclinic'
loop_
_space_group_symop_operation_xyz
x,y,z
-x,y,1/2-z
-x,-y,-z
x,-y,1/2+z
1/2+x,1/2+y,z
1/2-x,1/2+y,1/2-z
1/2-x,1/2-y,-z
1/2+x,1/2-y,1/2+z
loop_
_atom_site_type_symbol
_atom_site_label
_atom_site_fract_x
_atom_site_fract_y
_atom_site_fract_z
Si Si1 0.166702 0.562147 0.675814
Si Si2 0.592309 0.842861 0.627993
Si Si3 0.816241 0.855666 0.556067
Si Si4 0.922548 0.238619 0.416937
Si Si5 0.688567 0.421055 0.488411
Si Si6 0.424518 0.392890 0.320837
O O1 0.064386 0.463852 0.652578
O O2 0.102882 0.677417 0.670629
O O3 0.234614 0.587981 0.590484
O O4 0.284118 0.552497 0.779177
O O5 0.741369 0.866667 0.633189
O O6 0.498791 0.807118 0.518172
O O7 0.593563 0.736252 0.688968
O O8 0.750000 0.750000 0.500000
O O9 0.970572 0.842172 0.597055
O O10 0.781604 0.956376 0.482945
O O11 0.801899 0.171695 0.432162
O O12 0.532312 0.412685 0.426940
O O13 0.500000 0.430774 0.250000
#
# Coordination Sequence:
#
# PCOD9257360 Si02
#       6
#     8   8   8   8   8   8
#     4  10  19  32  52  76  97 129 172 210 248 295
#     4   9  19  35  50  70 104 133 159 209 260 297
#     4   9  18  32  51  76 103 130 163 204 254 306
#     4  10  18  31  52  77 101 128 167 207 249 302
#     4   9  18  33  52  72 101 136 165 203 251 301
#     4   9  19  35  51  69  96 134 175 205 245 307
#
# _framework density 26.048760000000001
#
# number of rings (size 3 to 8) (size 9 to 14) (size 15 to 20)
#    0.000    2.667    0.000    1.500    0.000    1.333 
#    0.000    4.167    0.000    0.000    0.000    0.000 
#    0.000    0.000    0.000    0.000    0.000    0.000 
#
# Total GULP energy -133751.065143 kJ/mol
# GULP energy per Si atom -5572.961048 kJ/mol
# Density = 2.598947 g / cm^3
# Si number density = 26.048760 Si / 1000 Ang^3
#
#
#
# Elastic Constant Matrix: (Units=GPa)
#
#
# Indices 1 2 3 4 5 6 
#
# 1 57.3213 1.8012 2.8313 0.0000 -9.0902 0.0000
# 2 1.8012 176.9963 7.7993 0.0000 8.0011 0.0000
# 3 2.8313 7.7993 40.9942 0.0000 5.8917 0.0000
# 4 0.0000 0.0000 0.0000 27.9191 0.0000 0.9112
# 5 -9.0902 8.0011 5.8917 0.0000 24.2011 0.0000
# 6 0.0000 0.0000 0.0000 0.9112 0.0000 38.0826
#
#
#
# Elastic Compliance Matrix: (Units=1/GPa)
#
#
# Indices 1 2 3 4 5 6 
#
# 1 0.018808 -0.000440 -0.002333 0.000000 0.007778 0.000000
# 2 -0.000440 0.005774 -0.000798 0.000000 -0.001880 0.000000
# 3 -0.002333 -0.000798 0.025694 0.000000 -0.006868 0.000000
# 4 0.000000 0.000000 0.000000 0.035846 0.000000 -0.000858
# 5 0.007778 -0.001880 -0.006868 0.000000 0.046535 0.000000
# 6 0.000000 0.000000 0.000000 -0.000858 0.000000 0.026279
#
#
# Mechanical properties :
#
#
# Convention : Reuss Voigt Hill
#
# Bulk Modulus (GPa) = 23.18377 33.35281 28.26829
# Shear Modulus (GPa) = 27.70742 35.56591 31.63667
#
# Velocity S-wave (km/s) = 3.26494 3.69909 3.48877
# Velocity P-wave (km/s) = 4.80964 5.57459 5.20618
#
# Compressibility (1/GPa) = 0.04313363
#
# Stress axis : x y z
#
# Youngs Moduli (GPa) = 53.16870 173.17603 38.92008
#
# Poissons Ratio (x) = 0.07623 0.09080
# Poissons Ratio (y) = 0.02340 0.03106
# Poissons Ratio (z) = 0.12405 0.13819
#
# Static dielectric constant tensor:
#      x y z
#    x 2.193560 0.000000 -0.034240 
#    y 0.000000 2.275580 0.000000 
#    z -0.034240 0.000000 2.100010 
# 
# From -- ./inp_files/196140.got.cif
#   From: 2010.05.17/outbox.cif.g08.bks.cpg/sg15_99_cif.got.tgz:196140.got - 2010.06.03 18:47:42.
