data_PCOD9257854
_publ_section_title
;
Structure prediction by ZEFSAII (Michael W. Deem and Ramdas Pophale) SiO2 
 PCOD9257854
Probable space group: C 2/C
;
_chemical_formula_sum "Si O2"
_cell_formula_units_Z 56
_cell_length_a 8.193343
_cell_length_b 11.258002
_cell_length_c 25.785604
_cell_angle_alpha 90.000000
_cell_angle_beta 67.955286
_cell_angle_gamma 90.000000
_cell_volume 2204.593578
_symmetry_space_group_name_H-M "C 2/C"
_symmetry_group_IT_number 15
_symmetry_cell_setting 'monoclinic'
loop_
_space_group_symop_operation_xyz
x,y,z
-x,y,1/2-z
-x,-y,-z
x,-y,1/2+z
1/2+x,1/2+y,z
1/2-x,1/2+y,1/2-z
1/2-x,1/2-y,-z
1/2+x,1/2-y,1/2+z
loop_
_atom_site_type_symbol
_atom_site_label
_atom_site_fract_x
_atom_site_fract_y
_atom_site_fract_z
Si Si1 0.230310 0.563250 0.875895
Si Si2 0.647307 0.590133 0.940401
Si Si3 0.822141 0.407903 0.842870
Si Si4 0.233210 0.568356 0.996430
Si Si5 0.951975 0.312808 0.604041
Si Si6 0.911533 0.988420 0.709579
Si Si7 0.587890 0.125606 0.789495
O O1 0.193702 0.582180 0.940713
O O2 0.438722 0.548505 0.842845
O O3 0.129145 0.646458 0.846326
O O4 0.163490 0.429106 0.873084
O O5 0.698711 0.475571 0.899610
O O6 0.440253 0.597774 0.978199
O O7 0.668594 0.706131 0.901993
O O8 0.764400 0.564641 0.977837
O O9 0.927409 0.303250 0.858594
O O10 0.700474 0.390503 0.807667
O O11 0.961970 0.508911 0.809805
O O12 0.095719 0.648500 0.043687
O O13 0.000000 0.939394 0.750000
O O14 0.778738 0.088333 0.745713
O O15 0.500000 0.190289 0.750000
#
# Coordination Sequence:
#
# PCOD9257854 Si02
#       7
#     8   8   8   8   8   8   8
#     4  10  18  32  54  84 110 143 189 232 278 343
#     4  10  20  35  56  81 116 149 189 236 278 344
#     4   9  17  34  57  80 111 146 191 235 280 348
#     4  10  20  35  54  80 116 150 190 234 276 345
#     4  10  21  34  55  82 115 153 188 228 292 342
#     4   9  16  30  57  82 105 143 192 229 285 348
#     4   8  16  30  55  84 100 141 190 224 285 344
#
# _framework density 25.401506999999999
#
# number of rings (size 3 to 8) (size 9 to 14) (size 15 to 20)
#    0.000    2.571    1.429    0.857    0.000    0.571 
#    0.000    0.000    0.000   21.429    0.000    0.000 
#    0.000    0.000    0.000    0.000    0.000    0.000 
#
# Total GULP energy -156193.896809 kJ/mol
# GULP energy per Si atom -5578.353457 kJ/mol
# Density = 2.534369 g / cm^3
# Si number density = 25.401507 Si / 1000 Ang^3
#
#
#
# Elastic Constant Matrix: (Units=GPa)
#
#
# Indices 1 2 3 4 5 6 
#
# 1 127.5482 18.0131 52.7627 0.0000 27.5660 0.0000
# 2 18.0131 78.1316 -10.4574 0.0000 4.1024 0.0000
# 3 52.7627 -10.4574 90.0621 0.0000 30.7583 0.0000
# 4 0.0000 0.0000 0.0000 -4.0278 0.0000 4.3740
# 5 27.5660 4.1024 30.7583 0.0000 64.3047 0.0000
# 6 0.0000 0.0000 0.0000 4.3740 0.0000 18.2311
#
#
#
# Elastic Compliance Matrix: (Units=1/GPa)
#
#
# Indices 1 2 3 4 5 6 
#
# 1 0.011351 -0.003410 -0.006524 0.000000 -0.001528 0.000000
# 2 -0.003410 0.014213 0.004134 0.000000 -0.001422 0.000000
# 3 -0.006524 0.004134 0.017379 0.000000 -0.005780 0.000000
# 4 0.000000 0.000000 0.000000 -0.196956 0.000000 0.047254
# 5 -0.001528 -0.001422 -0.005780 0.000000 0.019061 0.000000
# 6 0.000000 0.000000 0.000000 0.047254 0.000000 0.043514
#
#
# Mechanical properties :
#
#
# Convention : Reuss Voigt Hill
#
# Bulk Modulus (GPa) = 31.90515 46.26431 39.08473
# Shear Modulus (GPa) = -72.05625 31.39651 -20.32987
#
# Velocity S-wave (km/s) = -5.33184 3.51951 -2.83210
# Velocity P-wave (km/s) = 5.03161 5.89650 2.17389
#
# Compressibility (1/GPa) = 0.03134290
#
# Stress axis : x y z
#
# Youngs Moduli (GPa) = 88.10068 70.35822 57.53923
#
# Poissons Ratio (x) = 0.23991 0.37538
# Poissons Ratio (y) = 0.30041 -0.23785
# Poissons Ratio (z) = 0.57476 -0.29084
#
# Static dielectric constant tensor:
#      x y z
#    x 2.040460 0.000000 0.073150 
#    y 0.000000 2.066410 0.000000 
#    z 0.073150 0.000000 2.105450 
# 
# From -- ./inp_files/287931.got.cif
#   From: 2010.05.17/outbox.cif.g08.bks.cpg/sg15_144_cif.got.tgz:287931.got - 2010.06.03 18:47:42.
