data_PCOD9257142
_publ_section_title
;
Structure prediction by ZEFSAII (Michael W. Deem and Ramdas Pophale) SiO2 
 PCOD9257142
Probable space group: C 2/C
;
_chemical_formula_sum "Si O2"
_cell_formula_units_Z 48
_cell_length_a 14.791349
_cell_length_b 36.715349
_cell_length_c 5.985146
_cell_angle_alpha 90.000000
_cell_angle_beta 129.975191
_cell_angle_gamma 90.000000
_cell_volume 2490.817355
_symmetry_space_group_name_H-M "C 2/C"
_symmetry_group_IT_number 15
_symmetry_cell_setting 'monoclinic'
loop_
_space_group_symop_operation_xyz
x,y,z
-x,y,1/2-z
-x,-y,-z
x,-y,1/2+z
1/2+x,1/2+y,z
1/2-x,1/2+y,1/2-z
1/2-x,1/2-y,-z
1/2+x,1/2-y,1/2+z
loop_
_atom_site_type_symbol
_atom_site_label
_atom_site_fract_x
_atom_site_fract_y
_atom_site_fract_z
Si Si1 0.682547 0.596864 0.343647
Si Si2 0.500000 0.183691 0.250000
Si Si3 0.125682 0.159015 0.572237
Si Si4 0.500000 0.368005 0.250000
Si Si5 0.196302 0.711010 0.862880
Si Si6 0.638617 0.487830 0.744993
Si Si7 0.126223 0.353330 0.568793
O O1 0.681185 0.621389 0.565424
O O2 0.671911 0.554026 0.351115
O O3 0.787868 0.613243 0.357941
O O4 0.560550 0.607547 0.029912
O O5 0.571108 0.208672 0.537127
O O6 0.408633 0.157351 0.235105
O O7 0.098546 0.155864 0.788648
O O8 0.209481 0.191576 0.645713
O O9 0.000000 0.164796 0.250000
O O10 0.180628 0.683307 0.045185
O O11 0.250000 0.750000 0.000000
O O12 0.500000 0.500000 0.500000
O O13 0.680823 0.493681 0.550129
O O14 0.000000 0.360274 0.250000
#
# Coordination Sequence:
#
# PCOD9257142 Si02
#       7
#     8   4   8   4   8   8   8
#     4  10  20  34  56  81 117 152 192 241 296 359
#     4  10  20  38  61  84 108 150 206 246 300 360
#     4   9  20  33  53  81 110 147 188 237 296 352
#     4  10  18  30  55  82 110 142 192 236 288 358
#     4  10  21  38  56  81 118 150 191 247 302 365
#     4  10  22  35  54  86 126 162 198 239 307 373
#     4   9  20  39  59  85 109 150 204 251 295 352
#
# _framework density 19.270785
#
# number of rings (size 3 to 8) (size 9 to 14) (size 15 to 20)
#    0.000    2.333    0.000    2.000    9.333    2.667 
#    0.000    8.333    0.000    1.000    0.000    0.000 
#    0.000    0.000    0.000    0.000    0.000    0.000 
#
# Total GULP energy -133604.602278 kJ/mol
# GULP energy per Si atom -5566.858428 kJ/mol
# Density = 1.922692 g / cm^3
# Si number density = 19.270785 Si / 1000 Ang^3
#
#
#
# Elastic Constant Matrix: (Units=GPa)
#
#
# Indices 1 2 3 4 5 6 
#
# 1 82.8961 41.0276 6.6229 0.0000 -11.1738 0.0000
# 2 41.0276 137.0146 25.6549 0.0000 3.1942 0.0000
# 3 6.6229 25.6549 64.8651 0.0000 -5.2264 0.0000
# 4 0.0000 0.0000 0.0000 11.8723 0.0000 9.4185
# 5 -11.1738 3.1942 -5.2264 0.0000 35.5869 0.0000
# 6 0.0000 0.0000 0.0000 9.4185 0.0000 15.8271
#
#
#
# Elastic Compliance Matrix: (Units=1/GPa)
#
#
# Indices 1 2 3 4 5 6 
#
# 1 0.015081 -0.004784 0.000778 0.000000 0.005279 0.000000
# 2 -0.004784 0.009449 -0.003479 0.000000 -0.002861 0.000000
# 3 0.000778 -0.003479 0.016959 0.000000 0.003047 0.000000
# 4 0.000000 0.000000 0.000000 0.159553 0.000000 -0.094948
# 5 0.005279 -0.002861 0.003047 0.000000 0.030462 0.000000
# 6 0.000000 0.000000 0.000000 -0.094948 0.000000 0.119685
#
#
# Mechanical properties :
#
#
# Convention : Reuss Voigt Hill
#
# Bulk Modulus (GPa) = 37.71180 47.93184 42.82182
# Shear Modulus (GPa) = 13.33333 26.75531 20.04432
#
# Velocity S-wave (km/s) = 2.63324 3.73015 3.22862
# Velocity P-wave (km/s) = 5.37189 6.59385 6.01398
#
# Compressibility (1/GPa) = 0.02651690
#
# Stress axis : x y z
#
# Youngs Moduli (GPa) = 66.31019 105.82748 58.96632
#
# Poissons Ratio (x) = 0.50633 -0.04587
# Poissons Ratio (y) = 0.31726 0.20517
# Poissons Ratio (z) = -0.05158 0.36821
#
# Static dielectric constant tensor:
#      x y z
#    x 1.784970 0.000000 -0.031940 
#    y 0.000000 1.662390 0.000000 
#    z -0.031940 0.000000 1.784350 
# 
# From -- ./inp_files/8979.got.cif
#   From: 2010.05.17/outbox.cif.g08.bks.cpg/sg15_5_cif.got.tgz:8979.got - 2010.06.03 18:47:42.
