data_PCOD9257039
_publ_section_title
;
Structure prediction by ZEFSAII (Michael W. Deem and Ramdas Pophale) SiO2 
 PCOD9257039
Probable space group: C 2/C
;
_chemical_formula_sum "Si O2"
_cell_formula_units_Z 60
_cell_length_a 17.059221
_cell_length_b 13.265759
_cell_length_c 23.659107
_cell_angle_alpha 90.000000
_cell_angle_beta 25.401180
_cell_angle_gamma 90.000000
_cell_volume 2296.677962
_symmetry_space_group_name_H-M "C 2/C"
_symmetry_group_IT_number 15
_symmetry_cell_setting 'monoclinic'
loop_
_space_group_symop_operation_xyz
x,y,z
-x,y,1/2-z
-x,-y,-z
x,-y,1/2+z
1/2+x,1/2+y,z
1/2-x,1/2+y,1/2-z
1/2-x,1/2-y,-z
1/2+x,1/2-y,1/2+z
loop_
_atom_site_type_symbol
_atom_site_label
_atom_site_fract_x
_atom_site_fract_y
_atom_site_fract_z
Si Si1 0.450133 0.362038 0.590964
Si Si2 0.719774 0.137600 0.779020
Si Si3 0.172176 0.130626 0.214001
Si Si4 0.416459 0.138982 0.516219
Si Si5 0.000000 0.018005 0.750000
Si Si6 0.355464 0.363545 0.534500
Si Si7 0.233165 0.370094 0.500863
Si Si8 0.873968 0.354956 0.281587
O O1 0.359818 0.251632 0.660007
O O2 0.421390 0.415469 0.669222
O O3 0.359051 0.410440 0.594569
O O4 0.663927 0.355095 0.438965
O O5 0.670953 0.087047 0.871104
O O6 0.935864 0.139865 0.625011
O O7 0.623357 0.100863 0.783929
O O8 0.078296 0.236444 0.259428
O O9 0.377755 0.153913 0.098080
O O10 0.152995 0.056708 0.174129
O O11 0.312597 0.246069 0.575812
O O12 0.411711 0.103268 0.453996
O O13 0.915339 0.087366 0.853032
O O14 0.227452 0.407757 0.569218
O O15 0.250000 0.250000 0.500000
O O16 0.000000 0.393578 0.250000
#
# Coordination Sequence:
#
# PCOD9257039 Si02
#       8
#     8   8   8   8   4   8   8   8
#     4   9  17  32  53  86 125 166 211 250 298 368
#     4   9  15  27  51  81 122 153 215 252 294 347
#     4  11  21  35  58  91 137 163 199 259 314 389
#     4  10  18  34  57  89 120 162 199 261 317 358
#     4  12  26  42  60  96 122 162 204 262 344 370
#     4   9  16  33  58  87 116 157 219 260 294 351
#     4  10  23  41  63  90 117 157 222 274 311 373
#     4  10  18  30  51  84 124 175 216 246 294 362
#
# _framework density 26.124690000000001
#
# number of rings (size 3 to 8) (size 9 to 14) (size 15 to 20)
#    0.000    2.133    6.000    0.800    0.000    3.733 
#    0.000    0.667    0.000    0.000    8.667    0.000 
#    0.000    0.000    0.000    0.000    0.000    0.133 
#
# Total GULP energy -167547.211264 kJ/mol
# GULP energy per Si atom -5584.907042 kJ/mol
# Density = 2.606523 g / cm^3
# Si number density = 26.124690 Si / 1000 Ang^3
#
#
#
# Elastic Constant Matrix: (Units=GPa)
#
#
# Indices 1 2 3 4 5 6 
#
# 1 208.8595 23.0890 48.9255 -0.0082 54.0672 0.0077
# 2 23.0890 95.0684 23.3149 0.0240 7.9377 -0.0035
# 3 48.9255 23.3149 109.2024 0.0206 42.5512 0.0000
# 4 -0.0082 0.0240 0.0206 31.8179 -0.0052 1.2249
# 5 54.0672 7.9377 42.5512 -0.0052 44.6487 -0.0060
# 6 0.0077 -0.0035 0.0000 1.2249 -0.0060 10.9831
#
#
#
# Elastic Compliance Matrix: (Units=1/GPa)
#
#
# Indices 1 2 3 4 5 6 
#
# 1 0.007088 -0.001108 0.000523 0.000001 -0.008884 -0.000010
# 2 -0.001108 0.011279 -0.002630 -0.000007 0.001842 0.000006
# 3 0.000523 -0.002630 0.015190 -0.000010 -0.014642 -0.000008
# 4 0.000001 -0.000007 -0.000010 0.031564 0.000012 -0.003520
# 5 -0.008884 0.001842 -0.014642 0.000012 0.046782 0.000031
# 6 -0.000010 0.000006 -0.000008 -0.003520 0.000031 0.091441
#
#
# Mechanical properties :
#
#
# Convention : Reuss Voigt Hill
#
# Bulk Modulus (GPa) = 36.86366 67.08770 51.97568
# Shear Modulus (GPa) = 22.85031 38.67667 30.76349
#
# Velocity S-wave (km/s) = 2.96068 3.85185 3.43529
# Velocity P-wave (km/s) = 5.08220 6.74670 5.97272
#
# Compressibility (1/GPa) = 0.02712698
#
# Stress axis : x y z
#
# Youngs Moduli (GPa) = 141.08874 88.66141 65.83391
#
# Poissons Ratio (x) = 0.09822 -0.03442
# Poissons Ratio (y) = 0.15630 0.17312
# Poissons Ratio (z) = -0.07376 0.23315
#
# Static dielectric constant tensor:
#      x y z
#    x 2.116280 0.000000 0.058740 
#    y 0.000000 2.112520 0.000010 
#    z 0.058740 0.000010 2.038640 
# 
# From -- ./inp_files/206126.got.cif
#   From: 2010.05.17/outbox.cif.g08.bks.cpg/sg15_104_cif.got.tgz:206126.got - 2010.06.03 18:47:42.
