data_PCOD9257356
_publ_section_title
;
Structure prediction by ZEFSAII (Michael W. Deem and Ramdas Pophale) SiO2 
 PCOD9257356
Probable space group: C 2/C
;
_chemical_formula_sum "Si O2"
_cell_formula_units_Z 32
_cell_length_a 19.370269
_cell_length_b 6.910840
_cell_length_c 20.362877
_cell_angle_alpha 90.000000
_cell_angle_beta 30.997156
_cell_angle_gamma 90.000000
_cell_volume 1403.812435
_symmetry_space_group_name_H-M "C 2/C"
_symmetry_group_IT_number 15
_symmetry_cell_setting 'monoclinic'
loop_
_space_group_symop_operation_xyz
x,y,z
-x,y,1/2-z
-x,-y,-z
x,-y,1/2+z
1/2+x,1/2+y,z
1/2-x,1/2+y,1/2-z
1/2-x,1/2-y,-z
1/2+x,1/2-y,1/2+z
loop_
_atom_site_type_symbol
_atom_site_label
_atom_site_fract_x
_atom_site_fract_y
_atom_site_fract_z
Si Si1 0.336412 0.514783 0.087100
Si Si2 0.395897 0.476964 0.687585
Si Si3 0.383502 0.048241 0.043534
Si Si4 0.547063 0.079155 0.785880
O O1 0.186940 0.532318 0.182029
O O2 0.357030 0.279166 0.072843
O O3 0.354428 0.584792 0.147119
O O4 0.463103 0.584756 0.940330
O O5 0.255985 0.559901 0.828318
O O6 0.427973 0.299433 0.709788
O O7 0.435684 0.010325 0.928099
O O8 0.500000 0.000000 0.000000
O O9 0.500000 0.072019 0.750000
#
# Coordination Sequence:
#
# PCOD9257356 Si02
#       4
#     8   8   8   8
#     4   9  18  32  50  77 105 137 175 215 256 310
#     4   9  18  31  50  75 103 139 174 214 256 311
#     4  10  18  31  52  76 105 139 178 210 261 316
#     4  10  20  33  53  82 110 133 171 225 268 302
#
# _framework density 22.795067
#
# number of rings (size 3 to 8) (size 9 to 14) (size 15 to 20)
#    0.000    2.500    2.500    0.000    0.000    9.000 
#    0.000    0.000    0.000    1.500    0.000   14.000 
#    0.000    0.000    0.000    0.000    0.000    0.000 
#
# Total GULP energy -89334.579120 kJ/mol
# GULP energy per Si atom -5583.411195 kJ/mol
# Density = 2.274318 g / cm^3
# Si number density = 22.795067 Si / 1000 Ang^3
#
#
#
# Elastic Constant Matrix: (Units=GPa)
#
#
# Indices 1 2 3 4 5 6 
#
# 1 169.4649 30.7736 96.9340 0.0002 17.6475 -0.0002
# 2 30.7736 81.3076 -6.8527 0.0003 5.8448 -0.0004
# 3 96.9340 -6.8527 254.1863 0.0001 7.3661 -0.0001
# 4 0.0002 0.0003 0.0001 -6.0974 0.0000 -2.2294
# 5 17.6475 5.8448 7.3661 0.0000 31.9967 0.0001
# 6 -0.0002 -0.0004 -0.0001 -2.2294 0.0001 27.4850
#
#
#
# Elastic Compliance Matrix: (Units=1/GPa)
#
#
# Indices 1 2 3 4 5 6 
#
# 1 0.008780 -0.003356 -0.003339 0.000000 -0.003461 0.000000
# 2 -0.003356 0.013787 0.001682 0.000000 -0.001055 0.000000
# 3 -0.003339 0.001682 0.005243 0.000000 0.000327 0.000000
# 4 0.000000 0.000000 0.000000 -0.159280 0.000000 -0.012920
# 5 -0.003461 -0.001055 0.000327 0.000000 0.033280 0.000000
# 6 0.000000 0.000000 0.000000 -0.012920 0.000000 0.035335
#
#
# Mechanical properties :
#
#
# Convention : Reuss Voigt Hill
#
# Bulk Modulus (GPa) = 56.22584 82.96319 69.59451
# Shear Modulus (GPa) = -106.60758 36.28379 -35.16190
#
# Velocity S-wave (km/s) = -6.84612 3.99399 -3.93176
# Velocity P-wave (km/s) = 6.14599 7.59891 3.15993
#
# Compressibility (1/GPa) = 0.01778542
#
# Stress axis : x y z
#
# Youngs Moduli (GPa) = 113.88965 72.53385 190.72464
#
# Poissons Ratio (x) = 0.24341 0.63675
# Poissons Ratio (y) = 0.38219 -0.32080
# Poissons Ratio (z) = 0.38023 -0.12200
#
# Static dielectric constant tensor:
#      x y z
#    x 1.723200 0.000000 -0.020730 
#    y 0.000000 1.954620 0.000000 
#    z -0.020730 0.000000 1.942970 
# 
# From -- ./inp_files/45712.got.cif
#   From: 2010.05.17/outbox.cif.g08.bks.cpg/sg15_23_cif.got.tgz:45712.got - 2010.06.03 18:47:42.
