data_PCOD9257908
_publ_section_title
;
Structure prediction by ZEFSAII (Michael W. Deem and Ramdas Pophale) SiO2 
 PCOD9257908
Probable space group: C 2/C
;
_chemical_formula_sum "Si O2"
_cell_formula_units_Z 48
_cell_length_a 11.583899
_cell_length_b 11.372212
_cell_length_c 23.196829
_cell_angle_alpha 90.000000
_cell_angle_beta 52.331901
_cell_angle_gamma 90.000000
_cell_volume 2418.879908
_symmetry_space_group_name_H-M "C 2/C"
_symmetry_group_IT_number 15
_symmetry_cell_setting 'monoclinic'
loop_
_space_group_symop_operation_xyz
x,y,z
-x,y,1/2-z
-x,-y,-z
x,-y,1/2+z
1/2+x,1/2+y,z
1/2-x,1/2+y,1/2-z
1/2-x,1/2-y,-z
1/2+x,1/2-y,1/2+z
loop_
_atom_site_type_symbol
_atom_site_label
_atom_site_fract_x
_atom_site_fract_y
_atom_site_fract_z
Si Si1 0.113318 0.718827 0.580652
Si Si2 0.290374 0.664492 0.701331
Si Si3 0.854436 0.121071 0.322793
Si Si4 0.924076 0.743669 0.336389
Si Si5 0.141557 0.517052 0.665297
Si Si6 0.819890 0.606814 0.635798
O O1 0.250000 0.750000 0.500000
O O2 0.097389 0.829207 0.629543
O O3 0.143844 0.610685 0.614106
O O4 0.976728 0.669711 0.585627
O O5 0.192602 0.766552 0.701695
O O6 0.452450 0.714240 0.657775
O O7 0.274638 0.548394 0.667028
O O8 0.229969 0.634035 0.783029
O O9 0.000000 0.064601 0.250000
O O10 0.718823 0.030308 0.362899
O O11 0.869686 0.610979 0.358196
O O12 0.787551 0.828505 0.375292
O O13 0.000000 0.747818 0.250000
O O14 0.000000 0.532542 0.750000
#
# Coordination Sequence:
#
# PCOD9257908 Si02
#       6
#     8   8   8   8   8   8
#     4  11  23  40  59  85 122 162 202 245 301 369
#     4  10  18  32  55  86 118 143 192 254 296 352
#     4  11  21  37  63  90 117 154 206 255 303 354
#     4   9  20  31  52  89 114 149 189 249 312 344
#     4  10  18  36  60  82 112 153 197 244 298 346
#     4  11  21  35  57  87 122 151 200 250 301 359
#
# _framework density 19.843895
#
# number of rings (size 3 to 8) (size 9 to 14) (size 15 to 20)
#    0.000    1.667    3.333    3.500    4.667    2.000 
#    0.000    0.833    0.000    5.000    0.000    0.000 
#    0.000    0.000    0.000    0.000    0.000    0.000 
#
# Total GULP energy -133828.766988 kJ/mol
# GULP energy per Si atom -5576.198625 kJ/mol
# Density = 1.979873 g / cm^3
# Si number density = 19.843895 Si / 1000 Ang^3
#
#
#
# Elastic Constant Matrix: (Units=GPa)
#
#
# Indices 1 2 3 4 5 6 
#
# 1 116.3914 27.7006 4.3248 0.0000 -13.2558 0.0000
# 2 27.7006 79.6603 12.1192 0.0000 -3.4790 0.0000
# 3 4.3248 12.1192 39.0993 0.0000 -8.5476 0.0000
# 4 0.0000 0.0000 0.0000 -8.8362 0.0000 -13.5035
# 5 -13.2558 -3.4790 -8.5476 0.0000 13.1266 0.0000
# 6 0.0000 0.0000 0.0000 -13.5035 0.0000 28.0864
#
#
#
# Elastic Compliance Matrix: (Units=1/GPa)
#
#
# Indices 1 2 3 4 5 6 
#
# 1 0.010648 -0.003574 0.002418 0.000000 0.011381 0.000000
# 2 -0.003574 0.014384 -0.004686 0.000000 -0.002848 0.000000
# 3 0.002418 -0.004686 0.031509 0.000000 0.021717 0.000000
# 4 0.000000 0.000000 0.000000 -0.065238 0.000000 -0.031365
# 5 0.011381 -0.002848 0.021717 0.000000 0.101060 0.000000
# 6 0.000000 0.000000 0.000000 -0.031365 0.000000 0.020524
#
#
# Mechanical properties :
#
#
# Convention : Reuss Voigt Hill
#
# Bulk Modulus (GPa) = 22.29258 35.93782 29.11520
# Shear Modulus (GPa) = 35.83596 19.20911 27.52253
#
# Velocity S-wave (km/s) = 4.25419 3.11466 3.72822
# Velocity P-wave (km/s) = 5.94888 5.57534 5.76514
#
# Compressibility (1/GPa) = 0.04485798
#
# Stress axis : x y z
#
# Youngs Moduli (GPa) = 93.90997 69.51927 31.73747
#
# Poissons Ratio (x) = 0.24844 -0.07673
# Poissons Ratio (y) = 0.33560 0.14872
# Poissons Ratio (z) = -0.22705 0.32576
#
# Static dielectric constant tensor:
#      x y z
#    x 1.771980 0.000000 0.008520 
#    y 0.000000 1.749310 0.000000 
#    z 0.008520 0.000000 1.700820 
# 
# From -- ./inp_files/196043.got.cif
#   From: 2010.05.17/outbox.cif.g08.bks.cpg/sg15_99_cif.got.tgz:196043.got - 2010.06.03 18:47:42.
