data_PCOD9257776
_publ_section_title
;
Structure prediction by ZEFSAII (Michael W. Deem and Ramdas Pophale) SiO2 
 PCOD9257776
Probable space group: C 2/C
;
_chemical_formula_sum "Si O2"
_cell_formula_units_Z 56
_cell_length_a 29.400506
_cell_length_b 9.585349
_cell_length_c 18.232494
_cell_angle_alpha 90.000000
_cell_angle_beta 151.327699
_cell_angle_gamma 90.000000
_cell_volume 2465.292816
_symmetry_space_group_name_H-M "C 2/C"
_symmetry_group_IT_number 15
_symmetry_cell_setting 'monoclinic'
loop_
_space_group_symop_operation_xyz
x,y,z
-x,y,1/2-z
-x,-y,-z
x,-y,1/2+z
1/2+x,1/2+y,z
1/2-x,1/2+y,1/2-z
1/2-x,1/2-y,-z
1/2+x,1/2-y,1/2+z
loop_
_atom_site_type_symbol
_atom_site_label
_atom_site_fract_x
_atom_site_fract_y
_atom_site_fract_z
Si Si1 0.817648 0.280298 0.187798
Si Si2 0.398963 0.714283 0.092175
Si Si3 0.222213 0.167887 0.868948
Si Si4 0.979938 0.349327 0.507064
Si Si5 0.358738 0.921996 0.674856
Si Si6 0.091963 0.132544 0.561122
Si Si7 0.081501 0.979006 0.747994
O O1 0.870029 0.312078 0.339522
O O2 0.839990 0.417971 0.170700
O O3 0.707253 0.244381 0.035950
O O4 0.870449 0.151618 0.225451
O O5 0.500000 0.792301 0.250000
O O6 0.392556 0.699584 0.995973
O O7 0.414723 0.572532 0.163113
O O8 0.204906 0.332361 0.856113
O O9 0.187626 0.108078 0.742197
O O10 0.146792 0.106732 0.821186
O O11 0.320632 0.114290 0.040397
O O12 0.000000 0.500000 0.500000
O O13 0.033701 0.370333 0.659745
O O14 0.036196 0.237761 0.536234
O O15 0.021015 0.007615 0.436617
#
# Coordination Sequence:
#
# PCOD9257776 Si02
#       7
#     8   8   8   8   8   8   8
#     4  10  18  34  58  81 105 138 188 224 267 326
#     4  10  20  33  51  81 114 141 172 230 289 319
#     4  10  18  32  53  81 105 136 179 220 262 325
#     4   8  16  32  55  80 102 140 185 224 263 329
#     4   9  18  31  55  78 101 138 177 217 261 318
#     4   9  19  33  51  83 112 140 178 234 277 311
#     4  10  19  33  58  81 105 139 190 227 263 324
#
# _framework density 22.715354999999999
#
# number of rings (size 3 to 8) (size 9 to 14) (size 15 to 20)
#    0.000    2.571    1.429    0.857    0.000    0.000 
#    0.000    4.286    0.000    0.857    0.000    0.000 
#    0.000    0.000    0.000    0.000    0.000    0.000 
#
# Total GULP energy -155885.255168 kJ/mol
# GULP energy per Si atom -5567.330542 kJ/mol
# Density = 2.266365 g / cm^3
# Si number density = 22.715355 Si / 1000 Ang^3
#
#
#
# Elastic Constant Matrix: (Units=GPa)
#
#
# Indices 1 2 3 4 5 6 
#
# 1 42.3229 -3.9666 38.7811 0.0000 -5.9406 0.0000
# 2 -3.9666 59.1401 0.9792 0.0000 5.6327 0.0000
# 3 38.7811 0.9792 237.9380 0.0000 -25.4328 0.0000
# 4 0.0000 0.0000 0.0000 24.8064 0.0000 -4.3403
# 5 -5.9406 5.6327 -25.4328 0.0000 35.2101 0.0000
# 6 0.0000 0.0000 0.0000 -4.3403 0.0000 0.5348
#
#
#
# Elastic Compliance Matrix: (Units=1/GPa)
#
#
# Indices 1 2 3 4 5 6 
#
# 1 0.028048 0.001838 -0.004448 0.000000 0.001225 0.000000
# 2 0.001838 0.017325 -0.000687 0.000000 -0.002958 0.000000
# 3 -0.004448 -0.000687 0.005269 0.000000 0.003165 0.000000
# 4 0.000000 0.000000 0.000000 -0.095968 0.000000 -0.778894
# 5 0.001225 -0.002958 0.003165 0.000000 0.031367 0.000000
# 6 0.000000 0.000000 0.000000 -0.778894 0.000000 -4.451690
#
#
# Mechanical properties :
#
#
# Convention : Reuss Voigt Hill
#
# Bulk Modulus (GPa) = 22.70236 45.66538 34.18387
# Shear Modulus (GPa) = -1.12502 32.35074 15.61286
#
# Velocity S-wave (km/s) = -0.70452 3.77792 2.62454
# Velocity P-wave (km/s) = 3.05846 6.25917 4.92602
#
# Compressibility (1/GPa) = 0.04404828
#
# Stress axis : x y z
#
# Youngs Moduli (GPa) = 35.65324 57.71881 189.79234
#
# Poissons Ratio (x) = -0.10610 0.84421
# Poissons Ratio (y) = -0.06554 0.13040
# Poissons Ratio (z) = 0.15859 0.03966
#
# Static dielectric constant tensor:
#      x y z
#    x 1.850330 0.000000 0.001960 
#    y 0.000000 1.875300 0.000000 
#    z 0.001960 0.000000 2.022640 
# 
# From -- ./inp_files/225326.got.cif
#   From: 2010.05.17/outbox.cif.g08.bks.cpg/sg15_113_cif.got.tgz:225326.got - 2010.06.03 18:47:42.
