data_PCOD9257849
_publ_section_title
;
Structure prediction by ZEFSAII (Michael W. Deem and Ramdas Pophale) SiO2 
 PCOD9257849
Probable space group: C 2/C
;
_chemical_formula_sum "Si O2"
_cell_formula_units_Z 52
_cell_length_a 10.872879
_cell_length_b 29.393517
_cell_length_c 10.966238
_cell_angle_alpha 90.000000
_cell_angle_beta 128.075823
_cell_angle_gamma 90.000000
_cell_volume 2758.902037
_symmetry_space_group_name_H-M "C 2/C"
_symmetry_group_IT_number 15
_symmetry_cell_setting 'monoclinic'
loop_
_space_group_symop_operation_xyz
x,y,z
-x,y,1/2-z
-x,-y,-z
x,-y,1/2+z
1/2+x,1/2+y,z
1/2-x,1/2+y,1/2-z
1/2-x,1/2-y,-z
1/2+x,1/2-y,1/2+z
loop_
_atom_site_type_symbol
_atom_site_label
_atom_site_fract_x
_atom_site_fract_y
_atom_site_fract_z
Si Si1 0.703340 0.648519 0.029197
Si Si2 0.500000 0.210804 0.250000
Si Si3 0.022921 0.773223 0.036269
Si Si4 0.127047 0.416709 0.717023
Si Si5 0.098284 0.514969 0.682941
Si Si6 0.660294 0.891001 0.118558
Si Si7 0.142334 0.704503 0.746278
O O1 0.736785 0.617756 0.167195
O O2 0.856342 0.680803 0.115762
O O3 0.558467 0.681216 0.962299
O O4 0.719260 0.616828 0.919863
O O5 0.552560 0.241851 0.171489
O O6 0.193757 0.783846 0.089310
O O7 0.911072 0.744685 0.878824
O O8 0.191868 0.467837 0.753984
O O9 0.000000 0.416641 0.750000
O O10 0.017535 0.399148 0.540526
O O11 0.186145 0.561981 0.707446
O O12 0.000000 0.520730 0.750000
O O13 0.000000 0.500000 0.500000
O O14 0.664592 0.843897 0.193368
O O15 0.000000 0.699377 0.750000
#
# Coordination Sequence:
#
# PCOD9257849 Si02
#       7
#     8   4   8   8   8   8   8
#     4  11  18  33  58  84 116 151 194 253 300 342
#     4  12  18  36  58  84 116 152 192 254 300 330
#     4  12  24  38  58  84 115 153 203 245 295 365
#     4   8  15  29  53  81 114 149 191 239 292 345
#     4   9  17  30  52  86 121 160 206 256 301 359
#     4  10  18  32  54  83 115 148 195 246 297 349
#     4  12  25  40  55  80 117 159 193 242 299 359
#
# _framework density 18.848078000000001
#
# number of rings (size 3 to 8) (size 9 to 14) (size 15 to 20)
#    0.000    1.538    5.385    3.231    0.000    0.000 
#    0.000    0.000    0.000    0.923    0.000    6.462 
#    0.000    0.000    0.000    0.000    0.000    0.000 
#
# Total GULP energy -144805.945721 kJ/mol
# GULP energy per Si atom -5569.459451 kJ/mol
# Density = 1.880518 g / cm^3
# Si number density = 18.848078 Si / 1000 Ang^3
#
#
#
# Elastic Constant Matrix: (Units=GPa)
#
#
# Indices 1 2 3 4 5 6 
#
# 1 45.9833 13.1616 16.6668 0.0000 16.8132 0.0000
# 2 13.1616 125.3255 24.8800 0.0000 14.0754 0.0000
# 3 16.6668 24.8800 35.2591 0.0000 5.1643 0.0000
# 4 0.0000 0.0000 0.0000 -12.5566 0.0000 -36.3000
# 5 16.8132 14.0754 5.1643 0.0000 23.4775 0.0000
# 6 0.0000 0.0000 0.0000 -36.3000 0.0000 3.1318
#
#
#
# Elastic Compliance Matrix: (Units=1/GPa)
#
#
# Indices 1 2 3 4 5 6 
#
# 1 0.034781 0.001755 -0.014339 0.000000 -0.022806 0.000000
# 2 0.001755 0.009799 -0.006923 0.000000 -0.005609 0.000000
# 3 -0.014339 -0.006923 0.039175 0.000000 0.005802 0.000000
# 4 0.000000 0.000000 0.000000 -0.002308 0.000000 -0.026750
# 5 -0.022806 -0.005609 0.005802 0.000000 0.061013 0.000000
# 6 0.000000 0.000000 0.000000 -0.026750 0.000000 0.009253
#
#
# Mechanical properties :
#
#
# Convention : Reuss Voigt Hill
#
# Bulk Modulus (GPa) = 22.35056 35.10940 28.72998
# Shear Modulus (GPa) = 24.31442 12.93448 18.62445
#
# Velocity S-wave (km/s) = 3.59558 2.62248 3.14687
# Velocity P-wave (km/s) = 5.39645 5.27616 5.33664
#
# Compressibility (1/GPa) = 0.04474160
#
# Stress axis : x y z
#
# Youngs Moduli (GPa) = 28.75168 102.04931 25.52674
#
# Poissons Ratio (x) = -0.17913 0.36603
# Poissons Ratio (y) = -0.05047 0.17672
# Poissons Ratio (z) = 0.41227 0.70647
#
# Static dielectric constant tensor:
#      x y z
#    x 1.647930 0.000000 -0.024530 
#    y 0.000000 1.696620 0.000000 
#    z -0.024530 0.000000 1.720360 
# 
# From -- ./inp_files/82317.got.cif
#   From: 2010.05.17/outbox.cif.g08.bks.cpg/sg15_42_cif.got.tgz:82317.got - 2010.06.03 18:47:42.
