data_PCOD9257404
_publ_section_title
;
Structure prediction by ZEFSAII (Michael W. Deem and Ramdas Pophale) SiO2 
 PCOD9257404
Probable space group: C 2/C
;
_chemical_formula_sum "Si O2"
_cell_formula_units_Z 64
_cell_length_a 6.960784
_cell_length_b 24.443935
_cell_length_c 17.474545
_cell_angle_alpha 90.000000
_cell_angle_beta 106.759930
_cell_angle_gamma 90.000000
_cell_volume 2846.974927
_symmetry_space_group_name_H-M "C 2/C"
_symmetry_group_IT_number 15
_symmetry_cell_setting 'monoclinic'
loop_
_space_group_symop_operation_xyz
x,y,z
-x,y,1/2-z
-x,-y,-z
x,-y,1/2+z
1/2+x,1/2+y,z
1/2-x,1/2+y,1/2-z
1/2-x,1/2-y,-z
1/2+x,1/2-y,1/2+z
loop_
_atom_site_type_symbol
_atom_site_label
_atom_site_fract_x
_atom_site_fract_y
_atom_site_fract_z
Si Si1 0.022598 0.412356 0.059028
Si Si2 0.331930 0.869418 0.812261
Si Si3 0.465886 0.313749 0.020972
Si Si4 0.532576 0.386300 0.340318
Si Si5 0.913223 0.122303 0.357850
Si Si6 0.026409 0.473385 0.600531
Si Si7 0.508991 0.808225 0.527202
Si Si8 0.507663 0.509161 0.342012
O O1 0.228150 0.395090 0.122896
O O2 0.937300 0.465296 0.095162
O O3 0.910939 0.355955 0.021267
O O4 0.064701 0.439146 0.980143
O O5 0.263906 0.856139 0.718094
O O6 0.440503 0.928543 0.829772
O O7 0.447798 0.827538 0.880843
O O8 0.119789 0.874581 0.833461
O O9 0.452063 0.345824 0.939726
O O10 0.229571 0.307226 0.013973
O O11 0.547534 0.347488 0.102420
O O12 0.567282 0.254734 0.024753
O O13 0.500000 0.367196 0.250000
O O14 0.441676 0.446832 0.341684
O O15 0.885480 0.057199 0.368904
O O16 0.261221 0.485727 0.605937
O O17 0.500000 0.520174 0.250000
#
# Coordination Sequence:
#
# PCOD9257404 Si02
#       8
#     8   8   8   8   8   8   8   8
#     4   8  14  25  47  70  92 125 165 204 238 293
#     4   9  17  32  53  77 100 134 163 207 259 312
#     4  10  21  35  48  75 105 135 174 216 244 293
#     4   9  18  31  48  69 100 136 171 205 253 306
#     4  10  18  31  53  79 104 123 166 214 258 303
#     4   8  12  23  46  75  95 118 162 199 244 297
#     4   9  19  36  48  70 106 137 175 207 251 293
#     4   9  14  27  49  75 101 128 160 203 253 312
#
# _framework density 22.480001000000001
#
# number of rings (size 3 to 8) (size 9 to 14) (size 15 to 20)
#    0.000    3.000    2.500    0.000    0.000    1.500 
#    6.750    0.000    0.000    0.000    0.000    0.000 
#    0.000    0.000    0.000    0.000    0.000    0.000 
#
# Total GULP energy -178316.262230 kJ/mol
# GULP energy per Si atom -5572.383195 kJ/mol
# Density = 2.242884 g / cm^3
# Si number density = 22.480001 Si / 1000 Ang^3
#
#
#
# Elastic Constant Matrix: (Units=GPa)
#
#
# Indices 1 2 3 4 5 6 
#
# 1 39.4656 2.3044 21.2812 0.0000 -5.2415 0.0000
# 2 2.3044 200.4343 91.4739 0.0000 -15.4465 0.0000
# 3 21.2812 91.4739 174.1275 0.0000 5.2807 0.0000
# 4 0.0000 0.0000 0.0000 23.0384 0.0000 3.0930
# 5 -5.2415 -15.4465 5.2807 0.0000 28.1047 0.0000
# 6 0.0000 0.0000 0.0000 3.0930 0.0000 11.5122
#
#
#
# Elastic Compliance Matrix: (Units=1/GPa)
#
#
# Indices 1 2 3 4 5 6 
#
# 1 0.029007 0.002625 -0.005161 0.000000 0.007822 0.000000
# 2 0.002625 0.007355 -0.004347 0.000000 0.005349 0.000000
# 3 -0.005161 -0.004347 0.008809 0.000000 -0.005007 0.000000
# 4 0.000000 0.000000 0.000000 0.045030 0.000000 -0.012098
# 5 0.007822 0.005349 -0.005007 0.000000 0.040920 0.000000
# 6 0.000000 0.000000 0.000000 -0.012098 0.000000 0.090115
#
#
# Mechanical properties :
#
#
# Convention : Reuss Voigt Hill
#
# Bulk Modulus (GPa) = 31.84226 71.57183 51.70705
# Shear Modulus (GPa) = 20.36900 32.46225 26.41562
#
# Velocity S-wave (km/s) = 3.01341 3.80419 3.43165
# Velocity P-wave (km/s) = 5.12864 7.15562 6.22519
#
# Compressibility (1/GPa) = 0.03140480
#
# Stress axis : x y z
#
# Youngs Moduli (GPa) = 34.47414 135.96305 113.52019
#
# Poissons Ratio (x) = -0.35688 0.58591
# Poissons Ratio (y) = -0.09049 0.49344
# Poissons Ratio (z) = 0.17793 0.59100
#
# Static dielectric constant tensor:
#      x y z
#    x 1.919810 0.000000 0.011890 
#    y 0.000000 1.913290 0.000000 
#    z 0.011890 0.000000 1.819990 
# 
# From -- ./inp_files/200676.got.cif
#   From: 2010.05.17/outbox.cif.g08.bks.cpg/sg15_101_cif.got.tgz:200676.got - 2010.06.03 18:47:42.
