data_PCOD9257293
_publ_section_title
;
Structure prediction by ZEFSAII (Michael W. Deem and Ramdas Pophale) SiO2 
 PCOD9257293
Probable space group: C 2/C
;
_chemical_formula_sum "Si O2"
_cell_formula_units_Z 56
_cell_length_a 21.037983
_cell_length_b 7.980667
_cell_length_c 19.490387
_cell_angle_alpha 90.000000
_cell_angle_beta 139.770835
_cell_angle_gamma 90.000000
_cell_volume 2113.454938
_symmetry_space_group_name_H-M "C 2/C"
_symmetry_group_IT_number 15
_symmetry_cell_setting 'monoclinic'
loop_
_space_group_symop_operation_xyz
x,y,z
-x,y,1/2-z
-x,-y,-z
x,-y,1/2+z
1/2+x,1/2+y,z
1/2-x,1/2+y,1/2-z
1/2-x,1/2-y,-z
1/2+x,1/2-y,1/2+z
loop_
_atom_site_type_symbol
_atom_site_label
_atom_site_fract_x
_atom_site_fract_y
_atom_site_fract_z
Si Si1 0.783058 0.312182 0.704265
Si Si2 0.356642 0.283005 0.121949
Si Si3 0.950263 0.211109 0.511673
Si Si4 0.962427 0.850749 0.566029
Si Si5 0.249651 0.680737 0.825744
Si Si6 0.567919 0.002222 0.411120
Si Si7 0.214037 0.115244 0.413915
O O1 0.846553 0.241697 0.694723
O O2 0.668335 0.295439 0.588374
O O3 0.805196 0.507675 0.727605
O O4 0.788326 0.236262 0.783939
O O5 0.423679 0.140358 0.142864
O O6 0.365370 0.484789 0.121230
O O7 0.250000 0.250000 0.000000
O O8 0.979396 0.388843 0.567407
O O9 0.984611 0.197440 0.461927
O O10 0.985445 0.051287 0.586652
O O11 0.846121 0.849383 0.451308
O O12 0.972502 0.688959 0.625465
O O13 0.183231 0.805628 0.815888
O O14 0.684163 0.975930 0.522153
O O15 0.250000 0.250000 0.500000
#
# Coordination Sequence:
#
# PCOD9257293 Si02
#       7
#     8   8   8   8   8   8   8
#     4  11  20  34  53  82 113 141 182 229 283 330
#     4  10  18  31  50  79 109 140 181 230 275 325
#     4  10  19  36  55  80 111 148 185 228 271 332
#     4   9  21  35  54  82 110 145 188 227 273 331
#     4  10  21  33  53  81 113 142 178 230 280 332
#     4  10  19  31  54  78 109 140 182 227 269 325
#     4  10  19  31  52  80 112 143 180 226 281 329
#
# _framework density 26.496898999999999
#
# number of rings (size 3 to 8) (size 9 to 14) (size 15 to 20)
#    0.000    2.000    2.857    3.000    6.000    0.000 
#    0.000    0.000    0.000    0.857    3.714    3.000 
#    0.000    0.000    0.000    0.000    0.000    0.000 
#
# Total GULP energy -156363.397702 kJ/mol
# GULP energy per Si atom -5584.407061 kJ/mol
# Density = 2.643659 g / cm^3
# Si number density = 26.496899 Si / 1000 Ang^3
#
#
#
# Elastic Constant Matrix: (Units=GPa)
#
#
# Indices 1 2 3 4 5 6 
#
# 1 86.4408 24.2774 30.0191 0.0000 -17.4964 0.0000
# 2 24.2774 185.9291 41.0001 0.0000 -23.7423 0.0000
# 3 30.0191 41.0001 81.0204 0.0000 -18.9920 0.0000
# 4 0.0000 0.0000 0.0000 13.6466 0.0000 -23.2677
# 5 -17.4964 -23.7423 -18.9920 0.0000 51.1124 0.0000
# 6 0.0000 0.0000 0.0000 -23.2677 0.0000 49.5853
#
#
#
# Elastic Compliance Matrix: (Units=1/GPa)
#
#
# Indices 1 2 3 4 5 6 
#
# 1 0.013745 -0.000506 -0.004150 0.000000 0.002928 0.000000
# 2 -0.000506 0.006234 -0.002551 0.000000 0.001775 0.000000
# 3 -0.004150 -0.002551 0.015950 0.000000 0.003321 0.000000
# 4 0.000000 0.000000 0.000000 0.366521 0.000000 0.171988
# 5 0.002928 0.001775 0.003321 0.000000 0.022625 0.000000
# 6 0.000000 0.000000 0.000000 0.171988 0.000000 0.100872
#
#
# Mechanical properties :
#
#
# Convention : Reuss Voigt Hill
#
# Bulk Modulus (GPa) = 46.48206 60.44261 53.46233
# Shear Modulus (GPa) = 9.13189 40.07511 24.60350
#
# Velocity S-wave (km/s) = 1.85846 3.89324 3.05051
# Velocity P-wave (km/s) = 4.71017 6.56281 5.71210
#
# Compressibility (1/GPa) = 0.02151368
#
# Stress axis : x y z
#
# Youngs Moduli (GPa) = 72.75592 160.42129 62.69684
#
# Poissons Ratio (x) = 0.08111 0.26021
# Poissons Ratio (y) = 0.03678 0.15995
# Poissons Ratio (z) = 0.30196 0.40927
#
# Static dielectric constant tensor:
#      x y z
#    x 0.983640 0.000000 0.340340 
#    y 0.000000 2.155010 0.000000 
#    z 0.340340 0.000000 1.986600 
# 
# From -- ./inp_files/218326.got.cif
#   From: 2010.05.17/outbox.cif.g08.bks.cpg/sg15_110_cif.got.tgz:218326.got - 2010.06.03 18:47:42.
