data_PCOD9257536
_publ_section_title
;
Structure prediction by ZEFSAII (Michael W. Deem and Ramdas Pophale) SiO2 
 PCOD9257536
Probable space group: C 2/C
;
_chemical_formula_sum "Si O2"
_cell_formula_units_Z 52
_cell_length_a 18.828099
_cell_length_b 12.576827
_cell_length_c 13.790011
_cell_angle_alpha 90.000000
_cell_angle_beta 139.628962
_cell_angle_gamma 90.000000
_cell_volume 2115.141630
_symmetry_space_group_name_H-M "C 2/C"
_symmetry_group_IT_number 15
_symmetry_cell_setting 'monoclinic'
loop_
_space_group_symop_operation_xyz
x,y,z
-x,y,1/2-z
-x,-y,-z
x,-y,1/2+z
1/2+x,1/2+y,z
1/2-x,1/2+y,1/2-z
1/2-x,1/2-y,-z
1/2+x,1/2-y,1/2+z
loop_
_atom_site_type_symbol
_atom_site_label
_atom_site_fract_x
_atom_site_fract_y
_atom_site_fract_z
Si Si1 0.372474 0.719757 0.460459
Si Si2 0.203272 0.464435 0.732347
Si Si3 0.619217 0.607150 0.539190
Si Si4 0.026066 0.331542 0.471654
Si Si5 0.211000 0.574610 0.531767
Si Si6 0.052058 0.060331 0.691643
Si Si7 0.500000 0.034980 0.750000
O O1 0.290689 0.629026 0.339731
O O2 0.424000 0.779962 0.421496
O O3 0.309383 0.803902 0.460292
O O4 0.473090 0.661722 0.618563
O O5 0.258934 0.560714 0.850833
O O6 0.085551 0.407015 0.613334
O O7 0.200046 0.505214 0.618304
O O8 0.604745 0.733227 0.522184
O O9 0.593241 0.573786 0.623533
O O10 0.523491 0.544646 0.382249
O O11 0.998569 0.393702 0.345323
O O12 0.336672 0.559481 0.630745
O O13 0.110174 0.535892 0.362646
#
# Coordination Sequence:
#
# PCOD9257536 Si02
#       7
#     8   8   8   8   8   8   4
#     4  10  18  31  58  81  95 128 177 215 248 292
#     4   9  17  29  52  81 101 126 165 213 256 282
#     4   8  14  28  51  76 101 126 161 207 251 295
#     4  10  19  34  51  75 105 134 169 206 248 305
#     4  10  19  35  51  73 108 133 161 209 253 300
#     4   8  15  29  52  78 100 128 164 207 253 289
#     4  10  24  36  48  70 106 144 162 196 264 310
#
# _framework density 24.584641999999999
#
# number of rings (size 3 to 8) (size 9 to 14) (size 15 to 20)
#    0.000    2.769    0.000    5.538    0.000    2.462 
#    0.000    7.692    0.000    3.692    0.000    0.000 
#    0.000    0.000    0.000    0.000    0.000    0.000 
#
# Total GULP energy -145355.270438 kJ/mol
# GULP energy per Si atom -5590.587325 kJ/mol
# Density = 2.452869 g / cm^3
# Si number density = 24.584642 Si / 1000 Ang^3
#
#
#
# Elastic Constant Matrix: (Units=GPa)
#
#
# Indices 1 2 3 4 5 6 
#
# 1 45.8877 25.3594 27.2325 0.0000 -4.4066 0.0000
# 2 25.3594 140.0606 78.0790 0.0000 13.2825 0.0000
# 3 27.2325 78.0790 176.3364 0.0000 19.8524 0.0000
# 4 0.0000 0.0000 0.0000 4.4487 0.0000 25.6626
# 5 -4.4066 13.2825 19.8524 0.0000 31.9956 0.0000
# 6 0.0000 0.0000 0.0000 25.6626 0.0000 15.6456
#
#
#
# Elastic Compliance Matrix: (Units=1/GPa)
#
#
# Indices 1 2 3 4 5 6 
#
# 1 0.026442 -0.003640 -0.003281 0.000000 0.007189 0.000000
# 2 -0.003640 0.010042 -0.003611 0.000000 -0.002430 0.000000
# 3 -0.003281 -0.003611 0.008234 0.000000 -0.004062 0.000000
# 4 0.000000 0.000000 0.000000 -0.026564 0.000000 0.043572
# 5 0.007189 -0.002430 -0.004062 0.000000 0.035773 0.000000
# 6 0.000000 0.000000 0.000000 0.043572 0.000000 -0.007553
#
#
# Mechanical properties :
#
#
# Convention : Reuss Voigt Hill
#
# Bulk Modulus (GPa) = 42.27702 69.29185 55.78443
# Shear Modulus (GPa) = 66.38226 25.85889 46.12057
#
# Velocity S-wave (km/s) = 5.20194 3.24671 4.33597
# Velocity P-wave (km/s) = 7.30165 6.50393 6.91430
#
# Compressibility (1/GPa) = 0.02365351
#
# Stress axis : x y z
#
# Youngs Moduli (GPa) = 37.81932 99.57995 121.45111
#
# Poissons Ratio (x) = 0.36249 0.39848
# Poissons Ratio (y) = 0.13767 0.43854
# Poissons Ratio (z) = 0.12408 0.35956
#
# Static dielectric constant tensor:
#      x y z
#    x 2.084850 0.000000 0.021200 
#    y 0.000000 1.929010 0.000000 
#    z 0.021200 0.000000 1.986800 
# 
# From -- ./inp_files/222470.got.cif
#   From: 2010.05.17/outbox.cif.g08.bks.cpg/sg15_112_cif.got.tgz:222470.got - 2010.06.03 18:47:42.
