data_PCOD9257855
_publ_section_title
;
Structure prediction by ZEFSAII (Michael W. Deem and Ramdas Pophale) SiO2 
 PCOD9257855
Probable space group: C 2/C
;
_chemical_formula_sum "Si O2"
_cell_formula_units_Z 32
_cell_length_a 6.772791
_cell_length_b 20.715533
_cell_length_c 8.806846
_cell_angle_alpha 90.000000
_cell_angle_beta 78.463194
_cell_angle_gamma 90.000000
_cell_volume 1210.654000
_symmetry_space_group_name_H-M "C 2/C"
_symmetry_group_IT_number 15
_symmetry_cell_setting 'monoclinic'
loop_
_space_group_symop_operation_xyz
x,y,z
-x,y,1/2-z
-x,-y,-z
x,-y,1/2+z
1/2+x,1/2+y,z
1/2-x,1/2+y,1/2-z
1/2-x,1/2-y,-z
1/2+x,1/2-y,1/2+z
loop_
_atom_site_type_symbol
_atom_site_label
_atom_site_fract_x
_atom_site_fract_y
_atom_site_fract_z
Si Si1 0.265747 0.567250 0.240169
Si Si2 0.281621 0.437841 0.374526
Si Si3 0.160672 0.811302 0.600928
Si Si4 0.359187 0.692878 0.900067
O O1 0.500000 0.568926 0.250000
O O2 0.179131 0.502404 0.328104
O O3 0.201959 0.634854 0.333692
O O4 0.261442 0.558113 0.060366
O O5 0.500000 0.438360 0.250000
O O6 0.217150 0.363482 0.356964
O O7 0.250000 0.750000 0.500000
O O8 0.000000 0.786891 0.750000
O O9 0.015901 0.841050 0.492736
O O10 0.500000 0.721756 0.750000
O O11 0.250000 0.750000 0.000000
#
# Coordination Sequence:
#
# PCOD9257855 Si02
#       4
#     8   8   8   8
#     4  10  18  32  54  84 112 145 193 243 285 329
#     4  10  19  32  55  84 114 146 192 245 284 331
#     4  11  22  39  59  85 117 153 190 238 291 343
#     4  11  23  37  58  86 115 151 191 237 289 342
#
# _framework density 26.431996000000002
#
# number of rings (size 3 to 8) (size 9 to 14) (size 15 to 20)
#    0.000    1.500    5.000    4.500    3.500    0.000 
#    0.000    0.000    0.000    3.000    0.000    0.000 
#    0.000    0.000    0.000    0.000    0.000    0.000 
#
# Total GULP energy -89196.762123 kJ/mol
# GULP energy per Si atom -5574.797633 kJ/mol
# Density = 2.637184 g / cm^3
# Si number density = 26.431996 Si / 1000 Ang^3
#
#
#
# Elastic Constant Matrix: (Units=GPa)
#
#
# Indices 1 2 3 4 5 6 
#
# 1 59.2590 24.7980 38.9071 0.0000 3.9948 0.0000
# 2 24.7980 271.1937 123.2132 0.0000 -19.6787 0.0000
# 3 38.9071 123.2132 239.6279 0.0000 -7.2759 0.0000
# 4 0.0000 0.0000 0.0000 62.9828 0.0000 -5.2308
# 5 3.9948 -19.6787 -7.2759 0.0000 33.9735 0.0000
# 6 0.0000 0.0000 0.0000 -5.2308 0.0000 5.9616
#
#
#
# Elastic Compliance Matrix: (Units=1/GPa)
#
#
# Indices 1 2 3 4 5 6 
#
# 1 0.019273 -0.000696 -0.002871 0.000000 -0.003284 0.000000
# 2 -0.000696 0.005017 -0.002392 0.000000 0.002476 0.000000
# 3 -0.002871 -0.002392 0.005875 0.000000 0.000211 0.000000
# 4 0.000000 0.000000 0.000000 0.017125 0.000000 0.015026
# 5 -0.003284 0.002476 0.000211 0.000000 0.031300 0.000000
# 6 0.000000 0.000000 0.000000 0.015026 0.000000 0.180923
#
#
# Mechanical properties :
#
#
# Convention : Reuss Voigt Hill
#
# Bulk Modulus (GPa) = 54.80084 104.87968 79.84026
# Shear Modulus (GPa) = 18.01709 46.12774 32.07241
#
# Velocity S-wave (km/s) = 2.61365 4.18203 3.48716
# Velocity P-wave (km/s) = 5.46681 7.94257 6.81800
#
# Compressibility (1/GPa) = 0.01824789
#
# Stress axis : x y z
#
# Youngs Moduli (GPa) = 51.88665 199.30956 170.20114
#
# Poissons Ratio (x) = 0.13877 0.48864
# Poissons Ratio (y) = 0.03613 0.40705
# Poissons Ratio (z) = 0.14896 0.47667
#
# Static dielectric constant tensor:
#      x y z
#    x 2.328920 0.000000 -0.247190 
#    y 0.000000 2.203280 0.000000 
#    z -0.247190 0.000000 6.851240 
# 
# From -- ./inp_files/29728.got.cif
#   From: 2010.05.17/outbox.cif.g08.bks.cpg/sg15_15_cif.got.tgz:29728.got - 2010.06.03 18:47:42.
