data_PCOD9257512
_publ_section_title
;
Structure prediction by ZEFSAII (Michael W. Deem and Ramdas Pophale) SiO2 
 PCOD9257512
Probable space group: C 2/C
;
_chemical_formula_sum "Si O2"
_cell_formula_units_Z 48
_cell_length_a 11.271328
_cell_length_b 10.353701
_cell_length_c 21.129666
_cell_angle_alpha 90.000000
_cell_angle_beta 132.259837
_cell_angle_gamma 90.000000
_cell_volume 1824.968260
_symmetry_space_group_name_H-M "C 2/C"
_symmetry_group_IT_number 15
_symmetry_cell_setting 'monoclinic'
loop_
_space_group_symop_operation_xyz
x,y,z
-x,y,1/2-z
-x,-y,-z
x,-y,1/2+z
1/2+x,1/2+y,z
1/2-x,1/2+y,1/2-z
1/2-x,1/2-y,-z
1/2+x,1/2-y,1/2+z
loop_
_atom_site_type_symbol
_atom_site_label
_atom_site_fract_x
_atom_site_fract_y
_atom_site_fract_z
Si Si1 0.407390 0.751537 0.602105
Si Si2 0.736645 0.441544 0.891105
Si Si3 0.529705 0.740213 0.190197
Si Si4 0.570097 0.675293 0.543856
Si Si5 0.293947 0.197831 0.856550
Si Si6 0.334281 0.970029 0.067506
O O1 0.250000 0.750000 0.500000
O O2 0.519448 0.662689 0.598833
O O3 0.363250 0.705839 0.655796
O O4 0.434146 0.904396 0.621797
O O5 0.550654 0.400395 0.832925
O O6 0.818989 0.302943 0.911444
O O7 0.805179 0.541835 0.864882
O O8 0.792384 0.488010 0.979473
O O9 0.500000 0.795536 0.250000
O O10 0.695632 0.746264 0.210813
O O11 0.429515 0.836661 0.109504
O O12 0.425725 0.721748 0.445593
O O13 0.672915 0.559102 0.550391
#
# Coordination Sequence:
#
# PCOD9257512 Si02
#       6
#     8   8   8   8   8   8
#     4  10  21  31  54  94 122 144 184 250 306 349
#     4  11  19  36  65  85 111 153 197 251 296 341
#     4  11  24  41  59  83 117 158 205 241 293 366
#     4  10  18  31  56  90 113 141 191 243 287 350
#     4  11  20  35  59  85 122 147 188 244 301 353
#     4  11  19  36  62  88 114 154 197 249 301 340
#
# _framework density 26.301826999999999
#
# number of rings (size 3 to 8) (size 9 to 14) (size 15 to 20)
#    0.000    1.333    6.667    2.500    0.000    4.000 
#    3.000    0.000    0.000    0.000    0.000    0.000 
#    0.000    0.000    0.000    0.000    0.000    0.000 
#
# Total GULP energy -133909.443302 kJ/mol
# GULP energy per Si atom -5579.560138 kJ/mol
# Density = 2.624196 g / cm^3
# Si number density = 26.301827 Si / 1000 Ang^3
#
#
#
# Elastic Constant Matrix: (Units=GPa)
#
#
# Indices 1 2 3 4 5 6 
#
# 1 130.1556 23.2538 41.4273 0.0000 -65.6810 0.0000
# 2 23.2538 108.4594 11.6568 0.0000 -10.3205 0.0000
# 3 41.4273 11.6568 89.4712 0.0000 -27.6419 0.0000
# 4 0.0000 0.0000 0.0000 9.0778 0.0000 -14.4573
# 5 -65.6810 -10.3205 -27.6419 0.0000 43.4402 0.0000
# 6 0.0000 0.0000 0.0000 -14.4573 0.0000 49.2089
#
#
#
# Elastic Compliance Matrix: (Units=1/GPa)
#
#
# Indices 1 2 3 4 5 6 
#
# 1 0.033017 -0.002399 0.000338 0.000000 0.049567 0.000000
# 2 -0.002399 0.009640 -0.000695 0.000000 -0.001779 0.000000
# 3 0.000338 -0.000695 0.013963 0.000000 0.009231 0.000000
# 4 0.000000 0.000000 0.000000 0.207027 0.000000 0.060823
# 5 0.049567 -0.001779 0.009231 0.000000 0.103416 0.000000
# 6 0.000000 0.000000 0.000000 0.060823 0.000000 0.038191
#
#
# Mechanical properties :
#
#
# Convention : Reuss Voigt Hill
#
# Bulk Modulus (GPa) = 19.56588 53.41800 36.49194
# Shear Modulus (GPa) = 11.68769 37.12860 24.40814
#
# Velocity S-wave (km/s) = 2.11029 3.76125 3.04962
# Velocity P-wave (km/s) = 3.65963 6.26230 5.12880
#
# Compressibility (1/GPa) = 0.05110938
#
# Stress axis : x y z
#
# Youngs Moduli (GPa) = 30.28721 103.73722 71.61989
#
# Poissons Ratio (x) = 0.24884 -0.02424
# Poissons Ratio (y) = 0.07265 0.04976
# Poissons Ratio (z) = -0.01025 0.07208
#
# Static dielectric constant tensor:
#      x y z
#    x 2.397480 0.000000 0.082920 
#    y 0.000000 2.177950 0.000000 
#    z 0.082920 0.000000 2.078820 
# 
# From -- ./inp_files/236655.got.cif
#   From: 2010.05.17/outbox.cif.g08.bks.cpg/sg15_119_cif.got.tgz:236655.got - 2010.06.03 18:47:42.
