data_PCOD9257507
_publ_section_title
;
Structure prediction by ZEFSAII (Michael W. Deem and Ramdas Pophale) SiO2 
 PCOD9257507
Probable space group: C 2/C
;
_chemical_formula_sum "Si O2"
_cell_formula_units_Z 40
_cell_length_a 6.889583
_cell_length_b 23.567354
_cell_length_c 14.922613
_cell_angle_alpha 90.000000
_cell_angle_beta 141.013225
_cell_angle_gamma 90.000000
_cell_volume 1524.391863
_symmetry_space_group_name_H-M "C 2/C"
_symmetry_group_IT_number 15
_symmetry_cell_setting 'monoclinic'
loop_
_space_group_symop_operation_xyz
x,y,z
-x,y,1/2-z
-x,-y,-z
x,-y,1/2+z
1/2+x,1/2+y,z
1/2-x,1/2+y,1/2-z
1/2-x,1/2-y,-z
1/2+x,1/2-y,1/2+z
loop_
_atom_site_type_symbol
_atom_site_label
_atom_site_fract_x
_atom_site_fract_y
_atom_site_fract_z
Si Si1 0.778263 0.602775 0.041729
Si Si2 0.325365 0.795564 0.784700
Si Si3 0.324040 0.367812 0.527033
Si Si4 0.652159 0.017080 0.901342
Si Si5 0.809137 0.170749 0.773012
O O1 0.640997 0.611974 0.091775
O O2 0.953296 0.543458 0.096635
O O3 0.994768 0.655650 0.097011
O O4 0.465892 0.616234 0.875389
O O5 0.500000 0.791022 0.750000
O O6 0.353136 0.732388 0.833816
O O7 0.980239 0.819823 0.645320
O O8 0.159787 0.430400 0.473482
O O9 0.052477 0.336890 0.375082
O O10 0.500000 0.028664 0.750000
O O11 0.000000 0.000000 0.000000
O O12 0.000000 0.173163 0.750000
#
# Coordination Sequence:
#
# PCOD9257507 Si02
#       5
#     8   8   8   8   8
#     4  10  19  35  57  80 104 137 177 223 269 311
#     4   9  19  34  54  78 106 137 178 223 265 311
#     4  10  19  35  58  81 103 135 176 224 271 313
#     4  10  18  31  56  87 106 125 171 229 271 311
#     4  11  22  35  50  76 111 146 178 213 257 318
#
# _framework density 26.239971000000001
#
# number of rings (size 3 to 8) (size 9 to 14) (size 15 to 20)
#    0.000    2.000    0.000    7.200    0.000    0.000 
#    0.000    4.000    0.000    0.000    0.000    0.000 
#    0.000    0.000    0.000    0.000    0.000    0.000 
#
# Total GULP energy -111464.886618 kJ/mol
# GULP energy per Si atom -5573.244331 kJ/mol
# Density = 2.618025 g / cm^3
# Si number density = 26.239971 Si / 1000 Ang^3
#
#
#
# Elastic Constant Matrix: (Units=GPa)
#
#
# Indices 1 2 3 4 5 6 
#
# 1 64.5625 11.0167 -6.5773 0.0000 6.0615 0.0000
# 2 11.0167 213.2269 34.5371 0.0000 -4.7732 0.0000
# 3 -6.5773 34.5371 136.7170 -0.0001 17.2259 0.0000
# 4 0.0000 0.0000 -0.0001 39.3722 0.0000 9.7950
# 5 6.0615 -4.7732 17.2259 0.0000 28.1151 0.0000
# 6 0.0000 0.0000 0.0000 9.7950 0.0000 14.6302
#
#
#
# Elastic Compliance Matrix: (Units=1/GPa)
#
#
# Indices 1 2 3 4 5 6 
#
# 1 0.016318 -0.001224 0.001695 0.000000 -0.004764 0.000000
# 2 -0.001224 0.005060 -0.001602 0.000000 0.002105 0.000000
# 3 0.001695 -0.001602 0.008540 0.000000 -0.005870 0.000000
# 4 0.000000 0.000000 0.000000 0.030474 0.000000 -0.020403
# 5 -0.004764 0.002105 -0.005870 0.000000 0.040549 0.000000
# 6 0.000000 0.000000 0.000000 -0.020403 0.000000 0.082011
#
#
# Mechanical properties :
#
#
# Convention : Reuss Voigt Hill
#
# Bulk Modulus (GPa) = 36.16135 54.71772 45.43954
# Shear Modulus (GPa) = 25.71565 41.45883 33.58724
#
# Velocity S-wave (km/s) = 3.13392 3.97922 3.58159
# Velocity P-wave (km/s) = 5.18712 6.48154 5.87012
#
# Compressibility (1/GPa) = 0.02765383
#
# Stress axis : x y z
#
# Youngs Moduli (GPa) = 61.28326 197.63922 117.09263
#
# Poissons Ratio (x) = 0.24195 -0.19842
# Poissons Ratio (y) = 0.07502 0.18761
# Poissons Ratio (z) = -0.10385 0.31667
#
# Static dielectric constant tensor:
#      x y z
#    x 2.218750 0.000000 -0.066260 
#    y 0.000000 2.270870 0.000000 
#    z -0.066260 0.000000 1.947330 
# 
# From -- ./inp_files/23460.got.cif
#   From: 2010.05.17/outbox.cif.g08.bks.cpg/sg15_12_cif.got.tgz:23460.got - 2010.06.03 18:47:42.
