data_PCOD9257562
_publ_section_title
;
Structure prediction by ZEFSAII (Michael W. Deem and Ramdas Pophale) SiO2 
 PCOD9257562
Probable space group: C 2/C
;
_chemical_formula_sum "Si O2"
_cell_formula_units_Z 56
_cell_length_a 11.199497
_cell_length_b 14.218943
_cell_length_c 22.275299
_cell_angle_alpha 90.000000
_cell_angle_beta 134.255214
_cell_angle_gamma 90.000000
_cell_volume 2540.662627
_symmetry_space_group_name_H-M "C 2/C"
_symmetry_group_IT_number 15
_symmetry_cell_setting 'monoclinic'
loop_
_space_group_symop_operation_xyz
x,y,z
-x,y,1/2-z
-x,-y,-z
x,-y,1/2+z
1/2+x,1/2+y,z
1/2-x,1/2+y,1/2-z
1/2-x,1/2-y,-z
1/2+x,1/2-y,1/2+z
loop_
_atom_site_type_symbol
_atom_site_label
_atom_site_fract_x
_atom_site_fract_y
_atom_site_fract_z
Si Si1 0.873594 0.625754 0.258449
Si Si2 0.978768 0.374279 0.488491
Si Si3 0.053689 0.165107 0.699023
Si Si4 0.113346 0.562825 0.666130
Si Si5 0.581446 0.653153 0.065299
Si Si6 0.769275 0.362307 0.012241
Si Si7 0.226101 0.137694 0.991907
O O1 0.942420 0.722531 0.310213
O O2 0.860968 0.539865 0.298801
O O3 0.701484 0.650257 0.164599
O O4 0.000000 0.597385 0.250000
O O5 0.871756 0.428188 0.400517
O O6 0.897914 0.399479 0.523456
O O7 0.949009 0.262657 0.464566
O O8 0.167846 0.391893 0.532596
O O9 0.238921 0.125973 0.755227
O O10 0.000000 0.153153 0.750000
O O11 0.576498 0.619617 0.892635
O O12 0.926449 0.605829 0.608411
O O13 0.406402 0.606780 0.022443
O O14 0.674228 0.608792 0.040358
O O15 0.750000 0.250000 0.000000
O O16 0.250000 0.250000 0.000000
#
# Coordination Sequence:
#
# PCOD9257562 Si02
#       7
#     8   8   8   8   8   8   8
#     4  11  22  38  61  94 133 168 215 269 327 388
#     4   8  15  33  59  90 118 158 210 264 323 368
#     4  11  18  38  64  87 125 177 215 269 329 391
#     4  10  20  35  63  93 123 168 213 269 324 385
#     4  10  18  35  62  93 122 164 211 264 323 391
#     4   8  15  33  59  89 122 163 205 254 331 383
#     4  10  18  31  60  94 116 159 220 262 314 385
#
# _framework density 22.041494
#
# number of rings (size 3 to 8) (size 9 to 14) (size 15 to 20)
#    0.857    1.429    2.857    2.571    0.000    1.143 
#    0.000    4.286    0.000   18.857    0.000    0.000 
#    0.000    0.000    0.000    0.000    0.000    0.000 
#
# Total GULP energy -156153.563740 kJ/mol
# GULP energy per Si atom -5576.912991 kJ/mol
# Density = 2.199133 g / cm^3
# Si number density = 22.041494 Si / 1000 Ang^3
#
#
#
# Elastic Constant Matrix: (Units=GPa)
#
#
# Indices 1 2 3 4 5 6 
#
# 1 155.0336 23.6003 44.4695 0.0000 23.6899 0.0000
# 2 23.6003 74.5016 12.6012 0.0000 -6.6602 0.0000
# 3 44.4695 12.6012 108.7807 0.0000 15.8044 0.0000
# 4 0.0000 0.0000 0.0000 22.8683 0.0000 -9.9020
# 5 23.6899 -6.6602 15.8044 0.0000 31.8773 0.0000
# 6 0.0000 0.0000 0.0000 -9.9020 0.0000 15.9020
#
#
#
# Elastic Compliance Matrix: (Units=1/GPa)
#
#
# Indices 1 2 3 4 5 6 
#
# 1 0.008399 -0.002783 -0.002284 0.000000 -0.005690 0.000000
# 2 -0.002783 0.015085 -0.001474 0.000000 0.005951 0.000000
# 3 -0.002284 -0.001474 0.010879 0.000000 -0.004004 0.000000
# 4 0.000000 0.000000 0.000000 0.059872 0.000000 0.037281
# 5 -0.005690 0.005951 -0.004004 0.000000 0.038828 0.000000
# 6 0.000000 0.000000 0.000000 0.037281 0.000000 0.086100
#
#
# Mechanical properties :
#
#
# Convention : Reuss Voigt Hill
#
# Bulk Modulus (GPa) = 46.99219 55.51756 51.25487
# Shear Modulus (GPa) = 20.89090 31.30585 26.09838
#
# Velocity S-wave (km/s) = 3.08197 3.77279 3.44475
# Velocity P-wave (km/s) = 5.83360 6.64989 6.25508
#
# Compressibility (1/GPa) = 0.02128013
#
# Stress axis : x y z
#
# Youngs Moduli (GPa) = 119.06808 66.28904 91.91871
#
# Poissons Ratio (x) = 0.18447 0.20996
# Poissons Ratio (y) = 0.33134 0.13553
# Poissons Ratio (z) = 0.27198 0.09774
#
# Static dielectric constant tensor:
#      x y z
#    x 1.849220 0.000000 0.022600 
#    y 0.000000 1.881020 0.000000 
#    z 0.022600 0.000000 1.847650 
# 
# From -- ./inp_files/311073.got.cif
#   From: 2010.05.17/outbox.cif.g08.bks.cpg/sg15_156_cif.got.tgz:311073.got - 2010.06.03 18:47:42.
