data_PCOD9257938
_publ_section_title
;
Structure prediction by ZEFSAII (Michael W. Deem and Ramdas Pophale) SiO2 
 PCOD9257938
Probable space group: C 2/C
;
_chemical_formula_sum "Si O2"
_cell_formula_units_Z 60
_cell_length_a 30.783979
_cell_length_b 18.709928
_cell_length_c 18.177149
_cell_angle_alpha 90.000000
_cell_angle_beta 19.073240
_cell_angle_gamma 90.000000
_cell_volume 3421.160801
_symmetry_space_group_name_H-M "C 2/C"
_symmetry_group_IT_number 15
_symmetry_cell_setting 'monoclinic'
loop_
_space_group_symop_operation_xyz
x,y,z
-x,y,1/2-z
-x,-y,-z
x,-y,1/2+z
1/2+x,1/2+y,z
1/2-x,1/2+y,1/2-z
1/2-x,1/2-y,-z
1/2+x,1/2-y,1/2+z
loop_
_atom_site_type_symbol
_atom_site_label
_atom_site_fract_x
_atom_site_fract_y
_atom_site_fract_z
Si Si1 0.039204 0.197212 0.945490
Si Si2 0.852909 0.416159 0.224054
Si Si3 0.333961 0.920909 0.743991
Si Si4 0.215540 0.668714 0.030771
Si Si5 0.689018 0.204029 0.321613
Si Si6 0.075151 0.296371 0.501121
Si Si7 0.000000 0.749106 0.750000
Si Si8 0.332757 0.679547 0.389826
O O1 0.164352 0.151745 0.716630
O O2 0.097473 0.257014 0.907397
O O3 0.970043 0.240492 0.990118
O O4 0.927761 0.157635 0.170910
O O5 0.802254 0.495612 0.288914
O O6 0.852509 0.362559 0.155010
O O7 0.766992 0.381038 0.425453
O O8 0.005689 0.417972 0.006113
O O9 0.283964 0.882703 0.899045
O O10 0.286413 0.873961 0.751094
O O11 0.064202 0.673992 0.243289
O O12 0.250000 0.750000 0.000000
O O13 0.821432 0.251959 0.116075
O O14 0.607072 0.205632 0.529347
O O15 0.079308 0.797641 0.680866
O O16 0.250000 0.750000 0.500000
#
# Coordination Sequence:
#
# PCOD9257938 Si02
#       8
#     8   8   8   8   8   8   4   8
#     4  10  19  33  54  81 111 136 191 227 268 313
#     4  10  18  35  55  86 111 140 185 228 277 326
#     4  10  20  33  59  83 111 147 179 229 280 322
#     4   9  17  35  51  77 112 140 184 228 257 331
#     4  11  18  32  54  86 105 147 179 227 278 318
#     4  10  18  32  56  81 107 140 187 228 267 329
#     4  10  20  28  54  84 110 132 190 232 262 322
#     4  11  18  33  57  83 108 144 180 227 274 321
#
# _framework density 17.537908000000002
#
# number of rings (size 3 to 8) (size 9 to 14) (size 15 to 20)
#    0.000    1.867    6.667    0.800    0.000    0.533 
#    0.000    0.667    5.867    8.000    0.000    0.000 
#    0.000    0.000    0.000    0.000    0.000    0.000 
#
# Total GULP energy -167197.019066 kJ/mol
# GULP energy per Si atom -5573.233969 kJ/mol
# Density = 1.749799 g / cm^3
# Si number density = 17.537908 Si / 1000 Ang^3
#
#
#
# Elastic Constant Matrix: (Units=GPa)
#
#
# Indices 1 2 3 4 5 6 
#
# 1 31.5972 8.2854 8.8561 -0.0001 0.9685 0.0001
# 2 8.2854 97.9115 39.2464 0.0004 12.0785 0.0000
# 3 8.8561 39.2464 117.3508 0.0008 38.0944 -0.0001
# 4 -0.0001 0.0004 0.0008 19.7577 -0.0002 1.3334
# 5 0.9685 12.0785 38.0944 -0.0002 33.2704 -0.0001
# 6 0.0001 0.0000 -0.0001 1.3334 -0.0001 23.4392
#
#
#
# Elastic Compliance Matrix: (Units=1/GPa)
#
#
# Indices 1 2 3 4 5 6 
#
# 1 0.032864 -0.002041 -0.002750 0.000000 0.002932 0.000000
# 2 -0.002041 0.011924 -0.003896 0.000000 0.000191 0.000000
# 3 -0.002750 -0.003896 0.015194 -0.000001 -0.015903 0.000000
# 4 0.000000 0.000000 -0.000001 0.050808 0.000001 -0.002890
# 5 0.002932 0.000191 -0.015903 0.000001 0.048111 0.000000
# 6 0.000000 0.000000 0.000000 -0.002890 0.000000 0.042828
#
#
# Mechanical properties :
#
#
# Convention : Reuss Voigt Hill
#
# Bulk Modulus (GPa) = 23.46854 39.95946 31.71400
# Shear Modulus (GPa) = 21.43114 27.99157 24.71136
#
# Velocity S-wave (km/s) = 3.49949 3.99941 3.75777
# Velocity P-wave (km/s) = 5.45337 6.64538 6.07866
#
# Compressibility (1/GPa) = 0.04261024
#
# Stress axis : x y z
#
# Youngs Moduli (GPa) = 30.42819 83.86437 65.81394
#
# Poissons Ratio (x) = 0.17113 0.18096
# Poissons Ratio (y) = 0.06209 0.25641
# Poissons Ratio (z) = 0.08367 0.32673
#
# Static dielectric constant tensor:
#      x y z
#    x 1.603320 0.000000 0.022010 
#    y 0.000000 1.580920 0.000000 
#    z 0.022010 0.000000 1.665240 
# 
# From -- ./inp_files/225765.got.cif
#   From: 2010.05.17/outbox.cif.g08.bks.cpg/sg15_113_cif.got.tgz:225765.got - 2010.06.03 18:47:42.
