data_PCOD9257936
_publ_section_title
;
Structure prediction by ZEFSAII (Michael W. Deem and Ramdas Pophale) SiO2 
 PCOD9257936
Probable space group: C 2/C
;
_chemical_formula_sum "Si O2"
_cell_formula_units_Z 44
_cell_length_a 24.563296
_cell_length_b 8.786653
_cell_length_c 12.670373
_cell_angle_alpha 90.000000
_cell_angle_beta 37.879665
_cell_angle_gamma 90.000000
_cell_volume 1679.080430
_symmetry_space_group_name_H-M "C 2/C"
_symmetry_group_IT_number 15
_symmetry_cell_setting 'monoclinic'
loop_
_space_group_symop_operation_xyz
x,y,z
-x,y,1/2-z
-x,-y,-z
x,-y,1/2+z
1/2+x,1/2+y,z
1/2-x,1/2+y,1/2-z
1/2-x,1/2-y,-z
1/2+x,1/2-y,1/2+z
loop_
_atom_site_type_symbol
_atom_site_label
_atom_site_fract_x
_atom_site_fract_y
_atom_site_fract_z
Si Si1 0.636002 0.255483 0.415093
Si Si2 0.500000 0.045865 0.750000
Si Si3 0.088330 0.555894 0.306662
Si Si4 0.680651 0.261146 0.936361
Si Si5 0.767631 0.014642 0.959093
Si Si6 0.910405 0.929325 0.585510
O O1 0.570142 0.156703 0.586207
O O2 0.613747 0.207196 0.328547
O O3 0.737170 0.206915 0.270456
O O4 0.620527 0.433337 0.444622
O O5 0.445827 0.936238 0.758209
O O6 0.179568 0.458272 0.157934
O O7 0.000000 0.500000 0.500000
O O8 0.683249 0.379630 0.029635
O O9 0.598173 0.285096 0.981467
O O10 0.721528 0.112444 0.934243
O O11 0.842287 0.914437 0.788382
O O12 0.000000 0.000000 0.500000
#
# Coordination Sequence:
#
# PCOD9257936 Si02
#       6
#     8   4   8   8   8   8
#     4   9  20  37  55  85 118 153 204 250 300 372
#     4  10  18  32  56  80 116 156 192 252 308 352
#     4   9  18  34  60  87 112 151 204 251 298 360
#     4   9  19  38  60  81 116 163 204 246 304 370
#     4   9  19  38  60  84 119 162 205 248 301 367
#     4  11  23  37  59  92 126 160 204 259 317 371
#
# _framework density 26.204819000000001
#
# number of rings (size 3 to 8) (size 9 to 14) (size 15 to 20)
#    0.000    2.545    0.000    2.182    0.000    3.636 
#    0.000   10.909    0.000   16.364    0.000    0.000 
#    0.000    0.000    0.000    0.000    0.000    0.000 
#
# Total GULP energy -122563.878436 kJ/mol
# GULP energy per Si atom -5571.085383 kJ/mol
# Density = 2.614518 g / cm^3
# Si number density = 26.204819 Si / 1000 Ang^3
#
#
#
# Elastic Constant Matrix: (Units=GPa)
#
#
# Indices 1 2 3 4 5 6 
#
# 1 90.4846 21.0411 35.8150 0.0000 3.0886 0.0000
# 2 21.0411 59.3428 16.3946 0.0000 1.0254 0.0000
# 3 35.8150 16.3946 155.8983 0.0000 -15.5670 0.0000
# 4 0.0000 0.0000 0.0000 30.3078 0.0000 9.0937
# 5 3.0886 1.0254 -15.5670 0.0000 26.4242 0.0000
# 6 0.0000 0.0000 0.0000 9.0937 0.0000 36.4236
#
#
#
# Elastic Compliance Matrix: (Units=1/GPa)
#
#
# Indices 1 2 3 4 5 6 
#
# 1 0.013212 -0.003816 -0.002947 0.000000 -0.003132 0.000000
# 2 -0.003816 0.018544 -0.001169 0.000000 -0.000963 0.000000
# 3 -0.002947 -0.001169 0.007707 0.000000 0.004930 0.000000
# 4 0.000000 0.000000 0.000000 0.035667 0.000000 -0.008905
# 5 -0.003132 -0.000963 0.004930 0.000000 0.041152 0.000000
# 6 0.000000 0.000000 0.000000 -0.008905 0.000000 0.029678
#
#
# Mechanical properties :
#
#
# Convention : Reuss Voigt Hill
#
# Bulk Modulus (GPa) = 42.37680 50.24746 46.31213
# Shear Modulus (GPa) = 29.46536 34.12946 31.79741
#
# Velocity S-wave (km/s) = 3.35688 3.61281 3.48719
# Velocity P-wave (km/s) = 5.58850 6.05142 5.82456
#
# Compressibility (1/GPa) = 0.02359782
#
# Stress axis : x y z
#
# Youngs Moduli (GPa) = 75.68679 53.92530 129.75800
#
# Poissons Ratio (x) = 0.20580 0.38236
# Poissons Ratio (y) = 0.28886 0.15175
# Poissons Ratio (z) = 0.22303 0.06306
#
# Static dielectric constant tensor:
#      x y z
#    x 2.088600 0.000000 -0.019000 
#    y 0.000000 2.067480 0.000000 
#    z -0.019000 0.000000 2.236680 
# 
# From -- ./inp_files/117890.got.cif
#   From: 2010.05.17/outbox.cif.g08.bks.cpg/sg15_59_cif.got.tgz:117890.got - 2010.06.03 18:47:42.
