data_PCOD9257325
_publ_section_title
;
Structure prediction by ZEFSAII (Michael W. Deem and Ramdas Pophale) SiO2 
 PCOD9257325
Probable space group: C 2/C
;
_chemical_formula_sum "Si O2"
_cell_formula_units_Z 48
_cell_length_a 18.110297
_cell_length_b 14.187800
_cell_length_c 19.674506
_cell_angle_alpha 90.000000
_cell_angle_beta 29.269857
_cell_angle_gamma 90.000000
_cell_volume 2471.641404
_symmetry_space_group_name_H-M "C 2/C"
_symmetry_group_IT_number 15
_symmetry_cell_setting 'monoclinic'
loop_
_space_group_symop_operation_xyz
x,y,z
-x,y,1/2-z
-x,-y,-z
x,-y,1/2+z
1/2+x,1/2+y,z
1/2-x,1/2+y,1/2-z
1/2-x,1/2-y,-z
1/2+x,1/2-y,1/2+z
loop_
_atom_site_type_symbol
_atom_site_label
_atom_site_fract_x
_atom_site_fract_y
_atom_site_fract_z
Si Si1 0.873649 0.158525 0.710902
Si Si2 0.477297 0.070533 0.104788
Si Si3 0.312216 0.265972 0.754752
Si Si4 0.641422 0.534689 0.343715
Si Si5 0.162454 0.265425 0.501130
Si Si6 0.564623 0.869997 0.019339
O O1 0.807158 0.214997 0.699644
O O2 0.781578 0.201596 0.848256
O O3 0.053005 0.177876 0.571045
O O4 0.840606 0.047781 0.726928
O O5 0.302120 0.042275 0.253082
O O6 0.486131 0.111829 0.019721
O O7 0.539883 0.150351 0.103080
O O8 0.573632 0.976308 0.037233
O O9 0.382595 0.359648 0.664000
O O10 0.440945 0.188887 0.659259
O O11 0.216103 0.309114 0.893310
O O12 0.500000 0.500000 0.500000
O O13 0.250000 0.250000 0.500000
#
# Coordination Sequence:
#
# PCOD9257325 Si02
#       6
#     8   8   8   8   8   8
#     4  12  21  37  54  80 119 150 203 243 294 362
#     4  10  19  34  52  75 110 152 193 229 300 352
#     4  11  18  30  52  77 109 141 179 233 305 349
#     4  11  21  31  54  83 112 147 188 252 303 360
#     4  12  24  38  55  78 116 168 202 239 289 360
#     4  10  18  31  51  77 109 145 177 235 295 359
#
# _framework density 19.420293000000001
#
# number of rings (size 3 to 8) (size 9 to 14) (size 15 to 20)
#    0.000    1.000    6.667    4.500    0.000    0.000 
#    0.000    0.000    0.000    0.000    0.000    1.167 
#    0.000    6.000    0.000    0.667    0.000    0.333 
#
# Total GULP energy -133895.689652 kJ/mol
# GULP energy per Si atom -5578.987069 kJ/mol
# Density = 1.937609 g / cm^3
# Si number density = 19.420293 Si / 1000 Ang^3
#
#
#
# Elastic Constant Matrix: (Units=GPa)
#
#
# Indices 1 2 3 4 5 6 
#
# 1 34.4342 12.0823 12.7208 0.0001 -13.8315 0.0000
# 2 12.0823 113.4659 9.5016 -0.0004 -10.8163 -0.0001
# 3 12.7208 9.5016 99.9089 -0.0009 -7.4925 -0.0001
# 4 0.0001 -0.0004 -0.0009 42.4407 -0.0001 -4.4884
# 5 -13.8315 -10.8163 -7.4925 -0.0001 12.5965 0.0002
# 6 0.0000 -0.0001 -0.0001 -4.4884 0.0002 12.4603
#
#
#
# Elastic Compliance Matrix: (Units=1/GPa)
#
#
# Indices 1 2 3 4 5 6 
#
# 1 0.052535 -0.000031 -0.002472 0.000000 0.056188 -0.000001
# 2 -0.000031 0.009608 -0.000307 0.000000 0.008033 0.000000
# 3 -0.002472 -0.000307 0.010603 0.000000 0.003328 0.000000
# 4 0.000000 0.000000 0.000000 0.024495 0.000000 0.008824
# 5 0.056188 0.008033 0.003328 0.000000 0.149962 -0.000002
# 6 -0.000001 0.000000 0.000000 0.008824 -0.000002 0.083433
#
#
# Mechanical properties :
#
#
# Convention : Reuss Voigt Hill
#
# Bulk Modulus (GPa) = 14.89768 35.15759 25.02763
# Shear Modulus (GPa) = 13.94187 27.73313 20.83750
#
# Velocity S-wave (km/s) = 2.68228 3.78305 3.27918
# Velocity P-wave (km/s) = 4.15700 6.10121 5.22042
#
# Compressibility (1/GPa) = 0.06712455
#
# Stress axis : x y z
#
# Youngs Moduli (GPa) = 19.03500 104.07948 94.31555
#
# Poissons Ratio (x) = 0.00321 0.23317
# Poissons Ratio (y) = 0.00059 0.02899
# Poissons Ratio (z) = 0.04706 0.03199
#
# Static dielectric constant tensor:
#      x y z
#    x 1.650700 0.000000 0.001370 
#    y 0.000000 1.723640 0.000000 
#    z 0.001370 0.000000 1.770500 
# 
# From -- ./inp_files/248940.got.cif
#   From: 2010.05.17/outbox.cif.g08.bks.cpg/sg15_125_cif.got.tgz:248940.got - 2010.06.03 18:47:42.
