data_PCOD9257034
_publ_section_title
;
Structure prediction by ZEFSAII (Michael W. Deem and Ramdas Pophale) SiO2 
 PCOD9257034
Probable space group: C 2/C
;
_chemical_formula_sum "Si O2"
_cell_formula_units_Z 44
_cell_length_a 23.120022
_cell_length_b 17.006281
_cell_length_c 5.256586
_cell_angle_alpha 90.000000
_cell_angle_beta 106.257489
_cell_angle_gamma 90.000000
_cell_volume 1984.168745
_symmetry_space_group_name_H-M "C 2/C"
_symmetry_group_IT_number 15
_symmetry_cell_setting 'monoclinic'
loop_
_space_group_symop_operation_xyz
x,y,z
-x,y,1/2-z
-x,-y,-z
x,-y,1/2+z
1/2+x,1/2+y,z
1/2-x,1/2+y,1/2-z
1/2-x,1/2-y,-z
1/2+x,1/2-y,1/2+z
loop_
_atom_site_type_symbol
_atom_site_label
_atom_site_fract_x
_atom_site_fract_y
_atom_site_fract_z
Si Si1 0.868004 0.318256 0.108335
Si Si2 0.000000 0.717426 0.750000
Si Si3 0.957331 0.864166 0.001596
Si Si4 0.243745 0.838386 0.878157
Si Si5 0.135366 0.052073 0.411779
Si Si6 0.346266 0.282070 0.084852
O O1 0.810621 0.374416 0.984582
O O2 0.856969 0.254122 0.871368
O O3 0.858291 0.283428 0.379375
O O4 0.939109 0.333983 0.162121
O O5 0.012084 0.781168 0.540087
O O6 0.000000 0.909261 0.250000
O O7 0.928726 0.904525 0.717985
O O8 0.897722 0.844472 0.088953
O O9 0.191872 0.888727 0.948992
O O10 0.217489 0.822386 0.562685
O O11 0.250000 0.750000 0.000000
O O12 0.139412 0.008046 0.681559
#
# Coordination Sequence:
#
# PCOD9257034 Si02
#       6
#     8   4   8   8   8   8
#     4  10  18  30  51  81 110 140 176 243 294 326
#     4  10  20  32  54  88 122 144 200 244 286 346
#     4  10  20  34  55  73 117 163 198 230 274 340
#     4   9  20  38  63  84 108 149 202 248 294 341
#     4  11  27  43  58  85 121 157 201 246 291 349
#     4   9  18  30  49  79 106 139 186 239 281 319
#
# _framework density 22.175530999999999
#
# number of rings (size 3 to 8) (size 9 to 14) (size 15 to 20)
#    0.000    2.182    1.818    1.636    2.545   10.909 
#    0.000    0.000    0.000    0.000    0.000    1.273 
#    0.000    0.000    0.000    0.000    0.000    0.000 
#
# Total GULP energy -122667.976849 kJ/mol
# GULP energy per Si atom -5575.817130 kJ/mol
# Density = 2.212506 g / cm^3
# Si number density = 22.175531 Si / 1000 Ang^3
#
#
#
# Elastic Constant Matrix: (Units=GPa)
#
#
# Indices 1 2 3 4 5 6 
#
# 1 136.9487 1.5004 27.0235 0.0000 46.5178 0.0000
# 2 1.5004 16.7374 10.6413 0.0000 3.4705 0.0000
# 3 27.0235 10.6413 92.3189 0.0000 2.6831 0.0000
# 4 0.0000 0.0000 0.0000 22.8946 0.0000 -4.2240
# 5 46.5178 3.4705 2.6831 0.0000 52.8595 0.0000
# 6 0.0000 0.0000 0.0000 -4.2240 0.0000 26.6805
#
#
#
# Elastic Compliance Matrix: (Units=1/GPa)
#
#
# Indices 1 2 3 4 5 6 
#
# 1 0.011341 0.003222 -0.003400 0.000000 -0.010019 0.000000
# 2 0.003222 0.066184 -0.008376 0.000000 -0.006756 0.000000
# 3 -0.003400 -0.008376 0.012708 0.000000 0.002897 0.000000
# 4 0.000000 0.000000 0.000000 0.044993 0.000000 0.007123
# 5 -0.010019 -0.006756 0.002897 0.000000 0.028032 0.000000
# 6 0.000000 0.000000 0.000000 0.007123 0.000000 0.038608
#
#
# Mechanical properties :
#
#
# Convention : Reuss Voigt Hill
#
# Bulk Modulus (GPa) = 13.67491 36.03727 24.85609
# Shear Modulus (GPa) = 20.54674 34.27624 27.41149
#
# Velocity S-wave (km/s) = 3.04723 3.93578 3.51966
# Velocity P-wave (km/s) = 4.30823 6.07783 5.26787
#
# Compressibility (1/GPa) = 0.07312663
#
# Stress axis : x y z
#
# Youngs Moduli (GPa) = 88.17665 15.10948 78.68755
#
# Poissons Ratio (x) = -0.04869 0.26753
# Poissons Ratio (y) = -0.28415 0.65906
# Poissons Ratio (z) = 0.29979 0.12655
#
# Static dielectric constant tensor:
#      x y z
#    x 1.967320 0.000000 0.012590 
#    y 0.000000 1.820500 0.000000 
#    z 0.012590 0.000000 1.881250 
# 
# From -- ./inp_files/13090.got.cif
#   From: 2010.05.17/outbox.cif.g08.bks.cpg/sg15_7_cif.got.tgz:13090.got - 2010.06.03 18:47:42.
