data_PCOD9257462
_publ_section_title
;
Structure prediction by ZEFSAII (Michael W. Deem and Ramdas Pophale) SiO2 
 PCOD9257462
Probable space group: C 2/C
;
_chemical_formula_sum "Si O2"
_cell_formula_units_Z 52
_cell_length_a 8.777346
_cell_length_b 16.771394
_cell_length_c 28.033369
_cell_angle_alpha 90.000000
_cell_angle_beta 36.701743
_cell_angle_gamma 90.000000
_cell_volume 2466.347468
_symmetry_space_group_name_H-M "C 2/C"
_symmetry_group_IT_number 15
_symmetry_cell_setting 'monoclinic'
loop_
_space_group_symop_operation_xyz
x,y,z
-x,y,1/2-z
-x,-y,-z
x,-y,1/2+z
1/2+x,1/2+y,z
1/2-x,1/2+y,1/2-z
1/2-x,1/2-y,-z
1/2+x,1/2-y,1/2+z
loop_
_atom_site_type_symbol
_atom_site_label
_atom_site_fract_x
_atom_site_fract_y
_atom_site_fract_z
Si Si1 0.287321 0.910682 0.116008
Si Si2 0.500000 0.784065 0.250000
Si Si3 0.319200 0.357152 0.955070
Si Si4 0.543692 0.288818 0.988246
Si Si5 0.379737 0.659723 0.208388
Si Si6 0.000000 0.224593 0.750000
Si Si7 0.000000 0.961462 0.750000
Si Si8 0.529763 0.337629 0.097711
O O1 0.182055 0.833106 0.172392
O O2 0.184738 0.904381 0.087506
O O3 0.171775 0.984287 0.173069
O O4 0.591218 0.907343 0.035326
O O5 0.551188 0.725031 0.193103
O O6 0.753321 0.834615 0.191341
O O7 0.170856 0.278541 0.970914
O O8 0.472415 0.385153 0.870683
O O9 0.522930 0.339551 0.945396
O O10 0.500579 0.338045 0.047871
O O11 0.808078 0.242260 0.930619
O O12 0.162525 0.715576 0.241637
O O13 0.318760 0.594855 0.263628
#
# Coordination Sequence:
#
# PCOD9257462 Si02
#       8
#     8   4   8   8   8   4   4   8
#     4  10  22  40  63  89 121 162 201 252 299 369
#     4  11  20  31  53  94 115 160 192 245 286 357
#     4  10  19  34  60  87 123 155 203 247 307 351
#     4   9  18  31  52  94 121 145 189 264 300 345
#     4  11  22  38  61  88 125 161 200 251 303 363
#     4  11  20  37  65  93 122 154 206 253 302 349
#     4  10  26  44  58  85 127 164 202 244 320 364
#     4  10  18  31  54  86 126 148 196 243 301 348
#
# _framework density 21.08381
#
# number of rings (size 3 to 8) (size 9 to 14) (size 15 to 20)
#    0.000    1.846    3.077    2.769    0.000    0.615 
#    0.000    2.308    0.000    1.846    0.000    0.000 
#    0.000    0.000    0.000    0.000    0.000    0.000 
#
# Total GULP energy -144945.794548 kJ/mol
# GULP energy per Si atom -5574.838252 kJ/mol
# Density = 2.103582 g / cm^3
# Si number density = 21.083810 Si / 1000 Ang^3
#
#
#
# Elastic Constant Matrix: (Units=GPa)
#
#
# Indices 1 2 3 4 5 6 
#
# 1 123.7385 27.5750 24.6302 -0.0056 14.9155 0.0011
# 2 27.5750 53.6212 0.3314 -0.0186 4.8913 -0.0012
# 3 24.6302 0.3314 57.1599 -0.0557 7.5428 0.0045
# 4 -0.0056 -0.0186 -0.0557 17.5951 0.0055 11.1266
# 5 14.9155 4.8913 7.5428 0.0055 31.4319 -0.0050
# 6 0.0011 -0.0012 0.0045 11.1266 -0.0050 16.2314
#
#
#
# Elastic Compliance Matrix: (Units=1/GPa)
#
#
# Indices 1 2 3 4 5 6 
#
# 1 0.010387 -0.005026 -0.004027 -0.000023 -0.003180 0.000015
# 2 -0.005026 0.021355 0.002237 0.000049 -0.001475 -0.000033
# 3 -0.004027 0.002237 0.019633 0.000120 -0.003149 -0.000088
# 4 -0.000023 0.000049 0.000120 0.100323 -0.000054 -0.068771
# 5 -0.003180 -0.001475 -0.003149 -0.000054 0.034309 0.000049
# 6 0.000015 -0.000033 -0.000088 -0.068771 0.000049 0.108751
#
#
# Mechanical properties :
#
#
# Convention : Reuss Voigt Hill
#
# Bulk Modulus (GPa) = 26.49631 37.73254 32.11443
# Shear Modulus (GPa) = 15.57775 25.18389 20.38082
#
# Velocity S-wave (km/s) = 2.72113 3.45985 3.11248
# Velocity P-wave (km/s) = 4.73995 5.82203 5.30864
#
# Compressibility (1/GPa) = 0.03774110
#
# Stress axis : x y z
#
# Youngs Moduli (GPa) = 96.27823 46.82773 50.93583
#
# Poissons Ratio (x) = 0.23537 0.20511
# Poissons Ratio (y) = 0.48393 -0.11393
# Poissons Ratio (z) = 0.38769 -0.10474
#
# Static dielectric constant tensor:
#      x y z
#    x 1.801010 0.000000 0.025490 
#    y 0.000000 1.769970 0.000000 
#    z 0.025490 0.000000 1.784560 
# 
# From -- ./inp_files/308509.got.cif
#   From: 2010.05.17/outbox.cif.g08.bks.cpg/sg15_155_cif.got.tgz:308509.got - 2010.06.03 18:47:42.
