data_PCOD9257312
_publ_section_title
;
Structure prediction by ZEFSAII (Michael W. Deem and Ramdas Pophale) SiO2 
 PCOD9257312
Probable space group: C 2/C
;
_chemical_formula_sum "Si O2"
_cell_formula_units_Z 40
_cell_length_a 24.060585
_cell_length_b 15.729158
_cell_length_c 11.531774
_cell_angle_alpha 90.000000
_cell_angle_beta 19.580005
_cell_angle_gamma 90.000000
_cell_volume 1462.553444
_symmetry_space_group_name_H-M "C 2/C"
_symmetry_group_IT_number 15
_symmetry_cell_setting 'monoclinic'
loop_
_space_group_symop_operation_xyz
x,y,z
-x,y,1/2-z
-x,-y,-z
x,-y,1/2+z
1/2+x,1/2+y,z
1/2-x,1/2+y,1/2-z
1/2-x,1/2-y,-z
1/2+x,1/2-y,1/2+z
loop_
_atom_site_type_symbol
_atom_site_label
_atom_site_fract_x
_atom_site_fract_y
_atom_site_fract_z
Si Si1 0.827308 0.684031 0.256141
Si Si2 0.755447 0.929820 0.268401
Si Si3 0.954152 0.589418 0.530854
Si Si4 0.965465 0.901430 0.056984
Si Si5 0.323190 0.368005 0.661917
O O1 0.750000 0.750000 0.500000
O O2 0.009720 0.658020 0.939527
O O3 0.701625 0.608008 0.537318
O O4 0.797611 0.691308 0.177316
O O5 0.711033 0.911828 0.222186
O O6 0.599351 0.897636 0.650566
O O7 0.909465 0.887990 0.034592
O O8 0.765751 0.032868 0.265032
O O9 0.000000 0.500000 0.500000
O O10 0.114462 0.852745 0.828879
O O11 0.000000 0.000000 0.000000
O O12 0.500000 0.359199 0.250000
#
# Coordination Sequence:
#
# PCOD9257312 Si02
#       5
#     8   8   8   8   8
#     4  10  19  31  48  79 109 135 172 223 279 325
#     4   9  17  30  50  77 103 136 187 224 273 318
#     4  10  18  31  51  75 111 140 179 233 275 329
#     4   8  16  31  48  69  97 136 179 218 254 319
#     4   9  16  30  50  73 105 138 176 225 271 320
#
# _framework density 27.349428
#
# number of rings (size 3 to 8) (size 9 to 14) (size 15 to 20)
#    0.000    2.800    2.000    0.000    0.000    0.000 
#   21.600    0.000    0.000    0.000    0.000   64.400 
#    0.000    0.000    0.000    0.000    0.000    0.000 
#
# Total GULP energy -111551.307317 kJ/mol
# GULP energy per Si atom -5577.565366 kJ/mol
# Density = 2.728718 g / cm^3
# Si number density = 27.349428 Si / 1000 Ang^3
#
#
#
# Elastic Constant Matrix: (Units=GPa)
#
#
# Indices 1 2 3 4 5 6 
#
# 1 293.3227 32.7742 77.7744 -0.0005 -85.9578 0.0002
# 2 32.7742 50.4442 11.4314 -0.0009 -21.4338 0.0006
# 3 77.7744 11.4314 98.0854 -0.0011 -43.3302 0.0009
# 4 -0.0005 -0.0009 -0.0011 25.3770 0.0006 4.8267
# 5 -85.9578 -21.4338 -43.3302 0.0006 87.8196 -0.0006
# 6 0.0002 0.0006 0.0009 4.8267 -0.0006 33.7954
#
#
#
# Elastic Compliance Matrix: (Units=1/GPa)
#
#
# Indices 1 2 3 4 5 6 
#
# 1 0.005263 -0.001327 -0.002411 0.000000 0.003638 0.000000
# 2 -0.001327 0.022457 0.000361 0.000001 0.004360 0.000000
# 3 -0.002411 0.000361 0.014144 0.000001 0.004707 0.000000
# 4 0.000000 0.000001 0.000001 0.040506 0.000000 -0.005785
# 5 0.003638 0.004360 0.004707 0.000000 0.018334 0.000000
# 6 0.000000 0.000000 0.000000 -0.005785 0.000000 0.030416
#
#
# Mechanical properties :
#
#
# Convention : Reuss Voigt Hill
#
# Bulk Modulus (GPa) = 28.48237 76.20136 52.34187
# Shear Modulus (GPa) = 33.42730 50.72322 42.07526
#
# Velocity S-wave (km/s) = 3.49983 4.31122 3.92654
# Velocity P-wave (km/s) = 5.17384 7.25981 6.30371
#
# Compressibility (1/GPa) = 0.03510943
#
# Stress axis : x y z
#
# Youngs Moduli (GPa) = 190.00927 44.52954 70.69918
#
# Poissons Ratio (x) = 0.05910 0.17049
# Poissons Ratio (y) = 0.25220 -0.02554
# Poissons Ratio (z) = 0.45820 -0.01609
#
# Static dielectric constant tensor:
#      x y z
#    x 2.006540 0.000010 -0.909100 
#    y 0.000010 2.259740 0.000040 
#    z -0.909100 0.000040 -0.400990 
# 
# From -- ./inp_files/86642.got.cif
#   From: 2010.05.17/outbox.cif.g08.bks.cpg/sg15_44_cif.got.tgz:86642.got - 2010.06.03 18:47:42.
