data_PCOD9257632
_publ_section_title
;
Structure prediction by ZEFSAII (Michael W. Deem and Ramdas Pophale) SiO2 
 PCOD9257632
Probable space group: C 2/C
;
_chemical_formula_sum "Si O2"
_cell_formula_units_Z 56
_cell_length_a 21.117730
_cell_length_b 18.532830
_cell_length_c 18.219104
_cell_angle_alpha 90.000000
_cell_angle_beta 151.807365
_cell_angle_gamma 90.000000
_cell_volume 3368.684433
_symmetry_space_group_name_H-M "C 2/C"
_symmetry_group_IT_number 15
_symmetry_cell_setting 'monoclinic'
loop_
_space_group_symop_operation_xyz
x,y,z
-x,y,1/2-z
-x,-y,-z
x,-y,1/2+z
1/2+x,1/2+y,z
1/2-x,1/2+y,1/2-z
1/2-x,1/2-y,-z
1/2+x,1/2-y,1/2+z
loop_
_atom_site_type_symbol
_atom_site_label
_atom_site_fract_x
_atom_site_fract_y
_atom_site_fract_z
Si Si1 0.719679 0.334832 0.104052
Si Si2 0.000000 0.367003 0.750000
Si Si3 0.496823 0.246073 0.122370
Si Si4 0.553262 0.735817 0.228302
Si Si5 0.237285 0.167609 0.792449
Si Si6 0.000000 0.859203 0.250000
Si Si7 0.653623 0.412959 0.894751
Si Si8 0.242497 0.056631 0.924888
O O1 0.847805 0.286506 0.214468
O O2 0.728314 0.352348 0.198223
O O3 0.579755 0.291615 0.948678
O O4 0.714377 0.398395 0.037622
O O5 0.045804 0.316028 0.729028
O O6 0.879407 0.415482 0.599365
O O7 0.613653 0.281345 0.192523
O O8 0.452574 0.308769 0.134048
O O9 0.373146 0.211706 0.951411
O O10 0.500000 0.770343 0.250000
O O11 0.637476 0.665118 0.339841
O O12 0.234369 0.094108 0.837104
O O13 0.877886 0.906746 0.153035
O O14 0.500000 0.437197 0.750000
O O15 0.727140 0.471315 0.919940
#
# Coordination Sequence:
#
# PCOD9257632 Si02
#       8
#     8   4   8   8   8   4   8   8
#     4  10  19  34  54  78 101 127 162 210 254 288
#     4   9  18  30  48  72 101 132 170 210 233 290
#     4   9  17  30  48  76 102 128 168 206 245 288
#     4   9  18  34  55  78  97 124 169 208 243 291
#     4  10  19  30  52  76 106 129 158 205 258 294
#     4   9  16  28  54  72  93 138 174 198 237 296
#     4   9  18  34  53  71  97 132 172 208 232 293
#     4  10  18  32  50  72 101 135 170 199 245 293
#
# _framework density 16.623701000000001
#
# number of rings (size 3 to 8) (size 9 to 14) (size 15 to 20)
#    0.000    2.857    0.714    3.429    0.000    3.429 
#    3.857    2.857    6.286    1.714    0.000    0.000 
#    0.000    0.000    0.000    0.000    0.000    0.000 
#
# Total GULP energy -155924.466258 kJ/mol
# GULP energy per Si atom -5568.730938 kJ/mol
# Density = 1.658587 g / cm^3
# Si number density = 16.623701 Si / 1000 Ang^3
#
#
#
# Elastic Constant Matrix: (Units=GPa)
#
#
# Indices 1 2 3 4 5 6 
#
# 1 106.7112 45.5908 53.2695 -0.0001 -11.5117 -0.0001
# 2 45.5908 51.8857 19.5957 -0.0001 3.0737 -0.0002
# 3 53.2695 19.5957 73.1341 -0.0004 -12.6001 -0.0006
# 4 -0.0001 -0.0001 -0.0004 6.4367 -0.0005 6.6853
# 5 -11.5117 3.0737 -12.6001 -0.0005 19.5825 -0.0004
# 6 -0.0001 -0.0002 -0.0006 6.6853 -0.0004 15.2424
#
#
#
# Elastic Compliance Matrix: (Units=1/GPa)
#
#
# Indices 1 2 3 4 5 6 
#
# 1 0.022629 -0.016459 -0.010500 0.000001 0.009131 -0.000001
# 2 -0.016459 0.034573 0.000139 -0.000001 -0.015013 0.000001
# 3 -0.010500 0.000139 0.022737 0.000002 0.008436 0.000000
# 4 0.000001 -0.000001 0.000002 0.285340 0.000006 -0.125149
# 5 0.009131 -0.015013 0.008436 0.000006 0.064218 -0.000001
# 6 -0.000001 0.000001 0.000000 -0.125149 -0.000001 0.120496
#
#
# Mechanical properties :
#
#
# Convention : Reuss Voigt Hill
#
# Bulk Modulus (GPa) = 38.02442 52.07143 45.04793
# Shear Modulus (GPa) = 8.16458 15.80399 11.98429
#
# Velocity S-wave (km/s) = 2.21857 3.08667 2.68790
# Velocity P-wave (km/s) = 5.43011 6.64041 6.06552
#
# Compressibility (1/GPa) = 0.02629889
#
# Stress axis : x y z
#
# Youngs Moduli (GPa) = 44.19017 28.92457 43.98026
#
# Poissons Ratio (x) = 0.47608 0.46177
# Poissons Ratio (y) = 0.72735 -0.00610
# Poissons Ratio (z) = 0.46398 -0.00401
#
# Static dielectric constant tensor:
#      x y z
#    x 1.560200 0.000000 0.006540 
#    y 0.000000 1.571020 0.000000 
#    z 0.006540 0.000000 1.580040 
# 
# From -- ./inp_files/216047.got.cif
#   From: 2010.05.17/outbox.cif.g08.bks.cpg/sg15_109_cif.got.tgz:216047.got - 2010.06.03 18:47:42.
