data_PCOD9257694
_publ_section_title
;
Structure prediction by ZEFSAII (Michael W. Deem and Ramdas Pophale) SiO2 
 PCOD9257694
Probable space group: C 2/C
;
_chemical_formula_sum "Si O2"
_cell_formula_units_Z 64
_cell_length_a 30.461765
_cell_length_b 11.444043
_cell_length_c 25.095896
_cell_angle_alpha 90.000000
_cell_angle_beta 23.348267
_cell_angle_gamma 90.000000
_cell_volume 3467.226626
_symmetry_space_group_name_H-M "C 2/C"
_symmetry_group_IT_number 15
_symmetry_cell_setting 'monoclinic'
loop_
_space_group_symop_operation_xyz
x,y,z
-x,y,1/2-z
-x,-y,-z
x,-y,1/2+z
1/2+x,1/2+y,z
1/2-x,1/2+y,1/2-z
1/2-x,1/2-y,-z
1/2+x,1/2-y,1/2+z
loop_
_atom_site_type_symbol
_atom_site_label
_atom_site_fract_x
_atom_site_fract_y
_atom_site_fract_z
Si Si1 0.663345 0.690057 0.197036
Si Si2 0.616813 0.498635 0.338780
Si Si3 0.999489 0.651919 0.564042
Si Si4 0.150846 0.813068 0.458089
Si Si5 0.972773 0.617339 0.083249
Si Si6 0.495989 0.658340 0.613504
Si Si7 0.034002 0.960117 0.773010
Si Si8 0.230356 0.041568 0.318085
O O1 0.627916 0.603411 0.284608
O O2 0.587957 0.803270 0.294242
O O3 0.786871 0.731754 0.069529
O O4 0.642552 0.616084 0.166833
O O5 0.500000 0.500000 0.500000
O O6 0.598908 0.384978 0.322489
O O7 0.712052 0.513444 0.276110
O O8 0.104064 0.732257 0.462973
O O9 0.970123 0.669750 0.534134
O O10 0.015228 0.512743 0.548776
O O11 0.054958 0.884763 0.594279
O O12 0.227038 0.914656 0.349379
O O13 0.843918 0.602184 0.209186
O O14 0.992177 0.703407 0.110810
O O15 0.466609 0.589089 0.700255
O O16 0.619162 0.612301 0.459635
O O17 0.000000 0.963265 0.750000
#
# Coordination Sequence:
#
# PCOD9257694 Si02
#       8
#     8   8   8   8   8   8   8   8
#     4  10  18  33  52  76 107 135 174 221 268 311
#     4   9  16  28  48  73 103 141 180 206 241 305
#     4  10  20  31  47  79 113 140 173 206 249 305
#     4  10  19  34  54  75 107 138 169 225 273 314
#     4  11  20  32  48  79 113 147 176 209 243 311
#     4   9  19  35  51  73 104 140 175 221 259 311
#     4   9  20  37  59  78  93 129 182 231 278 322
#     4  10  18  32  52  73 105 150 177 201 260 312
#
# _framework density 18.458556999999999
#
# number of rings (size 3 to 8) (size 9 to 14) (size 15 to 20)
#    0.000    2.250    1.250    5.250    0.000    0.500 
#    9.000    0.000    0.000    6.000    0.000    0.000 
#    0.000    0.000    0.000    0.000    0.000    0.000 
#
# Total GULP energy -178197.136715 kJ/mol
# GULP energy per Si atom -5568.660522 kJ/mol
# Density = 1.841654 g / cm^3
# Si number density = 18.458557 Si / 1000 Ang^3
#
#
#
# Elastic Constant Matrix: (Units=GPa)
#
#
# Indices 1 2 3 4 5 6 
#
# 1 93.1676 38.2893 2.5564 -0.0002 5.7576 0.0000
# 2 38.2893 97.3762 7.7804 -0.0006 1.2814 0.0000
# 3 2.5564 7.7804 24.8911 -0.0007 -14.3711 -0.0001
# 4 -0.0002 -0.0006 -0.0007 18.7580 0.0000 -9.5074
# 5 5.7576 1.2814 -14.3711 0.0000 18.8299 0.0000
# 6 0.0000 0.0000 -0.0001 -9.5074 0.0000 25.9044
#
#
#
# Elastic Compliance Matrix: (Units=1/GPa)
#
#
# Indices 1 2 3 4 5 6 
#
# 1 0.013212 -0.004826 -0.003560 0.000000 -0.006428 0.000000
# 2 -0.004826 0.012658 -0.005554 0.000000 -0.003624 0.000000
# 3 -0.003560 -0.005554 0.077094 0.000003 0.060305 0.000001
# 4 0.000000 0.000000 0.000003 0.065494 0.000002 0.024037
# 5 -0.006428 -0.003624 0.060305 0.000002 0.101344 0.000001
# 6 0.000000 0.000000 0.000001 0.024037 0.000001 0.047426
#
#
# Mechanical properties :
#
#
# Convention : Reuss Voigt Hill
#
# Bulk Modulus (GPa) = 13.31817 34.74301 24.03059
# Shear Modulus (GPa) = 13.50860 23.81906 18.66383
#
# Velocity S-wave (km/s) = 2.70818 3.59612 3.18326
# Velocity P-wave (km/s) = 4.12430 6.00881 5.15343
#
# Compressibility (1/GPa) = 0.07508538
#
# Stress axis : x y z
#
# Youngs Moduli (GPa) = 75.69122 78.99837 12.97119
#
# Poissons Ratio (x) = 0.38124 0.04617
# Poissons Ratio (y) = 0.36528 0.07204
# Poissons Ratio (z) = 0.26943 0.43874
#
# Static dielectric constant tensor:
#      x y z
#    x 1.652460 0.000000 -0.042260 
#    y 0.000000 1.675930 0.000000 
#    z -0.042260 0.000000 1.701710 
# 
# From -- ./inp_files/283482.got.cif
#   From: 2010.05.17/outbox.cif.g08.bks.cpg/sg15_142_cif.got.tgz:283482.got - 2010.06.03 18:47:42.
