data_PCOD9257072
_publ_section_title
;
Structure prediction by ZEFSAII (Michael W. Deem and Ramdas Pophale) SiO2 
 PCOD9257072
Probable space group: C 2/C
;
_chemical_formula_sum "Si O2"
_cell_formula_units_Z 52
_cell_length_a 31.409361
_cell_length_b 9.010363
_cell_length_c 14.636145
_cell_angle_alpha 90.000000
_cell_angle_beta 32.163486
_cell_angle_gamma 90.000000
_cell_volume 2205.030808
_symmetry_space_group_name_H-M "C 2/C"
_symmetry_group_IT_number 15
_symmetry_cell_setting 'monoclinic'
loop_
_space_group_symop_operation_xyz
x,y,z
-x,y,1/2-z
-x,-y,-z
x,-y,1/2+z
1/2+x,1/2+y,z
1/2-x,1/2+y,1/2-z
1/2-x,1/2-y,-z
1/2+x,1/2-y,1/2+z
loop_
_atom_site_type_symbol
_atom_site_label
_atom_site_fract_x
_atom_site_fract_y
_atom_site_fract_z
Si Si1 0.143077 0.310924 0.438436
Si Si2 0.885931 0.340865 0.203744
Si Si3 0.804846 0.816958 0.478960
Si Si4 0.000000 0.086870 0.750000
Si Si5 0.927786 0.658737 0.146674
Si Si6 0.628517 0.615734 0.105250
Si Si7 0.913276 0.649794 0.956285
O O1 0.165613 0.301394 0.291175
O O2 0.202987 0.265044 0.410107
O O3 0.069445 0.194498 0.585495
O O4 0.118313 0.482207 0.497424
O O5 0.878756 0.507057 0.256259
O O6 0.878024 0.218305 0.294601
O O7 0.978597 0.352240 0.002170
O O8 0.750000 0.750000 0.500000
O O9 0.891218 0.781539 0.277955
O O10 0.804497 0.990825 0.500622
O O11 0.046404 0.974671 0.733730
O O12 0.919224 0.683207 0.053573
O O13 0.637906 0.726022 0.002676
O O14 0.000000 0.652360 0.750000
#
# Coordination Sequence:
#
# PCOD9257072 Si02
#       7
#     8   8   8   4   8   8   8
#     4  10  21  35  59  83 123 160 201 250 313 369
#     4  10  19  35  61 100 115 153 195 264 325 366
#     4  11  26  44  56  80 126 177 211 248 292 365
#     4  10  18  30  52  90 122 164 180 252 320 354
#     4  10  21  36  64  89 129 155 193 252 321 375
#     4  11  21  35  62  92 130 154 203 257 302 377
#     4  11  19  37  62  97 125 146 195 258 322 381
#
# _framework density 23.582436999999999
#
# number of rings (size 3 to 8) (size 9 to 14) (size 15 to 20)
#    0.000    1.538    3.077    2.769    2.154    4.923 
#    0.000    9.231    0.000    0.000    0.000    0.000 
#    0.000    0.000    0.000    0.000    0.000    0.000 
#
# Total GULP energy -145388.271996 kJ/mol
# GULP energy per Si atom -5591.856615 kJ/mol
# Density = 2.352876 g / cm^3
# Si number density = 23.582437 Si / 1000 Ang^3
#
#
#
# Elastic Constant Matrix: (Units=GPa)
#
#
# Indices 1 2 3 4 5 6 
#
# 1 195.8108 91.5491 23.5306 0.0000 27.3004 0.0000
# 2 91.5491 165.5347 29.3284 0.0000 27.0769 0.0000
# 3 23.5306 29.3284 42.0015 0.0000 8.8003 0.0000
# 4 0.0000 0.0000 0.0000 10.8071 0.0000 8.6146
# 5 27.3004 27.0769 8.8003 0.0000 31.0624 0.0000
# 6 0.0000 0.0000 0.0000 8.6146 0.0000 45.4590
#
#
#
# Elastic Compliance Matrix: (Units=1/GPa)
#
#
# Indices 1 2 3 4 5 6 
#
# 1 0.007212 -0.003277 -0.001087 0.000000 -0.003174 0.000000
# 2 -0.003277 0.009178 -0.003721 0.000000 -0.004066 0.000000
# 3 -0.001087 -0.003721 0.027785 0.000000 -0.003673 0.000000
# 4 0.000000 0.000000 0.000000 0.108996 0.000000 -0.020655
# 5 -0.003174 -0.004066 -0.003673 0.000000 0.039568 0.000000
# 6 0.000000 0.000000 0.000000 -0.020655 0.000000 0.025912
#
#
# Mechanical properties :
#
#
# Convention : Reuss Voigt Hill
#
# Bulk Modulus (GPa) = 35.70723 76.90701 56.30712
# Shear Modulus (GPa) = 20.47868 34.72830 27.60349
#
# Velocity S-wave (km/s) = 2.95004 3.84165 3.42498
# Velocity P-wave (km/s) = 5.17474 7.23606 6.29041
#
# Compressibility (1/GPa) = 0.02800553
#
# Stress axis : x y z
#
# Youngs Moduli (GPa) = 138.65260 108.96102 35.99004
#
# Poissons Ratio (x) = 0.35705 0.03913
# Poissons Ratio (y) = 0.45435 0.13391
# Poissons Ratio (z) = 0.15076 0.40541
#
# Static dielectric constant tensor:
#      x y z
#    x 1.966070 0.000000 -0.100830 
#    y 0.000000 1.905840 0.000000 
#    z -0.100830 0.000000 1.916120 
# 
# From -- ./inp_files/181067.got.cif
#   From: 2010.05.17/outbox.cif.g08.bks.cpg/sg15_91_cif.got.tgz:181067.got - 2010.06.03 18:47:42.
