data_PCOD9257953
_publ_section_title
;
Structure prediction by ZEFSAII (Michael W. Deem and Ramdas Pophale) SiO2 
 PCOD9257953
Probable space group: C 2/C
;
_chemical_formula_sum "Si O2"
_cell_formula_units_Z 44
_cell_length_a 15.798543
_cell_length_b 24.275287
_cell_length_c 5.520544
_cell_angle_alpha 90.000000
_cell_angle_beta 57.061334
_cell_angle_gamma 90.000000
_cell_volume 1776.872418
_symmetry_space_group_name_H-M "C 2/C"
_symmetry_group_IT_number 15
_symmetry_cell_setting 'monoclinic'
loop_
_space_group_symop_operation_xyz
x,y,z
-x,y,1/2-z
-x,-y,-z
x,-y,1/2+z
1/2+x,1/2+y,z
1/2-x,1/2+y,1/2-z
1/2-x,1/2-y,-z
1/2+x,1/2-y,1/2+z
loop_
_atom_site_type_symbol
_atom_site_label
_atom_site_fract_x
_atom_site_fract_y
_atom_site_fract_z
Si Si1 0.854937 0.854252 0.086182
Si Si2 0.638621 0.196123 0.948351
Si Si3 0.365319 0.140331 0.045383
Si Si4 0.121379 0.970977 0.573523
Si Si5 0.130006 0.174427 0.441819
Si Si6 0.000000 0.536161 0.750000
O O1 0.759781 0.813544 0.257256
O O2 0.909025 0.854902 0.258458
O O3 0.819637 0.916099 0.089219
O O4 0.910915 0.836380 0.759059
O O5 0.602545 0.175091 0.742177
O O6 0.621922 0.260707 0.000942
O O7 0.600876 0.162923 0.243078
O O8 0.244899 0.150836 0.243375
O O9 0.405809 0.078872 0.930898
O O10 0.000000 0.960187 0.750000
O O11 0.142882 0.012010 0.316323
O O12 0.000000 0.500000 0.500000
#
# Coordination Sequence:
#
# PCOD9257953 Si02
#       6
#     8   8   8   8   8   4
#     4  10  18  32  56  84 107 143 182 227 274 331
#     4  10  19  36  62  84 114 144 179 229 297 340
#     4  10  20  37  60  82 107 155 188 230 281 341
#     4  10  21  37  54  72 105 151 184 217 272 321
#     4  10  19  35  61  84 115 143 176 229 300 337
#     4  12  26  44  60  80 120 164 202 244 282 330
#
# _framework density 24.762613999999999
#
# number of rings (size 3 to 8) (size 9 to 14) (size 15 to 20)
#    0.000    1.818    0.000    7.636    0.000    0.000 
#    0.000   21.818   22.000    0.000    0.000    0.000 
#    0.000    0.000    0.000    0.000    0.000    0.000 
#
# Total GULP energy -122924.315694 kJ/mol
# GULP energy per Si atom -5587.468895 kJ/mol
# Density = 2.470625 g / cm^3
# Si number density = 24.762614 Si / 1000 Ang^3
#
#
#
# Elastic Constant Matrix: (Units=GPa)
#
#
# Indices 1 2 3 4 5 6 
#
# 1 88.6158 17.6575 69.7882 0.0000 18.8432 0.0000
# 2 17.6575 132.6157 54.1253 0.0000 21.0812 0.0000
# 3 69.7882 54.1253 238.7602 0.0000 41.2830 0.0000
# 4 0.0000 0.0000 0.0000 64.4182 0.0000 11.6294
# 5 18.8432 21.0812 41.2830 0.0000 62.3598 0.0000
# 6 0.0000 0.0000 0.0000 11.6294 0.0000 53.5450
#
#
#
# Elastic Compliance Matrix: (Units=1/GPa)
#
#
# Indices 1 2 3 4 5 6 
#
# 1 0.014840 -0.000050 -0.004013 0.000000 -0.001810 0.000000
# 2 -0.000050 0.008485 -0.001598 0.000000 -0.001795 0.000000
# 3 -0.004013 -0.001598 0.006121 0.000000 -0.002299 0.000000
# 4 0.000000 0.000000 0.000000 0.016157 0.000000 -0.003509
# 5 -0.001810 -0.001795 -0.002299 0.000000 0.018712 0.000000
# 6 0.000000 0.000000 0.000000 -0.003509 0.000000 0.019438
#
#
# Mechanical properties :
#
#
# Convention : Reuss Voigt Hill
#
# Bulk Modulus (GPa) = 55.17945 82.57041 68.87493
# Shear Modulus (GPa) = 49.44695 57.29264 53.36980
#
# Velocity S-wave (km/s) = 4.47345 4.81529 4.64751
# Velocity P-wave (km/s) = 7.00100 8.02079 7.52819
#
# Compressibility (1/GPa) = 0.01812269
#
# Stress axis : x y z
#
# Youngs Moduli (GPa) = 67.38422 117.85495 163.36424
#
# Poissons Ratio (x) = 0.00591 0.65563
# Poissons Ratio (y) = 0.00338 0.26113
# Poissons Ratio (z) = 0.27043 0.18839
#
# Static dielectric constant tensor:
#      x y z
#    x 2.158540 0.000000 -0.057020 
#    y 0.000000 1.900040 0.000000 
#    z -0.057020 0.000000 2.033460 
# 
# From -- ./inp_files/13509.got.cif
#   From: 2010.05.17/outbox.cif.g08.bks.cpg/sg15_7_cif.got.tgz:13509.got - 2010.06.03 18:47:42.
