data_PCOD9257751
_publ_section_title
;
Structure prediction by ZEFSAII (Michael W. Deem and Ramdas Pophale) SiO2 
 PCOD9257751
Probable space group: C 2/C
;
_chemical_formula_sum "Si O2"
_cell_formula_units_Z 52
_cell_length_a 17.103995
_cell_length_b 8.742529
_cell_length_c 15.799511
_cell_angle_alpha 90.000000
_cell_angle_beta 129.394078
_cell_angle_gamma 90.000000
_cell_volume 1825.765252
_symmetry_space_group_name_H-M "C 2/C"
_symmetry_group_IT_number 15
_symmetry_cell_setting 'monoclinic'
loop_
_space_group_symop_operation_xyz
x,y,z
-x,y,1/2-z
-x,-y,-z
x,-y,1/2+z
1/2+x,1/2+y,z
1/2-x,1/2+y,1/2-z
1/2-x,1/2-y,-z
1/2+x,1/2-y,1/2+z
loop_
_atom_site_type_symbol
_atom_site_label
_atom_site_fract_x
_atom_site_fract_y
_atom_site_fract_z
Si Si1 0.500000 0.499245 0.250000
Si Si2 0.273534 0.040746 0.085952
Si Si3 0.083997 0.739883 0.192656
Si Si4 0.656660 0.282933 0.818650
Si Si5 0.132288 0.024003 0.138417
Si Si6 0.020874 0.701748 0.589903
Si Si7 0.615281 0.061512 0.505091
O O1 0.532113 0.385355 0.199965
O O2 0.400177 0.597116 0.159924
O O3 0.285291 0.856411 0.100125
O O4 0.175653 0.068985 0.076369
O O5 0.353668 0.140229 0.197425
O O6 0.298055 0.085549 0.004909
O O7 0.143229 0.843146 0.163968
O O8 0.990722 0.638353 0.097438
O O9 0.689477 0.389107 0.759301
O O10 0.561456 0.193128 0.711835
O O11 0.972757 0.879599 0.928802
O O12 0.112302 0.623224 0.598174
O O13 0.915757 0.615879 0.510992
#
# Coordination Sequence:
#
# PCOD9257751 Si02
#       7
#     4   8   8   8   8   8   8
#     4  10  18  32  52  86 110 130 184 238 260 312
#     4  12  20  34  61  84 105 147 188 229 266 332
#     4  11  20  33  56  90 106 138 192 237 264 317
#     4   9  19  35  54  75 114 143 175 220 279 323
#     4   9  22  36  54  80 118 143 174 229 286 318
#     4   9  21  39  52  80 114 151 176 225 279 332
#     4  11  21  34  61  81 107 146 194 222 267 330
#
# _framework density 28.481207000000001
#
# number of rings (size 3 to 8) (size 9 to 14) (size 15 to 20)
#    0.923    0.923    3.077    1.846    0.000    1.231 
#    0.000    0.000    0.000    3.692    0.000    0.000 
#    0.000    0.000    0.000    0.000    0.000    0.000 
#
# Total GULP energy -145085.118264 kJ/mol
# GULP energy per Si atom -5580.196856 kJ/mol
# Density = 2.841638 g / cm^3
# Si number density = 28.481207 Si / 1000 Ang^3
#
#
#
# Elastic Constant Matrix: (Units=GPa)
#
#
# Indices 1 2 3 4 5 6 
#
# 1 157.4894 38.6585 32.3511 0.0000 -41.2416 0.0000
# 2 38.6585 165.4984 24.5692 0.0000 4.8739 0.0000
# 3 32.3511 24.5692 54.4694 0.0000 -4.6893 0.0000
# 4 0.0000 0.0000 0.0000 45.7617 0.0000 -3.8354
# 5 -41.2416 4.8739 -4.6893 0.0000 37.4465 0.0000
# 6 0.0000 0.0000 0.0000 -3.8354 0.0000 52.4925
#
#
#
# Elastic Compliance Matrix: (Units=1/GPa)
#
#
# Indices 1 2 3 4 5 6 
#
# 1 0.010876 -0.002225 -0.004448 0.000000 0.011711 0.000000
# 2 -0.002225 0.006987 -0.002142 0.000000 -0.003628 0.000000
# 3 -0.004448 -0.002142 0.021804 0.000000 -0.001889 0.000000
# 4 0.000000 0.000000 0.000000 0.021987 0.000000 0.001607
# 5 0.011711 -0.003628 -0.001889 0.000000 0.039839 0.000000
# 6 0.000000 0.000000 0.000000 0.001607 0.000000 0.019168
#
#
# Mechanical properties :
#
#
# Convention : Reuss Voigt Hill
#
# Bulk Modulus (GPa) = 45.37846 63.17942 54.27894
# Shear Modulus (GPa) = 34.33182 45.93203 40.13192
#
# Velocity S-wave (km/s) = 3.47568 4.02022 3.75783
# Velocity P-wave (km/s) = 5.66344 6.61669 6.15853
#
# Compressibility (1/GPa) = 0.02203689
#
# Stress axis : x y z
#
# Youngs Moduli (GPa) = 91.94283 143.12244 45.86243
#
# Poissons Ratio (x) = 0.31847 0.20399
# Poissons Ratio (y) = 0.20459 0.09825
# Poissons Ratio (z) = 0.40895 0.30662
#
# Static dielectric constant tensor:
#      x y z
#    x 2.496930 0.000000 -0.053690 
#    y 0.000000 2.268420 0.000000 
#    z -0.053690 0.000000 2.368410 
# 
# From -- ./inp_files/209684.got.cif
#   From: 2010.05.17/outbox.cif.g08.bks.cpg/sg15_105_cif.got.tgz:209684.got - 2010.06.03 18:47:42.
