data_PCOD9257350
_publ_section_title
;
Structure prediction by ZEFSAII (Michael W. Deem and Ramdas Pophale) SiO2 
 PCOD9257350
Probable space group: C 2/C
;
_chemical_formula_sum "Si O2"
_cell_formula_units_Z 64
_cell_length_a 11.782119
_cell_length_b 18.798753
_cell_length_c 16.594807
_cell_angle_alpha 90.000000
_cell_angle_beta 84.071196
_cell_angle_gamma 90.000000
_cell_volume 3655.909046
_symmetry_space_group_name_H-M "C 2/C"
_symmetry_group_IT_number 15
_symmetry_cell_setting 'monoclinic'
loop_
_space_group_symop_operation_xyz
x,y,z
-x,y,1/2-z
-x,-y,-z
x,-y,1/2+z
1/2+x,1/2+y,z
1/2-x,1/2+y,1/2-z
1/2-x,1/2-y,-z
1/2+x,1/2-y,1/2+z
loop_
_atom_site_type_symbol
_atom_site_label
_atom_site_fract_x
_atom_site_fract_y
_atom_site_fract_z
Si Si1 0.713523 0.479268 0.191100
Si Si2 0.609862 0.197747 0.576719
Si Si3 0.892895 0.851345 0.201003
Si Si4 0.062898 0.396477 0.329266
Si Si5 0.873534 0.833040 0.020651
Si Si6 0.035115 0.962722 0.578898
Si Si7 0.319131 0.759959 0.253827
Si Si8 0.621327 0.605020 0.288078
O O1 0.671188 0.421560 0.260518
O O2 0.838188 0.452294 0.154809
O O3 0.616194 0.488604 0.129487
O O4 0.710179 0.556021 0.233650
O O5 0.529747 0.129458 0.598281
O O6 0.737671 0.174367 0.543947
O O7 0.576838 0.257736 0.514299
O O8 0.619318 0.236917 0.663329
O O9 0.920970 0.855901 0.104444
O O10 0.809125 0.784410 0.218786
O O11 0.000000 0.842494 0.250000
O O12 0.126989 0.322877 0.302594
O O13 0.000000 0.418798 0.250000
O O14 0.897100 0.891702 0.951449
O O15 0.919199 0.936454 0.630080
O O16 0.000000 0.000000 0.500000
O O17 0.333999 0.684703 0.210640
O O18 0.500000 0.607940 0.250000
#
# Coordination Sequence:
#
# PCOD9257350 Si02
#       8
#     8   8   8   8   8   8   8   8
#     4  10  20  33  52  74  98 132 172 207 247 301
#     4   9  17  31  52  76  98 123 162 212 253 293
#     4  10  19  34  51  71 101 134 164 201 253 310
#     4   9  17  32  53  75 100 133 169 207 252 300
#     4  10  19  31  52  76  98 126 165 208 252 297
#     4  11  21  32  49  73 102 132 165 209 256 298
#     4   9  17  30  53  76  95 125 171 214 248 291
#     4  10  18  31  52  74  97 125 168 218 252 287
#
# _framework density 17.505906
#
# number of rings (size 3 to 8) (size 9 to 14) (size 15 to 20)
#    0.000    2.250    0.000    6.750    0.000    0.000 
#    0.000    2.500    0.000    4.500    0.000    0.000 
#    0.000    0.000    0.000    0.000    0.000    0.000 
#
# Total GULP energy -178287.539916 kJ/mol
# GULP energy per Si atom -5571.485622 kJ/mol
# Density = 1.746606 g / cm^3
# Si number density = 17.505906 Si / 1000 Ang^3
#
#
#
# Elastic Constant Matrix: (Units=GPa)
#
#
# Indices 1 2 3 4 5 6 
#
# 1 54.2018 31.8022 8.0573 0.0000 -8.8422 0.0000
# 2 31.8022 78.4363 17.0024 0.0000 -0.7783 0.0000
# 3 8.0573 17.0024 50.7888 0.0000 -3.0324 0.0000
# 4 0.0000 0.0000 0.0000 25.5670 0.0000 -5.7793
# 5 -8.8422 -0.7783 -3.0324 0.0000 24.4360 0.0000
# 6 0.0000 0.0000 0.0000 -5.7793 0.0000 26.6579
#
#
#
# Elastic Compliance Matrix: (Units=1/GPa)
#
#
# Indices 1 2 3 4 5 6 
#
# 1 0.026089 -0.010468 -0.000092 0.000000 0.009095 0.000000
# 2 -0.010468 0.017947 -0.004573 0.000000 -0.003784 0.000000
# 3 -0.000092 -0.004573 0.021383 0.000000 0.002475 0.000000
# 4 0.000000 0.000000 0.000000 0.041128 0.000000 0.008916
# 5 0.009095 -0.003784 0.002475 0.000000 0.044401 0.000000
# 6 0.000000 0.000000 0.000000 0.008916 0.000000 0.039445
#
#
# Mechanical properties :
#
#
# Convention : Reuss Voigt Hill
#
# Bulk Modulus (GPa) = 28.44675 33.01676 30.73175
# Shear Modulus (GPa) = 21.51683 23.76986 22.64334
#
# Velocity S-wave (km/s) = 3.50968 3.68886 3.60038
# Velocity P-wave (km/s) = 5.71917 6.08645 5.90566
#
# Compressibility (1/GPa) = 0.03515340
#
# Stress axis : x y z
#
# Youngs Moduli (GPa) = 38.33079 55.71917 46.76682
#
# Poissons Ratio (x) = 0.58325 0.00428
# Poissons Ratio (y) = 0.40123 0.21388
# Poissons Ratio (z) = 0.00351 0.25483
#
# Static dielectric constant tensor:
#      x y z
#    x 1.608600 0.000000 -0.027170 
#    y 0.000000 1.611790 0.000000 
#    z -0.027170 0.000000 1.645880 
# 
# From -- ./inp_files/199145.got.cif
#   From: 2010.05.17/outbox.cif.g08.bks.cpg/sg15_100_cif.got.tgz:199145.got - 2010.06.03 18:47:42.
