data_PCOD9257985
_publ_section_title
;
Structure prediction by ZEFSAII (Michael W. Deem and Ramdas Pophale) SiO2 
 PCOD9257985
Probable space group: C 2/C
;
_chemical_formula_sum "Si O2"
_cell_formula_units_Z 56
_cell_length_a 8.105294
_cell_length_b 29.171608
_cell_length_c 17.903946
_cell_angle_alpha 90.000000
_cell_angle_beta 144.333600
_cell_angle_gamma 90.000000
_cell_volume 2468.282046
_symmetry_space_group_name_H-M "C 2/C"
_symmetry_group_IT_number 15
_symmetry_cell_setting 'monoclinic'
loop_
_space_group_symop_operation_xyz
x,y,z
-x,y,1/2-z
-x,-y,-z
x,-y,1/2+z
1/2+x,1/2+y,z
1/2-x,1/2+y,1/2-z
1/2-x,1/2-y,-z
1/2+x,1/2-y,1/2+z
loop_
_atom_site_type_symbol
_atom_site_label
_atom_site_fract_x
_atom_site_fract_y
_atom_site_fract_z
Si Si1 0.793031 0.096843 0.508044
Si Si2 0.738269 0.149322 0.198041
Si Si3 0.491576 0.238183 0.147632
Si Si4 0.961686 0.687314 0.826671
Si Si5 0.578153 0.666891 0.074237
Si Si6 0.337444 0.995388 0.611635
Si Si7 0.867879 0.584191 0.785320
O O1 0.547432 0.130602 0.443123
O O2 0.941841 0.128165 0.497942
O O3 0.631923 0.052645 0.418032
O O4 0.032426 0.078903 0.651337
O O5 0.711142 0.204031 0.188133
O O6 0.797948 0.141070 0.307782
O O7 0.000000 0.130980 0.250000
O O8 0.693490 0.280251 0.247186
O O9 0.297260 0.206015 0.129595
O O10 0.250000 0.250000 0.000000
O O11 0.901558 0.634956 0.829077
O O12 0.000000 0.689909 0.750000
O O13 0.279128 0.692675 0.976053
O O14 0.500000 0.991869 0.750000
O O15 0.470515 0.040519 0.621143
O O16 0.000000 0.000000 0.500000
O O17 0.000000 0.586019 0.750000
#
# Coordination Sequence:
#
# PCOD9257985 Si02
#       7
#     8   8   8   8   8   8   8
#     4  11  19  38  64  92 128 163 209 265 317 375
#     4  11  26  44  60  89 124 165 221 265 311 373
#     4  11  21  37  63  91 123 162 202 253 320 377
#     4  11  18  35  60  89 131 164 198 256 314 376
#     4  11  22  40  64  91 123 167 211 257 317 377
#     4  11  18  29  53  96 133 156 204 258 312 371
#     4  10  18  32  56  96 132 163 196 252 322 373
#
# _framework density 22.687844999999999
#
# number of rings (size 3 to 8) (size 9 to 14) (size 15 to 20)
#    0.000    1.143    7.143    3.857    0.000    0.571 
#    2.571    0.000    0.000    0.857    0.000    0.000 
#    0.000    0.000    0.000    0.000    0.000    0.000 
#
# Total GULP energy -156097.388539 kJ/mol
# GULP energy per Si atom -5574.906734 kJ/mol
# Density = 2.263621 g / cm^3
# Si number density = 22.687845 Si / 1000 Ang^3
#
#
#
# Elastic Constant Matrix: (Units=GPa)
#
#
# Indices 1 2 3 4 5 6 
#
# 1 45.5510 14.8760 23.2341 0.0000 17.4185 0.0000
# 2 14.8760 151.0197 43.6517 0.0000 19.5498 0.0000
# 3 23.2341 43.6517 147.4238 -0.0001 34.2594 0.0000
# 4 0.0000 0.0000 -0.0001 50.4488 0.0000 9.2165
# 5 17.4185 19.5498 34.2594 0.0000 25.3592 0.0000
# 6 0.0000 0.0000 0.0000 9.2165 0.0000 7.6191
#
#
#
# Elastic Compliance Matrix: (Units=1/GPa)
#
#
# Indices 1 2 3 4 5 6 
#
# 1 0.029789 -0.000336 0.000145 0.000000 -0.020399 0.000000
# 2 -0.000336 0.007522 -0.001283 0.000000 -0.003835 0.000000
# 3 0.000145 -0.001283 0.010106 0.000000 -0.012764 0.000000
# 4 0.000000 0.000000 0.000000 0.025445 0.000000 -0.030780
# 5 -0.020399 -0.003835 -0.012764 0.000000 0.073644 0.000000
# 6 0.000000 0.000000 0.000000 -0.030780 0.000000 0.168482
#
#
# Mechanical properties :
#
#
# Convention : Reuss Voigt Hill
#
# Bulk Modulus (GPa) = 22.48705 56.39091 39.43898
# Shear Modulus (GPa) = 15.02580 34.16759 24.59670
#
# Velocity S-wave (km/s) = 2.57628 3.88491 3.29619
# Velocity P-wave (km/s) = 4.33389 6.71063 5.64868
#
# Compressibility (1/GPa) = 0.04447003
#
# Stress axis : x y z
#
# Youngs Moduli (GPa) = 33.56890 132.94274 98.94715
#
# Poissons Ratio (x) = 0.04462 -0.01434
# Poissons Ratio (y) = 0.01127 0.12697
# Poissons Ratio (z) = -0.00486 0.17059
#
# Static dielectric constant tensor:
#      x y z
#    x 2.247060 0.000000 -0.452060 
#    y 0.000000 1.898850 0.000000 
#    z -0.452060 0.000000 2.550480 
# 
# From -- ./inp_files/234982.got.cif
#   From: 2010.05.17/outbox.cif.g08.bks.cpg/sg15_118_cif.got.tgz:234982.got - 2010.06.03 18:47:42.
