data_PCOD9257394
_publ_section_title
;
Structure prediction by ZEFSAII (Michael W. Deem and Ramdas Pophale) SiO2 
 PCOD9257394
Probable space group: C 2/C
;
_chemical_formula_sum "Si O2"
_cell_formula_units_Z 48
_cell_length_a 16.913279
_cell_length_b 8.381029
_cell_length_c 24.997029
_cell_angle_alpha 90.000000
_cell_angle_beta 130.901331
_cell_angle_gamma 90.000000
_cell_volume 2678.196399
_symmetry_space_group_name_H-M "C 2/C"
_symmetry_group_IT_number 15
_symmetry_cell_setting 'monoclinic'
loop_
_space_group_symop_operation_xyz
x,y,z
-x,y,1/2-z
-x,-y,-z
x,-y,1/2+z
1/2+x,1/2+y,z
1/2-x,1/2+y,1/2-z
1/2-x,1/2-y,-z
1/2+x,1/2-y,1/2+z
loop_
_atom_site_type_symbol
_atom_site_label
_atom_site_fract_x
_atom_site_fract_y
_atom_site_fract_z
Si Si1 0.334366 0.960270 0.834530
Si Si2 0.391133 0.307265 0.433827
Si Si3 0.729596 0.223909 0.298904
Si Si4 0.019726 0.669360 0.673387
Si Si5 0.964053 0.903030 0.905407
Si Si6 0.657720 0.938371 0.330189
O O1 0.372992 0.868694 0.903621
O O2 0.298788 0.834449 0.773395
O O3 0.240865 0.085714 0.804734
O O4 0.428762 0.058308 0.849172
O O5 0.457531 0.326640 0.516850
O O6 0.451983 0.411355 0.415330
O O7 0.275757 0.381350 0.390904
O O8 0.847128 0.163224 0.362173
O O9 0.659377 0.120842 0.308771
O O10 0.004619 0.841754 0.639490
O O11 0.104703 0.664406 0.758824
O O12 0.915204 0.593513 0.651404
#
# Coordination Sequence:
#
# PCOD9257394 Si02
#       6
#     8   8   8   8   8   8
#     4  10  18  31  53  74  94 126 166 208 246 293
#     4  10  19  31  51  74  98 129 168 206 242 294
#     4   9  17  30  50  71  95 125 165 206 248 297
#     4   9  18  32  51  70  98 131 161 203 254 297
#     4   9  18  32  50  72  99 131 166 202 244 298
#     4   9  18  33  49  71  98 129 162 202 254 298
#
# _framework density 17.922508000000001
#
# number of rings (size 3 to 8) (size 9 to 14) (size 15 to 20)
#    0.000    2.667    0.000    4.000    0.000    3.333 
#    0.000    1.667    0.000   20.000    0.000    0.000 
#    0.000    0.000    0.000    0.000    0.000    0.000 
#
# Total GULP energy -133611.482560 kJ/mol
# GULP energy per Si atom -5567.145107 kJ/mol
# Density = 1.788172 g / cm^3
# Si number density = 17.922508 Si / 1000 Ang^3
#
#
#
# Elastic Constant Matrix: (Units=GPa)
#
#
# Indices 1 2 3 4 5 6 
#
# 1 84.9777 10.2929 7.3153 0.0000 -8.3194 0.0000
# 2 10.2929 26.2969 -27.2817 0.0000 -36.8079 0.0000
# 3 7.3153 -27.2817 16.8743 0.0000 -17.7640 0.0000
# 4 0.0000 0.0000 0.0000 17.0117 0.0000 -6.0440
# 5 -8.3194 -36.8079 -17.7640 0.0000 2.2038 0.0000
# 6 0.0000 0.0000 0.0000 -6.0440 0.0000 17.1348
#
#
#
# Elastic Compliance Matrix: (Units=1/GPa)
#
#
# Indices 1 2 3 4 5 6 
#
# 1 0.012604 -0.001278 -0.002685 0.000000 0.004602 0.000000
# 2 -0.001278 0.004254 -0.010305 0.000000 -0.016848 0.000000
# 3 -0.002685 -0.010305 0.019785 0.000000 -0.022778 0.000000
# 4 0.000000 0.000000 0.000000 0.067206 0.000000 0.023706
# 5 0.004602 -0.016848 -0.022778 0.000000 0.006133 0.000000
# 6 0.000000 0.000000 0.000000 0.023706 0.000000 0.066723
#
#
# Mechanical properties :
#
#
# Convention : Reuss Voigt Hill
#
# Bulk Modulus (GPa) = 123.34992 12.08908 67.71950
# Shear Modulus (GPa) = 24.04513 16.45821 20.25167
#
# Velocity S-wave (km/s) = 3.66678 3.03363 3.36513
# Velocity P-wave (km/s) = 9.32204 4.36238 7.27774
#
# Compressibility (1/GPa) = 0.00810702
#
# Stress axis : x y z
#
# Youngs Moduli (GPa) = 79.33860 235.09507 50.54301
#
# Poissons Ratio (x) = 0.30034 0.13571
# Poissons Ratio (y) = 0.10136 0.52087
# Poissons Ratio (z) = 0.21302 2.42277
#
# Static dielectric constant tensor:
#      x y z
#    x 1.615200 0.000000 -0.004540 
#    y 0.000000 1.691910 0.000000 
#    z -0.004540 0.000000 1.615460 
# 
# From -- ./inp_files/208627.got.cif
#   From: 2010.05.17/outbox.cif.g08.bks.cpg/sg15_105_cif.got.tgz:208627.got - 2010.06.03 18:47:42.
