data_PCOD9257319
_publ_section_title
;
Structure prediction by ZEFSAII (Michael W. Deem and Ramdas Pophale) SiO2 
 PCOD9257319
Probable space group: C 2/C
;
_chemical_formula_sum "Si O2"
_cell_formula_units_Z 60
_cell_length_a 17.638137
_cell_length_b 22.186912
_cell_length_c 7.962164
_cell_angle_alpha 90.000000
_cell_angle_beta 120.712097
_cell_angle_gamma 90.000000
_cell_volume 2678.860368
_symmetry_space_group_name_H-M "C 2/C"
_symmetry_group_IT_number 15
_symmetry_cell_setting 'monoclinic'
loop_
_space_group_symop_operation_xyz
x,y,z
-x,y,1/2-z
-x,-y,-z
x,-y,1/2+z
1/2+x,1/2+y,z
1/2-x,1/2+y,1/2-z
1/2-x,1/2-y,-z
1/2+x,1/2-y,1/2+z
loop_
_atom_site_type_symbol
_atom_site_label
_atom_site_fract_x
_atom_site_fract_y
_atom_site_fract_z
Si Si1 0.000000 0.273040 0.250000
Si Si2 0.479190 0.068603 0.531388
Si Si3 0.001438 0.820531 0.451076
Si Si4 0.807137 0.178229 0.723468
Si Si5 0.192177 0.531548 0.329998
Si Si6 0.658635 0.908168 0.147520
Si Si7 0.819285 0.120337 0.372190
Si Si8 0.304976 0.791534 0.934255
O O1 0.093979 0.304868 0.396440
O O2 0.981085 0.232090 0.393887
O O3 0.500000 0.073566 0.750000
O O4 0.380028 0.071288 0.354923
O O5 0.555225 0.108602 0.530858
O O6 0.500000 0.000000 0.500000
O O7 0.079287 0.868810 0.554699
O O8 0.000000 0.801543 0.250000
O O9 0.904268 0.844829 0.385730
O O10 0.725530 0.146801 0.724225
O O11 0.801184 0.158373 0.523377
O O12 0.810836 0.248623 0.774685
O O13 0.176515 0.460280 0.304215
O O14 0.178360 0.554008 0.502080
O O15 0.286773 0.553006 0.370865
O O16 0.756306 0.151519 0.166150
O O17 0.250000 0.750000 0.000000
#
# Coordination Sequence:
#
# PCOD9257319 Si02
#       8
#     4   8   8   8   8   8   8   8
#     4  10  20  38  56  88 110 154 188 234 286 342
#     4  10  18  31  51  76 106 145 181 224 279 331
#     4   9  18  37  60  82 113 151 190 231 289 344
#     4   9  21  37  60  81 108 151 190 230 280 343
#     4  10  20  34  55  80 109 148 184 233 281 337
#     4  10  19  36  55  79 110 143 192 228 280 335
#     4  10  20  38  58  82 112 150 186 230 287 340
#     4  11  21  36  59  83 116 141 188 234 283 333
#
# _framework density 22.397583000000001
#
# number of rings (size 3 to 8) (size 9 to 14) (size 15 to 20)
#    0.000    2.133    1.333    4.000    0.000    2.133 
#    3.600    0.667    0.000    0.000    0.000    0.000 
#    0.000    0.000    0.000    0.000    0.000    0.000 
#
# Total GULP energy -167430.973876 kJ/mol
# GULP energy per Si atom -5581.032463 kJ/mol
# Density = 2.234660 g / cm^3
# Si number density = 22.397583 Si / 1000 Ang^3
#
#
#
# Elastic Constant Matrix: (Units=GPa)
#
#
# Indices 1 2 3 4 5 6 
#
# 1 98.8641 6.4481 6.8959 0.0000 35.6124 0.0000
# 2 6.4481 33.4764 17.1604 0.0000 13.0935 0.0000
# 3 6.8959 17.1604 73.0193 0.0000 13.5698 0.0000
# 4 0.0000 0.0000 0.0000 24.8059 0.0000 4.0321
# 5 35.6124 13.0935 13.5698 0.0000 41.4357 0.0000
# 6 0.0000 0.0000 0.0000 4.0321 0.0000 31.3435
#
#
#
# Elastic Compliance Matrix: (Units=1/GPa)
#
#
# Indices 1 2 3 4 5 6 
#
# 1 0.014846 0.002156 0.000627 0.000000 -0.013647 0.000000
# 2 0.002156 0.037457 -0.006881 0.000000 -0.011436 0.000000
# 3 0.000627 -0.006881 0.015918 0.000000 -0.003578 0.000000
# 4 0.000000 0.000000 0.000000 0.041174 0.000000 -0.005297
# 5 -0.013647 -0.011436 -0.003578 0.000000 0.040648 0.000000
# 6 0.000000 0.000000 0.000000 -0.005297 0.000000 0.032586
#
#
# Mechanical properties :
#
#
# Convention : Reuss Voigt Hill
#
# Bulk Modulus (GPa) = 16.65954 29.59651 23.12802
# Shear Modulus (GPa) = 23.71555 31.17405 27.44480
#
# Velocity S-wave (km/s) = 3.25752 3.73480 3.50429
# Velocity P-wave (km/s) = 4.64788 5.64279 5.16933
#
# Compressibility (1/GPa) = 0.06002567
#
# Stress axis : x y z
#
# Youngs Moduli (GPa) = 67.35735 26.69744 62.82283
#
# Poissons Ratio (x) = -0.05757 -0.03940
# Poissons Ratio (y) = -0.14525 0.43229
# Poissons Ratio (z) = -0.04225 0.18371
#
# Static dielectric constant tensor:
#      x y z
#    x 1.884980 0.000000 -0.012770 
#    y 0.000000 1.856110 0.000000 
#    z -0.012770 0.000000 1.886210 
# 
# From -- ./inp_files/52043.got.cif
#   From: 2010.05.17/outbox.cif.g08.bks.cpg/sg15_27_cif.got.tgz:52043.got - 2010.06.03 18:47:42.
