data_PCOD9257207
_publ_section_title
;
Structure prediction by ZEFSAII (Michael W. Deem and Ramdas Pophale) SiO2 
 PCOD9257207
Probable space group: C 2/C
;
_chemical_formula_sum "Si O2"
_cell_formula_units_Z 48
_cell_length_a 12.671789
_cell_length_b 20.301858
_cell_length_c 9.554281
_cell_angle_alpha 90.000000
_cell_angle_beta 107.402287
_cell_angle_gamma 90.000000
_cell_volume 2345.438570
_symmetry_space_group_name_H-M "C 2/C"
_symmetry_group_IT_number 15
_symmetry_cell_setting 'monoclinic'
loop_
_space_group_symop_operation_xyz
x,y,z
-x,y,1/2-z
-x,-y,-z
x,-y,1/2+z
1/2+x,1/2+y,z
1/2-x,1/2+y,1/2-z
1/2-x,1/2-y,-z
1/2+x,1/2-y,1/2+z
loop_
_atom_site_type_symbol
_atom_site_label
_atom_site_fract_x
_atom_site_fract_y
_atom_site_fract_z
Si Si1 0.142402 0.673156 0.028093
Si Si2 0.424017 0.086037 0.946641
Si Si3 0.136927 0.830507 0.049585
Si Si4 0.697701 0.335516 0.363831
Si Si5 0.000000 0.513287 0.250000
Si Si6 0.207792 0.194211 0.168704
Si Si7 0.000000 0.824948 0.750000
O O1 0.115655 0.751268 0.028731
O O2 0.208486 0.654968 0.197471
O O3 0.234402 0.662444 0.944536
O O4 0.032408 0.631383 0.967845
O O5 0.312876 0.126949 0.896868
O O6 0.426353 0.032367 0.823400
O O7 0.435128 0.055279 0.107131
O O8 0.121610 0.853670 0.202008
O O9 0.060014 0.862611 0.900742
O O10 0.724667 0.258585 0.348023
O O11 0.663857 0.340663 0.511787
O O12 0.101810 0.213417 0.219747
#
# Coordination Sequence:
#
# PCOD9257207 Si02
#       7
#     8   8   8   8   4   8   4
#     4   9  17  30  50  71 103 139 173 205 258 311
#     4  11  20  36  52  72 111 146 169 222 259 285
#     4   9  18  29  47  78  99 136 180 199 246 337
#     4  10  19  31  50  73 104 134 173 213 259 308
#     4  10  24  33  48  76 100 142 204 207 234 318
#     4   9  19  31  47  78 102 136 176 200 248 336
#     4  10  18  31  44  62 110 134 154 205 238 286
#
# _framework density 20.465256
#
# number of rings (size 3 to 8) (size 9 to 14) (size 15 to 20)
#    0.000    2.333    0.000    4.000    0.000    2.000 
#    0.000    5.000    0.000    0.000    0.000    0.000 
#    0.000  301.333    0.000    0.000    0.000    0.000 
#
# Total GULP energy -133757.977587 kJ/mol
# GULP energy per Si atom -5573.249066 kJ/mol
# Density = 2.041868 g / cm^3
# Si number density = 20.465256 Si / 1000 Ang^3
#
#
#
# Elastic Constant Matrix: (Units=GPa)
#
#
# Indices 1 2 3 4 5 6 
#
# 1 49.6065 4.3658 24.7283 0.0000 2.3502 0.0000
# 2 4.3658 23.7861 19.3963 0.0000 1.1376 0.0000
# 3 24.7283 19.3963 188.6009 0.0000 -2.8279 0.0000
# 4 0.0000 0.0000 0.0000 35.5732 0.0000 30.7548
# 5 2.3502 1.1376 -2.8279 0.0000 25.2784 0.0000
# 6 0.0000 0.0000 0.0000 30.7548 0.0000 101.6580
#
#
#
# Elastic Compliance Matrix: (Units=1/GPa)
#
#
# Indices 1 2 3 4 5 6 
#
# 1 0.021766 -0.001673 -0.002716 0.000000 -0.002252 0.000000
# 2 -0.001673 0.046189 -0.004567 0.000000 -0.002434 0.000000
# 3 -0.002716 -0.004567 0.006145 0.000000 0.001145 0.000000
# 4 0.000000 0.000000 0.000000 0.038068 0.000000 -0.011517
# 5 -0.002252 -0.002434 0.001145 0.000000 0.040007 0.000000
# 6 0.000000 0.000000 0.000000 -0.011517 0.000000 0.013321
#
#
# Mechanical properties :
#
#
# Convention : Reuss Voigt Hill
#
# Bulk Modulus (GPa) = 17.79710 39.88604 28.84157
# Shear Modulus (GPa) = 24.73558 46.73544 35.73551
#
# Velocity S-wave (km/s) = 3.48035 4.78394 4.18324
# Velocity P-wave (km/s) = 4.98654 7.07437 6.12014
#
# Compressibility (1/GPa) = 0.05618892
#
# Stress axis : x y z
#
# Youngs Moduli (GPa) = 45.94260 21.64999 162.72971
#
# Poissons Ratio (x) = 0.03622 0.44191
# Poissons Ratio (y) = 0.07686 0.74325
# Poissons Ratio (z) = 0.12476 0.09888
#
# Static dielectric constant tensor:
#      x y z
#    x 1.740760 0.000000 -0.021130 
#    y 0.000000 1.710590 0.000000 
#    z -0.021130 0.000000 1.870380 
# 
# From -- ./inp_files/40731.got.cif
#   From: 2010.05.17/outbox.cif.g08.bks.cpg/sg15_21_cif.got.tgz:40731.got - 2010.06.03 18:47:42.
