data_PCOD9257874
_publ_section_title
;
Structure prediction by ZEFSAII (Michael W. Deem and Ramdas Pophale) SiO2 
 PCOD9257874
Probable space group: C 2/C
;
_chemical_formula_sum "Si O2"
_cell_formula_units_Z 60
_cell_length_a 24.480178
_cell_length_b 26.072902
_cell_length_c 10.084455
_cell_angle_alpha 90.000000
_cell_angle_beta 151.976456
_cell_angle_gamma 90.000000
_cell_volume 3024.134731
_symmetry_space_group_name_H-M "C 2/C"
_symmetry_group_IT_number 15
_symmetry_cell_setting 'monoclinic'
loop_
_space_group_symop_operation_xyz
x,y,z
-x,y,1/2-z
-x,-y,-z
x,-y,1/2+z
1/2+x,1/2+y,z
1/2-x,1/2+y,1/2-z
1/2-x,1/2-y,-z
1/2+x,1/2-y,1/2+z
loop_
_atom_site_type_symbol
_atom_site_label
_atom_site_fract_x
_atom_site_fract_y
_atom_site_fract_z
Si Si1 0.762655 0.560572 0.395803
Si Si2 0.086792 0.292606 0.616800
Si Si3 0.000000 0.433374 0.750000
Si Si4 0.024912 0.407140 0.509616
Si Si5 0.700867 0.007467 0.282197
Si Si6 0.425840 0.302054 0.713655
Si Si7 0.787725 0.253317 0.361634
Si Si8 0.393859 0.659107 0.430061
O O1 0.902372 0.570384 0.695882
O O2 0.728007 0.533128 0.184441
O O3 0.738116 0.524722 0.470612
O O4 0.703303 0.615584 0.278530
O O5 0.196411 0.277224 0.760128
O O6 0.052355 0.350783 0.516771
O O7 0.982304 0.253912 0.360269
O O8 0.124607 0.280931 0.849390
O O9 0.018259 0.402695 0.654439
O O10 0.889312 0.469051 0.482824
O O11 0.124104 0.447792 0.685209
O O12 0.500000 0.324226 0.750000
O O13 0.292134 0.293938 0.387284
O O14 0.436623 0.332315 0.872365
O O15 0.846609 0.212722 0.389497
O O16 0.500000 0.642719 0.750000
#
# Coordination Sequence:
#
# PCOD9257874 Si02
#       8
#     8   8   4   8   8   8   8   8
#     4  11  23  38  64  91 118 162 204 252 324 371
#     4  10  21  37  59  98 123 164 205 254 306 381
#     4  10  18  32  54  88 126 156 174 250 316 366
#     4  11  20  33  61  91 129 152 202 245 322 379
#     4  11  19  40  59  89 126 154 194 259 310 370
#     4  10  22  42  63  87 130 165 203 261 309 364
#     4  10  21  38  62  86 131 163 210 252 311 356
#     4  12  24  42  63  90 122 170 213 254 303 372
#
# _framework density 19.840385999999999
#
# number of rings (size 3 to 8) (size 9 to 14) (size 15 to 20)
#    0.000    1.333    4.000    2.800    0.000    5.333 
#    0.000    0.667    0.000    0.000    0.000    0.000 
#    0.000    0.000    0.000    0.000    0.000    0.000 
#
# Total GULP energy -167664.187650 kJ/mol
# GULP energy per Si atom -5588.806255 kJ/mol
# Density = 1.979523 g / cm^3
# Si number density = 19.840386 Si / 1000 Ang^3
#
#
#
# Elastic Constant Matrix: (Units=GPa)
#
#
# Indices 1 2 3 4 5 6 
#
# 1 67.3742 22.8956 29.7226 0.0000 -29.4825 0.0000
# 2 22.8956 54.2931 8.0105 0.0000 -11.4107 0.0000
# 3 29.7226 8.0105 74.9186 0.0000 -27.4376 0.0000
# 4 0.0000 0.0000 0.0000 16.6873 0.0000 10.1233
# 5 -29.4825 -11.4107 -27.4376 0.0000 26.1225 0.0000
# 6 0.0000 0.0000 0.0000 10.1233 0.0000 -17.1185
#
#
#
# Elastic Compliance Matrix: (Units=1/GPa)
#
#
# Indices 1 2 3 4 5 6 
#
# 1 0.031191 -0.006313 0.000298 0.000000 0.032758 0.000000
# 2 -0.006313 0.021700 0.001701 0.000000 0.004140 0.000000
# 3 0.000298 0.001701 0.021847 0.000000 0.024025 0.000000
# 4 0.000000 0.000000 0.000000 0.044104 0.000000 0.026081
# 5 0.032758 0.004140 0.024025 0.000000 0.102296 0.000000
# 6 0.000000 0.000000 0.000000 0.026081 0.000000 -0.042993
#
#
# Mechanical properties :
#
#
# Convention : Reuss Voigt Hill
#
# Bulk Modulus (GPa) = 15.12660 35.31595 25.22127
# Shear Modulus (GPa) = 23.94519 14.20208 19.07363
#
# Velocity S-wave (km/s) = 3.47780 2.67838 3.10393
# Velocity P-wave (km/s) = 4.87519 5.23485 5.05822
#
# Compressibility (1/GPa) = 0.06610871
#
# Stress axis : x y z
#
# Youngs Moduli (GPa) = 32.06032 46.08324 45.77336
#
# Poissons Ratio (x) = 0.29091 -0.01362
# Poissons Ratio (y) = 0.20238 -0.07784
# Poissons Ratio (z) = -0.00954 -0.07837
#
# Static dielectric constant tensor:
#      x y z
#    x 1.729560 0.000000 -0.023310 
#    y 0.000000 1.661000 0.000000 
#    z -0.023310 0.000000 1.715560 
# 
# From -- ./inp_files/64116.got.cif
#   From: 2010.05.17/outbox.cif.g08.bks.cpg/sg15_33_cif.got.tgz:64116.got - 2010.06.03 18:47:42.
