data_PCOD9257378
_publ_section_title
;
Structure prediction by ZEFSAII (Michael W. Deem and Ramdas Pophale) SiO2 
 PCOD9257378
Probable space group: C 2/C
;
_chemical_formula_sum "Si O2"
_cell_formula_units_Z 56
_cell_length_a 11.132244
_cell_length_b 33.992751
_cell_length_c 7.680640
_cell_angle_alpha 90.000000
_cell_angle_beta 115.467857
_cell_angle_gamma 90.000000
_cell_volume 2624.042196
_symmetry_space_group_name_H-M "C 2/C"
_symmetry_group_IT_number 15
_symmetry_cell_setting 'monoclinic'
loop_
_space_group_symop_operation_xyz
x,y,z
-x,y,1/2-z
-x,-y,-z
x,-y,1/2+z
1/2+x,1/2+y,z
1/2-x,1/2+y,1/2-z
1/2-x,1/2-y,-z
1/2+x,1/2-y,1/2+z
loop_
_atom_site_type_symbol
_atom_site_label
_atom_site_fract_x
_atom_site_fract_y
_atom_site_fract_z
Si Si1 0.705428 0.909385 0.177783
Si Si2 0.686843 0.830356 0.718764
Si Si3 0.959971 0.044790 0.927191
Si Si4 0.392471 0.173692 0.926236
Si Si5 0.289423 0.585983 0.318352
Si Si6 0.461997 0.043873 0.427460
Si Si7 0.849704 0.756043 0.720902
O O1 0.811476 0.936993 0.344225
O O2 0.684358 0.863305 0.208663
O O3 0.750447 0.911994 0.001080
O O4 0.558522 0.927772 0.094173
O O5 0.554018 0.827214 0.516975
O O6 0.758079 0.871381 0.724144
O O7 0.789170 0.794507 0.772642
O O8 0.638385 0.831021 0.888428
O O9 0.000000 0.048044 0.750000
O O10 0.060146 0.072344 0.095636
O O11 0.000000 0.000000 0.000000
O O12 0.347522 0.216212 0.832317
O O13 0.192230 0.554905 0.163576
O O14 0.500000 0.049884 0.250000
O O15 0.500000 0.000000 0.500000
O O16 0.750000 0.750000 0.500000
O O17 0.000000 0.762336 0.750000
#
# Coordination Sequence:
#
# PCOD9257378 Si02
#       7
#     8   8   8   8   8   8   8
#     4   9  18  34  58  83 110 150 195 247 293 335
#     4  10  20  40  67  91 116 156 214 257 295 356
#     4  10  20  35  54  80 119 155 191 240 298 352
#     4  10  20  40  67  91 116 156 213 260 291 357
#     4   9  18  34  58  82 110 149 194 250 292 332
#     4  10  18  31  52  80 110 144 188 235 290 346
#     4  12  25  42  61  90 132 166 190 243 324 378
#
# _framework density 21.34112
#
# number of rings (size 3 to 8) (size 9 to 14) (size 15 to 20)
#    0.000    2.000    2.857    1.286    0.000    1.143 
#    0.000    5.714    0.000    0.000    0.000    0.000 
#    0.000    0.000    0.000    0.000    0.000    0.000 
#
# Total GULP energy -156326.586089 kJ/mol
# GULP energy per Si atom -5583.092360 kJ/mol
# Density = 2.129255 g / cm^3
# Si number density = 21.341120 Si / 1000 Ang^3
#
#
#
# Elastic Constant Matrix: (Units=GPa)
#
#
# Indices 1 2 3 4 5 6 
#
# 1 57.4541 20.5779 46.0556 0.0000 15.0829 0.0000
# 2 20.5779 159.1483 51.4845 0.0000 26.5017 0.0000
# 3 46.0556 51.4845 89.1233 0.0000 39.8738 0.0000
# 4 0.0000 0.0000 0.0000 31.9182 0.0000 16.2413
# 5 15.0829 26.5017 39.8738 0.0000 37.4549 0.0000
# 6 0.0000 0.0000 0.0000 16.2413 0.0000 19.8800
#
#
#
# Elastic Compliance Matrix: (Units=1/GPa)
#
#
# Indices 1 2 3 4 5 6 
#
# 1 0.031347 0.001229 -0.020760 0.000000 0.008608 0.000000
# 2 0.001229 0.007813 -0.004685 0.000000 -0.001035 0.000000
# 3 -0.020760 -0.004685 0.037104 0.000000 -0.027825 0.000000
# 4 0.000000 0.000000 0.000000 0.053620 0.000000 -0.043806
# 5 0.008608 -0.001035 -0.027825 0.000000 0.053587 0.000000
# 6 0.000000 0.000000 0.000000 -0.043806 0.000000 0.086090
#
#
# Mechanical properties :
#
#
# Convention : Reuss Voigt Hill
#
# Bulk Modulus (GPa) = 35.93114 60.21797 48.07455
# Shear Modulus (GPa) = 15.27795 30.35780 22.81788
#
# Velocity S-wave (km/s) = 2.67852 3.77570 3.27341
# Velocity P-wave (km/s) = 5.14189 6.87648 6.07145
#
# Compressibility (1/GPa) = 0.02783102
#
# Stress axis : x y z
#
# Youngs Moduli (GPa) = 31.90148 127.99907 26.95132
#
# Poissons Ratio (x) = -0.15736 0.55951
# Poissons Ratio (y) = -0.03922 0.12628
# Poissons Ratio (z) = 0.66227 0.59972
#
# Static dielectric constant tensor:
#      x y z
#    x 1.799210 0.000000 -0.010480 
#    y 0.000000 1.779120 0.000000 
#    z -0.010480 0.000000 1.812370 
# 
# From -- ./inp_files/35746.got.cif
#   From: 2010.05.17/outbox.cif.g08.bks.cpg/sg15_18_cif.got.tgz:35746.got - 2010.06.03 18:47:42.
