data_PCOD9257495
_publ_section_title
;
Structure prediction by ZEFSAII (Michael W. Deem and Ramdas Pophale) SiO2 
 PCOD9257495
Probable space group: C 2/C
;
_chemical_formula_sum "Si O2"
_cell_formula_units_Z 56
_cell_length_a 8.199504
_cell_length_b 15.906402
_cell_length_c 23.497456
_cell_angle_alpha 90.000000
_cell_angle_beta 56.261051
_cell_angle_gamma 90.000000
_cell_volume 2548.488753
_symmetry_space_group_name_H-M "C 2/C"
_symmetry_group_IT_number 15
_symmetry_cell_setting 'monoclinic'
loop_
_space_group_symop_operation_xyz
x,y,z
-x,y,1/2-z
-x,-y,-z
x,-y,1/2+z
1/2+x,1/2+y,z
1/2-x,1/2+y,1/2-z
1/2-x,1/2-y,-z
1/2+x,1/2-y,1/2+z
loop_
_atom_site_type_symbol
_atom_site_label
_atom_site_fract_x
_atom_site_fract_y
_atom_site_fract_z
Si Si1 0.849154 0.461424 0.983114
Si Si2 0.748322 0.795433 0.642677
Si Si3 0.641891 0.175214 0.396225
Si Si4 0.929633 0.838467 0.395421
Si Si5 0.426506 0.487589 0.198944
Si Si6 0.109306 0.099730 0.062024
Si Si7 0.201457 0.644738 0.267174
O O1 0.696856 0.395841 0.038960
O O2 0.716703 0.542771 0.993905
O O3 0.991518 0.403604 0.918658
O O4 0.000000 0.500000 0.000000
O O5 0.723638 0.706355 0.617876
O O6 0.528474 0.832986 0.685037
O O7 0.796240 0.796595 0.700360
O O8 0.909950 0.854880 0.582563
O O9 0.534658 0.263696 0.408870
O O10 0.744722 0.166416 0.437100
O O11 0.781044 0.163191 0.314599
O O12 0.076509 0.896089 0.329638
O O13 0.500000 0.479135 0.250000
O O14 0.558819 0.539687 0.126928
O O15 0.240218 0.548962 0.241086
#
# Coordination Sequence:
#
# PCOD9257495 Si02
#       7
#     8   8   8   8   8   8   8
#     4   9  19  36  56  79 102 143 189 220 261 326
#     4   9  19  34  56  79 110 138 170 226 279 312
#     4  10  18  33  56  81 104 141 180 225 266 316
#     4  10  21  33  56  81 109 140 181 224 270 316
#     4  10  18  31  56  78 104 141 184 213 258 329
#     4   9  18  35  58  76 106 141 179 219 268 320
#     4   9  18  33  54  78 107 143 173 212 274 321
#
# _framework density 21.973807000000001
#
# number of rings (size 3 to 8) (size 9 to 14) (size 15 to 20)
#    0.000    2.571    1.429    0.429    4.000    0.000 
#    0.000    5.714   15.714    1.714    0.000    0.000 
#    0.000    0.000    0.000    0.000    0.000    0.000 
#
# Total GULP energy -155937.506089 kJ/mol
# GULP energy per Si atom -5569.196646 kJ/mol
# Density = 2.192379 g / cm^3
# Si number density = 21.973807 Si / 1000 Ang^3
#
#
#
# Elastic Constant Matrix: (Units=GPa)
#
#
# Indices 1 2 3 4 5 6 
#
# 1 31.1197 14.1563 -2.4548 -0.0001 -0.1422 -0.0001
# 2 14.1563 76.0261 -1.8145 0.0000 3.3305 0.0000
# 3 -2.4548 -1.8145 33.5701 0.0000 -3.6510 -0.0001
# 4 -0.0001 0.0000 0.0000 24.1717 0.0000 -5.6563
# 5 -0.1422 3.3305 -3.6510 0.0000 27.3596 0.0001
# 6 -0.0001 0.0000 -0.0001 -5.6563 0.0001 29.4944
#
#
#
# Elastic Compliance Matrix: (Units=1/GPa)
#
#
# Indices 1 2 3 4 5 6 
#
# 1 0.035319 -0.006577 0.002369 0.000000 0.001300 0.000000
# 2 -0.006577 0.014459 0.000107 0.000000 -0.001780 0.000000
# 3 0.002369 0.000107 0.030409 0.000000 0.004057 0.000000
# 4 0.000000 0.000000 0.000000 0.043315 0.000000 0.008307
# 5 0.001300 -0.001780 0.004057 0.000000 0.037315 0.000000
# 6 0.000000 0.000000 0.000000 0.008307 0.000000 0.035498
#
#
# Mechanical properties :
#
#
# Convention : Reuss Voigt Hill
#
# Bulk Modulus (GPa) = 13.89211 17.83221 15.86216
# Shear Modulus (GPa) = 21.88086 24.92705 23.40395
#
# Velocity S-wave (km/s) = 3.15901 3.37174 3.26710
# Velocity P-wave (km/s) = 4.43188 4.82607 4.63317
#
# Compressibility (1/GPa) = 0.07198329
#
# Stress axis : x y z
#
# Youngs Moduli (GPa) = 28.31369 69.16329 32.88534
#
# Poissons Ratio (x) = 0.45488 -0.07789
# Poissons Ratio (y) = 0.18622 -0.00352
# Poissons Ratio (z) = -0.06706 -0.00740
#
# Static dielectric constant tensor:
#      x y z
#    x 1.904140 0.000000 0.043400 
#    y 0.000000 1.828940 0.000000 
#    z 0.043400 0.000000 1.893650 
# 
# From -- ./inp_files/307951.got.cif
#   From: 2010.05.17/outbox.cif.g08.bks.cpg/sg15_154_cif.got.tgz:307951.got - 2010.06.03 18:47:42.
