data_PCOD9257483
_publ_section_title
;
Structure prediction by ZEFSAII (Michael W. Deem and Ramdas Pophale) SiO2 
 PCOD9257483
Probable space group: C 2/C
;
_chemical_formula_sum "Si O2"
_cell_formula_units_Z 60
_cell_length_a 17.303888
_cell_length_b 9.866008
_cell_length_c 25.010438
_cell_angle_alpha 90.000000
_cell_angle_beta 133.661856
_cell_angle_gamma 90.000000
_cell_volume 3088.880659
_symmetry_space_group_name_H-M "C 2/C"
_symmetry_group_IT_number 15
_symmetry_cell_setting 'monoclinic'
loop_
_space_group_symop_operation_xyz
x,y,z
-x,y,1/2-z
-x,-y,-z
x,-y,1/2+z
1/2+x,1/2+y,z
1/2-x,1/2+y,1/2-z
1/2-x,1/2-y,-z
1/2+x,1/2-y,1/2+z
loop_
_atom_site_type_symbol
_atom_site_label
_atom_site_fract_x
_atom_site_fract_y
_atom_site_fract_z
Si Si1 0.579110 0.107670 0.098093
Si Si2 0.000000 0.500322 0.250000
Si Si3 0.541205 0.383360 0.940172
Si Si4 0.012092 0.614242 0.870294
Si Si5 0.160600 0.617304 0.559911
Si Si6 0.745966 0.000268 0.495962
Si Si7 0.271807 0.885814 0.630338
Si Si8 0.382368 0.392534 0.401480
O O1 0.635671 0.249957 0.135809
O O2 0.553771 0.008638 0.134825
O O3 0.645439 0.017454 0.087901
O O4 0.460532 0.144284 0.018380
O O5 0.999124 0.403518 0.301214
O O6 0.103166 0.597065 0.300756
O O7 0.484600 0.254772 0.886182
O O8 0.469401 0.517329 0.912073
O O9 0.646160 0.414905 0.955579
O O10 0.577636 0.356576 0.018911
O O11 0.137652 0.587882 0.942636
O O12 0.234007 0.586646 0.543749
O O13 0.212303 0.745414 0.614246
O O14 0.747399 0.087311 0.442136
O O15 0.216627 0.008699 0.635881
#
# Coordination Sequence:
#
# PCOD9257483 Si02
#       8
#     8   4   8   8   8   8   8   8
#     4  10  19  32  54  86 116 140 175 231 292 343
#     4  10  24  40  56  74 108 152 200 232 264 326
#     4  10  18  31  55  86 116 143 178 229 291 343
#     4  10  20  36  55  77 110 153 189 227 274 331
#     4  10  18  31  55  86 116 143 178 229 291 343
#     4   9  18  29  54  87 112 135 174 232 294 337
#     4  10  20  36  55  77 110 153 189 227 274 331
#     4  10  19  32  54  86 116 140 175 231 292 343
#
# _framework density 19.424512
#
# number of rings (size 3 to 8) (size 9 to 14) (size 15 to 20)
#    0.000    2.133    0.000    6.400    0.000    4.267 
#    0.000    2.667    0.000    5.600    0.000    0.000 
#    0.000    0.000    0.000    0.000    0.000    0.000 
#
# Total GULP energy -167389.078714 kJ/mol
# GULP energy per Si atom -5579.635957 kJ/mol
# Density = 1.938030 g / cm^3
# Si number density = 19.424512 Si / 1000 Ang^3
#
#
#
# Elastic Constant Matrix: (Units=GPa)
#
#
# Indices 1 2 3 4 5 6 
#
# 1 104.6902 59.8559 14.3594 0.0000 -0.9453 0.0000
# 2 59.8559 141.6611 33.3985 0.0000 0.5273 0.0000
# 3 14.3594 33.3985 45.8896 0.0000 0.7418 0.0000
# 4 0.0000 0.0000 0.0000 8.6830 0.0000 -0.0733
# 5 -0.9453 0.5273 0.7418 0.0000 0.9132 0.0000
# 6 0.0000 0.0000 0.0000 -0.0733 0.0000 25.2390
#
#
#
# Elastic Compliance Matrix: (Units=1/GPa)
#
#
# Indices 1 2 3 4 5 6 
#
# 1 0.012841 -0.005404 -0.000355 0.000000 0.016702 0.000000
# 2 -0.005404 0.010796 -0.006054 0.000000 -0.006909 0.000000
# 3 -0.000355 -0.006054 0.026608 0.000000 -0.018487 0.000000
# 4 0.000000 0.000000 0.000000 0.115170 0.000000 0.000334
# 5 0.016702 -0.006909 -0.018487 0.000000 1.131368 0.000000
# 6 0.000000 0.000000 0.000000 0.000334 0.000000 0.039622
#
#
# Mechanical properties :
#
#
# Convention : Reuss Voigt Hill
#
# Bulk Modulus (GPa) = 37.56921 56.38541 46.97731
# Shear Modulus (GPa) = 3.65255 19.27552 11.46404
#
# Velocity S-wave (km/s) = 1.37276 3.15354 2.43201
# Velocity P-wave (km/s) = 4.67929 6.50775 5.66774
#
# Compressibility (1/GPa) = 0.02661754
#
# Stress axis : x y z
#
# Youngs Moduli (GPa) = 77.87330 92.62945 37.58313
#
# Poissons Ratio (x) = 0.50060 0.01334
# Poissons Ratio (y) = 0.42085 0.22754
# Poissons Ratio (z) = 0.02764 0.56081
#
# Static dielectric constant tensor:
#      x y z
#    x 1.704520 0.000000 -0.000870 
#    y 0.000000 1.732790 0.000000 
#    z -0.000870 0.000000 1.657400 
# 
# From -- ./inp_files/298399.got.cif
#   From: 2010.05.17/outbox.cif.g08.bks.cpg/sg15_150_cif.got.tgz:298399.got - 2010.06.03 18:47:42.
