data_PCOD9257014
_publ_section_title
;
Structure prediction by ZEFSAII (Michael W. Deem and Ramdas Pophale) SiO2 
 PCOD9257014
Probable space group: C 2/C
;
_chemical_formula_sum "Si O2"
_cell_formula_units_Z 32
_cell_length_a 13.012541
_cell_length_b 8.983016
_cell_length_c 13.720005
_cell_angle_alpha 90.000000
_cell_angle_beta 137.079664
_cell_angle_gamma 90.000000
_cell_volume 1092.127741
_symmetry_space_group_name_H-M "C 2/C"
_symmetry_group_IT_number 15
_symmetry_cell_setting 'monoclinic'
loop_
_space_group_symop_operation_xyz
x,y,z
-x,y,1/2-z
-x,-y,-z
x,-y,1/2+z
1/2+x,1/2+y,z
1/2-x,1/2+y,1/2-z
1/2-x,1/2-y,-z
1/2+x,1/2-y,1/2+z
loop_
_atom_site_type_symbol
_atom_site_label
_atom_site_fract_x
_atom_site_fract_y
_atom_site_fract_z
Si Si1 0.843015 0.421684 0.184578
Si Si2 0.292998 0.982776 0.861079
Si Si3 0.035596 0.985545 0.909834
Si Si4 0.999613 0.322891 0.875879
O O1 0.811623 0.405660 0.279501
O O2 0.000000 0.360739 0.250000
O O3 0.880267 0.601974 0.218467
O O4 0.692913 0.399000 0.018247
O O5 0.120131 0.933463 0.747737
O O6 0.400456 0.845675 0.906879
O O7 0.362409 0.069151 0.999913
O O8 0.047605 0.157947 0.887404
O O9 0.000000 0.000000 0.000000
#
# Coordination Sequence:
#
# PCOD9257014 Si02
#       4
#     8   8   8   8
#     4   9  18  31  48  73 102 123 151 200 249 282
#     4   8  18  32  49  71  94 128 161 197 232 279
#     4  10  18  30  51  75  91 128 165 192 232 288
#     4   9  17  32  51  71  97 123 164 197 238 276
#
# _framework density 29.300602999999999
#
# number of rings (size 3 to 8) (size 9 to 14) (size 15 to 20)
#    1.500    1.500    0.000    1.500    0.000    1.000 
#    0.000    1.250    0.000    6.000    0.000    1.750 
#    0.000    0.000    0.000    0.000    0.000    0.000 
#
# Total GULP energy -89379.037028 kJ/mol
# GULP energy per Si atom -5586.189814 kJ/mol
# Density = 2.923391 g / cm^3
# Si number density = 29.300603 Si / 1000 Ang^3
#
#
#
# Elastic Constant Matrix: (Units=GPa)
#
#
# Indices 1 2 3 4 5 6 
#
# 1 129.3652 31.6241 82.0966 0.0000 16.0935 0.0000
# 2 31.6241 71.7169 22.0947 0.0000 2.2787 0.0000
# 3 82.0966 22.0947 286.9883 0.0000 29.4310 0.0000
# 4 0.0000 0.0000 0.0000 24.4610 0.0000 5.1126
# 5 16.0935 2.2787 29.4310 0.0000 68.3339 0.0000
# 6 0.0000 0.0000 0.0000 5.1126 0.0000 35.2432
#
#
#
# Elastic Compliance Matrix: (Units=1/GPa)
#
#
# Indices 1 2 3 4 5 6 
#
# 1 0.010435 -0.003771 -0.002569 0.000000 -0.001225 0.000000
# 2 -0.003771 0.015645 -0.000171 0.000000 0.000440 0.000000
# 3 -0.002569 -0.000171 0.004363 0.000000 -0.001268 0.000000
# 4 0.000000 0.000000 0.000000 0.042160 0.000000 -0.006116
# 5 -0.001225 0.000440 -0.001268 0.000000 0.015454 0.000000
# 6 0.000000 0.000000 0.000000 -0.006116 0.000000 0.029261
#
#
# Mechanical properties :
#
#
# Convention : Reuss Voigt Hill
#
# Bulk Modulus (GPa) = 57.40240 84.41124 70.90682
# Shear Modulus (GPa) = 36.72526 49.09129 42.90827
#
# Velocity S-wave (km/s) = 3.54417 4.09765 3.83092
# Velocity P-wave (km/s) = 6.03172 7.15953 6.61969
#
# Compressibility (1/GPa) = 0.01742087
#
# Stress axis : x y z
#
# Youngs Moduli (GPa) = 95.83512 63.91751 229.22284
#
# Poissons Ratio (x) = 0.24102 0.58887
# Poissons Ratio (y) = 0.36138 0.03918
# Poissons Ratio (z) = 0.24620 0.01092
#
# Static dielectric constant tensor:
#      x y z
#    x 2.650490 0.000000 -0.000410 
#    y 0.000000 2.245620 0.000000 
#    z -0.000410 0.000000 2.200480 
# 
# From -- ./inp_files/60378.got.cif
#   From: 2010.05.17/outbox.cif.g08.bks.cpg/sg15_31_cif.got.tgz:60378.got - 2010.06.03 18:47:42.
