data_PCOD9257952
_publ_section_title
;
Structure prediction by ZEFSAII (Michael W. Deem and Ramdas Pophale) SiO2 
 PCOD9257952
Probable space group: C 2/C
;
_chemical_formula_sum "Si O2"
_cell_formula_units_Z 56
_cell_length_a 16.755666
_cell_length_b 10.897854
_cell_length_c 11.874992
_cell_angle_alpha 90.000000
_cell_angle_beta 75.401615
_cell_angle_gamma 90.000000
_cell_volume 2098.379578
_symmetry_space_group_name_H-M "C 2/C"
_symmetry_group_IT_number 15
_symmetry_cell_setting 'monoclinic'
loop_
_space_group_symop_operation_xyz
x,y,z
-x,y,1/2-z
-x,-y,-z
x,-y,1/2+z
1/2+x,1/2+y,z
1/2-x,1/2+y,1/2-z
1/2-x,1/2-y,-z
1/2+x,1/2-y,1/2+z
loop_
_atom_site_type_symbol
_atom_site_label
_atom_site_fract_x
_atom_site_fract_y
_atom_site_fract_z
Si Si1 0.092873 0.475569 0.246709
Si Si2 0.305063 0.792192 0.740930
Si Si3 0.562310 0.266290 0.623828
Si Si4 0.794729 0.065927 0.402182
Si Si5 0.174679 0.357036 0.435186
Si Si6 0.591326 0.554719 0.829485
Si Si7 0.561877 0.653857 0.517236
O O1 0.154036 0.588878 0.217140
O O2 0.099387 0.361173 0.157749
O O3 0.113216 0.423254 0.365710
O O4 0.000000 0.518873 0.250000
O O5 0.233749 0.727702 0.837932
O O6 0.370736 0.690098 0.684859
O O7 0.264170 0.841929 0.642193
O O8 0.500000 0.305870 0.750000
O O9 0.638564 0.350431 0.560833
O O10 0.501595 0.272774 0.540341
O O11 0.734685 0.959202 0.467926
O O12 0.855022 0.004276 0.288606
O O13 0.126073 0.258479 0.528805
O O14 0.601359 0.452724 0.925525
O O15 0.493222 0.583170 0.872030
#
# Coordination Sequence:
#
# PCOD9257952 Si02
#       7
#     8   8   8   8   8   8   8
#     4  10  18  32  56  83 113 140 198 239 286 328
#     4  10  19  34  55  83 111 149 191 235 287 349
#     4  11  17  33  59  85 107 150 201 242 279 344
#     4  10  19  34  59  85 112 148 199 241 281 348
#     4  10  18  33  57  81 110 153 190 240 278 350
#     4  10  21  35  56  90 115 153 194 242 293 352
#     4  11  20  36  61  85 117 153 199 241 294 344
#
# _framework density 26.687260999999999
#
# number of rings (size 3 to 8) (size 9 to 14) (size 15 to 20)
#    0.000    1.714    7.143    0.000    0.000    0.000 
#    5.143    3.571    0.000    3.429    0.000    0.000 
#    0.000    0.000    0.000    0.000    0.000    0.000 
#
# Total GULP energy -156589.667891 kJ/mol
# GULP energy per Si atom -5592.488139 kJ/mol
# Density = 2.662652 g / cm^3
# Si number density = 26.687261 Si / 1000 Ang^3
#
#
#
# Elastic Constant Matrix: (Units=GPa)
#
#
# Indices 1 2 3 4 5 6 
#
# 1 100.2253 38.5611 9.8192 0.0000 -15.4518 0.0000
# 2 38.5611 122.3251 21.8417 0.0000 -13.2023 0.0000
# 3 9.8192 21.8417 98.8703 0.0000 -7.0520 0.0000
# 4 0.0000 0.0000 0.0000 38.4529 0.0000 -19.5694
# 5 -15.4518 -13.2023 -7.0520 0.0000 30.2672 0.0000
# 6 0.0000 0.0000 0.0000 -19.5694 0.0000 54.3343
#
#
#
# Elastic Compliance Matrix: (Units=1/GPa)
#
#
# Indices 1 2 3 4 5 6 
#
# 1 0.011956 -0.003242 -0.000139 0.000000 0.004658 0.000000
# 2 -0.003242 0.009733 -0.001671 0.000000 0.002201 0.000000
# 3 -0.000139 -0.001671 0.010617 0.000000 0.001674 0.000000
# 4 0.000000 0.000000 0.000000 0.031842 0.000000 0.011469
# 5 0.004658 0.002201 0.001674 0.000000 0.036767 0.000000
# 6 0.000000 0.000000 0.000000 0.011469 0.000000 0.022535
#
#
# Mechanical properties :
#
#
# Convention : Reuss Voigt Hill
#
# Bulk Modulus (GPa) = 45.04082 51.31830 48.17956
# Shear Modulus (GPa) = 35.47241 41.35744 38.41493
#
# Velocity S-wave (km/s) = 3.64976 3.94090 3.79812
# Velocity P-wave (km/s) = 5.88854 6.32289 6.10957
#
# Compressibility (1/GPa) = 0.02220208
#
# Stress axis : x y z
#
# Youngs Moduli (GPa) = 83.63736 102.74600 94.19178
#
# Poissons Ratio (x) = 0.33306 0.01311
# Poissons Ratio (y) = 0.27111 0.15741
# Poissons Ratio (z) = 0.01164 0.17170
#
# Static dielectric constant tensor:
#      x y z
#    x 2.131630 0.000000 0.042480 
#    y 0.000000 2.044220 0.000000 
#    z 0.042480 0.000000 2.069510 
# 
# From -- ./inp_files/248102.got.cif
#   From: 2010.05.17/outbox.cif.g08.bks.cpg/sg15_125_cif.got.tgz:248102.got - 2010.06.03 18:47:42.
