data_PCOD9257363
_publ_section_title
;
Structure prediction by ZEFSAII (Michael W. Deem and Ramdas Pophale) SiO2 
 PCOD9257363
Probable space group: C 2/C
;
_chemical_formula_sum "Si O2"
_cell_formula_units_Z 64
_cell_length_a 9.248607
_cell_length_b 18.351921
_cell_length_c 19.601261
_cell_angle_alpha 90.000000
_cell_angle_beta 56.030753
_cell_angle_gamma 90.000000
_cell_volume 2759.136719
_symmetry_space_group_name_H-M "C 2/C"
_symmetry_group_IT_number 15
_symmetry_cell_setting 'monoclinic'
loop_
_space_group_symop_operation_xyz
x,y,z
-x,y,1/2-z
-x,-y,-z
x,-y,1/2+z
1/2+x,1/2+y,z
1/2-x,1/2+y,1/2-z
1/2-x,1/2-y,-z
1/2+x,1/2-y,1/2+z
loop_
_atom_site_type_symbol
_atom_site_label
_atom_site_fract_x
_atom_site_fract_y
_atom_site_fract_z
Si Si1 0.372752 0.313837 0.533005
Si Si2 0.565720 0.191648 0.665038
Si Si3 0.331430 0.557503 0.840243
Si Si4 0.654424 0.532915 0.506730
Si Si5 0.205299 0.104202 0.170964
Si Si6 0.228308 0.218108 0.687489
Si Si7 0.908615 0.739446 0.141093
Si Si8 0.230378 0.877397 0.504692
O O1 0.280775 0.389083 0.534976
O O2 0.251909 0.272548 0.618365
O O3 0.440155 0.263333 0.452249
O O4 0.548666 0.345786 0.522635
O O5 0.500000 0.146582 0.750000
O O6 0.399569 0.238716 0.688265
O O7 0.739237 0.228200 0.647160
O O8 0.623425 0.162156 0.576762
O O9 0.500000 0.558668 0.750000
O O10 0.393762 0.548824 0.902003
O O11 0.241105 0.481253 0.843222
O O12 0.247167 0.635554 0.846499
O O13 0.500000 0.500000 0.500000
O O14 0.773423 0.462258 0.478750
O O15 0.349141 0.155804 0.168576
O O16 0.217251 0.128749 0.088803
O O17 0.000000 0.110132 0.250000
O O18 0.082876 0.222669 0.786391
#
# Coordination Sequence:
#
# PCOD9257363 Si02
#       8
#     8   8   8   8   8   8   8   8
#     4  10  19  32  55  80 108 145 182 225 275 328
#     4   9  18  32  52  78 109 142 175 224 286 338
#     4  10  22  38  56  78 109 148 188 233 281 332
#     4   9  19  36  56  78 104 144 191 228 268 326
#     4  10  18  31  52  77 105 136 176 226 275 322
#     4  11  21  34  54  80 110 144 181 226 285 340
#     4  10  19  33  54  84 112 136 179 231 278 333
#     4   9  17  32  54  80 109 139 181 229 270 321
#
# _framework density 23.195661000000001
#
# number of rings (size 3 to 8) (size 9 to 14) (size 15 to 20)
#    0.000    2.250    0.000    4.125    0.000    4.500 
#    0.000    5.625    0.000    0.750    0.000    0.000 
#    0.000    0.000    0.000    0.000    0.000    0.000 
#
# Total GULP energy -178223.497966 kJ/mol
# GULP energy per Si atom -5569.484311 kJ/mol
# Density = 2.314287 g / cm^3
# Si number density = 23.195661 Si / 1000 Ang^3
#
#
#
# Elastic Constant Matrix: (Units=GPa)
#
#
# Indices 1 2 3 4 5 6 
#
# 1 31.8384 21.2378 26.8354 0.0000 8.7926 0.0000
# 2 21.2378 147.0136 63.6547 0.0000 5.5680 0.0000
# 3 26.8354 63.6547 151.9102 0.0000 -2.0446 0.0000
# 4 0.0000 0.0000 0.0000 40.5182 0.0000 4.7268
# 5 8.7926 5.5680 -2.0446 0.0000 38.6230 0.0000
# 6 0.0000 0.0000 0.0000 4.7268 0.0000 26.5100
#
#
#
# Elastic Compliance Matrix: (Units=1/GPa)
#
#
# Indices 1 2 3 4 5 6 
#
# 1 0.041109 -0.002919 -0.006164 0.000000 -0.009264 0.000000
# 2 -0.002919 0.008592 -0.003094 0.000000 -0.000738 0.000000
# 3 -0.006164 -0.003094 0.009000 0.000000 0.002326 0.000000
# 4 0.000000 0.000000 0.000000 0.025205 0.000000 -0.004494
# 5 -0.009264 -0.000738 0.002326 0.000000 0.028230 0.000000
# 6 0.000000 0.000000 0.000000 -0.004494 0.000000 0.038523
#
#
# Mechanical properties :
#
#
# Convention : Reuss Voigt Hill
#
# Bulk Modulus (GPa) = 29.11522 61.57980 45.34751
# Shear Modulus (GPa) = 26.81533 35.73252 31.27392
#
# Velocity S-wave (km/s) = 3.40376 3.92916 3.67586
# Velocity P-wave (km/s) = 5.29403 6.86950 6.13256
#
# Compressibility (1/GPa) = 0.03434630
#
# Stress axis : x y z
#
# Youngs Moduli (GPa) = 24.32542 116.39345 111.11629
#
# Poissons Ratio (x) = 0.33976 0.68487
# Poissons Ratio (y) = 0.07101 0.34383
# Poissons Ratio (z) = 0.14993 0.36016
#
# Static dielectric constant tensor:
#      x y z
#    x 1.919810 0.000000 -0.016320 
#    y 0.000000 1.946400 0.000000 
#    z -0.016320 0.000000 1.812230 
# 
# From -- ./inp_files/239778.got.cif
#   From: 2010.05.17/outbox.cif.g08.bks.cpg/sg15_120_cif.got.tgz:239778.got - 2010.06.03 18:47:42.
