data_PCOD9257074
_publ_section_title
;
Structure prediction by ZEFSAII (Michael W. Deem and Ramdas Pophale) SiO2 
 PCOD9257074
Probable space group: C 2/C
;
_chemical_formula_sum "Si O2"
_cell_formula_units_Z 56
_cell_length_a 25.792270
_cell_length_b 17.460898
_cell_length_c 11.768960
_cell_angle_alpha 90.000000
_cell_angle_beta 33.258546
_cell_angle_gamma 90.000000
_cell_volume 2906.738064
_symmetry_space_group_name_H-M "C 2/C"
_symmetry_group_IT_number 15
_symmetry_cell_setting 'monoclinic'
loop_
_space_group_symop_operation_xyz
x,y,z
-x,y,1/2-z
-x,-y,-z
x,-y,1/2+z
1/2+x,1/2+y,z
1/2-x,1/2+y,1/2-z
1/2-x,1/2-y,-z
1/2+x,1/2-y,1/2+z
loop_
_atom_site_type_symbol
_atom_site_label
_atom_site_fract_x
_atom_site_fract_y
_atom_site_fract_z
Si Si1 0.101386 0.957187 0.615305
Si Si2 0.156259 0.303878 0.303089
Si Si3 0.259068 0.105598 0.663195
Si Si4 0.828385 0.143713 0.320274
Si Si5 0.081153 0.440107 0.327055
Si Si6 0.179936 0.434462 0.932984
Si Si7 0.260768 0.935917 0.908365
O O1 0.161661 0.912722 0.407671
O O2 0.101580 0.904184 0.728126
O O3 0.000000 0.974925 0.750000
O O4 0.162199 0.031275 0.541300
O O5 0.190520 0.323803 0.366803
O O6 0.130860 0.217748 0.318090
O O7 0.077568 0.365611 0.411623
O O8 0.245472 0.326689 0.057992
O O9 0.250540 0.110323 0.543281
O O10 0.318037 0.026945 0.579407
O O11 0.774855 0.092667 0.324361
O O12 0.176931 0.488504 0.176210
O O13 0.000000 0.500000 0.500000
O O14 0.093522 0.414379 0.173813
O O15 0.184397 0.399810 0.799127
#
# Coordination Sequence:
#
# PCOD9257074 Si02
#       7
#     8   8   8   8   8   8   8
#     4  10  18  30  53  81 106 139 178 232 294 327
#     4   9  16  31  54  75 101 144 184 226 287 325
#     4   9  16  32  51  76 107 135 179 229 278 340
#     4   9  16  31  54  75 106 143 184 230 278 337
#     4  10  18  30  53  77 104 138 187 236 276 319
#     4   9  16  32  51  77 106 140 180 231 272 327
#     4  10  18  34  48  78 115 133 185 235 269 348
#
# _framework density 19.265581000000001
#
# number of rings (size 3 to 8) (size 9 to 14) (size 15 to 20)
#    0.000    2.571    7.143    0.000    0.000    1.143 
#    0.000    0.714   12.571    0.000    7.429    0.000 
#    0.000    0.000    0.000    0.000    0.000    0.000 
#
# Total GULP energy -155877.267714 kJ/mol
# GULP energy per Si atom -5567.045275 kJ/mol
# Density = 1.922173 g / cm^3
# Si number density = 19.265581 Si / 1000 Ang^3
#
#
#
# Elastic Constant Matrix: (Units=GPa)
#
#
# Indices 1 2 3 4 5 6 
#
# 1 112.7995 31.8124 52.1551 0.0000 42.6698 0.0000
# 2 31.8124 54.6785 16.7583 0.0000 1.9613 0.0000
# 3 52.1551 16.7583 51.7362 0.0000 21.9760 0.0000
# 4 0.0000 0.0000 0.0000 18.6442 0.0000 3.7114
# 5 42.6698 1.9613 21.9760 0.0000 36.5594 0.0000
# 6 0.0000 0.0000 0.0000 3.7114 0.0000 19.0704
#
#
#
# Elastic Compliance Matrix: (Units=1/GPa)
#
#
# Indices 1 2 3 4 5 6 
#
# 1 0.026712 -0.010406 -0.014170 0.000000 -0.022101 0.000000
# 2 -0.010406 0.024769 -0.002857 0.000000 0.012533 0.000000
# 3 -0.014170 -0.002857 0.036861 0.000000 -0.005466 0.000000
# 4 0.000000 0.000000 0.000000 0.055798 0.000000 -0.010859
# 5 -0.022101 0.012533 -0.005466 0.000000 0.055760 0.000000
# 6 0.000000 0.000000 0.000000 -0.010859 0.000000 0.054551
#
#
# Mechanical properties :
#
#
# Convention : Reuss Voigt Hill
#
# Bulk Modulus (GPa) = 29.87203 46.74064 38.30634
# Shear Modulus (GPa) = 15.60189 22.75401 19.17795
#
# Velocity S-wave (km/s) = 2.84884 3.44040 3.15850
# Velocity P-wave (km/s) = 5.13422 6.33211 5.76437
#
# Compressibility (1/GPa) = 0.03347613
#
# Stress axis : x y z
#
# Youngs Moduli (GPa) = 37.43649 40.37325 27.12924
#
# Poissons Ratio (x) = 0.42011 0.38442
# Poissons Ratio (y) = 0.38955 0.07751
# Poissons Ratio (z) = 0.53047 0.11535
#
# Static dielectric constant tensor:
#      x y z
#    x 1.738050 0.000000 0.039700 
#    y 0.000000 1.700770 0.000000 
#    z 0.039700 0.000000 1.731380 
# 
# From -- ./inp_files/119213.got.cif
#   From: 2010.05.17/outbox.cif.g08.bks.cpg/sg15_60_cif.got.tgz:119213.got - 2010.06.03 18:47:42.
