data_PCOD9257059
_publ_section_title
;
Structure prediction by ZEFSAII (Michael W. Deem and Ramdas Pophale) SiO2 
 PCOD9257059
Probable space group: C 2/C
;
_chemical_formula_sum "Si O2"
_cell_formula_units_Z 28
_cell_length_a 9.346217
_cell_length_b 10.536796
_cell_length_c 13.043808
_cell_angle_alpha 90.000000
_cell_angle_beta 45.613692
_cell_angle_gamma 90.000000
_cell_volume 917.986014
_symmetry_space_group_name_H-M "C 2/C"
_symmetry_group_IT_number 15
_symmetry_cell_setting 'monoclinic'
loop_
_space_group_symop_operation_xyz
x,y,z
-x,y,1/2-z
-x,-y,-z
x,-y,1/2+z
1/2+x,1/2+y,z
1/2-x,1/2+y,1/2-z
1/2-x,1/2-y,-z
1/2+x,1/2-y,1/2+z
loop_
_atom_site_type_symbol
_atom_site_label
_atom_site_fract_x
_atom_site_fract_y
_atom_site_fract_z
Si Si1 0.605256 0.071779 0.544474
Si Si2 0.682182 0.660789 0.802933
Si Si3 0.500000 0.560534 0.250000
Si Si4 0.278198 0.342247 0.582759
O O1 0.694141 0.973935 0.583814
O O2 0.807048 0.131132 0.393112
O O3 0.500000 0.000000 0.500000
O O4 0.418795 0.142622 0.688175
O O5 0.595488 0.538045 0.784479
O O6 0.671093 0.785056 0.735319
O O7 0.519385 0.665393 0.974588
O O8 0.250000 0.250000 0.500000
#
# Coordination Sequence:
#
# PCOD9257059 Si02
#       4
#     8   8   4   8
#     4   9  16  27  47  77 106 139 182 224 271 329
#     4  10  18  30  52  81 104 143 185 224 277 329
#     4   8  14  26  46  74  98 134 180 216 264 318
#     4  11  17  31  53  81 106 140 189 224 272 337
#
# _framework density 30.501553999999999
#
# number of rings (size 3 to 8) (size 9 to 14) (size 15 to 20)
#    0.000    2.286    8.571    0.000    0.000    0.000 
#    0.000    0.000    0.000   15.429    0.000    0.000 
#    0.000    0.000    0.000    0.000    0.000    0.000 
#
# Total GULP energy -78528.567193 kJ/mol
# GULP energy per Si atom -5609.183371 kJ/mol
# Density = 3.043213 g / cm^3
# Si number density = 30.501554 Si / 1000 Ang^3
#
#
#
# Elastic Constant Matrix: (Units=GPa)
#
#
# Indices 1 2 3 4 5 6 
#
# 1 143.5765 50.8774 81.5819 0.0000 -19.9073 0.0000
# 2 50.8774 74.6766 60.1321 0.0000 -23.3544 0.0000
# 3 81.5819 60.1321 308.9928 0.0000 -73.4966 0.0000
# 4 0.0000 0.0000 0.0000 64.3725 0.0000 -8.1579
# 5 -19.9073 -23.3544 -73.4966 0.0000 72.9916 0.0000
# 6 0.0000 0.0000 0.0000 -8.1579 0.0000 64.4759
#
#
#
# Elastic Compliance Matrix: (Units=1/GPa)
#
#
# Indices 1 2 3 4 5 6 
#
# 1 0.009784 -0.005556 -0.001697 0.000000 -0.000817 0.000000
# 2 -0.005556 0.019415 -0.001570 0.000000 0.003116 0.000000
# 3 -0.001697 -0.001570 0.004945 0.000000 0.004014 0.000000
# 4 0.000000 0.000000 0.000000 0.015788 0.000000 0.001998
# 5 -0.000817 0.003116 0.004014 0.000000 0.018515 0.000000
# 6 0.000000 0.000000 0.000000 0.001998 0.000000 0.015762
#
#
# Mechanical properties :
#
#
# Convention : Reuss Voigt Hill
#
# Bulk Modulus (GPa) = 60.61072 101.38098 80.99585
# Shear Modulus (GPa) = 46.57488 62.67831 54.62660
#
# Velocity S-wave (km/s) = 3.91188 4.53804 4.23655
# Velocity P-wave (km/s) = 6.34967 7.79542 7.10939
#
# Compressibility (1/GPa) = 0.01649873
#
# Stress axis : x y z
#
# Youngs Moduli (GPa) = 102.20502 51.50660 202.24364
#
# Poissons Ratio (x) = 0.28615 0.34312
# Poissons Ratio (y) = 0.56780 0.31761
# Poissons Ratio (z) = 0.17340 0.08089
#
# Static dielectric constant tensor:
#      x y z
#    x 2.536980 0.000000 -0.010220 
#    y 0.000000 2.468810 0.000000 
#    z -0.010220 0.000000 2.285280 
# 
# From -- ./inp_files/133041.got.cif
#   From: 2010.05.17/outbox.cif.g08.bks.cpg/sg15_67_cif.got.tgz:133041.got - 2010.06.03 18:47:42.
