data_PCOD9257892
_publ_section_title
;
Structure prediction by ZEFSAII (Michael W. Deem and Ramdas Pophale) SiO2 
 PCOD9257892
Probable space group: C 2/C
;
_chemical_formula_sum "Si O2"
_cell_formula_units_Z 64
_cell_length_a 9.781116
_cell_length_b 20.751468
_cell_length_c 23.173391
_cell_angle_alpha 90.000000
_cell_angle_beta 136.909315
_cell_angle_gamma 90.000000
_cell_volume 3213.261802
_symmetry_space_group_name_H-M "C 2/C"
_symmetry_group_IT_number 15
_symmetry_cell_setting 'monoclinic'
loop_
_space_group_symop_operation_xyz
x,y,z
-x,y,1/2-z
-x,-y,-z
x,-y,1/2+z
1/2+x,1/2+y,z
1/2-x,1/2+y,1/2-z
1/2-x,1/2-y,-z
1/2+x,1/2-y,1/2+z
loop_
_atom_site_type_symbol
_atom_site_label
_atom_site_fract_x
_atom_site_fract_y
_atom_site_fract_z
Si Si1 0.130832 0.403577 0.172886
Si Si2 0.655343 0.117066 0.550241
Si Si3 0.449982 0.900543 0.671629
Si Si4 0.098499 0.010536 0.935218
Si Si5 0.644196 0.460626 0.743533
Si Si6 0.582158 0.200441 0.426801
Si Si7 0.247959 0.538927 0.897675
Si Si8 0.050012 0.202040 0.700993
O O1 0.067190 0.395589 0.086249
O O2 0.271150 0.467275 0.217560
O O3 0.258812 0.343179 0.232868
O O4 0.942882 0.415952 0.156058
O O5 0.725579 0.051965 0.539545
O O6 0.524470 0.159483 0.465657
O O7 0.861348 0.156436 0.626058
O O8 0.500000 0.874512 0.750000
O O9 0.660546 0.917777 0.706199
O O10 0.336775 0.851917 0.594476
O O11 0.332415 0.967573 0.643578
O O12 0.922753 0.056376 0.907289
O O13 0.991984 0.967118 0.854900
O O14 0.168711 0.970438 0.012079
O O15 0.500000 0.439168 0.750000
O O16 0.750000 0.250000 0.500000
O O17 0.431924 0.242998 0.341885
O O18 0.000000 0.227430 0.750000
#
# Coordination Sequence:
#
# PCOD9257892 Si02
#       8
#     8   8   8   8   8   8   8   8
#     4  10  19  33  55  85 113 144 187 229 278 332
#     4  10  18  32  55  81 114 141 187 228 276 333
#     4  11  21  35  54  85 113 144 190 232 274 337
#     4  11  19  36  51  81 123 147 176 217 282 340
#     4  11  20  33  56  85 119 153 174 220 287 341
#     4  10  21  35  56  82 107 148 193 242 276 315
#     4  10  23  33  53  84 121 150 176 224 286 348
#     4   9  17  33  54  79 107 141 190 241 274 317
#
# _framework density 19.917456999999999
#
# number of rings (size 3 to 8) (size 9 to 14) (size 15 to 20)
#    0.000    1.750    5.000    0.750    0.000    1.500 
#    0.000    0.000    0.000    3.000    0.000   19.250 
#    0.000    0.000    0.000    0.000    0.000    0.000 
#
# Total GULP energy -178595.786007 kJ/mol
# GULP energy per Si atom -5581.118313 kJ/mol
# Density = 1.987212 g / cm^3
# Si number density = 19.917457 Si / 1000 Ang^3
#
#
#
# Elastic Constant Matrix: (Units=GPa)
#
#
# Indices 1 2 3 4 5 6 
#
# 1 79.2408 19.6538 19.9696 -0.0002 0.6320 -0.0001
# 2 19.6538 62.2398 28.5752 -0.0001 -3.5377 -0.0001
# 3 19.9696 28.5752 90.6386 0.0000 -27.6330 -0.0001
# 4 -0.0002 -0.0001 0.0000 28.9588 -0.0001 -2.8921
# 5 0.6320 -3.5377 -27.6330 -0.0001 28.5349 -0.0001
# 6 -0.0001 -0.0001 -0.0001 -2.8921 -0.0001 2.7424
#
#
#
# Elastic Compliance Matrix: (Units=1/GPa)
#
#
# Indices 1 2 3 4 5 6 
#
# 1 0.014288 -0.003201 -0.003343 0.000000 -0.003951 0.000000
# 2 -0.003201 0.019985 -0.006837 0.000000 -0.004072 0.000000
# 3 -0.003343 -0.006837 0.019423 0.000000 0.018036 0.000001
# 4 0.000000 0.000000 0.000000 0.038597 0.000000 0.040705
# 5 -0.003951 -0.004072 0.018036 0.000000 0.052093 0.000003
# 6 0.000000 0.000000 0.000001 0.040705 0.000003 0.407572
#
#
# Mechanical properties :
#
#
# Convention : Reuss Voigt Hill
#
# Bulk Modulus (GPa) = 37.12794 40.94628 39.03711
# Shear Modulus (GPa) = 8.50776 22.97524 15.74150
#
# Velocity S-wave (km/s) = 2.06900 3.40004 2.81434
# Velocity P-wave (km/s) = 4.93853 6.00136 5.49570
#
# Compressibility (1/GPa) = 0.02693389
#
# Stress axis : x y z
#
# Youngs Moduli (GPa) = 69.98977 50.03694 51.48424
#
# Poissons Ratio (x) = 0.16019 0.17212
# Poissons Ratio (y) = 0.22407 0.35199
# Poissons Ratio (z) = 0.23398 0.34209
#
# Static dielectric constant tensor:
#      x y z
#    x 1.693690 0.000000 -0.002080 
#    y 0.000000 1.718500 0.000000 
#    z -0.002080 0.000000 1.773090 
# 
# From -- ./inp_files/234456.got.cif
#   From: 2010.05.17/outbox.cif.g08.bks.cpg/sg15_118_cif.got.tgz:234456.got - 2010.06.03 18:47:42.
