data_PCOD9257181
_publ_section_title
;
Structure prediction by ZEFSAII (Michael W. Deem and Ramdas Pophale) SiO2 
 PCOD9257181
Probable space group: C 2/C
;
_chemical_formula_sum "Si O2"
_cell_formula_units_Z 44
_cell_length_a 9.799781
_cell_length_b 17.190622
_cell_length_c 13.675678
_cell_angle_alpha 90.000000
_cell_angle_beta 54.493831
_cell_angle_gamma 90.000000
_cell_volume 1875.467331
_symmetry_space_group_name_H-M "C 2/C"
_symmetry_group_IT_number 15
_symmetry_cell_setting 'monoclinic'
loop_
_space_group_symop_operation_xyz
x,y,z
-x,y,1/2-z
-x,-y,-z
x,-y,1/2+z
1/2+x,1/2+y,z
1/2-x,1/2+y,1/2-z
1/2-x,1/2-y,-z
1/2+x,1/2-y,1/2+z
loop_
_atom_site_type_symbol
_atom_site_label
_atom_site_fract_x
_atom_site_fract_y
_atom_site_fract_z
Si Si1 0.223174 0.339331 0.489229
Si Si2 0.771744 0.468559 0.680932
Si Si3 0.500000 0.422610 0.250000
Si Si4 0.646594 0.006306 0.082465
Si Si5 0.313981 0.158091 0.871157
Si Si6 0.652529 0.811490 0.913484
O O1 0.250000 0.250000 0.500000
O O2 0.368825 0.367856 0.358236
O O3 0.213306 0.406794 0.576294
O O4 0.038168 0.338786 0.520015
O O5 0.609289 0.519393 0.772322
O O6 0.806618 0.490194 0.551448
O O7 0.744704 0.375573 0.691175
O O8 0.943416 0.490150 0.665520
O O9 0.719111 0.934028 0.112199
O O10 0.500000 0.169810 0.750000
O O11 0.193267 0.221857 0.871185
O O12 0.312353 0.177466 0.986878
#
# Coordination Sequence:
#
# PCOD9257181 Si02
#       6
#     8   8   4   8   8   8
#     4  10  21  38  58  79 115 152 190 232 282 336
#     4   8  15  30  55  77 103 135 188 227 267 325
#     4  10  18  30  58  80 100 148 196 220 268 348
#     4   8  16  34  52  76 106 142 175 231 281 324
#     4  10  19  33  59  83 116 146 184 231 294 334
#     4   9  20  36  54  86 116 144 184 241 277 334
#
# _framework density 23.460818
#
# number of rings (size 3 to 8) (size 9 to 14) (size 15 to 20)
#    0.000    2.909    0.000    3.273    1.273    2.909 
#    1.636    0.909    0.000    2.182    0.000    0.000 
#    0.000    0.000    0.000    0.000    0.000    0.000 
#
# Total GULP energy -122712.816903 kJ/mol
# GULP energy per Si atom -5577.855314 kJ/mol
# Density = 2.340742 g / cm^3
# Si number density = 23.460818 Si / 1000 Ang^3
#
#
#
# Elastic Constant Matrix: (Units=GPa)
#
#
# Indices 1 2 3 4 5 6 
#
# 1 59.4201 53.1110 17.3271 0.0000 -10.1588 0.0000
# 2 53.1110 262.3573 60.8073 0.0000 -21.9347 0.0000
# 3 17.3271 60.8073 67.9991 0.0000 -20.8713 0.0000
# 4 0.0000 0.0000 0.0000 -1.3493 0.0000 -50.2521
# 5 -10.1588 -21.9347 -20.8713 0.0000 27.9381 0.0000
# 6 0.0000 0.0000 0.0000 -50.2521 0.0000 -29.6773
#
#
#
# Elastic Compliance Matrix: (Units=1/GPa)
#
#
# Indices 1 2 3 4 5 6 
#
# 1 0.021114 -0.003753 -0.000742 0.000000 0.004177 0.000000
# 2 -0.003753 0.005487 -0.003953 0.000000 -0.000010 0.000000
# 3 -0.000742 -0.003953 0.022570 0.000000 0.013487 0.000000
# 4 0.000000 0.000000 0.000000 0.011941 0.000000 -0.020220
# 5 0.004177 -0.000010 0.013487 0.000000 0.047380 0.000000
# 6 0.000000 0.000000 0.000000 -0.020220 0.000000 0.000543
#
#
# Mechanical properties :
#
#
# Convention : Reuss Voigt Hill
#
# Bulk Modulus (GPa) = 30.98444 72.47413 51.72928
# Shear Modulus (GPa) = 36.57892 16.61771 26.59832
#
# Velocity S-wave (km/s) = 3.95289 2.66431 3.37075
# Velocity P-wave (km/s) = 5.83690 6.35794 6.10298
#
# Compressibility (1/GPa) = 0.03227427
#
# Stress axis : x y z
#
# Youngs Moduli (GPa) = 47.36098 182.25617 44.30637
#
# Poissons Ratio (x) = 0.68404 0.03288
# Poissons Ratio (y) = 0.17775 0.17516
# Poissons Ratio (z) = 0.03515 0.72051
#
# Static dielectric constant tensor:
#      x y z
#    x 1.894430 0.000000 0.006390 
#    y 0.000000 2.023120 0.000000 
#    z 0.006390 0.000000 1.917210 
# 
# From -- ./inp_files/142964.got.cif
#   From: 2010.05.17/outbox.cif.g08.bks.cpg/sg15_72_cif.got.tgz:142964.got - 2010.06.03 18:47:42.
