data_PCOD9257610
_publ_section_title
;
Structure prediction by ZEFSAII (Michael W. Deem and Ramdas Pophale) SiO2 
 PCOD9257610
Probable space group: C 2/C
;
_chemical_formula_sum "Si O2"
_cell_formula_units_Z 36
_cell_length_a 21.586142
_cell_length_b 11.634635
_cell_length_c 8.906185
_cell_angle_alpha 90.000000
_cell_angle_beta 136.659537
_cell_angle_gamma 90.000000
_cell_volume 1535.160701
_symmetry_space_group_name_H-M "C 2/C"
_symmetry_group_IT_number 15
_symmetry_cell_setting 'monoclinic'
loop_
_space_group_symop_operation_xyz
x,y,z
-x,y,1/2-z
-x,-y,-z
x,-y,1/2+z
1/2+x,1/2+y,z
1/2-x,1/2+y,1/2-z
1/2-x,1/2-y,-z
1/2+x,1/2-y,1/2+z
loop_
_atom_site_type_symbol
_atom_site_label
_atom_site_fract_x
_atom_site_fract_y
_atom_site_fract_z
Si Si1 0.540952 0.224490 0.566095
Si Si2 0.193251 0.679012 0.022631
Si Si3 0.000000 0.091963 0.250000
Si Si4 0.349798 0.725171 0.737160
Si Si5 0.362815 0.399734 0.974445
O O1 0.606138 0.138392 0.773500
O O2 0.436646 0.192507 0.355247
O O3 0.530166 0.329576 0.665004
O O4 0.591969 0.284246 0.516893
O O5 0.250000 0.750000 0.000000
O O6 0.162416 0.760894 0.105939
O O7 0.076903 0.008911 0.448685
O O8 0.250000 0.750000 0.500000
O O9 0.368120 0.615634 0.663417
O O10 0.236778 0.907647 0.773784
#
# Coordination Sequence:
#
# PCOD9257610 Si02
#       5
#     8   8   4   8   8
#     4  11  19  33  51  77 107 137 173 217 263 310
#     4   9  19  33  48  68 105 140 174 206 260 318
#     4  12  20  30  54  80 114 132 174 220 272 302
#     4  10  18  32  49  72 105 136 176 213 258 308
#     4  10  21  31  47  75 110 137 169 213 268 311
#
# _framework density 23.450313000000001
#
# number of rings (size 3 to 8) (size 9 to 14) (size 15 to 20)
#    0.000    1.778    4.444    0.667    0.000    0.000 
#    0.000    0.000    0.000    0.000    0.000    1.556 
#   46.667    0.444    0.000    0.000    0.000    0.222 
#
# Total GULP energy -100216.373727 kJ/mol
# GULP energy per Si atom -5567.576318 kJ/mol
# Density = 2.339694 g / cm^3
# Si number density = 23.450313 Si / 1000 Ang^3
#
#
#
# Elastic Constant Matrix: (Units=GPa)
#
#
# Indices 1 2 3 4 5 6 
#
# 1 112.1174 3.3943 26.4756 0.0000 -17.5323 0.0000
# 2 3.3943 15.6757 16.2783 0.0000 -1.8562 0.0000
# 3 26.4756 16.2783 192.5582 0.0000 19.8750 0.0000
# 4 0.0000 0.0000 0.0000 21.0318 0.0000 -4.2988
# 5 -17.5323 -1.8562 19.8750 0.0000 49.0167 0.0000
# 6 0.0000 0.0000 0.0000 -4.2988 0.0000 15.6929
#
#
#
# Elastic Compliance Matrix: (Units=1/GPa)
#
#
# Indices 1 2 3 4 5 6 
#
# 1 0.010028 0.000264 -0.001850 0.000000 0.004347 0.000000
# 2 0.000264 0.071266 -0.006627 0.000000 0.005480 0.000000
# 3 -0.001850 -0.006627 0.006368 0.000000 -0.003495 0.000000
# 4 0.000000 0.000000 0.000000 0.050367 0.000000 0.013797
# 5 0.004347 0.005480 -0.003495 0.000000 0.023581 0.000000
# 6 0.000000 0.000000 0.000000 0.013797 0.000000 0.067503
#
#
# Mechanical properties :
#
#
# Convention : Reuss Voigt Hill
#
# Bulk Modulus (GPa) = 14.03745 45.84974 29.94359
# Shear Modulus (GPa) = 18.56784 35.42848 26.99816
#
# Velocity S-wave (km/s) = 2.81694 3.89110 3.39675
# Velocity P-wave (km/s) = 4.07176 6.30729 5.30854
#
# Compressibility (1/GPa) = 0.07123800
#
# Stress axis : x y z
#
# Youngs Moduli (GPa) = 99.72333 14.03195 157.02359
#
# Poissons Ratio (x) = -0.00371 0.29045
# Poissons Ratio (y) = -0.02635 1.04053
# Poissons Ratio (z) = 0.18446 0.09298
#
# Static dielectric constant tensor:
#      x y z
#    x 1.974000 0.000000 0.063160 
#    y 0.000000 1.899490 0.000000 
#    z 0.063160 0.000000 2.075070 
# 
# From -- ./inp_files/104662.got.cif
#   From: 2010.05.17/outbox.cif.g08.bks.cpg/sg15_53_cif.got.tgz:104662.got - 2010.06.03 18:47:42.
