data_PCOD9257607
_publ_section_title
;
Structure prediction by ZEFSAII (Michael W. Deem and Ramdas Pophale) SiO2 
 PCOD9257607
Probable space group: C 2/C
;
_chemical_formula_sum "Si O2"
_cell_formula_units_Z 48
_cell_length_a 23.559259
_cell_length_b 13.426414
_cell_length_c 27.519822
_cell_angle_alpha 90.000000
_cell_angle_beta 21.241659
_cell_angle_gamma 90.000000
_cell_volume 3153.831149
_symmetry_space_group_name_H-M "C 2/C"
_symmetry_group_IT_number 15
_symmetry_cell_setting 'monoclinic'
loop_
_space_group_symop_operation_xyz
x,y,z
-x,y,1/2-z
-x,-y,-z
x,-y,1/2+z
1/2+x,1/2+y,z
1/2-x,1/2+y,1/2-z
1/2-x,1/2-y,-z
1/2+x,1/2-y,1/2+z
loop_
_atom_site_type_symbol
_atom_site_label
_atom_site_fract_x
_atom_site_fract_y
_atom_site_fract_z
Si Si1 0.491212 0.947014 0.081881
Si Si2 0.253425 0.842438 0.563957
Si Si3 0.857183 0.867675 0.131847
Si Si4 0.554848 0.347108 0.627036
Si Si5 0.469297 0.445761 0.600286
Si Si6 0.379814 0.136807 0.122566
O O1 0.326883 0.893124 0.223925
O O2 0.458718 0.063914 0.099125
O O3 0.626741 0.924493 0.011993
O O4 0.549122 0.898384 0.985303
O O5 0.360325 0.746180 0.466782
O O6 0.164730 0.872572 0.585232
O O7 0.116125 0.822371 0.713286
O O8 0.893280 0.754557 0.117080
O O9 0.935388 0.943030 0.108299
O O10 0.925367 0.893251 0.024521
O O11 0.535780 0.431244 0.601205
O O12 0.302725 0.390485 0.732477
#
# Coordination Sequence:
#
# PCOD9257607 Si02
#       6
#     8   8   8   8   8   8
#     4  10  20  30  49  73  96 126 160 195 239 285
#     4  10  20  33  49  72  97 130 162 197 241 285
#     4  10  20  32  49  70 101 128 156 196 239 288
#     4  10  20  33  50  70  99 129 162 198 239 287
#     4  10  20  32  47  73  97 129 159 191 244 285
#     4  10  18  32  49  70  97 126 158 198 238 285
#
# _framework density 15.219583999999999
#
# number of rings (size 3 to 8) (size 9 to 14) (size 15 to 20)
#    0.000    2.000    1.667    3.000    2.333    0.000 
#    0.000    0.000    0.000    1.000    0.000    0.000 
#    0.000    0.000    0.000    0.000    0.000    0.000 
#
# Total GULP energy -133783.068471 kJ/mol
# GULP energy per Si atom -5574.294520 kJ/mol
# Density = 1.518494 g / cm^3
# Si number density = 15.219584 Si / 1000 Ang^3
#
#
#
# Elastic Constant Matrix: (Units=GPa)
#
#
# Indices 1 2 3 4 5 6 
#
# 1 90.1992 50.2563 43.0845 -0.0011 -2.4124 -0.0001
# 2 50.2563 123.4863 41.3553 0.0000 -4.2135 0.0004
# 3 43.0845 41.3553 130.0100 0.0011 4.5648 0.0003
# 4 -0.0011 0.0000 0.0011 24.3456 -0.0002 2.1955
# 5 -2.4124 -4.2135 4.5648 -0.0002 24.7457 -0.0001
# 6 -0.0001 0.0004 0.0003 2.1955 -0.0001 20.2132
#
#
#
# Elastic Compliance Matrix: (Units=1/GPa)
#
#
# Indices 1 2 3 4 5 6 
#
# 1 0.015713 -0.005138 -0.003620 0.000001 0.001325 0.000000
# 2 -0.005138 0.010852 -0.001808 0.000000 0.001681 0.000000
# 3 -0.003620 -0.001808 0.009552 -0.000001 -0.002423 0.000000
# 4 0.000001 0.000000 -0.000001 0.041481 0.000001 -0.004506
# 5 0.001325 0.001681 -0.002423 0.000001 0.041273 0.000000
# 6 0.000000 0.000000 0.000000 -0.004506 0.000000 0.049962
#
#
# Mechanical properties :
#
#
# Convention : Reuss Voigt Hill
#
# Bulk Modulus (GPa) = 66.73018 68.12084 67.42551
# Shear Modulus (GPa) = 25.64628 27.79421 26.72024
#
# Velocity S-wave (km/s) = 4.10943 4.27806 4.19459
# Velocity P-wave (km/s) = 8.15210 8.32215 8.23756
#
# Compressibility (1/GPa) = 0.01498572
#
# Stress axis : x y z
#
# Youngs Moduli (GPa) = 63.63964 92.14957 104.69534
#
# Poissons Ratio (x) = 0.47343 0.37896
# Poissons Ratio (y) = 0.32696 0.18933
# Poissons Ratio (z) = 0.23035 0.16664
#
# Static dielectric constant tensor:
#      x y z
#    x 1.508090 0.000000 0.008310 
#    y 0.000000 1.495720 0.000000 
#    z 0.008310 0.000000 1.538260 
# 
# From -- ./inp_files/55434.got.cif
#   From: 2010.05.17/outbox.cif.g08.bks.cpg/sg15_28_cif.got.tgz:55434.got - 2010.06.03 18:47:42.
