data_PCOD9257066
_publ_section_title
;
Structure prediction by ZEFSAII (Michael W. Deem and Ramdas Pophale) SiO2 
 PCOD9257066
Probable space group: C 2/C
;
_chemical_formula_sum "Si O2"
_cell_formula_units_Z 52
_cell_length_a 16.913412
_cell_length_b 21.819338
_cell_length_c 10.424266
_cell_angle_alpha 90.000000
_cell_angle_beta 47.984154
_cell_angle_gamma 90.000000
_cell_volume 2858.140428
_symmetry_space_group_name_H-M "C 2/C"
_symmetry_group_IT_number 15
_symmetry_cell_setting 'monoclinic'
loop_
_space_group_symop_operation_xyz
x,y,z
-x,y,1/2-z
-x,-y,-z
x,-y,1/2+z
1/2+x,1/2+y,z
1/2-x,1/2+y,1/2-z
1/2-x,1/2-y,-z
1/2+x,1/2-y,1/2+z
loop_
_atom_site_type_symbol
_atom_site_label
_atom_site_fract_x
_atom_site_fract_y
_atom_site_fract_z
Si Si1 0.888559 0.949616 0.295528
Si Si2 0.294221 0.420520 0.872507
Si Si3 0.436101 0.343956 0.087220
Si Si4 0.000000 0.141077 0.250000
Si Si5 0.745536 0.259561 0.286355
Si Si6 0.626667 0.822328 0.130577
Si Si7 0.154711 0.146950 0.450597
O O1 0.917444 0.916766 0.129253
O O2 0.833362 0.896069 0.439421
O O3 0.000000 0.965229 0.250000
O O4 0.811387 0.006914 0.360530
O O5 0.391017 0.395437 0.854276
O O6 0.319394 0.395831 0.701782
O O7 0.187927 0.387124 0.038651
O O8 0.327325 0.308054 0.208044
O O9 0.487546 0.324526 0.895832
O O10 0.531464 0.332602 0.080573
O O11 0.676864 0.222938 0.468531
O O12 0.835752 0.294267 0.272939
O O13 0.782311 0.208773 0.144976
O O14 0.500000 0.826872 0.250000
#
# Coordination Sequence:
#
# PCOD9257066 Si02
#       7
#     8   8   8   4   8   8   8
#     4  10  21  34  53  78 108 140 173 219 268 317
#     4  10  19  32  54  77 109 136 169 224 266 307
#     4  10  20  32  53  78 108 138 169 217 275 309
#     4  10  18  30  52  86 102 128 174 210 264 322
#     4  10  19  33  53  77 106 143 171 223 266 309
#     4  10  20  32  53  82 109 137 177 221 270 307
#     4   9  21  33  49  82 107 133 182 217 259 320
#
# _framework density 18.193648
#
# number of rings (size 3 to 8) (size 9 to 14) (size 15 to 20)
#    0.000    2.154    2.308    0.923    5.385    2.462 
#    0.000    0.000    0.000   10.154    0.000    0.000 
#    0.000    0.000    0.000    0.000    0.000    0.000 
#
# Total GULP energy -144759.344922 kJ/mol
# GULP energy per Si atom -5567.667112 kJ/mol
# Density = 1.815224 g / cm^3
# Si number density = 18.193648 Si / 1000 Ang^3
#
#
#
# Elastic Constant Matrix: (Units=GPa)
#
#
# Indices 1 2 3 4 5 6 
#
# 1 60.6191 47.6785 41.9591 0.0000 -15.9464 0.0000
# 2 47.6785 108.1030 35.2543 0.0000 -18.7583 0.0000
# 3 41.9591 35.2543 72.4448 0.0000 -11.7247 0.0000
# 4 0.0000 0.0000 0.0000 14.6119 0.0000 -6.7831
# 5 -15.9464 -18.7583 -11.7247 0.0000 38.6282 0.0000
# 6 0.0000 0.0000 0.0000 -6.7831 0.0000 22.7188
#
#
#
# Elastic Compliance Matrix: (Units=1/GPa)
#
#
# Indices 1 2 3 4 5 6 
#
# 1 0.036553 -0.010167 -0.015334 0.000000 0.005498 0.000000
# 2 -0.010167 0.014414 -0.000707 0.000000 0.002588 0.000000
# 3 -0.015334 -0.000707 0.023083 0.000000 0.000333 0.000000
# 4 0.000000 0.000000 0.000000 0.079449 0.000000 0.023721
# 5 0.005498 0.002588 0.000333 0.000000 0.029515 0.000000
# 6 0.000000 0.000000 0.000000 0.023721 0.000000 0.051099
#
#
# Mechanical properties :
#
#
# Convention : Reuss Voigt Hill
#
# Bulk Modulus (GPa) = 46.22218 54.55006 50.38612
# Shear Modulus (GPa) = 17.02190 22.94344 19.98267
#
# Velocity S-wave (km/s) = 3.06207 3.55501 3.31770
# Velocity P-wave (km/s) = 6.16137 6.84828 6.51388
#
# Compressibility (1/GPa) = 0.02163464
#
# Stress axis : x y z
#
# Youngs Moduli (GPa) = 27.35761 69.37610 43.32275
#
# Poissons Ratio (x) = 0.70534 0.66429
# Poissons Ratio (y) = 0.27814 0.03063
# Poissons Ratio (z) = 0.41949 0.04905
#
# Static dielectric constant tensor:
#      x y z
#    x 1.650980 0.000000 0.035700 
#    y 0.000000 1.658950 0.000000 
#    z 0.035700 0.000000 1.682240 
# 
# From -- ./inp_files/99712.got.cif
#   From: 2010.05.17/outbox.cif.g08.bks.cpg/sg15_50_cif.got.tgz:99712.got - 2010.06.03 18:47:42.
