data_PCOD9257838
_publ_section_title
;
Structure prediction by ZEFSAII (Michael W. Deem and Ramdas Pophale) SiO2 
 PCOD9257838
Probable space group: C 2/C
;
_chemical_formula_sum "Si O2"
_cell_formula_units_Z 52
_cell_length_a 10.114439
_cell_length_b 14.010052
_cell_length_c 20.806496
_cell_angle_alpha 90.000000
_cell_angle_beta 135.204365
_cell_angle_gamma 90.000000
_cell_volume 2077.355853
_symmetry_space_group_name_H-M "C 2/C"
_symmetry_group_IT_number 15
_symmetry_cell_setting 'monoclinic'
loop_
_space_group_symop_operation_xyz
x,y,z
-x,y,1/2-z
-x,-y,-z
x,-y,1/2+z
1/2+x,1/2+y,z
1/2-x,1/2+y,1/2-z
1/2-x,1/2-y,-z
1/2+x,1/2-y,1/2+z
loop_
_atom_site_type_symbol
_atom_site_label
_atom_site_fract_x
_atom_site_fract_y
_atom_site_fract_z
Si Si1 0.031170 0.655246 0.517402
Si Si2 0.467893 0.154049 0.828579
Si Si3 0.910113 0.857767 0.630657
Si Si4 0.397629 0.429973 0.110520
Si Si5 0.000000 0.225676 0.750000
Si Si6 0.344618 0.343858 0.902717
Si Si7 0.279256 0.441807 0.364953
O O1 0.171674 0.581937 0.530663
O O2 0.108495 0.761680 0.529705
O O3 0.059202 0.641420 0.604518
O O4 0.809555 0.652348 0.429438
O O5 0.469780 0.265255 0.806820
O O6 0.332043 0.087442 0.739094
O O7 0.676208 0.120845 0.881807
O O8 0.967372 0.853220 0.575135
O O9 0.954425 0.967986 0.661152
O O10 0.469443 0.343491 0.179186
O O11 0.505542 0.425911 0.080229
O O12 0.178482 0.293098 0.804622
O O13 0.266329 0.449605 0.883647
#
# Coordination Sequence:
#
# PCOD9257838 Si02
#       7
#     8   8   8   8   4   8   8
#     4  10  20  38  58  77 104 150 187 207 252 330
#     4  10  20  35  56  78 109 140 175 219 265 326
#     4  10  20  36  55  78 107 147 182 212 259 321
#     4  10  20  34  55  79 108 138 179 229 263 309
#     4  10  18  32  54  82 104 140 182 218 274 320
#     4   9  18  33  55  76 105 141 176 215 262 326
#     4  10  20  35  53  84 109 132 172 230 281 299
#
# _framework density 25.03182
#
# number of rings (size 3 to 8) (size 9 to 14) (size 15 to 20)
#    0.000    2.154    0.000    6.000    0.000    1.231 
#    0.000   15.385    0.000    0.000    0.000    0.000 
#    0.000    0.000    0.000    0.000    0.000    0.000 
#
# Total GULP energy -145064.860795 kJ/mol
# GULP energy per Si atom -5579.417723 kJ/mol
# Density = 2.497485 g / cm^3
# Si number density = 25.031820 Si / 1000 Ang^3
#
#
#
# Elastic Constant Matrix: (Units=GPa)
#
#
# Indices 1 2 3 4 5 6 
#
# 1 99.4804 33.6209 12.1075 0.0000 44.8070 0.0000
# 2 33.6209 169.7581 25.6189 0.0000 1.6778 0.0000
# 3 12.1075 25.6189 90.7904 0.0000 11.7833 0.0000
# 4 0.0000 0.0000 0.0000 29.1296 0.0000 8.9285
# 5 44.8070 1.6778 11.7833 0.0000 38.2436 0.0000
# 6 0.0000 0.0000 0.0000 8.9285 0.0000 33.0528
#
#
#
# Elastic Compliance Matrix: (Units=1/GPa)
#
#
# Indices 1 2 3 4 5 6 
#
# 1 0.024637 -0.004875 0.001884 0.000000 -0.029231 0.000000
# 2 -0.004875 0.007120 -0.002146 0.000000 0.006060 0.000000
# 3 0.001884 -0.002146 0.012128 0.000000 -0.005850 0.000000
# 4 0.000000 0.000000 0.000000 0.037428 0.000000 -0.010110
# 5 -0.029231 0.006060 -0.005850 0.000000 0.061933 0.000000
# 6 0.000000 0.000000 0.000000 -0.010110 0.000000 0.032986
#
#
# Mechanical properties :
#
#
# Convention : Reuss Voigt Hill
#
# Bulk Modulus (GPa) = 29.75158 55.85814 42.80486
# Shear Modulus (GPa) = 25.28985 39.33063 32.31024
#
# Velocity S-wave (km/s) = 3.18198 3.96817 3.59662
# Velocity P-wave (km/s) = 5.04096 6.58471 5.86386
#
# Compressibility (1/GPa) = 0.03361166
#
# Stress axis : x y z
#
# Youngs Moduli (GPa) = 40.59016 140.44787 82.45525
#
# Poissons Ratio (x) = 0.68464 -0.15534
# Poissons Ratio (y) = 0.19787 0.17691
# Poissons Ratio (z) = -0.07647 0.30134
#
# Static dielectric constant tensor:
#      x y z
#    x 2.012810 0.000000 -0.013700 
#    y 0.000000 2.013930 0.000000 
#    z -0.013700 0.000000 2.080890 
# 
# From -- ./inp_files/310841.got.cif
#   From: 2010.05.17/outbox.cif.g08.bks.cpg/sg15_156_cif.got.tgz:310841.got - 2010.06.03 18:47:42.
