data_PCOD9257811
_publ_section_title
;
Structure prediction by ZEFSAII (Michael W. Deem and Ramdas Pophale) SiO2 
 PCOD9257811
Probable space group: C 2/C
;
_chemical_formula_sum "Si O2"
_cell_formula_units_Z 56
_cell_length_a 15.391620
_cell_length_b 27.373336
_cell_length_c 8.853946
_cell_angle_alpha 90.000000
_cell_angle_beta 124.594165
_cell_angle_gamma 90.000000
_cell_volume 3070.797852
_symmetry_space_group_name_H-M "C 2/C"
_symmetry_group_IT_number 15
_symmetry_cell_setting 'monoclinic'
loop_
_space_group_symop_operation_xyz
x,y,z
-x,y,1/2-z
-x,-y,-z
x,-y,1/2+z
1/2+x,1/2+y,z
1/2-x,1/2+y,1/2-z
1/2-x,1/2-y,-z
1/2+x,1/2-y,1/2+z
loop_
_atom_site_type_symbol
_atom_site_label
_atom_site_fract_x
_atom_site_fract_y
_atom_site_fract_z
Si Si1 0.776044 0.662824 0.704685
Si Si2 0.961613 0.199316 0.041414
Si Si3 0.098095 0.375024 0.452118
Si Si4 0.761049 0.043896 0.144930
Si Si5 0.703223 0.443446 0.177136
Si Si6 0.978331 0.908416 0.910170
Si Si7 0.017669 0.299630 0.943669
O O1 0.663025 0.688170 0.580543
O O2 0.823605 0.653821 0.584373
O O3 0.756904 0.608985 0.755839
O O4 0.861846 0.691283 0.886526
O O5 0.000000 0.209850 0.250000
O O6 0.017092 0.148787 0.043827
O O7 0.986486 0.245329 0.963310
O O8 0.162296 0.420928 0.579301
O O9 0.000000 0.391351 0.250000
O O10 0.051735 0.338538 0.530301
O O11 0.866329 0.066508 0.325349
O O12 0.750403 0.988377 0.185648
O O13 0.780224 0.045915 0.984080
O O14 0.577782 0.436263 0.080879
O O15 0.000000 0.908713 0.750000
O O16 0.000000 0.306550 0.750000
#
# Coordination Sequence:
#
# PCOD9257811 Si02
#       7
#     8   8   8   8   8   8   8
#     4   9  20  39  57  77 108 140 181 223 253 312
#     4  10  19  35  61  82 101 141 184 216 260 314
#     4   9  19  37  56  75 102 139 183 220 253 308
#     4  10  18  32  54  78 105 136 174 215 258 309
#     4   9  18  32  52  79 107 137 170 212 263 309
#     4   8  16  31  52  79 107 135 172 211 251 314
#     4  11  24  38  53  79 111 140 173 221 276 319
#
# _framework density 18.236302999999999
#
# number of rings (size 3 to 8) (size 9 to 14) (size 15 to 20)
#    0.000    2.571    0.000    4.286    0.000    5.143 
#    0.000   10.000    0.000    0.000    0.000    0.000 
#    0.000    0.000    0.000    0.000    0.000    0.000 
#
# Total GULP energy -156239.152775 kJ/mol
# GULP energy per Si atom -5579.969742 kJ/mol
# Density = 1.819480 g / cm^3
# Si number density = 18.236303 Si / 1000 Ang^3
#
#
#
# Elastic Constant Matrix: (Units=GPa)
#
#
# Indices 1 2 3 4 5 6 
#
# 1 67.6315 51.7148 36.7400 0.0000 22.8163 0.0000
# 2 51.7148 107.5483 53.6548 0.0000 14.7875 0.0000
# 3 36.7400 53.6548 65.3912 0.0000 10.2992 0.0000
# 4 0.0000 0.0000 0.0000 27.9345 0.0000 2.3537
# 5 22.8163 14.7875 10.2992 0.0000 17.5926 0.0000
# 6 0.0000 0.0000 0.0000 2.3537 0.0000 9.0898
#
#
#
# Elastic Compliance Matrix: (Units=1/GPa)
#
#
# Indices 1 2 3 4 5 6 
#
# 1 0.039629 -0.009621 -0.008317 0.000000 -0.038440 0.000000
# 2 -0.009621 0.018727 -0.010406 0.000000 0.002829 0.000000
# 3 -0.008317 -0.010406 0.028010 0.000000 0.003135 0.000000
# 4 0.000000 0.000000 0.000000 0.036596 0.000000 -0.009476
# 5 -0.038440 0.002829 0.003135 0.000000 0.102482 0.000000
# 6 0.000000 0.000000 0.000000 -0.009476 0.000000 0.112468
#
#
# Mechanical properties :
#
#
# Convention : Reuss Voigt Hill
#
# Bulk Modulus (GPa) = 33.69472 58.31002 46.00237
# Shear Modulus (GPa) = 12.36119 17.48747 14.92433
#
# Velocity S-wave (km/s) = 2.60635 3.10003 2.86385
# Velocity P-wave (km/s) = 5.25112 6.69759 6.01797
#
# Compressibility (1/GPa) = 0.02967824
#
# Stress axis : x y z
#
# Youngs Moduli (GPa) = 25.23402 53.39929 35.70204
#
# Poissons Ratio (x) = 0.51376 0.29693
# Poissons Ratio (y) = 0.24278 0.37150
# Poissons Ratio (z) = 0.20987 0.55565
#
# Static dielectric constant tensor:
#      x y z
#    x 1.625680 0.000000 0.008370 
#    y 0.000000 1.620480 0.000000 
#    z 0.008370 0.000000 1.617360 
# 
# From -- ./inp_files/43440.got.cif
#   From: 2010.05.17/outbox.cif.g08.bks.cpg/sg15_22_cif.got.tgz:43440.got - 2010.06.03 18:47:42.
