data_PCOD9257645
_publ_section_title
;
Structure prediction by ZEFSAII (Michael W. Deem and Ramdas Pophale) SiO2 
 PCOD9257645
Probable space group: C 2/C
;
_chemical_formula_sum "Si O2"
_cell_formula_units_Z 60
_cell_length_a 9.679671
_cell_length_b 20.722032
_cell_length_c 16.397095
_cell_angle_alpha 90.000000
_cell_angle_beta 60.188699
_cell_angle_gamma 90.000000
_cell_volume 2853.731680
_symmetry_space_group_name_H-M "C 2/C"
_symmetry_group_IT_number 15
_symmetry_cell_setting 'monoclinic'
loop_
_space_group_symop_operation_xyz
x,y,z
-x,y,1/2-z
-x,-y,-z
x,-y,1/2+z
1/2+x,1/2+y,z
1/2-x,1/2+y,1/2-z
1/2-x,1/2-y,-z
1/2+x,1/2-y,1/2+z
loop_
_atom_site_type_symbol
_atom_site_label
_atom_site_fract_x
_atom_site_fract_y
_atom_site_fract_z
Si Si1 0.199646 0.768071 0.918345
Si Si2 0.751198 0.503097 0.931762
Si Si3 0.264248 0.971007 0.241468
Si Si4 0.472980 0.385890 0.341594
Si Si5 0.446683 0.926658 0.609352
Si Si6 0.512184 0.388832 0.502509
Si Si7 0.613216 0.127095 0.913248
Si Si8 0.000000 0.333745 0.750000
O O1 0.124450 0.703446 0.904174
O O2 0.356848 0.790358 0.825264
O O3 0.250000 0.750000 0.000000
O O4 0.078455 0.827445 0.935326
O O5 0.803670 0.511788 0.822279
O O6 0.906422 0.477585 0.931303
O O7 0.664776 0.569401 0.985788
O O8 0.620210 0.445584 0.969246
O O9 0.370469 0.912024 0.175447
O O10 0.080788 0.949309 0.298283
O O11 0.293241 0.030009 0.171800
O O12 0.500000 0.347924 0.250000
O O13 0.546946 0.359831 0.402186
O O14 0.284479 0.392188 0.404283
O O15 0.473127 0.891303 0.516215
O O16 0.461086 0.878934 0.682760
#
# Coordination Sequence:
#
# PCOD9257645 Si02
#       8
#     8   8   8   8   8   8   8   4
#     4  12  21  34  52  79 118 144 172 214 277 335
#     4  10  18  32  56  73 105 139 187 220 263 315
#     4  10  21  31  52  76 106 141 183 226 266 318
#     4   9  17  30  46  75 107 139 172 211 267 323
#     4  12  19  38  52  80 109 143 184 227 270 315
#     4  10  18  32  50  78 104 142 177 220 262 322
#     4  11  22  35  51  79 117 145 172 218 282 333
#     4  12  22  30  54  78 106 148 172 220 270 322
#
# _framework density 21.025103000000001
#
# number of rings (size 3 to 8) (size 9 to 14) (size 15 to 20)
#    0.000    1.333    6.667    0.400    2.800    0.000 
#    0.000    0.000    0.000    0.800    0.000    0.000 
#    0.000    0.000    0.000    0.000    0.000    0.000 
#
# Total GULP energy -167047.603653 kJ/mol
# GULP energy per Si atom -5568.253455 kJ/mol
# Density = 2.097725 g / cm^3
# Si number density = 21.025103 Si / 1000 Ang^3
#
#
#
# Elastic Constant Matrix: (Units=GPa)
#
#
# Indices 1 2 3 4 5 6 
#
# 1 22.3046 15.4837 3.9665 0.0000 -8.7362 0.0000
# 2 15.4837 139.4637 50.8874 0.0000 -10.8496 0.0000
# 3 3.9665 50.8874 108.6722 0.0000 -8.2470 0.0000
# 4 0.0000 0.0000 0.0000 38.4444 0.0000 -6.0755
# 5 -8.7362 -10.8496 -8.2470 0.0000 28.0551 0.0000
# 6 0.0000 0.0000 0.0000 -6.0755 0.0000 20.3975
#
#
#
# Elastic Compliance Matrix: (Units=1/GPa)
#
#
# Indices 1 2 3 4 5 6 
#
# 1 0.054322 -0.005476 0.001743 0.000000 0.015310 0.000000
# 2 -0.005476 0.009335 -0.004119 0.000000 0.000694 0.000000
# 3 0.001743 -0.004119 0.011238 0.000000 0.002254 0.000000
# 4 0.000000 0.000000 0.000000 0.027297 0.000000 0.008130
# 5 0.015310 0.000694 0.002254 0.000000 0.041343 0.000000
# 6 0.000000 0.000000 0.000000 0.008130 0.000000 0.051447
#
#
# Mechanical properties :
#
#
# Convention : Reuss Voigt Hill
#
# Bulk Modulus (GPa) = 16.89407 45.67953 31.28680
# Shear Modulus (GPa) = 21.69994 30.71958 26.20976
#
# Velocity S-wave (km/s) = 3.21611 3.82657 3.53454
# Velocity P-wave (km/s) = 4.67373 6.42626 5.61875
#
# Compressibility (1/GPa) = 0.05919235
#
# Stress axis : x y z
#
# Youngs Moduli (GPa) = 18.40873 107.12201 88.98345
#
# Poissons Ratio (x) = 0.58661 -0.15513
# Poissons Ratio (y) = 0.10081 0.36650
# Poissons Ratio (z) = -0.03209 0.44121
#
# Static dielectric constant tensor:
#      x y z
#    x 1.829700 0.000000 0.035440 
#    y 0.000000 1.792600 0.000000 
#    z 0.035440 0.000000 1.868450 
# 
# From -- ./inp_files/244907.got.cif
#   From: 2010.05.17/outbox.cif.g08.bks.cpg/sg15_123_cif.got.tgz:244907.got - 2010.06.03 18:47:42.
