data_PCOD9257724
_publ_section_title
;
Structure prediction by ZEFSAII (Michael W. Deem and Ramdas Pophale) SiO2 
 PCOD9257724
Probable space group: C 2/C
;
_chemical_formula_sum "Si O2"
_cell_formula_units_Z 40
_cell_length_a 12.179373
_cell_length_b 15.149080
_cell_length_c 9.058571
_cell_angle_alpha 90.000000
_cell_angle_beta 74.498805
_cell_angle_gamma 90.000000
_cell_volume 1610.567337
_symmetry_space_group_name_H-M "C 2/C"
_symmetry_group_IT_number 15
_symmetry_cell_setting 'monoclinic'
loop_
_space_group_symop_operation_xyz
x,y,z
-x,y,1/2-z
-x,-y,-z
x,-y,1/2+z
1/2+x,1/2+y,z
1/2-x,1/2+y,1/2-z
1/2-x,1/2-y,-z
1/2+x,1/2-y,1/2+z
loop_
_atom_site_type_symbol
_atom_site_label
_atom_site_fract_x
_atom_site_fract_y
_atom_site_fract_z
Si Si1 0.467802 0.898302 0.498175
Si Si2 0.757563 0.471495 0.402616
Si Si3 0.667737 0.772445 0.806790
Si Si4 0.109373 0.159897 0.109297
Si Si5 0.221873 0.374715 0.400713
O O1 0.364742 0.909150 0.417088
O O2 0.410931 0.858304 0.664841
O O3 0.588404 0.851545 0.424726
O O4 0.500000 0.000000 0.500000
O O5 0.649563 0.433017 0.528374
O O6 0.749667 0.448733 0.234080
O O7 0.768182 0.572531 0.449696
O O8 0.789575 0.800461 0.827306
O O9 0.694525 0.707281 0.662126
O O10 0.605530 0.719490 0.963035
O O11 0.000000 0.155988 0.250000
#
# Coordination Sequence:
#
# PCOD9257724 Si02
#       5
#     8   8   8   8   8
#     4   9  17  30  50  76 108 139 175 226 270 309
#     4   9  19  31  49  76 106 139 175 216 264 318
#     4   9  17  27  47  77 102 132 177 223 264 308
#     4   9  16  28  46  71 101 130 171 221 259 298
#     4  10  18  32  52  79 108 136 175 221 267 318
#
# _framework density 24.835967
#
# number of rings (size 3 to 8) (size 9 to 14) (size 15 to 20)
#    0.000    2.800    0.000    3.000    0.000    0.000 
#    0.000    4.000    0.000   10.800    0.000   30.800 
#    0.000    4.800    0.000    0.000    0.000    0.000 
#
# Total GULP energy -111712.827526 kJ/mol
# GULP energy per Si atom -5585.641376 kJ/mol
# Density = 2.477944 g / cm^3
# Si number density = 24.835967 Si / 1000 Ang^3
#
#
#
# Elastic Constant Matrix: (Units=GPa)
#
#
# Indices 1 2 3 4 5 6 
#
# 1 44.5404 23.6101 46.1987 0.0000 -27.6884 0.0000
# 2 23.6101 103.1264 59.0272 0.0000 -14.7952 0.0000
# 3 46.1987 59.0272 181.1278 0.0000 -40.2084 0.0000
# 4 0.0000 0.0000 0.0000 45.4747 0.0000 -16.6795
# 5 -27.6884 -14.7952 -40.2084 0.0000 51.8663 0.0000
# 6 0.0000 0.0000 0.0000 -16.6795 0.0000 22.6379
#
#
#
# Elastic Compliance Matrix: (Units=1/GPa)
#
#
# Indices 1 2 3 4 5 6 
#
# 1 0.040094 -0.003763 -0.005420 0.000000 0.016129 0.000000
# 2 -0.003763 0.012283 -0.003275 0.000000 -0.001044 0.000000
# 3 -0.005420 -0.003275 0.008601 0.000000 0.002840 0.000000
# 4 0.000000 0.000000 0.000000 0.030134 0.000000 0.022202
# 5 0.016129 -0.001044 0.002840 0.000000 0.029795 0.000000
# 6 0.000000 0.000000 0.000000 0.022202 0.000000 0.060532
#
#
# Mechanical properties :
#
#
# Convention : Reuss Voigt Hill
#
# Bulk Modulus (GPa) = 27.72915 65.16294 46.44604
# Shear Modulus (GPa) = 22.89630 37.32636 30.11133
#
# Velocity S-wave (km/s) = 3.03958 3.88095 3.48574
# Velocity P-wave (km/s) = 4.84849 6.81004 5.91120
#
# Compressibility (1/GPa) = 0.03606313
#
# Stress axis : x y z
#
# Youngs Moduli (GPa) = 24.94115 81.41300 116.26495
#
# Poissons Ratio (x) = 0.30638 0.63011
# Poissons Ratio (y) = 0.09386 0.38074
# Poissons Ratio (z) = 0.13517 0.26661
#
# Static dielectric constant tensor:
#      x y z
#    x 2.046340 0.000000 0.048930 
#    y 0.000000 2.117890 0.000000 
#    z 0.048930 0.000000 1.987260 
# 
# From -- ./inp_files/95524.got.cif
#   From: 2010.05.17/outbox.cif.g08.bks.cpg/sg15_48_cif.got.tgz:95524.got - 2010.06.03 18:47:42.
