data_PCOD9257331
_publ_section_title
;
Structure prediction by ZEFSAII (Michael W. Deem and Ramdas Pophale) SiO2 
 PCOD9257331
Probable space group: C 2/C
;
_chemical_formula_sum "Si O2"
_cell_formula_units_Z 64
_cell_length_a 23.413410
_cell_length_b 12.449211
_cell_length_c 15.304199
_cell_angle_alpha 90.000000
_cell_angle_beta 62.198924
_cell_angle_gamma 90.000000
_cell_volume 3945.939268
_symmetry_space_group_name_H-M "C 2/C"
_symmetry_group_IT_number 15
_symmetry_cell_setting 'monoclinic'
loop_
_space_group_symop_operation_xyz
x,y,z
-x,y,1/2-z
-x,-y,-z
x,-y,1/2+z
1/2+x,1/2+y,z
1/2-x,1/2+y,1/2-z
1/2-x,1/2-y,-z
1/2+x,1/2-y,1/2+z
loop_
_atom_site_type_symbol
_atom_site_label
_atom_site_fract_x
_atom_site_fract_y
_atom_site_fract_z
Si Si1 0.227527 0.193493 0.374403
Si Si2 0.678862 0.134262 0.037618
Si Si3 0.782616 0.399237 0.515740
Si Si4 0.315052 0.436760 0.756858
Si Si5 0.575803 0.712311 0.701630
Si Si6 0.576298 0.534533 0.183119
Si Si7 0.162898 0.179043 0.795726
Si Si8 0.838253 0.171908 0.499392
O O1 0.260666 0.142877 0.437362
O O2 0.192196 0.296833 0.440764
O O3 0.187210 0.120235 0.336091
O O4 0.286378 0.233484 0.272627
O O5 0.618980 0.195552 0.125954
O O6 0.676520 0.008255 0.018805
O O7 0.740343 0.397174 0.635873
O O8 0.826055 0.293444 0.476059
O O9 0.727585 0.390610 0.480188
O O10 0.382937 0.429356 0.760415
O O11 0.307094 0.563832 0.750050
O O12 0.500000 0.733184 0.750000
O O13 0.590348 0.592121 0.653734
O O14 0.598933 0.699643 0.784992
O O15 0.500000 0.544150 0.250000
O O16 0.603940 0.609373 0.087697
O O17 0.151611 0.178653 0.905534
#
# Coordination Sequence:
#
# PCOD9257331 Si02
#       8
#     8   8   8   8   8   8   8   8
#     4  10  19  30  50  80 106 130 168 213 264 307
#     4  10  20  33  53  77 105 137 171 212 259 307
#     4  10  19  33  50  79 108 134 166 209 266 313
#     4  10  18  31  51  78 109 129 165 216 260 307
#     4   9  20  38  54  73 104 139 176 216 257 300
#     4   9  20  38  52  73 106 140 176 213 253 304
#     4  10  18  31  52  78 103 132 168 213 258 312
#     4  10  20  32  54  76 107 137 167 209 262 311
#
# _framework density 16.219206
#
# number of rings (size 3 to 8) (size 9 to 14) (size 15 to 20)
#    0.000    2.250    2.500    0.750    7.000    0.000 
#    2.250    2.500    0.000    0.750    0.000    0.000 
#    0.000    0.000    0.000    0.000    0.000    0.000 
#
# Total GULP energy -178188.088623 kJ/mol
# GULP energy per Si atom -5568.377769 kJ/mol
# Density = 1.618229 g / cm^3
# Si number density = 16.219206 Si / 1000 Ang^3
#
#
#
# Elastic Constant Matrix: (Units=GPa)
#
#
# Indices 1 2 3 4 5 6 
#
# 1 64.9161 37.8455 36.1497 0.0000 0.6271 0.0000
# 2 37.8455 86.8109 22.5591 0.0000 -11.4997 0.0000
# 3 36.1497 22.5591 61.9606 0.0000 7.8574 0.0000
# 4 0.0000 0.0000 0.0000 5.5646 0.0000 -1.6647
# 5 0.6271 -11.4997 7.8574 0.0000 20.2295 0.0000
# 6 0.0000 0.0000 0.0000 -1.6647 0.0000 20.4942
#
#
#
# Elastic Compliance Matrix: (Units=1/GPa)
#
#
# Indices 1 2 3 4 5 6 
#
# 1 0.027736 -0.008879 -0.012832 0.000000 -0.000923 0.000000
# 2 -0.008879 0.017575 -0.002651 0.000000 0.011296 0.000000
# 3 -0.012832 -0.002651 0.026013 0.000000 -0.011213 0.000000
# 4 0.000000 0.000000 0.000000 0.184183 0.000000 0.014960
# 5 -0.000923 0.011296 -0.011213 0.000000 0.060238 0.000000
# 6 0.000000 0.000000 0.000000 0.014960 0.000000 0.050010
#
#
# Mechanical properties :
#
#
# Convention : Reuss Voigt Hill
#
# Bulk Modulus (GPa) = 44.24839 45.19957 44.72398
# Shear Modulus (GPa) = 11.84800 17.06654 14.45727
#
# Velocity S-wave (km/s) = 2.70569 3.24735 2.98882
# Velocity P-wave (km/s) = 6.09112 6.47988 6.28850
#
# Compressibility (1/GPa) = 0.02259969
#
# Stress axis : x y z
#
# Youngs Moduli (GPa) = 36.05485 56.89748 38.44232
#
# Poissons Ratio (x) = 0.50520 0.49329
# Poissons Ratio (y) = 0.32014 0.10192
# Poissons Ratio (z) = 0.46265 0.15084
#
# Static dielectric constant tensor:
#      x y z
#    x 1.540300 0.000000 0.021250 
#    y 0.000000 1.563840 0.000000 
#    z 0.021250 0.000000 1.544480 
# 
# From -- ./inp_files/172958.got.cif
#   From: 2010.05.17/outbox.cif.g08.bks.cpg/sg15_87_cif.got.tgz:172958.got - 2010.06.03 18:47:42.
