data_PCOD9257320
_publ_section_title
;
Structure prediction by ZEFSAII (Michael W. Deem and Ramdas Pophale) SiO2 
 PCOD9257320
Probable space group: C 2/C
;
_chemical_formula_sum "Si O2"
_cell_formula_units_Z 44
_cell_length_a 29.521238
_cell_length_b 10.414127
_cell_length_c 5.199333
_cell_angle_alpha 90.000000
_cell_angle_beta 83.508337
_cell_angle_gamma 90.000000
_cell_volume 1588.223236
_symmetry_space_group_name_H-M "C 2/C"
_symmetry_group_IT_number 15
_symmetry_cell_setting 'monoclinic'
loop_
_space_group_symop_operation_xyz
x,y,z
-x,y,1/2-z
-x,-y,-z
x,-y,1/2+z
1/2+x,1/2+y,z
1/2-x,1/2+y,1/2-z
1/2-x,1/2-y,-z
1/2+x,1/2-y,1/2+z
loop_
_atom_site_type_symbol
_atom_site_label
_atom_site_fract_x
_atom_site_fract_y
_atom_site_fract_z
Si Si1 0.465751 0.381203 0.094749
Si Si2 0.585052 0.924412 0.347804
Si Si3 0.273087 0.410460 0.246343
Si Si4 0.677711 0.090569 0.923882
Si Si5 0.135591 0.920844 0.156121
Si Si6 0.000000 0.311589 0.250000
O O1 0.500000 0.302740 0.250000
O O2 0.500000 0.500000 0.000000
O O3 0.417784 0.395847 0.259332
O O4 0.460415 0.289855 0.858249
O O5 0.628815 0.840166 0.407063
O O6 0.532126 0.892601 0.412558
O O7 0.590691 0.042027 0.544722
O O8 0.272501 0.522279 0.467794
O O9 0.225084 0.339232 0.323072
O O10 0.321060 0.338249 0.271619
O O11 0.678140 0.976239 0.703831
O O12 0.141040 0.039433 0.357661
#
# Coordination Sequence:
#
# PCOD9257320 Si02
#       6
#     8   8   8   8   8   4
#     4  12  23  39  56  79 116 154 194 240 284 332
#     4  10  22  40  61  87 118 148 186 236 285 339
#     4   8  14  24  45  76 103 134 179 220 268 331
#     4   8  14  28  50  77 108 139 173 222 276 330
#     4  10  18  31  51  76 107 144 185 231 276 326
#     4  12  26  38  60  84 112 156 194 236 284 344
#
# _framework density 27.703913
#
# number of rings (size 3 to 8) (size 9 to 14) (size 15 to 20)
#    0.000    2.182    2.727    0.545    2.545    0.000 
#    0.000    0.000    0.000    1.091    0.000    1.273 
#    0.000    0.000    0.000    0.000    0.000    0.000 
#
# Total GULP energy -122501.714336 kJ/mol
# GULP energy per Si atom -5568.259743 kJ/mol
# Density = 2.764086 g / cm^3
# Si number density = 27.703913 Si / 1000 Ang^3
#
#
#
# Elastic Constant Matrix: (Units=GPa)
#
#
# Indices 1 2 3 4 5 6 
#
# 1 272.4234 40.3787 23.1753 0.0000 10.5868 0.0000
# 2 40.3787 24.1696 8.8979 0.0000 -2.5484 0.0000
# 3 23.1753 8.8979 126.9280 0.0000 -16.4646 0.0000
# 4 0.0000 0.0000 0.0000 21.1435 0.0000 -10.9439
# 5 10.5868 -2.5484 -16.4646 0.0000 60.1266 0.0000
# 6 0.0000 0.0000 0.0000 -10.9439 0.0000 27.5965
#
#
#
# Elastic Compliance Matrix: (Units=1/GPa)
#
#
# Indices 1 2 3 4 5 6 
#
# 1 0.004999 -0.008309 -0.000508 0.000000 -0.001371 0.000000
# 2 -0.008309 0.056341 -0.002004 0.000000 0.003302 0.000000
# 3 -0.000508 -0.002004 0.008411 0.000000 0.002308 0.000000
# 4 0.000000 0.000000 0.000000 0.059511 0.000000 0.023600
# 5 -0.001371 0.003302 0.002308 0.000000 0.017645 0.000000
# 6 0.000000 0.000000 0.000000 0.023600 0.000000 0.045596
#
#
# Mechanical properties :
#
#
# Convention : Reuss Voigt Hill
#
# Bulk Modulus (GPa) = 20.78618 63.15830 41.97224
# Shear Modulus (GPa) = 21.72198 45.17792 33.44995
#
# Velocity S-wave (km/s) = 2.80317 4.04263 3.47855
# Velocity P-wave (km/s) = 4.24221 6.68113 5.59615
#
# Compressibility (1/GPa) = 0.04810888
#
# Stress axis : x y z
#
# Youngs Moduli (GPa) = 200.04783 17.74902 118.89020
#
# Poissons Ratio (x) = 0.14747 0.06042
# Poissons Ratio (y) = 1.66214 0.23828
# Poissons Ratio (z) = 0.10166 0.03557
#
# Static dielectric constant tensor:
#      x y z
#    x 2.601320 0.000000 -0.985220 
#    y 0.000000 2.179990 0.000000 
#    z -0.985220 0.000000 6.195930 
# 
# From -- ./inp_files/18036.got.cif
#   From: 2010.05.17/outbox.cif.g08.bks.cpg/sg15_10_cif.got.tgz:18036.got - 2010.06.03 18:47:42.
