data_PCOD9257062
_publ_section_title
;
Structure prediction by ZEFSAII (Michael W. Deem and Ramdas Pophale) SiO2 
 PCOD9257062
Probable space group: C 2/C
;
_chemical_formula_sum "Si O2"
_cell_formula_units_Z 52
_cell_length_a 13.459579
_cell_length_b 13.038205
_cell_length_c 14.678615
_cell_angle_alpha 90.000000
_cell_angle_beta 50.092420
_cell_angle_gamma 90.000000
_cell_volume 1975.946497
_symmetry_space_group_name_H-M "C 2/C"
_symmetry_group_IT_number 15
_symmetry_cell_setting 'monoclinic'
loop_
_space_group_symop_operation_xyz
x,y,z
-x,y,1/2-z
-x,-y,-z
x,-y,1/2+z
1/2+x,1/2+y,z
1/2-x,1/2+y,1/2-z
1/2-x,1/2-y,-z
1/2+x,1/2-y,1/2+z
loop_
_atom_site_type_symbol
_atom_site_label
_atom_site_fract_x
_atom_site_fract_y
_atom_site_fract_z
Si Si1 0.000000 0.277760 0.250000
Si Si2 0.119532 0.421202 0.938284
Si Si3 0.500000 0.866858 0.750000
Si Si4 0.000000 0.953902 0.250000
Si Si5 0.111554 0.206667 0.559658
Si Si6 0.091341 0.265980 0.380137
Si Si7 0.211745 0.960462 0.277364
Si Si8 0.203000 0.544707 0.583552
O O1 0.056294 0.219001 0.303053
O O2 0.114093 0.355397 0.155653
O O3 0.195372 0.443178 0.801423
O O4 0.213708 0.446824 0.968277
O O5 0.000000 0.500000 0.000000
O O6 0.043451 0.319139 0.007970
O O7 0.504407 0.787494 0.661725
O O8 0.615705 0.944954 0.657173
O O9 0.099701 0.889694 0.130267
O O10 0.090986 0.982396 0.283396
O O11 0.250000 0.250000 0.500000
O O12 0.114537 0.191697 0.450243
O O13 0.202811 0.356135 0.302072
O O14 0.191158 0.950959 0.398130
#
# Coordination Sequence:
#
# PCOD9257062 Si02
#       8
#     4   8   4   4   8   8   8   8
#     4   7  14  25  48  82 103 118 159 224 278 299
#     4   9  16  27  54  84 102 124 162 229 278 298
#     4  10  18  30  52  82 104 123 179 222 264 302
#     4  11  24  35  48  76 111 153 174 204 260 319
#     4  11  21  33  50  75 107 145 179 211 250 306
#     4   9  15  30  53  77 102 128 175 226 258 304
#     4  10  18  32  49  73 113 134 170 215 265 317
#     4   9  16  28  51  84 102 125 164 224 272 305
#
# _framework density 26.316502
#
# number of rings (size 3 to 8) (size 9 to 14) (size 15 to 20)
#    0.000    2.462    1.538    5.538    0.000    0.000 
#    0.000    0.769    0.000    8.308    0.000    0.000 
#    0.000    0.000    0.000    0.000    0.000    0.000 
#
# Total GULP energy -144872.329784 kJ/mol
# GULP energy per Si atom -5572.012684 kJ/mol
# Density = 2.625660 g / cm^3
# Si number density = 26.316502 Si / 1000 Ang^3
#
#
#
# Elastic Constant Matrix: (Units=GPa)
#
#
# Indices 1 2 3 4 5 6 
#
# 1 142.3069 19.6832 24.9340 0.0000 46.7816 0.0000
# 2 19.6832 42.3738 6.6406 0.0000 3.2432 0.0000
# 3 24.9340 6.6406 76.8660 0.0000 39.0778 0.0000
# 4 0.0000 0.0000 0.0000 4.7094 0.0000 -2.8492
# 5 46.7816 3.2432 39.0778 0.0000 67.5475 0.0000
# 6 0.0000 0.0000 0.0000 -2.8492 0.0000 22.4142
#
#
#
# Elastic Compliance Matrix: (Units=1/GPa)
#
#
# Indices 1 2 3 4 5 6 
#
# 1 0.009766 -0.004118 0.000745 0.000000 -0.006997 0.000000
# 2 -0.004118 0.025660 -0.002415 0.000000 0.003017 0.000000
# 3 0.000745 -0.002415 0.018672 0.000000 -0.011202 0.000000
# 4 0.000000 0.000000 0.000000 0.230034 0.000000 0.029241
# 5 -0.006997 0.003017 -0.011202 0.000000 0.025986 0.000000
# 6 0.000000 0.000000 0.000000 0.029241 0.000000 0.048332
#
#
# Mechanical properties :
#
#
# Convention : Reuss Voigt Hill
#
# Bulk Modulus (GPa) = 23.51697 40.45137 31.98417
# Shear Modulus (GPa) = 13.01409 32.95347 22.98378
#
# Velocity S-wave (km/s) = 2.22620 3.54248 2.95847
# Velocity P-wave (km/s) = 3.94507 5.66892 4.88366
#
# Compressibility (1/GPa) = 0.04252249
#
# Stress axis : x y z
#
# Youngs Moduli (GPa) = 102.39268 38.97143 53.55734
#
# Poissons Ratio (x) = 0.16048 -0.03990
# Poissons Ratio (y) = 0.42163 0.12933
# Poissons Ratio (z) = -0.07628 0.09411
#
# Static dielectric constant tensor:
#      x y z
#    x 2.444400 0.000000 -0.213670 
#    y 0.000000 2.021880 0.000000 
#    z -0.213670 0.000000 2.126440 
# 
# From -- ./inp_files/145530.got.cif
#   From: 2010.05.17/outbox.cif.g08.bks.cpg/sg15_73_cif.got.tgz:145530.got - 2010.06.03 18:47:42.
