data_PCOD9257990
_publ_section_title
;
Structure prediction by ZEFSAII (Michael W. Deem and Ramdas Pophale) SiO2 
 PCOD9257990
Probable space group: C 2/C
;
_chemical_formula_sum "Si O2"
_cell_formula_units_Z 20
_cell_length_a 11.153313
_cell_length_b 19.159606
_cell_length_c 5.503324
_cell_angle_alpha 90.000000
_cell_angle_beta 37.991984
_cell_angle_gamma 90.000000
_cell_volume 723.901946
_symmetry_space_group_name_H-M "C 2/C"
_symmetry_group_IT_number 15
_symmetry_cell_setting 'monoclinic'
loop_
_space_group_symop_operation_xyz
x,y,z
-x,y,1/2-z
-x,-y,-z
x,-y,1/2+z
1/2+x,1/2+y,z
1/2-x,1/2+y,1/2-z
1/2-x,1/2-y,-z
1/2+x,1/2-y,1/2+z
loop_
_atom_site_type_symbol
_atom_site_label
_atom_site_fract_x
_atom_site_fract_y
_atom_site_fract_z
Si Si1 0.000000 0.301741 0.250000
Si Si2 0.796591 0.834433 0.184925
Si Si3 0.278716 0.472631 0.407506
O O1 0.851316 0.247192 0.621002
O O2 0.872523 0.338052 0.246642
O O3 0.000000 0.862241 0.750000
O O4 0.765413 0.888542 0.452201
O O5 0.192764 0.507556 0.783391
O O6 0.500000 0.500000 0.000000
#
# Coordination Sequence:
#
# PCOD9257990 Si02
#       3
#     4   8   8
#     4   8  16  28  52  80 104 146 180 226 274 322
#     4   9  15  30  53  76 110 139 184 225 272 329
#     4  10  18  32  57  81 106 149 182 223 281 327
#
# _framework density 27.628050999999999
#
# number of rings (size 3 to 8) (size 9 to 14) (size 15 to 20)
#    1.200    1.600    4.000    0.000    0.000    0.000 
#    0.000    2.000    0.000   43.200    0.000    0.000 
#    0.000    0.000    0.000    0.000    0.000    0.000 
#
# Total GULP energy -55825.557394 kJ/mol
# GULP energy per Si atom -5582.555739 kJ/mol
# Density = 2.756517 g / cm^3
# Si number density = 27.628051 Si / 1000 Ang^3
#
#
#
# Elastic Constant Matrix: (Units=GPa)
#
#
# Indices 1 2 3 4 5 6 
#
# 1 167.4149 35.6855 41.0303 0.0000 -37.7474 0.0000
# 2 35.6855 169.5485 0.0533 0.0000 7.4115 0.0000
# 3 41.0303 0.0533 106.4212 0.0000 12.6128 0.0000
# 4 0.0000 0.0000 0.0000 16.7204 0.0000 12.4524
# 5 -37.7474 7.4115 12.6128 0.0000 58.3197 0.0000
# 6 0.0000 0.0000 0.0000 12.4524 0.0000 46.5049
#
#
#
# Elastic Compliance Matrix: (Units=1/GPa)
#
#
# Indices 1 2 3 4 5 6 
#
# 1 0.009127 -0.002231 -0.004363 0.000000 0.007135 0.000000
# 2 -0.002231 0.006477 0.001155 0.000000 -0.002517 0.000000
# 3 -0.004363 0.001155 0.011731 0.000000 -0.005508 0.000000
# 4 0.000000 0.000000 0.000000 0.074704 0.000000 -0.020003
# 5 0.007135 -0.002517 -0.005508 0.000000 0.023276 0.000000
# 6 0.000000 0.000000 0.000000 -0.020003 0.000000 0.026859
#
#
# Mechanical properties :
#
#
# Convention : Reuss Voigt Hill
#
# Bulk Modulus (GPa) = 60.76555 66.32476 63.54516
# Shear Modulus (GPa) = 29.66674 48.75003 39.20838
#
# Velocity S-wave (km/s) = 3.28043 4.20517 3.77125
# Velocity P-wave (km/s) = 6.03243 6.90191 6.48176
#
# Compressibility (1/GPa) = 0.01645669
#
# Stress axis : x y z
#
# Youngs Moduli (GPa) = 109.56696 154.38391 85.24366
#
# Poissons Ratio (x) = 0.34450 0.37194
# Poissons Ratio (y) = 0.24449 -0.09849
# Poissons Ratio (z) = 0.47807 -0.17838
#
# Static dielectric constant tensor:
#      x y z
#    x 2.047960 0.000000 -0.080410 
#    y 0.000000 2.132010 0.000000 
#    z -0.080410 0.000000 2.076110 
# 
# From -- ./inp_files/1130.got.cif
#   From: 2010.05.17/outbox.cif.g08.bks.cpg/sg15_1_cif.got.tgz:1130.got - 2010.06.03 18:47:42.
