data_PCOD9257123
_publ_section_title
;
Structure prediction by ZEFSAII (Michael W. Deem and Ramdas Pophale) SiO2 
 PCOD9257123
Probable space group: C 2/C
;
_chemical_formula_sum "Si O2"
_cell_formula_units_Z 44
_cell_length_a 17.069291
_cell_length_b 8.022712
_cell_length_c 13.357353
_cell_angle_alpha 90.000000
_cell_angle_beta 66.969358
_cell_angle_gamma 90.000000
_cell_volume 1683.389088
_symmetry_space_group_name_H-M "C 2/C"
_symmetry_group_IT_number 15
_symmetry_cell_setting 'monoclinic'
loop_
_space_group_symop_operation_xyz
x,y,z
-x,y,1/2-z
-x,-y,-z
x,-y,1/2+z
1/2+x,1/2+y,z
1/2-x,1/2+y,1/2-z
1/2-x,1/2-y,-z
1/2+x,1/2-y,1/2+z
loop_
_atom_site_type_symbol
_atom_site_label
_atom_site_fract_x
_atom_site_fract_y
_atom_site_fract_z
Si Si1 0.030833 0.087012 0.624003
Si Si2 0.500000 0.941164 0.250000
Si Si3 0.184286 0.589852 0.144392
Si Si4 0.264590 0.212212 0.755775
Si Si5 0.050502 0.763941 0.912442
Si Si6 0.719316 0.571814 0.062549
O O1 0.032235 0.234138 0.540307
O O2 0.000000 0.130745 0.750000
O O3 0.123415 0.992784 0.584710
O O4 0.963613 0.954116 0.614256
O O5 0.587787 0.037634 0.204312
O O6 0.502802 0.835113 0.145025
O O7 0.196961 0.754933 0.202866
O O8 0.241865 0.450077 0.172171
O O9 0.217675 0.567192 0.015483
O O10 0.354588 0.205826 0.655204
O O11 0.269791 0.371032 0.828425
O O12 0.750000 0.750000 0.000000
#
# Coordination Sequence:
#
# PCOD9257123 Si02
#       6
#     8   4   8   8   8   8
#     4  11  18  29  52  89 128 153 198 261 312 352
#     4  10  20  40  62  88 118 168 216 240 314 384
#     4  10  21  38  64  88 124 163 210 258 305 372
#     4  10  19  36  59  92 119 163 207 254 308 365
#     4  10  18  30  54  85 125 152 202 254 305 358
#     4  10  19  33  55  87 122 160 202 247 311 371
#
# _framework density 26.137747999999998
#
# number of rings (size 3 to 8) (size 9 to 14) (size 15 to 20)
#    0.000    1.818    4.545    2.182    0.000    0.000 
#    0.000    1.818    0.000    6.545    0.000    0.000 
#    0.000    0.000    0.000    0.000    0.000    0.000 
#
# Total GULP energy -123038.651092 kJ/mol
# GULP energy per Si atom -5592.665959 kJ/mol
# Density = 2.607826 g / cm^3
# Si number density = 26.137748 Si / 1000 Ang^3
#
#
#
# Elastic Constant Matrix: (Units=GPa)
#
#
# Indices 1 2 3 4 5 6 
#
# 1 100.4727 29.0737 49.0902 0.0000 13.3985 0.0000
# 2 29.0737 77.2893 29.7477 0.0000 17.3125 0.0000
# 3 49.0902 29.7477 174.6673 0.0000 31.8914 0.0000
# 4 0.0000 0.0000 0.0000 37.8371 0.0000 11.9331
# 5 13.3985 17.3125 31.8914 0.0000 45.5054 0.0000
# 6 0.0000 0.0000 0.0000 11.9331 0.0000 42.3871
#
#
#
# Elastic Compliance Matrix: (Units=1/GPa)
#
#
# Indices 1 2 3 4 5 6 
#
# 1 0.012390 -0.003498 -0.002825 0.000000 -0.000338 0.000000
# 2 -0.003498 0.015551 -0.000887 0.000000 -0.004265 0.000000
# 3 -0.002825 -0.000887 0.007404 0.000000 -0.004020 0.000000
# 4 0.000000 0.000000 0.000000 0.029004 0.000000 -0.008165
# 5 -0.000338 -0.004265 -0.004020 0.000000 0.026515 0.000000
# 6 0.000000 0.000000 0.000000 -0.008165 0.000000 0.025891
#
#
# Mechanical properties :
#
#
# Convention : Reuss Voigt Hill
#
# Bulk Modulus (GPa) = 47.78695 63.13917 55.46306
# Shear Modulus (GPa) = 36.19262 41.44711 38.81986
#
# Velocity S-wave (km/s) = 3.72518 3.98643 3.85801
# Velocity P-wave (km/s) = 6.06836 6.73777 6.41181
#
# Compressibility (1/GPa) = 0.02092622
#
# Stress axis : x y z
#
# Youngs Moduli (GPa) = 80.70746 64.30528 135.06040
#
# Poissons Ratio (x) = 0.22494 0.38154
# Poissons Ratio (y) = 0.28231 0.11975
# Poissons Ratio (z) = 0.22799 0.05702
#
# Static dielectric constant tensor:
#      x y z
#    x 2.027770 0.000000 0.099360 
#    y 0.000000 2.133910 0.000000 
#    z 0.099360 0.000000 2.081750 
# 
# From -- ./inp_files/160242.got.cif
#   From: 2010.05.17/outbox.cif.g08.bks.cpg/sg15_81_cif.got.tgz:160242.got - 2010.06.03 18:47:42.
