data_PCOD9257324
_publ_section_title
;
Structure prediction by ZEFSAII (Michael W. Deem and Ramdas Pophale) SiO2 
 PCOD9257324
Probable space group: C 2/C
;
_chemical_formula_sum "Si O2"
_cell_formula_units_Z 48
_cell_length_a 23.107798
_cell_length_b 21.859236
_cell_length_c 10.867230
_cell_angle_alpha 90.000000
_cell_angle_beta 155.894929
_cell_angle_gamma 90.000000
_cell_volume 2241.868302
_symmetry_space_group_name_H-M "C 2/C"
_symmetry_group_IT_number 15
_symmetry_cell_setting 'monoclinic'
loop_
_space_group_symop_operation_xyz
x,y,z
-x,y,1/2-z
-x,-y,-z
x,-y,1/2+z
1/2+x,1/2+y,z
1/2-x,1/2+y,1/2-z
1/2-x,1/2-y,-z
1/2+x,1/2-y,1/2+z
loop_
_atom_site_type_symbol
_atom_site_label
_atom_site_fract_x
_atom_site_fract_y
_atom_site_fract_z
Si Si1 0.221021 0.188960 0.609194
Si Si2 0.881571 0.870222 0.943050
Si Si3 0.469270 0.744262 0.460423
Si Si4 0.164795 0.018182 0.309442
Si Si5 0.357477 0.800551 0.891207
Si Si6 0.327153 0.447829 0.413598
O O1 0.350200 0.207348 0.771153
O O2 0.082389 0.206231 0.260073
O O3 0.218884 0.238707 0.712102
O O4 0.221396 0.121561 0.661245
O O5 0.962860 0.809859 0.048329
O O6 0.829622 0.912181 0.730419
O O7 0.752749 0.852256 0.781824
O O8 0.000000 0.906272 0.250000
O O9 0.597817 0.785695 0.661477
O O10 0.222256 0.016059 0.559554
O O11 0.223598 0.976580 0.313227
O O12 0.000000 0.000000 0.000000
O O13 0.500000 0.810911 0.250000
O O14 0.500000 0.446492 0.750000
#
# Coordination Sequence:
#
# PCOD9257324 Si02
#       6
#     8   8   8   8   8   8
#     4   9  16  29  53  80 102 138 182 230 268 327
#     4  11  21  34  51  79 116 143 180 231 281 336
#     4   9  17  31  52  78 106 136 181 225 279 329
#     4  10  21  33  51  80 109 145 187 234 279 325
#     4   9  19  32  54  84 105 139 185 228 279 334
#     4  10  18  31  51  77 109 142 184 235 276 324
#
# _framework density 21.410713999999999
#
# number of rings (size 3 to 8) (size 9 to 14) (size 15 to 20)
#    0.000    2.333    1.667    4.000    2.333    0.667 
#    0.000    0.000    0.000    1.000    0.000    0.000 
#    0.000    0.000    0.000    0.000    0.000    0.000 
#
# Total GULP energy -133770.718117 kJ/mol
# GULP energy per Si atom -5573.779922 kJ/mol
# Density = 2.136198 g / cm^3
# Si number density = 21.410714 Si / 1000 Ang^3
#
#
#
# Elastic Constant Matrix: (Units=GPa)
#
#
# Indices 1 2 3 4 5 6 
#
# 1 121.6396 42.9208 18.4891 0.0000 7.9792 0.0000
# 2 42.9208 99.9082 8.1972 0.0000 3.2876 0.0000
# 3 18.4891 8.1972 24.5645 0.0000 5.3550 0.0000
# 4 0.0000 0.0000 0.0000 11.0244 0.0000 0.1591
# 5 7.9792 3.2876 5.3550 0.0000 27.3154 0.0000
# 6 0.0000 0.0000 0.0000 0.1591 0.0000 37.4302
#
#
#
# Elastic Compliance Matrix: (Units=1/GPa)
#
#
# Indices 1 2 3 4 5 6 
#
# 1 0.010708 -0.004028 -0.006413 0.000000 -0.001386 0.000000
# 2 -0.004028 0.011816 -0.000896 0.000000 -0.000070 0.000000
# 3 -0.006413 -0.000896 0.047430 0.000000 -0.007317 0.000000
# 4 0.000000 0.000000 0.000000 0.090714 0.000000 -0.000386
# 5 -0.001386 -0.000070 -0.007317 0.000000 0.038457 0.000000
# 6 0.000000 0.000000 0.000000 -0.000386 0.000000 0.026718
#
#
# Mechanical properties :
#
#
# Convention : Reuss Voigt Hill
#
# Bulk Modulus (GPa) = 21.15085 42.81405 31.98245
# Shear Modulus (GPa) = 18.91952 26.92103 22.92028
#
# Velocity S-wave (km/s) = 2.97585 3.54978 3.27541
# Velocity P-wave (km/s) = 4.65914 6.06969 5.41058
#
# Compressibility (1/GPa) = 0.04727942
#
# Stress axis : x y z
#
# Youngs Moduli (GPa) = 93.38648 84.63394 21.08353
#
# Poissons Ratio (x) = 0.34094 0.13522
# Poissons Ratio (y) = 0.37620 0.01888
# Poissons Ratio (z) = 0.59892 0.07579
#
# Static dielectric constant tensor:
#      x y z
#    x 1.848630 0.000000 -0.038700 
#    y 0.000000 1.795760 0.000000 
#    z -0.038700 0.000000 1.831220 
# 
# From -- ./inp_files/88349.got.cif
#   From: 2010.05.17/outbox.cif.g08.bks.cpg/sg15_45_cif.got.tgz:88349.got - 2010.06.03 18:47:42.
