data_PCOD9257018
_publ_section_title
;
Structure prediction by ZEFSAII (Michael W. Deem and Ramdas Pophale) SiO2 
 PCOD9257018
Probable space group: C 2/C
;
_chemical_formula_sum "Si O2"
_cell_formula_units_Z 52
_cell_length_a 14.487897
_cell_length_b 9.374740
_cell_length_c 18.225870
_cell_angle_alpha 90.000000
_cell_angle_beta 125.489614
_cell_angle_gamma 90.000000
_cell_volume 2015.556728
_symmetry_space_group_name_H-M "C 2/C"
_symmetry_group_IT_number 15
_symmetry_cell_setting 'monoclinic'
loop_
_space_group_symop_operation_xyz
x,y,z
-x,y,1/2-z
-x,-y,-z
x,-y,1/2+z
1/2+x,1/2+y,z
1/2-x,1/2+y,1/2-z
1/2-x,1/2-y,-z
1/2+x,1/2-y,1/2+z
loop_
_atom_site_type_symbol
_atom_site_label
_atom_site_fract_x
_atom_site_fract_y
_atom_site_fract_z
Si Si1 0.368301 0.466914 0.560125
Si Si2 0.454827 0.673673 0.911127
Si Si3 0.331408 0.352291 0.748035
Si Si4 0.007500 0.304774 0.083655
Si Si5 0.409104 0.077616 0.305663
Si Si6 0.214095 0.590179 0.866383
Si Si7 0.500000 0.545311 0.750000
O O1 0.443727 0.563406 0.540325
O O2 0.418080 0.306003 0.577434
O O3 0.247638 0.447850 0.464493
O O4 0.383838 0.552634 0.643378
O O5 0.452627 0.761004 0.832934
O O6 0.333880 0.604440 0.876094
O O7 0.481555 0.791943 0.986055
O O8 0.369995 0.260564 0.836493
O O9 0.207386 0.414270 0.700846
O O10 0.336947 0.243051 0.681912
O O11 0.428103 0.467862 0.781305
O O12 0.010506 0.458428 0.122449
O O13 0.367848 0.026933 0.207220
#
# Coordination Sequence:
#
# PCOD9257018 Si02
#       7
#     8   8   8   8   8   8   4
#     4  10  19  33  52  71  99 133 163 196 241 294
#     4  10  18  30  51  77 103 127 153 198 253 295
#     4   9  18  30  49  75 101 128 160 200 239 285
#     4   9  17  31  50  76 101 124 157 199 246 288
#     4  10  18  30  52  80 102 120 155 206 250 287
#     4   9  17  30  50  76  98 123 163 205 245 281
#     4  10  20  34  48  66  98 138 172 196 232 286
#
# _framework density 25.799323999999999
#
# number of rings (size 3 to 8) (size 9 to 14) (size 15 to 20)
#    0.000    2.462    0.000    5.077    0.000    0.615 
#    0.000    0.000    0.000   12.000    0.000    0.000 
#    0.000    0.000    0.000    0.000    0.000    0.000 
#
# Total GULP energy -144875.485605 kJ/mol
# GULP energy per Si atom -5572.134062 kJ/mol
# Density = 2.574060 g / cm^3
# Si number density = 25.799324 Si / 1000 Ang^3
#
#
#
# Elastic Constant Matrix: (Units=GPa)
#
#
# Indices 1 2 3 4 5 6 
#
# 1 28.5845 7.1390 -5.4868 0.0000 20.7282 0.0000
# 2 7.1390 114.8856 34.6633 0.0000 24.8861 0.0000
# 3 -5.4868 34.6633 165.9600 0.0000 3.1357 0.0000
# 4 0.0000 0.0000 0.0000 28.0793 0.0000 18.4690
# 5 20.7282 24.8861 3.1357 0.0000 33.4858 0.0000
# 6 0.0000 0.0000 0.0000 18.4690 0.0000 -1.6660
#
#
#
# Elastic Compliance Matrix: (Units=1/GPa)
#
#
# Indices 1 2 3 4 5 6 
#
# 1 0.067093 0.005077 0.002017 0.000000 -0.045494 0.000000
# 2 0.005077 0.011485 -0.002014 0.000000 -0.011490 0.000000
# 3 0.002017 -0.002014 0.006520 0.000000 -0.000363 0.000000
# 4 0.000000 0.000000 0.000000 0.004295 0.000000 0.047615
# 5 -0.045494 -0.011490 -0.000363 0.000000 0.066598 0.000000
# 6 0.000000 0.000000 0.000000 0.047615 0.000000 -0.072391
#
#
# Mechanical properties :
#
#
# Convention : Reuss Voigt Hill
#
# Bulk Modulus (GPa) = 10.49772 42.45124 26.47448
# Shear Modulus (GPa) = 47.53181 30.18746 38.85963
#
# Velocity S-wave (km/s) = 4.29694 3.42436 3.88522
# Velocity P-wave (km/s) = 5.35687 5.66791 5.51458
#
# Compressibility (1/GPa) = 0.09525874
#
# Stress axis : x y z
#
# Youngs Moduli (GPa) = 14.90463 87.06731 153.38033
#
# Poissons Ratio (x) = -0.44202 -0.30942
# Poissons Ratio (y) = -0.07567 0.30890
# Poissons Ratio (z) = -0.03007 0.17535
#
# Static dielectric constant tensor:
#      x y z
#    x 2.023660 0.000000 -0.067490 
#    y 0.000000 2.057950 0.000000 
#    z -0.067490 0.000000 2.124510 
# 
# From -- ./inp_files/247865.got.cif
#   From: 2010.05.17/outbox.cif.g08.bks.cpg/sg15_124_cif.got.tgz:247865.got - 2010.06.03 18:47:42.
