data_PCOD9257716
_publ_section_title
;
Structure prediction by ZEFSAII (Michael W. Deem and Ramdas Pophale) SiO2 
 PCOD9257716
Probable space group: C 2/C
;
_chemical_formula_sum "Si O2"
_cell_formula_units_Z 60
_cell_length_a 10.404126
_cell_length_b 29.509841
_cell_length_c 11.172333
_cell_angle_alpha 90.000000
_cell_angle_beta 78.011973
_cell_angle_gamma 90.000000
_cell_volume 3355.366921
_symmetry_space_group_name_H-M "C 2/C"
_symmetry_group_IT_number 15
_symmetry_cell_setting 'monoclinic'
loop_
_space_group_symop_operation_xyz
x,y,z
-x,y,1/2-z
-x,-y,-z
x,-y,1/2+z
1/2+x,1/2+y,z
1/2-x,1/2+y,1/2-z
1/2-x,1/2-y,-z
1/2+x,1/2-y,1/2+z
loop_
_atom_site_type_symbol
_atom_site_label
_atom_site_fract_x
_atom_site_fract_y
_atom_site_fract_z
Si Si1 0.000000 0.621219 0.750000
Si Si2 0.565118 0.680629 0.976437
Si Si3 0.893451 0.234058 0.178779
Si Si4 0.277326 0.606608 0.644811
Si Si5 0.503779 0.535633 0.608087
Si Si6 0.393771 0.227242 0.166369
Si Si7 0.083643 0.322808 0.466015
Si Si8 0.665469 0.374733 0.094192
O O1 0.126258 0.593647 0.682954
O O2 0.035913 0.651749 0.856723
O O3 0.684270 0.645104 0.958627
O O4 0.615030 0.727880 0.913712
O O5 0.457664 0.656437 0.913629
O O6 0.479413 0.693251 0.108103
O O7 0.753603 0.219239 0.258408
O O8 0.865829 0.272961 0.085061
O O9 0.000000 0.254954 0.250000
O O10 0.372215 0.564640 0.613918
O O11 0.309205 0.627923 0.768988
O O12 0.500000 0.519832 0.750000
O O13 0.500000 0.500000 0.500000
O O14 0.621577 0.573378 0.575595
O O15 0.500000 0.237066 0.250000
O O16 0.463263 0.187361 0.077714
O O17 0.204696 0.353106 0.491129
#
# Coordination Sequence:
#
# PCOD9257716 Si02
#       8
#     4   8   8   8   8   8   8   8
#     4  10  18  32  52  78 100 136 184 216 260 310
#     4  10  19  31  51  67 102 137 190 226 266 306
#     4  11  23  32  43  74 109 148 189 242 282 310
#     4   9  18  31  55  80 103 136 178 226 260 323
#     4   9  18  35  62  90 112 133 173 223 279 341
#     4  11  21  32  49  70 100 148 190 231 275 318
#     4  10  20  32  53  68 105 143 188 227 267 314
#     4   9  17  34  54  81  98 134 182 229 258 318
#
# _framework density 17.881800999999999
#
# number of rings (size 3 to 8) (size 9 to 14) (size 15 to 20)
#    0.000    2.133    0.667    5.200    1.867    3.200 
#    0.000    2.667    2.933    7.200    0.000    0.000 
#    0.000    0.000    0.000    0.000    0.000    0.000 
#
# Total GULP energy -167068.743713 kJ/mol
# GULP energy per Si atom -5568.958124 kJ/mol
# Density = 1.784110 g / cm^3
# Si number density = 17.881801 Si / 1000 Ang^3
#
#
#
# Elastic Constant Matrix: (Units=GPa)
#
#
# Indices 1 2 3 4 5 6 
#
# 1 107.6430 26.7892 42.3994 0.0000 -32.7771 0.0000
# 2 26.7892 54.3983 40.5148 0.0000 -12.9270 0.0000
# 3 42.3994 40.5148 82.1713 0.0000 -29.3551 0.0000
# 4 0.0000 0.0000 0.0000 23.1115 0.0000 2.1511
# 5 -32.7771 -12.9270 -29.3551 0.0000 31.7616 0.0000
# 6 0.0000 0.0000 0.0000 2.1511 0.0000 9.3152
#
#
#
# Elastic Compliance Matrix: (Units=1/GPa)
#
#
# Indices 1 2 3 4 5 6 
#
# 1 0.014356 -0.002998 -0.001601 0.000000 0.012114 0.000000
# 2 -0.002998 0.029772 -0.014793 0.000000 -0.004649 0.000000
# 3 -0.001601 -0.014793 0.026199 0.000000 0.016540 0.000000
# 4 0.000000 0.000000 0.000000 0.044219 0.000000 -0.010211
# 5 0.012114 -0.004649 0.016540 0.000000 0.057381 0.000000
# 6 0.000000 0.000000 0.000000 -0.010211 0.000000 0.109710
#
#
# Mechanical properties :
#
#
# Convention : Reuss Voigt Hill
#
# Bulk Modulus (GPa) = 31.70429 51.51324 41.60877
# Shear Modulus (GPa) = 15.10867 21.80492 18.45680
#
# Velocity S-wave (km/s) = 2.90990 3.49577 3.21620
# Velocity P-wave (km/s) = 5.39059 6.72042 6.09190
#
# Compressibility (1/GPa) = 0.03154147
#
# Stress axis : x y z
#
# Youngs Moduli (GPa) = 69.65872 33.58827 38.16991
#
# Poissons Ratio (x) = 0.10071 0.06112
# Poissons Ratio (y) = 0.20885 0.56465
# Poissons Ratio (z) = 0.11154 0.49687
#
# Static dielectric constant tensor:
#      x y z
#    x 1.762920 0.000000 -0.010710 
#    y 0.000000 1.595220 0.000000 
#    z -0.010710 0.000000 1.683760 
# 
# From -- ./inp_files/91761.got.cif
#   From: 2010.05.17/outbox.cif.g08.bks.cpg/sg15_46_cif.got.tgz:91761.got - 2010.06.03 18:47:42.
