data_PCOD9257333
_publ_section_title
;
Structure prediction by ZEFSAII (Michael W. Deem and Ramdas Pophale) SiO2 
 PCOD9257333
Probable space group: C 2/C
;
_chemical_formula_sum "Si O2"
_cell_formula_units_Z 56
_cell_length_a 21.496614
_cell_length_b 16.221930
_cell_length_c 8.505888
_cell_angle_alpha 90.000000
_cell_angle_beta 44.779887
_cell_angle_gamma 90.000000
_cell_volume 2089.307627
_symmetry_space_group_name_H-M "C 2/C"
_symmetry_group_IT_number 15
_symmetry_cell_setting 'monoclinic'
loop_
_space_group_symop_operation_xyz
x,y,z
-x,y,1/2-z
-x,-y,-z
x,-y,1/2+z
1/2+x,1/2+y,z
1/2-x,1/2+y,1/2-z
1/2-x,1/2-y,-z
1/2+x,1/2-y,1/2+z
loop_
_atom_site_type_symbol
_atom_site_label
_atom_site_fract_x
_atom_site_fract_y
_atom_site_fract_z
Si Si1 0.944087 0.702627 0.716663
Si Si2 0.384272 0.601039 0.695253
Si Si3 0.426014 0.885329 0.756801
Si Si4 0.668201 0.948880 0.061479
Si Si5 0.661931 0.745320 0.380334
Si Si6 0.250000 0.250000 0.500000
Si Si7 0.293759 0.469245 0.080355
Si Si8 0.000000 0.870687 0.250000
O O1 0.902307 0.618774 0.860170
O O2 0.865426 0.740717 0.751261
O O3 0.000000 0.749594 0.750000
O O4 0.018719 0.671292 0.459885
O O5 0.371203 0.573179 0.539446
O O6 0.477973 0.594679 0.615904
O O7 0.329870 0.685653 0.810126
O O8 0.331208 0.534678 0.893326
O O9 0.500000 0.910511 0.750000
O O10 0.353518 0.825766 0.972119
O O11 0.381501 0.969478 0.781317
O O12 0.730970 0.912515 0.086193
O O13 0.729059 0.984057 0.815930
O O14 0.749158 0.714511 0.310881
O O15 0.584931 0.683294 0.565188
#
# Coordination Sequence:
#
# PCOD9257333 Si02
#       8
#     8   8   8   8   8   4   8   4
#     4  11  20  29  49  82 124 152 185 238 298 358
#     4  10  22  39  66  89 117 149 203 248 308 347
#     4  10  18  31  51  78 115 159 196 229 274 365
#     4  11  19  31  52  80 122 156 191 223 294 355
#     4  10  19  37  57  81 108 151 205 244 289 350
#     4  10  20  36  66  88 110 156 206 238 282 372
#     4  10  21  37  56  87 119 153 195 252 289 354
#     4  10  20  40  66  80 100 152 210 252 290 364
#
# _framework density 26.803137
#
# number of rings (size 3 to 8) (size 9 to 14) (size 15 to 20)
#    0.000    1.714    2.143    6.000    0.000    0.571 
#    0.000    0.000   12.571    7.714    0.000    0.000 
#    0.000    0.000    0.000    0.000    0.000    0.000 
#
# Total GULP energy -155942.301159 kJ/mol
# GULP energy per Si atom -5569.367899 kJ/mol
# Density = 2.674213 g / cm^3
# Si number density = 26.803137 Si / 1000 Ang^3
#
#
#
# Elastic Constant Matrix: (Units=GPa)
#
#
# Indices 1 2 3 4 5 6 
#
# 1 188.8258 19.7835 27.1142 0.0000 41.3797 0.0000
# 2 19.7835 52.2732 -2.1739 0.0000 -7.8909 0.0000
# 3 27.1142 -2.1739 23.1626 0.0000 6.2842 0.0000
# 4 0.0000 0.0000 0.0000 5.6485 0.0000 14.8535
# 5 41.3797 -7.8909 6.2842 0.0000 44.2299 0.0000
# 6 0.0000 0.0000 0.0000 14.8535 0.0000 4.3529
#
#
#
# Elastic Compliance Matrix: (Units=1/GPa)
#
#
# Indices 1 2 3 4 5 6 
#
# 1 0.008753 -0.004852 -0.008576 0.000000 -0.007836 0.000000
# 2 -0.004852 0.022369 0.005684 0.000000 0.007723 0.000000
# 3 -0.008576 0.005684 0.053350 0.000000 0.001457 0.000000
# 4 0.000000 0.000000 0.000000 -0.022204 0.000000 0.075768
# 5 -0.007836 0.007723 0.001457 0.000000 0.031111 0.000000
# 6 0.000000 0.000000 0.000000 0.075768 0.000000 -0.028813
#
#
# Mechanical properties :
#
#
# Convention : Reuss Voigt Hill
#
# Bulk Modulus (GPa) = 14.49604 39.30102 26.89853
# Shear Modulus (GPa) = 48.52159 25.48210 37.00184
#
# Velocity S-wave (km/s) = 4.25937 3.08671 3.71954
# Velocity P-wave (km/s) = 5.44148 5.23435 5.33892
#
# Compressibility (1/GPa) = 0.06898434
#
# Stress axis : x y z
#
# Youngs Moduli (GPa) = 114.24862 44.70521 18.74420
#
# Poissons Ratio (x) = 0.21692 0.16074
# Poissons Ratio (y) = 0.55435 -0.10654
# Poissons Ratio (z) = 0.97974 -0.25411
#
# Static dielectric constant tensor:
#      x y z
#    x 1.991640 0.000000 0.208320 
#    y 0.000000 1.989610 0.000000 
#    z 0.208320 0.000000 2.139780 
# 
# From -- ./inp_files/57472.got.cif
#   From: 2010.05.17/outbox.cif.g08.bks.cpg/sg15_29_cif.got.tgz:57472.got - 2010.06.03 18:47:42.
