data_PCOD9257010
_publ_section_title
;
Structure prediction by ZEFSAII (Michael W. Deem and Ramdas Pophale) SiO2 
 PCOD9257010
Probable space group: C 2/C
;
_chemical_formula_sum "Si O2"
_cell_formula_units_Z 40
_cell_length_a 13.785991
_cell_length_b 22.635475
_cell_length_c 5.677234
_cell_angle_alpha 90.000000
_cell_angle_beta 91.586662
_cell_angle_gamma 90.000000
_cell_volume 1770.915554
_symmetry_space_group_name_H-M "C 2/C"
_symmetry_group_IT_number 15
_symmetry_cell_setting 'monoclinic'
loop_
_space_group_symop_operation_xyz
x,y,z
-x,y,1/2-z
-x,-y,-z
x,-y,1/2+z
1/2+x,1/2+y,z
1/2-x,1/2+y,1/2-z
1/2-x,1/2-y,-z
1/2+x,1/2-y,1/2+z
loop_
_atom_site_type_symbol
_atom_site_label
_atom_site_fract_x
_atom_site_fract_y
_atom_site_fract_z
Si Si1 0.656753 0.480660 0.066472
Si Si2 0.377260 0.025769 0.123997
Si Si3 0.331294 0.763980 0.699023
Si Si4 0.587400 0.145218 0.578067
Si Si5 0.272066 0.347675 0.430045
O O1 0.611419 0.492416 0.323469
O O2 0.677906 0.410812 0.026769
O O3 0.761499 0.513403 0.104878
O O4 0.403772 0.093713 0.109894
O O5 0.410784 0.998644 0.876914
O O6 0.250000 0.750000 0.500000
O O7 0.417668 0.792779 0.557132
O O8 0.344784 0.703246 0.840403
O O9 0.284041 0.814469 0.861849
O O10 0.500000 0.136631 0.750000
O O11 0.687019 0.141176 0.733655
#
# Coordination Sequence:
#
# PCOD9257010 Si02
#       5
#     8   8   8   8   8
#     4  10  18  30  51  74 104 133 173 216 259 304
#     4  10  19  33  47  69 105 142 181 212 252 299
#     4   9  20  35  52  69  94 135 184 219 261 305
#     4  11  22  33  49  73 104 141 178 218 259 307
#     4  10  19  35  53  71  98 142 174 222 261 303
#
# _framework density 22.587187
#
# number of rings (size 3 to 8) (size 9 to 14) (size 15 to 20)
#    0.000    2.000    4.000    2.400    2.800    1.600 
#    0.000    0.000    0.000    0.000    0.000    0.000 
#    0.000    1.600    0.000    1.200    0.000    0.000 
#
# Total GULP energy -111673.548063 kJ/mol
# GULP energy per Si atom -5583.677403 kJ/mol
# Density = 2.253578 g / cm^3
# Si number density = 22.587187 Si / 1000 Ang^3
#
#
#
# Elastic Constant Matrix: (Units=GPa)
#
#
# Indices 1 2 3 4 5 6 
#
# 1 29.6385 14.9971 11.8581 0.0000 16.4410 0.0000
# 2 14.9971 157.1454 35.0767 0.0000 -8.2584 0.0000
# 3 11.8581 35.0767 133.7482 0.0000 16.6351 0.0000
# 4 0.0000 0.0000 0.0000 52.7446 0.0000 -10.9615
# 5 16.4410 -8.2584 16.6351 0.0000 20.6993 0.0000
# 6 0.0000 0.0000 0.0000 -10.9615 0.0000 8.7936
#
#
#
# Elastic Compliance Matrix: (Units=1/GPa)
#
#
# Indices 1 2 3 4 5 6 
#
# 1 0.076428 -0.012076 0.005045 0.000000 -0.069578 0.000000
# 2 -0.012076 0.009082 -0.003283 0.000000 0.015854 0.000000
# 3 0.005045 -0.003283 0.009501 0.000000 -0.012953 0.000000
# 4 0.000000 0.000000 0.000000 0.025588 0.000000 0.031896
# 5 -0.069578 0.015854 -0.012953 0.000000 0.120310 0.000000
# 6 0.000000 0.000000 0.000000 0.031896 0.000000 0.153479
#
#
# Mechanical properties :
#
#
# Convention : Reuss Voigt Hill
#
# Bulk Modulus (GPa) = 13.44403 49.37732 31.41068
# Shear Modulus (GPa) = 11.36850 33.68750 22.52800
#
# Velocity S-wave (km/s) = 2.24591 3.86611 3.16156
# Velocity P-wave (km/s) = 3.56236 6.46818 5.22148
#
# Compressibility (1/GPa) = 0.07438243
#
# Stress axis : x y z
#
# Youngs Moduli (GPa) = 13.08418 110.10780 105.24701
#
# Poissons Ratio (x) = 1.32971 -0.53095
# Poissons Ratio (y) = 0.15801 0.34552
# Poissons Ratio (z) = -0.06601 0.36148
#
# Static dielectric constant tensor:
#      x y z
#    x 1.839020 0.000000 -0.032970 
#    y 0.000000 1.867740 0.000000 
#    z -0.032970 0.000000 1.903190 
# 
# From -- ./inp_files/7344.got.cif
#   From: 2010.05.17/outbox.cif.g08.bks.cpg/sg15_4_cif.got.tgz:7344.got - 2010.06.03 18:47:42.
