data_PCOD9257641
_publ_section_title
;
Structure prediction by ZEFSAII (Michael W. Deem and Ramdas Pophale) SiO2 
 PCOD9257641
Probable space group: C 2/C
;
_chemical_formula_sum "Si O2"
_cell_formula_units_Z 56
_cell_length_a 25.499189
_cell_length_b 19.048793
_cell_length_c 15.132393
_cell_angle_alpha 90.000000
_cell_angle_beta 153.816759
_cell_angle_gamma 90.000000
_cell_volume 3243.244205
_symmetry_space_group_name_H-M "C 2/C"
_symmetry_group_IT_number 15
_symmetry_cell_setting 'monoclinic'
loop_
_space_group_symop_operation_xyz
x,y,z
-x,y,1/2-z
-x,-y,-z
x,-y,1/2+z
1/2+x,1/2+y,z
1/2-x,1/2+y,1/2-z
1/2-x,1/2-y,-z
1/2+x,1/2-y,1/2+z
loop_
_atom_site_type_symbol
_atom_site_label
_atom_site_fract_x
_atom_site_fract_y
_atom_site_fract_z
Si Si1 0.971351 0.082159 0.105402
Si Si2 0.365863 0.942424 0.514536
Si Si3 0.311508 0.491773 0.106492
Si Si4 0.322000 0.674783 0.408609
Si Si5 0.914990 0.164080 0.747729
Si Si6 0.252236 0.483136 0.815088
Si Si7 0.302473 0.689163 0.753064
O O1 0.000000 0.100991 0.250000
O O2 0.905969 0.145351 0.957709
O O3 0.090217 0.052904 0.239147
O O4 0.875515 0.018760 0.967814
O O5 0.500000 0.939859 0.750000
O O6 0.283562 0.985728 0.459272
O O7 0.307928 0.864894 0.421791
O O8 0.349435 0.978903 0.394631
O O9 0.382897 0.417890 0.214102
O O10 0.250271 0.496062 0.917347
O O11 0.364802 0.682632 0.575439
O O12 0.444048 0.674143 0.538608
O O13 0.259123 0.599540 0.307577
O O14 0.239087 0.740451 0.262325
O O15 0.850785 0.205570 0.728467
#
# Coordination Sequence:
#
# PCOD9257641 Si02
#       7
#     8   8   8   8   8   8   8
#     4   9  17  33  56  79  97 127 176 216 249 287
#     4  10  22  34  50  78 107 137 168 205 259 307
#     4   9  17  33  56  78 100 129 174 219 245 297
#     4  10  18  32  50  76 106 132 165 210 249 305
#     4   9  18  30  52  76 102 133 167 202 260 300
#     4   9  18  33  54  77 101 135 172 207 254 301
#     4  10  21  32  52  78 103 135 164 212 256 299
#
# _framework density 17.266660999999999
#
# number of rings (size 3 to 8) (size 9 to 14) (size 15 to 20)
#    0.000    2.571    1.429    0.429    4.000    2.286 
#    0.000    0.714    0.000    0.857    0.000    0.000 
#    0.000    0.000    0.000    0.000    0.000    0.000 
#
# Total GULP energy -156161.218098 kJ/mol
# GULP energy per Si atom -5577.186361 kJ/mol
# Density = 1.722736 g / cm^3
# Si number density = 17.266661 Si / 1000 Ang^3
#
#
#
# Elastic Constant Matrix: (Units=GPa)
#
#
# Indices 1 2 3 4 5 6 
#
# 1 45.9616 19.3362 21.3207 0.0000 1.0615 0.0000
# 2 19.3362 66.1003 31.2091 0.0000 -1.1009 0.0000
# 3 21.3207 31.2091 87.8302 0.0000 -3.7638 0.0000
# 4 0.0000 0.0000 0.0000 18.0506 0.0000 2.6292
# 5 1.0615 -1.1009 -3.7638 0.0000 12.3522 0.0000
# 6 0.0000 0.0000 0.0000 2.6292 0.0000 17.1822
#
#
#
# Elastic Compliance Matrix: (Units=1/GPa)
#
#
# Indices 1 2 3 4 5 6 
#
# 1 0.026338 -0.005613 -0.004577 0.000000 -0.004158 0.000000
# 2 -0.005613 0.019376 -0.005500 0.000000 0.000533 0.000000
# 3 -0.004577 -0.005500 0.014638 0.000000 0.004364 0.000000
# 4 0.000000 0.000000 0.000000 0.056663 0.000000 -0.008671
# 5 -0.004158 0.000533 0.004364 0.000000 0.082692 0.000000
# 6 0.000000 0.000000 0.000000 -0.008671 0.000000 0.059527
#
#
# Mechanical properties :
#
#
# Convention : Reuss Voigt Hill
#
# Bulk Modulus (GPa) = 34.51540 38.18044 36.34792
# Shear Modulus (GPa) = 16.65167 18.05205 17.35186
#
# Velocity S-wave (km/s) = 3.10882 3.23691 3.17351
# Velocity P-wave (km/s) = 5.73754 6.01085 5.87578
#
# Compressibility (1/GPa) = 0.02897257
#
# Stress axis : x y z
#
# Youngs Moduli (GPa) = 37.96803 51.61051 68.31567
#
# Poissons Ratio (x) = 0.28967 0.31270
# Poissons Ratio (y) = 0.21310 0.37571
# Poissons Ratio (z) = 0.17379 0.28384
#
# Static dielectric constant tensor:
#      x y z
#    x 1.605000 0.000000 -0.016890 
#    y 0.000000 1.577760 0.000000 
#    z -0.016890 0.000000 1.586010 
# 
# From -- ./inp_files/199281.got.cif
#   From: 2010.05.17/outbox.cif.g08.bks.cpg/sg15_100_cif.got.tgz:199281.got - 2010.06.03 18:47:42.
