data_PCOD9257448
_publ_section_title
;
Structure prediction by ZEFSAII (Michael W. Deem and Ramdas Pophale) SiO2 
 PCOD9257448
Probable space group: C 2/C
;
_chemical_formula_sum "Si O2"
_cell_formula_units_Z 64
_cell_length_a 25.664082
_cell_length_b 21.027761
_cell_length_c 8.801732
_cell_angle_alpha 90.000000
_cell_angle_beta 139.162167
_cell_angle_gamma 90.000000
_cell_volume 3106.073552
_symmetry_space_group_name_H-M "C 2/C"
_symmetry_group_IT_number 15
_symmetry_cell_setting 'monoclinic'
loop_
_space_group_symop_operation_xyz
x,y,z
-x,y,1/2-z
-x,-y,-z
x,-y,1/2+z
1/2+x,1/2+y,z
1/2-x,1/2+y,1/2-z
1/2-x,1/2-y,-z
1/2+x,1/2-y,1/2+z
loop_
_atom_site_type_symbol
_atom_site_label
_atom_site_fract_x
_atom_site_fract_y
_atom_site_fract_z
Si Si1 0.120891 0.568036 0.643983
Si Si2 0.806962 0.924061 0.201478
Si Si3 0.613857 0.063303 0.278371
Si Si4 0.852595 0.305746 0.146727
Si Si5 0.328185 0.713103 0.605817
Si Si6 0.331567 0.316994 0.755906
Si Si7 0.685314 0.444377 0.931614
Si Si8 0.920626 0.686754 0.481473
O O1 0.093748 0.568720 0.410694
O O2 0.091682 0.505935 0.667246
O O3 0.101426 0.634771 0.680299
O O4 0.217662 0.559943 0.862468
O O5 0.831086 0.856053 0.188882
O O6 0.833687 0.931419 0.434711
O O7 0.836039 0.984901 0.169944
O O8 0.710126 0.927203 0.982754
O O9 0.578506 0.119044 0.098148
O O10 0.877852 0.236539 0.261575
O O11 0.855016 0.312623 0.971220
O O12 0.761341 0.313045 0.998259
O O13 0.250000 0.750000 0.500000
O O14 0.332392 0.702151 0.434302
O O15 0.399476 0.758801 0.815867
O O16 0.351858 0.389435 0.757246
O O17 0.000000 0.699373 0.750000
#
# Coordination Sequence:
#
# PCOD9257448 Si02
#       8
#     8   8   8   8   8   8   8   8
#     4   9  18  30  54  77 110 147 191 237 273 325
#     4  10  18  31  54  82 116 146 182 233 280 337
#     4  10  18  34  51  77 109 150 192 234 281 321
#     4  10  19  34  54  82 112 145 186 233 283 329
#     4  12  21  35  58  82 109 146 193 234 282 333
#     4  10  19  32  58  86 112 140 185 235 284 334
#     4   9  18  29  50  88 120 141 174 232 296 329
#     4  12  25  39  54  79 114 152 191 236 284 335
#
# _framework density 20.604793000000001
#
# number of rings (size 3 to 8) (size 9 to 14) (size 15 to 20)
#    0.000    1.750    2.500    3.000    3.500    4.000 
#    0.000    5.000    0.000    0.000    0.000    7.875 
#    0.000    0.000    0.000    0.000    0.000    0.000 
#
# Total GULP energy -178683.093255 kJ/mol
# GULP energy per Si atom -5583.846664 kJ/mol
# Density = 2.055790 g / cm^3
# Si number density = 20.604793 Si / 1000 Ang^3
#
#
#
# Elastic Constant Matrix: (Units=GPa)
#
#
# Indices 1 2 3 4 5 6 
#
# 1 37.8755 42.7975 27.7560 0.0000 -26.3722 0.0000
# 2 42.7975 199.8122 61.3522 0.0000 -27.4801 0.0000
# 3 27.7560 61.3522 86.6637 0.0000 -26.8409 0.0000
# 4 0.0000 0.0000 0.0000 32.5472 0.0000 -24.8028
# 5 -26.3722 -27.4801 -26.8409 0.0000 32.7367 0.0000
# 6 0.0000 0.0000 0.0000 -24.8028 0.0000 15.9779
#
#
#
# Elastic Compliance Matrix: (Units=1/GPa)
#
#
# Indices 1 2 3 4 5 6 
#
# 1 0.070571 -0.007809 -0.002006 0.000000 0.048652 0.000000
# 2 -0.007809 0.007381 -0.003691 0.000000 -0.003121 0.000000
# 3 -0.002006 -0.003691 0.017873 0.000000 0.009939 0.000000
# 4 0.000000 0.000000 0.000000 -0.167937 0.000000 -0.260692
# 5 0.048652 -0.003121 0.009939 0.000000 0.075270 0.000000
# 6 0.000000 0.000000 0.000000 -0.260692 0.000000 -0.342091
#
#
# Mechanical properties :
#
#
# Convention : Reuss Voigt Hill
#
# Bulk Modulus (GPa) = 14.53193 65.35142 39.94167
# Shear Modulus (GPa) = -17.30205 29.08208 5.89001
#
# Velocity S-wave (km/s) = -2.90092 3.76097 1.69256
# Velocity P-wave (km/s) = 2.03775 7.11655 4.82146
#
# Compressibility (1/GPa) = 0.06881398
#
# Stress axis : x y z
#
# Youngs Moduli (GPa) = 14.17007 135.47589 55.95080
#
# Poissons Ratio (x) = 1.05787 0.11224
# Poissons Ratio (y) = 0.11065 0.20653
# Poissons Ratio (z) = 0.02843 0.50007
#
# Static dielectric constant tensor:
#      x y z
#    x 1.797810 0.000000 0.051030 
#    y 0.000000 1.728500 0.000000 
#    z 0.051030 0.000000 1.731070 
# 
# From -- ./inp_files/70623.got.cif
#   From: 2010.05.17/outbox.cif.g08.bks.cpg/sg15_36_cif.got.tgz:70623.got - 2010.06.03 18:47:42.
