data_PCOD9257887
_publ_section_title
;
Structure prediction by ZEFSAII (Michael W. Deem and Ramdas Pophale) SiO2 
 PCOD9257887
Probable space group: C 2/C
;
_chemical_formula_sum "Si O2"
_cell_formula_units_Z 52
_cell_length_a 17.482095
_cell_length_b 17.871001
_cell_length_c 7.765766
_cell_angle_alpha 90.000000
_cell_angle_beta 98.932028
_cell_angle_gamma 90.000000
_cell_volume 2396.778342
_symmetry_space_group_name_H-M "C 2/C"
_symmetry_group_IT_number 15
_symmetry_cell_setting 'monoclinic'
loop_
_space_group_symop_operation_xyz
x,y,z
-x,y,1/2-z
-x,-y,-z
x,-y,1/2+z
1/2+x,1/2+y,z
1/2-x,1/2+y,1/2-z
1/2-x,1/2-y,-z
1/2+x,1/2-y,1/2+z
loop_
_atom_site_type_symbol
_atom_site_label
_atom_site_fract_x
_atom_site_fract_y
_atom_site_fract_z
Si Si1 0.000000 0.397282 0.250000
Si Si2 0.484956 0.751601 0.027228
Si Si3 0.245650 0.162922 0.706568
Si Si4 0.622612 0.738957 0.848401
Si Si5 0.339083 0.040269 0.577785
Si Si6 0.787783 0.609744 0.196193
Si Si7 0.156574 0.805035 0.817134
O O1 0.998832 0.336906 0.406442
O O2 0.074518 0.447869 0.317461
O O3 0.567717 0.721614 0.990297
O O4 0.432291 0.749112 0.837637
O O5 0.431389 0.709051 0.149745
O O6 0.183722 0.173497 0.833963
O O7 0.283820 0.084272 0.689968
O O8 0.199876 0.182216 0.515356
O O9 0.311815 0.225710 0.741472
O O10 0.671830 0.815317 0.861293
O O11 0.328203 0.081696 0.390169
O O12 0.308206 0.956240 0.572274
O O13 0.699151 0.631040 0.217517
#
# Coordination Sequence:
#
# PCOD9257887 Si02
#       7
#     4   8   8   8   8   8   8
#     4  12  22  32  48  78 116 144 164 216 266 320
#     4  10  18  32  55  80 101 134 178 222 270 302
#     4   8  14  32  54  72  96 135 183 224 253 304
#     4   9  18  34  57  77 100 133 185 224 261 316
#     4  11  22  35  50  75 113 148 176 208 265 322
#     4  10  21  36  53  77 107 147 179 211 260 320
#     4   8  14  32  56  71  96 139 184 220 250 308
#
# _framework density 21.695789999999999
#
# number of rings (size 3 to 8) (size 9 to 14) (size 15 to 20)
#    0.000    2.462    3.077    1.846    2.154    1.846 
#    0.000    2.308    0.000    0.923    0.000    2.154 
#    0.000    0.000    0.000    0.000    0.000    0.000 
#
# Total GULP energy -145061.202216 kJ/mol
# GULP energy per Si atom -5579.277008 kJ/mol
# Density = 2.164641 g / cm^3
# Si number density = 21.695790 Si / 1000 Ang^3
#
#
#
# Elastic Constant Matrix: (Units=GPa)
#
#
# Indices 1 2 3 4 5 6 
#
# 1 137.5066 7.0045 42.3476 0.0000 -24.1548 0.0000
# 2 7.0045 16.2415 7.8750 0.0000 -8.1804 0.0000
# 3 42.3476 7.8750 125.8840 0.0000 -20.2170 0.0000
# 4 0.0000 0.0000 0.0000 19.0582 0.0000 -11.2369
# 5 -24.1548 -8.1804 -20.2170 0.0000 41.1607 0.0000
# 6 0.0000 0.0000 0.0000 -11.2369 0.0000 24.6787
#
#
#
# Elastic Compliance Matrix: (Units=1/GPa)
#
#
# Indices 1 2 3 4 5 6 
#
# 1 0.008679 -0.000713 -0.002258 0.000000 0.003843 0.000000
# 2 -0.000713 0.069084 -0.002111 0.000000 0.012275 0.000000
# 3 -0.002258 -0.002111 0.009288 0.000000 0.002817 0.000000
# 4 0.000000 0.000000 0.000000 0.071727 0.000000 0.032659
# 5 0.003843 0.012275 0.002817 0.000000 0.030373 0.000000
# 6 0.000000 0.000000 0.000000 0.032659 0.000000 0.055392
#
#
# Mechanical properties :
#
#
# Convention : Reuss Voigt Hill
#
# Bulk Modulus (GPa) = 13.00591 43.78737 28.39664
# Shear Modulus (GPa) = 17.83582 31.80653 24.82118
#
# Velocity S-wave (km/s) = 2.87032 3.83302 3.38606
# Velocity P-wave (km/s) = 4.12221 6.30996 5.32955
#
# Compressibility (1/GPa) = 0.07688811
#
# Stress axis : x y z
#
# Youngs Moduli (GPa) = 115.21996 14.47517 107.66684
#
# Poissons Ratio (x) = 0.01032 0.24311
# Poissons Ratio (y) = 0.08214 0.22723
# Poissons Ratio (z) = 0.26016 0.03055
#
# Static dielectric constant tensor:
#      x y z
#    x 1.820870 0.000000 0.013590 
#    y 0.000000 1.724240 0.000000 
#    z 0.013590 0.000000 1.919910 
# 
# From -- ./inp_files/48581.got.cif
#   From: 2010.05.17/outbox.cif.g08.bks.cpg/sg15_25_cif.got.tgz:48581.got - 2010.06.03 18:47:42.
