data_PCOD9257763
_publ_section_title
;
Structure prediction by ZEFSAII (Michael W. Deem and Ramdas Pophale) SiO2 
 PCOD9257763
Probable space group: C 2/C
;
_chemical_formula_sum "Si O2"
_cell_formula_units_Z 64
_cell_length_a 13.529391
_cell_length_b 7.827621
_cell_length_c 22.456589
_cell_angle_alpha 90.000000
_cell_angle_beta 72.086356
_cell_angle_gamma 90.000000
_cell_volume 2262.925678
_symmetry_space_group_name_H-M "C 2/C"
_symmetry_group_IT_number 15
_symmetry_cell_setting 'monoclinic'
loop_
_space_group_symop_operation_xyz
x,y,z
-x,y,1/2-z
-x,-y,-z
x,-y,1/2+z
1/2+x,1/2+y,z
1/2-x,1/2+y,1/2-z
1/2-x,1/2-y,-z
1/2+x,1/2-y,1/2+z
loop_
_atom_site_type_symbol
_atom_site_label
_atom_site_fract_x
_atom_site_fract_y
_atom_site_fract_z
Si Si1 0.724863 0.093468 0.963774
Si Si2 0.016408 0.361627 0.445080
Si Si3 0.637384 0.903022 0.724844
Si Si4 0.635347 0.702730 0.275974
Si Si5 0.054851 0.979316 0.907384
Si Si6 0.941617 0.342428 0.641617
Si Si7 0.697856 0.608677 0.147081
Si Si8 0.292901 0.029199 0.907774
O O1 0.639774 0.157137 0.933259
O O2 0.811449 0.022643 0.904527
O O3 0.750000 0.250000 0.000000
O O4 0.691628 0.965463 0.023208
O O5 0.984838 0.162497 0.455191
O O6 0.005916 0.481007 0.389287
O O7 0.000000 0.500000 0.500000
O O8 0.979747 0.173217 0.600296
O O9 0.627136 0.102658 0.751731
O O10 0.648990 0.905135 0.650876
O O11 0.747868 0.820377 0.721840
O O12 0.560411 0.817571 0.787276
O O13 0.568495 0.624382 0.341931
O O14 0.630412 0.585144 0.218036
O O15 0.169415 0.007007 0.915832
O O16 0.819472 0.370244 0.644824
O O17 0.674520 0.787391 0.121496
#
# Coordination Sequence:
#
# PCOD9257763 Si02
#       8
#     8   8   8   8   8   8   8   8
#     4  11  20  32  51  75 111 145 178 225 279 331
#     4  11  23  38  54  75 109 144 186 225 272 336
#     4   9  15  25  45  76 107 135 172 218 277 328
#     4   9  15  25  45  75 109 135 169 222 277 322
#     4  10  18  32  53  77 107 137 179 228 274 327
#     4   9  18  32  51  77 104 141 177 230 274 319
#     4   8  17  28  46  77 109 140 171 218 283 329
#     4   9  17  29  49  77 109 141 172 219 276 339
#
# _framework density 28.281972
#
# number of rings (size 3 to 8) (size 9 to 14) (size 15 to 20)
#    0.000    2.500    2.500    2.625    0.000    1.500 
#    0.000    0.000    0.000    0.750    0.000    0.000 
#    0.000    0.000    0.000    0.000    0.000    0.000 
#
# Total GULP energy -178647.605530 kJ/mol
# GULP energy per Si atom -5582.737673 kJ/mol
# Density = 2.821760 g / cm^3
# Si number density = 28.281972 Si / 1000 Ang^3
#
#
#
# Elastic Constant Matrix: (Units=GPa)
#
#
# Indices 1 2 3 4 5 6 
#
# 1 78.3873 11.5187 22.4709 0.0000 22.4207 0.0000
# 2 11.5187 152.8271 31.4774 0.0000 2.0677 0.0000
# 3 22.4709 31.4774 146.6612 0.0000 24.0457 0.0000
# 4 0.0000 0.0000 0.0000 46.2240 0.0000 -20.3672
# 5 22.4207 2.0677 24.0457 0.0000 50.9398 0.0000
# 6 0.0000 0.0000 0.0000 -20.3672 0.0000 -42.1774
#
#
#
# Elastic Compliance Matrix: (Units=1/GPa)
#
#
# Indices 1 2 3 4 5 6 
#
# 1 0.014916 -0.000811 -0.001128 0.000000 -0.006000 0.000000
# 2 -0.000811 0.006900 -0.001484 0.000000 0.000777 0.000000
# 3 -0.001128 -0.001484 0.007824 0.000000 -0.003137 0.000000
# 4 0.000000 0.000000 0.000000 0.017838 0.000000 -0.008614
# 5 -0.006000 0.000777 -0.003137 0.000000 0.023721 0.000000
# 6 0.000000 0.000000 0.000000 -0.008614 0.000000 -0.019550
#
#
# Mechanical properties :
#
#
# Convention : Reuss Voigt Hill
#
# Bulk Modulus (GPa) = 43.87052 56.53437 50.20244
# Shear Modulus (GPa) = 75.65249 31.82453 53.73851
#
# Velocity S-wave (km/s) = 5.17759 3.35813 4.36374
# Velocity P-wave (km/s) = 7.16162 5.92190 6.57106
#
# Compressibility (1/GPa) = 0.02279435
#
# Stress axis : x y z
#
# Youngs Moduli (GPa) = 67.04370 144.93587 127.81188
#
# Poissons Ratio (x) = 0.11751 0.14412
# Poissons Ratio (y) = 0.05436 0.18968
# Poissons Ratio (z) = 0.07560 0.21509
#
# Static dielectric constant tensor:
#      x y z
#    x 2.508780 0.000000 -0.662060 
#    y 0.000000 2.008760 0.000000 
#    z -0.662060 0.000000 1.840420 
# 
# From -- ./inp_files/254850.got.cif
#   From: 2010.05.17/outbox.cif.g08.bks.cpg/sg15_128_cif.got.tgz:254850.got - 2010.06.03 18:47:42.
