data_PCOD9257919
_publ_section_title
;
Structure prediction by ZEFSAII (Michael W. Deem and Ramdas Pophale) SiO2 
 PCOD9257919
Probable space group: C 2/C
;
_chemical_formula_sum "Si O2"
_cell_formula_units_Z 40
_cell_length_a 14.301888
_cell_length_b 15.263567
_cell_length_c 25.268763
_cell_angle_alpha 90.000000
_cell_angle_beta 160.037768
_cell_angle_gamma 90.000000
_cell_volume 1883.205575
_symmetry_space_group_name_H-M "C 2/C"
_symmetry_group_IT_number 15
_symmetry_cell_setting 'monoclinic'
loop_
_space_group_symop_operation_xyz
x,y,z
-x,y,1/2-z
-x,-y,-z
x,-y,1/2+z
1/2+x,1/2+y,z
1/2-x,1/2+y,1/2-z
1/2-x,1/2-y,-z
1/2+x,1/2-y,1/2+z
loop_
_atom_site_type_symbol
_atom_site_label
_atom_site_fract_x
_atom_site_fract_y
_atom_site_fract_z
Si Si1 0.303367 0.253896 0.696667
Si Si2 0.194093 0.082032 0.598528
Si Si3 0.498568 0.983428 0.410468
Si Si4 0.200159 0.625100 0.600684
Si Si5 0.004833 0.108680 0.386391
O O1 0.500000 0.257351 0.750000
O O2 0.221493 0.152336 0.660141
O O3 0.443986 0.305358 0.819361
O O4 0.033224 0.307460 0.538836
O O5 0.500000 0.050190 0.750000
O O6 0.078514 0.132038 0.485471
O O7 0.000000 0.000000 0.500000
O O8 0.349161 0.909731 0.366355
O O9 0.731243 0.942392 0.496900
O O10 0.661084 0.042715 0.540086
O O11 0.262878 0.045053 0.259553
O O12 0.500000 0.661762 0.750000
#
# Coordination Sequence:
#
# PCOD9257919 Si02
#       5
#     8   8   8   8   8
#     4  10  22  39  64  95 126 165 215 274 312 379
#     4  11  26  47  67  91 127 177 217 264 321 387
#     4  10  19  31  60  93 130 164 203 256 314 386
#     4  10  18  32  55  94 134 161 196 264 325 362
#     4  11  21  40  65  96 129 168 216 258 325 383
#
# _framework density 21.240376999999999
#
# number of rings (size 3 to 8) (size 9 to 14) (size 15 to 20)
#    0.000    1.600    4.000    1.200    0.000    4.000 
#    3.600    0.000    0.000    6.000    0.000    0.000 
#    0.000    0.000    0.000    0.000    0.000    0.000 
#
# Total GULP energy -111795.329500 kJ/mol
# GULP energy per Si atom -5589.766475 kJ/mol
# Density = 2.119203 g / cm^3
# Si number density = 21.240377 Si / 1000 Ang^3
#
#
#
# Elastic Constant Matrix: (Units=GPa)
#
#
# Indices 1 2 3 4 5 6 
#
# 1 41.7934 29.2990 32.3346 0.0028 -11.7296 0.0012
# 2 29.2990 116.7064 44.2358 0.0097 3.6413 0.0012
# 3 32.3346 44.2358 130.5231 0.0366 -3.6291 0.0116
# 4 0.0028 0.0097 0.0366 29.5020 0.0087 2.7192
# 5 -11.7296 3.6413 -3.6291 0.0087 29.2876 0.0012
# 6 0.0012 0.0012 0.0116 2.7192 0.0012 15.7644
#
#
#
# Elastic Compliance Matrix: (Units=1/GPa)
#
#
# Indices 1 2 3 4 5 6 
#
# 1 0.038849 -0.007757 -0.006558 0.000002 0.015711 0.000001
# 2 -0.007757 0.011460 -0.002095 0.000001 -0.004791 0.000001
# 3 -0.006558 -0.002095 0.009965 -0.000010 -0.001131 -0.000005
# 4 0.000002 0.000001 -0.000010 0.034444 -0.000010 -0.005941
# 5 0.015711 -0.004791 -0.001131 -0.000010 0.040892 -0.000001
# 6 0.000001 0.000001 -0.000005 -0.005941 -0.000001 0.064459
#
#
# Mechanical properties :
#
#
# Convention : Reuss Voigt Hill
#
# Bulk Modulus (GPa) = 36.42780 55.64020 46.03400
# Shear Modulus (GPa) = 20.65783 27.12104 23.88943
#
# Velocity S-wave (km/s) = 3.12199 3.57720 3.35732
# Velocity P-wave (km/s) = 5.49393 6.58135 6.06207
#
# Compressibility (1/GPa) = 0.02745156
#
# Stress axis : x y z
#
# Youngs Moduli (GPa) = 25.74096 87.26269 100.35321
#
# Poissons Ratio (x) = 0.67692 0.65813
# Poissons Ratio (y) = 0.19968 0.21027
# Poissons Ratio (z) = 0.16881 0.18284
#
# Static dielectric constant tensor:
#      x y z
#    x 1.783300 0.000000 -0.015460 
#    y 0.000000 1.800750 -0.000010 
#    z -0.015460 -0.000010 1.738840 
# 
# From -- ./inp_files/296633.got.cif
#   From: 2010.05.17/outbox.cif.g08.bks.cpg/sg15_149_cif.got.tgz:296633.got - 2010.06.03 18:47:42.
