data_PCOD9257300
_publ_section_title
;
Structure prediction by ZEFSAII (Michael W. Deem and Ramdas Pophale) SiO2 
 PCOD9257300
Probable space group: C 2/C
;
_chemical_formula_sum "Si O2"
_cell_formula_units_Z 48
_cell_length_a 20.593825
_cell_length_b 17.628439
_cell_length_c 5.356763
_cell_angle_alpha 90.000000
_cell_angle_beta 101.584149
_cell_angle_gamma 90.000000
_cell_volume 1905.091137
_symmetry_space_group_name_H-M "C 2/C"
_symmetry_group_IT_number 15
_symmetry_cell_setting 'monoclinic'
loop_
_space_group_symop_operation_xyz
x,y,z
-x,y,1/2-z
-x,-y,-z
x,-y,1/2+z
1/2+x,1/2+y,z
1/2-x,1/2+y,1/2-z
1/2-x,1/2-y,-z
1/2+x,1/2-y,1/2+z
loop_
_atom_site_type_symbol
_atom_site_label
_atom_site_fract_x
_atom_site_fract_y
_atom_site_fract_z
Si Si1 0.753402 0.822889 0.830985
Si Si2 0.073833 0.528189 0.249796
Si Si3 0.732409 0.474604 0.347519
Si Si4 0.080944 0.035972 0.175452
Si Si5 0.396137 0.196598 0.345214
Si Si6 0.104163 0.208638 0.174821
O O1 0.680486 0.827176 0.661088
O O2 0.817823 0.810862 0.711155
O O3 0.750000 0.750000 0.000000
O O4 0.767186 0.892509 0.027993
O O5 0.105740 0.518257 0.547160
O O6 0.069522 0.615811 0.169712
O O7 0.000000 0.497114 0.250000
O O8 0.762307 0.525091 0.594181
O O9 0.659133 0.510392 0.250479
O O10 0.073490 0.125107 0.117990
O O11 0.056605 0.015679 0.430708
O O12 0.420175 0.244816 0.602380
O O13 0.400890 0.244624 0.089438
#
# Coordination Sequence:
#
# PCOD9257300 Si02
#       6
#     8   8   8   8   8   8
#     4  10  22  34  50  75 116 162 188 236 291 337
#     4  10  22  44  69  90 117 152 197 258 315 360
#     4  10  20  31  48  66  93 144 199 229 253 321
#     4  10  18  31  51  68 101 151 197 224 258 318
#     4  11  24  36  56  85 115 148 195 240 298 363
#     4  11  21  36  52  79 122 154 192 238 287 344
#
# _framework density 25.195644000000001
#
# number of rings (size 3 to 8) (size 9 to 14) (size 15 to 20)
#    0.000    1.667    3.333    2.500    7.000    4.000 
#    0.000    0.000    0.000    0.000    0.000    0.000 
#    0.000   13.333    0.000    0.000    0.000    0.000 
#
# Total GULP energy -134148.792938 kJ/mol
# GULP energy per Si atom -5589.533039 kJ/mol
# Density = 2.513830 g / cm^3
# Si number density = 25.195644 Si / 1000 Ang^3
#
#
#
# Elastic Constant Matrix: (Units=GPa)
#
#
# Indices 1 2 3 4 5 6 
#
# 1 50.6396 -7.5742 10.6471 0.0000 -1.7440 0.0000
# 2 -7.5742 180.3531 50.6080 0.0000 -6.7696 0.0000
# 3 10.6471 50.6080 182.9728 0.0000 -10.7845 0.0000
# 4 0.0000 0.0000 0.0000 54.9519 0.0000 -9.0425
# 5 -1.7440 -6.7696 -10.7845 0.0000 32.8351 0.0000
# 6 0.0000 0.0000 0.0000 -9.0425 0.0000 16.9575
#
#
#
# Elastic Compliance Matrix: (Units=1/GPa)
#
#
# Indices 1 2 3 4 5 6 
#
# 1 0.020285 0.001302 -0.001490 0.000000 0.000856 0.000000
# 2 0.001302 0.006111 -0.001721 0.000000 0.000764 0.000000
# 3 -0.001490 -0.001721 0.006121 0.000000 0.001576 0.000000
# 4 0.000000 0.000000 0.000000 0.019948 0.000000 0.010637
# 5 0.000856 0.000764 0.001576 0.000000 0.031176 0.000000
# 6 0.000000 0.000000 0.000000 0.010637 0.000000 0.064643
#
#
# Mechanical properties :
#
#
# Convention : Reuss Voigt Hill
#
# Bulk Modulus (GPa) = 34.84432 57.92526 46.38479
# Shear Modulus (GPa) = 30.92754 44.96786 37.94770
#
# Velocity S-wave (km/s) = 3.50736 4.22921 3.88509
# Velocity P-wave (km/s) = 5.50106 6.84751 6.21088
#
# Compressibility (1/GPa) = 0.02869908
#
# Stress axis : x y z
#
# Youngs Moduli (GPa) = 49.29766 163.64076 163.37438
#
# Poissons Ratio (x) = -0.21309 0.24344
# Poissons Ratio (y) = -0.06419 0.28116
# Poissons Ratio (z) = 0.07346 0.28162
#
# Static dielectric constant tensor:
#      x y z
#    x 2.491860 0.000000 -0.058000 
#    y 0.000000 1.706620 0.000000 
#    z -0.058000 0.000000 2.064840 
# 
# From -- ./inp_files/15331.got.cif
#   From: 2010.05.17/outbox.cif.g08.bks.cpg/sg15_8_cif.got.tgz:15331.got - 2010.06.03 18:47:42.
