data_PCOD9257784
_publ_section_title
;
Structure prediction by ZEFSAII (Michael W. Deem and Ramdas Pophale) SiO2 
 PCOD9257784
Probable space group: C 2/C
;
_chemical_formula_sum "Si O2"
_cell_formula_units_Z 56
_cell_length_a 23.450880
_cell_length_b 14.986119
_cell_length_c 9.589915
_cell_angle_alpha 90.000000
_cell_angle_beta 64.434451
_cell_angle_gamma 90.000000
_cell_volume 3040.282866
_symmetry_space_group_name_H-M "C 2/C"
_symmetry_group_IT_number 15
_symmetry_cell_setting 'monoclinic'
loop_
_space_group_symop_operation_xyz
x,y,z
-x,y,1/2-z
-x,-y,-z
x,-y,1/2+z
1/2+x,1/2+y,z
1/2-x,1/2+y,1/2-z
1/2-x,1/2-y,-z
1/2+x,1/2-y,1/2+z
loop_
_atom_site_type_symbol
_atom_site_label
_atom_site_fract_x
_atom_site_fract_y
_atom_site_fract_z
Si Si1 0.736670 0.320097 0.134068
Si Si2 0.655056 0.471655 0.901331
Si Si3 0.969334 0.902768 0.502024
Si Si4 0.699209 0.188375 0.634044
Si Si5 0.568401 0.279427 0.702152
Si Si6 0.237481 0.972087 0.565622
Si Si7 0.900783 0.148333 0.636745
O O1 0.777036 0.308809 0.231934
O O2 0.750731 0.423084 0.075968
O O3 0.661740 0.305598 0.240959
O O4 0.750000 0.250000 0.000000
O O5 0.707892 0.432735 0.740853
O O6 0.622069 0.545971 0.840443
O O7 0.596616 0.411053 0.011330
O O8 0.686393 0.523434 0.995252
O O9 0.947640 0.856728 0.669251
O O10 0.028395 0.847797 0.377423
O O11 0.000000 0.000000 0.500000
O O12 0.750000 0.250000 0.500000
O O13 0.627752 0.222714 0.693231
O O14 0.708257 0.091042 0.553187
O O15 0.500000 0.232547 0.750000
O O16 0.589276 0.321095 0.533313
#
# Coordination Sequence:
#
# PCOD9257784 Si02
#       7
#     8   8   8   8   8   8   8
#     4  11  25  39  59  91 126 161 211 274 317 368
#     4  10  18  32  53  83 120 163 197 248 300 370
#     4   9  18  29  55  85 126 163 193 244 309 382
#     4  12  22  39  67  89 121 171 211 258 318 379
#     4  10  20  35  61  88 121 159 214 254 310 383
#     4  11  22  37  56  89 125 156 216 258 305 370
#     4   9  17  36  50  86 118 156 203 247 301 376
#
# _framework density 18.419339000000001
#
# number of rings (size 3 to 8) (size 9 to 14) (size 15 to 20)
#    0.000    1.714    4.286    1.714    4.000    1.143 
#    0.000    5.714    0.000    0.857    0.000    0.000 
#    0.000    0.000    0.000    0.000    0.000    0.000 
#
# Total GULP energy -155954.619017 kJ/mol
# GULP energy per Si atom -5569.807822 kJ/mol
# Density = 1.837742 g / cm^3
# Si number density = 18.419339 Si / 1000 Ang^3
#
#
#
# Elastic Constant Matrix: (Units=GPa)
#
#
# Indices 1 2 3 4 5 6 
#
# 1 123.8821 50.1844 47.7069 0.0000 -25.9169 0.0000
# 2 50.1844 75.6459 47.2138 0.0000 -12.9893 0.0000
# 3 47.7069 47.2138 99.0360 0.0000 -24.7315 0.0000
# 4 0.0000 0.0000 0.0000 34.0505 0.0000 -7.3794
# 5 -25.9169 -12.9893 -24.7315 0.0000 28.8771 0.0000
# 6 0.0000 0.0000 0.0000 -7.3794 0.0000 33.4188
#
#
#
# Elastic Compliance Matrix: (Units=1/GPa)
#
#
# Indices 1 2 3 4 5 6 
#
# 1 0.012686 -0.006382 -0.001198 0.000000 0.007488 0.000000
# 2 -0.006382 0.022052 -0.008131 0.000000 -0.002772 0.000000
# 3 -0.001198 -0.008131 0.017006 0.000000 0.009832 0.000000
# 4 0.000000 0.000000 0.000000 0.030844 0.000000 0.006811
# 5 0.007488 -0.002772 0.009832 0.000000 0.048523 0.000000
# 6 0.000000 0.000000 0.000000 0.006811 0.000000 0.031427
#
#
# Mechanical properties :
#
#
# Convention : Reuss Voigt Hill
#
# Bulk Modulus (GPa) = 49.20955 65.41937 57.31446
# Shear Modulus (GPa) = 24.90839 29.49988 27.20414
#
# Velocity S-wave (km/s) = 3.68135 4.00631 3.84726
# Velocity P-wave (km/s) = 6.69657 7.54947 7.13577
#
# Compressibility (1/GPa) = 0.02032126
#
# Stress axis : x y z
#
# Youngs Moduli (GPa) = 78.82958 45.34663 58.80219
#
# Poissons Ratio (x) = 0.28941 0.07046
# Poissons Ratio (y) = 0.50310 0.47812
# Poissons Ratio (z) = 0.09446 0.36872
#
# Static dielectric constant tensor:
#      x y z
#    x 1.716390 0.000000 -0.023550 
#    y 0.000000 1.675920 0.000000 
#    z -0.023550 0.000000 1.676250 
# 
# From -- ./inp_files/61484.got.cif
#   From: 2010.05.17/outbox.cif.g08.bks.cpg/sg15_31_cif.got.tgz:61484.got - 2010.06.03 18:47:42.
