data_PCOD9257127
_publ_section_title
;
Structure prediction by ZEFSAII (Michael W. Deem and Ramdas Pophale) SiO2 
 PCOD9257127
Probable space group: C 2/C
;
_chemical_formula_sum "Si O2"
_cell_formula_units_Z 48
_cell_length_a 17.500186
_cell_length_b 8.799574
_cell_length_c 24.906168
_cell_angle_alpha 90.000000
_cell_angle_beta 135.853940
_cell_angle_gamma 90.000000
_cell_volume 2671.320712
_symmetry_space_group_name_H-M "C 2/C"
_symmetry_group_IT_number 15
_symmetry_cell_setting 'monoclinic'
loop_
_space_group_symop_operation_xyz
x,y,z
-x,y,1/2-z
-x,-y,-z
x,-y,1/2+z
1/2+x,1/2+y,z
1/2-x,1/2+y,1/2-z
1/2-x,1/2-y,-z
1/2+x,1/2-y,1/2+z
loop_
_atom_site_type_symbol
_atom_site_label
_atom_site_fract_x
_atom_site_fract_y
_atom_site_fract_z
Si Si1 0.577147 0.747483 0.681124
Si Si2 0.669891 0.675783 0.195828
Si Si3 0.479156 0.037483 0.901772
Si Si4 0.091819 0.921734 0.082911
Si Si5 0.164769 0.607800 0.074142
Si Si6 0.605249 0.488965 0.773093
O O1 0.708046 0.761040 0.738384
O O2 0.536631 0.653754 0.608312
O O3 0.568485 0.654417 0.731812
O O4 0.525733 0.914342 0.648436
O O5 0.582281 0.807805 0.143132
O O6 0.665952 0.555027 0.145329
O O7 0.638687 0.594947 0.235228
O O8 0.405041 0.966837 0.912423
O O9 0.598020 0.070800 0.986465
O O10 0.155892 0.788134 0.083463
O O11 0.000000 0.000000 0.000000
O O12 0.285171 0.533289 0.136331
O O13 0.500000 0.422765 0.750000
#
# Coordination Sequence:
#
# PCOD9257127 Si02
#       6
#     8   8   8   8   8   8
#     4  10  20  34  56  85 110 150 195 237 278 337
#     4  11  18  34  59  87 110 145 196 237 279 341
#     4  10  18  32  59  85 110 138 201 242 278 328
#     4  10  18  30  54  87 113 137 186 240 284 329
#     4  10  19  34  55  87 114 150 183 242 291 341
#     4  11  23  39  56  82 121 157 186 236 301 346
#
# _framework density 17.968640000000001
#
# number of rings (size 3 to 8) (size 9 to 14) (size 15 to 20)
#    0.000    1.667    6.667    1.000    0.000    0.000 
#    0.000    2.500    0.000    0.000    0.000    0.000 
#    0.000    0.000    0.000    0.000    0.000    0.000 
#
# Total GULP energy -133699.198091 kJ/mol
# GULP energy per Si atom -5570.799920 kJ/mol
# Density = 1.792774 g / cm^3
# Si number density = 17.968640 Si / 1000 Ang^3
#
#
#
# Elastic Constant Matrix: (Units=GPa)
#
#
# Indices 1 2 3 4 5 6 
#
# 1 37.9545 -0.1367 24.7723 0.0000 3.6440 0.0000
# 2 -0.1367 86.4597 42.2650 0.0000 -11.4476 0.0000
# 3 24.7723 42.2650 141.7779 0.0000 -9.1084 0.0000
# 4 0.0000 0.0000 0.0000 32.0605 0.0000 -4.8618
# 5 3.6440 -11.4476 -9.1084 0.0000 10.9452 0.0000
# 6 0.0000 0.0000 0.0000 -4.8618 0.0000 10.2519
#
#
#
# Elastic Compliance Matrix: (Units=1/GPa)
#
#
# Indices 1 2 3 4 5 6 
#
# 1 0.032431 0.001516 -0.007089 0.000000 -0.015111 0.000000
# 2 0.001516 0.015108 -0.004000 0.000000 0.011969 0.000000
# 3 -0.007089 -0.004000 0.009896 0.000000 0.006412 0.000000
# 4 0.000000 0.000000 0.000000 0.033608 0.000000 0.015938
# 5 -0.015111 0.011969 0.006412 0.000000 0.114250 0.000000
# 6 0.000000 0.000000 0.000000 0.015938 0.000000 0.105101
#
#
# Mechanical properties :
#
#
# Convention : Reuss Voigt Hill
#
# Bulk Modulus (GPa) = 26.11704 44.44369 35.28036
# Shear Modulus (GPa) = 14.60693 23.93762 19.27228
#
# Velocity S-wave (km/s) = 2.85426 3.65388 3.27853
# Velocity P-wave (km/s) = 5.04269 6.52601 5.83170
#
# Compressibility (1/GPa) = 0.03828918
#
# Stress axis : x y z
#
# Youngs Moduli (GPa) = 30.83506 66.18798 101.04778
#
# Poissons Ratio (x) = -0.10034 0.71635
# Poissons Ratio (y) = -0.04675 0.40418
# Poissons Ratio (z) = 0.21860 0.26475
#
# Static dielectric constant tensor:
#      x y z
#    x 1.582740 0.000000 -0.041180 
#    y 0.000000 1.691170 0.000000 
#    z -0.041180 0.000000 1.641900 
# 
# From -- ./inp_files/159712.got.cif
#   From: 2010.05.17/outbox.cif.g08.bks.cpg/sg15_80_cif.got.tgz:159712.got - 2010.06.03 18:47:42.
