data_PCOD9257470
_publ_section_title
;
Structure prediction by ZEFSAII (Michael W. Deem and Ramdas Pophale) SiO2 
 PCOD9257470
Probable space group: C 2/C
;
_chemical_formula_sum "Si O2"
_cell_formula_units_Z 52
_cell_length_a 9.045312
_cell_length_b 26.251788
_cell_length_c 14.528007
_cell_angle_alpha 90.000000
_cell_angle_beta 59.953496
_cell_angle_gamma 90.000000
_cell_volume 2986.176055
_symmetry_space_group_name_H-M "C 2/C"
_symmetry_group_IT_number 15
_symmetry_cell_setting 'monoclinic'
loop_
_space_group_symop_operation_xyz
x,y,z
-x,y,1/2-z
-x,-y,-z
x,-y,1/2+z
1/2+x,1/2+y,z
1/2-x,1/2+y,1/2-z
1/2-x,1/2-y,-z
1/2+x,1/2-y,1/2+z
loop_
_atom_site_type_symbol
_atom_site_label
_atom_site_fract_x
_atom_site_fract_y
_atom_site_fract_z
Si Si1 0.000000 0.030221 0.750000
Si Si2 0.832224 0.052250 0.171549
Si Si3 0.935988 0.808478 0.505464
Si Si4 0.411242 0.644265 0.369607
Si Si5 0.919554 0.616149 0.129003
Si Si6 0.544702 0.775002 0.642685
Si Si7 0.802854 0.915934 0.476473
O O1 0.879545 0.060750 0.859243
O O2 0.884155 0.996047 0.716768
O O3 0.665276 0.078483 0.269517
O O4 0.981380 0.093332 0.142694
O O5 0.819670 0.049112 0.064348
O O6 0.744216 0.789007 0.585937
O O7 0.005577 0.762857 0.422321
O O8 0.902551 0.862907 0.466527
O O9 0.052798 0.818970 0.556873
O O10 0.500000 0.666199 0.250000
O O11 0.220573 0.626863 0.405979
O O12 0.949437 0.671300 0.164936
O O13 0.100841 0.596707 0.035228
O O14 0.500000 0.747165 0.750000
#
# Coordination Sequence:
#
# PCOD9257470 Si02
#       7
#     4   8   8   8   8   8   8
#     4  12  22  36  58  84 106 154 180 224 296 336
#     4  10  19  38  56  82 107 141 188 229 275 330
#     4   9  20  34  50  82 109 147 178 226 274 329
#     4   9  16  32  57  76 111 140 181 231 273 312
#     4  10  18  35  58  83 109 141 187 239 266 322
#     4  10  18  31  55  81 108 143 192 219 268 326
#     4  10  22  35  57  79 113 142 184 228 276 333
#
# _framework density 17.413574000000001
#
# number of rings (size 3 to 8) (size 9 to 14) (size 15 to 20)
#    0.000    2.154    2.308    4.615    1.077    1.231 
#    0.000    0.000    0.000    0.000    0.000    0.000 
#    0.000    0.000    0.000    0.000    0.000    0.000 
#
# Total GULP energy -144801.296063 kJ/mol
# GULP energy per Si atom -5569.280618 kJ/mol
# Density = 1.737394 g / cm^3
# Si number density = 17.413574 Si / 1000 Ang^3
#
#
#
# Elastic Constant Matrix: (Units=GPa)
#
#
# Indices 1 2 3 4 5 6 
#
# 1 99.4531 27.9645 54.6384 0.0000 9.0743 0.0000
# 2 27.9645 61.8173 60.5045 0.0000 8.5250 0.0000
# 3 54.6384 60.5045 125.5775 0.0000 19.7317 0.0000
# 4 0.0000 0.0000 0.0000 166.7268 0.0000 54.6890
# 5 9.0743 8.5250 19.7317 0.0000 22.1043 0.0000
# 6 0.0000 0.0000 0.0000 54.6890 0.0000 42.6273
#
#
#
# Elastic Compliance Matrix: (Units=1/GPa)
#
#
# Indices 1 2 3 4 5 6 
#
# 1 0.013231 -0.000675 -0.005372 0.000000 -0.000375 0.000000
# 2 -0.000675 0.030695 -0.014747 0.000000 0.001603 0.000000
# 3 -0.005372 -0.014747 0.018803 0.000000 -0.008892 0.000000
# 4 0.000000 0.000000 0.000000 0.010356 0.000000 -0.013286
# 5 -0.000375 0.001603 -0.008892 0.000000 0.052713 0.000000
# 6 0.000000 0.000000 0.000000 -0.013286 0.000000 0.040505
#
#
# Mechanical properties :
#
#
# Convention : Reuss Voigt Hill
#
# Bulk Modulus (GPa) = 47.30527 63.67362 55.48945
# Shear Modulus (GPa) = 23.26236 55.87438 39.56837
#
# Velocity S-wave (km/s) = 3.65893 5.67066 4.77201
# Velocity P-wave (km/s) = 6.71380 8.91740 7.89288
#
# Compressibility (1/GPa) = 0.02113929
#
# Stress axis : x y z
#
# Youngs Moduli (GPa) = 75.58260 32.57827 53.18206
#
# Poissons Ratio (x) = 0.02200 0.28571
# Poissons Ratio (y) = 0.05103 0.78430
# Poissons Ratio (z) = 0.40605 0.48045
#
# Static dielectric constant tensor:
#      x y z
#    x 1.604820 0.000000 0.011910 
#    y 0.000000 1.594200 0.000000 
#    z 0.011910 0.000000 1.614420 
# 
# From -- ./inp_files/80615.got.cif
#   From: 2010.05.17/outbox.cif.g08.bks.cpg/sg15_41_cif.got.tgz:80615.got - 2010.06.03 18:47:42.
