data_PCOD9257175
_publ_section_title
;
Structure prediction by ZEFSAII (Michael W. Deem and Ramdas Pophale) SiO2 
 PCOD9257175
Probable space group: C 2/C
;
_chemical_formula_sum "Si O2"
_cell_formula_units_Z 52
_cell_length_a 6.485206
_cell_length_b 27.652460
_cell_length_c 11.459216
_cell_angle_alpha 90.000000
_cell_angle_beta 76.496141
_cell_angle_gamma 90.000000
_cell_volume 1998.190761
_symmetry_space_group_name_H-M "C 2/C"
_symmetry_group_IT_number 15
_symmetry_cell_setting 'monoclinic'
loop_
_space_group_symop_operation_xyz
x,y,z
-x,y,1/2-z
-x,-y,-z
x,-y,1/2+z
1/2+x,1/2+y,z
1/2-x,1/2+y,1/2-z
1/2-x,1/2-y,-z
1/2+x,1/2-y,1/2+z
loop_
_atom_site_type_symbol
_atom_site_label
_atom_site_fract_x
_atom_site_fract_y
_atom_site_fract_z
Si Si1 0.421509 0.222845 0.563933
Si Si2 0.221513 0.847007 0.284727
Si Si3 0.932376 0.823633 0.943377
Si Si4 0.431563 0.144777 0.391404
Si Si5 0.244235 0.050757 0.416416
Si Si6 0.500000 0.602056 0.250000
Si Si7 0.362137 0.451925 0.152301
O O1 0.250000 0.250000 0.500000
O O2 0.345744 0.187399 0.678189
O O3 0.545747 0.268326 0.599382
O O4 0.531540 0.185777 0.459892
O O5 0.270474 0.903264 0.305063
O O6 0.000000 0.852000 0.250000
O O7 0.174403 0.824105 0.415911
O O8 0.178247 0.842387 0.932454
O O9 0.871396 0.862944 0.853942
O O10 0.500000 0.151460 0.250000
O O11 0.429356 0.088069 0.427582
O O12 0.157982 0.070228 0.304161
O O13 0.049083 0.056178 0.532255
O O14 0.281002 0.994511 0.384473
O O15 0.500000 0.465203 0.250000
#
# Coordination Sequence:
#
# PCOD9257175 Si02
#       7
#     8   8   8   8   8   4   8
#     4  10  20  30  51  80 105 143 179 231 264 312
#     4  11  17  32  53  83 109 129 188 237 270 300
#     4  10  21  33  54  79 108 146 176 226 275 316
#     4  10  19  32  53  80 110 139 176 218 268 329
#     4  10  19  34  54  86 109 140 176 224 284 316
#     4  10  18  38  48  78 118 138 174 226 268 342
#     4  10  18  30  57  85 106 134 181 240 269 307
#
# _framework density 26.023541000000002
#
# number of rings (size 3 to 8) (size 9 to 14) (size 15 to 20)
#    0.000    1.846    6.923    0.923    4.308    0.000 
#    0.000    0.769    0.000    3.692    2.000    0.000 
#    0.000    0.000    0.000    0.000    0.000    0.000 
#
# Total GULP energy -145322.780128 kJ/mol
# GULP energy per Si atom -5589.337697 kJ/mol
# Density = 2.596431 g / cm^3
# Si number density = 26.023541 Si / 1000 Ang^3
#
#
#
# Elastic Constant Matrix: (Units=GPa)
#
#
# Indices 1 2 3 4 5 6 
#
# 1 32.9429 20.1597 24.5790 0.0000 1.2376 0.0000
# 2 20.1597 243.3599 83.2589 0.0000 -4.7641 0.0000
# 3 24.5790 83.2589 183.9673 0.0000 -9.9556 0.0000
# 4 0.0000 0.0000 0.0000 36.8141 0.0000 11.4023
# 5 1.2376 -4.7641 -9.9556 0.0000 38.3245 0.0000
# 6 0.0000 0.0000 0.0000 11.4023 0.0000 37.5447
#
#
#
# Elastic Compliance Matrix: (Units=1/GPa)
#
#
# Indices 1 2 3 4 5 6 
#
# 1 0.034381 -0.001513 -0.004036 0.000000 -0.002347 0.000000
# 2 -0.001513 0.004929 -0.002021 0.000000 0.000137 0.000000
# 3 -0.004036 -0.002021 0.006981 0.000000 0.001693 0.000000
# 4 0.000000 0.000000 0.000000 0.029984 0.000000 -0.009106
# 5 -0.002347 0.000137 0.001693 0.000000 0.026625 0.000000
# 6 0.000000 0.000000 0.000000 -0.009106 0.000000 0.029400
#
#
# Mechanical properties :
#
#
# Convention : Reuss Voigt Hill
#
# Bulk Modulus (GPa) = 32.10195 79.58503 55.84349
# Shear Modulus (GPa) = 31.68096 44.68817 38.18456
#
# Velocity S-wave (km/s) = 3.49291 4.14843 3.83470
# Velocity P-wave (km/s) = 5.35067 7.32081 6.41186
#
# Compressibility (1/GPa) = 0.03115076
#
# Stress axis : x y z
#
# Youngs Moduli (GPa) = 29.08606 202.89735 143.24288
#
# Poissons Ratio (x) = 0.30706 0.57806
# Poissons Ratio (y) = 0.04402 0.28949
# Poissons Ratio (z) = 0.11738 0.41005
#
# Static dielectric constant tensor:
#      x y z
#    x 1.912290 0.000000 -0.336750 
#    y 0.000000 2.093530 0.000000 
#    z -0.336750 0.000000 1.806440 
# 
# From -- ./inp_files/92419.got.cif
#   From: 2010.05.17/outbox.cif.g08.bks.cpg/sg15_47_cif.got.tgz:92419.got - 2010.06.03 18:47:42.
