data_PCOD9257414
_publ_section_title
;
Structure prediction by ZEFSAII (Michael W. Deem and Ramdas Pophale) SiO2 
 PCOD9257414
Probable space group: C 2/C
;
_chemical_formula_sum "Si O2"
_cell_formula_units_Z 44
_cell_length_a 30.538161
_cell_length_b 14.581391
_cell_length_c 19.702192
_cell_angle_alpha 90.000000
_cell_angle_beta 167.461856
_cell_angle_gamma 90.000000
_cell_volume 1904.562587
_symmetry_space_group_name_H-M "C 2/C"
_symmetry_group_IT_number 15
_symmetry_cell_setting 'monoclinic'
loop_
_space_group_symop_operation_xyz
x,y,z
-x,y,1/2-z
-x,-y,-z
x,-y,1/2+z
1/2+x,1/2+y,z
1/2-x,1/2+y,1/2-z
1/2-x,1/2-y,-z
1/2+x,1/2-y,1/2+z
loop_
_atom_site_type_symbol
_atom_site_label
_atom_site_fract_x
_atom_site_fract_y
_atom_site_fract_z
Si Si1 0.383841 0.537816 0.732540
Si Si2 0.830233 0.523853 0.375313
Si Si3 0.000000 0.360248 0.250000
Si Si4 0.739680 0.525196 0.593122
Si Si5 0.357339 0.625698 0.828848
Si Si6 0.164939 0.733299 0.796119
O O1 0.255980 0.529177 0.471327
O O2 0.442668 0.436906 0.851237
O O3 0.610051 0.570252 0.055811
O O4 0.296302 0.597120 0.660852
O O5 0.798542 0.418939 0.354404
O O6 0.978485 0.576469 0.650350
O O7 0.848643 0.519308 0.322606
O O8 0.193245 0.294541 0.537581
O O9 0.500000 0.529284 0.250000
O O10 0.805682 0.629189 0.680439
O O11 0.436497 0.728429 0.951528
O O12 0.250000 0.750000 0.000000
#
# Coordination Sequence:
#
# PCOD9257414 Si02
#       6
#     8   8   4   8   8   8
#     4   8  14  29  50  75 100 144 174 211 262 324
#     4   9  19  34  51  78 109 147 180 218 264 326
#     4  12  22  34  58  84 110 144 184 216 272 330
#     4  10  18  31  53  82 113 132 178 231 269 307
#     4   9  16  31  52  75 107 144 175 213 274 328
#     4  12  20  32  55  88 112 135 177 240 276 308
#
# _framework density 23.102418
#
# number of rings (size 3 to 8) (size 9 to 14) (size 15 to 20)
#    1.091    1.091    4.545    0.000    0.000    0.000 
#    0.000    0.909    0.000    3.273    0.000    0.000 
#    0.000    0.000    0.000    0.000    0.000    0.000 
#
# Total GULP energy -122847.576082 kJ/mol
# GULP energy per Si atom -5583.980731 kJ/mol
# Density = 2.304984 g / cm^3
# Si number density = 23.102418 Si / 1000 Ang^3
#
#
#
# Elastic Constant Matrix: (Units=GPa)
#
#
# Indices 1 2 3 4 5 6 
#
# 1 140.1517 31.7644 39.0747 0.0002 -45.8330 -0.0004
# 2 31.7644 54.3314 39.8528 -0.0001 -13.2512 -0.0004
# 3 39.0747 39.8528 111.9575 0.0012 -26.2242 0.0001
# 4 0.0002 -0.0001 0.0012 33.2056 0.0006 5.1493
# 5 -45.8330 -13.2512 -26.2242 0.0006 47.4027 -0.0001
# 6 -0.0004 -0.0004 0.0001 5.1493 -0.0001 24.0373
#
#
#
# Elastic Compliance Matrix: (Units=1/GPa)
#
#
# Indices 1 2 3 4 5 6 
#
# 1 0.011273 -0.004074 -0.000227 0.000000 0.009635 0.000000
# 2 -0.004074 0.026615 -0.008309 0.000000 -0.001095 0.000000
# 3 -0.000227 -0.008309 0.013067 -0.000001 0.004686 0.000000
# 4 0.000000 0.000000 -0.000001 0.031150 -0.000001 -0.006673
# 5 0.009635 -0.001095 0.004686 -0.000001 0.032698 0.000001
# 6 0.000000 0.000000 0.000000 -0.006673 0.000001 0.043031
#
#
# Mechanical properties :
#
#
# Convention : Reuss Voigt Hill
#
# Bulk Modulus (GPa) = 38.85880 58.64713 48.75296
# Shear Modulus (GPa) = 26.09184 33.97905 30.03544
#
# Velocity S-wave (km/s) = 3.36430 3.83926 3.60960
# Velocity P-wave (km/s) = 5.65226 6.71521 6.20653
#
# Compressibility (1/GPa) = 0.02573420
#
# Stress axis : x y z
#
# Youngs Moduli (GPa) = 88.71062 37.57340 76.53126
#
# Poissons Ratio (x) = 0.15307 0.01740
# Poissons Ratio (y) = 0.36139 0.63587
# Poissons Ratio (z) = 0.02017 0.31218
#
# Static dielectric constant tensor:
#      x y z
#    x 1.935620 0.000000 0.093160 
#    y 0.000000 1.845990 0.000000 
#    z 0.093160 0.000000 1.953420 
# 
# From -- ./inp_files/225437.got.cif
#   From: 2010.05.17/outbox.cif.g08.bks.cpg/sg15_113_cif.got.tgz:225437.got - 2010.06.03 18:47:42.
