data_PCOD9257054
_publ_section_title
;
Structure prediction by ZEFSAII (Michael W. Deem and Ramdas Pophale) SiO2 
 PCOD9257054
Probable space group: C 2/C
;
_chemical_formula_sum "Si O2"
_cell_formula_units_Z 56
_cell_length_a 29.672237
_cell_length_b 18.929226
_cell_length_c 8.957479
_cell_angle_alpha 90.000000
_cell_angle_beta 36.666829
_cell_angle_gamma 90.000000
_cell_volume 3004.417495
_symmetry_space_group_name_H-M "C 2/C"
_symmetry_group_IT_number 15
_symmetry_cell_setting 'monoclinic'
loop_
_space_group_symop_operation_xyz
x,y,z
-x,y,1/2-z
-x,-y,-z
x,-y,1/2+z
1/2+x,1/2+y,z
1/2-x,1/2+y,1/2-z
1/2-x,1/2-y,-z
1/2+x,1/2-y,1/2+z
loop_
_atom_site_type_symbol
_atom_site_label
_atom_site_fract_x
_atom_site_fract_y
_atom_site_fract_z
Si Si1 0.366580 0.903684 0.891903
Si Si2 0.371906 0.510221 0.788440
Si Si3 0.006053 0.907362 0.385706
Si Si4 0.485145 0.850371 0.111859
Si Si5 0.922821 0.535451 0.546490
Si Si6 0.936562 0.202444 0.294874
Si Si7 0.305127 0.400437 0.197568
O O1 0.431761 0.846372 0.684559
O O2 0.372805 0.930153 0.047259
O O3 0.387334 0.967898 0.722750
O O4 0.282134 0.880935 0.080177
O O5 0.447304 0.472597 0.521650
O O6 0.410793 0.566116 0.796881
O O7 0.325576 0.551625 0.786904
O O8 0.326332 0.451036 0.000252
O O9 0.972648 0.859352 0.601451
O O10 0.000000 0.864822 0.250000
O O11 0.500000 0.863323 0.250000
O O12 0.435458 0.779612 0.224725
O O13 0.444660 0.911953 0.124241
O O14 0.000000 0.519513 0.250000
O O15 0.858286 0.168698 0.556454
O O16 0.000000 0.213048 0.250000
#
# Coordination Sequence:
#
# PCOD9257054 Si02
#       7
#     8   8   8   8   8   8   8
#     4  11  21  36  61  89 115 144 182 238 294 331
#     4  10  19  30  51  80 112 145 185 231 274 322
#     4  10  18  30  52  79 104 148 197 229 258 321
#     4  10  21  39  61  81 110 151 194 232 273 341
#     4  10  20  37  63  90 111 142 189 235 282 340
#     4  10  21  37  57  80 112 155 194 228 272 338
#     4  11  21  35  56  86 120 147 183 237 290 330
#
# _framework density 18.639220999999999
#
# number of rings (size 3 to 8) (size 9 to 14) (size 15 to 20)
#    0.000    1.714    2.857    3.857    0.000    1.714 
#    0.000    3.571    3.143    0.000    0.000    0.000 
#    0.000    0.000    0.000    0.000    0.000    0.000 
#
# Total GULP energy -156017.424815 kJ/mol
# GULP energy per Si atom -5572.050886 kJ/mol
# Density = 1.859680 g / cm^3
# Si number density = 18.639221 Si / 1000 Ang^3
#
#
#
# Elastic Constant Matrix: (Units=GPa)
#
#
# Indices 1 2 3 4 5 6 
#
# 1 81.9997 17.9976 27.1616 0.0000 -6.2388 0.0000
# 2 17.9976 77.8825 26.5061 0.0000 -4.7150 0.0000
# 3 27.1616 26.5061 61.7531 0.0000 -14.2330 0.0000
# 4 0.0000 0.0000 0.0000 -54.2694 0.0000 -6.9927
# 5 -6.2388 -4.7150 -14.2330 0.0000 31.3903 0.0000
# 6 0.0000 0.0000 0.0000 -6.9927 0.0000 9.6301
#
#
#
# Elastic Compliance Matrix: (Units=1/GPa)
#
#
# Indices 1 2 3 4 5 6 
#
# 1 0.014399 -0.001374 -0.005731 0.000000 0.000057 0.000000
# 2 -0.001374 0.015183 -0.006086 0.000000 -0.000752 0.000000
# 3 -0.005731 -0.006086 0.023287 0.000000 0.008506 0.000000
# 4 0.000000 0.000000 0.000000 -0.016850 0.000000 -0.012235
# 5 0.000057 -0.000752 0.008506 0.000000 0.035612 0.000000
# 6 0.000000 0.000000 0.000000 -0.012235 0.000000 0.094957
#
#
# Mechanical properties :
#
#
# Convention : Reuss Voigt Hill
#
# Bulk Modulus (GPa) = 37.75252 40.55178 39.15215
# Shear Modulus (GPa) = 24.77730 7.34820 16.06275
#
# Velocity S-wave (km/s) = 3.64993 1.98769 2.93878
# Velocity P-wave (km/s) = 6.16935 5.20300 5.70667
#
# Compressibility (1/GPa) = 0.02648830
#
# Stress axis : x y z
#
# Youngs Moduli (GPa) = 69.44825 65.86277 42.94287
#
# Poissons Ratio (x) = 0.09048 0.24609
# Poissons Ratio (y) = 0.09540 0.26135
# Poissons Ratio (z) = 0.39798 0.40085
#
# Static dielectric constant tensor:
#      x y z
#    x 1.640190 0.000000 0.007790 
#    y 0.000000 1.670150 0.000000 
#    z 0.007790 0.000000 1.656860 
# 
# From -- ./inp_files/67099.got.cif
#   From: 2010.05.17/outbox.cif.g08.bks.cpg/sg15_34_cif.got.tgz:67099.got - 2010.06.03 18:47:42.
