data_PCOD9257257
_publ_section_title
;
Structure prediction by ZEFSAII (Michael W. Deem and Ramdas Pophale) SiO2 
 PCOD9257257
Probable space group: C 2/C
;
_chemical_formula_sum "Si O2"
_cell_formula_units_Z 56
_cell_length_a 9.946760
_cell_length_b 15.978954
_cell_length_c 16.261952
_cell_angle_alpha 90.000000
_cell_angle_beta 81.800711
_cell_angle_gamma 90.000000
_cell_volume 2558.235123
_symmetry_space_group_name_H-M "C 2/C"
_symmetry_group_IT_number 15
_symmetry_cell_setting 'monoclinic'
loop_
_space_group_symop_operation_xyz
x,y,z
-x,y,1/2-z
-x,-y,-z
x,-y,1/2+z
1/2+x,1/2+y,z
1/2-x,1/2+y,1/2-z
1/2-x,1/2-y,-z
1/2+x,1/2-y,1/2+z
loop_
_atom_site_type_symbol
_atom_site_label
_atom_site_fract_x
_atom_site_fract_y
_atom_site_fract_z
Si Si1 0.421294 0.329971 0.974155
Si Si2 0.863997 0.591406 0.491752
Si Si3 0.764807 0.285045 0.770375
Si Si4 0.462025 0.177720 0.641677
Si Si5 0.198535 0.577209 0.577822
Si Si6 0.142302 0.927273 0.884759
Si Si7 0.491600 0.774257 0.620399
O O1 0.270108 0.354109 0.014415
O O2 0.485429 0.299590 0.054898
O O3 0.461171 0.255693 0.908828
O O4 0.488393 0.410461 0.923769
O O5 0.871811 0.628850 0.581308
O O6 0.867437 0.492487 0.476047
O O7 0.725488 0.613326 0.454550
O O8 0.978304 0.640240 0.430656
O O9 0.642178 0.219103 0.786211
O O10 0.697233 0.374069 0.802542
O O11 0.882895 0.264832 0.827242
O O12 0.848302 0.282454 0.679263
O O13 0.582985 0.112832 0.647018
O O14 0.310537 0.523268 0.618087
#
# Coordination Sequence:
#
# PCOD9257257 Si02
#       7
#     8   8   8   8   8   8   8
#     4  10  18  31  49  73  97 124 160 194 235 282
#     4   8  17  30  49  71  94 123 159 197 235 278
#     4   9  17  32  51  69  90 123 161 199 235 277
#     4  10  18  31  49  73  97 124 160 194 235 282
#     4  10  19  30  48  74 101 126 152 198 239 282
#     4   8  17  30  49  71  94 123 159 197 235 278
#     4   9  17  32  51  69  90 123 161 199 235 277
#
# _framework density 21.890091999999999
#
# number of rings (size 3 to 8) (size 9 to 14) (size 15 to 20)
#    0.857    2.000    0.000    2.143    0.000    3.429 
#    0.000    3.571    0.000    0.000    0.000    0.000 
#    0.000    0.000    0.000    0.000    0.000    0.000 
#
# Total GULP energy -155982.493315 kJ/mol
# GULP energy per Si atom -5570.803333 kJ/mol
# Density = 2.184027 g / cm^3
# Si number density = 21.890092 Si / 1000 Ang^3
#
#
#
# Elastic Constant Matrix: (Units=GPa)
#
#
# Indices 1 2 3 4 5 6 
#
# 1 39.0511 4.2028 14.4366 0.0000 -25.9567 0.0000
# 2 4.2028 57.1955 8.7629 0.0000 -4.4611 0.0000
# 3 14.4366 8.7629 72.2097 0.0000 -26.2962 0.0000
# 4 0.0000 0.0000 0.0000 14.1621 0.0000 -11.4364
# 5 -25.9567 -4.4611 -26.2962 0.0000 35.8354 0.0000
# 6 0.0000 0.0000 0.0000 -11.4364 0.0000 35.0023
#
#
#
# Elastic Compliance Matrix: (Units=1/GPa)
#
#
# Indices 1 2 3 4 5 6 
#
# 1 0.050478 -0.001305 0.004534 0.000000 0.039727 0.000000
# 2 -0.001305 0.017868 -0.001967 0.000000 -0.000165 0.000000
# 3 0.004534 -0.001967 0.019498 0.000000 0.017347 0.000000
# 4 0.000000 0.000000 0.000000 0.095920 0.000000 0.031340
# 5 0.039727 -0.000165 0.017347 0.000000 0.069390 0.000000
# 6 0.000000 0.000000 0.000000 0.031340 0.000000 0.038809
#
#
# Mechanical properties :
#
#
# Convention : Reuss Voigt Hill
#
# Bulk Modulus (GPa) = 11.06604 24.80678 17.93641
# Shear Modulus (GPa) = 15.64636 26.40355 21.02496
#
# Velocity S-wave (km/s) = 2.67642 3.47679 3.10252
# Velocity P-wave (km/s) = 3.82324 5.24161 4.58757
#
# Compressibility (1/GPa) = 0.09036659
#
# Stress axis : x y z
#
# Youngs Moduli (GPa) = 19.81064 55.96475 51.28742
#
# Poissons Ratio (x) = 0.07304 -0.23252
# Poissons Ratio (y) = 0.02586 0.10090
# Poissons Ratio (z) = -0.08982 0.11011
#
# Static dielectric constant tensor:
#      x y z
#    x 1.877690 0.000000 0.042700 
#    y 0.000000 1.805940 0.000000 
#    z 0.042700 0.000000 1.779580 
# 
# From -- ./inp_files/239266.got.cif
#   From: 2010.05.17/outbox.cif.g08.bks.cpg/sg15_120_cif.got.tgz:239266.got - 2010.06.03 18:47:42.
