data_PCOD9257270
_publ_section_title
;
Structure prediction by ZEFSAII (Michael W. Deem and Ramdas Pophale) SiO2 
 PCOD9257270
Probable space group: C 2/C
;
_chemical_formula_sum "Si O2"
_cell_formula_units_Z 64
_cell_length_a 20.540851
_cell_length_b 7.360501
_cell_length_c 23.337386
_cell_angle_alpha 90.000000
_cell_angle_beta 47.144957
_cell_angle_gamma 90.000000
_cell_volume 2586.589396
_symmetry_space_group_name_H-M "C 2/C"
_symmetry_group_IT_number 15
_symmetry_cell_setting 'monoclinic'
loop_
_space_group_symop_operation_xyz
x,y,z
-x,y,1/2-z
-x,-y,-z
x,-y,1/2+z
1/2+x,1/2+y,z
1/2-x,1/2+y,1/2-z
1/2-x,1/2-y,-z
1/2+x,1/2-y,1/2+z
loop_
_atom_site_type_symbol
_atom_site_label
_atom_site_fract_x
_atom_site_fract_y
_atom_site_fract_z
Si Si1 0.719997 0.582675 0.437082
Si Si2 0.334286 0.094670 0.679932
Si Si3 0.972714 0.149904 0.646623
Si Si4 0.327055 0.491272 0.148307
Si Si5 0.283326 0.982615 0.587902
Si Si6 0.472592 0.992585 0.948762
Si Si7 0.873384 0.987907 0.390315
Si Si8 0.407602 0.135070 0.294059
O O1 0.659647 0.477454 0.427353
O O2 0.719441 0.799978 0.425253
O O3 0.693431 0.539036 0.516924
O O4 0.819572 0.526596 0.359893
O O5 0.327736 0.296102 0.660614
O O6 0.299924 0.970760 0.646548
O O7 0.267708 0.073368 0.771899
O O8 0.437097 0.064782 0.633608
O O9 0.035342 0.292792 0.575069
O O10 0.916426 0.256640 0.729046
O O11 0.029924 0.980706 0.638031
O O12 0.903131 0.093956 0.640447
O O13 0.375214 0.918682 0.503101
O O14 0.188937 0.913702 0.619708
O O15 0.500000 0.000000 0.000000
O O16 0.902375 0.797728 0.343671
O O17 0.500000 0.033814 0.250000
#
# Coordination Sequence:
#
# PCOD9257270 Si02
#       8
#     8   8   8   8   8   8   8   8
#     4  10  18  31  49  84 118 141 180 238 296 329
#     4  10  21  37  57  86 112 147 191 236 295 348
#     4  11  21  35  58  88 114 152 195 237 291 347
#     4  11  22  37  57  84 119 150 192 241 287 351
#     4   9  17  33  56  82 111 144 186 244 285 327
#     4  10  20  35  55  87 116 148 186 232 292 345
#     4  10  19  32  54  87 115 142 191 253 291 322
#     4   9  18  30  54  86 111 143 190 248 291 325
#
# _framework density 24.743009000000001
#
# number of rings (size 3 to 8) (size 9 to 14) (size 15 to 20)
#    0.000    2.000    1.250    5.250    1.750    0.500 
#    0.000    0.000    0.000    0.750   13.000    0.000 
#    0.000    0.000    0.000    0.000    0.000    0.000 
#
# Total GULP energy -178537.734390 kJ/mol
# GULP energy per Si atom -5579.304200 kJ/mol
# Density = 2.468669 g / cm^3
# Si number density = 24.743009 Si / 1000 Ang^3
#
#
#
# Elastic Constant Matrix: (Units=GPa)
#
#
# Indices 1 2 3 4 5 6 
#
# 1 502.5486 -68.0896 173.7447 0.0068 -124.6966 0.0063
# 2 -68.0896 57.1530 -8.9888 -0.0021 21.2820 0.0003
# 3 173.7447 -8.9888 144.0852 0.0023 -37.8839 0.0024
# 4 0.0068 -0.0021 0.0023 15.3116 -0.0023 -0.8931
# 5 -124.6966 21.2820 -37.8839 -0.0023 89.0994 -0.0017
# 6 0.0063 0.0003 0.0024 -0.8931 -0.0017 17.3862
#
#
#
# Elastic Compliance Matrix: (Units=1/GPa)
#
#
# Indices 1 2 3 4 5 6 
#
# 1 0.005380 0.003963 -0.005077 0.000000 0.004424 -0.000001
# 2 0.003963 0.022125 -0.003749 0.000002 -0.001332 -0.000001
# 3 -0.005077 -0.003749 0.012605 0.000000 -0.000850 0.000000
# 4 0.000000 0.000002 0.000000 0.065506 0.000001 0.003365
# 5 0.004424 -0.001332 -0.000850 0.000001 0.017371 0.000000
# 6 -0.000001 -0.000001 0.000000 0.003365 0.000000 0.057690
#
#
# Mechanical properties :
#
#
# Convention : Reuss Voigt Hill
#
# Bulk Modulus (GPa) = 32.91165 99.67994 66.29579
# Shear Modulus (GPa) = 24.93402 64.83414 44.88408
#
# Velocity S-wave (km/s) = 3.17790 5.12444 4.26374
# Velocity P-wave (km/s) = 5.17646 8.68255 7.14781
#
# Compressibility (1/GPa) = 0.03038438
#
# Stress axis : x y z
#
# Youngs Moduli (GPa) = 185.88639 45.19770 79.33610
#
# Poissons Ratio (x) = -0.17914 0.40276
# Poissons Ratio (y) = -0.73674 0.29744
# Poissons Ratio (z) = 0.94368 0.16945
#
# Static dielectric constant tensor:
#      x y z
#    x 2.131120 0.000000 -0.043510 
#    y 0.000000 2.026810 0.000000 
#    z -0.043510 0.000000 2.038510 
# 
# From -- ./inp_files/279559.got.cif
#   From: 2010.05.17/outbox.cif.g08.bks.cpg/sg15_140_cif.got.tgz:279559.got - 2010.06.03 18:47:42.
