data_PCOD9257410
_publ_section_title
;
Structure prediction by ZEFSAII (Michael W. Deem and Ramdas Pophale) SiO2 
 PCOD9257410
Probable space group: C 2/C
;
_chemical_formula_sum "Si O2"
_cell_formula_units_Z 36
_cell_length_a 6.898954
_cell_length_b 19.331628
_cell_length_c 11.034924
_cell_angle_alpha 90.000000
_cell_angle_beta 79.471522
_cell_angle_gamma 90.000000
_cell_volume 1446.928547
_symmetry_space_group_name_H-M "C 2/C"
_symmetry_group_IT_number 15
_symmetry_cell_setting 'monoclinic'
loop_
_space_group_symop_operation_xyz
x,y,z
-x,y,1/2-z
-x,-y,-z
x,-y,1/2+z
1/2+x,1/2+y,z
1/2-x,1/2+y,1/2-z
1/2-x,1/2-y,-z
1/2+x,1/2-y,1/2+z
loop_
_atom_site_type_symbol
_atom_site_label
_atom_site_fract_x
_atom_site_fract_y
_atom_site_fract_z
Si Si1 0.728389 0.979637 0.958358
Si Si2 0.257998 0.945575 0.283908
Si Si3 0.265213 0.787703 0.272976
Si Si4 0.750000 0.250000 0.000000
Si Si5 0.437407 0.157259 0.119744
O O1 0.707903 0.900090 0.918092
O O2 0.808585 0.023272 0.836499
O O3 0.806434 0.985123 0.086440
O O4 0.500000 0.000000 0.000000
O O5 0.500000 0.947356 0.250000
O O6 0.200529 0.865462 0.305078
O O7 0.500000 0.785185 0.250000
O O8 0.203790 0.761749 0.147582
O O9 0.179955 0.729857 0.371286
O O10 0.868199 0.326638 0.980579
O O11 0.500000 0.136209 0.250000
#
# Coordination Sequence:
#
# PCOD9257410 Si02
#       5
#     8   8   8   4   8
#     4  10  18  31  53  80 110 148 192 233 280 344
#     4   9  18  31  52  80 109 146 191 235 281 339
#     4  10  21  36  56  86 118 151 192 239 291 346
#     4  10  20  34  54  82 114 150 188 234 288 338
#     4  10  20  34  56  85 115 149 190 236 286 343
#
# _framework density 24.880289999999999
#
# number of rings (size 3 to 8) (size 9 to 14) (size 15 to 20)
#    0.000    2.222    0.000    6.000    0.000    5.333 
#    0.000    0.000    0.000    6.667    0.000   71.556 
#    0.000    0.000    0.000    0.000    0.000    0.000 
#
# Total GULP energy -100201.808773 kJ/mol
# GULP energy per Si atom -5566.767154 kJ/mol
# Density = 2.482366 g / cm^3
# Si number density = 24.880290 Si / 1000 Ang^3
#
#
#
# Elastic Constant Matrix: (Units=GPa)
#
#
# Indices 1 2 3 4 5 6 
#
# 1 67.2509 5.0765 10.9689 0.0000 11.1179 0.0000
# 2 5.0765 124.2482 45.1601 0.0000 8.0451 0.0000
# 3 10.9689 45.1601 150.0967 0.0000 29.1380 0.0000
# 4 0.0000 0.0000 0.0000 20.9056 0.0000 -3.4957
# 5 11.1179 8.0451 29.1380 0.0000 27.6254 0.0000
# 6 0.0000 0.0000 0.0000 -3.4957 0.0000 28.2865
#
#
#
# Elastic Compliance Matrix: (Units=1/GPa)
#
#
# Indices 1 2 3 4 5 6 
#
# 1 0.015941 -0.000298 0.000193 0.000000 -0.006532 0.000000
# 2 -0.000298 0.009044 -0.002781 0.000000 0.000419 0.000000
# 3 0.000193 -0.002781 0.009233 0.000000 -0.009007 0.000000
# 4 0.000000 0.000000 0.000000 0.048843 0.000000 0.006036
# 5 -0.006532 0.000419 -0.009007 0.000000 0.048205 0.000000
# 6 0.000000 0.000000 0.000000 0.006036 0.000000 0.036099
#
#
# Mechanical properties :
#
#
# Convention : Reuss Voigt Hill
#
# Bulk Modulus (GPa) = 35.15483 51.55630 43.35556
# Shear Modulus (GPa) = 27.37928 34.05617 30.71773
#
# Velocity S-wave (km/s) = 3.32089 3.70375 3.51753
# Velocity P-wave (km/s) = 5.37258 6.24956 5.82759
#
# Compressibility (1/GPa) = 0.02844560
#
# Stress axis : x y z
#
# Youngs Moduli (GPa) = 62.73288 110.56864 108.30263
#
# Poissons Ratio (x) = 0.03300 -0.02089
# Poissons Ratio (y) = 0.01872 0.30116
# Poissons Ratio (z) = -0.01210 0.30746
#
# Static dielectric constant tensor:
#      x y z
#    x 2.070220 0.000000 0.015480 
#    y 0.000000 1.956720 0.000000 
#    z 0.015480 0.000000 1.989810 
# 
# From -- ./inp_files/76602.got.cif
#   From: 2010.05.17/outbox.cif.g08.bks.cpg/sg15_39_cif.got.tgz:76602.got - 2010.06.03 18:47:42.
