data_PCOD9257976
_publ_section_title
;
Structure prediction by ZEFSAII (Michael W. Deem and Ramdas Pophale) SiO2 
 PCOD9257976
Probable space group: C 2/C
;
_chemical_formula_sum "Si O2"
_cell_formula_units_Z 52
_cell_length_a 15.424679
_cell_length_b 16.765667
_cell_length_c 8.268450
_cell_angle_alpha 90.000000
_cell_angle_beta 86.985275
_cell_angle_gamma 90.000000
_cell_volume 2135.303529
_symmetry_space_group_name_H-M "C 2/C"
_symmetry_group_IT_number 15
_symmetry_cell_setting 'monoclinic'
loop_
_space_group_symop_operation_xyz
x,y,z
-x,y,1/2-z
-x,-y,-z
x,-y,1/2+z
1/2+x,1/2+y,z
1/2-x,1/2+y,1/2-z
1/2-x,1/2-y,-z
1/2+x,1/2-y,1/2+z
loop_
_atom_site_type_symbol
_atom_site_label
_atom_site_fract_x
_atom_site_fract_y
_atom_site_fract_z
Si Si1 0.644802 0.756205 0.889937
Si Si2 0.620192 0.556668 0.376114
Si Si3 0.000000 0.627826 0.250000
Si Si4 0.139626 0.555676 0.042680
Si Si5 0.734959 0.910312 0.872326
Si Si6 0.236518 0.832803 0.095490
Si Si7 0.453654 0.389587 0.074522
O O1 0.572713 0.813030 0.812503
O O2 0.715239 0.821749 0.937969
O O3 0.691555 0.697170 0.760018
O O4 0.586131 0.692715 0.988566
O O5 0.666970 0.575383 0.200954
O O6 0.674493 0.606021 0.505387
O O7 0.615469 0.460866 0.389183
O O8 0.523229 0.581908 0.434316
O O9 0.040726 0.571998 0.104784
O O10 0.187460 0.578014 0.204530
O O11 0.182463 0.472411 0.987992
O O12 0.172642 0.619764 0.906481
O O13 0.250000 0.750000 0.000000
O O14 0.500000 0.378261 0.250000
#
# Coordination Sequence:
#
# PCOD9257976 Si02
#       7
#     8   8   4   8   8   8   8
#     4  11  19  32  59  86 115 148 207 251 291 349
#     4  10  21  34  55  87 118 153 194 246 305 350
#     4  10  18  32  56  88 114 152 202 256 288 352
#     4  10  22  35  59  86 120 156 206 247 304 351
#     4  10  22  38  59  90 118 163 199 250 293 368
#     4  11  17  35  58  85 114 155 207 243 286 363
#     4  11  21  33  57  90 119 154 192 257 302 350
#
# _framework density 24.352509999999999
#
# number of rings (size 3 to 8) (size 9 to 14) (size 15 to 20)
#    0.000    1.538    6.923    0.923    2.154    2.462 
#    0.000    0.000    0.000   12.000    2.000    0.000 
#    0.000    0.000    0.000    0.000    0.000    0.000 
#
# Total GULP energy -145041.308980 kJ/mol
# GULP energy per Si atom -5578.511884 kJ/mol
# Density = 2.429708 g / cm^3
# Si number density = 24.352510 Si / 1000 Ang^3
#
#
#
# Elastic Constant Matrix: (Units=GPa)
#
#
# Indices 1 2 3 4 5 6 
#
# 1 74.1830 51.1077 56.0566 0.0000 -23.9525 0.0000
# 2 51.1077 226.7251 69.3905 0.0000 -41.6528 0.0000
# 3 56.0566 69.3905 98.8562 0.0000 -36.5011 0.0000
# 4 0.0000 0.0000 0.0000 53.7225 0.0000 -10.1785
# 5 -23.9525 -41.6528 -36.5011 0.0000 51.0716 0.0000
# 6 0.0000 0.0000 0.0000 -10.1785 0.0000 32.1103
#
#
#
# Elastic Compliance Matrix: (Units=1/GPa)
#
#
# Indices 1 2 3 4 5 6 
#
# 1 0.024105 -0.001461 -0.012103 0.000000 0.001464 0.000000
# 2 -0.001461 0.005930 -0.002447 0.000000 0.002402 0.000000
# 3 -0.012103 -0.002447 0.021551 0.000000 0.007730 0.000000
# 4 0.000000 0.000000 0.000000 0.019804 0.000000 0.006277
# 5 0.001464 0.002402 0.007730 0.000000 0.027751 0.000000
# 6 0.000000 0.000000 0.000000 0.006277 0.000000 0.033132
#
#
# Mechanical properties :
#
#
# Convention : Reuss Voigt Hill
#
# Bulk Modulus (GPa) = 51.11389 83.65265 67.38327
# Shear Modulus (GPa) = 29.27130 42.26151 35.76640
#
# Velocity S-wave (km/s) = 3.47072 4.17034 3.83651
# Velocity P-wave (km/s) = 6.09065 7.59041 6.88151
#
# Compressibility (1/GPa) = 0.01956415
#
# Stress axis : x y z
#
# Youngs Moduli (GPa) = 41.48585 168.62687 46.40189
#
# Poissons Ratio (x) = 0.24628 0.56160
# Poissons Ratio (y) = 0.06059 0.11356
# Poissons Ratio (z) = 0.50210 0.41270
#
# Static dielectric constant tensor:
#      x y z
#    x 2.215970 0.000000 -0.043940 
#    y 0.000000 1.997440 0.000000 
#    z -0.043940 0.000000 2.008550 
# 
# From -- ./inp_files/112327.got.cif
#   From: 2010.05.17/outbox.cif.g08.bks.cpg/sg15_57_cif.got.tgz:112327.got - 2010.06.03 18:47:42.
