data_PCOD9257133
_publ_section_title
;
Structure prediction by ZEFSAII (Michael W. Deem and Ramdas Pophale) SiO2 
 PCOD9257133
Probable space group: C 2/C
;
_chemical_formula_sum "Si O2"
_cell_formula_units_Z 44
_cell_length_a 11.726101
_cell_length_b 26.796185
_cell_length_c 11.801622
_cell_angle_alpha 90.000000
_cell_angle_beta 40.263031
_cell_angle_gamma 90.000000
_cell_volume 2396.628980
_symmetry_space_group_name_H-M "C 2/C"
_symmetry_group_IT_number 15
_symmetry_cell_setting 'monoclinic'
loop_
_space_group_symop_operation_xyz
x,y,z
-x,y,1/2-z
-x,-y,-z
x,-y,1/2+z
1/2+x,1/2+y,z
1/2-x,1/2+y,1/2-z
1/2-x,1/2-y,-z
1/2+x,1/2-y,1/2+z
loop_
_atom_site_type_symbol
_atom_site_label
_atom_site_fract_x
_atom_site_fract_y
_atom_site_fract_z
Si Si1 0.305727 0.526525 0.925543
Si Si2 0.242182 0.693727 0.857237
Si Si3 0.673621 0.898730 0.699805
Si Si4 0.500000 0.046068 0.750000
Si Si5 0.581708 0.911353 0.425401
Si Si6 0.872922 0.803211 0.519766
O O1 0.500000 0.506983 0.750000
O O2 0.230628 0.555050 0.872207
O O3 0.307083 0.568344 0.024247
O O4 0.159498 0.487895 0.080991
O O5 0.121100 0.646546 0.922309
O O6 0.161379 0.748643 0.903558
O O7 0.419864 0.688116 0.650012
O O8 0.296823 0.693609 0.948624
O O9 0.500000 0.891714 0.750000
O O10 0.766399 0.847086 0.660748
O O11 0.596871 0.924611 0.869843
O O12 0.433560 0.077906 0.694409
#
# Coordination Sequence:
#
# PCOD9257133 Si02
#       6
#     8   8   8   4   8   8
#     4  11  22  40  64  90 116 153 201 259 306 348
#     4  10  19  30  54  87 121 148 185 240 304 355
#     4  10  18  33  57  86 119 150 186 246 306 346
#     4  12  26  44  58  82 124 170 206 238 298 354
#     4  11  22  40  60  85 125 160 196 252 295 355
#     4  10  18  30  54  90 117 146 185 241 309 353
#
# _framework density 18.359120000000001
#
# number of rings (size 3 to 8) (size 9 to 14) (size 15 to 20)
#    0.000    1.455    6.364    2.727    2.545    0.727 
#    3.273    0.000    0.000    4.364    0.000    0.000 
#    0.000    0.000    0.000    0.000    0.000    0.000 
#
# Total GULP energy -122764.976694 kJ/mol
# GULP energy per Si atom -5580.226213 kJ/mol
# Density = 1.831733 g / cm^3
# Si number density = 18.359120 Si / 1000 Ang^3
#
#
#
# Elastic Constant Matrix: (Units=GPa)
#
#
# Indices 1 2 3 4 5 6 
#
# 1 50.3071 29.4769 34.8141 0.0000 18.0502 0.0000
# 2 29.4769 75.0641 25.4513 0.0000 3.4908 0.0000
# 3 34.8141 25.4513 101.2896 0.0000 -13.4307 0.0000
# 4 0.0000 0.0000 0.0000 -184.5331 0.0000 -110.5941
# 5 18.0502 3.4908 -13.4307 0.0000 26.7158 0.0000
# 6 0.0000 0.0000 0.0000 -110.5941 0.0000 -46.7099
#
#
#
# Elastic Compliance Matrix: (Units=1/GPa)
#
#
# Indices 1 2 3 4 5 6 
#
# 1 0.068524 -0.014867 -0.027533 0.000000 -0.058196 0.000000
# 2 -0.014867 0.018200 0.001664 0.000000 0.008503 0.000000
# 3 -0.027533 0.001664 0.022881 0.000000 0.029888 0.000000
# 4 0.000000 0.000000 0.000000 0.012934 0.000000 -0.030623
# 5 -0.058196 0.008503 0.029888 0.000000 0.090665 0.000000
# 6 0.000000 0.000000 0.000000 -0.030623 0.000000 0.051096
#
#
# Mechanical properties :
#
#
# Convention : Reuss Voigt Hill
#
# Bulk Modulus (GPa) = 35.54516 45.12724 40.33620
# Shear Modulus (GPa) = 14.07860 -31.77757 -8.84948
#
# Velocity S-wave (km/s) = 2.77220 -4.16491 -2.19788
# Velocity P-wave (km/s) = 5.44517 1.22680 3.94683
#
# Compressibility (1/GPa) = 0.02813323
#
# Stress axis : x y z
#
# Youngs Moduli (GPa) = 14.59349 54.94406 43.70440
#
# Poissons Ratio (x) = 0.81684 1.20332
# Poissons Ratio (y) = 0.21696 -0.07273
# Poissons Ratio (z) = 0.40181 -0.09143
#
# Static dielectric constant tensor:
#      x y z
#    x 1.618970 0.000000 -0.011170 
#    y 0.000000 1.660220 0.000000 
#    z -0.011170 0.000000 1.671230 
# 
# From -- ./inp_files/31851.got.cif
#   From: 2010.05.17/outbox.cif.g08.bks.cpg/sg15_16_cif.got.tgz:31851.got - 2010.06.03 18:47:42.
