data_PCOD9257538
_publ_section_title
;
Structure prediction by ZEFSAII (Michael W. Deem and Ramdas Pophale) SiO2 
 PCOD9257538
Probable space group: C 2/C
;
_chemical_formula_sum "Si O2"
_cell_formula_units_Z 60
_cell_length_a 11.112930
_cell_length_b 17.438312
_cell_length_c 18.723001
_cell_angle_alpha 90.000000
_cell_angle_beta 100.991914
_cell_angle_gamma 90.000000
_cell_volume 3561.778997
_symmetry_space_group_name_H-M "C 2/C"
_symmetry_group_IT_number 15
_symmetry_cell_setting 'monoclinic'
loop_
_space_group_symop_operation_xyz
x,y,z
-x,y,1/2-z
-x,-y,-z
x,-y,1/2+z
1/2+x,1/2+y,z
1/2-x,1/2+y,1/2-z
1/2-x,1/2-y,-z
1/2+x,1/2-y,1/2+z
loop_
_atom_site_type_symbol
_atom_site_label
_atom_site_fract_x
_atom_site_fract_y
_atom_site_fract_z
Si Si1 0.325249 0.255991 0.111110
Si Si2 0.509415 0.688989 0.510124
Si Si3 0.940510 0.664760 0.933888
Si Si4 0.091205 0.954388 0.560069
Si Si5 0.500000 0.678211 0.750000
Si Si6 0.936195 0.557820 0.667065
Si Si7 0.153090 0.095796 0.645541
Si Si8 0.142689 0.416682 0.936166
O O1 0.396143 0.294056 0.051584
O O2 0.189285 0.292286 0.096890
O O3 0.406425 0.274957 0.189477
O O4 0.331601 0.164800 0.099570
O O5 0.532808 0.770209 0.475204
O O6 0.464223 0.630155 0.444245
O O7 0.609520 0.647501 0.572125
O O8 0.990458 0.619585 0.871829
O O9 0.919557 0.604954 0.996312
O O10 0.222700 0.951327 0.536923
O O11 0.108237 0.007844 0.630221
O O12 0.000000 0.000000 0.500000
O O13 0.585459 0.629836 0.706303
O O14 0.799210 0.590345 0.664561
O O15 0.926070 0.478559 0.620744
O O16 0.000000 0.544458 0.750000
#
# Coordination Sequence:
#
# PCOD9257538 Si02
#       8
#     8   8   8   8   4   8   8   8
#     4  10  18  31  58  84 103 139 191 230 267 317
#     4   9  16  32  56  84 101 132 186 235 264 313
#     4  11  19  34  60  82 109 141 187 233 277 325
#     4   9  15  29  53  79 105 126 169 229 277 305
#     4  10  20  34  54  80 106 144 186 226 264 332
#     4  11  24  37  51  78 120 155 174 215 290 349
#     4   9  20  34  53  78 109 141 178 225 275 326
#     4  10  19  35  55  84 106 139 191 228 273 323
#
# _framework density 16.845514999999999
#
# number of rings (size 3 to 8) (size 9 to 14) (size 15 to 20)
#    0.000    2.133    2.667    2.000    0.933    0.533 
#    0.000    0.000    1.467    0.000    0.000    0.000 
#    0.000    0.000    0.000    0.000    0.000    0.000 
#
# Total GULP energy -167059.678712 kJ/mol
# GULP energy per Si atom -5568.655957 kJ/mol
# Density = 1.680717 g / cm^3
# Si number density = 16.845515 Si / 1000 Ang^3
#
#
#
# Elastic Constant Matrix: (Units=GPa)
#
#
# Indices 1 2 3 4 5 6 
#
# 1 69.9273 40.9988 44.2822 0.0000 11.3526 0.0000
# 2 40.9988 91.1178 47.5411 0.0000 3.7328 0.0000
# 3 44.2822 47.5411 99.7721 0.0000 7.1932 0.0000
# 4 0.0000 0.0000 0.0000 19.4307 0.0000 -0.0655
# 5 11.3526 3.7328 7.1932 0.0000 23.9834 0.0000
# 6 0.0000 0.0000 0.0000 -0.0655 0.0000 24.0916
#
#
#
# Elastic Compliance Matrix: (Units=1/GPa)
#
#
# Indices 1 2 3 4 5 6 
#
# 1 0.023973 -0.006931 -0.006743 0.000000 -0.008247 0.000000
# 2 -0.006931 0.016611 -0.004997 0.000000 0.002194 0.000000
# 3 -0.006743 -0.004997 0.015444 0.000000 -0.000663 0.000000
# 4 0.000000 0.000000 0.000000 0.051465 0.000000 0.000140
# 5 -0.008247 0.002194 -0.000663 0.000000 0.045456 0.000000
# 6 0.000000 0.000000 0.000000 0.000140 0.000000 0.041509
#
#
# Mechanical properties :
#
#
# Convention : Reuss Voigt Hill
#
# Bulk Modulus (GPa) = 53.51430 58.49572 56.00501
# Shear Modulus (GPa) = 21.00584 22.03412 21.51998
#
# Velocity S-wave (km/s) = 3.53508 3.62057 3.57808
# Velocity P-wave (km/s) = 6.96412 7.23037 7.09849
#
# Compressibility (1/GPa) = 0.01868660
#
# Stress axis : x y z
#
# Youngs Moduli (GPa) = 41.71357 60.20229 64.74817
#
# Poissons Ratio (x) = 0.41725 0.43660
# Poissons Ratio (y) = 0.28911 0.32355
# Poissons Ratio (z) = 0.28127 0.30083
#
# Static dielectric constant tensor:
#      x y z
#    x 1.563150 0.000000 0.024500 
#    y 0.000000 1.605460 0.000000 
#    z 0.024500 0.000000 1.564840 
# 
# From -- ./inp_files/198399.got.cif
#   From: 2010.05.17/outbox.cif.g08.bks.cpg/sg15_100_cif.got.tgz:198399.got - 2010.06.03 18:47:42.
