data_PCOD9257586
_publ_section_title
;
Structure prediction by ZEFSAII (Michael W. Deem and Ramdas Pophale) SiO2 
 PCOD9257586
Probable space group: C 2/C
;
_chemical_formula_sum "Si O2"
_cell_formula_units_Z 64
_cell_length_a 17.595301
_cell_length_b 31.473530
_cell_length_c 14.906943
_cell_angle_alpha 90.000000
_cell_angle_beta 23.261171
_cell_angle_gamma 90.000000
_cell_volume 3260.191862
_symmetry_space_group_name_H-M "C 2/C"
_symmetry_group_IT_number 15
_symmetry_cell_setting 'monoclinic'
loop_
_space_group_symop_operation_xyz
x,y,z
-x,y,1/2-z
-x,-y,-z
x,-y,1/2+z
1/2+x,1/2+y,z
1/2-x,1/2+y,1/2-z
1/2-x,1/2-y,-z
1/2+x,1/2-y,1/2+z
loop_
_atom_site_type_symbol
_atom_site_label
_atom_site_fract_x
_atom_site_fract_y
_atom_site_fract_z
Si Si1 0.231348 0.458975 0.299495
Si Si2 0.740337 0.199309 0.592244
Si Si3 0.769585 0.522794 0.504866
Si Si4 0.240435 0.544658 0.184544
Si Si5 0.706642 0.423054 0.571398
Si Si6 0.805472 0.386063 0.287628
Si Si7 0.782124 0.293614 0.587837
Si Si8 0.740560 0.124295 0.297880
O O1 0.296765 0.455511 0.331125
O O2 0.291852 0.503559 0.189007
O O3 0.293941 0.420372 0.168030
O O4 0.995939 0.457026 0.555787
O O5 0.806385 0.157085 0.570621
O O6 0.777364 0.242837 0.604972
O O7 0.806203 0.201024 0.416774
O O8 0.508387 0.195461 0.836670
O O9 0.697788 0.537264 0.485253
O O10 0.731847 0.472867 0.558948
O O11 0.000000 0.528395 0.250000
O O12 0.310713 0.589166 0.150370
O O13 0.500000 0.415821 0.750000
O O14 0.844999 0.408119 0.340875
O O15 0.731234 0.397019 0.635088
O O16 0.012292 0.374306 0.023430
O O17 0.698904 0.326557 0.751111
#
# Coordination Sequence:
#
# PCOD9257586 Si02
#       8
#     8   8   8   8   8   8   8   8
#     4   9  16  26  48  71  86 113 152 189 218 257
#     4   9  17  28  44  64  88 115 143 180 220 264
#     4  10  18  32  48  65  90 119 153 190 223 257
#     4   9  16  26  48  71  86 113 152 189 218 257
#     4  12  22  28  41  67  94 123 152 186 221 259
#     4  10  18  32  48  65  88 122 157 182 218 263
#     4   9  17  28  44  64  88 115 143 180 220 264
#     4  10  18  32  48  65  88 122 157 182 218 263
#
# _framework density 19.630747
#
# number of rings (size 3 to 8) (size 9 to 14) (size 15 to 20)
#    0.000    2.250    3.750    1.125    0.000    1.000 
#    0.000    2.500    0.000    0.000    0.000    0.875 
#    0.000    0.000    0.000    0.000    0.000    0.000 
#
# Total GULP energy -178644.048815 kJ/mol
# GULP energy per Si atom -5582.626525 kJ/mol
# Density = 1.958607 g / cm^3
# Si number density = 19.630747 Si / 1000 Ang^3
#
#
#
# Elastic Constant Matrix: (Units=GPa)
#
#
# Indices 1 2 3 4 5 6 
#
# 1 92.4581 45.2826 18.6734 0.0084 19.2934 -0.0094
# 2 45.2826 167.5657 13.7054 -0.0065 36.8424 0.0002
# 3 18.6734 13.7054 38.6895 0.0177 1.2739 -0.0228
# 4 0.0084 -0.0065 0.0177 12.0353 -0.0094 6.2632
# 5 19.2934 36.8424 1.2739 -0.0094 29.2684 0.0116
# 6 -0.0094 0.0002 -0.0228 6.2632 0.0116 29.0424
#
#
#
# Elastic Compliance Matrix: (Units=1/GPa)
#
#
# Indices 1 2 3 4 5 6 
#
# 1 0.014392 -0.001889 -0.006051 -0.000010 -0.006845 0.000005
# 2 -0.001889 0.008766 -0.001874 0.000000 -0.009708 0.000002
# 3 -0.006051 -0.001874 0.029264 -0.000051 0.005074 0.000030
# 4 -0.000010 0.000000 -0.000051 0.093593 0.000046 -0.020184
# 5 -0.006845 -0.009708 0.005074 0.000046 0.050678 -0.000028
# 6 0.000005 0.000002 0.000030 -0.020184 -0.000028 0.038785
#
#
# Mechanical properties :
#
#
# Convention : Reuss Voigt Hill
#
# Bulk Modulus (GPa) = 30.49429 50.44846 40.47138
# Shear Modulus (GPa) = 18.79432 28.80600 23.80016
#
# Velocity S-wave (km/s) = 3.09753 3.83481 3.48572
# Velocity P-wave (km/s) = 5.32547 6.73515 6.07136
#
# Compressibility (1/GPa) = 0.03279302
#
# Stress axis : x y z
#
# Youngs Moduli (GPa) = 69.48513 114.07751 34.17130
#
# Poissons Ratio (x) = 0.21550 0.20679
# Poissons Ratio (y) = 0.13126 0.06403
# Poissons Ratio (z) = 0.42049 0.21376
#
# Static dielectric constant tensor:
#      x y z
#    x 1.702760 -0.000010 -0.056910 
#    y -0.000010 1.709840 0.000010 
#    z -0.056910 0.000010 1.806780 
# 
# From -- ./inp_files/164507.got.cif
#   From: 2010.05.17/outbox.cif.g08.bks.cpg/sg15_83_cif.got.tgz:164507.got - 2010.06.03 18:47:42.
