data_PCOD9257212
_publ_section_title
;
Structure prediction by ZEFSAII (Michael W. Deem and Ramdas Pophale) SiO2 
 PCOD9257212
Probable space group: C 2/C
;
_chemical_formula_sum "Si O2"
_cell_formula_units_Z 40
_cell_length_a 14.874006
_cell_length_b 23.144029
_cell_length_c 14.435802
_cell_angle_alpha 90.000000
_cell_angle_beta 29.701735
_cell_angle_gamma 90.000000
_cell_volume 2462.285006
_symmetry_space_group_name_H-M "C 2/C"
_symmetry_group_IT_number 15
_symmetry_cell_setting 'monoclinic'
loop_
_space_group_symop_operation_xyz
x,y,z
-x,y,1/2-z
-x,-y,-z
x,-y,1/2+z
1/2+x,1/2+y,z
1/2-x,1/2+y,1/2-z
1/2-x,1/2-y,-z
1/2+x,1/2-y,1/2+z
loop_
_atom_site_type_symbol
_atom_site_label
_atom_site_fract_x
_atom_site_fract_y
_atom_site_fract_z
Si Si1 0.117766 0.192660 0.009507
Si Si2 0.287203 0.180531 0.053405
Si Si3 0.853458 0.077106 0.613401
Si Si4 0.907121 0.998083 0.233498
Si Si5 0.535032 0.058430 0.608608
O O1 0.125112 0.261064 0.985196
O O2 0.157701 0.145508 0.895543
O O3 0.262193 0.184335 0.964114
O O4 0.917281 0.178499 0.225790
O O5 0.394878 0.122762 0.977697
O O6 0.656039 0.049665 0.770608
O O7 0.987863 0.048633 0.416961
O O8 0.916965 0.057268 0.657573
O O9 0.698906 0.016343 0.435314
O O10 0.000000 0.990896 0.250000
O O11 0.500000 0.054857 0.750000
#
# Coordination Sequence:
#
# PCOD9257212 Si02
#       5
#     8   8   8   8   8
#     4  10  18  31  45  78 106 142 169 209 260 327
#     4  10  19  28  50  73 112 136 169 210 268 314
#     4  11  22  35  55  75 110 142 181 216 268 315
#     4  11  22  38  53  76 106 146 181 224 259 307
#     4  12  20  33  53  79 110 143 174 219 263 318
#
# _framework density 16.245073000000001
#
# number of rings (size 3 to 8) (size 9 to 14) (size 15 to 20)
#    0.000    1.200    6.000    1.800    2.800    0.000 
#    0.000    0.000    0.000    0.000    0.000    5.600 
#    0.000    0.000    0.000    0.000    0.000    0.000 
#
# Total GULP energy -111619.631090 kJ/mol
# GULP energy per Si atom -5580.981555 kJ/mol
# Density = 1.620810 g / cm^3
# Si number density = 16.245073 Si / 1000 Ang^3
#
#
#
# Elastic Constant Matrix: (Units=GPa)
#
#
# Indices 1 2 3 4 5 6 
#
# 1 49.5384 22.6521 27.1900 -0.0192 21.2889 0.0077
# 2 22.6521 80.9136 18.2651 -0.0076 22.1259 0.0073
# 3 27.1900 18.2651 79.8815 -0.0004 -2.0911 0.0046
# 4 -0.0192 -0.0076 -0.0004 16.0685 0.0125 -1.4242
# 5 21.2889 22.1259 -2.0911 0.0125 20.8586 -0.0037
# 6 0.0077 0.0073 0.0046 -1.4242 -0.0037 22.6053
#
#
#
# Elastic Compliance Matrix: (Units=1/GPa)
#
#
# Indices 1 2 3 4 5 6 
#
# 1 0.062704 0.008976 -0.025387 0.000136 -0.076064 -0.000023
# 2 0.008976 0.020450 -0.008561 0.000044 -0.031712 -0.000010
# 3 -0.025387 -0.008561 0.024096 -0.000062 0.037407 0.000009
# 4 0.000136 0.000044 -0.000062 0.062583 -0.000228 0.003943
# 5 -0.076064 -0.031712 0.037407 -0.000228 0.162964 0.000041
# 6 -0.000023 -0.000010 0.000009 0.003943 0.000041 0.044486
#
#
# Mechanical properties :
#
#
# Convention : Reuss Voigt Hill
#
# Bulk Modulus (GPa) = 17.44996 38.50532 27.97764
# Shear Modulus (GPa) = 11.20250 21.38825 16.29537
#
# Velocity S-wave (km/s) = 2.62886 3.63243 3.17061
# Velocity P-wave (km/s) = 4.46985 6.43016 5.53744
#
# Compressibility (1/GPa) = 0.05730673
#
# Stress axis : x y z
#
# Youngs Moduli (GPa) = 15.94804 48.89886 41.49998
#
# Poissons Ratio (x) = -0.43892 1.05354
# Poissons Ratio (y) = -0.14315 0.35530
# Poissons Ratio (z) = 0.40487 0.41865
#
# Static dielectric constant tensor:
#      x y z
#    x 1.529560 -0.000020 -0.013600 
#    y -0.000020 1.554570 0.000020 
#    z -0.013600 0.000020 1.575660 
# 
# From -- ./inp_files/90568.got.cif
#   From: 2010.05.17/outbox.cif.g08.bks.cpg/sg15_46_cif.got.tgz:90568.got - 2010.06.03 18:47:42.
