data_PCOD9257845
_publ_section_title
;
Structure prediction by ZEFSAII (Michael W. Deem and Ramdas Pophale) SiO2 
 PCOD9257845
Probable space group: C 2/C
;
_chemical_formula_sum "Si O2"
_cell_formula_units_Z 56
_cell_length_a 14.034417
_cell_length_b 13.932773
_cell_length_c 23.330278
_cell_angle_alpha 90.000000
_cell_angle_beta 149.628404
_cell_angle_gamma 90.000000
_cell_volume 2306.556891
_symmetry_space_group_name_H-M "C 2/C"
_symmetry_group_IT_number 15
_symmetry_cell_setting 'monoclinic'
loop_
_space_group_symop_operation_xyz
x,y,z
-x,y,1/2-z
-x,-y,-z
x,-y,1/2+z
1/2+x,1/2+y,z
1/2-x,1/2+y,1/2-z
1/2-x,1/2-y,-z
1/2+x,1/2-y,1/2+z
loop_
_atom_site_type_symbol
_atom_site_label
_atom_site_fract_x
_atom_site_fract_y
_atom_site_fract_z
Si Si1 0.076416 0.206814 0.658418
Si Si2 0.713621 0.882970 0.876520
Si Si3 0.490708 0.960839 0.091038
Si Si4 0.137795 0.994396 0.652406
Si Si5 0.299263 0.348699 0.491159
Si Si6 0.412874 0.231818 0.911539
Si Si7 0.278363 0.865563 0.482355
O O1 0.934674 0.171513 0.636236
O O2 0.953336 0.292137 0.568080
O O3 0.105118 0.109253 0.637387
O O4 0.278012 0.243977 0.784923
O O5 0.500000 0.897234 0.750000
O O6 0.779345 0.779060 0.888670
O O7 0.725448 0.886894 0.950702
O O8 0.819441 0.958165 0.889856
O O9 0.675642 0.013708 0.211070
O O10 0.540002 0.879373 0.070335
O O11 0.340816 0.035182 0.987694
O O12 0.389557 0.908389 0.093382
O O13 0.967587 0.927936 0.588866
O O14 0.250000 0.250000 0.500000
O O15 0.396047 0.294489 0.487646
#
# Coordination Sequence:
#
# PCOD9257845 Si02
#       7
#     8   8   8   8   8   8   8
#     4  10  20  33  51  80 111 148 185 234 279 339
#     4  11  19  34  55  85 116 147 187 240 289 338
#     4  10  18  32  54  83 110 147 192 234 270 342
#     4  10  19  32  52  82 115 147 188 227 286 336
#     4   9  17  32  52  79 110 147 188 231 276 337
#     4   9  19  34  54  78 111 152 190 227 284 341
#     4  11  20  33  55  83 114 144 187 239 288 329
#
# _framework density 24.278611000000001
#
# number of rings (size 3 to 8) (size 9 to 14) (size 15 to 20)
#    0.000    2.000    4.286    0.857    0.000    0.571 
#    0.000    0.000    0.000    3.429    0.000    1.000 
#    0.000    0.000    0.000    0.000    0.000    0.000 
#
# Total GULP energy -155883.237761 kJ/mol
# GULP energy per Si atom -5567.258491 kJ/mol
# Density = 2.422335 g / cm^3
# Si number density = 24.278611 Si / 1000 Ang^3
#
#
#
# Elastic Constant Matrix: (Units=GPa)
#
#
# Indices 1 2 3 4 5 6 
#
# 1 92.4621 36.9843 25.3349 0.0000 16.9822 0.0000
# 2 36.9843 143.4893 23.5854 0.0002 13.5818 0.0000
# 3 25.3349 23.5854 76.0683 0.0010 26.7375 0.0000
# 4 0.0000 0.0002 0.0010 51.0938 0.0000 26.4778
# 5 16.9822 13.5818 26.7375 0.0000 33.0825 0.0000
# 6 0.0000 0.0000 0.0000 26.4778 0.0000 42.6378
#
#
#
# Elastic Compliance Matrix: (Units=1/GPa)
#
#
# Indices 1 2 3 4 5 6 
#
# 1 0.013203 -0.002672 -0.002196 0.000000 -0.003906 0.000000
# 2 -0.002672 0.007949 -0.001271 0.000000 -0.000865 0.000000
# 3 -0.002196 -0.001271 0.019125 -0.000001 -0.013808 0.000000
# 4 0.000000 0.000000 -0.000001 0.028859 0.000000 -0.017921
# 5 -0.003906 -0.000865 -0.013808 0.000000 0.043747 0.000000
# 6 0.000000 0.000000 0.000000 -0.017921 0.000000 0.034582
#
#
# Mechanical properties :
#
#
# Convention : Reuss Voigt Hill
#
# Bulk Modulus (GPa) = 35.71603 53.75875 44.73739
# Shear Modulus (GPa) = 29.57252 40.43716 35.00484
#
# Velocity S-wave (km/s) = 3.49384 4.08554 3.80122
# Velocity P-wave (km/s) = 5.56945 6.66678 6.14267
#
# Compressibility (1/GPa) = 0.02799864
#
# Stress axis : x y z
#
# Youngs Moduli (GPa) = 75.73883 125.80727 52.28817
#
# Poissons Ratio (x) = 0.33622 0.11482
# Poissons Ratio (y) = 0.20241 0.06644
# Poissons Ratio (z) = 0.16632 0.15985
#
# Static dielectric constant tensor:
#      x y z
#    x 1.986970 0.000000 0.015660 
#    y 0.000000 2.055120 0.000000 
#    z 0.015660 0.000000 1.993470 
# 
# From -- ./inp_files/313909.got.cif
#   From: 2010.05.17/outbox.cif.g08.bks.cpg/sg15_157_cif.got.tgz:313909.got - 2010.06.03 18:47:42.
