data_PCOD9257572
_publ_section_title
;
Structure prediction by ZEFSAII (Michael W. Deem and Ramdas Pophale) SiO2 
 PCOD9257572
Probable space group: C 2/C
;
_chemical_formula_sum "Si O2"
_cell_formula_units_Z 64
_cell_length_a 15.613568
_cell_length_b 19.511264
_cell_length_c 16.171584
_cell_angle_alpha 90.000000
_cell_angle_beta 140.112039
_cell_angle_gamma 90.000000
_cell_volume 3159.319320
_symmetry_space_group_name_H-M "C 2/C"
_symmetry_group_IT_number 15
_symmetry_cell_setting 'monoclinic'
loop_
_space_group_symop_operation_xyz
x,y,z
-x,y,1/2-z
-x,-y,-z
x,-y,1/2+z
1/2+x,1/2+y,z
1/2-x,1/2+y,1/2-z
1/2-x,1/2-y,-z
1/2+x,1/2-y,1/2+z
loop_
_atom_site_type_symbol
_atom_site_label
_atom_site_fract_x
_atom_site_fract_y
_atom_site_fract_z
Si Si1 0.105063 0.657820 0.477972
Si Si2 0.992686 0.029789 0.125725
Si Si3 0.339402 0.915493 0.737018
Si Si4 0.111666 0.834920 0.662747
Si Si5 0.668468 0.586126 0.941781
Si Si6 0.203593 0.955270 0.175891
Si Si7 0.999807 0.199320 0.897078
Si Si8 0.795283 0.692781 0.781452
O O1 0.243359 0.619717 0.563550
O O2 0.087564 0.735631 0.433790
O O3 0.097752 0.669088 0.570873
O O4 0.986171 0.614032 0.351720
O O5 0.040517 0.108681 0.168289
O O6 0.897916 0.032215 0.974448
O O7 0.118896 0.982393 0.192205
O O8 0.894874 0.989253 0.115871
O O9 0.245199 0.872065 0.728752
O O10 0.269535 0.911597 0.595624
O O11 0.327543 0.993870 0.756667
O O12 0.032030 0.820414 0.517102
O O13 0.148386 0.759428 0.723455
O O14 0.547593 0.635675 0.878489
O O15 0.250413 0.877410 0.206355
O O16 0.843208 0.216678 0.776542
#
# Coordination Sequence:
#
# PCOD9257572 Si02
#       8
#     8   8   8   8   8   8   8   8
#     4  11  22  30  42  70 105 135 156 191 251 298
#     4   9  15  30  52  68  85 126 181 207 225 274
#     4   9  18  32  48  65  91 128 169 205 234 280
#     4   9  17  29  51  69  89 125 166 213 238 269
#     4  10  19  32  48  64  92 136 177 197 219 287
#     4   9  16  30  51  67  89 123 164 213 243 277
#     4  10  18  32  43  67  98 133 171 187 229 292
#     4  11  19  30  48  72 104 127 151 209 250 293
#
# _framework density 20.257528000000001
#
# number of rings (size 3 to 8) (size 9 to 14) (size 15 to 20)
#    0.000    2.250    3.750    2.250    0.000    1.000 
#    2.250    0.000    0.000    0.000    0.000    0.875 
#    0.000    8.000    0.000    4.375    0.000    0.000 
#
# Total GULP energy -178279.316964 kJ/mol
# GULP energy per Si atom -5571.228655 kJ/mol
# Density = 2.021142 g / cm^3
# Si number density = 20.257528 Si / 1000 Ang^3
#
#
#
# Elastic Constant Matrix: (Units=GPa)
#
#
# Indices 1 2 3 4 5 6 
#
# 1 25.2651 35.3122 3.7916 0.0000 8.3979 0.0000
# 2 35.3122 177.4293 27.6909 0.0000 19.9321 0.0000
# 3 3.7916 27.6909 67.8640 -0.0001 9.3379 0.0000
# 4 0.0000 0.0000 -0.0001 29.7276 0.0000 9.0390
# 5 8.3979 19.9321 9.3379 0.0000 13.8570 0.0000
# 6 0.0000 0.0000 0.0000 9.0390 0.0000 23.5042
#
#
#
# Elastic Compliance Matrix: (Units=1/GPa)
#
#
# Indices 1 2 3 4 5 6 
#
# 1 0.061467 -0.010000 0.004180 0.000000 -0.025684 0.000000
# 2 -0.010000 0.008502 -0.002272 0.000000 -0.004637 0.000000
# 3 0.004180 -0.002272 0.016894 0.000000 -0.010650 0.000000
# 4 0.000000 0.000000 0.000000 0.038093 0.000000 -0.014649
# 5 -0.025684 -0.004637 -0.010650 0.000000 0.101578 0.000000
# 6 0.000000 0.000000 0.000000 -0.014649 0.000000 0.048179
#
#
# Mechanical properties :
#
#
# Convention : Reuss Voigt Hill
#
# Bulk Modulus (GPa) = 14.14847 44.90528 29.52688
# Shear Modulus (GPa) = 15.90034 27.00201 21.45118
#
# Velocity S-wave (km/s) = 2.80466 3.65490 3.25764
# Velocity P-wave (km/s) = 4.18182 6.32664 5.36256
#
# Compressibility (1/GPa) = 0.07067903
#
# Stress axis : x y z
#
# Youngs Moduli (GPa) = 16.26877 117.62041 59.19147
#
# Poissons Ratio (x) = 1.17625 -0.24744
# Poissons Ratio (y) = 0.16269 0.13450
# Poissons Ratio (z) = -0.06801 0.26726
#
# Static dielectric constant tensor:
#      x y z
#    x 1.742930 0.000000 -0.016040 
#    y 0.000000 1.790520 0.000000 
#    z -0.016040 0.000000 1.735970 
# 
# From -- ./inp_files/106413.got.cif
#   From: 2010.05.17/outbox.cif.g08.bks.cpg/sg15_54_cif.got.tgz:106413.got - 2010.06.03 18:47:42.
