data_PCOD9257048
_publ_section_title
;
Structure prediction by ZEFSAII (Michael W. Deem and Ramdas Pophale) SiO2 
 PCOD9257048
Probable space group: C 2/C
;
_chemical_formula_sum "Si O2"
_cell_formula_units_Z 60
_cell_length_a 14.837112
_cell_length_b 26.156466
_cell_length_c 18.335412
_cell_angle_alpha 90.000000
_cell_angle_beta 28.998158
_cell_angle_gamma 90.000000
_cell_volume 3449.571523
_symmetry_space_group_name_H-M "C 2/C"
_symmetry_group_IT_number 15
_symmetry_cell_setting 'monoclinic'
loop_
_space_group_symop_operation_xyz
x,y,z
-x,y,1/2-z
-x,-y,-z
x,-y,1/2+z
1/2+x,1/2+y,z
1/2-x,1/2+y,1/2-z
1/2-x,1/2-y,-z
1/2+x,1/2-y,1/2+z
loop_
_atom_site_type_symbol
_atom_site_label
_atom_site_fract_x
_atom_site_fract_y
_atom_site_fract_z
Si Si1 0.000000 0.252889 0.250000
Si Si2 0.599423 0.864344 0.949465
Si Si3 0.695303 0.015319 0.069655
Si Si4 0.500054 0.957430 0.563338
Si Si5 0.683806 0.592879 0.070500
Si Si6 0.117327 0.052206 0.425576
Si Si7 0.987742 0.849680 0.588116
Si Si8 0.420330 0.767821 0.465587
O O1 0.803127 0.224030 0.383989
O O2 0.993968 0.279337 0.332445
O O3 0.475457 0.903373 0.992868
O O4 0.656950 0.891071 0.985421
O O5 0.788615 0.854159 0.769893
O O6 0.508173 0.810274 0.030412
O O7 0.500000 0.008780 0.250000
O O8 0.649359 0.034346 0.021041
O O9 0.816424 0.051123 0.036976
O O10 0.782856 0.959812 0.995143
O O11 0.298958 0.955701 0.745617
O O12 0.500000 0.000000 0.500000
O O13 0.500000 0.587549 0.250000
O O14 0.642179 0.634186 0.037987
O O15 0.022229 0.105506 0.466403
O O16 0.000000 0.000000 0.500000
O O17 0.030130 0.789740 0.544570
#
# Coordination Sequence:
#
# PCOD9257048 Si02
#       8
#     4   8   8   8   8   8   8   8
#     4  10  20  32  54  74 112 136 172 214 260 318
#     4  10  20  34  52  71 105 143 173 204 257 317
#     4  10  20  34  51  79 108 129 173 224 257 293
#     4  10  20  36  53  77 104 138 175 215 261 313
#     4  10  18  30  52  74 102 142 169 201 255 314
#     4  10  20  36  53  77 104 138 175 215 261 313
#     4  10  20  34  52  71 105 143 173 204 257 317
#     4  11  20  36  48  77 106 140 176 213 262 311
#
# _framework density 17.393464000000002
#
# number of rings (size 3 to 8) (size 9 to 14) (size 15 to 20)
#    0.000    1.867    4.000    1.600    1.867    0.000 
#    7.200    0.000    0.000    0.800    0.000    0.000 
#    0.000    0.000    0.000    0.000    0.000    0.133 
#
# Total GULP energy -167132.994274 kJ/mol
# GULP energy per Si atom -5571.099809 kJ/mol
# Density = 1.735388 g / cm^3
# Si number density = 17.393464 Si / 1000 Ang^3
#
#
#
# Elastic Constant Matrix: (Units=GPa)
#
#
# Indices 1 2 3 4 5 6 
#
# 1 109.1640 67.7788 19.1142 0.0036 19.9614 -0.0074
# 2 67.7788 149.2759 18.1103 0.0039 18.0865 -0.0022
# 3 19.1142 18.1103 20.5934 0.0245 9.3007 -0.0008
# 4 0.0036 0.0039 0.0245 16.3443 -0.0135 10.8607
# 5 19.9614 18.0865 9.3007 -0.0135 16.8961 0.0062
# 6 -0.0074 -0.0022 -0.0008 10.8607 0.0062 29.7347
#
#
#
# Elastic Compliance Matrix: (Units=1/GPa)
#
#
# Indices 1 2 3 4 5 6 
#
# 1 0.014884 -0.004992 -0.005186 -0.000007 -0.009387 0.000008
# 2 -0.004992 0.009635 -0.002456 0.000000 -0.003064 0.000000
# 3 -0.005186 -0.002456 0.068644 -0.000171 -0.029030 0.000069
# 4 -0.000007 0.000000 -0.000171 0.080793 0.000178 -0.029510
# 5 -0.009387 -0.003064 -0.029030 0.000178 0.089535 -0.000087
# 6 0.000008 0.000000 0.000069 -0.029510 -0.000087 0.044409
#
#
# Mechanical properties :
#
#
# Convention : Reuss Voigt Hill
#
# Bulk Modulus (GPa) = 14.72847 54.33775 34.53311
# Shear Modulus (GPa) = 14.05284 24.19702 19.12493
#
# Velocity S-wave (km/s) = 2.84551 3.73387 3.31954
# Velocity P-wave (km/s) = 4.39114 7.06379 5.88130
#
# Compressibility (1/GPa) = 0.06789569
#
# Stress axis : x y z
#
# Youngs Moduli (GPa) = 67.18482 103.79112 14.56792
#
# Poissons Ratio (x) = 0.51810 0.07555
# Poissons Ratio (y) = 0.33537 0.03578
# Poissons Ratio (z) = 0.34842 0.25490
#
# Static dielectric constant tensor:
#      x y z
#    x 1.642630 -0.000040 -0.009580 
#    y -0.000040 1.612460 0.000030 
#    z -0.009580 0.000030 1.626710 
# 
# From -- ./inp_files/43170.got.cif
#   From: 2010.05.17/outbox.cif.g08.bks.cpg/sg15_22_cif.got.tgz:43170.got - 2010.06.03 18:47:42.
