data_PCOD9257707
_publ_section_title
;
Structure prediction by ZEFSAII (Michael W. Deem and Ramdas Pophale) SiO2 
 PCOD9257707
Probable space group: C 2/C
;
_chemical_formula_sum "Si O2"
_cell_formula_units_Z 48
_cell_length_a 8.435521
_cell_length_b 17.085251
_cell_length_c 19.988083
_cell_angle_alpha 90.000000
_cell_angle_beta 64.890083
_cell_angle_gamma 90.000000
_cell_volume 2608.498848
_symmetry_space_group_name_H-M "C 2/C"
_symmetry_group_IT_number 15
_symmetry_cell_setting 'monoclinic'
loop_
_space_group_symop_operation_xyz
x,y,z
-x,y,1/2-z
-x,-y,-z
x,-y,1/2+z
1/2+x,1/2+y,z
1/2-x,1/2+y,1/2-z
1/2-x,1/2-y,-z
1/2+x,1/2-y,1/2+z
loop_
_atom_site_type_symbol
_atom_site_label
_atom_site_fract_x
_atom_site_fract_y
_atom_site_fract_z
Si Si1 0.436423 0.512550 0.874907
Si Si2 0.944820 0.493083 0.124270
Si Si3 0.241901 0.099521 0.000096
Si Si4 0.152829 0.338533 0.875916
Si Si5 0.500000 0.899867 0.250000
Si Si6 0.000000 0.098353 0.250000
Si Si7 0.850303 0.164205 0.625584
O O1 0.244729 0.520550 0.875501
O O2 0.545376 0.459367 0.803482
O O3 0.522990 0.595289 0.872638
O O4 0.404807 0.460500 0.946477
O O5 0.966291 0.587062 0.121817
O O6 0.094118 0.452279 0.053703
O O7 0.951479 0.454126 0.195662
O O8 0.181880 0.149378 0.947485
O O9 0.298857 0.149944 0.054368
O O10 0.334021 0.351963 0.803057
O O11 0.083622 0.252098 0.875366
O O12 0.334083 0.849009 0.303334
#
# Coordination Sequence:
#
# PCOD9257707 Si02
#       7
#     8   8   8   8   4   4   8
#     4  10  18  33  55  76  99 134 172 207 245 301
#     4   9  19  37  55  71  99 139 170 200 251 309
#     4   9  19  35  53  73 103 140 169 197 249 311
#     4  10  18  32  52  76 102 131 167 213 250 288
#     4  10  21  36  53  72 100 136 170 202 251 312
#     4   8  17  32  51  68  96 140 172 196 247 308
#     4  11  20  31  52  81 103 127 169 215 249 288
#
# _framework density 18.401388000000001
#
# number of rings (size 3 to 8) (size 9 to 14) (size 15 to 20)
#    0.000    2.667    0.000    5.500    0.000    0.000 
#    0.000    5.833    0.000   12.000    0.000    0.000 
#    0.000    0.000    0.000    0.000    0.000    0.000 
#
# Total GULP energy -133858.038636 kJ/mol
# GULP energy per Si atom -5577.418276 kJ/mol
# Density = 1.835951 g / cm^3
# Si number density = 18.401388 Si / 1000 Ang^3
#
#
#
# Elastic Constant Matrix: (Units=GPa)
#
#
# Indices 1 2 3 4 5 6 
#
# 1 13.3879 13.3750 11.0295 0.0000 1.7956 0.0000
# 2 13.3750 121.6821 28.3157 0.0000 -2.0076 0.0000
# 3 11.0295 28.3157 120.3105 0.0000 2.7652 0.0000
# 4 0.0000 0.0000 0.0000 60.0186 0.0000 5.0694
# 5 1.7956 -2.0076 2.7652 0.0000 21.2692 0.0000
# 6 0.0000 0.0000 0.0000 5.0694 0.0000 25.2141
#
#
#
# Elastic Compliance Matrix: (Units=1/GPa)
#
#
# Indices 1 2 3 4 5 6 
#
# 1 0.089168 -0.008531 -0.005993 0.000000 -0.007554 0.000000
# 2 -0.008531 0.009536 -0.001504 0.000000 0.001816 0.000000
# 3 -0.005993 -0.001504 0.009234 0.000000 -0.000837 0.000000
# 4 0.000000 0.000000 0.000000 0.016949 0.000000 -0.003408
# 5 -0.007554 0.001816 -0.000837 0.000000 0.047934 0.000000
# 6 0.000000 0.000000 0.000000 -0.003408 0.000000 0.040345
#
#
# Mechanical properties :
#
#
# Convention : Reuss Voigt Hill
#
# Bulk Modulus (GPa) = 13.17838 40.09120 26.63479
# Shear Modulus (GPa) = 18.48310 34.81107 26.64709
#
# Velocity S-wave (km/s) = 3.17273 4.35416 3.80952
# Velocity P-wave (km/s) = 4.53859 6.86386 5.81857
#
# Compressibility (1/GPa) = 0.07588187
#
# Stress axis : x y z
#
# Youngs Moduli (GPa) = 11.21479 104.86808 108.29040
#
# Poissons Ratio (x) = 0.89465 0.64899
# Poissons Ratio (y) = 0.09568 0.16286
# Poissons Ratio (z) = 0.06721 0.15771
#
# Static dielectric constant tensor:
#      x y z
#    x 1.624580 0.000000 0.000610 
#    y 0.000000 1.629140 0.000000 
#    z 0.000610 0.000000 1.657990 
# 
# From -- ./inp_files/189821.got.cif
#   From: 2010.05.17/outbox.cif.g08.bks.cpg/sg15_95_cif.got.tgz:189821.got - 2010.06.03 18:47:42.
