data_PCOD9257056
_publ_section_title
;
Structure prediction by ZEFSAII (Michael W. Deem and Ramdas Pophale) SiO2 
 PCOD9257056
Probable space group: C 2/C
;
_chemical_formula_sum "Si O2"
_cell_formula_units_Z 44
_cell_length_a 5.216287
_cell_length_b 29.945026
_cell_length_c 15.519653
_cell_angle_alpha 90.000000
_cell_angle_beta 72.863940
_cell_angle_gamma 90.000000
_cell_volume 2316.582922
_symmetry_space_group_name_H-M "C 2/C"
_symmetry_group_IT_number 15
_symmetry_cell_setting 'monoclinic'
loop_
_space_group_symop_operation_xyz
x,y,z
-x,y,1/2-z
-x,-y,-z
x,-y,1/2+z
1/2+x,1/2+y,z
1/2-x,1/2+y,1/2-z
1/2-x,1/2-y,-z
1/2+x,1/2-y,1/2+z
loop_
_atom_site_type_symbol
_atom_site_label
_atom_site_fract_x
_atom_site_fract_y
_atom_site_fract_z
Si Si1 0.853485 0.109776 0.098710
Si Si2 0.500000 0.007900 0.250000
Si Si3 0.442497 0.306043 0.503378
Si Si4 0.850221 0.727398 0.105184
Si Si5 0.500000 0.175632 0.250000
Si Si6 0.000000 0.931131 0.750000
Si Si7 0.799495 0.487888 0.943847
O O1 0.970787 0.140869 0.012070
O O2 0.657887 0.142406 0.171412
O O3 0.052568 0.095795 0.156757
O O4 0.716126 0.065018 0.077018
O O5 0.745574 0.038428 0.256884
O O6 0.609486 0.986070 0.151980
O O7 0.595058 0.285947 0.572784
O O8 0.587474 0.280089 0.411195
O O9 0.125796 0.293776 0.536965
O O10 0.833296 0.707448 0.202361
O O11 0.500000 0.500000 0.000000
O O12 0.000000 0.500000 0.000000
#
# Coordination Sequence:
#
# PCOD9257056 Si02
#       7
#     8   4   8   8   4   4   8
#     4  10  19  32  53  81 109 142 184 229 280 337
#     4  10  21  38  56  78 112 143 182 241 290 336
#     4   9  18  31  48  71 105 138 165 204 261 328
#     4   9  18  31  47  75 105 133 165 207 264 319
#     4  10  19  32  56  82 105 134 175 230 280 324
#     4  10  18  30  52  80 107 135 177 231 280 318
#     4  11  23  37  56  83 114 149 192 240 293 343
#
# _framework density 18.993493000000001
#
# number of rings (size 3 to 8) (size 9 to 14) (size 15 to 20)
#    0.000    2.182    0.000    5.455    0.000    8.000 
#    0.000    0.000    0.000    2.182    0.000    0.000 
#    0.000    0.000    0.000    0.000    0.000    0.000 
#
# Total GULP energy -122532.981320 kJ/mol
# GULP energy per Si atom -5569.680969 kJ/mol
# Density = 1.895026 g / cm^3
# Si number density = 18.993493 Si / 1000 Ang^3
#
#
#
# Elastic Constant Matrix: (Units=GPa)
#
#
# Indices 1 2 3 4 5 6 
#
# 1 115.7798 20.1398 34.6453 0.0000 9.0454 0.0000
# 2 20.1398 66.7015 38.1873 0.0000 12.9224 0.0000
# 3 34.6453 38.1873 101.7408 0.0000 8.0057 0.0000
# 4 0.0000 0.0000 0.0000 40.0134 0.0000 7.5125
# 5 9.0454 12.9224 8.0057 0.0000 33.0651 0.0000
# 6 0.0000 0.0000 0.0000 7.5125 0.0000 21.1635
#
#
#
# Elastic Compliance Matrix: (Units=1/GPa)
#
#
# Indices 1 2 3 4 5 6 
#
# 1 0.009785 -0.001032 -0.002819 0.000000 -0.001591 0.000000
# 2 -0.001032 0.020378 -0.006823 0.000000 -0.006030 0.000000
# 3 -0.002819 -0.006823 0.013333 0.000000 0.000209 0.000000
# 4 0.000000 0.000000 0.000000 0.026776 0.000000 -0.009505
# 5 -0.001591 -0.006030 0.000209 0.000000 0.032984 0.000000
# 6 0.000000 0.000000 0.000000 -0.009505 0.000000 0.050625
#
#
# Mechanical properties :
#
#
# Convention : Reuss Voigt Hill
#
# Bulk Modulus (GPa) = 45.15164 52.24078 48.69621
# Shear Modulus (GPa) = 27.38039 31.59839 29.48939
#
# Velocity S-wave (km/s) = 3.80092 4.08320 3.94459
# Velocity P-wave (km/s) = 6.56402 7.05651 6.81472
#
# Compressibility (1/GPa) = 0.02214759
#
# Stress axis : x y z
#
# Youngs Moduli (GPa) = 102.20208 49.07235 75.00003
#
# Poissons Ratio (x) = 0.05065 0.21145
# Poissons Ratio (y) = 0.10548 0.51171
# Poissons Ratio (z) = 0.28814 0.33481
#
# Static dielectric constant tensor:
#      x y z
#    x 1.682680 0.000000 -0.009430 
#    y 0.000000 1.715150 0.000000 
#    z -0.009430 0.000000 1.750750 
# 
# From -- ./inp_files/186361.got.cif
#   From: 2010.05.17/outbox.cif.g08.bks.cpg/sg15_94_cif.got.tgz:186361.got - 2010.06.03 18:47:42.
