data_PCOD9257090
_publ_section_title
;
Structure prediction by ZEFSAII (Michael W. Deem and Ramdas Pophale) SiO2 
 PCOD9257090
Probable space group: C 2/C
;
_chemical_formula_sum "Si O2"
_cell_formula_units_Z 40
_cell_length_a 6.887059
_cell_length_b 26.200187
_cell_length_c 8.400927
_cell_angle_alpha 90.000000
_cell_angle_beta 84.350187
_cell_angle_gamma 90.000000
_cell_volume 1508.518159
_symmetry_space_group_name_H-M "C 2/C"
_symmetry_group_IT_number 15
_symmetry_cell_setting 'monoclinic'
loop_
_space_group_symop_operation_xyz
x,y,z
-x,y,1/2-z
-x,-y,-z
x,-y,1/2+z
1/2+x,1/2+y,z
1/2-x,1/2+y,1/2-z
1/2-x,1/2-y,-z
1/2+x,1/2-y,1/2+z
loop_
_atom_site_type_symbol
_atom_site_label
_atom_site_fract_x
_atom_site_fract_y
_atom_site_fract_z
Si Si1 0.554271 0.681687 0.065018
Si Si2 0.494160 0.212642 0.437168
Si Si3 0.076292 0.602410 0.057966
Si Si4 0.715292 0.015664 0.820514
Si Si5 0.169349 0.924253 0.478302
O O1 0.500000 0.670789 0.250000
O O2 0.783968 0.696694 0.035090
O O3 0.535475 0.625594 0.988641
O O4 0.448810 0.734257 0.026117
O O5 0.500000 0.224059 0.250000
O O6 0.363552 0.161613 0.470213
O O7 0.000000 0.600443 0.250000
O O8 0.887419 0.597973 0.962097
O O9 0.195550 0.554337 0.975353
O O10 0.500000 0.008143 0.750000
O O11 0.840057 0.041679 0.674607
O O12 0.811339 0.963264 0.874799
#
# Coordination Sequence:
#
# PCOD9257090 Si02
#       5
#     8   8   8   8   8
#     4  10  22  39  58  84 122 157 191 241 297 354
#     4   9  20  38  61  88 114 150 200 243 290 348
#     4   9  16  29  53  85 113 139 184 246 297 332
#     4  10  18  30  53  82 114 147 194 249 286 335
#     4  10  19  32  50  77 112 150 189 234 294 346
#
# _framework density 26.516086000000001
#
# number of rings (size 3 to 8) (size 9 to 14) (size 15 to 20)
#    0.000    2.400    0.000    4.200    0.000    7.200 
#    0.000    7.000    0.000    2.400    0.000    0.000 
#    0.000    0.000    0.000    0.000    0.000    0.000 
#
# Total GULP energy -111664.792184 kJ/mol
# GULP energy per Si atom -5583.239609 kJ/mol
# Density = 2.645573 g / cm^3
# Si number density = 26.516086 Si / 1000 Ang^3
#
#
#
# Elastic Constant Matrix: (Units=GPa)
#
#
# Indices 1 2 3 4 5 6 
#
# 1 83.3604 38.1392 6.5145 0.0000 8.5789 0.0000
# 2 38.1392 227.6816 62.1070 0.0000 -23.0313 0.0000
# 3 6.5145 62.1070 85.9078 0.0000 2.3877 0.0000
# 4 0.0000 0.0000 0.0000 32.5325 0.0000 4.6921
# 5 8.5789 -23.0313 2.3877 0.0000 25.8871 0.0000
# 6 0.0000 0.0000 0.0000 4.6921 0.0000 48.2850
#
#
#
# Elastic Compliance Matrix: (Units=1/GPa)
#
#
# Indices 1 2 3 4 5 6 
#
# 1 0.014427 -0.003763 0.001857 0.000000 -0.008300 0.000000
# 2 -0.003763 0.007269 -0.005198 0.000000 0.008193 0.000000
# 3 0.001857 -0.005198 0.015442 0.000000 -0.006664 0.000000
# 4 0.000000 0.000000 0.000000 0.031175 0.000000 -0.003029
# 5 -0.008300 0.008193 -0.006664 0.000000 0.049284 0.000000
# 6 0.000000 0.000000 0.000000 -0.003029 0.000000 0.021005
#
#
# Mechanical properties :
#
#
# Convention : Reuss Voigt Hill
#
# Bulk Modulus (GPa) = 43.60831 67.83014 55.71922
# Shear Modulus (GPa) = 31.16187 40.68687 35.92437
#
# Velocity S-wave (km/s) = 3.43185 3.92142 3.68477
# Velocity P-wave (km/s) = 5.67319 6.79262 6.25799
#
# Compressibility (1/GPa) = 0.02293141
#
# Stress axis : x y z
#
# Youngs Moduli (GPa) = 69.31596 137.57066 64.75718
#
# Poissons Ratio (x) = 0.51765 -0.12025
# Poissons Ratio (y) = 0.26082 0.33658
# Poissons Ratio (z) = -0.12872 0.71502
#
# Static dielectric constant tensor:
#      x y z
#    x 2.225440 0.000000 -0.003910 
#    y 0.000000 2.117110 0.000000 
#    z -0.003910 0.000000 2.031120 
# 
# From -- ./inp_files/23500.got.cif
#   From: 2010.05.17/outbox.cif.g08.bks.cpg/sg15_12_cif.got.tgz:23500.got - 2010.06.03 18:47:42.
