data_PCOD9257555
_publ_section_title
;
Structure prediction by ZEFSAII (Michael W. Deem and Ramdas Pophale) SiO2 
 PCOD9257555
Probable space group: C 2/C
;
_chemical_formula_sum "Si O2"
_cell_formula_units_Z 40
_cell_length_a 10.006242
_cell_length_b 12.467172
_cell_length_c 12.888359
_cell_angle_alpha 90.000000
_cell_angle_beta 78.844269
_cell_angle_gamma 90.000000
_cell_volume 1577.437055
_symmetry_space_group_name_H-M "C 2/C"
_symmetry_group_IT_number 15
_symmetry_cell_setting 'monoclinic'
loop_
_space_group_symop_operation_xyz
x,y,z
-x,y,1/2-z
-x,-y,-z
x,-y,1/2+z
1/2+x,1/2+y,z
1/2-x,1/2+y,1/2-z
1/2-x,1/2-y,-z
1/2+x,1/2-y,1/2+z
loop_
_atom_site_type_symbol
_atom_site_label
_atom_site_fract_x
_atom_site_fract_y
_atom_site_fract_z
Si Si1 0.582453 0.915061 0.836660
Si Si2 0.337381 0.090025 0.536511
Si Si3 0.521709 0.738845 0.100944
Si Si4 0.196010 0.194228 0.861028
Si Si5 0.114112 0.037284 0.404208
O O1 0.500000 0.957261 0.750000
O O2 0.468132 0.915105 0.942115
O O3 0.642174 0.796824 0.803888
O O4 0.689162 0.990986 0.880986
O O5 0.390078 0.186829 0.599688
O O6 0.220777 0.092430 0.467865
O O7 0.642096 0.793446 0.147728
O O8 0.456545 0.629297 0.150674
O O9 0.608652 0.713371 0.981377
O O10 0.167485 0.069752 0.839685
O O11 0.000000 0.000000 0.500000
#
# Coordination Sequence:
#
# PCOD9257555 Si02
#       5
#     8   8   8   8   8
#     4  10  20  35  59  84 112 154 199 240 295 362
#     4  10  19  34  60  86 112 152 197 240 297 355
#     4   9  17  31  57  85 113 144 192 238 293 352
#     4   9  17  31  53  82 112 151 186 233 295 353
#     4  10  18  31  59  88 113 151 194 242 297 360
#
# _framework density 25.357589000000001
#
# number of rings (size 3 to 8) (size 9 to 14) (size 15 to 20)
#    0.000    2.400    0.000    6.600    0.000    0.000 
#    0.000    0.000   44.000    0.000    0.000    0.000 
#    0.000    0.000    0.000    0.000    0.000    0.000 
#
# Total GULP energy -111510.621878 kJ/mol
# GULP energy per Si atom -5575.531094 kJ/mol
# Density = 2.529987 g / cm^3
# Si number density = 25.357589 Si / 1000 Ang^3
#
#
#
# Elastic Constant Matrix: (Units=GPa)
#
#
# Indices 1 2 3 4 5 6 
#
# 1 115.2233 84.2481 0.2435 0.0000 9.0530 0.0000
# 2 84.2481 138.2995 40.8111 0.0000 15.3392 0.0000
# 3 0.2435 40.8111 81.1209 0.0000 4.1533 0.0000
# 4 0.0000 0.0000 0.0000 -3.8657 0.0000 11.4445
# 5 9.0530 15.3392 4.1533 0.0000 17.0148 0.0000
# 6 0.0000 0.0000 0.0000 11.4445 0.0000 35.1000
#
#
#
# Elastic Compliance Matrix: (Units=1/GPa)
#
#
# Indices 1 2 3 4 5 6 
#
# 1 0.018143 -0.013017 0.006468 0.000000 0.000503 0.000000
# 2 -0.013017 0.018657 -0.008952 0.000000 -0.007709 0.000000
# 3 0.006468 -0.008952 0.016784 0.000000 0.000532 0.000000
# 4 0.000000 0.000000 0.000000 -0.131627 0.000000 0.042917
# 5 0.000503 -0.007709 0.000532 0.000000 0.065325 0.000000
# 6 0.000000 0.000000 0.000000 0.042917 0.000000 0.014497
#
#
# Mechanical properties :
#
#
# Convention : Reuss Voigt Hill
#
# Bulk Modulus (GPa) = 44.28103 65.02768 54.65435
# Shear Modulus (GPa) = 124.04440 23.60587 73.82513
#
# Velocity S-wave (km/s) = 7.00173 3.05441 5.40156
# Velocity P-wave (km/s) = 9.10309 6.17569 7.77835
#
# Compressibility (1/GPa) = 0.02258303
#
# Stress axis : x y z
#
# Youngs Moduli (GPa) = 55.11708 53.59939 59.57893
#
# Poissons Ratio (x) = 0.69770 -0.38538
# Poissons Ratio (y) = 0.71745 0.53337
# Poissons Ratio (z) = -0.35652 0.47984
#
# Static dielectric constant tensor:
#      x y z
#    x 1.822270 0.000000 -0.143590 
#    y 0.000000 2.114850 0.000000 
#    z -0.143590 0.000000 1.829230 
# 
# From -- ./inp_files/195710.got.cif
#   From: 2010.05.17/outbox.cif.g08.bks.cpg/sg15_98_cif.got.tgz:195710.got - 2010.06.03 18:47:42.
