data_PCOD9257802
_publ_section_title
;
Structure prediction by ZEFSAII (Michael W. Deem and Ramdas Pophale) SiO2 
 PCOD9257802
Probable space group: C 2/C
;
_chemical_formula_sum "Si O2"
_cell_formula_units_Z 28
_cell_length_a 33.402291
_cell_length_b 7.357108
_cell_length_c 12.562081
_cell_angle_alpha 90.000000
_cell_angle_beta 25.429405
_cell_angle_gamma 90.000000
_cell_volume 1325.579205
_symmetry_space_group_name_H-M "C 2/C"
_symmetry_group_IT_number 15
_symmetry_cell_setting 'monoclinic'
loop_
_space_group_symop_operation_xyz
x,y,z
-x,y,1/2-z
-x,-y,-z
x,-y,1/2+z
1/2+x,1/2+y,z
1/2-x,1/2+y,1/2-z
1/2-x,1/2-y,-z
1/2+x,1/2-y,1/2+z
loop_
_atom_site_type_symbol
_atom_site_label
_atom_site_fract_x
_atom_site_fract_y
_atom_site_fract_z
Si Si1 0.300351 0.281493 0.989277
Si Si2 0.848136 0.870436 0.493077
Si Si3 0.000000 0.886300 0.750000
Si Si4 0.490207 0.719105 0.501320
O O1 0.237360 0.202825 0.234628
O O2 0.309647 0.493608 0.995809
O O3 0.250000 0.250000 0.000000
O O4 0.406050 0.206650 0.730249
O O5 0.915618 0.986626 0.410272
O O6 0.912990 0.272557 0.773285
O O7 0.968192 0.770269 0.928923
O O8 0.500000 0.500000 0.500000
#
# Coordination Sequence:
#
# PCOD9257802 Si02
#       4
#     8   8   4   8
#     4  10  19  33  53  79 105 135 174 215 256 306
#     4  10  18  32  54  77 101 137 175 214 256 304
#     4   8  14  30  50  70  96 134 174 204 244 312
#     4   8  16  29  49  72  97 132 169 204 251 309
#
# _framework density 21.122841000000001
#
# number of rings (size 3 to 8) (size 9 to 14) (size 15 to 20)
#    0.000    3.429    0.000    5.143    0.000    0.000 
#    0.000   14.286    0.000   13.714    0.000    0.000 
#    0.000    0.000    0.000    0.000    0.000    0.000 
#
# Total GULP energy -77997.317495 kJ/mol
# GULP energy per Si atom -5571.236964 kJ/mol
# Density = 2.107476 g / cm^3
# Si number density = 21.122841 Si / 1000 Ang^3
#
#
#
# Elastic Constant Matrix: (Units=GPa)
#
#
# Indices 1 2 3 4 5 6 
#
# 1 161.9514 14.2280 77.8363 0.0000 7.7994 0.0000
# 2 14.2280 23.4307 33.7841 0.0000 1.6957 0.0000
# 3 77.8363 33.7841 170.5495 0.0000 16.7627 0.0000
# 4 0.0000 0.0000 0.0000 26.0641 0.0000 4.7900
# 5 7.7994 1.6957 16.7627 0.0000 26.2733 0.0000
# 6 0.0000 0.0000 0.0000 4.7900 0.0000 18.4777
#
#
#
# Elastic Compliance Matrix: (Units=1/GPa)
#
#
# Indices 1 2 3 4 5 6 
#
# 1 0.007915 0.000562 -0.003722 0.000000 -0.000011 0.000000
# 2 0.000562 0.060168 -0.012565 0.000000 0.003966 0.000000
# 3 -0.003722 -0.012565 0.010523 0.000000 -0.004798 0.000000
# 4 0.000000 0.000000 0.000000 0.040286 0.000000 -0.010443
# 5 -0.000011 0.003966 -0.004798 0.000000 0.040870 0.000000
# 6 0.000000 0.000000 0.000000 -0.010443 0.000000 0.056827
#
#
# Mechanical properties :
#
#
# Convention : Reuss Voigt Hill
#
# Bulk Modulus (GPa) = 21.20691 67.51428 44.36060
# Shear Modulus (GPa) = 18.95684 29.50190 24.22937
#
# Velocity S-wave (km/s) = 2.99901 3.74128 3.39052
# Velocity P-wave (km/s) = 4.69613 7.12004 6.03111
#
# Compressibility (1/GPa) = 0.04715444
#
# Stress axis : x y z
#
# Youngs Moduli (GPa) = 126.34337 16.62023 95.03168
#
# Poissons Ratio (x) = -0.00934 0.35376
# Poissons Ratio (y) = -0.07099 1.19406
# Poissons Ratio (z) = 0.47031 0.20883
#
# Static dielectric constant tensor:
#      x y z
#    x 1.757700 0.000000 0.052080 
#    y 0.000000 1.831580 0.000000 
#    z 0.052080 0.000000 1.877490 
# 
# From -- ./inp_files/102056.got.cif
#   From: 2010.05.17/outbox.cif.g08.bks.cpg/sg15_52_cif.got.tgz:102056.got - 2010.06.03 18:47:42.
