data_PCOD9257620
_publ_section_title
;
Structure prediction by ZEFSAII (Michael W. Deem and Ramdas Pophale) SiO2 
 PCOD9257620
Probable space group: C 2/C
;
_chemical_formula_sum "Si O2"
_cell_formula_units_Z 52
_cell_length_a 16.853850
_cell_length_b 14.981473
_cell_length_c 12.424170
_cell_angle_alpha 90.000000
_cell_angle_beta 49.036914
_cell_angle_gamma 90.000000
_cell_volume 2368.884899
_symmetry_space_group_name_H-M "C 2/C"
_symmetry_group_IT_number 15
_symmetry_cell_setting 'monoclinic'
loop_
_space_group_symop_operation_xyz
x,y,z
-x,y,1/2-z
-x,-y,-z
x,-y,1/2+z
1/2+x,1/2+y,z
1/2-x,1/2+y,1/2-z
1/2-x,1/2-y,-z
1/2+x,1/2-y,1/2+z
loop_
_atom_site_type_symbol
_atom_site_label
_atom_site_fract_x
_atom_site_fract_y
_atom_site_fract_z
Si Si1 0.026889 0.834934 0.462101
Si Si2 0.500000 0.733837 0.750000
Si Si3 0.297651 0.335420 0.696597
Si Si4 0.812074 0.375873 0.932016
Si Si5 0.924709 0.489012 0.201455
Si Si6 0.919979 0.368041 0.529521
Si Si7 0.253071 0.874564 0.228754
O O1 0.916495 0.866830 0.608435
O O2 0.011732 0.822474 0.347608
O O3 0.048711 0.734492 0.485497
O O4 0.135571 0.887004 0.378731
O O5 0.397130 0.795893 0.856121
O O6 0.261454 0.358450 0.606474
O O7 0.206233 0.373369 0.854990
O O8 0.289866 0.227986 0.715190
O O9 0.875917 0.465645 0.849188
O O10 0.757412 0.383720 0.095606
O O11 0.957750 0.576186 0.101391
O O12 0.831947 0.440537 0.217732
O O13 0.016228 0.416236 0.119890
#
# Coordination Sequence:
#
# PCOD9257620 Si02
#       7
#     8   4   8   8   8   8   8
#     4  11  19  30  53  78 111 142 173 227 283 327
#     4  12  16  28  48  82 112 126 172 220 278 326
#     4  10  18  32  49  79 111 138 176 225 279 333
#     4  11  21  31  49  81 114 144 174 221 281 325
#     4  10  19  34  49  74 116 147 173 222 273 331
#     4   9  18  31  45  73 105 142 177 207 267 322
#     4  11  20  32  51  81 111 143 180 221 276 329
#
# _framework density 21.951256000000001
#
# number of rings (size 3 to 8) (size 9 to 14) (size 15 to 20)
#    0.000    1.538    7.692    1.385    2.154    0.000 
#    0.000    3.077    0.000    0.000    0.000    9.692 
#    0.000    0.000    0.000    0.000    0.000    2.308 
#
# Total GULP energy -145315.299676 kJ/mol
# GULP energy per Si atom -5589.049988 kJ/mol
# Density = 2.190129 g / cm^3
# Si number density = 21.951256 Si / 1000 Ang^3
#
#
#
# Elastic Constant Matrix: (Units=GPa)
#
#
# Indices 1 2 3 4 5 6 
#
# 1 43.8444 6.1565 29.2580 0.0000 -20.4478 0.0000
# 2 6.1565 51.4331 21.4134 0.0000 3.0390 0.0000
# 3 29.2580 21.4134 144.0791 0.0000 -47.2588 0.0000
# 4 0.0000 0.0000 0.0000 28.7453 0.0000 1.5442
# 5 -20.4478 3.0390 -47.2588 0.0000 31.9611 0.0000
# 6 0.0000 0.0000 0.0000 1.5442 0.0000 32.4161
#
#
#
# Elastic Compliance Matrix: (Units=1/GPa)
#
#
# Indices 1 2 3 4 5 6 
#
# 1 0.034415 -0.006901 0.002863 0.000000 0.026907 0.000000
# 2 -0.006901 0.025137 -0.008868 0.000000 -0.019917 0.000000
# 3 0.002863 -0.008868 0.016611 0.000000 0.027236 0.000000
# 4 0.000000 0.000000 0.000000 0.034878 0.000000 -0.001661
# 5 0.026907 -0.019917 0.027236 0.000000 0.090668 0.000000
# 6 0.000000 0.000000 0.000000 -0.001661 0.000000 0.030928
#
#
# Mechanical properties :
#
#
# Convention : Reuss Voigt Hill
#
# Bulk Modulus (GPa) = 19.86044 39.22360 29.54202
# Shear Modulus (GPa) = 18.16646 30.79308 24.47977
#
# Velocity S-wave (km/s) = 2.87989 3.74945 3.34307
# Velocity P-wave (km/s) = 4.48615 6.05407 5.32810
#
# Compressibility (1/GPa) = 0.05035134
#
# Stress axis : x y z
#
# Youngs Moduli (GPa) = 29.05691 39.78123 60.20200
#
# Poissons Ratio (x) = 0.27453 -0.17233
# Poissons Ratio (y) = 0.20052 0.53384
# Poissons Ratio (z) = -0.08318 0.35276
#
# Static dielectric constant tensor:
#      x y z
#    x 1.846240 0.000000 -0.043890 
#    y 0.000000 1.792750 0.000000 
#    z -0.043890 0.000000 1.859270 
# 
# From -- ./inp_files/215321.got.cif
#   From: 2010.05.17/outbox.cif.g08.bks.cpg/sg15_108_cif.got.tgz:215321.got - 2010.06.03 18:47:42.
