data_PCOD9257477
_publ_section_title
;
Structure prediction by ZEFSAII (Michael W. Deem and Ramdas Pophale) SiO2 
 PCOD9257477
Probable space group: C 2/C
;
_chemical_formula_sum "Si O2"
_cell_formula_units_Z 56
_cell_length_a 7.098519
_cell_length_b 19.885335
_cell_length_c 25.445723
_cell_angle_alpha 90.000000
_cell_angle_beta 36.672421
_cell_angle_gamma 90.000000
_cell_volume 2145.179919
_symmetry_space_group_name_H-M "C 2/C"
_symmetry_group_IT_number 15
_symmetry_cell_setting 'monoclinic'
loop_
_space_group_symop_operation_xyz
x,y,z
-x,y,1/2-z
-x,-y,-z
x,-y,1/2+z
1/2+x,1/2+y,z
1/2-x,1/2+y,1/2-z
1/2-x,1/2-y,-z
1/2+x,1/2-y,1/2+z
loop_
_atom_site_type_symbol
_atom_site_label
_atom_site_fract_x
_atom_site_fract_y
_atom_site_fract_z
Si Si1 0.000000 0.886522 0.750000
Si Si2 0.783051 0.775120 0.612298
Si Si3 0.000000 0.657817 0.750000
Si Si4 0.809864 0.108653 0.025933
Si Si5 0.724471 0.374835 0.085098
Si Si6 0.950943 0.005763 0.679507
Si Si7 0.555729 0.279687 0.810183
Si Si8 0.832531 0.509547 0.871048
O O1 0.159566 0.827642 0.677040
O O2 0.963246 0.937432 0.709340
O O3 0.866671 0.823167 0.545229
O O4 0.806834 0.696259 0.592229
O O5 0.424780 0.792370 0.711955
O O6 0.987480 0.788154 0.618558
O O7 0.659096 0.625220 0.831923
O O8 0.994033 0.704943 0.699577
O O9 0.613767 0.057830 0.106958
O O10 0.675557 0.118497 0.997513
O O11 0.128868 0.064718 0.946821
O O12 0.757145 0.445553 0.108936
O O13 0.660859 0.038778 0.777229
O O14 0.852497 0.989088 0.641387
#
# Coordination Sequence:
#
# PCOD9257477 Si02
#       8
#     4   8   4   8   8   8   8   8
#     4  11  20  32  56  84 106 133 180 242 282 305
#     4  10  19  35  58  80 112 147 184 226 275 333
#     4   9  18  36  56  74 108 143 182 226 268 321
#     4  10  18  31  55  83 112 148 187 226 273 332
#     4  10  20  34  54  82 111 147 184 224 275 333
#     4  10  20  35  56  82 109 142 187 230 271 325
#     4   9  20  35  56  82 104 139 187 230 270 325
#     4   9  19  35  56  80 112 151 188 227 275 327
#
# _framework density 26.105035999999998
#
# number of rings (size 3 to 8) (size 9 to 14) (size 15 to 20)
#    0.000    2.286    0.000    3.857    0.000    4.571 
#    0.000    0.714    0.000   41.143    0.000    0.000 
#    0.000    0.000    0.000    0.000    0.000    0.000 
#
# Total GULP energy -156290.583997 kJ/mol
# GULP energy per Si atom -5581.806571 kJ/mol
# Density = 2.604562 g / cm^3
# Si number density = 26.105036 Si / 1000 Ang^3
#
#
#
# Elastic Constant Matrix: (Units=GPa)
#
#
# Indices 1 2 3 4 5 6 
#
# 1 71.8316 21.2244 36.8024 -0.0230 29.7137 0.0345
# 2 21.2244 114.5334 56.4327 -0.0015 30.3796 0.0059
# 3 36.8024 56.4327 139.9359 -0.0466 30.5321 0.0322
# 4 -0.0230 -0.0015 -0.0466 34.1384 0.0206 14.4868
# 5 29.7137 30.3796 30.5321 0.0206 46.9803 -0.0303
# 6 0.0345 0.0059 0.0322 14.4868 -0.0303 17.7093
#
#
#
# Elastic Compliance Matrix: (Units=1/GPa)
#
#
# Indices 1 2 3 4 5 6 
#
# 1 0.019858 0.000791 -0.003134 0.000058 -0.011035 -0.000100
# 2 0.000791 0.011982 -0.003776 0.000005 -0.005795 -0.000012
# 3 -0.003134 -0.003776 0.009937 0.000028 -0.002034 -0.000037
# 4 0.000058 0.000005 0.000028 0.044868 -0.000102 -0.036704
# 5 -0.011035 -0.005795 -0.002034 -0.000102 0.033334 0.000167
# 6 -0.000100 -0.000012 -0.000037 -0.036704 0.000167 0.086493
#
#
# Mechanical properties :
#
#
# Convention : Reuss Voigt Hill
#
# Bulk Modulus (GPa) = 33.85294 61.69108 47.77201
# Shear Modulus (GPa) = 21.87655 33.88836 27.88245
#
# Velocity S-wave (km/s) = 2.89800 3.60690 3.27171
# Velocity P-wave (km/s) = 4.91874 6.40542 5.71067
#
# Compressibility (1/GPa) = 0.02953953
#
# Stress axis : x y z
#
# Youngs Moduli (GPa) = 50.35769 83.45964 100.63541
#
# Poissons Ratio (x) = -0.06603 0.31539
# Poissons Ratio (y) = -0.03984 0.37997
# Poissons Ratio (z) = 0.15782 0.31512
#
# Static dielectric constant tensor:
#      x y z
#    x 2.202620 -0.000020 -0.076180 
#    y -0.000020 2.096420 0.000030 
#    z -0.076180 0.000030 2.043730 
# 
# From -- ./inp_files/265906.got.cif
#   From: 2010.05.17/outbox.cif.g08.bks.cpg/sg15_133_cif.got.tgz:265906.got - 2010.06.03 18:47:42.
