data_PCOD9257031
_publ_section_title
;
Structure prediction by ZEFSAII (Michael W. Deem and Ramdas Pophale) SiO2 
 PCOD9257031
Probable space group: C 2/C
;
_chemical_formula_sum "Si O2"
_cell_formula_units_Z 60
_cell_length_a 12.603153
_cell_length_b 19.345679
_cell_length_c 22.644459
_cell_angle_alpha 90.000000
_cell_angle_beta 36.464294
_cell_angle_gamma 90.000000
_cell_volume 3281.306025
_symmetry_space_group_name_H-M "C 2/C"
_symmetry_group_IT_number 15
_symmetry_cell_setting 'monoclinic'
loop_
_space_group_symop_operation_xyz
x,y,z
-x,y,1/2-z
-x,-y,-z
x,-y,1/2+z
1/2+x,1/2+y,z
1/2-x,1/2+y,1/2-z
1/2-x,1/2-y,-z
1/2+x,1/2-y,1/2+z
loop_
_atom_site_type_symbol
_atom_site_label
_atom_site_fract_x
_atom_site_fract_y
_atom_site_fract_z
Si Si1 0.698772 0.126071 0.013041
Si Si2 0.085758 0.165436 0.824050
Si Si3 0.260211 0.513559 0.552555
Si Si4 0.628692 0.939098 0.426643
Si Si5 0.000000 0.930742 0.250000
Si Si6 0.399743 0.812896 0.732480
Si Si7 0.877874 0.566945 0.706466
Si Si8 0.657878 0.443554 0.857964
O O1 0.543425 0.155383 0.122977
O O2 0.726391 0.046571 0.019966
O O3 0.640883 0.121543 0.970069
O O4 0.886128 0.165876 0.940799
O O5 0.045870 0.117654 0.784725
O O6 0.150333 0.239190 0.772558
O O7 0.240283 0.125692 0.790905
O O8 0.293946 0.473504 0.598867
O O9 0.442691 0.551967 0.451877
O O10 0.076908 0.556538 0.642286
O O11 0.825178 0.972812 0.340285
O O12 0.591831 0.916607 0.376347
O O13 0.500000 0.000000 0.500000
O O14 0.500000 0.802445 0.750000
O O15 0.241157 0.867859 0.812374
O O16 0.764018 0.496125 0.766748
#
# Coordination Sequence:
#
# PCOD9257031 Si02
#       8
#     8   8   8   8   4   8   8   8
#     4  11  20  36  54  87 118 146 189 241 293 344
#     4  10  21  35  54  82 118 146 188 230 295 349
#     4  11  21  36  59  89 116 146 200 246 296 335
#     4  10  18  30  51  79 111 144 180 223 276 341
#     4   8  18  30  48  74 108 144 176 218 274 336
#     4  12  21  37  59  87 117 154 191 247 294 343
#     4  11  20  36  57  83 115 155 186 236 287 353
#     4  11  22  37  60  88 116 147 201 248 289 343
#
# _framework density 18.285402999999999
#
# number of rings (size 3 to 8) (size 9 to 14) (size 15 to 20)
#    0.000    1.333    6.000    0.800    0.000    0.000 
#    0.000    0.667    0.000    0.000    3.467    0.000 
#    0.000    0.000    0.000    0.000    0.000    0.000 
#
# Total GULP energy -167162.754077 kJ/mol
# GULP energy per Si atom -5572.091803 kJ/mol
# Density = 1.824378 g / cm^3
# Si number density = 18.285403 Si / 1000 Ang^3
#
#
#
# Elastic Constant Matrix: (Units=GPa)
#
#
# Indices 1 2 3 4 5 6 
#
# 1 48.6982 13.1541 25.2878 0.0027 -12.6080 -0.0003
# 2 13.1541 87.3020 32.4820 0.0081 -29.4859 -0.0016
# 3 25.2878 32.4820 113.8465 0.0157 -32.4714 -0.0020
# 4 0.0027 0.0081 0.0157 19.6689 -0.0023 -4.0909
# 5 -12.6080 -29.4859 -32.4714 -0.0023 42.7340 -0.0004
# 6 -0.0003 -0.0016 -0.0020 -4.0909 -0.0004 19.6081
#
#
#
# Elastic Compliance Matrix: (Units=1/GPa)
#
#
# Indices 1 2 3 4 5 6 
#
# 1 0.023752 -0.000967 -0.004074 0.000001 0.003244 0.000000
# 2 -0.000967 0.015233 -0.001551 -0.000004 0.009047 0.000000
# 3 -0.004074 -0.001551 0.012107 -0.000008 0.006927 0.000000
# 4 0.000001 -0.000004 -0.000008 0.053148 -0.000005 0.011088
# 5 0.003244 0.009047 0.006927 -0.000005 0.035863 0.000001
# 6 0.000000 0.000000 0.000000 0.011088 0.000001 0.053313
#
#
# Mechanical properties :
#
#
# Convention : Reuss Voigt Hill
#
# Bulk Modulus (GPa) = 26.38082 43.52162 34.95122
# Shear Modulus (GPa) = 22.80647 28.33038 25.56843
#
# Velocity S-wave (km/s) = 3.53547 3.94044 3.74344
# Velocity P-wave (km/s) = 5.57895 6.67501 6.15144
#
# Compressibility (1/GPa) = 0.03790633
#
# Stress axis : x y z
#
# Youngs Moduli (GPa) = 42.10240 65.64822 82.59594
#
# Poissons Ratio (x) = 0.06348 0.33654
# Poissons Ratio (y) = 0.04071 0.12811
# Poissons Ratio (z) = 0.17155 0.10182
#
# Static dielectric constant tensor:
#      x y z
#    x 1.683280 0.000000 0.010840 
#    y 0.000000 1.615980 0.000000 
#    z 0.010840 0.000000 1.713200 
# 
# From -- ./inp_files/296818.got.cif
#   From: 2010.05.17/outbox.cif.g08.bks.cpg/sg15_149_cif.got.tgz:296818.got - 2010.06.03 18:47:42.
