data_PCOD9257742
_publ_section_title
;
Structure prediction by ZEFSAII (Michael W. Deem and Ramdas Pophale) SiO2 
 PCOD9257742
Probable space group: C 2/C
;
_chemical_formula_sum "Si O2"
_cell_formula_units_Z 64
_cell_length_a 24.782309
_cell_length_b 12.314293
_cell_length_c 20.048799
_cell_angle_alpha 90.000000
_cell_angle_beta 33.841950
_cell_angle_gamma 90.000000
_cell_volume 3407.374427
_symmetry_space_group_name_H-M "C 2/C"
_symmetry_group_IT_number 15
_symmetry_cell_setting 'monoclinic'
loop_
_space_group_symop_operation_xyz
x,y,z
-x,y,1/2-z
-x,-y,-z
x,-y,1/2+z
1/2+x,1/2+y,z
1/2-x,1/2+y,1/2-z
1/2-x,1/2-y,-z
1/2+x,1/2-y,1/2+z
loop_
_atom_site_type_symbol
_atom_site_label
_atom_site_fract_x
_atom_site_fract_y
_atom_site_fract_z
Si Si1 0.454652 0.454838 0.364912
Si Si2 0.205469 0.619319 0.901113
Si Si3 0.860481 0.682485 0.680281
Si Si4 0.572645 0.201275 0.441187
Si Si5 0.360373 0.765357 0.909486
Si Si6 0.588638 0.282896 0.283898
Si Si7 0.333110 0.417705 0.093382
Si Si8 0.729406 0.415990 0.731784
O O1 0.500000 0.499509 0.250000
O O2 0.392513 0.349441 0.407370
O O3 0.537583 0.399333 0.325170
O O4 0.390260 0.537863 0.471661
O O5 0.161302 0.649551 0.874549
O O6 0.299561 0.695676 0.813019
O O7 0.245403 0.496950 0.854641
O O8 0.138999 0.645563 0.032865
O O9 0.778228 0.617570 0.805351
O O10 0.833760 0.809334 0.716975
O O11 0.973492 0.662801 0.577691
O O12 0.546542 0.222764 0.390797
O O13 0.611052 0.314539 0.432867
O O14 0.664772 0.122424 0.351096
O O15 0.417437 0.778213 0.781018
O O16 0.250000 0.750000 0.000000
O O17 0.325091 0.512498 0.156724
#
# Coordination Sequence:
#
# PCOD9257742 Si02
#       8
#     8   8   8   8   8   8   8   8
#     4  10  21  35  56  83 106 143 186 227 274 329
#     4  10  18  33  49  80 112 149 178 218 282 325
#     4  10  21  35  51  82 117 143 187 230 274 326
#     4  11  21  34  55  85 111 152 179 229 282 321
#     4   9  19  32  52  78 115 141 168 222 278 326
#     4  10  18  32  52  83 112 137 177 225 277 322
#     4  10  21  35  55  82 110 142 186 230 272 329
#     4  10  19  33  54  79 117 144 183 231 268 335
#
# _framework density 18.782791
#
# number of rings (size 3 to 8) (size 9 to 14) (size 15 to 20)
#    0.000    2.000    3.750    2.250    3.500    3.000 
#    0.000    0.000    2.750    0.750    0.000    0.000 
#    0.000    0.000    0.000    0.000    0.000    0.000 
#
# Total GULP energy -178433.171583 kJ/mol
# GULP energy per Si atom -5576.036612 kJ/mol
# Density = 1.874004 g / cm^3
# Si number density = 18.782791 Si / 1000 Ang^3
#
#
#
# Elastic Constant Matrix: (Units=GPa)
#
#
# Indices 1 2 3 4 5 6 
#
# 1 47.0597 2.8270 29.8425 0.0000 0.6741 0.0000
# 2 2.8270 32.2186 14.6178 0.0000 19.2431 0.0000
# 3 29.8425 14.6178 109.2771 0.0000 8.1310 0.0000
# 4 0.0000 0.0000 0.0000 31.5836 0.0000 7.1389
# 5 0.6741 19.2431 8.1310 0.0000 36.7082 0.0000
# 6 0.0000 0.0000 0.0000 7.1389 0.0000 7.8784
#
#
#
# Elastic Compliance Matrix: (Units=1/GPa)
#
#
# Indices 1 2 3 4 5 6 
#
# 1 0.025749 0.000472 -0.007159 0.000000 0.000866 0.000000
# 2 0.000472 0.047327 -0.004690 0.000000 -0.023780 0.000000
# 3 -0.007159 -0.004690 0.011734 0.000000 -0.000009 0.000000
# 4 0.000000 0.000000 0.000000 0.039817 0.000000 -0.036080
# 5 0.000866 -0.023780 -0.000009 0.000000 0.039694 0.000000
# 6 0.000000 0.000000 0.000000 -0.036080 0.000000 0.159622
#
#
# Mechanical properties :
#
#
# Convention : Reuss Voigt Hill
#
# Bulk Modulus (GPa) = 16.11474 31.45892 23.78683
# Shear Modulus (GPa) = 13.60975 24.65193 19.13084
#
# Velocity S-wave (km/s) = 2.69473 3.62674 3.19490
# Velocity P-wave (km/s) = 4.27554 5.85857 5.12850
#
# Compressibility (1/GPa) = 0.06205500
#
# Stress axis : x y z
#
# Youngs Moduli (GPa) = 38.83667 21.12942 85.22041
#
# Poissons Ratio (x) = -0.00997 0.61012
# Poissons Ratio (y) = -0.01833 0.39972
# Poissons Ratio (z) = 0.27804 0.09911
#
# Static dielectric constant tensor:
#      x y z
#    x 1.683540 0.000000 -0.016270 
#    y 0.000000 1.645580 0.000000 
#    z -0.016270 0.000000 1.714100 
# 
# From -- ./inp_files/257513.got.cif
#   From: 2010.05.17/outbox.cif.g08.bks.cpg/sg15_129_cif.got.tgz:257513.got - 2010.06.03 18:47:42.
