data_PCOD9257522
_publ_section_title
;
Structure prediction by ZEFSAII (Michael W. Deem and Ramdas Pophale) SiO2 
 PCOD9257522
Probable space group: C 2/C
;
_chemical_formula_sum "Si O2"
_cell_formula_units_Z 40
_cell_length_a 10.481165
_cell_length_b 10.254758
_cell_length_c 14.041797
_cell_angle_alpha 90.000000
_cell_angle_beta 103.816680
_cell_angle_gamma 90.000000
_cell_volume 1465.567664
_symmetry_space_group_name_H-M "C 2/C"
_symmetry_group_IT_number 15
_symmetry_cell_setting 'monoclinic'
loop_
_space_group_symop_operation_xyz
x,y,z
-x,y,1/2-z
-x,-y,-z
x,-y,1/2+z
1/2+x,1/2+y,z
1/2-x,1/2+y,1/2-z
1/2-x,1/2-y,-z
1/2+x,1/2-y,1/2+z
loop_
_atom_site_type_symbol
_atom_site_label
_atom_site_fract_x
_atom_site_fract_y
_atom_site_fract_z
Si Si1 0.255517 0.417284 0.454611
Si Si2 0.750191 0.307811 0.649132
Si Si3 0.769874 0.460727 0.826879
Si Si4 0.500000 0.103541 0.250000
Si Si5 0.524674 0.731471 0.421142
Si Si6 0.000000 0.981794 0.750000
O O1 0.275143 0.551295 0.404560
O O2 0.225075 0.445332 0.560566
O O3 0.389726 0.332364 0.477766
O O4 0.126364 0.338488 0.400875
O O5 0.737950 0.327311 0.761295
O O6 0.626959 0.224977 0.588874
O O7 0.907909 0.306017 0.666780
O O8 0.643476 0.549376 0.777491
O O9 0.906984 0.484282 0.799477
O O10 0.511000 0.612623 0.343730
#
# Coordination Sequence:
#
# PCOD9257522 Si02
#       6
#     8   8   8   4   8   4
#     4  10  18  31  57  83 112 150 201 239 297 362
#     4   9  18  34  53  78 115 152 194 242 297 357
#     4   8  17  32  51  78 109 148 190 239 290 347
#     4   8  18  33  52  74 115 152 184 238 300 347
#     4   9  18  31  53  84 112 151 193 250 295 351
#     4   8  14  31  54  72 111 154 188 236 298 347
#
# _framework density 27.29318
#
# number of rings (size 3 to 8) (size 9 to 14) (size 15 to 20)
#    1.200    2.000    0.000    0.600    0.000    1.600 
#    0.000    1.000    0.000    4.800    0.000    1.400 
#    0.000    0.000    0.000    0.000    0.000    0.000 
#
# Total GULP energy -111371.680479 kJ/mol
# GULP energy per Si atom -5568.584024 kJ/mol
# Density = 2.723106 g / cm^3
# Si number density = 27.293180 Si / 1000 Ang^3
#
#
#
# Elastic Constant Matrix: (Units=GPa)
#
#
# Indices 1 2 3 4 5 6 
#
# 1 249.5759 35.2156 59.8238 0.0000 42.3008 0.0000
# 2 35.2156 79.8773 26.9940 0.0000 0.7948 0.0000
# 3 59.8238 26.9940 109.7125 0.0000 0.2059 0.0000
# 4 0.0000 0.0000 0.0000 9.7735 0.0000 -13.0150
# 5 42.3008 0.7948 0.2059 0.0000 56.6928 0.0000
# 6 0.0000 0.0000 0.0000 -13.0150 0.0000 38.4215
#
#
#
# Elastic Compliance Matrix: (Units=1/GPa)
#
#
# Indices 1 2 3 4 5 6 
#
# 1 0.005552 -0.001512 -0.002647 0.000000 -0.004111 0.000000
# 2 -0.001512 0.014068 -0.002639 0.000000 0.000940 0.000000
# 3 -0.002647 -0.002639 0.011204 0.000000 0.001972 0.000000
# 4 0.000000 0.000000 0.000000 0.186402 0.000000 0.063142
# 5 -0.004111 0.000940 0.001972 0.000000 0.020686 0.000000
# 6 0.000000 0.000000 0.000000 0.063142 0.000000 0.047416
#
#
# Mechanical properties :
#
#
# Convention : Reuss Voigt Hill
#
# Bulk Modulus (GPa) = 58.04700 75.91472 66.98086
# Shear Modulus (GPa) = 16.41137 42.11972 29.26554
#
# Velocity S-wave (km/s) = 2.45480 3.93266 3.27810
# Velocity P-wave (km/s) = 5.41746 6.96391 6.23878
#
# Compressibility (1/GPa) = 0.01722742
#
# Stress axis : x y z
#
# Youngs Moduli (GPa) = 180.12901 71.08256 89.25506
#
# Poissons Ratio (x) = 0.10747 0.23630
# Poissons Ratio (y) = 0.27234 0.23552
# Poissons Ratio (z) = 0.47688 0.18757
#
# Static dielectric constant tensor:
#      x y z
#    x 2.399550 0.000000 0.079960 
#    y 0.000000 2.217040 0.000000 
#    z 0.079960 0.000000 2.076750 
# 
# From -- ./inp_files/133995.got.cif
#   From: 2010.05.17/outbox.cif.g08.bks.cpg/sg15_67_cif.got.tgz:133995.got - 2010.06.03 18:47:42.
