data_PCOD9257878
_publ_section_title
;
Structure prediction by ZEFSAII (Michael W. Deem and Ramdas Pophale) SiO2 
 PCOD9257878
Probable space group: C 2/C
;
_chemical_formula_sum "Si O2"
_cell_formula_units_Z 60
_cell_length_a 17.931182
_cell_length_b 15.057273
_cell_length_c 9.691425
_cell_angle_alpha 90.000000
_cell_angle_beta 106.623603
_cell_angle_gamma 90.000000
_cell_volume 2507.270704
_symmetry_space_group_name_H-M "C 2/C"
_symmetry_group_IT_number 15
_symmetry_cell_setting 'monoclinic'
loop_
_space_group_symop_operation_xyz
x,y,z
-x,y,1/2-z
-x,-y,-z
x,-y,1/2+z
1/2+x,1/2+y,z
1/2-x,1/2+y,1/2-z
1/2-x,1/2-y,-z
1/2+x,1/2-y,1/2+z
loop_
_atom_site_type_symbol
_atom_site_label
_atom_site_fract_x
_atom_site_fract_y
_atom_site_fract_z
Si Si1 0.529833 0.633774 0.456647
Si Si2 0.839202 0.707848 0.056300
Si Si3 0.864691 0.982020 0.070484
Si Si4 0.500000 0.297089 0.250000
Si Si5 0.718583 0.425683 0.209946
Si Si6 0.800142 0.409988 0.774904
Si Si7 0.362772 0.673459 0.356286
Si Si8 0.823669 0.247931 0.939467
O O1 0.559224 0.536984 0.427813
O O2 0.518617 0.649675 0.617387
O O3 0.447232 0.652974 0.343893
O O4 0.600173 0.701043 0.459484
O O5 0.823249 0.617397 0.131264
O O6 0.919652 0.743068 0.173975
O O7 0.750000 0.750000 0.000000
O O8 0.860888 0.725331 0.907581
O O9 0.845758 0.964034 0.218268
O O10 0.861581 0.887397 0.994741
O O11 0.799839 0.039599 0.954082
O O12 0.793086 0.484831 0.291405
O O13 0.705759 0.320683 0.196266
O O14 0.714157 0.364501 0.754478
O O15 0.847429 0.345680 0.900588
O O16 0.750000 0.250000 0.000000
#
# Coordination Sequence:
#
# PCOD9257878 Si02
#       8
#     8   8   8   4   8   8   8   8
#     4  10  20  33  55  87 119 163 202 250 309 390
#     4   9  17  30  53  79 118 155 210 263 314 375
#     4  10  20  35  53  84 127 163 192 248 316 391
#     4  10  18  32  54  90 122 166 222 256 320 396
#     4  10  22  37  59  90 123 161 214 254 311 385
#     4  10  18  35  53  83 115 156 201 254 308 368
#     4   9  19  32  50  82 114 154 197 247 308 382
#     4  11  22  39  60  85 120 167 206 256 314 379
#
# _framework density 23.930402999999998
#
# number of rings (size 3 to 8) (size 9 to 14) (size 15 to 20)
#    0.000    2.133    1.333    2.800    5.600    1.067 
#    0.000    5.333    0.000    0.000    3.467    2.800 
#    0.000    0.000    0.000    0.000    0.000    0.000 
#
# Total GULP energy -167041.835138 kJ/mol
# GULP energy per Si atom -5568.061171 kJ/mol
# Density = 2.387594 g / cm^3
# Si number density = 23.930403 Si / 1000 Ang^3
#
#
#
# Elastic Constant Matrix: (Units=GPa)
#
#
# Indices 1 2 3 4 5 6 
#
# 1 115.8234 32.1846 30.1345 0.0000 -1.5416 0.0000
# 2 32.1846 79.3243 18.3424 0.0000 -1.1870 0.0000
# 3 30.1345 18.3424 89.7062 0.0000 -2.7837 0.0000
# 4 0.0000 0.0000 0.0000 35.0206 0.0000 -1.6677
# 5 -1.5416 -1.1870 -2.7837 0.0000 46.8201 0.0000
# 6 0.0000 0.0000 0.0000 -1.6677 0.0000 43.2525
#
#
#
# Elastic Compliance Matrix: (Units=1/GPa)
#
#
# Indices 1 2 3 4 5 6 
#
# 1 0.010337 -0.003559 -0.002742 0.000000 0.000087 0.000000
# 2 -0.003559 0.014459 -0.001756 0.000000 0.000145 0.000000
# 3 -0.002742 -0.001756 0.012447 0.000000 0.000605 0.000000
# 4 0.000000 0.000000 0.000000 0.028607 0.000000 0.001103
# 5 0.000087 0.000145 0.000605 0.000000 0.021401 0.000000
# 6 0.000000 0.000000 0.000000 0.001103 0.000000 0.023163
#
#
# Mechanical properties :
#
#
# Convention : Reuss Voigt Hill
#
# Bulk Modulus (GPa) = 47.33095 49.57519 48.45307
# Shear Modulus (GPa) = 37.43336 38.63147 38.03242
#
# Velocity S-wave (km/s) = 3.95936 4.02223 3.99092
# Velocity P-wave (km/s) = 6.38150 6.50634 6.44422
#
# Compressibility (1/GPa) = 0.02112782
#
# Stress axis : x y z
#
# Youngs Moduli (GPa) = 96.73648 69.16238 80.34335
#
# Poissons Ratio (x) = 0.24614 0.22032
# Poissons Ratio (y) = 0.34427 0.14112
# Poissons Ratio (z) = 0.26527 0.12148
#
# Static dielectric constant tensor:
#      x y z
#    x 2.001050 0.000000 0.002450 
#    y 0.000000 2.023990 0.000000 
#    z 0.002450 0.000000 2.031560 
# 
# From -- ./inp_files/98309.got.cif
#   From: 2010.05.17/outbox.cif.g08.bks.cpg/sg15_50_cif.got.tgz:98309.got - 2010.06.03 18:47:42.
