data_PCOD9257037
_publ_section_title
;
Structure prediction by ZEFSAII (Michael W. Deem and Ramdas Pophale) SiO2 
 PCOD9257037
Probable space group: C 2/C
;
_chemical_formula_sum "Si O2"
_cell_formula_units_Z 56
_cell_length_a 19.573032
_cell_length_b 7.914859
_cell_length_c 13.767227
_cell_angle_alpha 90.000000
_cell_angle_beta 73.040904
_cell_angle_gamma 90.000000
_cell_volume 2040.040303
_symmetry_space_group_name_H-M "C 2/C"
_symmetry_group_IT_number 15
_symmetry_cell_setting 'monoclinic'
loop_
_space_group_symop_operation_xyz
x,y,z
-x,y,1/2-z
-x,-y,-z
x,-y,1/2+z
1/2+x,1/2+y,z
1/2-x,1/2+y,1/2-z
1/2-x,1/2-y,-z
1/2+x,1/2-y,1/2+z
loop_
_atom_site_type_symbol
_atom_site_label
_atom_site_fract_x
_atom_site_fract_y
_atom_site_fract_z
Si Si1 0.913735 0.454623 0.275050
Si Si2 0.823770 0.673292 0.643041
Si Si3 0.437822 0.766369 0.538666
Si Si4 0.279595 0.513268 0.958854
Si Si5 0.566594 0.582929 0.154900
Si Si6 0.421586 0.856143 0.950081
Si Si7 0.221184 0.194843 0.862223
O O1 0.870911 0.456935 0.191765
O O2 0.902813 0.258245 0.310995
O O3 0.887578 0.596316 0.361199
O O4 0.000000 0.467383 0.250000
O O5 0.774727 0.638240 0.569013
O O6 0.887881 0.751079 0.552933
O O7 0.764713 0.719326 0.746340
O O8 0.457973 0.642850 0.441414
O O9 0.499617 0.780908 0.591709
O O10 0.363438 0.706772 0.613046
O O11 0.428765 0.951153 0.491079
O O12 0.362518 0.529442 0.892076
O O13 0.249297 0.345089 0.917858
O O14 0.269663 0.474273 0.077004
O O15 0.500000 0.529023 0.250000
#
# Coordination Sequence:
#
# PCOD9257037 Si02
#       7
#     8   8   8   8   8   8   8
#     4  10  19  29  48  83 115 139 174 228 283 333
#     4  12  20  31  54  85 112 147 187 228 280 328
#     4   9  17  30  50  77 115 142 169 229 282 326
#     4  10  20  34  54  81 113 146 187 233 274 331
#     4   9  16  30  52  81 105 135 184 229 268 322
#     4  10  18  30  51  84 111 141 183 223 276 339
#     4  10  20  35  53  81 115 147 187 230 280 330
#
# _framework density 27.450438999999999
#
# number of rings (size 3 to 8) (size 9 to 14) (size 15 to 20)
#    0.000    2.000    2.857    4.286    0.000    0.000 
#    0.000    0.000    0.000    6.857    3.714    0.000 
#    0.000    0.000    0.000    0.000    0.000    0.000 
#
# Total GULP energy -156240.668662 kJ/mol
# GULP energy per Si atom -5580.023881 kJ/mol
# Density = 2.738796 g / cm^3
# Si number density = 27.450439 Si / 1000 Ang^3
#
#
#
# Elastic Constant Matrix: (Units=GPa)
#
#
# Indices 1 2 3 4 5 6 
#
# 1 177.8279 7.9978 60.4987 0.0000 -14.0806 0.0000
# 2 7.9978 54.6318 16.2949 0.0000 5.5893 0.0000
# 3 60.4987 16.2949 156.4656 0.0000 -5.5348 0.0000
# 4 0.0000 0.0000 0.0000 28.4299 0.0000 10.9884
# 5 -14.0806 5.5893 -5.5348 0.0000 53.4711 0.0000
# 6 0.0000 0.0000 0.0000 10.9884 0.0000 -4.6307
#
#
#
# Elastic Compliance Matrix: (Units=1/GPa)
#
#
# Indices 1 2 3 4 5 6 
#
# 1 0.006597 -0.000389 -0.002456 0.000000 0.001524 0.000000
# 2 -0.000389 0.019172 -0.001928 0.000000 -0.002306 0.000000
# 3 -0.002456 -0.001928 0.007554 0.000000 0.000337 0.000000
# 4 0.000000 0.000000 0.000000 0.018347 0.000000 0.043537
# 5 0.001524 -0.002306 0.000337 0.000000 0.019379 0.000000
# 6 0.000000 0.000000 0.000000 0.043537 0.000000 -0.112641
#
#
# Mechanical properties :
#
#
# Convention : Reuss Voigt Hill
#
# Bulk Modulus (GPa) = 42.05820 62.05646 52.05733
# Shear Modulus (GPa) = -207.29775 35.72966 -85.78404
#
# Velocity S-wave (km/s) = -8.69949 3.61169 -5.59628
# Velocity P-wave (km/s) = 9.24950 6.32837 4.76996
#
# Compressibility (1/GPa) = 0.02377658
#
# Stress axis : x y z
#
# Youngs Moduli (GPa) = 151.57774 52.15870 132.38583
#
# Poissons Ratio (x) = 0.02029 0.32520
# Poissons Ratio (y) = 0.05896 0.25522
# Poissons Ratio (z) = 0.37235 0.10055
#
# Static dielectric constant tensor:
#      x y z
#    x 2.200000 0.000000 -0.003600 
#    y 0.000000 2.517170 0.000000 
#    z -0.003600 0.000000 2.287330 
# 
# From -- ./inp_files/160851.got.cif
#   From: 2010.05.17/outbox.cif.g08.bks.cpg/sg15_81_cif.got.tgz:160851.got - 2010.06.03 18:47:42.
