data_PCOD9257797
_publ_section_title
;
Structure prediction by ZEFSAII (Michael W. Deem and Ramdas Pophale) SiO2 
 PCOD9257797
Probable space group: C 2/C
;
_chemical_formula_sum "Si O2"
_cell_formula_units_Z 20
_cell_length_a 9.696890
_cell_length_b 10.146113
_cell_length_c 9.736782
_cell_angle_alpha 90.000000
_cell_angle_beta 127.576301
_cell_angle_gamma 90.000000
_cell_volume 759.223895
_symmetry_space_group_name_H-M "C 2/C"
_symmetry_group_IT_number 15
_symmetry_cell_setting 'monoclinic'
loop_
_space_group_symop_operation_xyz
x,y,z
-x,y,1/2-z
-x,-y,-z
x,-y,1/2+z
1/2+x,1/2+y,z
1/2-x,1/2+y,1/2-z
1/2-x,1/2-y,-z
1/2+x,1/2-y,1/2+z
loop_
_atom_site_type_symbol
_atom_site_label
_atom_site_fract_x
_atom_site_fract_y
_atom_site_fract_z
Si Si1 0.000000 0.151310 0.250000
Si Si2 0.022056 0.763316 0.064226
Si Si3 0.743533 0.414234 0.407968
O O1 0.959657 0.226562 0.086371
O O2 0.168468 0.056824 0.329652
O O3 0.943211 0.620960 0.055538
O O4 0.873108 0.863449 0.034535
O O5 0.186193 0.819268 0.246219
#
# Coordination Sequence:
#
# PCOD9257797 Si02
#       3
#     4   8   8
#     4  10  18  32  54  74  96 130 164 200 242 286
#     4   9  18  31  52  74  98 129 164 199 242 289
#     4   9  17  33  51  72 100 131 160 199 245 289
#
# _framework density 26.342690999999999
#
# number of rings (size 3 to 8) (size 9 to 14) (size 15 to 20)
#    0.000    3.200    0.000    4.800    0.000    1.600 
#    0.000    2.000    0.000   16.800    0.000    2.800 
#    0.000    0.000    0.000    0.000    0.000    0.000 
#
# Total GULP energy -55899.398645 kJ/mol
# GULP energy per Si atom -5589.939864 kJ/mol
# Density = 2.628273 g / cm^3
# Si number density = 26.342691 Si / 1000 Ang^3
#
#
#
# Elastic Constant Matrix: (Units=GPa)
#
#
# Indices 1 2 3 4 5 6 
#
# 1 74.2015 16.4141 48.7815 0.0000 4.1878 0.0000
# 2 16.4141 53.8110 16.3337 0.0000 10.5140 0.0000
# 3 48.7815 16.3337 152.1705 0.0000 -43.0649 0.0000
# 4 0.0000 0.0000 0.0000 38.2198 0.0000 -0.9077
# 5 4.1878 10.5140 -43.0649 0.0000 51.2569 0.0000
# 6 0.0000 0.0000 0.0000 -0.9077 0.0000 24.6248
#
#
#
# Elastic Compliance Matrix: (Units=1/GPa)
#
#
# Indices 1 2 3 4 5 6 
#
# 1 0.020043 -0.001825 -0.008641 0.000000 -0.008523 0.000000
# 2 -0.001825 0.021814 -0.003910 0.000000 -0.007611 0.000000
# 3 -0.008641 -0.003910 0.013366 0.000000 0.012738 0.000000
# 4 0.000000 0.000000 0.000000 0.026187 0.000000 0.000965
# 5 -0.008523 -0.007611 0.012738 0.000000 0.032470 0.000000
# 6 0.000000 0.000000 0.000000 0.000965 0.000000 0.040645
#
#
# Mechanical properties :
#
#
# Convention : Reuss Voigt Hill
#
# Bulk Modulus (GPa) = 37.77917 49.24906 43.51411
# Shear Modulus (GPa) = 26.02782 36.06388 31.04585
#
# Velocity S-wave (km/s) = 3.14673 3.70405 3.43671
# Velocity P-wave (km/s) = 5.25120 6.08518 5.68351
#
# Compressibility (1/GPa) = 0.02646962
#
# Stress axis : x y z
#
# Youngs Moduli (GPa) = 49.89380 45.84146 74.81429
#
# Poissons Ratio (x) = 0.08367 0.64649
# Poissons Ratio (y) = 0.09107 0.29254
# Poissons Ratio (z) = 0.43115 0.17925
#
# Static dielectric constant tensor:
#      x y z
#    x 2.123700 0.000000 0.084070 
#    y 0.000000 2.079410 0.000000 
#    z 0.084070 0.000000 2.056120 
# 
# From -- ./inp_files/20674.got.cif
#   From: 2010.05.17/outbox.cif.g08.bks.cpg/sg15_11_cif.got.tgz:20674.got - 2010.06.03 18:47:42.
