data_PCOD9257043
_publ_section_title
;
Structure prediction by ZEFSAII (Michael W. Deem and Ramdas Pophale) SiO2 
 PCOD9257043
Probable space group: C 2/C
;
_chemical_formula_sum "Si O2"
_cell_formula_units_Z 40
_cell_length_a 19.799546
_cell_length_b 19.647385
_cell_length_c 5.538550
_cell_angle_alpha 90.000000
_cell_angle_beta 119.714803
_cell_angle_gamma 90.000000
_cell_volume 1871.231977
_symmetry_space_group_name_H-M "C 2/C"
_symmetry_group_IT_number 15
_symmetry_cell_setting 'monoclinic'
loop_
_space_group_symop_operation_xyz
x,y,z
-x,y,1/2-z
-x,-y,-z
x,-y,1/2+z
1/2+x,1/2+y,z
1/2-x,1/2+y,1/2-z
1/2-x,1/2-y,-z
1/2+x,1/2-y,1/2+z
loop_
_atom_site_type_symbol
_atom_site_label
_atom_site_fract_x
_atom_site_fract_y
_atom_site_fract_z
Si Si1 0.338147 0.965584 0.674029
Si Si2 0.000000 0.782814 0.750000
Si Si3 0.134212 0.786353 0.292715
Si Si4 0.400014 0.821425 0.384458
Si Si5 0.722630 0.828076 0.707512
Si Si6 0.500000 0.059065 0.250000
O O1 0.313743 0.888124 0.690947
O O2 0.432182 0.970599 0.806049
O O3 0.310742 0.993385 0.364480
O O4 0.939016 0.820992 0.467618
O O5 0.943708 0.731506 0.790596
O O6 0.101309 0.720379 0.371596
O O7 0.185601 0.828288 0.574971
O O8 0.195118 0.749371 0.220935
O O9 0.448588 0.889540 0.494303
O O10 0.316026 0.838543 0.122104
#
# Coordination Sequence:
#
# PCOD9257043 Si02
#       6
#     8   4   8   8   8   4
#     4  12  26  42  58  84 122 168 215 244 283 347
#     4  10  18  30  51  88 120 145 180 238 306 376
#     4  10  19  35  57  84 116 149 194 246 314 355
#     4  11  18  34  55  82 121 151 190 245 296 359
#     4  10  22  36  55  82 112 158 202 246 298 352
#     4  12  20  38  59  82 120 161 204 244 282 348
#
# _framework density 21.376290999999998
#
# number of rings (size 3 to 8) (size 9 to 14) (size 15 to 20)
#    0.000    1.200    4.000    3.600    0.000    1.600 
#    0.000    0.000    0.000    0.000    0.000    1.400 
#    0.000    0.000    0.000    0.000    0.000    0.000 
#
# Total GULP energy -111444.200149 kJ/mol
# GULP energy per Si atom -5572.210007 kJ/mol
# Density = 2.132764 g / cm^3
# Si number density = 21.376291 Si / 1000 Ang^3
#
#
#
# Elastic Constant Matrix: (Units=GPa)
#
#
# Indices 1 2 3 4 5 6 
#
# 1 45.8033 13.2704 22.4724 0.0000 2.2855 0.0000
# 2 13.2704 36.8028 2.9733 0.0000 2.7084 0.0000
# 3 22.4724 2.9733 163.3609 0.0000 35.9025 0.0000
# 4 0.0000 0.0000 0.0000 20.8094 0.0000 -9.2168
# 5 2.2855 2.7084 35.9025 0.0000 45.9907 0.0000
# 6 0.0000 0.0000 0.0000 -9.2168 0.0000 57.7560
#
#
#
# Elastic Compliance Matrix: (Units=1/GPa)
#
#
# Indices 1 2 3 4 5 6 
#
# 1 0.026377 -0.009363 -0.003973 0.000000 0.002342 0.000000
# 2 -0.009363 0.030617 0.001237 0.000000 -0.002303 0.000000
# 3 -0.003973 0.001237 0.007989 0.000000 -0.006112 0.000000
# 4 0.000000 0.000000 0.000000 0.051710 0.000000 0.008252
# 5 0.002342 -0.002303 -0.006112 0.000000 0.026534 0.000000
# 6 0.000000 0.000000 0.000000 0.008252 0.000000 0.018631
#
#
# Mechanical properties :
#
#
# Convention : Reuss Voigt Hill
#
# Bulk Modulus (GPa) = 24.51797 35.93323 30.22560
# Shear Modulus (GPa) = 25.04371 38.72794 31.88583
#
# Velocity S-wave (km/s) = 3.42653 4.26105 3.86637
# Velocity P-wave (km/s) = 5.21051 6.40743 5.83971
#
# Compressibility (1/GPa) = 0.04078640
#
# Stress axis : x y z
#
# Youngs Moduli (GPa) = 37.91131 32.66124 125.17824
#
# Poissons Ratio (x) = 0.30579 0.49731
# Poissons Ratio (y) = 0.35495 -0.15483
# Poissons Ratio (z) = 0.15061 -0.04040
#
# Static dielectric constant tensor:
#      x y z
#    x 1.872640 0.000000 -0.057240 
#    y 0.000000 1.762660 0.000000 
#    z -0.057240 0.000000 1.960510 
# 
# From -- ./inp_files/7363.got.cif
#   From: 2010.05.17/outbox.cif.g08.bks.cpg/sg15_4_cif.got.tgz:7363.got - 2010.06.03 18:47:42.
