data_PCOD9257972
_publ_section_title
;
Structure prediction by ZEFSAII (Michael W. Deem and Ramdas Pophale) SiO2 
 PCOD9257972
Probable space group: C 2/C
;
_chemical_formula_sum "Si O2"
_cell_formula_units_Z 60
_cell_length_a 8.837991
_cell_length_b 19.948566
_cell_length_c 21.425579
_cell_angle_alpha 90.000000
_cell_angle_beta 134.778022
_cell_angle_gamma 90.000000
_cell_volume 2681.383103
_symmetry_space_group_name_H-M "C 2/C"
_symmetry_group_IT_number 15
_symmetry_cell_setting 'monoclinic'
loop_
_space_group_symop_operation_xyz
x,y,z
-x,y,1/2-z
-x,-y,-z
x,-y,1/2+z
1/2+x,1/2+y,z
1/2-x,1/2+y,1/2-z
1/2-x,1/2-y,-z
1/2+x,1/2-y,1/2+z
loop_
_atom_site_type_symbol
_atom_site_label
_atom_site_fract_x
_atom_site_fract_y
_atom_site_fract_z
Si Si1 0.770809 0.813523 0.650625
Si Si2 0.443743 0.898802 0.388698
Si Si3 0.000000 0.044502 0.750000
Si Si4 0.503640 0.687497 0.554254
Si Si5 0.186712 0.439891 0.350214
Si Si6 0.879056 0.602070 0.015859
Si Si7 0.160302 0.167552 0.471810
Si Si8 0.055518 0.984661 0.903592
O O1 0.627971 0.747845 0.623960
O O2 0.607220 0.876868 0.612027
O O3 0.823050 0.803695 0.592387
O O4 0.000000 0.819871 0.750000
O O5 0.565769 0.950557 0.379695
O O6 0.437532 0.909489 0.460584
O O7 0.598827 0.834575 0.429072
O O8 0.200970 0.906539 0.297203
O O9 0.041813 0.000645 0.824916
O O10 0.649978 0.621448 0.601322
O O11 0.277555 0.665799 0.517681
O O12 0.500981 0.696446 0.477733
O O13 0.323924 0.500716 0.365038
O O14 0.000000 0.420610 0.250000
O O15 0.724932 0.538173 0.981197
O O16 0.106395 0.090138 0.439689
#
# Coordination Sequence:
#
# PCOD9257972 Si02
#       8
#     8   8   4   8   8   8   8   8
#     4  11  23  42  64  91 122 165 215 262 313 370
#     4   9  19  34  56  86 122 158 200 243 309 373
#     4  10  18  32  56  86 124 156 198 256 296 372
#     4  10  21  40  66  86 122 165 216 257 313 374
#     4  10  18  34  60  94 124 160 205 261 310 360
#     4   9  21  39  64  92 122 164 206 257 319 377
#     4  10  23  41  61  89 125 169 206 255 322 385
#     4  10  21  37  60  93 126 164 207 252 321 378
#
# _framework density 22.376511000000001
#
# number of rings (size 3 to 8) (size 9 to 14) (size 15 to 20)
#    0.000    2.133    1.333    1.200    0.933    9.600 
#    0.000    2.000    0.000    0.000    0.000    0.000 
#    0.000    0.000    0.000    0.000    0.000    0.000 
#
# Total GULP energy -167074.788387 kJ/mol
# GULP energy per Si atom -5569.159613 kJ/mol
# Density = 2.232558 g / cm^3
# Si number density = 22.376511 Si / 1000 Ang^3
#
#
#
# Elastic Constant Matrix: (Units=GPa)
#
#
# Indices 1 2 3 4 5 6 
#
# 1 125.9386 6.9558 45.1033 0.0001 18.0480 0.0001
# 2 6.9558 58.2557 29.0619 0.0000 2.5073 0.0000
# 3 45.1033 29.0619 129.9820 -0.0003 13.9479 -0.0001
# 4 0.0001 0.0000 -0.0003 15.1225 0.0000 -0.2191
# 5 18.0480 2.5073 13.9479 0.0000 31.3195 0.0000
# 6 0.0001 0.0000 -0.0001 -0.2191 0.0000 18.5232
#
#
#
# Elastic Compliance Matrix: (Units=1/GPa)
#
#
# Indices 1 2 3 4 5 6 
#
# 1 0.009590 0.000530 -0.002991 0.000000 -0.004236 0.000000
# 2 0.000530 0.019355 -0.004529 0.000000 0.000162 0.000000
# 3 -0.002991 -0.004529 0.009998 0.000000 -0.002366 0.000000
# 4 0.000000 0.000000 0.000000 0.066138 0.000000 0.000782
# 5 -0.004236 0.000162 -0.002366 0.000000 0.035411 0.000000
# 6 0.000000 0.000000 0.000000 0.000782 0.000000 0.053996
#
#
# Mechanical properties :
#
#
# Convention : Reuss Voigt Hill
#
# Bulk Modulus (GPa) = 40.06196 52.93538 46.49867
# Shear Modulus (GPa) = 23.06409 28.53007 25.79708
#
# Velocity S-wave (km/s) = 3.21398 3.57459 3.39907
# Velocity P-wave (km/s) = 5.63164 6.38318 6.01915
#
# Compressibility (1/GPa) = 0.02496133
#
# Stress axis : x y z
#
# Youngs Moduli (GPa) = 104.28041 51.66719 100.02219
#
# Poissons Ratio (x) = -0.02736 0.29920
# Poissons Ratio (y) = -0.05523 0.45296
# Poissons Ratio (z) = 0.31194 0.23398
#
# Static dielectric constant tensor:
#      x y z
#    x 1.870650 0.000000 -0.008090 
#    y 0.000000 1.943800 0.000000 
#    z -0.008090 0.000000 1.864750 
# 
# From -- ./inp_files/266255.got.cif
#   From: 2010.05.17/outbox.cif.g08.bks.cpg/sg15_134_cif.got.tgz:266255.got - 2010.06.03 18:47:42.
