data_PCOD9257903
_publ_section_title
;
Structure prediction by ZEFSAII (Michael W. Deem and Ramdas Pophale) SiO2 
 PCOD9257903
Probable space group: C 2/C
;
_chemical_formula_sum "Si O2"
_cell_formula_units_Z 52
_cell_length_a 17.515366
_cell_length_b 22.871440
_cell_length_c 10.563633
_cell_angle_alpha 90.000000
_cell_angle_beta 41.584379
_cell_angle_gamma 90.000000
_cell_volume 2808.745866
_symmetry_space_group_name_H-M "C 2/C"
_symmetry_group_IT_number 15
_symmetry_cell_setting 'monoclinic'
loop_
_space_group_symop_operation_xyz
x,y,z
-x,y,1/2-z
-x,-y,-z
x,-y,1/2+z
1/2+x,1/2+y,z
1/2-x,1/2+y,1/2-z
1/2-x,1/2-y,-z
1/2+x,1/2-y,1/2+z
loop_
_atom_site_type_symbol
_atom_site_label
_atom_site_fract_x
_atom_site_fract_y
_atom_site_fract_z
Si Si1 0.130263 0.051912 0.439521
Si Si2 0.284237 0.158397 0.159102
Si Si3 0.233446 0.332054 0.398930
Si Si4 0.902037 0.267959 0.736430
Si Si5 0.500000 0.169185 0.750000
Si Si6 0.639803 0.548478 0.720300
Si Si7 0.869493 0.262831 0.191194
O O1 0.207604 0.107938 0.313424
O O2 0.152802 0.031271 0.556080
O O3 0.994416 0.067052 0.598976
O O4 0.156121 0.003185 0.301280
O O5 0.341707 0.198342 0.195388
O O6 0.202055 0.204646 0.188479
O O7 0.394054 0.135011 0.944930
O O8 0.123289 0.312964 0.618529
O O9 0.332801 0.292165 0.339189
O O10 0.274421 0.398174 0.357118
O O11 0.209902 0.309745 0.285240
O O12 0.028919 0.249848 0.535791
O O13 0.565572 0.209482 0.770702
#
# Coordination Sequence:
#
# PCOD9257903 Si02
#       7
#     8   8   8   8   4   8   8
#     4  10  21  38  59  84 116 153 193 246 287 341
#     4  10  19  36  57  78 113 155 188 237 284 343
#     4  10  18  32  55  84 113 144 183 238 285 341
#     4   9  18  31  53  87 112 139 183 234 290 339
#     4  10  22  36  52  80 122 152 192 226 288 358
#     4  10  21  37  59  87 116 150 197 240 294 344
#     4  10  20  33  54  83 115 149 184 230 290 345
#
# _framework density 18.513601000000001
#
# number of rings (size 3 to 8) (size 9 to 14) (size 15 to 20)
#    0.000    2.154    1.538    1.846    0.000    1.231 
#    0.000    3.077    3.385    2.769    0.000    0.000 
#    0.000    0.000    0.000    0.000    0.000    0.000 
#
# Total GULP energy -144832.000131 kJ/mol
# GULP energy per Si atom -5570.461544 kJ/mol
# Density = 1.847146 g / cm^3
# Si number density = 18.513601 Si / 1000 Ang^3
#
#
#
# Elastic Constant Matrix: (Units=GPa)
#
#
# Indices 1 2 3 4 5 6 
#
# 1 84.1202 26.7429 21.0041 0.0001 5.1499 -0.0001
# 2 26.7429 54.2731 28.2142 0.0000 -3.6976 0.0000
# 3 21.0041 28.2142 91.8458 0.0000 -4.0040 -0.0001
# 4 0.0001 0.0000 0.0000 26.8001 0.0000 0.1925
# 5 5.1499 -3.6976 -4.0040 0.0000 24.4300 0.0001
# 6 -0.0001 0.0000 -0.0001 0.1925 0.0001 12.8819
#
#
#
# Elastic Compliance Matrix: (Units=1/GPa)
#
#
# Indices 1 2 3 4 5 6 
#
# 1 0.014671 -0.006763 -0.001467 0.000000 -0.004357 0.000000
# 2 -0.006763 0.025166 -0.005999 0.000000 0.004251 0.000000
# 3 -0.001467 -0.005999 0.013134 0.000000 0.001554 0.000000
# 4 0.000000 0.000000 0.000000 0.037317 0.000000 -0.000558
# 5 -0.004357 0.004251 0.001554 0.000000 0.042750 0.000000
# 6 0.000000 0.000000 0.000000 -0.000558 0.000000 0.077637
#
#
# Mechanical properties :
#
#
# Convention : Reuss Voigt Hill
#
# Bulk Modulus (GPa) = 40.79587 42.46237 41.62912
# Shear Modulus (GPa) = 20.21803 23.10760 21.66281
#
# Velocity S-wave (km/s) = 3.30822 3.53674 3.42439
# Velocity P-wave (km/s) = 6.05606 6.29790 6.17817
#
# Compressibility (1/GPa) = 0.02451229
#
# Stress axis : x y z
#
# Youngs Moduli (GPa) = 68.16203 39.73622 76.13872
#
# Poissons Ratio (x) = 0.26874 0.11173
# Poissons Ratio (y) = 0.46098 0.45674
# Poissons Ratio (z) = 0.10003 0.23837
#
# Static dielectric constant tensor:
#      x y z
#    x 1.701000 0.000000 0.010560 
#    y 0.000000 1.588300 0.000000 
#    z 0.010560 0.000000 1.704810 
# 
# From -- ./inp_files/107459.got.cif
#   From: 2010.05.17/outbox.cif.g08.bks.cpg/sg15_54_cif.got.tgz:107459.got - 2010.06.03 18:47:42.
