data_PCOD9257975
_publ_section_title
;
Structure prediction by ZEFSAII (Michael W. Deem and Ramdas Pophale) SiO2 
 PCOD9257975
Probable space group: C 2/C
;
_chemical_formula_sum "Si O2"
_cell_formula_units_Z 52
_cell_length_a 15.956188
_cell_length_b 9.824976
_cell_length_c 24.421454
_cell_angle_alpha 90.000000
_cell_angle_beta 37.692925
_cell_angle_gamma 90.000000
_cell_volume 2340.876116
_symmetry_space_group_name_H-M "C 2/C"
_symmetry_group_IT_number 15
_symmetry_cell_setting 'monoclinic'
loop_
_space_group_symop_operation_xyz
x,y,z
-x,y,1/2-z
-x,-y,-z
x,-y,1/2+z
1/2+x,1/2+y,z
1/2-x,1/2+y,1/2-z
1/2-x,1/2-y,-z
1/2+x,1/2-y,1/2+z
loop_
_atom_site_type_symbol
_atom_site_label
_atom_site_fract_x
_atom_site_fract_y
_atom_site_fract_z
Si Si1 0.785649 0.642203 0.647684
Si Si2 0.458986 0.391284 0.567922
Si Si3 0.172865 0.141998 0.825062
Si Si4 0.500000 0.761864 0.750000
Si Si5 0.436498 0.594606 0.369672
Si Si6 0.405961 0.723602 0.904572
Si Si7 0.214795 0.853279 0.656113
O O1 0.900127 0.752742 0.573933
O O2 0.765866 0.657252 0.723296
O O3 0.639014 0.685079 0.697443
O O4 0.807387 0.486843 0.618754
O O5 0.500000 0.500000 0.500000
O O6 0.340986 0.481010 0.658644
O O7 0.558387 0.366571 0.568784
O O8 0.224780 0.215373 0.851950
O O9 0.026737 0.213320 0.886410
O O10 0.451120 0.825765 0.832465
O O11 0.411874 0.432525 0.380402
O O12 0.325693 0.658155 0.386245
O O13 0.580151 0.621028 0.263929
O O14 0.250000 0.750000 0.000000
#
# Coordination Sequence:
#
# PCOD9257975 Si02
#       7
#     8   8   8   4   8   8   8
#     4  11  18  37  63  91 120 161 209 261 303 370
#     4  11  24  39  60  92 131 161 197 259 335 369
#     4  10  21  38  59  94 122 161 211 255 315 379
#     4  10  18  32  56  88 112 154 204 248 300 356
#     4  10  19  36  60  90 119 171 207 248 313 383
#     4  10  19  34  58  87 120 154 210 258 299 367
#     4  11  18  37  68  89 117 163 227 252 294 381
#
# _framework density 22.213906000000001
#
# number of rings (size 3 to 8) (size 9 to 14) (size 15 to 20)
#    0.000    1.538    7.692    0.000    4.308    0.000 
#    0.000    5.385    3.385    0.000    0.000    0.000 
#    0.000    0.000    0.000    0.000    0.000    0.000 
#
# Total GULP energy -144903.356993 kJ/mol
# GULP energy per Si atom -5573.206038 kJ/mol
# Density = 2.216335 g / cm^3
# Si number density = 22.213906 Si / 1000 Ang^3
#
#
#
# Elastic Constant Matrix: (Units=GPa)
#
#
# Indices 1 2 3 4 5 6 
#
# 1 137.2336 27.3707 0.4802 0.0000 20.2758 0.0000
# 2 27.3707 61.0235 -3.3531 0.0000 -7.1896 0.0000
# 3 0.4802 -3.3531 59.4826 0.0000 10.5354 0.0000
# 4 0.0000 0.0000 0.0000 22.1511 0.0000 -1.6688
# 5 20.2758 -7.1896 10.5354 0.0000 21.3052 0.0000
# 6 0.0000 0.0000 0.0000 -1.6688 0.0000 26.6140
#
#
#
# Elastic Compliance Matrix: (Units=1/GPa)
#
#
# Indices 1 2 3 4 5 6 
#
# 1 0.010391 -0.006073 0.001850 0.000000 -0.012853 0.000000
# 2 -0.006073 0.020615 -0.001145 0.000000 0.013303 0.000000
# 3 0.001850 -0.001145 0.018755 0.000000 -0.011422 0.000000
# 4 0.000000 0.000000 0.000000 0.045359 0.000000 0.002844
# 5 -0.012853 0.013303 -0.011422 0.000000 0.069306 0.000000
# 6 0.000000 0.000000 0.000000 0.002844 0.000000 0.037753
#
#
# Mechanical properties :
#
#
# Convention : Reuss Voigt Hill
#
# Bulk Modulus (GPa) = 25.62430 34.08173 29.85302
# Shear Modulus (GPa) = 22.13143 29.56351 25.84747
#
# Velocity S-wave (km/s) = 3.15983 3.65205 3.41482
# Velocity P-wave (km/s) = 4.98728 5.75839 5.38665
#
# Compressibility (1/GPa) = 0.03902545
#
# Stress axis : x y z
#
# Youngs Moduli (GPa) = 96.24067 48.50726 53.31875
#
# Poissons Ratio (x) = 0.29459 -0.09865
# Poissons Ratio (y) = 0.58448 0.06105
# Poissons Ratio (z) = -0.17807 0.05554
#
# Static dielectric constant tensor:
#      x y z
#    x 1.887860 0.000000 0.039130 
#    y 0.000000 1.792680 0.000000 
#    z 0.039130 0.000000 1.935720 
# 
# From -- ./inp_files/295743.got.cif
#   From: 2010.05.17/outbox.cif.g08.bks.cpg/sg15_148_cif.got.tgz:295743.got - 2010.06.03 18:47:42.
