data_PCOD9257051
_publ_section_title
;
Structure prediction by ZEFSAII (Michael W. Deem and Ramdas Pophale) SiO2 
 PCOD9257051
Probable space group: C 2/C
;
_chemical_formula_sum "Si O2"
_cell_formula_units_Z 56
_cell_length_a 5.377011
_cell_length_b 29.832033
_cell_length_c 14.059820
_cell_angle_alpha 90.000000
_cell_angle_beta 112.263213
_cell_angle_gamma 90.000000
_cell_volume 2087.170744
_symmetry_space_group_name_H-M "C 2/C"
_symmetry_group_IT_number 15
_symmetry_cell_setting 'monoclinic'
loop_
_space_group_symop_operation_xyz
x,y,z
-x,y,1/2-z
-x,-y,-z
x,-y,1/2+z
1/2+x,1/2+y,z
1/2-x,1/2+y,1/2-z
1/2-x,1/2-y,-z
1/2+x,1/2-y,1/2+z
loop_
_atom_site_type_symbol
_atom_site_label
_atom_site_fract_x
_atom_site_fract_y
_atom_site_fract_z
Si Si1 0.569849 0.934357 0.872760
Si Si2 0.930144 0.025788 0.128692
Si Si3 0.227833 0.165167 0.611420
Si Si4 0.008217 0.799831 0.622377
Si Si5 0.320204 0.430324 0.317393
Si Si6 0.766009 0.298756 0.378481
Si Si7 0.491887 0.166185 0.111162
O O1 0.500000 0.937810 0.750000
O O2 0.889934 0.942510 0.912674
O O3 0.472990 0.886420 0.898303
O O4 0.390819 0.968087 0.910640
O O5 0.000000 0.035595 0.250000
O O6 0.050158 0.976512 0.127016
O O7 0.146096 0.185455 0.497287
O O8 0.150783 0.113772 0.614400
O O9 0.550173 0.168079 0.656995
O O10 0.053449 0.194665 0.660527
O O11 0.769239 0.807096 0.661864
O O12 0.125495 0.750190 0.631091
O O13 0.266484 0.831501 0.659562
O O14 0.500000 0.420757 0.250000
O O15 0.000000 0.437248 0.250000
O O16 0.849717 0.310734 0.499556
#
# Coordination Sequence:
#
# PCOD9257051 Si02
#       7
#     8   8   8   8   8   8   8
#     4  10  19  32  52  76 102 132 168 211 256 300
#     4   9  18  33  51  71  98 135 174 203 241 306
#     4  10  19  32  54  79 102 128 174 219 251 294
#     4  10  19  34  56  76  99 138 179 212 245 299
#     4  11  21  35  55  79 105 134 169 211 259 307
#     4  10  19  34  56  76  99 138 179 212 245 299
#     4  10  18  30  52  78 102 128 174 219 251 293
#
# _framework density 26.830579
#
# number of rings (size 3 to 8) (size 9 to 14) (size 15 to 20)
#    0.000    2.000    0.000    8.143    0.000    0.000 
#    0.000    0.000    0.000   35.143    0.000    0.000 
#    0.000    0.000    0.000    0.000    0.000    0.000 
#
# Total GULP energy -156604.073484 kJ/mol
# GULP energy per Si atom -5593.002624 kJ/mol
# Density = 2.676951 g / cm^3
# Si number density = 26.830579 Si / 1000 Ang^3
#
#
#
# Elastic Constant Matrix: (Units=GPa)
#
#
# Indices 1 2 3 4 5 6 
#
# 1 205.4234 43.9039 32.9199 0.0000 -13.9337 0.0000
# 2 43.9039 154.2806 4.5134 0.0000 -5.5403 0.0000
# 3 32.9199 4.5134 63.5044 0.0000 3.9356 0.0000
# 4 0.0000 0.0000 0.0000 53.9997 0.0000 -13.2346
# 5 -13.9337 -5.5403 3.9356 0.0000 21.4517 0.0000
# 6 0.0000 0.0000 0.0000 -13.2346 0.0000 56.7226
#
#
#
# Elastic Compliance Matrix: (Units=1/GPa)
#
#
# Indices 1 2 3 4 5 6 
#
# 1 0.005979 -0.001459 -0.003250 0.000000 0.004103 0.000000
# 2 -0.001459 0.006919 0.000215 0.000000 0.000800 0.000000
# 3 -0.003250 0.000215 0.017746 0.000000 -0.005311 0.000000
# 4 0.000000 0.000000 0.000000 0.019642 0.000000 0.004583
# 5 0.004103 0.000800 -0.005311 0.000000 0.050463 0.000000
# 6 0.000000 0.000000 0.000000 0.004583 0.000000 0.018699
#
#
# Mechanical properties :
#
#
# Convention : Reuss Voigt Hill
#
# Bulk Modulus (GPa) = 46.17699 65.09807 55.63753
# Shear Modulus (GPa) = 36.85853 49.22620 43.04236
#
# Velocity S-wave (km/s) = 3.71044 4.28799 4.00963
# Velocity P-wave (km/s) = 5.96694 6.98793 6.49752
#
# Compressibility (1/GPa) = 0.02165581
#
# Stress axis : x y z
#
# Youngs Moduli (GPa) = 167.25334 144.52267 56.35208
#
# Poissons Ratio (x) = 0.21086 0.18314
# Poissons Ratio (y) = 0.24403 -0.01212
# Poissons Ratio (z) = 0.54357 -0.03107
#
# Static dielectric constant tensor:
#      x y z
#    x 2.147400 0.000000 -0.008020 
#    y 0.000000 2.028450 0.000000 
#    z -0.008020 0.000000 1.059050 
# 
# From -- ./inp_files/227936.got.cif
#   From: 2010.05.17/outbox.cif.g08.bks.cpg/sg15_114_cif.got.tgz:227936.got - 2010.06.03 18:47:42.
