data_PCOD9257791
_publ_section_title
;
Structure prediction by ZEFSAII (Michael W. Deem and Ramdas Pophale) SiO2 
 PCOD9257791
Probable space group: C 2/C
;
_chemical_formula_sum "Si O2"
_cell_formula_units_Z 44
_cell_length_a 5.394695
_cell_length_b 13.758181
_cell_length_c 23.592891
_cell_angle_alpha 90.000000
_cell_angle_beta 111.336898
_cell_angle_gamma 90.000000
_cell_volume 1631.067503
_symmetry_space_group_name_H-M "C 2/C"
_symmetry_group_IT_number 15
_symmetry_cell_setting 'monoclinic'
loop_
_space_group_symop_operation_xyz
x,y,z
-x,y,1/2-z
-x,-y,-z
x,-y,1/2+z
1/2+x,1/2+y,z
1/2-x,1/2+y,1/2-z
1/2-x,1/2-y,-z
1/2+x,1/2-y,1/2+z
loop_
_atom_site_type_symbol
_atom_site_label
_atom_site_fract_x
_atom_site_fract_y
_atom_site_fract_z
Si Si1 0.966607 0.354926 0.484832
Si Si2 0.989362 0.742811 0.102422
Si Si3 0.720570 0.154451 0.234192
Si Si4 0.500000 0.500000 0.500000
Si Si5 0.699070 0.129136 0.716486
Si Si6 0.291024 0.068948 0.602432
O O1 0.816447 0.274537 0.433618
O O2 0.731974 0.426888 0.485736
O O3 0.075244 0.305961 0.550457
O O4 0.201689 0.403802 0.465984
O O5 0.086568 0.683075 0.163918
O O6 0.142894 0.845428 0.122053
O O7 0.500000 0.097750 0.250000
O O8 0.789735 0.251882 0.277884
O O9 0.000000 0.104667 0.250000
O O10 0.631523 0.472733 0.576432
O O11 0.500000 0.103961 0.750000
O O12 0.582887 0.076754 0.651141
O O13 0.000000 0.101836 0.750000
#
# Coordination Sequence:
#
# PCOD9257791 Si02
#       6
#     8   8   8   4   8   8
#     4  10  21  37  57  85 120 158 200 254 313 372
#     4  10  20  34  58  91 117 151 203 257 314 376
#     4  10  18  32  53  87 120 153 189 247 315 363
#     4  10  24  38  56  84 116 170 206 256 316 374
#     4  10  19  32  57  89 118 155 199 262 312 368
#     4  11  20  37  60  86 124 157 211 260 319 378
#
# _framework density 26.976199999999999
#
# number of rings (size 3 to 8) (size 9 to 14) (size 15 to 20)
#    0.000    1.818    3.636    3.273    2.545    0.000 
#    0.000    0.000    0.000    2.182    0.000    0.000 
#    0.000    0.000    0.000    0.000    0.000    0.000 
#
# Total GULP energy -122601.748704 kJ/mol
# GULP energy per Si atom -5572.806759 kJ/mol
# Density = 2.691480 g / cm^3
# Si number density = 26.976200 Si / 1000 Ang^3
#
#
#
# Elastic Constant Matrix: (Units=GPa)
#
#
# Indices 1 2 3 4 5 6 
#
# 1 174.1302 12.5681 26.0536 0.0000 6.5481 0.0000
# 2 12.5681 81.6559 -4.2326 0.0000 0.9784 0.0000
# 3 26.0536 -4.2326 140.7831 0.0000 21.3223 0.0000
# 4 0.0000 0.0000 0.0000 14.0515 0.0000 3.1851
# 5 6.5481 0.9784 21.3223 0.0000 40.6041 0.0000
# 6 0.0000 0.0000 0.0000 3.1851 0.0000 -10.6204
#
#
#
# Elastic Compliance Matrix: (Units=1/GPa)
#
#
# Indices 1 2 3 4 5 6 
#
# 1 0.005989 -0.000973 -0.001081 0.000000 -0.000375 0.000000
# 2 -0.000973 0.012434 0.000625 0.000000 -0.000471 0.000000
# 3 -0.001081 0.000625 0.007928 0.000000 -0.004004 0.000000
# 4 0.000000 0.000000 0.000000 0.066637 0.000000 0.019985
# 5 -0.000375 -0.000471 -0.004004 0.000000 0.026803 0.000000
# 6 0.000000 0.000000 0.000000 0.019985 0.000000 -0.088165
#
#
# Mechanical properties :
#
#
# Convention : Reuss Voigt Hill
#
# Bulk Modulus (GPa) = 42.56406 51.70527 47.13466
# Shear Modulus (GPa) = 118.16058 32.95238 75.55648
#
# Velocity S-wave (km/s) = 6.62547 3.49884 5.29805
# Velocity P-wave (km/s) = 8.62217 5.96080 7.41191
#
# Compressibility (1/GPa) = 0.02349400
#
# Stress axis : x y z
#
# Youngs Moduli (GPa) = 166.97594 80.42224 126.12888
#
# Poissons Ratio (x) = 0.07828 0.13632
# Poissons Ratio (y) = 0.16252 -0.07887
# Poissons Ratio (z) = 0.18047 -0.05029
#
# Static dielectric constant tensor:
#      x y z
#    x 2.020360 0.000000 0.455200 
#    y 0.000000 2.596770 0.000000 
#    z 0.455200 0.000000 2.487730 
# 
# From -- ./inp_files/260625.got.cif
#   From: 2010.05.17/outbox.cif.g08.bks.cpg/sg15_131_cif.got.tgz:260625.got - 2010.06.03 18:47:42.
