data_PCOD9257330
_publ_section_title
;
Structure prediction by ZEFSAII (Michael W. Deem and Ramdas Pophale) SiO2 
 PCOD9257330
Probable space group: C 2/C
;
_chemical_formula_sum "Si O2"
_cell_formula_units_Z 56
_cell_length_a 17.809203
_cell_length_b 17.697016
_cell_length_c 14.652700
_cell_angle_alpha 90.000000
_cell_angle_beta 146.210708
_cell_angle_gamma 90.000000
_cell_volume 2568.304751
_symmetry_space_group_name_H-M "C 2/C"
_symmetry_group_IT_number 15
_symmetry_cell_setting 'monoclinic'
loop_
_space_group_symop_operation_xyz
x,y,z
-x,y,1/2-z
-x,-y,-z
x,-y,1/2+z
1/2+x,1/2+y,z
1/2-x,1/2+y,1/2-z
1/2-x,1/2-y,-z
1/2+x,1/2-y,1/2+z
loop_
_atom_site_type_symbol
_atom_site_label
_atom_site_fract_x
_atom_site_fract_y
_atom_site_fract_z
Si Si1 0.720468 0.521927 0.832230
Si Si2 0.484587 0.050164 0.342345
Si Si3 0.497014 0.421801 0.638198
Si Si4 0.693930 0.671577 0.676977
Si Si5 0.863893 0.790974 0.056537
Si Si6 0.016261 0.698199 0.486236
Si Si7 0.700727 0.544587 0.027800
O O1 0.638040 0.444262 0.732888
O O2 0.694201 0.599460 0.748824
O O3 0.880574 0.507029 0.993902
O O4 0.687059 0.540000 0.904568
O O5 0.500000 0.076041 0.250000
O O6 0.472925 0.117783 0.402430
O O7 0.342566 0.007909 0.199152
O O8 0.500000 0.408427 0.750000
O O9 0.403139 0.358821 0.500484
O O10 0.417880 0.500538 0.545012
O O11 0.852380 0.687803 0.814565
O O12 0.610816 0.746955 0.622843
O O13 0.000000 0.808554 0.250000
O O14 0.750000 0.750000 0.000000
O O15 0.907268 0.735758 0.021527
O O16 0.805399 0.867794 0.957582
#
# Coordination Sequence:
#
# PCOD9257330 Si02
#       7
#     8   8   8   8   8   8   8
#     4   9  18  32  53  78 106 133 165 206 259 321
#     4   9  17  30  50  79 112 138 160 197 254 323
#     4  10  21  38  57  75  99 137 182 224 267 317
#     4  11  22  37  54  77 105 137 177 225 269 314
#     4  12  20  29  49  81 117 150 174 201 253 325
#     4  11  21  33  50  76 109 142 176 216 260 309
#     4  10  18  31  51  78 108 141 173 205 251 319
#
# _framework density 21.804265999999998
#
# number of rings (size 3 to 8) (size 9 to 14) (size 15 to 20)
#    0.000    1.714    0.000    9.000    0.000    0.000 
#    0.000    5.714    0.000    0.000    0.000    0.000 
#    0.000    0.000    0.000    0.000    0.000    0.000 
#
# Total GULP energy -156190.541109 kJ/mol
# GULP energy per Si atom -5578.233611 kJ/mol
# Density = 2.175464 g / cm^3
# Si number density = 21.804266 Si / 1000 Ang^3
#
#
#
# Elastic Constant Matrix: (Units=GPa)
#
#
# Indices 1 2 3 4 5 6 
#
# 1 12.5116 -2.0472 26.7244 0.0000 11.6951 0.0000
# 2 -2.0472 16.0646 19.4878 0.0000 1.4872 0.0000
# 3 26.7244 19.4878 144.6838 0.0000 30.8070 0.0000
# 4 0.0000 0.0000 0.0000 21.9204 0.0000 -4.1936
# 5 11.6951 1.4872 30.8070 0.0000 32.8445 0.0000
# 6 0.0000 0.0000 0.0000 -4.1936 0.0000 -0.0955
#
#
#
# Elastic Compliance Matrix: (Units=1/GPa)
#
#
# Indices 1 2 3 4 5 6 
#
# 1 0.233865 0.089472 -0.045802 0.000000 -0.044365 0.000000
# 2 0.089472 0.110159 -0.029387 0.000000 -0.009282 0.000000
# 3 -0.045802 -0.029387 0.019461 0.000000 -0.000614 0.000000
# 4 0.000000 0.000000 0.000000 0.004855 0.000000 -0.213082
# 5 -0.044365 -0.009282 -0.000614 0.000000 0.047240 0.000000
# 6 0.000000 0.000000 0.000000 -0.213082 0.000000 -1.113801
#
#
# Mechanical properties :
#
#
# Convention : Reuss Voigt Hill
#
# Bulk Modulus (GPa) = 2.55069 29.06553 15.80811
# Shear Modulus (GPa) = -8.38781 19.54021 5.57620
#
# Velocity S-wave (km/s) = -1.96347 2.99685 1.60092
# Velocity P-wave (km/s) = 1.99197 5.03328 3.26849
#
# Compressibility (1/GPa) = 0.39205084
#
# Stress axis : x y z
#
# Youngs Moduli (GPa) = 4.27596 9.07775 51.38606
#
# Poissons Ratio (x) = -0.81220 2.35357
# Poissons Ratio (y) = -0.38258 1.51010
# Poissons Ratio (z) = 0.19585 0.26677
#
# Static dielectric constant tensor:
#      x y z
#    x 1.795560 0.000000 0.015410 
#    y 0.000000 1.831090 0.000000 
#    z 0.015410 0.000000 1.955280 
# 
# From -- ./inp_files/169160.got.cif
#   From: 2010.05.17/outbox.cif.g08.bks.cpg/sg15_85_cif.got.tgz:169160.got - 2010.06.03 18:47:42.
