data_PCOD9257580
_publ_section_title
;
Structure prediction by ZEFSAII (Michael W. Deem and Ramdas Pophale) SiO2 
 PCOD9257580
Probable space group: C 2/C
;
_chemical_formula_sum "Si O2"
_cell_formula_units_Z 52
_cell_length_a 21.270718
_cell_length_b 13.450823
_cell_length_c 20.048951
_cell_angle_alpha 90.000000
_cell_angle_beta 19.173558
_cell_angle_gamma 90.000000
_cell_volume 1883.937612
_symmetry_space_group_name_H-M "C 2/C"
_symmetry_group_IT_number 15
_symmetry_cell_setting 'monoclinic'
loop_
_space_group_symop_operation_xyz
x,y,z
-x,y,1/2-z
-x,-y,-z
x,-y,1/2+z
1/2+x,1/2+y,z
1/2-x,1/2+y,1/2-z
1/2-x,1/2-y,-z
1/2+x,1/2-y,1/2+z
loop_
_atom_site_type_symbol
_atom_site_label
_atom_site_fract_x
_atom_site_fract_y
_atom_site_fract_z
Si Si1 0.067981 0.892611 0.402024
Si Si2 0.414002 0.667743 0.404205
Si Si3 0.755079 0.609404 0.365383
Si Si4 0.000000 0.880875 0.250000
Si Si5 0.832376 0.602698 0.508289
Si Si6 0.192191 0.378970 0.953131
Si Si7 0.350352 0.100954 0.725627
O O1 0.204003 0.847673 0.322774
O O2 0.221432 0.906080 0.189075
O O3 0.000000 0.000000 0.500000
O O4 0.889052 0.839649 0.543724
O O5 0.500000 0.626429 0.250000
O O6 0.585114 0.639783 0.283028
O O7 0.370939 0.784025 0.440728
O O8 0.223390 0.625402 0.626051
O O9 0.616604 0.578664 0.566578
O O10 0.831543 0.517023 0.244778
O O11 0.956207 0.648040 0.194121
O O12 0.190059 0.843393 0.099507
O O13 0.845237 0.485533 0.475610
O O14 0.071155 0.372750 0.006338
#
# Coordination Sequence:
#
# PCOD9257580 Si02
#       7
#     8   8   8   4   8   8   8
#     4   9  18  35  52  72  95 124 175 228 272 319
#     4  12  24  36  48  68 103 144 187 229 260 294
#     4   9  19  31  51  73  97 130 165 212 264 317
#     4  10  18  32  46  76 104 130 166 210 254 316
#     4  10  21  33  52  74 100 136 176 219 270 315
#     4  11  23  34  49  69  96 136 180 225 262 304
#     4  10  22  35  50  72  94 131 181 222 271 310
#
# _framework density 27.601762999999998
#
# number of rings (size 3 to 8) (size 9 to 14) (size 15 to 20)
#    0.000    1.846    1.538    3.692    4.308    8.000 
#    0.000    0.000    0.000    0.000    0.000    0.000 
#    0.000    0.000    0.000   22.154    9.846   12.308 
#
# Total GULP energy -144981.227744 kJ/mol
# GULP energy per Si atom -5576.201067 kJ/mol
# Density = 2.753894 g / cm^3
# Si number density = 27.601763 Si / 1000 Ang^3
#
#
#
# Elastic Constant Matrix: (Units=GPa)
#
#
# Indices 1 2 3 4 5 6 
#
# 1 134.4402 15.9269 74.2311 0.0163 -28.9569 -0.0008
# 2 15.9269 89.9372 16.3398 0.0284 -6.3553 -0.0005
# 3 74.2311 16.3398 163.0358 0.0301 -42.7532 0.0088
# 4 0.0163 0.0284 0.0301 19.4793 -0.0134 20.7780
# 5 -28.9569 -6.3553 -42.7532 -0.0134 68.7432 -0.0026
# 6 -0.0008 -0.0005 0.0088 20.7780 -0.0026 -3.9465
#
#
#
# Elastic Compliance Matrix: (Units=1/GPa)
#
#
# Indices 1 2 3 4 5 6 
#
# 1 0.010170 -0.000939 -0.004105 0.000002 0.001644 -0.000002
# 2 -0.000939 0.011421 -0.000650 -0.000002 0.000256 -0.000012
# 3 -0.004105 -0.000650 0.009080 -0.000004 0.003857 -0.000003
# 4 0.000002 -0.000002 -0.000004 0.007760 0.000001 0.040853
# 5 0.001644 0.000256 0.003857 0.000001 0.017662 0.000003
# 6 -0.000002 -0.000012 -0.000003 0.040853 0.000003 -0.038300
#
#
# Mechanical properties :
#
#
# Convention : Reuss Voigt Hill
#
# Bulk Modulus (GPa) = 51.86063 66.71209 59.28636
# Shear Modulus (GPa) = 140.41169 35.58288 87.99728
#
# Velocity S-wave (km/s) = 7.14010 3.59437 5.65246
# Velocity P-wave (km/s) = 9.31688 6.43801 8.00788
#
# Compressibility (1/GPa) = 0.01928245
#
# Stress axis : x y z
#
# Youngs Moduli (GPa) = 98.32449 87.55535 110.13811
#
# Poissons Ratio (x) = 0.08222 0.45216
# Poissons Ratio (y) = 0.09233 0.07159
# Poissons Ratio (z) = 0.40366 0.05691
#
# Static dielectric constant tensor:
#      x y z
#    x 2.278560 -0.000010 -0.103860 
#    y -0.000010 2.158890 0.000010 
#    z -0.103860 0.000010 2.070270 
# 
# From -- ./inp_files/253473.got.cif
#   From: 2010.05.17/outbox.cif.g08.bks.cpg/sg15_127_cif.got.tgz:253473.got - 2010.06.03 18:47:42.
