data_PCOD9257916
_publ_section_title
;
Structure prediction by ZEFSAII (Michael W. Deem and Ramdas Pophale) SiO2 
 PCOD9257916
Probable space group: C 2/C
;
_chemical_formula_sum "Si O2"
_cell_formula_units_Z 52
_cell_length_a 14.790511
_cell_length_b 9.167142
_cell_length_c 16.014817
_cell_angle_alpha 90.000000
_cell_angle_beta 103.737574
_cell_angle_gamma 90.000000
_cell_volume 2109.280576
_symmetry_space_group_name_H-M "C 2/C"
_symmetry_group_IT_number 15
_symmetry_cell_setting 'monoclinic'
loop_
_space_group_symop_operation_xyz
x,y,z
-x,y,1/2-z
-x,-y,-z
x,-y,1/2+z
1/2+x,1/2+y,z
1/2-x,1/2+y,1/2-z
1/2-x,1/2-y,-z
1/2+x,1/2-y,1/2+z
loop_
_atom_site_type_symbol
_atom_site_label
_atom_site_fract_x
_atom_site_fract_y
_atom_site_fract_z
Si Si1 0.750000 0.250000 0.500000
Si Si2 0.000000 0.375961 0.250000
Si Si3 0.784280 0.544197 0.436295
Si Si4 0.000000 0.881681 0.250000
Si Si5 0.899156 0.892329 0.929905
Si Si6 0.582281 0.369598 0.886282
Si Si7 0.319185 0.851926 0.289379
Si Si8 0.141055 0.789700 0.144221
O O1 0.800100 0.416059 0.506578
O O2 0.849583 0.170079 0.500614
O O3 0.908182 0.441361 0.273671
O O4 0.948043 0.272526 0.171578
O O5 0.689432 0.629576 0.433367
O O6 0.768953 0.446847 0.348995
O O7 0.861516 0.659659 0.423866
O O8 0.059362 0.992660 0.321018
O O9 0.065138 0.789628 0.202092
O O10 0.859353 0.786954 0.847814
O O11 0.867213 0.051720 0.897866
O O12 0.009421 0.880963 0.945670
O O13 0.243708 0.792469 0.208578
#
# Coordination Sequence:
#
# PCOD9257916 Si02
#       8
#     4   4   8   4   8   8   8   8
#     4  10  24  42  54  76 110 160 196 246 268 326
#     4   9  16  29  52  84 122 136 182 220 284 354
#     4  11  21  34  58  81 114 149 192 227 290 325
#     4   9  18  31  54  88 124 132 176 224 288 348
#     4   9  21  37  58  78 112 146 198 229 275 329
#     4   9  16  32  56  84 104 149 185 228 266 354
#     4  10  18  32  55  88 116 146 170 233 294 348
#     4  11  19  33  59  91 112 145 181 234 286 344
#
# _framework density 24.652956
#
# number of rings (size 3 to 8) (size 9 to 14) (size 15 to 20)
#    0.000    2.154    3.077    1.846    0.000    1.846 
#    0.000    0.000    0.000    4.615    0.000    0.000 
#    0.000    0.000    0.000    0.000    0.000    0.000 
#
# Total GULP energy -144765.790953 kJ/mol
# GULP energy per Si atom -5567.915037 kJ/mol
# Density = 2.459684 g / cm^3
# Si number density = 24.652956 Si / 1000 Ang^3
#
#
#
# Elastic Constant Matrix: (Units=GPa)
#
#
# Indices 1 2 3 4 5 6 
#
# 1 124.8775 23.2342 29.8471 0.0000 -28.8937 0.0000
# 2 23.2342 105.5259 13.5320 0.0000 -9.2121 0.0000
# 3 29.8471 13.5320 47.8371 0.0000 -5.6805 0.0000
# 4 0.0000 0.0000 0.0000 35.9653 0.0000 -18.3659
# 5 -28.8937 -9.2121 -5.6805 0.0000 42.5265 0.0000
# 6 0.0000 0.0000 0.0000 -18.3659 0.0000 33.2029
#
#
#
# Elastic Compliance Matrix: (Units=1/GPa)
#
#
# Indices 1 2 3 4 5 6 
#
# 1 0.011128 -0.001130 -0.005847 0.000000 0.006535 0.000000
# 2 -0.001130 0.010083 -0.002011 0.000000 0.001148 0.000000
# 3 -0.005847 -0.002011 0.024994 0.000000 -0.001070 0.000000
# 4 0.000000 0.000000 0.000000 0.038750 0.000000 0.021434
# 5 0.006535 0.001148 -0.001070 0.000000 0.028060 0.000000
# 6 0.000000 0.000000 0.000000 0.021434 0.000000 0.041974
#
#
# Mechanical properties :
#
#
# Convention : Reuss Voigt Hill
#
# Bulk Modulus (GPa) = 35.42468 45.71857 40.57162
# Shear Modulus (GPa) = 27.41597 36.44742 31.93170
#
# Velocity S-wave (km/s) = 3.33840 3.84919 3.60286
# Velocity P-wave (km/s) = 5.40929 6.19195 5.81380
#
# Compressibility (1/GPa) = 0.02822891
#
# Stress axis : x y z
#
# Youngs Moduli (GPa) = 89.86698 99.17497 40.00892
#
# Poissons Ratio (x) = 0.11204 0.23394
# Poissons Ratio (y) = 0.10153 0.08046
# Poissons Ratio (z) = 0.52548 0.19945
#
# Static dielectric constant tensor:
#      x y z
#    x 1.970920 0.000000 -0.073170 
#    y 0.000000 1.983510 0.000000 
#    z -0.073170 0.000000 2.085100 
# 
# From -- ./inp_files/242439.got.cif
#   From: 2010.05.17/outbox.cif.g08.bks.cpg/sg15_122_cif.got.tgz:242439.got - 2010.06.03 18:47:42.
