data_PCOD9257328
_publ_section_title
;
Structure prediction by ZEFSAII (Michael W. Deem and Ramdas Pophale) SiO2 
 PCOD9257328
Probable space group: C 2/C
;
_chemical_formula_sum "Si O2"
_cell_formula_units_Z 64
_cell_length_a 20.806403
_cell_length_b 14.842461
_cell_length_c 7.971400
_cell_angle_alpha 90.000000
_cell_angle_beta 85.533737
_cell_angle_gamma 90.000000
_cell_volume 2454.238260
_symmetry_space_group_name_H-M "C 2/C"
_symmetry_group_IT_number 15
_symmetry_cell_setting 'monoclinic'
loop_
_space_group_symop_operation_xyz
x,y,z
-x,y,1/2-z
-x,-y,-z
x,-y,1/2+z
1/2+x,1/2+y,z
1/2-x,1/2+y,1/2-z
1/2-x,1/2-y,-z
1/2+x,1/2-y,1/2+z
loop_
_atom_site_type_symbol
_atom_site_label
_atom_site_fract_x
_atom_site_fract_y
_atom_site_fract_z
Si Si1 0.825046 0.176176 0.109688
Si Si2 0.313319 0.055249 0.579958
Si Si3 0.596805 0.056851 0.650061
Si Si4 0.829636 0.017673 0.902257
Si Si5 0.560828 0.866566 0.838130
Si Si6 0.533930 0.359862 0.912925
Si Si7 0.306718 0.793912 0.798869
Si Si8 0.580397 0.431139 0.398819
O O1 0.823469 0.068569 0.084670
O O2 0.806733 0.211669 0.928033
O O3 0.900504 0.196599 0.101334
O O4 0.768113 0.204791 0.248985
O O5 0.360278 0.098235 0.709657
O O6 0.242915 0.023723 0.649840
O O7 0.308790 0.121551 0.425071
O O8 0.349576 0.969092 0.499493
O O9 0.548041 0.110732 0.538789
O O10 0.570688 0.962812 0.734007
O O11 0.879751 0.073669 0.779373
O O12 0.868651 0.928842 0.954740
O O13 0.500000 0.826446 0.750000
O O14 0.626346 0.805853 0.813607
O O15 0.500000 0.333667 0.750000
O O16 0.477476 0.361737 0.062879
O O17 0.551210 0.467165 0.900015
#
# Coordination Sequence:
#
# PCOD9257328 Si02
#       8
#     8   8   8   8   8   8   8   8
#     4   9  20  36  58  68 101 149 186 216 267 309
#     4   9  17  31  53  78 110 136 177 215 264 316
#     4   9  18  31  52  83 110 135 166 217 274 335
#     4  10  18  31  51  78 105 146 171 221 261 315
#     4  10  19  34  55  81 110 134 169 220 277 327
#     4  10  19  33  50  77 109 141 176 217 263 319
#     4   9  19  39  56  74  98 143 190 221 258 321
#     4  10  19  30  49  77 112 137 175 210 270 316
#
# _framework density 26.077338000000001
#
# number of rings (size 3 to 8) (size 9 to 14) (size 15 to 20)
#    0.000    2.500    1.250    1.125    0.000    3.000 
#    4.500    1.250    0.000    2.250    0.000    0.000 
#    0.000    0.000    0.000    0.000    0.000    0.000 
#
# Total GULP energy -178252.856330 kJ/mol
# GULP energy per Si atom -5570.401760 kJ/mol
# Density = 2.601799 g / cm^3
# Si number density = 26.077338 Si / 1000 Ang^3
#
#
#
# Elastic Constant Matrix: (Units=GPa)
#
#
# Indices 1 2 3 4 5 6 
#
# 1 180.7691 15.2026 34.7692 0.0000 4.0078 0.0000
# 2 15.2026 26.3867 -14.3869 0.0000 -2.9218 0.0000
# 3 34.7692 -14.3869 63.0572 0.0000 6.5832 0.0000
# 4 0.0000 0.0000 0.0000 17.4119 0.0000 -6.1558
# 5 4.0078 -2.9218 6.5832 0.0000 44.7385 0.0000
# 6 0.0000 0.0000 0.0000 -6.1558 0.0000 22.9566
#
#
#
# Elastic Compliance Matrix: (Units=1/GPa)
#
#
# Indices 1 2 3 4 5 6 
#
# 1 0.007228 -0.007256 -0.005610 0.000000 -0.000296 0.000000
# 2 -0.007256 0.050652 0.015380 0.000000 0.001695 0.000000
# 3 -0.005610 0.015380 0.022652 0.000000 -0.001826 0.000000
# 4 0.000000 0.000000 0.000000 0.063447 0.000000 0.017013
# 5 -0.000296 0.001695 -0.001826 0.000000 0.022758 0.000000
# 6 0.000000 0.000000 0.000000 0.017013 0.000000 0.048122
#
#
# Mechanical properties :
#
#
# Convention : Reuss Voigt Hill
#
# Bulk Modulus (GPa) = 11.68764 37.93143 24.80953
# Shear Modulus (GPa) = 20.97770 32.66329 26.82049
#
# Velocity S-wave (km/s) = 2.83935 3.54298 3.21050
# Velocity P-wave (km/s) = 3.90395 5.59592 4.82468
#
# Compressibility (1/GPa) = 0.08556048
#
# Stress axis : x y z
#
# Youngs Moduli (GPa) = 138.35732 19.74272 44.14707
#
# Poissons Ratio (x) = 0.14325 0.24766
# Poissons Ratio (y) = 1.00386 -0.67899
# Poissons Ratio (z) = 0.77616 -0.30365
#
# Static dielectric constant tensor:
#      x y z
#    x 2.254730 0.000000 0.050650 
#    y 0.000000 2.258790 0.000000 
#    z 0.050650 0.000000 2.137760 
# 
# From -- ./inp_files/50232.got.cif
#   From: 2010.05.17/outbox.cif.g08.bks.cpg/sg15_26_cif.got.tgz:50232.got - 2010.06.03 18:47:42.
