data_PCOD9257205
_publ_section_title
;
Structure prediction by ZEFSAII (Michael W. Deem and Ramdas Pophale) SiO2 
 PCOD9257205
Probable space group: C 2/C
;
_chemical_formula_sum "Si O2"
_cell_formula_units_Z 60
_cell_length_a 25.251694
_cell_length_b 9.494334
_cell_length_c 16.305046
_cell_angle_alpha 90.000000
_cell_angle_beta 39.003355
_cell_angle_gamma 90.000000
_cell_volume 2460.255764
_symmetry_space_group_name_H-M "C 2/C"
_symmetry_group_IT_number 15
_symmetry_cell_setting 'monoclinic'
loop_
_space_group_symop_operation_xyz
x,y,z
-x,y,1/2-z
-x,-y,-z
x,-y,1/2+z
1/2+x,1/2+y,z
1/2-x,1/2+y,1/2-z
1/2-x,1/2-y,-z
1/2+x,1/2-y,1/2+z
loop_
_atom_site_type_symbol
_atom_site_label
_atom_site_fract_x
_atom_site_fract_y
_atom_site_fract_z
Si Si1 0.749993 0.074365 0.085537
Si Si2 0.549667 0.173485 0.452478
Si Si3 0.399319 0.119359 0.537341
Si Si4 0.785824 0.824237 0.788021
Si Si5 0.889871 0.654322 0.765616
Si Si6 0.500000 0.275301 0.750000
Si Si7 0.373202 0.374919 0.029405
Si Si8 0.753948 0.612407 0.601669
O O1 0.725332 0.227318 0.148696
O O2 0.670031 0.973859 0.179535
O O3 0.770671 0.084018 0.963339
O O4 0.821290 0.009508 0.059068
O O5 0.497557 0.163651 0.429938
O O6 0.471168 0.156861 0.610369
O O7 0.589913 0.323724 0.426990
O O8 0.603333 0.035903 0.415960
O O9 0.341928 0.234686 0.655747
O O10 0.354461 0.113577 0.502765
O O11 0.834159 0.791198 0.814376
O O12 0.777698 0.991981 0.797682
O O13 0.696197 0.748287 0.900770
O O14 0.926087 0.671955 0.811087
O O15 0.455629 0.367447 0.872617
#
# Coordination Sequence:
#
# PCOD9257205 Si02
#       8
#     8   8   8   8   8   4   8   8
#     4  10  23  39  64  94 132 164 222 266 334 387
#     4   9  19  38  63  93 129 161 211 275 321 377
#     4  10  21  37  62  91 127 168 216 261 322 389
#     4  10  20  36  63  90 122 166 221 261 315 380
#     4   9  19  34  61  95 120 163 214 265 318 392
#     4  10  18  30  64  96 126 156 214 264 328 378
#     4  10  19  38  64  96 123 166 210 273 321 385
#     4  11  22  40  63  92 129 172 212 279 319 385
#
# _framework density 24.387709000000001
#
# number of rings (size 3 to 8) (size 9 to 14) (size 15 to 20)
#    0.000    2.133    1.333    1.600    1.867    5.333 
#    0.000    0.667   14.667    0.800    0.000    0.000 
#    0.000    0.000    0.000    0.000    0.000    0.000 
#
# Total GULP energy -167164.757988 kJ/mol
# GULP energy per Si atom -5572.158600 kJ/mol
# Density = 2.433220 g / cm^3
# Si number density = 24.387709 Si / 1000 Ang^3
#
#
#
# Elastic Constant Matrix: (Units=GPa)
#
#
# Indices 1 2 3 4 5 6 
#
# 1 123.8541 30.5925 -5.7195 -0.0004 -18.6899 0.0004
# 2 30.5925 148.2993 33.6525 -0.0020 -11.6784 0.0013
# 3 -5.7195 33.6525 57.9277 -0.0002 -7.0063 0.0005
# 4 -0.0004 -0.0020 -0.0002 24.9544 0.0003 -2.1157
# 5 -18.6899 -11.6784 -7.0063 0.0003 24.7363 -0.0002
# 6 0.0004 0.0013 0.0005 -2.1157 -0.0002 36.2253
#
#
#
# Elastic Compliance Matrix: (Units=1/GPa)
#
#
# Indices 1 2 3 4 5 6 
#
# 1 0.009855 -0.002164 0.003114 0.000000 0.007306 0.000000
# 2 -0.002164 0.008391 -0.004978 0.000001 0.000917 0.000000
# 3 0.003114 -0.004978 0.021188 0.000000 0.006004 0.000000
# 4 0.000000 0.000001 0.000000 0.040273 0.000000 0.002352
# 5 0.007306 0.000917 0.006004 0.000000 0.048080 0.000000
# 6 0.000000 0.000000 0.000000 0.002352 0.000000 0.027742
#
#
# Mechanical properties :
#
#
# Convention : Reuss Voigt Hill
#
# Bulk Modulus (GPa) = 31.86872 49.68132 40.77502
# Shear Modulus (GPa) = 28.72823 35.28692 32.00757
#
# Velocity S-wave (km/s) = 3.43589 3.80796 3.62670
# Velocity P-wave (km/s) = 5.36995 6.30474 5.85603
#
# Compressibility (1/GPa) = 0.03137873
#
# Stress axis : x y z
#
# Youngs Moduli (GPa) = 101.47206 119.17098 47.19590
#
# Poissons Ratio (x) = 0.25791 -0.14697
# Poissons Ratio (y) = 0.21961 0.23493
# Poissons Ratio (z) = -0.31598 0.59319
#
# Static dielectric constant tensor:
#      x y z
#    x 2.106470 0.000000 0.051030 
#    y 0.000000 1.978410 0.000000 
#    z 0.051030 0.000000 1.986590 
# 
# From -- ./inp_files/257181.got.cif
#   From: 2010.05.17/outbox.cif.g08.bks.cpg/sg15_129_cif.got.tgz:257181.got - 2010.06.03 18:47:42.
