data_PCOD9257651
_publ_section_title
;
Structure prediction by ZEFSAII (Michael W. Deem and Ramdas Pophale) SiO2 
 PCOD9257651
Probable space group: C 2/C
;
_chemical_formula_sum "Si O2"
_cell_formula_units_Z 44
_cell_length_a 16.850147
_cell_length_b 24.754994
_cell_length_c 5.774963
_cell_angle_alpha 90.000000
_cell_angle_beta 119.949984
_cell_angle_gamma 90.000000
_cell_volume 2087.204578
_symmetry_space_group_name_H-M "C 2/C"
_symmetry_group_IT_number 15
_symmetry_cell_setting 'monoclinic'
loop_
_space_group_symop_operation_xyz
x,y,z
-x,y,1/2-z
-x,-y,-z
x,-y,1/2+z
1/2+x,1/2+y,z
1/2-x,1/2+y,1/2-z
1/2-x,1/2-y,-z
1/2+x,1/2-y,1/2+z
loop_
_atom_site_type_symbol
_atom_site_label
_atom_site_fract_x
_atom_site_fract_y
_atom_site_fract_z
Si Si1 0.154635 0.129983 0.670667
Si Si2 0.009109 0.321423 0.504282
Si Si3 0.000000 0.137002 0.750000
Si Si4 0.777105 0.304103 0.668302
Si Si5 0.615245 0.286325 0.750137
Si Si6 0.110686 0.026977 0.390486
O O1 0.114146 0.185294 0.499461
O O2 0.163197 0.084728 0.489435
O O3 0.074511 0.105271 0.714745
O O4 0.238814 0.147035 0.954550
O O5 0.115004 0.304182 0.652872
O O6 0.000000 0.344703 0.750000
O O7 0.935702 0.271293 0.367524
O O8 0.000000 0.354216 0.250000
O O9 0.940610 0.174621 0.499521
O O10 0.750000 0.250000 0.500000
O O11 0.720113 0.296657 0.821569
O O12 0.000000 0.033362 0.250000
O O13 0.134256 0.995194 0.666165
#
# Coordination Sequence:
#
# PCOD9257651 Si02
#       6
#     8   8   4   8   8   8
#     4  11  24  36  59  84 119 163 208 255 299 369
#     4  12  24  39  56  81 119 162 205 251 294 346
#     4  10  18  32  50  80 110 150 200 236 294 342
#     4  11  23  38  57  85 119 167 211 249 300 359
#     4  11  21  36  56  78 118 161 206 245 293 349
#     4  10  23  39  60  87 120 158 204 255 310 365
#
# _framework density 21.080829000000001
#
# number of rings (size 3 to 8) (size 9 to 14) (size 15 to 20)
#    0.000    1.091    2.727    4.909   11.455    1.455 
#    0.000    0.000    0.000    0.000    0.000    0.000 
#    0.000    4.364    0.000    0.000    0.000    0.000 
#
# Total GULP energy -122610.338181 kJ/mol
# GULP energy per Si atom -5573.197190 kJ/mol
# Density = 2.103285 g / cm^3
# Si number density = 21.080829 Si / 1000 Ang^3
#
#
#
# Elastic Constant Matrix: (Units=GPa)
#
#
# Indices 1 2 3 4 5 6 
#
# 1 89.1331 -12.4068 14.1583 0.0000 -9.5017 0.0000
# 2 -12.4068 54.0494 29.5879 0.0000 -9.2098 0.0000
# 3 14.1583 29.5879 136.9122 0.0000 -21.8469 0.0000
# 4 0.0000 0.0000 0.0000 45.2020 0.0000 -4.1664
# 5 -9.5017 -9.2098 -21.8469 0.0000 29.1019 0.0000
# 6 0.0000 0.0000 0.0000 -4.1664 0.0000 10.3936
#
#
#
# Elastic Compliance Matrix: (Units=1/GPa)
#
#
# Indices 1 2 3 4 5 6 
#
# 1 0.012556 0.004483 -0.001575 0.000000 0.004336 0.000000
# 2 0.004483 0.022937 -0.004577 0.000000 0.005287 0.000000
# 3 -0.001575 -0.004577 0.009251 0.000000 0.004982 0.000000
# 4 0.000000 0.000000 0.000000 0.022972 0.000000 0.009209
# 5 0.004336 0.005287 0.004982 0.000000 0.041191 0.000000
# 6 0.000000 0.000000 0.000000 0.009209 0.000000 0.099904
#
#
# Mechanical properties :
#
#
# Convention : Reuss Voigt Hill
#
# Bulk Modulus (GPa) = 24.15139 38.08595 31.11867
# Shear Modulus (GPa) = 22.12878 33.52321 27.82599
#
# Velocity S-wave (km/s) = 3.24344 3.99209 3.63708
# Velocity P-wave (km/s) = 5.05054 6.27334 5.69486
#
# Compressibility (1/GPa) = 0.04140548
#
# Stress axis : x y z
#
# Youngs Moduli (GPa) = 79.64541 43.59756 108.09721
#
# Poissons Ratio (x) = -0.19546 0.17030
# Poissons Ratio (y) = -0.35707 0.49475
# Poissons Ratio (z) = 0.12548 0.19954
#
# Static dielectric constant tensor:
#      x y z
#    x 6.084600 0.000000 -0.045410 
#    y 0.000000 1.814670 0.000000 
#    z -0.045410 0.000000 1.855630 
# 
# From -- ./inp_files/7552.got.cif
#   From: 2010.05.17/outbox.cif.g08.bks.cpg/sg15_4_cif.got.tgz:7552.got - 2010.06.03 18:47:42.
