data_PCOD9257559
_publ_section_title
;
Structure prediction by ZEFSAII (Michael W. Deem and Ramdas Pophale) SiO2 
 PCOD9257559
Probable space group: C 2/C
;
_chemical_formula_sum "Si O2"
_cell_formula_units_Z 64
_cell_length_a 9.383433
_cell_length_b 20.666682
_cell_length_c 19.371993
_cell_angle_alpha 90.000000
_cell_angle_beta 116.275310
_cell_angle_gamma 90.000000
_cell_volume 3368.549873
_symmetry_space_group_name_H-M "C 2/C"
_symmetry_group_IT_number 15
_symmetry_cell_setting 'monoclinic'
loop_
_space_group_symop_operation_xyz
x,y,z
-x,y,1/2-z
-x,-y,-z
x,-y,1/2+z
1/2+x,1/2+y,z
1/2-x,1/2+y,1/2-z
1/2-x,1/2-y,-z
1/2+x,1/2-y,1/2+z
loop_
_atom_site_type_symbol
_atom_site_label
_atom_site_fract_x
_atom_site_fract_y
_atom_site_fract_z
Si Si1 0.194381 0.617484 0.633504
Si Si2 0.844745 0.246257 0.449259
Si Si3 0.349070 0.283692 0.266628
Si Si4 0.312128 0.158565 0.198061
Si Si5 0.109669 0.174481 0.571645
Si Si6 0.384537 0.552709 0.550820
Si Si7 0.807215 0.973220 0.881831
Si Si8 0.089123 0.404193 0.338339
O O1 0.151533 0.683035 0.583204
O O2 0.278958 0.650209 0.718954
O O3 0.293889 0.573785 0.601220
O O4 0.042427 0.581628 0.632055
O O5 0.750000 0.250000 0.500000
O O6 0.740753 0.196225 0.382415
O O7 0.023204 0.219929 0.498237
O O8 0.500000 0.273598 0.250000
O O9 0.258408 0.214830 0.240719
O O10 0.397700 0.293050 0.355010
O O11 0.500000 0.145669 0.250000
O O12 0.231456 0.088921 0.172705
O O13 0.288630 0.148514 0.604230
O O14 0.995883 0.112478 0.552730
O O15 0.509417 0.494545 0.588639
O O16 0.284490 0.539216 0.459671
O O17 0.692154 0.033204 0.839934
O O18 0.000000 0.380042 0.250000
#
# Coordination Sequence:
#
# PCOD9257559 Si02
#       8
#     8   8   8   8   8   8   8   8
#     4  11  21  36  58  93 119 152 205 254 296 354
#     4  11  19  34  61  92 118 147 198 255 303 355
#     4  10  18  31  59  93 113 147 200 251 299 354
#     4  10  19  32  55  88 120 148 189 244 306 362
#     4  11  19  36  60  90 119 155 198 248 309 357
#     4  10  20  36  62  86 115 157 207 253 282 361
#     4  10  21  38  57  86 120 162 198 244 310 353
#     4  11  24  38  57  87 125 165 204 248 301 360
#
# _framework density 18.999272999999999
#
# number of rings (size 3 to 8) (size 9 to 14) (size 15 to 20)
#    0.000    1.500    5.000    1.875    0.000    1.000 
#    0.000    0.000    0.000    0.000   16.250    0.000 
#    0.000    0.000    0.000    0.000    0.000    0.000 
#
# Total GULP energy -178195.603137 kJ/mol
# GULP energy per Si atom -5568.612598 kJ/mol
# Density = 1.895603 g / cm^3
# Si number density = 18.999273 Si / 1000 Ang^3
#
#
#
# Elastic Constant Matrix: (Units=GPa)
#
#
# Indices 1 2 3 4 5 6 
#
# 1 67.9375 10.0864 13.8720 0.0000 2.0851 0.0000
# 2 10.0864 70.5672 21.9150 0.0000 7.2208 0.0000
# 3 13.8720 21.9150 92.3179 0.0000 18.1155 0.0000
# 4 0.0000 0.0000 0.0000 -0.9997 0.0000 20.4415
# 5 2.0851 7.2208 18.1155 0.0000 19.6565 0.0000
# 6 0.0000 0.0000 0.0000 20.4415 0.0000 14.5108
#
#
#
# Elastic Compliance Matrix: (Units=1/GPa)
#
#
# Indices 1 2 3 4 5 6 
#
# 1 0.015363 -0.001637 -0.002097 0.000000 0.000905 0.000000
# 2 -0.001637 0.015598 -0.002889 0.000000 -0.002894 0.000000
# 3 -0.002097 -0.002889 0.014138 0.000000 -0.011746 0.000000
# 4 0.000000 0.000000 0.000000 -0.033562 0.000000 0.047279
# 5 0.000905 -0.002894 -0.011746 0.000000 0.062666 0.000000
# 6 0.000000 0.000000 0.000000 0.047279 0.000000 0.002312
#
#
# Mechanical properties :
#
#
# Convention : Reuss Voigt Hill
#
# Bulk Modulus (GPa) = 31.39496 35.84104 33.61800
# Shear Modulus (GPa) = 49.81087 18.96346 34.38717
#
# Velocity S-wave (km/s) = 5.12583 3.16272 4.25893
# Velocity P-wave (km/s) = 7.18278 5.67825 6.47437
#
# Compressibility (1/GPa) = 0.03185225
#
# Stress axis : x y z
#
# Youngs Moduli (GPa) = 65.09162 64.11008 70.73146
#
# Poissons Ratio (x) = 0.10495 0.14835
# Poissons Ratio (y) = 0.10656 0.20434
# Poissons Ratio (z) = 0.13652 0.18521
#
# Static dielectric constant tensor:
#      x y z
#    x 1.676220 0.000000 0.038550 
#    y 0.000000 1.715480 0.000000 
#    z 0.038550 0.000000 1.709500 
# 
# From -- ./inp_files/233909.got.cif
#   From: 2010.05.17/outbox.cif.g08.bks.cpg/sg15_117_cif.got.tgz:233909.got - 2010.06.03 18:47:42.
