data_PCOD9257728
_publ_section_title
;
Structure prediction by ZEFSAII (Michael W. Deem and Ramdas Pophale) SiO2 
 PCOD9257728
Probable space group: C 2/C
;
_chemical_formula_sum "Si O2"
_cell_formula_units_Z 56
_cell_length_a 19.960802
_cell_length_b 8.860285
_cell_length_c 14.687767
_cell_angle_alpha 90.000000
_cell_angle_beta 106.521313
_cell_angle_gamma 90.000000
_cell_volume 2490.408163
_symmetry_space_group_name_H-M "C 2/C"
_symmetry_group_IT_number 15
_symmetry_cell_setting 'monoclinic'
loop_
_space_group_symop_operation_xyz
x,y,z
-x,y,1/2-z
-x,-y,-z
x,-y,1/2+z
1/2+x,1/2+y,z
1/2-x,1/2+y,1/2-z
1/2-x,1/2-y,-z
1/2+x,1/2-y,1/2+z
loop_
_atom_site_type_symbol
_atom_site_label
_atom_site_fract_x
_atom_site_fract_y
_atom_site_fract_z
Si Si1 0.837473 0.367584 0.710825
Si Si2 0.789078 0.429241 0.488995
Si Si3 0.251214 0.162738 0.710563
Si Si4 0.841494 0.944102 0.481264
Si Si5 0.640666 0.275046 0.633281
Si Si6 0.459851 0.999477 0.362283
Si Si7 0.586216 0.849549 0.473891
O O1 0.817327 0.369183 0.597409
O O2 0.812478 0.215441 0.750319
O O3 0.789895 0.501924 0.737007
O O4 0.915719 0.416253 0.767586
O O5 0.707854 0.472569 0.464894
O O6 0.808587 0.312004 0.418204
O O7 0.838723 0.571489 0.491007
O O8 0.216964 0.148194 0.598926
O O9 0.314184 0.279111 0.756426
O O10 0.899013 0.825966 0.537142
O O11 0.872548 0.066913 0.421770
O O12 0.578157 0.159362 0.626503
O O13 0.538930 0.941649 0.384001
O O14 0.451397 0.113779 0.444579
#
# Coordination Sequence:
#
# PCOD9257728 Si02
#       7
#     8   8   8   8   8   8   8
#     4  10  19  34  55  79 106 143 184 224 278 325
#     4  10  21  34  53  83 112 143 179 230 281 318
#     4  10  18  32  52  80 108 139 181 223 271 326
#     4  11  20  33  55  83 109 143 182 229 276 323
#     4  10  20  35  55  82 114 140 179 229 278 326
#     4   9  20  36  56  75 107 148 181 222 266 329
#     4  10  20  36  53  79 108 142 186 221 266 329
#
# _framework density 22.486274000000002
#
# number of rings (size 3 to 8) (size 9 to 14) (size 15 to 20)
#    0.000    2.000    4.286    0.857    0.000    1.143 
#    0.000    0.000    0.000    0.000    0.000    0.000 
#    0.000    0.000    0.000    0.000    0.000    0.000 
#
# Total GULP energy -156099.088717 kJ/mol
# GULP energy per Si atom -5574.967454 kJ/mol
# Density = 2.243509 g / cm^3
# Si number density = 22.486274 Si / 1000 Ang^3
#
#
#
# Elastic Constant Matrix: (Units=GPa)
#
#
# Indices 1 2 3 4 5 6 
#
# 1 43.3511 20.1595 9.1948 0.0000 11.5635 0.0000
# 2 20.1595 69.3951 8.5829 0.0000 -0.3804 0.0000
# 3 9.1948 8.5829 58.4430 0.0000 3.3608 0.0000
# 4 0.0000 0.0000 0.0000 24.1847 0.0000 7.5342
# 5 11.5635 -0.3804 3.3608 0.0000 23.8830 0.0000
# 6 0.0000 0.0000 0.0000 7.5342 0.0000 28.5597
#
#
#
# Elastic Compliance Matrix: (Units=1/GPa)
#
#
# Indices 1 2 3 4 5 6 
#
# 1 0.031906 -0.009003 -0.002824 0.000000 -0.015194 0.000000
# 2 -0.009003 0.017224 -0.001391 0.000000 0.004829 0.000000
# 3 -0.002824 -0.001391 0.017826 0.000000 -0.001163 0.000000
# 4 0.000000 0.000000 0.000000 0.045051 0.000000 -0.011885
# 5 -0.015194 0.004829 -0.001163 0.000000 0.049468 0.000000
# 6 0.000000 0.000000 0.000000 -0.011885 0.000000 0.038150
#
#
# Mechanical properties :
#
#
# Convention : Reuss Voigt Hill
#
# Bulk Modulus (GPa) = 24.67850 27.45153 26.06502
# Shear Modulus (GPa) = 20.87106 24.20896 22.54001
#
# Velocity S-wave (km/s) = 3.04989 3.28473 3.16949
# Velocity P-wave (km/s) = 4.83748 5.15952 5.00109
#
# Compressibility (1/GPa) = 0.04052110
#
# Stress axis : x y z
#
# Youngs Moduli (GPa) = 31.34224 58.05832 56.09750
#
# Poissons Ratio (x) = 0.52269 0.15841
# Poissons Ratio (y) = 0.28217 0.07802
# Poissons Ratio (z) = 0.08851 0.08075
#
# Static dielectric constant tensor:
#      x y z
#    x 1.877150 0.000000 -0.002230 
#    y 0.000000 1.881870 0.000000 
#    z -0.002230 0.000000 1.917270 
# 
# From -- ./inp_files/213459.got.cif
#   From: 2010.05.17/outbox.cif.g08.bks.cpg/sg15_107_cif.got.tgz:213459.got - 2010.06.03 18:47:42.
