data_PCOD9257506
_publ_section_title
;
Structure prediction by ZEFSAII (Michael W. Deem and Ramdas Pophale) SiO2 
 PCOD9257506
Probable space group: C 2/C
;
_chemical_formula_sum "Si O2"
_cell_formula_units_Z 48
_cell_length_a 9.183323
_cell_length_b 9.834523
_cell_length_c 20.252715
_cell_angle_alpha 90.000000
_cell_angle_beta 106.725919
_cell_angle_gamma 90.000000
_cell_volume 1751.710986
_symmetry_space_group_name_H-M "C 2/C"
_symmetry_group_IT_number 15
_symmetry_cell_setting 'monoclinic'
loop_
_space_group_symop_operation_xyz
x,y,z
-x,y,1/2-z
-x,-y,-z
x,-y,1/2+z
1/2+x,1/2+y,z
1/2-x,1/2+y,1/2-z
1/2-x,1/2-y,-z
1/2+x,1/2-y,1/2+z
loop_
_atom_site_type_symbol
_atom_site_label
_atom_site_fract_x
_atom_site_fract_y
_atom_site_fract_z
Si Si1 0.959573 0.851641 0.540328
Si Si2 0.035428 0.907406 0.689085
Si Si3 0.553198 0.748626 0.921154
Si Si4 0.278641 0.176514 0.677118
Si Si5 0.361679 0.056908 0.561281
Si Si6 0.669659 0.740667 0.793939
O O1 0.001390 0.943882 0.608678
O O2 0.792406 0.898287 0.496047
O O3 0.961488 0.692841 0.562986
O O4 0.064933 0.841837 0.489150
O O5 0.907586 0.791035 0.686152
O O6 0.000000 0.996711 0.750000
O O7 0.205419 0.855418 0.704058
O O8 0.378448 0.735377 0.873504
O O9 0.656506 0.711696 0.870629
O O10 0.578744 0.906669 0.945154
O O11 0.331816 0.058544 0.635775
O O12 0.242611 0.139306 0.747827
O O13 0.500000 0.782263 0.750000
#
# Coordination Sequence:
#
# PCOD9257506 Si02
#       6
#     8   8   8   8   8   8
#     4   9  18  31  52  81 112 145 190 247 299 359
#     4   9  17  33  54  73 105 150 187 231 299 360
#     4  10  18  31  56  86 113 145 193 249 301 356
#     4   8  17  34  55  80 113 152 194 241 293 355
#     4   9  17  32  55  83 113 149 192 241 301 364
#     4   9  18  33  53  77 109 151 193 240 296 352
#
# _framework density 27.401781
#
# number of rings (size 3 to 8) (size 9 to 14) (size 15 to 20)
#    0.000    3.000    0.000    1.500    0.000    0.667 
#    0.000   20.833    0.000   27.000    0.000    0.000 
#    0.000    0.000    0.000    0.000    0.000    0.000 
#
# Total GULP energy -134025.894440 kJ/mol
# GULP energy per Si atom -5584.412268 kJ/mol
# Density = 2.733941 g / cm^3
# Si number density = 27.401781 Si / 1000 Ang^3
#
#
#
# Elastic Constant Matrix: (Units=GPa)
#
#
# Indices 1 2 3 4 5 6 
#
# 1 170.2152 54.0159 63.5736 0.0000 -34.9948 0.0000
# 2 54.0159 90.9220 33.9932 0.0000 -6.5136 0.0000
# 3 63.5736 33.9932 144.3478 0.0000 -55.5025 0.0000
# 4 0.0000 0.0000 0.0000 -31.5527 0.0000 -23.4094
# 5 -34.9948 -6.5136 -55.5025 0.0000 68.1680 0.0000
# 6 0.0000 0.0000 0.0000 -23.4094 0.0000 62.3926
#
#
#
# Elastic Compliance Matrix: (Units=1/GPa)
#
#
# Indices 1 2 3 4 5 6 
#
# 1 0.008346 -0.004125 -0.001759 0.000000 0.002458 0.000000
# 2 -0.004125 0.014234 -0.002659 0.000000 -0.002922 0.000000
# 3 -0.001759 -0.002659 0.011477 0.000000 0.008187 0.000000
# 4 0.000000 0.000000 0.000000 -0.024792 0.000000 -0.009302
# 5 0.002458 -0.002922 0.008187 0.000000 0.022318 0.000000
# 6 0.000000 0.000000 0.000000 -0.009302 0.000000 0.012538
#
#
# Mechanical properties :
#
#
# Convention : Reuss Voigt Hill
#
# Bulk Modulus (GPa) = 58.92561 78.73893 68.83227
# Shear Modulus (GPa) = 74.77924 36.72840 55.75382
#
# Velocity S-wave (km/s) = 5.22964 3.66507 4.51563
# Velocity P-wave (km/s) = 7.61686 6.83430 7.23617
#
# Compressibility (1/GPa) = 0.01697055
#
# Stress axis : x y z
#
# Youngs Moduli (GPa) = 119.81394 70.25631 87.13247
#
# Poissons Ratio (x) = 0.28978 0.15330
# Poissons Ratio (y) = 0.49418 0.23169
# Poissons Ratio (z) = 0.21080 0.18682
#
# Static dielectric constant tensor:
#      x y z
#    x 2.105020 0.000000 -0.078700 
#    y 0.000000 2.179530 0.000000 
#    z -0.078700 0.000000 2.278050 
# 
# From -- ./inp_files/287777.got.cif
#   From: 2010.05.17/outbox.cif.g08.bks.cpg/sg15_144_cif.got.tgz:287777.got - 2010.06.03 18:47:42.
