data_PCOD9257622
_publ_section_title
;
Structure prediction by ZEFSAII (Michael W. Deem and Ramdas Pophale) SiO2 
 PCOD9257622
Probable space group: C 2/C
;
_chemical_formula_sum "Si O2"
_cell_formula_units_Z 48
_cell_length_a 9.761426
_cell_length_b 18.246334
_cell_length_c 11.430262
_cell_angle_alpha 90.000000
_cell_angle_beta 69.652797
_cell_angle_gamma 90.000000
_cell_volume 1908.815553
_symmetry_space_group_name_H-M "C 2/C"
_symmetry_group_IT_number 15
_symmetry_cell_setting 'monoclinic'
loop_
_space_group_symop_operation_xyz
x,y,z
-x,y,1/2-z
-x,-y,-z
x,-y,1/2+z
1/2+x,1/2+y,z
1/2-x,1/2+y,1/2-z
1/2-x,1/2-y,-z
1/2+x,1/2-y,1/2+z
loop_
_atom_site_type_symbol
_atom_site_label
_atom_site_fract_x
_atom_site_fract_y
_atom_site_fract_z
Si Si1 0.030150 0.434142 0.864840
Si Si2 0.561659 0.811601 0.039409
Si Si3 0.805328 0.043716 0.979494
Si Si4 0.731729 0.303389 0.111669
Si Si5 0.671990 0.679805 0.868515
Si Si6 0.318848 0.513506 0.723934
O O1 0.097789 0.374976 0.933669
O O2 0.145384 0.496627 0.793943
O O3 0.000000 0.394633 0.750000
O O4 0.872730 0.463325 0.957079
O O5 0.577084 0.728482 0.985835
O O6 0.392068 0.824514 0.111294
O O7 0.671049 0.819070 0.114139
O O8 0.836010 0.125324 0.926843
O O9 0.865476 0.000266 0.846899
O O10 0.860579 0.032279 0.095142
O O11 0.656970 0.276554 0.251046
O O12 0.750000 0.250000 0.000000
O O13 0.651990 0.595965 0.831504
#
# Coordination Sequence:
#
# PCOD9257622 Si02
#       6
#     8   8   8   8   8   8
#     4   9  18  29  53  82 111 145 180 238 287 331
#     4  10  21  37  55  85 114 152 193 227 287 341
#     4   9  19  31  51  80 110 145 176 234 292 329
#     4  10  22  37  57  83 113 150 192 238 280 333
#     4  10  22  35  56  82 120 152 181 236 284 344
#     4  10  18  32  49  82 112 143 181 223 292 342
#
# _framework density 25.146483
#
# number of rings (size 3 to 8) (size 9 to 14) (size 15 to 20)
#    0.000    2.333    0.000    2.000    7.000   10.667 
#    0.000    0.000    0.000    1.000    0.000    2.333 
#    0.000    0.000    0.000    0.000    0.000    0.000 
#
# Total GULP energy -133871.040658 kJ/mol
# GULP energy per Si atom -5577.960027 kJ/mol
# Density = 2.508925 g / cm^3
# Si number density = 25.146483 Si / 1000 Ang^3
#
#
#
# Elastic Constant Matrix: (Units=GPa)
#
#
# Indices 1 2 3 4 5 6 
#
# 1 125.2480 25.8852 52.9434 0.0000 19.1526 0.0000
# 2 25.8852 75.9103 29.7780 0.0000 11.1002 0.0000
# 3 52.9434 29.7780 177.3083 0.0000 54.2729 0.0000
# 4 0.0000 0.0000 0.0000 38.2460 0.0000 9.3981
# 5 19.1526 11.1002 54.2729 0.0000 55.1551 0.0000
# 6 0.0000 0.0000 0.0000 9.3981 0.0000 24.9517
#
#
#
# Elastic Compliance Matrix: (Units=1/GPa)
#
#
# Indices 1 2 3 4 5 6 
#
# 1 0.009505 -0.002261 -0.002272 0.000000 -0.000610 0.000000
# 2 -0.002261 0.014661 -0.001609 0.000000 -0.000582 0.000000
# 3 -0.002272 -0.001609 0.008941 0.000000 -0.007685 0.000000
# 4 0.000000 0.000000 0.000000 0.028813 0.000000 -0.010853
# 5 -0.000610 -0.000582 -0.007685 0.000000 0.026022 0.000000
# 6 0.000000 0.000000 0.000000 -0.010853 0.000000 0.044165
#
#
# Mechanical properties :
#
#
# Convention : Reuss Voigt Hill
#
# Bulk Modulus (GPa) = 48.02209 66.18664 57.10437
# Shear Modulus (GPa) = 33.04021 41.66122 37.35071
#
# Velocity S-wave (km/s) = 3.62872 4.07472 3.85817
# Velocity P-wave (km/s) = 6.05766 6.96530 6.52728
#
# Compressibility (1/GPa) = 0.02082375
#
# Stress axis : x y z
#
# Youngs Moduli (GPa) = 105.20814 68.20983 111.84719
#
# Poissons Ratio (x) = 0.15421 0.25408
# Poissons Ratio (y) = 0.23785 0.17995
# Poissons Ratio (z) = 0.23899 0.10974
#
# Static dielectric constant tensor:
#      x y z
#    x 2.094960 0.000000 0.006220 
#    y 0.000000 2.013110 0.000000 
#    z 0.006220 0.000000 2.016350 
# 
# From -- ./inp_files/88787.got.cif
#   From: 2010.05.17/outbox.cif.g08.bks.cpg/sg15_45_cif.got.tgz:88787.got - 2010.06.03 18:47:42.
