data_PCOD9257340
_publ_section_title
;
Structure prediction by ZEFSAII (Michael W. Deem and Ramdas Pophale) SiO2 
 PCOD9257340
Probable space group: C 2/C
;
_chemical_formula_sum "Si O2"
_cell_formula_units_Z 52
_cell_length_a 15.016471
_cell_length_b 6.878608
_cell_length_c 23.976095
_cell_angle_alpha 90.000000
_cell_angle_beta 48.689546
_cell_angle_gamma 90.000000
_cell_volume 1860.244039
_symmetry_space_group_name_H-M "C 2/C"
_symmetry_group_IT_number 15
_symmetry_cell_setting 'monoclinic'
loop_
_space_group_symop_operation_xyz
x,y,z
-x,y,1/2-z
-x,-y,-z
x,-y,1/2+z
1/2+x,1/2+y,z
1/2-x,1/2+y,1/2-z
1/2-x,1/2-y,-z
1/2+x,1/2-y,1/2+z
loop_
_atom_site_type_symbol
_atom_site_label
_atom_site_fract_x
_atom_site_fract_y
_atom_site_fract_z
Si Si1 0.946770 0.020841 0.892420
Si Si2 0.283311 0.943269 0.083871
Si Si3 0.175994 0.911900 0.241791
Si Si4 0.377023 0.037381 0.742163
Si Si5 0.248351 0.472299 0.100422
Si Si6 0.418719 0.984263 0.924999
Si Si7 0.000000 0.000000 0.000000
O O1 0.830113 0.983035 0.903962
O O2 0.933546 0.253704 0.908643
O O3 0.058293 0.974435 0.806579
O O4 0.971363 0.946596 0.944679
O O5 0.256598 0.992910 0.158666
O O6 0.284336 0.705106 0.085314
O O7 0.395815 0.003428 0.000133
O O8 0.129547 0.697095 0.247070
O O9 0.256729 0.897545 0.262328
O O10 0.358606 0.091356 0.814477
O O11 0.475884 0.074741 0.654510
O O12 0.198860 0.447369 0.059108
O O13 0.373855 0.391682 0.068301
#
# Coordination Sequence:
#
# PCOD9257340 Si02
#       7
#     8   8   8   8   8   8   4
#     4  10  18  31  51  80 105 133 181 227 271 307
#     4  10  18  32  50  76 107 139 175 225 267 319
#     4  10  21  34  53  79 107 139 177 222 270 319
#     4  10  21  34  53  79 107 139 177 222 270 319
#     4  10  18  31  51  80 105 133 181 227 271 307
#     4  10  18  32  50  76 107 139 175 225 267 319
#     4  12  16  26  56  80 104 134 168 238 268 308
#
# _framework density 27.953323000000001
#
# number of rings (size 3 to 8) (size 9 to 14) (size 15 to 20)
#    0.000    1.846    4.615    1.846    0.000    4.308 
#    0.000    0.000    0.000    3.692    0.000   10.769 
#    0.000    0.000    0.000    0.000    0.000    0.000 
#
# Total GULP energy -144859.514287 kJ/mol
# GULP energy per Si atom -5571.519780 kJ/mol
# Density = 2.788970 g / cm^3
# Si number density = 27.953323 Si / 1000 Ang^3
#
#
#
# Elastic Constant Matrix: (Units=GPa)
#
#
# Indices 1 2 3 4 5 6 
#
# 1 74.6608 -26.2628 31.8309 0.0000 26.3030 -0.0007
# 2 -26.2628 122.8370 10.0270 -0.0010 9.6888 -0.0012
# 3 31.8309 10.0270 221.1144 0.0002 38.5917 0.0001
# 4 0.0000 -0.0010 0.0002 19.5315 -0.0001 6.4526
# 5 26.3030 9.6888 38.5917 -0.0001 55.4823 -0.0003
# 6 -0.0007 -0.0012 0.0001 6.4526 -0.0003 6.8992
#
#
#
# Elastic Compliance Matrix: (Units=1/GPa)
#
#
# Indices 1 2 3 4 5 6 
#
# 1 0.018773 0.004819 -0.001390 -0.000001 -0.008775 0.000003
# 2 0.004819 0.009496 -0.000496 0.000000 -0.003598 0.000002
# 3 -0.001390 -0.000496 0.005253 0.000000 -0.002908 -0.000001
# 4 -0.000001 0.000000 0.000000 0.074093 0.000000 -0.069297
# 5 -0.008775 -0.003598 -0.002908 0.000000 0.024835 0.000000
# 6 0.000003 0.000002 -0.000001 -0.069297 0.000000 0.209756
#
#
# Mechanical properties :
#
#
# Convention : Reuss Voigt Hill
#
# Bulk Modulus (GPa) = 25.38863 49.97803 37.68333
# Shear Modulus (GPa) = 14.30748 43.25040 28.77894
#
# Velocity S-wave (km/s) = 2.26483 3.93776 3.21212
# Velocity P-wave (km/s) = 3.99268 6.21229 5.22178
#
# Compressibility (1/GPa) = 0.03938771
#
# Stress axis : x y z
#
# Youngs Moduli (GPa) = 53.26805 105.31276 190.37989
#
# Poissons Ratio (x) = -0.50753 0.26454
# Poissons Ratio (y) = -0.25671 0.09452
# Poissons Ratio (z) = 0.07402 0.05228
#
# Static dielectric constant tensor:
#      x y z
#    x 2.137360 0.000000 -0.094870 
#    y 0.000000 2.387250 0.000000 
#    z -0.094870 0.000000 2.163590 
# 
# From -- ./inp_files/273598.got.cif
#   From: 2010.05.17/outbox.cif.g08.bks.cpg/sg15_137_cif.got.tgz:273598.got - 2010.06.03 18:47:42.
