data_PCOD9257213
_publ_section_title
;
Structure prediction by ZEFSAII (Michael W. Deem and Ramdas Pophale) SiO2 
 PCOD9257213
Probable space group: C 2/C
;
_chemical_formula_sum "Si O2"
_cell_formula_units_Z 60
_cell_length_a 27.677035
_cell_length_b 14.000015
_cell_length_c 8.660139
_cell_angle_alpha 90.000000
_cell_angle_beta 99.468329
_cell_angle_gamma 90.000000
_cell_volume 3309.906488
_symmetry_space_group_name_H-M "C 2/C"
_symmetry_group_IT_number 15
_symmetry_cell_setting 'monoclinic'
loop_
_space_group_symop_operation_xyz
x,y,z
-x,y,1/2-z
-x,-y,-z
x,-y,1/2+z
1/2+x,1/2+y,z
1/2-x,1/2+y,1/2-z
1/2-x,1/2-y,-z
1/2+x,1/2-y,1/2+z
loop_
_atom_site_type_symbol
_atom_site_label
_atom_site_fract_x
_atom_site_fract_y
_atom_site_fract_z
Si Si1 0.632762 0.451634 0.305313
Si Si2 0.781178 0.831467 0.294003
Si Si3 0.819748 0.505782 0.990932
Si Si4 0.766700 0.378347 0.706778
Si Si5 0.568542 0.452622 0.533557
Si Si6 0.672192 0.341907 0.844172
Si Si7 0.000000 0.942126 0.750000
Si Si8 0.163421 0.637248 0.747475
O O1 0.682695 0.404762 0.271686
O O2 0.610300 0.404761 0.448377
O O3 0.594206 0.461329 0.144039
O O4 0.641341 0.562961 0.350584
O O5 0.785518 0.729935 0.210598
O O6 0.799309 0.821443 0.480617
O O7 0.723634 0.857374 0.271965
O O8 0.795889 0.435251 0.854148
O O9 0.850463 0.587258 0.919999
O O10 0.776884 0.561650 0.059702
O O11 0.848079 0.438615 0.124849
O O12 0.711243 0.369334 0.732519
O O13 0.538063 0.394852 0.648178
O O14 0.532102 0.494313 0.384768
O O15 0.646878 0.243672 0.778878
#
# Coordination Sequence:
#
# PCOD9257213 Si02
#       8
#     8   8   8   8   8   8   4   8
#     4  11  20  29  48  68 100 118 166 192 248 255
#     4  11  20  32  42  63  91 125 151 213 240 285
#     4  10  18  31  46  61  70 108 162 222 220 287
#     4  10  20  32  47  59  85 119 173 198 260 266
#     4   9  18  31  48  73  84 126 148 190 222 295
#     4  11  20  32  42  63  91 125 151 213 240 285
#     4   8  16  34  52  62  96 110 160 176 220 290
#     4  10  20  32  47  59  85 119 173 198 260 266
#
# _framework density 18.127402
#
# number of rings (size 3 to 8) (size 9 to 14) (size 15 to 20)
#    0.000    1.867    4.000    2.400    0.000    4.267 
#    0.000    0.000    0.000    0.000    0.000    0.000 
#    0.000    0.000    0.000    0.000    0.000 1232.000 
#
# Total GULP energy -167159.588369 kJ/mol
# GULP energy per Si atom -5571.986279 kJ/mol
# Density = 1.808614 g / cm^3
# Si number density = 18.127402 Si / 1000 Ang^3
#
#
#
# Elastic Constant Matrix: (Units=GPa)
#
#
# Indices 1 2 3 4 5 6 
#
# 1 40.7892 12.2834 21.3887 0.0000 -7.4490 0.0000
# 2 12.2834 89.1704 9.6927 0.0000 -12.6063 0.0000
# 3 21.3887 9.6927 67.6854 0.0000 -24.1290 0.0000
# 4 0.0000 0.0000 0.0000 17.0864 0.0000 -0.2369
# 5 -7.4490 -12.6063 -24.1290 0.0000 26.7365 0.0000
# 6 0.0000 0.0000 0.0000 -0.2369 0.0000 3.1957
#
#
#
# Elastic Compliance Matrix: (Units=1/GPa)
#
#
# Indices 1 2 3 4 5 6 
#
# 1 0.030315 -0.003393 -0.009809 0.000000 -0.002006 0.000000
# 2 -0.003393 0.012404 0.001539 0.000000 0.006292 0.000000
# 3 -0.009809 0.001539 0.024972 0.000000 0.020529 0.000000
# 4 0.000000 0.000000 0.000000 0.058586 0.000000 0.004343
# 5 -0.002006 0.006292 0.020529 0.000000 0.058337 0.000000
# 6 0.000000 0.000000 0.000000 0.004343 0.000000 0.313238
#
#
# Mechanical properties :
#
#
# Convention : Reuss Voigt Hill
#
# Bulk Modulus (GPa) = 22.54032 31.59716 27.06874
# Shear Modulus (GPa) = 9.32892 19.68907 14.50899
#
# Velocity S-wave (km/s) = 2.27101 3.29925 2.83219
# Velocity P-wave (km/s) = 4.39750 5.65525 5.06557
#
# Compressibility (1/GPa) = 0.04436495
#
# Stress axis : x y z
#
# Youngs Moduli (GPa) = 32.98654 80.61803 40.04481
#
# Poissons Ratio (x) = 0.27357 0.39280
# Poissons Ratio (y) = 0.11194 -0.06163
# Poissons Ratio (z) = 0.32357 -0.12408
#
# Static dielectric constant tensor:
#      x y z
#    x 1.665680 0.000000 -0.017460 
#    y 0.000000 1.651630 0.000000 
#    z -0.017460 0.000000 1.700580 
# 
# From -- ./inp_files/65987.got.cif
#   From: 2010.05.17/outbox.cif.g08.bks.cpg/sg15_33_cif.got.tgz:65987.got - 2010.06.03 18:47:42.
