data_PCOD9257793
_publ_section_title
;
Structure prediction by ZEFSAII (Michael W. Deem and Ramdas Pophale) SiO2 
 PCOD9257793
Probable space group: C 2/C
;
_chemical_formula_sum "Si O2"
_cell_formula_units_Z 56
_cell_length_a 9.555493
_cell_length_b 20.276033
_cell_length_c 13.181930
_cell_angle_alpha 90.000000
_cell_angle_beta 93.838473
_cell_angle_gamma 90.000000
_cell_volume 2548.236664
_symmetry_space_group_name_H-M "C 2/C"
_symmetry_group_IT_number 15
_symmetry_cell_setting 'monoclinic'
loop_
_space_group_symop_operation_xyz
x,y,z
-x,y,1/2-z
-x,-y,-z
x,-y,1/2+z
1/2+x,1/2+y,z
1/2-x,1/2+y,1/2-z
1/2-x,1/2-y,-z
1/2+x,1/2-y,1/2+z
loop_
_atom_site_type_symbol
_atom_site_label
_atom_site_fract_x
_atom_site_fract_y
_atom_site_fract_z
Si Si1 0.748928 0.279571 0.358834
Si Si2 0.076772 0.400460 0.523154
Si Si3 0.845137 0.478155 0.784894
Si Si4 0.011076 0.257454 0.982390
Si Si5 0.201299 0.020185 0.594748
Si Si6 0.761890 0.422082 0.446617
Si Si7 0.119956 0.159417 0.670055
O O1 0.893464 0.250930 0.411880
O O2 0.623966 0.232848 0.394239
O O3 0.721479 0.347510 0.421603
O O4 0.743447 0.303799 0.241608
O O5 0.143708 0.420187 0.633368
O O6 0.161367 0.441893 0.443948
O O7 0.078822 0.323007 0.506574
O O8 0.912984 0.420160 0.510200
O O9 0.740405 0.471050 0.687398
O O10 0.795141 0.542708 0.842480
O O11 0.000000 0.488893 0.750000
O O12 0.916038 0.199396 0.933594
O O13 0.123250 0.082921 0.637917
O O14 0.158359 0.970568 0.502397
O O15 0.000000 0.165374 0.750000
#
# Coordination Sequence:
#
# PCOD9257793 Si02
#       7
#     8   8   8   8   8   8   8
#     4   9  18  36  59  79 113 151 191 236 276 344
#     4  10  20  32  54  86 117 139 187 245 291 338
#     4  11  17  29  52  84 114 138 178 234 297 343
#     4   9  20  37  53  82 111 147 190 239 274 336
#     4  11  20  33  56  84 115 152 181 243 299 336
#     4  10  18  32  53  89 112 143 190 233 287 344
#     4  10  21  38  59  83 111 157 201 229 286 355
#
# _framework density 21.975981000000001
#
# number of rings (size 3 to 8) (size 9 to 14) (size 15 to 20)
#    0.000    2.000    4.286    0.857    0.000    2.286 
#    2.571    2.857    0.000    0.000    0.000    0.000 
#    0.000    0.000    0.000    0.000    0.000    0.000 
#
# Total GULP energy -155998.816621 kJ/mol
# GULP energy per Si atom -5571.386308 kJ/mol
# Density = 2.192596 g / cm^3
# Si number density = 21.975981 Si / 1000 Ang^3
#
#
#
# Elastic Constant Matrix: (Units=GPa)
#
#
# Indices 1 2 3 4 5 6 
#
# 1 23.1598 14.2310 17.4563 0.0000 11.9543 0.0000
# 2 14.2310 14.1373 -33.5893 0.0000 13.3134 0.0000
# 3 17.4563 -33.5893 -8.4839 0.0000 24.3757 0.0000
# 4 0.0000 0.0000 0.0000 27.2349 0.0000 3.8308
# 5 11.9543 13.3134 24.3757 0.0000 22.1753 0.0000
# 6 0.0000 0.0000 0.0000 3.8308 0.0000 27.0401
#
#
#
# Elastic Compliance Matrix: (Units=1/GPa)
#
#
# Indices 1 2 3 4 5 6 
#
# 1 0.058055 -0.000930 0.008374 0.000000 -0.039943 0.000000
# 2 -0.000930 0.013892 -0.019103 0.000000 0.013160 0.000000
# 3 0.008374 -0.019103 -0.001209 0.000000 0.008284 0.000000
# 4 0.000000 0.000000 0.000000 0.037464 0.000000 -0.005308
# 5 -0.039943 0.013160 0.008284 0.000000 0.049621 0.000000
# 6 0.000000 0.000000 0.000000 -0.005308 0.000000 0.037734
#
#
# Mechanical properties :
#
#
# Convention : Reuss Voigt Hill
#
# Bulk Modulus (GPa) = 21.08847 2.77881 11.93364
# Shear Modulus (GPa) = 21.30544 17.33772 19.32158
#
# Velocity S-wave (km/s) = 3.11704 2.81185 2.96837
# Velocity P-wave (km/s) = 4.75095 3.43646 4.14613
#
# Compressibility (1/GPa) = 0.04741928
#
# Stress axis : x y z
#
# Youngs Moduli (GPa) = 17.22499 71.98639 -827.07747
#
# Poissons Ratio (x) = 0.06695 6.92560
# Poissons Ratio (y) = 0.01602 -15.79948
# Poissons Ratio (z) = -0.14423 1.37514
#
# Static dielectric constant tensor:
#      x y z
#    x 1.889520 0.000000 0.056770 
#    y 0.000000 1.831380 0.000000 
#    z 0.056770 0.000000 1.849090 
# 
# From -- ./inp_files/88977.got.cif
#   From: 2010.05.17/outbox.cif.g08.bks.cpg/sg15_45_cif.got.tgz:88977.got - 2010.06.03 18:47:42.
