data_PCOD9257895
_publ_section_title
;
Structure prediction by ZEFSAII (Michael W. Deem and Ramdas Pophale) SiO2 
 PCOD9257895
Probable space group: C 2/C
;
_chemical_formula_sum "Si O2"
_cell_formula_units_Z 48
_cell_length_a 11.046668
_cell_length_b 17.733677
_cell_length_c 18.854472
_cell_angle_alpha 90.000000
_cell_angle_beta 128.485866
_cell_angle_gamma 90.000000
_cell_volume 2891.172720
_symmetry_space_group_name_H-M "C 2/C"
_symmetry_group_IT_number 15
_symmetry_cell_setting 'monoclinic'
loop_
_space_group_symop_operation_xyz
x,y,z
-x,y,1/2-z
-x,-y,-z
x,-y,1/2+z
1/2+x,1/2+y,z
1/2-x,1/2+y,1/2-z
1/2-x,1/2-y,-z
1/2+x,1/2-y,1/2+z
loop_
_atom_site_type_symbol
_atom_site_label
_atom_site_fract_x
_atom_site_fract_y
_atom_site_fract_z
Si Si1 0.348094 0.953334 0.364166
Si Si2 0.924944 0.324354 0.800183
Si Si3 0.378421 0.585376 0.262384
Si Si4 0.464264 0.521369 0.567099
Si Si5 0.603430 0.353489 0.216597
Si Si6 0.110635 0.438308 0.955980
O O1 0.275238 0.882253 0.298174
O O2 0.393702 0.932710 0.460556
O O3 0.213833 0.017475 0.311592
O O4 0.496783 0.995490 0.387219
O O5 0.757197 0.362263 0.754625
O O6 0.909027 0.234771 0.802784
O O7 0.000000 0.339352 0.750000
O O8 0.045646 0.362188 0.898413
O O9 0.500000 0.619404 0.250000
O O10 0.476611 0.546028 0.360560
O O11 0.500000 0.500000 0.500000
O O12 0.544441 0.595426 0.630316
O O13 0.283675 0.539080 0.502845
O O14 0.500000 0.368824 0.250000
#
# Coordination Sequence:
#
# PCOD9257895 Si02
#       6
#     8   8   8   8   8   8
#     4   9  17  33  58  76  99 137 188 218 257 320
#     4  10  22  35  52  81 115 143 176 223 275 321
#     4  10  18  36  57  76 107 150 183 214 270 330
#     4  11  20  33  56  83 109 135 183 235 266 305
#     4  10  19  38  54  76 111 150 176 210 276 334
#     4  10  18  32  55  83 100 133 183 230 257 309
#
# _framework density 16.602260999999999
#
# number of rings (size 3 to 8) (size 9 to 14) (size 15 to 20)
#    0.000    2.000    3.333    2.000    0.000    0.667 
#    3.000    1.667    0.000    2.000    0.000    0.000 
#    0.000    0.000    0.000    0.000    0.000    0.000 
#
# Total GULP energy -133677.376845 kJ/mol
# GULP energy per Si atom -5569.890702 kJ/mol
# Density = 1.656447 g / cm^3
# Si number density = 16.602261 Si / 1000 Ang^3
#
#
#
# Elastic Constant Matrix: (Units=GPa)
#
#
# Indices 1 2 3 4 5 6 
#
# 1 81.2391 53.6443 51.7961 0.0000 4.5167 0.0000
# 2 53.6443 107.2611 62.5987 0.0000 -2.8577 0.0000
# 3 51.7961 62.5987 116.5325 0.0000 7.2724 0.0000
# 4 0.0000 0.0000 0.0000 19.0672 0.0000 -3.9893
# 5 4.5167 -2.8577 7.2724 0.0000 33.8812 0.0000
# 6 0.0000 0.0000 0.0000 -3.9893 0.0000 20.6814
#
#
#
# Elastic Compliance Matrix: (Units=1/GPa)
#
#
# Indices 1 2 3 4 5 6 
#
# 1 0.020511 -0.007402 -0.004998 0.000000 -0.002286 0.000000
# 2 -0.007402 0.016509 -0.005805 0.000000 0.003625 0.000000
# 3 -0.004998 -0.005805 0.014098 0.000000 -0.002850 0.000000
# 4 0.000000 0.000000 0.000000 0.054652 0.000000 0.010542
# 5 -0.002286 0.003625 -0.002850 0.000000 0.030737 0.000000
# 6 0.000000 0.000000 0.000000 0.010542 0.000000 0.050386
#
#
# Mechanical properties :
#
#
# Convention : Reuss Voigt Hill
#
# Bulk Modulus (GPa) = 67.98194 71.23454 69.60824
# Shear Modulus (GPa) = 21.91010 23.85886 22.88448
#
# Velocity S-wave (km/s) = 3.63672 3.79500 3.71670
# Velocity P-wave (km/s) = 7.65967 7.88685 7.77409
#
# Compressibility (1/GPa) = 0.01470979
#
# Stress axis : x y z
#
# Youngs Moduli (GPa) = 48.75523 60.57203 70.92959
#
# Poissons Ratio (x) = 0.44837 0.35447
# Poissons Ratio (y) = 0.36090 0.41171
# Poissons Ratio (z) = 0.24366 0.35159
#
# Static dielectric constant tensor:
#      x y z
#    x 1.738220 0.000000 -0.060150 
#    y 0.000000 1.553320 0.000000 
#    z -0.060150 0.000000 1.583910 
# 
# From -- ./inp_files/143660.got.cif
#   From: 2010.05.17/outbox.cif.g08.bks.cpg/sg15_72_cif.got.tgz:143660.got - 2010.06.03 18:47:42.
