data_PCOD9257827
_publ_section_title
;
Structure prediction by ZEFSAII (Michael W. Deem and Ramdas Pophale) SiO2 
 PCOD9257827
Probable space group: C 2/C
;
_chemical_formula_sum "Si O2"
_cell_formula_units_Z 60
_cell_length_a 13.864227
_cell_length_b 12.817682
_cell_length_c 28.719759
_cell_angle_alpha 90.000000
_cell_angle_beta 34.430787
_cell_angle_gamma 90.000000
_cell_volume 2885.689823
_symmetry_space_group_name_H-M "C 2/C"
_symmetry_group_IT_number 15
_symmetry_cell_setting 'monoclinic'
loop_
_space_group_symop_operation_xyz
x,y,z
-x,y,1/2-z
-x,-y,-z
x,-y,1/2+z
1/2+x,1/2+y,z
1/2-x,1/2+y,1/2-z
1/2-x,1/2-y,-z
1/2+x,1/2-y,1/2+z
loop_
_atom_site_type_symbol
_atom_site_label
_atom_site_fract_x
_atom_site_fract_y
_atom_site_fract_z
Si Si1 0.832184 0.318583 0.289500
Si Si2 0.500000 0.377828 0.750000
Si Si3 0.794538 0.139043 0.830770
Si Si4 0.162275 0.016490 0.605021
Si Si5 0.227000 0.037879 0.753552
Si Si6 0.311965 0.457393 0.084532
Si Si7 0.796783 0.129997 0.492474
Si Si8 0.208296 0.127663 0.335293
O O1 0.865948 0.196636 0.276837
O O2 0.815834 0.369259 0.246288
O O3 0.682081 0.360452 0.382002
O O4 0.000000 0.359668 0.250000
O O5 0.601078 0.437988 0.670157
O O6 0.734017 0.055631 0.816052
O O7 0.754077 0.254256 0.828907
O O8 0.000000 0.133532 0.750000
O O9 0.740464 0.106045 0.904541
O O10 0.253490 0.949666 0.528845
O O11 0.978436 0.055473 0.659029
O O12 0.269585 0.930639 0.763617
O O13 0.231426 0.552224 0.146361
O O14 0.500000 0.500000 0.000000
O O15 0.234881 0.414894 0.066929
O O16 0.750000 0.250000 0.500000
O O17 0.002723 0.126721 0.413296
#
# Coordination Sequence:
#
# PCOD9257827 Si02
#       8
#     8   4   8   8   8   8   8   8
#     4   9  20  30  56  86 109 132 187 245 277 314
#     4  10  18  32  54  80 116 134 186 244 288 318
#     4  10  20  35  54  79 116 148 181 224 293 339
#     4  10  19  35  52  80 110 148 181 231 281 350
#     4   9  18  32  52  77 109 144 176 221 285 335
#     4   9  18  37  53  77 110 151 183 223 276 347
#     4  10  20  34  58  78 103 146 195 232 281 325
#     4   9  20  34  54  76 107 149 189 227 277 338
#
# _framework density 20.792256999999999
#
# number of rings (size 3 to 8) (size 9 to 14) (size 15 to 20)
#    0.400    2.133    2.000    1.600    3.733    2.133 
#    0.000    1.333    0.000    0.000    0.000    0.000 
#    0.000    0.000    0.000    0.000    0.000    0.000 
#
# Total GULP energy -167017.489675 kJ/mol
# GULP energy per Si atom -5567.249656 kJ/mol
# Density = 2.074493 g / cm^3
# Si number density = 20.792257 Si / 1000 Ang^3
#
#
#
# Elastic Constant Matrix: (Units=GPa)
#
#
# Indices 1 2 3 4 5 6 
#
# 1 93.1799 47.7664 26.0231 0.0000 39.4022 0.0000
# 2 47.7664 125.2045 20.5531 0.0000 26.9547 0.0000
# 3 26.0231 20.5531 40.4774 -0.0002 27.6051 0.0000
# 4 0.0000 0.0000 -0.0002 10.2160 0.0000 -0.4133
# 5 39.4022 26.9547 27.6051 0.0000 35.1385 0.0000
# 6 0.0000 0.0000 0.0000 -0.4133 0.0000 43.4775
#
#
#
# Elastic Compliance Matrix: (Units=1/GPa)
#
#
# Indices 1 2 3 4 5 6 
#
# 1 0.022315 -0.003711 0.005734 0.000000 -0.026681 0.000000
# 2 -0.003711 0.010186 -0.000636 0.000000 -0.003153 0.000000
# 3 0.005734 -0.000636 0.054701 0.000001 -0.048915 0.000000
# 4 0.000000 0.000000 0.000001 0.097923 -0.000001 0.000931
# 5 -0.026681 -0.003153 -0.048915 -0.000001 0.099223 0.000000
# 6 0.000000 0.000000 0.000000 0.000931 0.000000 0.023009
#
#
# Mechanical properties :
#
#
# Convention : Reuss Voigt Hill
#
# Bulk Modulus (GPa) = 11.11413 49.72746 30.42079
# Shear Modulus (GPa) = 14.94425 28.73433 21.83929
#
# Velocity S-wave (km/s) = 2.68384 3.72152 3.24444
# Velocity P-wave (km/s) = 3.86794 6.51418 5.35703
#
# Compressibility (1/GPa) = 0.08997556
#
# Stress axis : x y z
#
# Youngs Moduli (GPa) = 44.81283 98.17646 18.28104
#
# Poissons Ratio (x) = 0.36429 -0.10481
# Poissons Ratio (y) = 0.16628 0.01163
# Poissons Ratio (z) = -0.25694 0.06247
#
# Static dielectric constant tensor:
#      x y z
#    x 1.799890 0.000000 0.008480 
#    y 0.000000 1.802200 0.000000 
#    z 0.008480 0.000000 1.793550 
# 
# From -- ./inp_files/295753.got.cif
#   From: 2010.05.17/outbox.cif.g08.bks.cpg/sg15_148_cif.got.tgz:295753.got - 2010.06.03 18:47:42.
