data_PCOD9257826
_publ_section_title
;
Structure prediction by ZEFSAII (Michael W. Deem and Ramdas Pophale) SiO2 
 PCOD9257826
Probable space group: C 2/C
;
_chemical_formula_sum "Si O2"
_cell_formula_units_Z 44
_cell_length_a 26.241397
_cell_length_b 9.418029
_cell_length_c 20.739741
_cell_angle_alpha 90.000000
_cell_angle_beta 162.897696
_cell_angle_gamma 90.000000
_cell_volume 1507.349501
_symmetry_space_group_name_H-M "C 2/C"
_symmetry_group_IT_number 15
_symmetry_cell_setting 'monoclinic'
loop_
_space_group_symop_operation_xyz
x,y,z
-x,y,1/2-z
-x,-y,-z
x,-y,1/2+z
1/2+x,1/2+y,z
1/2-x,1/2+y,1/2-z
1/2-x,1/2-y,-z
1/2+x,1/2-y,1/2+z
loop_
_atom_site_type_symbol
_atom_site_label
_atom_site_fract_x
_atom_site_fract_y
_atom_site_fract_z
Si Si1 0.500000 0.140177 0.250000
Si Si2 0.922945 0.695964 0.028325
Si Si3 0.208555 0.081230 0.447054
Si Si4 0.657668 0.945495 0.256995
Si Si5 0.630243 0.513821 0.218083
Si Si6 0.689416 0.231507 0.141936
O O1 0.491074 0.244693 0.301545
O O2 0.635782 0.022760 0.386688
O O3 0.757488 0.619050 0.862230
O O4 0.826393 0.802295 0.864459
O O5 0.048732 0.590822 0.139642
O O6 0.250000 0.250000 0.500000
O O7 0.201833 0.054440 0.515559
O O8 0.083270 0.045865 0.235157
O O9 0.752399 0.891619 0.306463
O O10 0.500222 0.826633 0.070872
O O11 0.762419 0.641211 0.361708
O O12 0.500000 0.500000 0.000000
#
# Coordination Sequence:
#
# PCOD9257826 Si02
#       6
#     4   8   8   8   8   8
#     4   8  18  34  50  78 108 148 196 230 296 350
#     4   9  19  33  54  77 114 153 194 236 290 363
#     4  10  18  32  54  80 112 148 190 240 296 345
#     4  10  21  34  54  86 114 152 193 243 295 351
#     4  10  20  35  54  84 117 149 193 241 301 350
#     4  11  20  35  58  83 116 154 196 241 300 352
#
# _framework density 29.190308999999999
#
# number of rings (size 3 to 8) (size 9 to 14) (size 15 to 20)
#    0.000    2.182    1.818    2.727    0.000    0.000 
#    0.000    0.000    0.000   21.818    0.000    0.000 
#    0.000    0.000    0.000    0.000    0.000    0.000 
#
# Total GULP energy -122533.212364 kJ/mol
# GULP energy per Si atom -5569.691471 kJ/mol
# Density = 2.912387 g / cm^3
# Si number density = 29.190309 Si / 1000 Ang^3
#
#
#
# Elastic Constant Matrix: (Units=GPa)
#
#
# Indices 1 2 3 4 5 6 
#
# 1 158.3734 66.7115 54.9898 -0.0001 -22.3721 -0.0002
# 2 66.7115 123.5669 34.2259 0.0001 -2.5650 0.0001
# 3 54.9898 34.2259 68.9740 -0.0001 -31.2543 -0.0001
# 4 -0.0001 0.0001 -0.0001 42.2833 0.0003 -6.4300
# 5 -22.3721 -2.5650 -31.2543 0.0003 51.7680 0.0003
# 6 -0.0002 0.0001 -0.0001 -6.4300 0.0003 46.9658
#
#
#
# Elastic Compliance Matrix: (Units=1/GPa)
#
#
# Indices 1 2 3 4 5 6 
#
# 1 0.010019 -0.003782 -0.005829 0.000000 0.000623 0.000000
# 2 -0.003782 0.011219 -0.004186 0.000000 -0.003606 0.000000
# 3 -0.005829 -0.004186 0.027514 0.000000 0.013885 0.000000
# 4 0.000000 0.000000 0.000000 0.024153 0.000000 0.003307
# 5 0.000623 -0.003606 0.013885 0.000000 0.027791 0.000000
# 6 0.000000 0.000000 0.000000 0.003307 0.000000 0.021745
#
#
# Mechanical properties :
#
#
# Convention : Reuss Voigt Hill
#
# Bulk Modulus (GPa) = 47.26012 73.64097 60.45055
# Shear Modulus (GPa) = 31.82974 41.20255 36.51614
#
# Velocity S-wave (km/s) = 3.30574 3.76109 3.54074
# Velocity P-wave (km/s) = 5.54942 6.64407 6.12126
#
# Compressibility (1/GPa) = 0.02115949
#
# Stress axis : x y z
#
# Youngs Moduli (GPa) = 99.80995 89.13434 36.34530
#
# Poissons Ratio (x) = 0.33708 0.21184
# Poissons Ratio (y) = 0.37745 0.15214
# Poissons Ratio (z) = 0.58176 0.37310
#
# Static dielectric constant tensor:
#      x y z
#    x 8.381520 -0.000020 -6.316090 
#    y -0.000020 2.383110 0.000020 
#    z -6.316090 0.000020 9.247350 
# 
# From -- ./inp_files/259184.got.cif
#   From: 2010.05.17/outbox.cif.g08.bks.cpg/sg15_130_cif.got.tgz:259184.got - 2010.06.03 18:47:42.
