data_PCOD9257219
_publ_section_title
;
Structure prediction by ZEFSAII (Michael W. Deem and Ramdas Pophale) SiO2 
 PCOD9257219
Probable space group: C 2/C
;
_chemical_formula_sum "Si O2"
_cell_formula_units_Z 56
_cell_length_a 20.888333
_cell_length_b 19.249768
_cell_length_c 8.874180
_cell_angle_alpha 90.000000
_cell_angle_beta 128.849849
_cell_angle_gamma 90.000000
_cell_volume 2778.940701
_symmetry_space_group_name_H-M "C 2/C"
_symmetry_group_IT_number 15
_symmetry_cell_setting 'monoclinic'
loop_
_space_group_symop_operation_xyz
x,y,z
-x,y,1/2-z
-x,-y,-z
x,-y,1/2+z
1/2+x,1/2+y,z
1/2-x,1/2+y,1/2-z
1/2-x,1/2-y,-z
1/2+x,1/2-y,1/2+z
loop_
_atom_site_type_symbol
_atom_site_label
_atom_site_fract_x
_atom_site_fract_y
_atom_site_fract_z
Si Si1 0.909979 0.164874 0.104306
Si Si2 0.581275 0.086915 0.663204
Si Si3 0.058027 0.305197 0.535242
Si Si4 0.000000 0.750968 0.250000
Si Si5 0.000000 0.479196 0.750000
Si Si6 0.773628 0.328966 0.602757
Si Si7 0.233390 0.353240 0.240079
Si Si8 0.152061 0.799426 0.655276
O O1 0.870297 0.179370 0.209290
O O2 0.000000 0.128871 0.250000
O O3 0.932030 0.235016 0.044056
O O4 0.830498 0.134581 0.901695
O O5 0.524191 0.152644 0.625453
O O6 0.566001 0.028642 0.764859
O O7 0.674779 0.104780 0.766107
O O8 0.541458 0.063230 0.445552
O O9 0.050899 0.291204 0.703614
O O10 0.147783 0.338731 0.671444
O O11 0.064628 0.789827 0.447186
O O12 0.750000 0.250000 0.500000
O O13 0.785599 0.368455 0.463456
O O14 0.700594 0.347334 0.608958
O O15 0.204614 0.273034 0.233382
#
# Coordination Sequence:
#
# PCOD9257219 Si02
#       8
#     8   8   8   4   4   8   8   8
#     4  12  23  32  46  83 120 150 182 225 269 348
#     4  11  23  39  61  81 111 154 189 249 291 329
#     4  12  20  32  55  76 112 152 189 220 286 334
#     4  12  17  30  46  68  96 156 194 210 251 324
#     4  10  25  42  56  86 108 138 210 250 287 330
#     4  10  18  31  46  72 103 146 195 215 247 339
#     4  11  20  35  54  75 110 151 188 225 285 336
#     4  11  21  29  47  73 111 150 195 217 254 329
#
# _framework density 20.151562999999999
#
# number of rings (size 3 to 8) (size 9 to 14) (size 15 to 20)
#    0.000    0.857    8.571    1.714    3.000    0.000 
#    0.000    0.000    0.000    0.000    0.000    1.000 
#    0.000    0.000    0.000    0.000    0.000    0.000 
#
# Total GULP energy -155988.762225 kJ/mol
# GULP energy per Si atom -5571.027222 kJ/mol
# Density = 2.010570 g / cm^3
# Si number density = 20.151563 Si / 1000 Ang^3
#
#
#
# Elastic Constant Matrix: (Units=GPa)
#
#
# Indices 1 2 3 4 5 6 
#
# 1 126.5679 20.6321 17.5742 0.0000 0.7811 0.0000
# 2 20.6321 16.3856 -3.7413 0.0000 1.0186 0.0000
# 3 17.5742 -3.7413 54.5057 0.0000 18.7040 0.0000
# 4 0.0000 0.0000 0.0000 -4.3247 0.0000 5.7189
# 5 0.7811 1.0186 18.7040 0.0000 58.8128 0.0000
# 6 0.0000 0.0000 0.0000 5.7189 0.0000 0.7798
#
#
#
# Elastic Compliance Matrix: (Units=1/GPa)
#
#
# Indices 1 2 3 4 5 6 
#
# 1 0.011113 -0.015301 -0.005246 0.000000 0.001786 0.000000
# 2 -0.015301 0.083461 0.012447 0.000000 -0.005201 0.000000
# 3 -0.005246 0.012447 0.023508 0.000000 -0.007622 0.000000
# 4 0.000000 0.000000 0.000000 -0.021614 0.000000 0.158514
# 5 0.001786 -0.005201 -0.007622 0.000000 0.019493 0.000000
# 6 0.000000 0.000000 0.000000 0.158514 0.000000 0.119871
#
#
# Mechanical properties :
#
#
# Convention : Reuss Voigt Hill
#
# Bulk Modulus (GPa) = 9.81533 29.59881 19.70707
# Shear Modulus (GPa) = 17.48291 21.91986 19.70139
#
# Velocity S-wave (km/s) = 2.94865 3.30168 3.13015
# Velocity P-wave (km/s) = 4.05882 5.40877 4.78168
#
# Compressibility (1/GPa) = 0.10188145
#
# Stress axis : x y z
#
# Youngs Moduli (GPa) = 89.98756 11.98158 42.53835
#
# Poissons Ratio (x) = 0.18334 0.22316
# Poissons Ratio (y) = 1.37694 -0.52948
# Poissons Ratio (z) = 0.47209 -0.14914
#
# Static dielectric constant tensor:
#      x y z
#    x 1.743140 0.000000 -0.057960 
#    y 0.000000 1.749930 0.000000 
#    z -0.057960 0.000000 1.659260 
# 
# From -- ./inp_files/58522.got.cif
#   From: 2010.05.17/outbox.cif.g08.bks.cpg/sg15_30_cif.got.tgz:58522.got - 2010.06.03 18:47:42.
