data_PCOD9257487
_publ_section_title
;
Structure prediction by ZEFSAII (Michael W. Deem and Ramdas Pophale) SiO2 
 PCOD9257487
Probable space group: C 2/C
;
_chemical_formula_sum "Si O2"
_cell_formula_units_Z 40
_cell_length_a 12.368605
_cell_length_b 18.996986
_cell_length_c 6.844768
_cell_angle_alpha 90.000000
_cell_angle_beta 116.580919
_cell_angle_gamma 90.000000
_cell_volume 1438.298376
_symmetry_space_group_name_H-M "C 2/C"
_symmetry_group_IT_number 15
_symmetry_cell_setting 'monoclinic'
loop_
_space_group_symop_operation_xyz
x,y,z
-x,y,1/2-z
-x,-y,-z
x,-y,1/2+z
1/2+x,1/2+y,z
1/2-x,1/2+y,1/2-z
1/2-x,1/2-y,-z
1/2+x,1/2-y,1/2+z
loop_
_atom_site_type_symbol
_atom_site_label
_atom_site_fract_x
_atom_site_fract_y
_atom_site_fract_z
Si Si1 0.601407 0.796056 0.591488
Si Si2 0.800804 0.045104 0.784326
Si Si3 0.628361 0.940163 0.458748
Si Si4 0.457144 0.592195 0.440435
Si Si5 0.647802 0.746695 0.175665
O O1 0.619537 0.880215 0.614004
O O2 0.623978 0.772374 0.380480
O O3 0.460808 0.784840 0.524532
O O4 0.711643 0.751408 0.770230
O O5 0.689725 0.013186 0.571735
O O6 0.868551 0.973225 0.912513
O O7 0.728827 0.087801 0.889093
O O8 0.918667 0.091070 0.833583
O O9 0.500000 0.949175 0.250000
O O10 0.500000 0.579962 0.250000
O O11 0.389326 0.665258 0.378571
#
# Coordination Sequence:
#
# PCOD9257487 Si02
#       5
#     8   8   8   8   8
#     4  10  19  31  57  87 122 146 191 262 311 336
#     4  11  24  36  59  84 128 166 202 242 297 372
#     4  12  23  41  55  91 130 163 199 242 314 372
#     4  11  19  37  61  87 123 151 204 257 296 353
#     4  10  18  31  55  87 118 145 191 260 311 332
#
# _framework density 27.810639999999999
#
# number of rings (size 3 to 8) (size 9 to 14) (size 15 to 20)
#    0.000    1.200    8.000    0.600    2.800    0.000 
#    0.000    0.000    0.000    0.000    0.000    8.400 
#    0.000    0.000    0.000    0.000    0.000    0.000 
#
# Total GULP energy -111789.927611 kJ/mol
# GULP energy per Si atom -5589.496381 kJ/mol
# Density = 2.774734 g / cm^3
# Si number density = 27.810640 Si / 1000 Ang^3
#
#
#
# Elastic Constant Matrix: (Units=GPa)
#
#
# Indices 1 2 3 4 5 6 
#
# 1 147.9472 17.0875 26.7612 0.0000 53.8908 0.0000
# 2 17.0875 103.5020 9.1850 0.0000 7.4390 0.0000
# 3 26.7612 9.1850 131.4702 0.0000 34.8814 0.0000
# 4 0.0000 0.0000 0.0000 22.6392 0.0000 17.6629
# 5 53.8908 7.4390 34.8814 0.0000 45.3474 0.0000
# 6 0.0000 0.0000 0.0000 17.6629 0.0000 31.4734
#
#
#
# Elastic Compliance Matrix: (Units=1/GPa)
#
#
# Indices 1 2 3 4 5 6 
#
# 1 0.012331 -0.001054 0.001766 0.000000 -0.015840 0.000000
# 2 -0.001054 0.009878 -0.000475 0.000000 -0.000002 0.000000
# 3 0.001766 -0.000475 0.009820 0.000000 -0.009575 0.000000
# 4 0.000000 0.000000 0.000000 0.078574 0.000000 -0.044096
# 5 -0.015840 -0.000002 -0.009575 0.000000 0.048242 0.000000
# 6 0.000000 0.000000 0.000000 -0.044096 0.000000 0.056520
#
#
# Mechanical properties :
#
#
# Convention : Reuss Voigt Hill
#
# Bulk Modulus (GPa) = 30.76523 54.33187 42.54855
# Shear Modulus (GPa) = 22.15078 41.88438 32.01758
#
# Velocity S-wave (km/s) = 2.82527 3.88500 3.39672
# Velocity P-wave (km/s) = 4.66147 6.30104 5.54222
#
# Compressibility (1/GPa) = 0.03250423
#
# Stress axis : x y z
#
# Youngs Moduli (GPa) = 81.09423 101.23519 101.82947
#
# Poissons Ratio (x) = 0.10671 -0.17986
# Poissons Ratio (y) = 0.08548 0.04836
# Poissons Ratio (z) = -0.14323 0.04808
#
# Static dielectric constant tensor:
#      x y z
#    x 2.222600 0.000000 -0.089230 
#    y 0.000000 2.079600 0.000000 
#    z -0.089230 0.000000 2.326190 
# 
# From -- ./inp_files/41072.got.cif
#   From: 2010.05.17/outbox.cif.g08.bks.cpg/sg15_21_cif.got.tgz:41072.got - 2010.06.03 18:47:42.
