data_PCOD9257289
_publ_section_title
;
Structure prediction by ZEFSAII (Michael W. Deem and Ramdas Pophale) SiO2 
 PCOD9257289
Probable space group: C 2/C
;
_chemical_formula_sum "Si O2"
_cell_formula_units_Z 60
_cell_length_a 21.436815
_cell_length_b 19.652141
_cell_length_c 15.298230
_cell_angle_alpha 90.000000
_cell_angle_beta 28.201238
_cell_angle_gamma 90.000000
_cell_volume 3045.631028
_symmetry_space_group_name_H-M "C 2/C"
_symmetry_group_IT_number 15
_symmetry_cell_setting 'monoclinic'
loop_
_space_group_symop_operation_xyz
x,y,z
-x,y,1/2-z
-x,-y,-z
x,-y,1/2+z
1/2+x,1/2+y,z
1/2-x,1/2+y,1/2-z
1/2-x,1/2-y,-z
1/2+x,1/2-y,1/2+z
loop_
_atom_site_type_symbol
_atom_site_label
_atom_site_fract_x
_atom_site_fract_y
_atom_site_fract_z
Si Si1 0.097344 0.766457 0.212637
Si Si2 0.745651 0.445799 0.247574
Si Si3 0.334974 0.001718 0.319710
Si Si4 0.585817 0.510690 0.223176
Si Si5 0.490504 0.610188 0.562604
Si Si6 0.010371 0.378165 0.631646
Si Si7 0.744747 0.406498 0.658416
Si Si8 0.500000 0.091055 0.750000
O O1 0.080625 0.829245 0.298659
O O2 0.039822 0.697076 0.324143
O O3 0.000000 0.780511 0.250000
O O4 0.250000 0.750000 0.000000
O O5 0.783201 0.459207 0.301321
O O6 0.600688 0.416975 0.404628
O O7 0.769848 0.518971 0.170771
O O8 0.843257 0.392788 0.081054
O O9 0.422089 0.955449 0.276527
O O10 0.210085 0.029183 0.528066
O O11 0.422859 0.066520 0.188443
O O12 0.500000 0.536299 0.250000
O O13 0.506660 0.456650 0.378954
O O14 0.653922 0.572356 0.188815
O O15 0.639877 0.629850 0.351441
O O16 0.000000 0.389370 0.750000
O O17 0.881204 0.375167 0.453791
#
# Coordination Sequence:
#
# PCOD9257289 Si02
#       8
#     8   8   8   8   8   8   8   4
#     4  11  24  41  61  88 128 178 215 242 300 373
#     4  11  21  34  56  85 120 158 202 254 313 367
#     4  11  19  33  55  83 118 155 196 245 314 366
#     4  10  18  31  50  76 112 152 190 242 306 357
#     4  11  21  36  55  85 124 160 203 253 299 367
#     4  11  20  36  56  83 124 165 203 250 295 366
#     4  10  20  33  52  80 118 151 194 247 313 362
#     4  10  20  34  52  82 120 152 182 248 316 372
#
# _framework density 19.70035
#
# number of rings (size 3 to 8) (size 9 to 14) (size 15 to 20)
#    0.000    1.333    2.000    8.000    0.000    1.067 
#    0.000    0.000    0.000    0.000    0.000    3.733 
#    8.000    0.000    0.000    0.000    0.000    0.000 
#
# Total GULP energy -167337.801222 kJ/mol
# GULP energy per Si atom -5577.926707 kJ/mol
# Density = 1.965551 g / cm^3
# Si number density = 19.700350 Si / 1000 Ang^3
#
#
#
# Elastic Constant Matrix: (Units=GPa)
#
#
# Indices 1 2 3 4 5 6 
#
# 1 119.3317 19.6089 13.3992 0.0007 -0.9043 -0.0007
# 2 19.6089 60.3921 25.3029 0.0008 4.0683 -0.0008
# 3 13.3992 25.3029 164.4212 0.0008 -7.8052 -0.0008
# 4 0.0007 0.0008 0.0008 30.7761 -0.0007 2.7024
# 5 -0.9043 4.0683 -7.8052 -0.0007 18.9716 0.0008
# 6 -0.0007 -0.0008 -0.0008 2.7024 0.0008 19.5088
#
#
#
# Elastic Compliance Matrix: (Units=1/GPa)
#
#
# Indices 1 2 3 4 5 6 
#
# 1 0.008882 -0.002846 -0.000242 0.000000 0.000934 0.000000
# 2 -0.002846 0.019092 -0.002965 -0.000001 -0.005449 0.000001
# 3 -0.000242 -0.002965 0.006719 0.000000 0.003388 0.000000
# 4 0.000000 -0.000001 0.000000 0.032893 0.000002 -0.004556
# 5 0.000934 -0.005449 0.003388 0.000002 0.055318 -0.000002
# 6 0.000000 0.000001 0.000000 -0.004556 -0.000002 0.051890
#
#
# Mechanical properties :
#
#
# Convention : Reuss Voigt Hill
#
# Bulk Modulus (GPa) = 44.27069 51.19634 47.73351
# Shear Modulus (GPa) = 25.71670 32.90688 29.31179
#
# Velocity S-wave (km/s) = 3.61694 4.09145 3.86149
# Velocity P-wave (km/s) = 6.32170 6.95442 6.64559
#
# Compressibility (1/GPa) = 0.02258831
#
# Stress axis : x y z
#
# Youngs Moduli (GPa) = 112.58983 52.37875 148.83749
#
# Poissons Ratio (x) = 0.14905 0.03595
# Poissons Ratio (y) = 0.32038 0.44128
# Poissons Ratio (z) = 0.02720 0.15529
#
# Static dielectric constant tensor:
#      x y z
#    x 1.743500 0.000000 0.002660 
#    y 0.000000 1.636610 0.000000 
#    z 0.002660 0.000000 1.796460 
# 
# From -- ./inp_files/169458.got.cif
#   From: 2010.05.17/outbox.cif.g08.bks.cpg/sg15_85_cif.got.tgz:169458.got - 2010.06.03 18:47:42.
