data_PCOD9257864
_publ_section_title
;
Structure prediction by ZEFSAII (Michael W. Deem and Ramdas Pophale) SiO2 
 PCOD9257864
Probable space group: C 2/C
;
_chemical_formula_sum "Si O2"
_cell_formula_units_Z 52
_cell_length_a 27.796938
_cell_length_b 9.091245
_cell_length_c 20.225707
_cell_angle_alpha 90.000000
_cell_angle_beta 146.798570
_cell_angle_gamma 90.000000
_cell_volume 2798.819343
_symmetry_space_group_name_H-M "C 2/C"
_symmetry_group_IT_number 15
_symmetry_cell_setting 'monoclinic'
loop_
_space_group_symop_operation_xyz
x,y,z
-x,y,1/2-z
-x,-y,-z
x,-y,1/2+z
1/2+x,1/2+y,z
1/2-x,1/2+y,1/2-z
1/2-x,1/2-y,-z
1/2+x,1/2-y,1/2+z
loop_
_atom_site_type_symbol
_atom_site_label
_atom_site_fract_x
_atom_site_fract_y
_atom_site_fract_z
Si Si1 0.638884 0.556558 0.632919
Si Si2 0.235905 0.201018 0.093611
Si Si3 0.418127 0.096829 0.023542
Si Si4 0.500000 0.086340 0.250000
Si Si5 0.811373 0.612607 0.313040
Si Si6 0.011639 0.898381 0.110499
Si Si7 0.629987 0.341017 0.354675
O O1 0.720782 0.449643 0.738426
O O2 0.672042 0.717556 0.651502
O O3 0.575768 0.488370 0.505074
O O4 0.580487 0.570935 0.631521
O O5 0.168731 0.310694 0.053861
O O6 0.292727 0.113102 0.212650
O O7 0.299193 0.296578 0.119370
O O8 0.178818 0.104527 0.976427
O O9 0.388571 0.987491 0.931722
O O10 0.461380 0.017577 0.137859
O O11 0.485061 0.225862 0.078930
O O12 0.579431 0.193193 0.318943
O O13 0.056251 0.933246 0.231955
#
# Coordination Sequence:
#
# PCOD9257864 Si02
#       7
#     8   8   8   4   8   8   8
#     4  11  22  33  56  80 116 139 188 217 288 320
#     4  10  18  32  54  85 103 145 183 230 266 323
#     4  10  19  34  58  76 115 136 193 221 279 320
#     4   8  18  32  52  80 100 146 176 238 268 320
#     4  12  20  36  53  84 110 153 174 234 269 344
#     4  10  19  37  54  85 104 146 179 241 268 322
#     4   9  17  32  55  79 107 133 194 232 265 308
#
# _framework density 18.579262
#
# number of rings (size 3 to 8) (size 9 to 14) (size 15 to 20)
#    0.000    1.846    4.615    0.000    0.000    0.615 
#    0.000    0.000    3.385    0.000    0.000    6.462 
#    0.000    0.000    0.000    0.000    0.000    0.000 
#
# Total GULP energy -144825.830079 kJ/mol
# GULP energy per Si atom -5570.224234 kJ/mol
# Density = 1.853698 g / cm^3
# Si number density = 18.579262 Si / 1000 Ang^3
#
#
#
# Elastic Constant Matrix: (Units=GPa)
#
#
# Indices 1 2 3 4 5 6 
#
# 1 43.8279 16.6501 12.5146 0.0000 -0.2012 0.0000
# 2 16.6501 65.1541 51.8826 0.0000 -5.9705 0.0000
# 3 12.5146 51.8826 191.0538 0.0000 -39.0857 0.0000
# 4 0.0000 0.0000 0.0000 34.9774 0.0000 3.6467
# 5 -0.2012 -5.9705 -39.0857 0.0000 32.2626 0.0000
# 6 0.0000 0.0000 0.0000 3.6467 0.0000 12.0216
#
#
#
# Elastic Compliance Matrix: (Units=1/GPa)
#
#
# Indices 1 2 3 4 5 6 
#
# 1 0.025308 -0.006456 -0.000155 0.000000 -0.001225 0.000000
# 2 -0.006456 0.021577 -0.006153 0.000000 -0.003501 0.000000
# 3 -0.000155 -0.006153 0.008884 0.000000 0.009623 0.000000
# 4 0.000000 0.000000 0.000000 0.029524 0.000000 -0.008956
# 5 -0.001225 -0.003501 0.009623 0.000000 0.041998 0.000000
# 6 0.000000 0.000000 0.000000 -0.008956 0.000000 0.085900
#
#
# Mechanical properties :
#
#
# Convention : Reuss Voigt Hill
#
# Bulk Modulus (GPa) = 33.06839 51.34784 42.20811
# Shear Modulus (GPa) = 20.09657 30.45155 25.27406
#
# Velocity S-wave (km/s) = 3.29244 4.05286 3.69228
# Velocity P-wave (km/s) = 5.68249 7.04259 6.39878
#
# Compressibility (1/GPa) = 0.03024036
#
# Stress axis : x y z
#
# Youngs Moduli (GPa) = 39.51348 46.34621 112.56421
#
# Poissons Ratio (x) = 0.29922 0.01746
# Poissons Ratio (y) = 0.25510 0.69258
# Poissons Ratio (z) = 0.00613 0.28516
#
# Static dielectric constant tensor:
#      x y z
#    x 1.673840 0.000000 -0.003920 
#    y 0.000000 1.613270 0.000000 
#    z -0.003920 0.000000 1.739260 
# 
# From -- ./inp_files/221919.got.cif
#   From: 2010.05.17/outbox.cif.g08.bks.cpg/sg15_111_cif.got.tgz:221919.got - 2010.06.03 18:47:42.
