data_PCOD9257061
_publ_section_title
;
Structure prediction by ZEFSAII (Michael W. Deem and Ramdas Pophale) SiO2 
 PCOD9257061
Probable space group: C 2/C
;
_chemical_formula_sum "Si O2"
_cell_formula_units_Z 48
_cell_length_a 21.690649
_cell_length_b 6.858095
_cell_length_c 15.104969
_cell_angle_alpha 90.000000
_cell_angle_beta 51.785811
_cell_angle_gamma 90.000000
_cell_volume 1765.447035
_symmetry_space_group_name_H-M "C 2/C"
_symmetry_group_IT_number 15
_symmetry_cell_setting 'monoclinic'
loop_
_space_group_symop_operation_xyz
x,y,z
-x,y,1/2-z
-x,-y,-z
x,-y,1/2+z
1/2+x,1/2+y,z
1/2-x,1/2+y,1/2-z
1/2-x,1/2-y,-z
1/2+x,1/2-y,1/2+z
loop_
_atom_site_type_symbol
_atom_site_label
_atom_site_fract_x
_atom_site_fract_y
_atom_site_fract_z
Si Si1 0.008878 0.050372 0.842725
Si Si2 0.179702 0.962436 0.224839
Si Si3 0.654566 0.487439 0.932732
Si Si4 0.184550 0.556937 0.143056
Si Si5 0.450287 0.992134 0.875625
Si Si6 0.152957 0.474517 0.377376
O O1 0.997586 0.287718 0.853099
O O2 0.000000 0.002389 0.750000
O O3 0.091763 0.956891 0.794896
O O4 0.932874 0.974401 0.959555
O O5 0.182609 0.790427 0.152254
O O6 0.265007 0.054869 0.153673
O O7 0.173156 0.884242 0.330896
O O8 0.725111 0.511115 0.939303
O O9 0.657715 0.259612 0.897496
O O10 0.132432 0.516269 0.104310
O O11 0.153298 0.491116 0.269527
O O12 0.500000 0.084737 0.750000
O O13 0.421463 0.050636 0.999743
#
# Coordination Sequence:
#
# PCOD9257061 Si02
#       6
#     8   8   8   8   8   8
#     4  10  18  30  52  82 101 134 176 223 256 303
#     4  10  18  34  55  77 106 134 180 217 261 316
#     4   9  20  33  53  78 106 139 173 220 268 310
#     4  10  19  35  57  77 107 140 181 220 259 316
#     4  10  19  34  52  82 103 138 181 220 257 311
#     4   9  21  34  56  79 106 143 173 220 271 308
#
# _framework density 27.188582
#
# number of rings (size 3 to 8) (size 9 to 14) (size 15 to 20)
#    0.000    2.333    3.333    0.500    2.333    2.667 
#    0.000    0.000    3.667    4.000    0.000    0.000 
#    0.000    0.000    0.000    0.000    0.000    0.000 
#
# Total GULP energy -133853.214516 kJ/mol
# GULP energy per Si atom -5577.217271 kJ/mol
# Density = 2.712670 g / cm^3
# Si number density = 27.188582 Si / 1000 Ang^3
#
#
#
# Elastic Constant Matrix: (Units=GPa)
#
#
# Indices 1 2 3 4 5 6 
#
# 1 143.8305 19.2034 19.1411 0.0009 -12.7148 -0.0007
# 2 19.2034 82.0479 28.1236 -0.0017 -9.3105 -0.0016
# 3 19.1411 28.1236 167.4503 0.0012 -6.1693 -0.0009
# 4 0.0009 -0.0017 0.0012 16.2674 -0.0008 7.9067
# 5 -12.7148 -9.3105 -6.1693 -0.0008 40.7495 0.0002
# 6 -0.0007 -0.0016 -0.0009 7.9067 0.0002 35.9745
#
#
#
# Elastic Compliance Matrix: (Units=1/GPa)
#
#
# Indices 1 2 3 4 5 6 
#
# 1 0.007371 -0.001319 -0.000550 0.000000 0.001915 0.000000
# 2 -0.001319 0.013458 -0.002023 0.000002 0.002357 0.000000
# 3 -0.000550 -0.002023 0.006387 -0.000001 0.000333 0.000000
# 4 0.000000 0.000002 -0.000001 0.068825 0.000002 -0.015127
# 5 0.001915 0.002357 0.000333 0.000002 0.025727 0.000000
# 6 0.000000 0.000000 0.000000 -0.015127 0.000000 0.031122
#
#
# Mechanical properties :
#
#
# Convention : Reuss Voigt Hill
#
# Bulk Modulus (GPa) = 51.46400 58.47387 54.96894
# Shear Modulus (GPa) = 29.91311 40.38900 35.15106
#
# Velocity S-wave (km/s) = 3.32054 3.85842 3.59954
# Velocity P-wave (km/s) = 5.80267 6.43454 6.12675
#
# Compressibility (1/GPa) = 0.01943106
#
# Stress axis : x y z
#
# Youngs Moduli (GPa) = 135.66065 74.30798 156.57262
#
# Poissons Ratio (x) = 0.09803 0.08619
# Poissons Ratio (y) = 0.17897 0.31668
# Poissons Ratio (z) = 0.07468 0.15029
#
# Static dielectric constant tensor:
#      x y z
#    x 1.378880 0.000000 0.716460 
#    y 0.000000 2.246610 0.000000 
#    z 0.716460 0.000000 1.290180 
# 
# From -- ./inp_files/167157.got.cif
#   From: 2010.05.17/outbox.cif.g08.bks.cpg/sg15_84_cif.got.tgz:167157.got - 2010.06.03 18:47:42.
