data_PCOD9257529
_publ_section_title
;
Structure prediction by ZEFSAII (Michael W. Deem and Ramdas Pophale) SiO2 
 PCOD9257529
Probable space group: C 2/C
;
_chemical_formula_sum "Si O2"
_cell_formula_units_Z 48
_cell_length_a 23.232180
_cell_length_b 6.883580
_cell_length_c 12.337310
_cell_angle_alpha 90.000000
_cell_angle_beta 107.861414
_cell_angle_gamma 90.000000
_cell_volume 1877.893866
_symmetry_space_group_name_H-M "C 2/C"
_symmetry_group_IT_number 15
_symmetry_cell_setting 'monoclinic'
loop_
_space_group_symop_operation_xyz
x,y,z
-x,y,1/2-z
-x,-y,-z
x,-y,1/2+z
1/2+x,1/2+y,z
1/2-x,1/2+y,1/2-z
1/2-x,1/2-y,-z
1/2+x,1/2-y,1/2+z
loop_
_atom_site_type_symbol
_atom_site_label
_atom_site_fract_x
_atom_site_fract_y
_atom_site_fract_z
Si Si1 0.557443 0.769331 0.208650
Si Si2 0.779226 0.865973 0.179253
Si Si3 0.517256 0.291529 0.452591
Si Si4 0.329373 0.751226 0.097681
Si Si5 0.585042 0.690307 0.763975
Si Si6 0.724253 0.506341 0.585523
O O1 0.500000 0.814069 0.250000
O O2 0.615053 0.846104 0.308139
O O3 0.571842 0.538023 0.230824
O O4 0.545125 0.811262 0.075160
O O5 0.844780 0.762608 0.210604
O O6 0.728909 0.724763 0.097791
O O7 0.835584 0.119272 0.991627
O O8 0.760938 0.908379 0.289802
O O9 0.500000 0.500000 0.500000
O O10 0.457758 0.214836 0.353061
O O11 0.563504 0.291909 0.376871
O O12 0.299365 0.577929 0.150003
O O13 0.281000 0.917882 0.048543
#
# Coordination Sequence:
#
# PCOD9257529 Si02
#       6
#     8   8   8   8   8   8
#     4  10  18  31  57  89 118 159 205 256 312 375
#     4  11  22  39  65  89 123 166 212 264 322 374
#     4   9  15  31  51  87 121 149 208 248 296 387
#     4  10  24  40  63  91 125 168 208 264 322 375
#     4   9  18  30  53  89 116 162 199 255 311 365
#     4  11  23  44  60  93 125 164 220 264 314 384
#
# _framework density 25.560551
#
# number of rings (size 3 to 8) (size 9 to 14) (size 15 to 20)
#    0.000    2.000    5.000    0.500    2.333    4.000 
#    3.000    0.000    3.667    1.000    0.000    0.000 
#    0.000    0.000    0.000    0.000    0.000    0.000 
#
# Total GULP energy -133652.296018 kJ/mol
# GULP energy per Si atom -5568.845667 kJ/mol
# Density = 2.550237 g / cm^3
# Si number density = 25.560551 Si / 1000 Ang^3
#
#
#
# Elastic Constant Matrix: (Units=GPa)
#
#
# Indices 1 2 3 4 5 6 
#
# 1 90.8132 8.5888 39.6095 0.0000 23.0687 0.0000
# 2 8.5888 99.7785 20.8985 0.0000 -10.5924 0.0000
# 3 39.6095 20.8985 172.6304 0.0000 13.9911 0.0000
# 4 0.0000 0.0000 0.0000 31.3495 0.0000 5.6074
# 5 23.0687 -10.5924 13.9911 0.0000 26.1031 0.0000
# 6 0.0000 0.0000 0.0000 5.6074 0.0000 21.3347
#
#
#
# Elastic Compliance Matrix: (Units=1/GPa)
#
#
# Indices 1 2 3 4 5 6 
#
# 1 0.015646 -0.002327 -0.002207 0.000000 -0.013589 0.000000
# 2 -0.002327 0.011311 -0.001436 0.000000 0.007416 0.000000
# 3 -0.002207 -0.001436 0.006651 0.000000 -0.002197 0.000000
# 4 0.000000 0.000000 0.000000 0.033472 0.000000 -0.008797
# 5 -0.013589 0.007416 -0.002197 0.000000 0.054506 0.000000
# 6 0.000000 0.000000 0.000000 -0.008797 0.000000 0.049184
#
#
# Mechanical properties :
#
#
# Convention : Reuss Voigt Hill
#
# Bulk Modulus (GPa) = 46.15303 55.71286 50.93294
# Shear Modulus (GPa) = 26.32503 35.36582 30.84543
#
# Velocity S-wave (km/s) = 3.21270 3.72373 3.47761
# Velocity P-wave (km/s) = 5.64424 6.35074 6.00789
#
# Compressibility (1/GPa) = 0.02166705
#
# Stress axis : x y z
#
# Youngs Moduli (GPa) = 63.91345 88.41213 150.35171
#
# Poissons Ratio (x) = 0.20575 0.33181
# Poissons Ratio (y) = 0.14874 0.21596
# Poissons Ratio (z) = 0.14105 0.12699
#
# Static dielectric constant tensor:
#      x y z
#    x 1.975200 0.000000 0.133570 
#    y 0.000000 2.124030 0.000000 
#    z 0.133570 0.000000 2.279220 
# 
# From -- ./inp_files/121161.got.cif
#   From: 2010.05.17/outbox.cif.g08.bks.cpg/sg15_61_cif.got.tgz:121161.got - 2010.06.03 18:47:42.
