data_PCOD9257305
_publ_section_title
;
Structure prediction by ZEFSAII (Michael W. Deem and Ramdas Pophale) SiO2 
 PCOD9257305
Probable space group: C 2/C
;
_chemical_formula_sum "Si O2"
_cell_formula_units_Z 52
_cell_length_a 18.752165
_cell_length_b 17.904514
_cell_length_c 11.679907
_cell_angle_alpha 90.000000
_cell_angle_beta 39.572603
_cell_angle_gamma 90.000000
_cell_volume 2498.219506
_symmetry_space_group_name_H-M "C 2/C"
_symmetry_group_IT_number 15
_symmetry_cell_setting 'monoclinic'
loop_
_space_group_symop_operation_xyz
x,y,z
-x,y,1/2-z
-x,-y,-z
x,-y,1/2+z
1/2+x,1/2+y,z
1/2-x,1/2+y,1/2-z
1/2-x,1/2-y,-z
1/2+x,1/2-y,1/2+z
loop_
_atom_site_type_symbol
_atom_site_label
_atom_site_fract_x
_atom_site_fract_y
_atom_site_fract_z
Si Si1 0.279820 0.834101 0.001246
Si Si2 0.500000 0.552989 0.750000
Si Si3 0.920609 0.826899 0.082967
Si Si4 0.763293 0.179100 0.564690
Si Si5 0.297902 0.376514 0.628700
Si Si6 0.100134 0.718849 0.942868
Si Si7 0.875181 0.931956 0.752688
O O1 0.173765 0.857271 0.212926
O O2 0.382552 0.826002 0.961486
O O3 0.250000 0.750000 0.000000
O O4 0.288129 0.878473 0.871283
O O5 0.586408 0.604507 0.577641
O O6 0.432635 0.501601 0.743476
O O7 0.858029 0.808087 0.042956
O O8 0.980984 0.755226 0.064395
O O9 0.019089 0.882984 0.922872
O O10 0.750000 0.250000 0.500000
O O11 0.648356 0.171327 0.777801
O O12 0.804695 0.110865 0.436505
O O13 0.316036 0.291954 0.652135
O O14 0.295717 0.433665 0.738133
#
# Coordination Sequence:
#
# PCOD9257305 Si02
#       7
#     8   4   8   8   8   8   8
#     4   9  19  33  49  74 104 145 181 224 274 330
#     4  12  22  34  50  80 118 154 192 208 268 366
#     4  10  18  31  51  73 105 144 179 223 278 320
#     4  11  18  31  52  73 109 145 186 232 269 332
#     4  10  19  32  49  70 106 145 181 220 262 318
#     4   9  19  32  53  75 103 147 184 228 279 325
#     4  11  21  34  50  77 108 156 180 216 276 327
#
# _framework density 20.814824000000002
#
# number of rings (size 3 to 8) (size 9 to 14) (size 15 to 20)
#    0.000    1.846    4.615    2.308    0.000    3.077 
#    0.000    0.000    0.000    0.000    0.000    0.000 
#    0.000   27.077    0.000    0.000    0.000    0.000 
#
# Total GULP energy -144982.713655 kJ/mol
# GULP energy per Si atom -5576.258218 kJ/mol
# Density = 2.076745 g / cm^3
# Si number density = 20.814824 Si / 1000 Ang^3
#
#
#
# Elastic Constant Matrix: (Units=GPa)
#
#
# Indices 1 2 3 4 5 6 
#
# 1 127.3279 6.0107 27.6608 0.0000 42.3211 0.0000
# 2 6.0107 35.9848 22.8273 0.0000 6.3490 0.0000
# 3 27.6608 22.8273 76.7267 0.0000 16.7311 0.0000
# 4 0.0000 0.0000 0.0000 -14.0860 0.0000 -0.3334
# 5 42.3211 6.3490 16.7311 0.0000 33.0922 0.0000
# 6 0.0000 0.0000 0.0000 -0.3334 0.0000 35.8793
#
#
#
# Elastic Compliance Matrix: (Units=1/GPa)
#
#
# Indices 1 2 3 4 5 6 
#
# 1 0.013869 0.001861 -0.001807 0.000000 -0.017180 0.000000
# 2 0.001861 0.034579 -0.010107 0.000000 -0.003904 0.000000
# 3 -0.001807 -0.010107 0.017718 0.000000 -0.004708 0.000000
# 4 0.000000 0.000000 0.000000 -0.070977 0.000000 -0.000659
# 5 -0.017180 -0.003904 -0.004708 0.000000 0.055319 0.000000
# 6 0.000000 0.000000 0.000000 -0.000659 0.000000 0.027865
#
#
# Mechanical properties :
#
#
# Convention : Reuss Voigt Hill
#
# Bulk Modulus (GPa) = 21.71124 39.22636 30.46880
# Shear Modulus (GPa) = 43.92356 23.21313 33.56835
#
# Velocity S-wave (km/s) = 4.59868 3.34312 4.02022
# Velocity P-wave (km/s) = 6.21695 5.81276 6.01825
#
# Compressibility (1/GPa) = 0.04605909
#
# Stress axis : x y z
#
# Youngs Moduli (GPa) = 72.10473 28.91913 56.43819
#
# Poissons Ratio (x) = -0.05382 0.10200
# Poissons Ratio (y) = -0.13419 0.57044
# Poissons Ratio (z) = 0.13031 0.29230
#
# Static dielectric constant tensor:
#      x y z
#    x 1.859430 0.000000 0.017660 
#    y 0.000000 1.733430 0.000000 
#    z 0.017660 0.000000 1.792300 
# 
# From -- ./inp_files/113621.got.cif
#   From: 2010.05.17/outbox.cif.g08.bks.cpg/sg15_57_cif.got.tgz:113621.got - 2010.06.03 18:47:42.
