data_PCOD9257674
_publ_section_title
;
Structure prediction by ZEFSAII (Michael W. Deem and Ramdas Pophale) SiO2 
 PCOD9257674
Probable space group: C 2/C
;
_chemical_formula_sum "Si O2"
_cell_formula_units_Z 44
_cell_length_a 5.286871
_cell_length_b 27.655165
_cell_length_c 13.783836
_cell_angle_alpha 90.000000
_cell_angle_beta 102.874140
_cell_angle_gamma 90.000000
_cell_volume 1964.663348
_symmetry_space_group_name_H-M "C 2/C"
_symmetry_group_IT_number 15
_symmetry_cell_setting 'monoclinic'
loop_
_space_group_symop_operation_xyz
x,y,z
-x,y,1/2-z
-x,-y,-z
x,-y,1/2+z
1/2+x,1/2+y,z
1/2-x,1/2+y,1/2-z
1/2-x,1/2-y,-z
1/2+x,1/2-y,1/2+z
loop_
_atom_site_type_symbol
_atom_site_label
_atom_site_fract_x
_atom_site_fract_y
_atom_site_fract_z
Si Si1 0.500000 0.911252 0.750000
Si Si2 0.317555 0.839467 0.875351
Si Si3 0.897395 0.857528 0.007817
Si Si4 0.480062 0.000316 0.382006
Si Si5 0.511631 0.463318 0.093414
Si Si6 0.539625 0.258891 0.067250
O O1 0.299290 0.874489 0.781695
O O2 0.441278 0.948741 0.658556
O O3 0.082056 0.850339 0.928733
O O4 0.362726 0.782948 0.851694
O O5 0.594837 0.850836 0.952568
O O6 0.927174 0.910289 0.054801
O O7 0.011141 0.815494 0.088581
O O8 0.182567 0.985918 0.345045
O O9 0.685157 0.962922 0.357227
O O10 0.500000 0.000000 0.500000
O O11 0.500000 0.500000 0.000000
O O12 0.250000 0.250000 0.000000
O O13 0.750000 0.250000 0.000000
#
# Coordination Sequence:
#
# PCOD9257674 Si02
#       6
#     4   8   8   8   8   8
#     4  12  24  38  60  82 116 150 188 246 290 332
#     4  10  20  32  52  84 111 143 187 233 288 341
#     4  10  18  34  57  80 111 149 186 232 284 339
#     4  10  22  36  52  78 109 144 185 230 280 335
#     4  10  18  32  51  76 108 143 185 224 266 332
#     4   8  16  30  50  78 107 132 170 219 273 333
#
# _framework density 22.395695
#
# number of rings (size 3 to 8) (size 9 to 14) (size 15 to 20)
#    0.000    2.182    0.000    5.455    0.000    2.909 
#    0.000    0.000    0.000    2.182    0.000    0.000 
#    0.000    0.000    0.000    0.000    0.000    0.000 
#
# Total GULP energy -122496.483246 kJ/mol
# GULP energy per Si atom -5568.021966 kJ/mol
# Density = 2.234472 g / cm^3
# Si number density = 22.395695 Si / 1000 Ang^3
#
#
#
# Elastic Constant Matrix: (Units=GPa)
#
#
# Indices 1 2 3 4 5 6 
#
# 1 150.3725 -17.1244 10.9290 0.0000 -1.3807 0.0000
# 2 -17.1244 147.9856 18.9188 0.0000 12.5703 0.0000
# 3 10.9290 18.9188 69.9495 0.0000 -0.5170 0.0000
# 4 0.0000 0.0000 0.0000 19.7632 0.0000 -20.3382
# 5 -1.3807 12.5703 -0.5170 0.0000 21.4262 0.0000
# 6 0.0000 0.0000 0.0000 -20.3382 0.0000 5.4515
#
#
#
# Elastic Compliance Matrix: (Units=1/GPa)
#
#
# Indices 1 2 3 4 5 6 
#
# 1 0.006857 0.000978 -0.001337 0.000000 -0.000164 0.000000
# 2 0.000978 0.007529 -0.002222 0.000000 -0.004408 0.000000
# 3 -0.001337 -0.002222 0.015118 0.000000 0.001582 0.000000
# 4 0.000000 0.000000 0.000000 -0.017821 0.000000 -0.066486
# 5 -0.000164 -0.004408 0.001582 0.000000 0.049285 0.000000
# 6 0.000000 0.000000 0.000000 -0.066486 0.000000 -0.064606
#
#
# Mechanical properties :
#
#
# Convention : Reuss Voigt Hill
#
# Bulk Modulus (GPa) = 41.08010 43.75050 42.41530
# Shear Modulus (GPa) = 518.78849 33.03381 275.91115
#
# Velocity S-wave (km/s) = 15.23645 3.84475 11.11151
# Velocity P-wave (km/s) = 18.10843 6.26794 13.54995
#
# Compressibility (1/GPa) = 0.02434269
#
# Stress axis : x y z
#
# Youngs Moduli (GPa) = 145.83097 132.81846 66.14821
#
# Poissons Ratio (x) = -0.12995 0.08846
# Poissons Ratio (y) = -0.14268 0.14697
# Poissons Ratio (z) = 0.19501 0.29509
#
# Static dielectric constant tensor:
#      x y z
#    x 1.806570 0.000000 -0.075530 
#    y 0.000000 1.900420 0.000000 
#    z -0.075530 0.000000 1.751270 
# 
# From -- ./inp_files/129820.got.cif
#   From: 2010.05.17/outbox.cif.g08.bks.cpg/sg15_65_cif.got.tgz:129820.got - 2010.06.03 18:47:42.
