data_PCOD9257365
_publ_section_title
;
Structure prediction by ZEFSAII (Michael W. Deem and Ramdas Pophale) SiO2 
 PCOD9257365
Probable space group: C 2/C
;
_chemical_formula_sum "Si O2"
_cell_formula_units_Z 64
_cell_length_a 9.478377
_cell_length_b 21.165307
_cell_length_c 16.202661
_cell_angle_alpha 90.000000
_cell_angle_beta 55.943409
_cell_angle_gamma 90.000000
_cell_volume 2692.957315
_symmetry_space_group_name_H-M "C 2/C"
_symmetry_group_IT_number 15
_symmetry_cell_setting 'monoclinic'
loop_
_space_group_symop_operation_xyz
x,y,z
-x,y,1/2-z
-x,-y,-z
x,-y,1/2+z
1/2+x,1/2+y,z
1/2-x,1/2+y,1/2-z
1/2-x,1/2-y,-z
1/2+x,1/2-y,1/2+z
loop_
_atom_site_type_symbol
_atom_site_label
_atom_site_fract_x
_atom_site_fract_y
_atom_site_fract_z
Si Si1 0.386371 0.770097 0.870988
Si Si2 0.246475 0.638175 0.660613
Si Si3 0.396708 0.368034 0.370311
Si Si4 0.206449 0.130132 0.039364
Si Si5 0.674015 0.496360 0.054194
Si Si6 0.277383 0.497006 0.160424
Si Si7 0.268296 0.778475 0.664557
Si Si8 0.808906 0.132414 0.158618
O O1 0.500000 0.768657 0.750000
O O2 0.306865 0.700367 0.901008
O O3 0.527129 0.776717 0.895115
O O4 0.264546 0.828512 0.894169
O O5 0.449677 0.635055 0.613255
O O6 0.204480 0.639494 0.577428
O O7 0.189112 0.569303 0.712734
O O8 0.199432 0.708078 0.706252
O O9 0.500000 0.374255 0.250000
O O10 0.277443 0.428287 0.425350
O O11 0.223034 0.189645 0.093105
O O12 0.007974 0.121202 0.081446
O O13 0.251066 0.061537 0.064013
O O14 0.468963 0.495273 0.134550
O O15 0.705340 0.500242 0.945252
O O16 0.211510 0.566301 0.204688
O O17 0.205223 0.825015 0.756022
#
# Coordination Sequence:
#
# PCOD9257365 Si02
#       8
#     8   8   8   8   8   8   8   8
#     4   8  17  31  46  66  98 133 157 191 246 297
#     4   9  18  33  50  68  98 137 164 188 244 307
#     4   9  15  26  45  67  92 125 163 197 235 285
#     4  10  19  31  51  75  99 127 162 205 245 285
#     4   8  15  27  44  71 100 122 153 200 247 284
#     4   8  15  29  48  68  94 128 160 193 239 290
#     4  10  19  32  50  73 100 130 164 199 239 291
#     4  10  18  31  52  77  99 122 164 214 244 274
#
# _framework density 23.765694
#
# number of rings (size 3 to 8) (size 9 to 14) (size 15 to 20)
#    0.000    3.000    0.000    3.750    0.000    3.000 
#    0.000    5.625    0.000    9.000    0.000    0.000 
#    0.000    0.000    0.000    0.000    0.000    0.000 
#
# Total GULP energy -178421.244170 kJ/mol
# GULP energy per Si atom -5575.663880 kJ/mol
# Density = 2.371160 g / cm^3
# Si number density = 23.765694 Si / 1000 Ang^3
#
#
#
# Elastic Constant Matrix: (Units=GPa)
#
#
# Indices 1 2 3 4 5 6 
#
# 1 40.8035 19.7949 5.5573 0.0000 7.9377 0.0000
# 2 19.7949 231.8847 17.0989 0.0000 12.3943 0.0000
# 3 5.5573 17.0989 40.1807 0.0000 8.2970 0.0000
# 4 0.0000 0.0000 0.0000 30.6748 0.0000 10.3083
# 5 7.9377 12.3943 8.2970 0.0000 20.9996 0.0000
# 6 0.0000 0.0000 0.0000 10.3083 0.0000 3.6164
#
#
#
# Elastic Compliance Matrix: (Units=1/GPa)
#
#
# Indices 1 2 3 4 5 6 
#
# 1 0.027236 -0.001767 -0.001203 0.000000 -0.008777 0.000000
# 2 -0.001767 0.004649 -0.001421 0.000000 -0.001514 0.000000
# 3 -0.001203 -0.001421 0.027647 0.000000 -0.009630 0.000000
# 4 0.000000 0.000000 0.000000 0.773876 0.000000 -2.205851
# 5 -0.008777 -0.001514 -0.009630 0.000000 0.055636 0.000000
# 6 0.000000 0.000000 0.000000 -2.205851 0.000000 6.564058
#
#
# Mechanical properties :
#
#
# Convention : Reuss Voigt Hill
#
# Bulk Modulus (GPa) = 19.70424 44.19677 31.95051
# Shear Modulus (GPa) = 0.66856 29.08602 14.87729
#
# Velocity S-wave (km/s) = 0.53096 3.50217 2.50471
# Velocity P-wave (km/s) = 2.94702 5.91531 4.67311
#
# Compressibility (1/GPa) = 0.05075050
#
# Stress axis : x y z
#
# Youngs Moduli (GPa) = 36.71579 215.09553 36.16993
#
# Poissons Ratio (x) = 0.38012 0.04350
# Poissons Ratio (y) = 0.06488 0.05141
# Poissons Ratio (z) = 0.04415 0.30571
#
# Static dielectric constant tensor:
#      x y z
#    x 1.929420 0.000000 -0.029030 
#    y 0.000000 2.021180 0.000000 
#    z -0.029030 0.000000 1.941820 
# 
# From -- ./inp_files/199965.got.cif
#   From: 2010.05.17/outbox.cif.g08.bks.cpg/sg15_100_cif.got.tgz:199965.got - 2010.06.03 18:47:42.
