data_PCOD9257209
_publ_section_title
;
Structure prediction by ZEFSAII (Michael W. Deem and Ramdas Pophale) SiO2 
 PCOD9257209
Probable space group: C 2/C
;
_chemical_formula_sum "Si O2"
_cell_formula_units_Z 44
_cell_length_a 22.591902
_cell_length_b 23.405122
_cell_length_c 5.586173
_cell_angle_alpha 90.000000
_cell_angle_beta 65.076312
_cell_angle_gamma 90.000000
_cell_volume 2678.693707
_symmetry_space_group_name_H-M "C 2/C"
_symmetry_group_IT_number 15
_symmetry_cell_setting 'monoclinic'
loop_
_space_group_symop_operation_xyz
x,y,z
-x,y,1/2-z
-x,-y,-z
x,-y,1/2+z
1/2+x,1/2+y,z
1/2-x,1/2+y,1/2-z
1/2-x,1/2-y,-z
1/2+x,1/2-y,1/2+z
loop_
_atom_site_type_symbol
_atom_site_label
_atom_site_fract_x
_atom_site_fract_y
_atom_site_fract_z
Si Si1 0.000000 0.160034 0.750000
Si Si2 0.616653 0.359559 0.344400
Si Si3 0.197729 0.302963 0.103025
Si Si4 0.578312 0.468167 0.635391
Si Si5 0.935066 0.757783 0.750410
Si Si6 0.254521 0.819659 0.978033
O O1 0.943867 0.123796 0.721459
O O2 0.037391 0.200414 0.499984
O O3 0.616898 0.408475 0.542462
O O4 0.596574 0.299253 0.496394
O O5 0.683312 0.347890 0.094733
O O6 0.123931 0.280265 0.241684
O O7 0.214203 0.335677 0.319519
O O8 0.250000 0.250000 0.000000
O O9 0.207898 0.333465 0.830450
O O10 0.500000 0.458107 0.750000
O O11 0.593800 0.504047 0.366664
O O12 0.000000 0.728835 0.750000
O O13 0.250000 0.750000 0.000000
#
# Coordination Sequence:
#
# PCOD9257209 Si02
#       6
#     4   8   8   8   8   8
#     4  10  20  28  44  66  88 118 158 208 236 276
#     4  11  21  32  49  67  88 122 164 208 245 283
#     4  10  18  31  45  64  91 119 149 196 225 285
#     4  10  23  37  49  65  91 124 163 210 255 280
#     4  10  20  29  44  68  92 122 161 199 236 270
#     4  10  19  31  49  66  89 116 153 196 235 288
#
# _framework density 16.425917999999999
#
# number of rings (size 3 to 8) (size 9 to 14) (size 15 to 20)
#    0.000    1.818    3.636    3.818    8.909    0.000 
#    0.000    0.000    0.000    0.000    0.000    0.000 
#    0.000    0.000    0.000    0.000    0.000   18.182 
#
# Total GULP energy -122614.551716 kJ/mol
# GULP energy per Si atom -5573.388714 kJ/mol
# Density = 1.638853 g / cm^3
# Si number density = 16.425918 Si / 1000 Ang^3
#
#
#
# Elastic Constant Matrix: (Units=GPa)
#
#
# Indices 1 2 3 4 5 6 
#
# 1 83.7354 17.2879 31.5061 0.0000 -2.0288 0.0000
# 2 17.2879 22.9712 13.0424 0.0000 -6.8567 0.0000
# 3 31.5061 13.0424 86.5767 0.0000 10.6779 0.0000
# 4 0.0000 0.0000 0.0000 23.0362 0.0000 2.1899
# 5 -2.0288 -6.8567 10.6779 0.0000 31.8049 0.0000
# 6 0.0000 0.0000 0.0000 2.1899 0.0000 2.3144
#
#
#
# Elastic Compliance Matrix: (Units=1/GPa)
#
#
# Indices 1 2 3 4 5 6 
#
# 1 0.015443 -0.009022 -0.004321 0.000000 0.000491 0.000000
# 2 -0.009022 0.058873 -0.007386 0.000000 0.014596 0.000000
# 3 -0.004321 -0.007386 0.015091 0.000000 -0.006934 0.000000
# 4 0.000000 0.000000 0.000000 0.047701 0.000000 -0.045135
# 5 0.000491 0.014596 -0.006934 0.000000 0.036948 0.000000
# 6 0.000000 0.000000 0.000000 -0.045135 0.000000 0.474794
#
#
# Mechanical properties :
#
#
# Convention : Reuss Voigt Hill
#
# Bulk Modulus (GPa) = 20.85581 35.21734 28.03658
# Shear Modulus (GPa) = 7.07924 20.19422 13.63673
#
# Velocity S-wave (km/s) = 2.07826 3.51010 2.88444
# Velocity P-wave (km/s) = 4.29922 6.15747 5.31026
#
# Compressibility (1/GPa) = 0.04794827
#
# Stress axis : x y z
#
# Youngs Moduli (GPa) = 64.75480 16.98567 66.26517
#
# Poissons Ratio (x) = 0.15325 0.28634
# Poissons Ratio (y) = 0.58423 0.48943
# Poissons Ratio (z) = 0.27982 0.12545
#
# Static dielectric constant tensor:
#      x y z
#    x 1.605120 0.000000 0.053750 
#    y 0.000000 1.519450 0.000000 
#    z 0.053750 0.000000 1.603890 
# 
# From -- ./inp_files/8520.got.cif
#   From: 2010.05.17/outbox.cif.g08.bks.cpg/sg15_5_cif.got.tgz:8520.got - 2010.06.03 18:47:42.
