data_PCOD9257547
_publ_section_title
;
Structure prediction by ZEFSAII (Michael W. Deem and Ramdas Pophale) SiO2 
 PCOD9257547
Probable space group: C 2/C
;
_chemical_formula_sum "Si O2"
_cell_formula_units_Z 48
_cell_length_a 22.516635
_cell_length_b 15.346099
_cell_length_c 11.175015
_cell_angle_alpha 90.000000
_cell_angle_beta 149.526449
_cell_angle_gamma 90.000000
_cell_volume 1958.294236
_symmetry_space_group_name_H-M "C 2/C"
_symmetry_group_IT_number 15
_symmetry_cell_setting 'monoclinic'
loop_
_space_group_symop_operation_xyz
x,y,z
-x,y,1/2-z
-x,-y,-z
x,-y,1/2+z
1/2+x,1/2+y,z
1/2-x,1/2+y,1/2-z
1/2-x,1/2-y,-z
1/2+x,1/2-y,1/2+z
loop_
_atom_site_type_symbol
_atom_site_label
_atom_site_fract_x
_atom_site_fract_y
_atom_site_fract_z
Si Si1 0.295250 0.627095 0.980490
Si Si2 0.209838 0.313876 0.576976
Si Si3 0.064700 0.600198 0.482270
Si Si4 0.158626 0.032708 0.809351
Si Si5 0.115976 0.593809 0.149865
Si Si6 0.442462 0.610234 0.521000
O O1 0.348143 0.721601 0.054362
O O2 0.202219 0.618615 0.713932
O O3 0.212561 0.632227 0.957323
O O4 0.369828 0.542510 0.138789
O O5 0.159078 0.353958 0.609159
O O6 0.351288 0.311243 0.845427
O O7 0.065859 0.496189 0.508758
O O8 0.000000 0.622671 0.250000
O O9 0.985997 0.638975 0.451957
O O10 0.056052 0.103719 0.633678
O O11 0.137802 0.975195 0.652899
O O12 0.279740 0.070674 0.073042
O O13 0.500000 0.611869 0.750000
#
# Coordination Sequence:
#
# PCOD9257547 Si02
#       6
#     8   8   8   8   8   8
#     4   9  21  39  59  85 124 163 200 251 314 366
#     4  10  20  37  64  85 121 165 202 251 309 375
#     4  10  23  37  60  89 119 154 202 262 297 365
#     4   9  19  34  55  90 122 156 206 251 308 367
#     4  10  21  36  62  91 116 162 206 251 311 366
#     4  10  18  31  58  89 118 156 203 256 301 362
#
# _framework density 24.511129
#
# number of rings (size 3 to 8) (size 9 to 14) (size 15 to 20)
#    0.000    2.333    1.667    0.000    9.333    0.667 
#    0.000    0.833   14.667    0.000    0.000    0.000 
#    0.000    0.000    0.000    0.000    0.000    0.000 
#
# Total GULP energy -133719.970213 kJ/mol
# GULP energy per Si atom -5571.665426 kJ/mol
# Density = 2.445534 g / cm^3
# Si number density = 24.511129 Si / 1000 Ang^3
#
#
#
# Elastic Constant Matrix: (Units=GPa)
#
#
# Indices 1 2 3 4 5 6 
#
# 1 54.5731 7.8166 4.0865 0.0000 -6.4573 0.0000
# 2 7.8166 43.2255 -11.4717 0.0000 10.9747 0.0000
# 3 4.0865 -11.4717 115.5475 0.0000 -23.7402 0.0000
# 4 0.0000 0.0000 0.0000 17.0358 0.0000 -2.6779
# 5 -6.4573 10.9747 -23.7402 0.0000 33.7770 0.0000
# 6 0.0000 0.0000 0.0000 -2.6779 0.0000 16.0447
#
#
#
# Elastic Compliance Matrix: (Units=1/GPa)
#
#
# Indices 1 2 3 4 5 6 
#
# 1 0.019663 -0.004925 -0.000097 0.000000 0.005291 0.000000
# 2 -0.004925 0.026539 0.000986 0.000000 -0.008871 0.000000
# 3 -0.000097 0.000986 0.010152 0.000000 0.006796 0.000000
# 4 0.000000 0.000000 0.000000 0.060282 0.000000 0.010061
# 5 0.005291 -0.008871 0.006796 0.000000 0.038277 0.000000
# 6 0.000000 0.000000 0.000000 0.010061 0.000000 0.064005
#
#
# Mechanical properties :
#
#
# Convention : Reuss Voigt Hill
#
# Bulk Modulus (GPa) = 20.71139 23.80099 22.25619
# Shear Modulus (GPa) = 20.56910 27.56583 24.06746
#
# Velocity S-wave (km/s) = 2.89999 3.35718 3.13693
# Velocity P-wave (km/s) = 4.43637 4.97583 4.71383
#
# Compressibility (1/GPa) = 0.04828260
#
# Stress axis : x y z
#
# Youngs Moduli (GPa) = 50.85765 37.68018 98.50093
#
# Poissons Ratio (x) = 0.18557 0.00958
# Poissons Ratio (y) = 0.25046 -0.09716
# Poissons Ratio (z) = 0.00495 -0.03717
#
# Static dielectric constant tensor:
#      x y z
#    x 1.979720 0.000000 0.000950 
#    y 0.000000 1.967600 0.000000 
#    z 0.000950 0.000000 2.015790 
# 
# From -- ./inp_files/88519.got.cif
#   From: 2010.05.17/outbox.cif.g08.bks.cpg/sg15_45_cif.got.tgz:88519.got - 2010.06.03 18:47:42.
