data_PCOD9257503
_publ_section_title
;
Structure prediction by ZEFSAII (Michael W. Deem and Ramdas Pophale) SiO2 
 PCOD9257503
Probable space group: C 2/C
;
_chemical_formula_sum "Si O2"
_cell_formula_units_Z 56
_cell_length_a 17.666524
_cell_length_b 14.326639
_cell_length_c 13.907708
_cell_angle_alpha 90.000000
_cell_angle_beta 51.063954
_cell_angle_gamma 90.000000
_cell_volume 2738.077203
_symmetry_space_group_name_H-M "C 2/C"
_symmetry_group_IT_number 15
_symmetry_cell_setting 'monoclinic'
loop_
_space_group_symop_operation_xyz
x,y,z
-x,y,1/2-z
-x,-y,-z
x,-y,1/2+z
1/2+x,1/2+y,z
1/2-x,1/2+y,1/2-z
1/2-x,1/2-y,-z
1/2+x,1/2-y,1/2+z
loop_
_atom_site_type_symbol
_atom_site_label
_atom_site_fract_x
_atom_site_fract_y
_atom_site_fract_z
Si Si1 0.395204 0.180958 0.286428
Si Si2 0.000875 0.722647 0.011552
Si Si3 0.023570 0.925124 0.063819
Si Si4 0.071985 0.410508 0.068532
Si Si5 0.645121 0.388437 0.142427
Si Si6 0.669565 0.930564 0.381620
Si Si7 0.356378 0.974908 0.298986
O O1 0.500000 0.162117 0.250000
O O2 0.418787 0.205542 0.157495
O O3 0.357171 0.275345 0.366142
O O4 0.338544 0.083777 0.334353
O O5 0.035472 0.827277 0.998479
O O6 0.089845 0.650893 0.956792
O O7 0.955728 0.691683 0.946037
O O8 0.114053 0.935294 0.066165
O O9 0.935410 0.913515 0.211338
O O10 0.000000 0.000000 0.000000
O O11 0.142187 0.417077 0.103895
O O12 0.969635 0.461884 0.174296
O O13 0.119338 0.471077 0.946401
O O14 0.745769 0.415710 0.110207
O O15 0.703162 0.935999 0.243829
#
# Coordination Sequence:
#
# PCOD9257503 Si02
#       7
#     8   8   8   8   8   8   8
#     4  11  15  34  57  78 103 155 182 222 278 328
#     4  10  18  35  58  82 110 145 183 228 279 340
#     4  10  22  44  60  75 106 161 198 221 275 328
#     4  10  18  31  56  87 115 144 173 219 295 344
#     4  10  23  37  59  81 112 141 196 243 264 322
#     4  11  20  34  53  93 118 132 181 239 289 328
#     4  10  18  31  56  83 122 148 170 219 292 345
#
# _framework density 20.452310000000001
#
# number of rings (size 3 to 8) (size 9 to 14) (size 15 to 20)
#    0.000    1.714    7.143    0.857    0.000    1.714 
#    2.571    5.714    0.000    2.571    0.000    0.000 
#    0.000    0.000    0.000    0.000    0.000    0.000 
#
# Total GULP energy -156205.058868 kJ/mol
# GULP energy per Si atom -5578.752102 kJ/mol
# Density = 2.040576 g / cm^3
# Si number density = 20.452310 Si / 1000 Ang^3
#
#
#
# Elastic Constant Matrix: (Units=GPa)
#
#
# Indices 1 2 3 4 5 6 
#
# 1 123.8333 54.3539 33.3359 0.0000 40.0908 0.0000
# 2 54.3539 79.5167 17.3035 0.0000 26.8087 0.0000
# 3 33.3359 17.3035 49.5602 0.0000 27.9641 0.0000
# 4 0.0000 0.0000 0.0000 19.0695 0.0000 13.5946
# 5 40.0908 26.8087 27.9641 0.0000 41.2947 0.0000
# 6 0.0000 0.0000 0.0000 13.5946 0.0000 19.6766
#
#
#
# Elastic Compliance Matrix: (Units=1/GPa)
#
#
# Indices 1 2 3 4 5 6 
#
# 1 0.014168 -0.006503 -0.003043 0.000000 -0.007472 0.000000
# 2 -0.006503 0.019091 0.001844 0.000000 -0.007329 0.000000
# 3 -0.003043 0.001844 0.033321 0.000000 -0.020807 0.000000
# 4 0.000000 0.000000 0.000000 0.103338 0.000000 -0.071396
# 5 -0.007472 -0.007329 -0.020807 0.000000 0.050319 0.000000
# 6 0.000000 0.000000 0.000000 -0.071396 0.000000 0.100150
#
#
# Mechanical properties :
#
#
# Convention : Reuss Voigt Hill
#
# Bulk Modulus (GPa) = 19.54043 51.43298 35.48670
# Shear Modulus (GPa) = 14.17033 25.86929 20.01981
#
# Velocity S-wave (km/s) = 2.63505 3.56034 3.13206
# Velocity P-wave (km/s) = 4.33969 6.48874 5.51981
#
# Compressibility (1/GPa) = 0.05117596
#
# Stress axis : x y z
#
# Youngs Moduli (GPa) = 70.58044 52.38088 30.01115
#
# Poissons Ratio (x) = 0.34064 0.09133
# Poissons Ratio (y) = 0.45900 -0.05535
# Poissons Ratio (z) = 0.21479 -0.09661
#
# Static dielectric constant tensor:
#      x y z
#    x 1.782010 0.000000 0.004750 
#    y 0.000000 1.720390 0.000000 
#    z 0.004750 0.000000 1.802060 
# 
# From -- ./inp_files/161878.got.cif
#   From: 2010.05.17/outbox.cif.g08.bks.cpg/sg15_81_cif.got.tgz:161878.got - 2010.06.03 18:47:42.
