data_PCOD9257968
_publ_section_title
;
Structure prediction by ZEFSAII (Michael W. Deem and Ramdas Pophale) SiO2 
 PCOD9257968
Probable space group: C 2/C
;
_chemical_formula_sum "Si O2"
_cell_formula_units_Z 52
_cell_length_a 15.824649
_cell_length_b 7.783168
_cell_length_c 18.818518
_cell_angle_alpha 90.000000
_cell_angle_beta 81.879584
_cell_angle_gamma 90.000000
_cell_volume 2294.560060
_symmetry_space_group_name_H-M "C 2/C"
_symmetry_group_IT_number 15
_symmetry_cell_setting 'monoclinic'
loop_
_space_group_symop_operation_xyz
x,y,z
-x,y,1/2-z
-x,-y,-z
x,-y,1/2+z
1/2+x,1/2+y,z
1/2-x,1/2+y,1/2-z
1/2-x,1/2-y,-z
1/2+x,1/2-y,1/2+z
loop_
_atom_site_type_symbol
_atom_site_label
_atom_site_fract_x
_atom_site_fract_y
_atom_site_fract_z
Si Si1 0.110039 0.327391 0.856353
Si Si2 0.951022 0.226476 0.957267
Si Si3 0.383457 0.778039 0.124329
Si Si4 0.716839 0.279615 0.083547
Si Si5 0.500000 0.641068 0.750000
Si Si6 0.448688 0.397706 0.869556
Si Si7 0.274795 0.304682 0.917056
O O1 0.120361 0.530301 0.845824
O O2 0.061054 0.245685 0.795816
O O3 0.200569 0.250281 0.871295
O O4 0.043545 0.298125 0.929033
O O5 0.878887 0.291978 0.909536
O O6 0.951391 0.022200 0.938778
O O7 0.919531 0.275377 0.038843
O O8 0.287108 0.706855 0.129228
O O9 0.456948 0.674698 0.154318
O O10 0.720879 0.486772 0.089211
O O11 0.750000 0.250000 0.000000
O O12 0.437534 0.523738 0.804661
O O13 0.373118 0.260885 0.887505
O O14 0.250000 0.250000 0.000000
#
# Coordination Sequence:
#
# PCOD9257968 Si02
#       7
#     8   8   8   8   4   8   8
#     4  10  21  37  58  81 117 151 192 242 279 343
#     4   9  17  33  55  85 119 150 180 232 302 352
#     4  10  18  32  56  86 110 144 191 248 295 330
#     4   8  17  30  49  80 119 146 174 220 287 358
#     4  10  24  44  54  72 112 170 206 228 282 344
#     4  10  21  37  57  81 117 154 195 238 285 363
#     4  10  20  36  60  91 117 144 186 245 305 345
#
# _framework density 22.662296000000001
#
# number of rings (size 3 to 8) (size 9 to 14) (size 15 to 20)
#    0.000    2.462    0.000    1.846    0.000    9.231 
#    0.000    7.692    0.000    0.000    0.000    0.000 
#    0.000    0.000    0.000    0.000    0.000    0.000 
#
# Total GULP energy -144937.227215 kJ/mol
# GULP energy per Si atom -5574.508739 kJ/mol
# Density = 2.261072 g / cm^3
# Si number density = 22.662296 Si / 1000 Ang^3
#
#
#
# Elastic Constant Matrix: (Units=GPa)
#
#
# Indices 1 2 3 4 5 6 
#
# 1 102.5649 17.8320 11.2354 0.0000 27.8722 0.0000
# 2 17.8320 41.6218 17.6944 0.0000 10.3117 0.0000
# 3 11.2354 17.6944 85.7958 0.0000 14.1495 0.0000
# 4 0.0000 0.0000 0.0000 16.2638 0.0000 -2.1442
# 5 27.8722 10.3117 14.1495 0.0000 30.5474 0.0000
# 6 0.0000 0.0000 0.0000 -2.1442 0.0000 24.8042
#
#
#
# Elastic Compliance Matrix: (Units=1/GPa)
#
#
# Indices 1 2 3 4 5 6 
#
# 1 0.013333 -0.003218 0.000806 0.000000 -0.011453 0.000000
# 2 -0.003218 0.028527 -0.004719 0.000000 -0.004508 0.000000
# 3 0.000806 -0.004719 0.013406 0.000000 -0.005353 0.000000
# 4 0.000000 0.000000 0.000000 0.062195 0.000000 0.005377
# 5 -0.011453 -0.004508 -0.005353 0.000000 0.047187 0.000000
# 6 0.000000 0.000000 0.000000 0.005377 0.000000 0.040781
#
#
# Mechanical properties :
#
#
# Convention : Reuss Voigt Hill
#
# Bulk Modulus (GPa) = 24.38621 35.94511 30.16566
# Shear Modulus (GPa) = 21.42629 26.53780 23.98205
#
# Velocity S-wave (km/s) = 3.07817 3.42572 3.25658
# Velocity P-wave (km/s) = 4.83917 5.61632 5.24216
#
# Compressibility (1/GPa) = 0.04100678
#
# Stress axis : x y z
#
# Youngs Moduli (GPa) = 74.99944 35.05408 74.59422
#
# Poissons Ratio (x) = 0.11280 -0.06015
# Poissons Ratio (y) = 0.24133 0.35198
# Poissons Ratio (z) = -0.06048 0.16540
#
# Static dielectric constant tensor:
#      x y z
#    x 2.014760 0.000000 0.025520 
#    y 0.000000 1.881900 0.000000 
#    z 0.025520 0.000000 1.846580 
# 
# From -- ./inp_files/242510.got.cif
#   From: 2010.05.17/outbox.cif.g08.bks.cpg/sg15_122_cif.got.tgz:242510.got - 2010.06.03 18:47:42.
