data_PCOD9257168
_publ_section_title
;
Structure prediction by ZEFSAII (Michael W. Deem and Ramdas Pophale) SiO2 
 PCOD9257168
Probable space group: C 2/C
;
_chemical_formula_sum "Si O2"
_cell_formula_units_Z 64
_cell_length_a 15.783924
_cell_length_b 24.778477
_cell_length_c 11.324259
_cell_angle_alpha 90.000000
_cell_angle_beta 42.036048
_cell_angle_gamma 90.000000
_cell_volume 2965.606671
_symmetry_space_group_name_H-M "C 2/C"
_symmetry_group_IT_number 15
_symmetry_cell_setting 'monoclinic'
loop_
_space_group_symop_operation_xyz
x,y,z
-x,y,1/2-z
-x,-y,-z
x,-y,1/2+z
1/2+x,1/2+y,z
1/2-x,1/2+y,1/2-z
1/2-x,1/2-y,-z
1/2+x,1/2-y,1/2+z
loop_
_atom_site_type_symbol
_atom_site_label
_atom_site_fract_x
_atom_site_fract_y
_atom_site_fract_z
Si Si1 0.483219 0.854840 0.093760
Si Si2 0.425625 0.498034 0.450704
Si Si3 0.151364 0.876303 0.961480
Si Si4 0.750413 0.145785 0.401427
Si Si5 0.084523 0.189763 0.851007
Si Si6 0.588883 0.740893 0.267809
Si Si7 0.613390 0.195613 0.228131
Si Si8 0.771556 0.104522 0.634379
O O1 0.403823 0.804552 0.227875
O O2 0.378228 0.899414 0.187887
O O3 0.603638 0.868774 0.047502
O O4 0.546834 0.832621 0.909400
O O5 0.500000 0.509861 0.250000
O O6 0.500000 0.500000 0.500000
O O7 0.364195 0.439043 0.492759
O O8 0.327649 0.545450 0.577036
O O9 0.185775 0.875268 0.784944
O O10 0.260278 0.841527 0.916499
O O11 0.016652 0.846780 0.113002
O O12 0.778153 0.210073 0.368777
O O13 0.804417 0.125105 0.468103
O O14 0.147889 0.241487 0.720793
O O15 0.173914 0.147819 0.827766
O O16 0.991853 0.219386 0.039411
O O17 0.500000 0.727605 0.250000
O O18 0.500000 0.196284 0.250000
#
# Coordination Sequence:
#
# PCOD9257168 Si02
#       8
#     8   8   8   8   8   8   8   8
#     4  10  24  37  56  97 133 176 226 268 340 426
#     4  12  27  48  73 105 137 181 242 299 349 405
#     4  10  23  46  67  98 135 176 237 285 341 413
#     4  10  21  39  62  94 139 179 217 279 343 414
#     4  10  22  36  62 100 129 169 226 271 350 398
#     4  10  18  30  56  89 130 171 208 259 324 399
#     4  10  24  45  65  91 136 184 226 288 347 420
#     4  12  23  39  65  96 140 175 222 287 346 411
#
# _framework density 21.580745
#
# number of rings (size 3 to 8) (size 9 to 14) (size 15 to 20)
#    0.000    1.500    2.500    1.875   10.500    3.000 
#    0.000    3.750    0.000    0.000    0.000    0.000 
#    0.000    0.000    0.000    0.000    0.000    0.000 
#
# Total GULP energy -178667.104836 kJ/mol
# GULP energy per Si atom -5583.347026 kJ/mol
# Density = 2.153163 g / cm^3
# Si number density = 21.580745 Si / 1000 Ang^3
#
#
#
# Elastic Constant Matrix: (Units=GPa)
#
#
# Indices 1 2 3 4 5 6 
#
# 1 124.5867 51.7011 31.7244 0.0000 -14.3512 0.0000
# 2 51.7011 139.4408 28.5940 0.0000 -24.5268 0.0000
# 3 31.7244 28.5940 65.0605 0.0000 -12.7000 0.0000
# 4 0.0000 0.0000 0.0000 35.4969 0.0000 -6.5541
# 5 -14.3512 -24.5268 -12.7000 0.0000 38.9910 0.0000
# 6 0.0000 0.0000 0.0000 -6.5541 0.0000 28.4830
#
#
#
# Elastic Compliance Matrix: (Units=1/GPa)
#
#
# Indices 1 2 3 4 5 6 
#
# 1 0.010236 -0.002932 -0.003553 0.000000 0.000766 0.000000
# 2 -0.002932 0.009384 -0.001872 0.000000 0.004214 0.000000
# 3 -0.003553 -0.001872 0.018625 0.000000 0.003581 0.000000
# 4 0.000000 0.000000 0.000000 0.029422 0.000000 0.006770
# 5 0.000766 0.004214 0.003581 0.000000 0.029746 0.000000
# 6 0.000000 0.000000 0.000000 0.006770 0.000000 0.036667
#
#
# Mechanical properties :
#
#
# Convention : Reuss Voigt Hill
#
# Bulk Modulus (GPa) = 46.44605 61.45857 53.95231
# Shear Modulus (GPa) = 31.65168 35.06540 33.35854
#
# Velocity S-wave (km/s) = 3.83386 4.03531 3.93587
# Velocity P-wave (km/s) = 6.41613 7.08886 6.76086
#
# Compressibility (1/GPa) = 0.02153035
#
# Stress axis : x y z
#
# Youngs Moduli (GPa) = 97.69178 106.56842 53.69234
#
# Poissons Ratio (x) = 0.31246 0.19078
# Poissons Ratio (y) = 0.28643 0.10050
# Poissons Ratio (z) = 0.34712 0.19948
#
# Static dielectric constant tensor:
#      x y z
#    x 1.914600 0.000000 0.048580 
#    y 0.000000 1.774150 0.000000 
#    z 0.048580 0.000000 1.855120 
# 
# From -- ./inp_files/101315.got.cif
#   From: 2010.05.17/outbox.cif.g08.bks.cpg/sg15_51_cif.got.tgz:101315.got - 2010.06.03 18:47:42.
