data_PCOD9257348
_publ_section_title
;
Structure prediction by ZEFSAII (Michael W. Deem and Ramdas Pophale) SiO2 
 PCOD9257348
Probable space group: C 2/C
;
_chemical_formula_sum "Si O2"
_cell_formula_units_Z 56
_cell_length_a 17.121998
_cell_length_b 22.875773
_cell_length_c 8.658999
_cell_angle_alpha 90.000000
_cell_angle_beta 80.213435
_cell_angle_gamma 90.000000
_cell_volume 3342.193010
_symmetry_space_group_name_H-M "C 2/C"
_symmetry_group_IT_number 15
_symmetry_cell_setting 'monoclinic'
loop_
_space_group_symop_operation_xyz
x,y,z
-x,y,1/2-z
-x,-y,-z
x,-y,1/2+z
1/2+x,1/2+y,z
1/2-x,1/2+y,1/2-z
1/2-x,1/2-y,-z
1/2+x,1/2-y,1/2+z
loop_
_atom_site_type_symbol
_atom_site_label
_atom_site_fract_x
_atom_site_fract_y
_atom_site_fract_z
Si Si1 0.662202 0.071388 0.015481
Si Si2 0.619974 0.253344 0.612261
Si Si3 0.813082 0.701670 0.421880
Si Si4 0.825392 0.545883 0.128070
Si Si5 0.765232 0.333136 0.590372
Si Si6 0.032479 0.722971 0.961072
Si Si7 0.007961 0.587829 0.566347
O O1 0.691415 0.138486 0.988832
O O2 0.670234 0.054382 0.190778
O O3 0.570124 0.068687 0.998431
O O4 0.700729 0.019419 0.904615
O O5 0.677779 0.308324 0.597548
O O6 0.676200 0.198966 0.548238
O O7 0.582571 0.240155 0.792003
O O8 0.547350 0.260916 0.517112
O O9 0.750000 0.750000 0.500000
O O10 0.795955 0.687391 0.249224
O O11 0.903504 0.722649 0.423388
O O12 0.770880 0.597434 0.079661
O O13 0.912183 0.561354 0.029597
O O14 0.996611 0.657979 0.950907
O O15 0.000000 0.573281 0.750000
#
# Coordination Sequence:
#
# PCOD9257348 Si02
#       7
#     8   8   8   8   8   8   8
#     4  10  23  32  50  68 102 138 173 208 250 305
#     4  10  18  32  48  80  97 138 167 217 251 303
#     4  10  20  35  51  76 103 135 169 217 259 302
#     4  11  20  36  45  72  99 139 171 208 249 305
#     4  10  20  32  53  71 109 129 176 211 259 298
#     4  10  18  31  52  73 107 133 174 205 258 305
#     4  11  18  30  49  72 100 140 172 206 241 302
#
# _framework density 16.755465999999998
#
# number of rings (size 3 to 8) (size 9 to 14) (size 15 to 20)
#    0.000    1.714    4.286    1.714    0.000    1.714 
#    0.000    0.000    0.000    0.000    0.000    1.000 
#    0.000    0.000    0.000    0.000    0.000    0.000 
#
# Total GULP energy -156154.623065 kJ/mol
# GULP energy per Si atom -5576.950824 kJ/mol
# Density = 1.671733 g / cm^3
# Si number density = 16.755466 Si / 1000 Ang^3
#
#
#
# Elastic Constant Matrix: (Units=GPa)
#
#
# Indices 1 2 3 4 5 6 
#
# 1 97.3300 54.6913 13.2473 0.0000 11.0665 0.0000
# 2 54.6913 103.5555 16.6958 0.0000 5.4006 0.0000
# 3 13.2473 16.6958 25.3180 0.0000 4.7832 0.0000
# 4 0.0000 0.0000 0.0000 18.3219 0.0000 -6.6798
# 5 11.0665 5.4006 4.7832 0.0000 17.8900 0.0000
# 6 0.0000 0.0000 0.0000 -6.6798 0.0000 -2.4110
#
#
#
# Elastic Compliance Matrix: (Units=1/GPa)
#
#
# Indices 1 2 3 4 5 6 
#
# 1 0.015552 -0.007556 -0.001862 0.000000 -0.006841 0.000000
# 2 -0.007556 0.014512 -0.005973 0.000000 0.001890 0.000000
# 3 -0.001862 -0.005973 0.046185 0.000000 -0.009394 0.000000
# 4 0.000000 0.000000 0.000000 0.027153 0.000000 -0.075228
# 5 -0.006841 0.001890 -0.009394 0.000000 0.062070 0.000000
# 6 0.000000 0.000000 0.000000 -0.075228 0.000000 -0.206342
#
#
# Mechanical properties :
#
#
# Convention : Reuss Voigt Hill
#
# Bulk Modulus (GPa) = 21.99430 43.94136 32.96783
# Shear Modulus (GPa) = 986.66764 16.19813 501.43289
#
# Velocity S-wave (km/s) = 24.29283 3.11261 17.31805
# Velocity P-wave (km/s) = 28.28446 6.26098 20.48427
#
# Compressibility (1/GPa) = 0.04546633
#
# Stress axis : x y z
#
# Youngs Moduli (GPa) = 64.30199 68.90906 21.65193
#
# Poissons Ratio (x) = 0.52071 0.04031
# Poissons Ratio (y) = 0.48589 0.12933
# Poissons Ratio (z) = 0.11971 0.41160
#
# Static dielectric constant tensor:
#      x y z
#    x 1.570630 0.000000 0.020020 
#    y 0.000000 1.610130 0.000000 
#    z 0.020020 0.000000 1.585080 
# 
# From -- ./inp_files/50951.got.cif
#   From: 2010.05.17/outbox.cif.g08.bks.cpg/sg15_26_cif.got.tgz:50951.got - 2010.06.03 18:47:42.
