data_PCOD9257560
_publ_section_title
;
Structure prediction by ZEFSAII (Michael W. Deem and Ramdas Pophale) SiO2 
 PCOD9257560
Probable space group: C 2/C
;
_chemical_formula_sum "Si O2"
_cell_formula_units_Z 64
_cell_length_a 30.998314
_cell_length_b 10.331149
_cell_length_c 15.506525
_cell_angle_alpha 90.000000
_cell_angle_beta 29.273526
_cell_angle_gamma 90.000000
_cell_volume 2428.241024
_symmetry_space_group_name_H-M "C 2/C"
_symmetry_group_IT_number 15
_symmetry_cell_setting 'monoclinic'
loop_
_space_group_symop_operation_xyz
x,y,z
-x,y,1/2-z
-x,-y,-z
x,-y,1/2+z
1/2+x,1/2+y,z
1/2-x,1/2+y,1/2-z
1/2-x,1/2-y,-z
1/2+x,1/2-y,1/2+z
loop_
_atom_site_type_symbol
_atom_site_label
_atom_site_fract_x
_atom_site_fract_y
_atom_site_fract_z
Si Si1 0.710205 0.879704 0.991135
Si Si2 0.191254 0.848174 0.981206
Si Si3 0.874558 0.486385 0.697646
Si Si4 0.426338 0.375308 0.452794
Si Si5 0.564497 0.750403 0.830271
Si Si6 0.093177 0.444097 0.042827
Si Si7 0.139423 0.115307 0.151330
Si Si8 0.935248 0.163827 0.492900
O O1 0.670244 0.952373 0.979024
O O2 0.694659 0.726820 0.006842
O O3 0.654761 0.919976 0.174244
O O4 0.810592 0.901197 0.844694
O O5 0.164848 0.822622 0.928412
O O6 0.142877 0.741465 0.123583
O O7 0.141760 0.979721 0.098331
O O8 0.290188 0.888764 0.828910
O O9 0.949244 0.390230 0.603885
O O10 0.893004 0.527915 0.567531
O O11 0.500000 0.353502 0.250000
O O12 0.475748 0.310046 0.446673
O O13 0.412800 0.528174 0.489463
O O14 0.599232 0.665209 0.849346
O O15 0.000000 0.475943 0.250000
O O16 0.087535 0.293371 0.020290
O O17 0.040428 0.163716 0.323346
#
# Coordination Sequence:
#
# PCOD9257560 Si02
#       8
#     8   8   8   8   8   8   8   8
#     4  10  22  40  65  93 126 162 216 262 313 376
#     4  10  20  38  62  88 131 160 203 263 318 377
#     4  10  24  42  61  89 129 176 203 255 324 386
#     4  10  18  31  59  93 120 155 205 261 310 370
#     4  10  21  35  59  89 127 166 199 244 325 388
#     4  11  22  40  65  89 120 167 220 264 313 374
#     4  10  19  36  66  93 123 159 206 274 315 358
#     4  11  19  35  62  96 120 156 209 269 323 360
#
# _framework density 26.356528999999998
#
# number of rings (size 3 to 8) (size 9 to 14) (size 15 to 20)
#    0.000    1.750    3.750    1.875    0.000    1.500 
#    2.250    1.875    8.250    0.000    0.000    0.000 
#    0.000    0.000    0.000    0.000    0.000    0.000 
#
# Total GULP energy -179122.507006 kJ/mol
# GULP energy per Si atom -5597.578344 kJ/mol
# Density = 2.629654 g / cm^3
# Si number density = 26.356529 Si / 1000 Ang^3
#
#
#
# Elastic Constant Matrix: (Units=GPa)
#
#
# Indices 1 2 3 4 5 6 
#
# 1 175.2181 10.4412 21.9435 0.0000 7.9273 0.0000
# 2 10.4412 64.1793 9.3412 0.0000 2.8067 0.0000
# 3 21.9435 9.3412 72.4601 0.0000 15.4449 0.0000
# 4 0.0000 0.0000 0.0000 23.3251 0.0000 -2.2848
# 5 7.9273 2.8067 15.4449 0.0000 31.9082 0.0000
# 6 0.0000 0.0000 0.0000 -2.2848 0.0000 29.2458
#
#
#
# Elastic Compliance Matrix: (Units=1/GPa)
#
#
# Indices 1 2 3 4 5 6 
#
# 1 0.005977 -0.000714 -0.001578 0.000000 -0.000658 0.000000
# 2 -0.000714 0.015970 -0.001763 0.000000 -0.000374 0.000000
# 3 -0.001578 -0.001763 0.016044 0.000000 -0.007219 0.000000
# 4 0.000000 0.000000 0.000000 0.043203 0.000000 0.003375
# 5 -0.000658 -0.000374 -0.007219 0.000000 0.035031 0.000000
# 6 0.000000 0.000000 0.000000 0.003375 0.000000 0.034457
#
#
# Mechanical properties :
#
#
# Convention : Reuss Voigt Hill
#
# Bulk Modulus (GPa) = 33.46385 43.92326 38.69355
# Shear Modulus (GPa) = 29.62921 34.90460 32.26690
#
# Velocity S-wave (km/s) = 3.35650 3.64307 3.50272
# Velocity P-wave (km/s) = 5.26741 5.86491 5.57417
#
# Compressibility (1/GPa) = 0.02988300
#
# Stress axis : x y z
#
# Youngs Moduli (GPa) = 167.30548 62.61565 62.32666
#
# Poissons Ratio (x) = 0.04471 0.09833
# Poissons Ratio (y) = 0.11945 0.10987
# Poissons Ratio (z) = 0.26395 0.11038
#
# Static dielectric constant tensor:
#      x y z
#    x 2.092860 0.000000 0.013720 
#    y 0.000000 2.069140 0.000000 
#    z 0.013720 0.000000 2.167860 
# 
# From -- ./inp_files/181753.got.cif
#   From: 2010.05.17/outbox.cif.g08.bks.cpg/sg15_91_cif.got.tgz:181753.got - 2010.06.03 18:47:42.
