data_PCOD9257717
_publ_section_title
;
Structure prediction by ZEFSAII (Michael W. Deem and Ramdas Pophale) SiO2 
 PCOD9257717
Probable space group: C 2/C
;
_chemical_formula_sum "Si O2"
_cell_formula_units_Z 40
_cell_length_a 17.709504
_cell_length_b 22.732647
_cell_length_c 8.976580
_cell_angle_alpha 90.000000
_cell_angle_beta 26.346303
_cell_angle_gamma 90.000000
_cell_volume 1603.800105
_symmetry_space_group_name_H-M "C 2/C"
_symmetry_group_IT_number 15
_symmetry_cell_setting 'monoclinic'
loop_
_space_group_symop_operation_xyz
x,y,z
-x,y,1/2-z
-x,-y,-z
x,-y,1/2+z
1/2+x,1/2+y,z
1/2-x,1/2+y,1/2-z
1/2-x,1/2-y,-z
1/2+x,1/2-y,1/2+z
loop_
_atom_site_type_symbol
_atom_site_label
_atom_site_fract_x
_atom_site_fract_y
_atom_site_fract_z
Si Si1 0.851015 0.799464 0.140998
Si Si2 0.175067 0.583561 0.582026
Si Si3 0.245352 0.503953 0.192365
Si Si4 0.917140 0.078505 0.633938
Si Si5 0.402090 0.789820 0.163938
O O1 0.840587 0.856719 0.262038
O O2 0.671976 0.794681 0.372099
O O3 0.000000 0.810766 0.750000
O O4 0.924974 0.744439 0.102448
O O5 0.160384 0.552623 0.447780
O O6 0.130649 0.539187 0.794784
O O7 0.099615 0.647189 0.750723
O O8 0.381500 0.587765 0.230441
O O9 0.344409 0.459504 0.126134
O O10 0.361048 0.541472 0.875643
O O11 0.250000 0.750000 0.500000
#
# Coordination Sequence:
#
# PCOD9257717 Si02
#       5
#     8   8   8   8   8
#     4  10  18  32  52  78 103 144 181 226 254 322
#     4  11  17  30  46  79 107 135 176 220 282 313
#     4  10  20  26  49  80 112 136 164 232 283 318
#     4  11  16  29  45  78 113 132 172 220 286 314
#     4  10  19  32  53  76 107 141 186 219 260 319
#
# _framework density 24.940763
#
# number of rings (size 3 to 8) (size 9 to 14) (size 15 to 20)
#    0.000    1.600    6.000    4.800    0.000    0.000 
#    0.000    0.000    0.000    7.200    0.000   15.400 
#    0.000    0.000    0.000    0.000    0.000    7.200 
#
# Total GULP energy -111940.301234 kJ/mol
# GULP energy per Si atom -5597.015062 kJ/mol
# Density = 2.488400 g / cm^3
# Si number density = 24.940763 Si / 1000 Ang^3
#
#
#
# Elastic Constant Matrix: (Units=GPa)
#
#
# Indices 1 2 3 4 5 6 
#
# 1 87.2908 76.1499 43.3508 0.0085 40.0346 0.0051
# 2 76.1499 251.8720 51.3235 0.0093 11.8569 -0.0036
# 3 43.3508 51.3235 67.4011 0.0120 -9.1798 0.0089
# 4 0.0085 0.0093 0.0120 19.7413 -0.0065 6.3458
# 5 40.0346 11.8569 -9.1798 -0.0065 12.0469 -0.0010
# 6 0.0051 -0.0036 0.0089 6.3458 -0.0010 -6.1185
#
#
#
# Elastic Compliance Matrix: (Units=1/GPa)
#
#
# Indices 1 2 3 4 5 6 
#
# 1 -0.006959 -0.001433 0.009942 0.000005 0.032114 0.000010
# 2 -0.001433 0.005264 -0.003507 0.000002 -0.003089 -0.000007
# 3 0.009942 -0.003507 0.007903 -0.000018 -0.023564 0.000007
# 4 0.000005 0.000002 -0.000018 0.037990 -0.000008 0.039401
# 5 0.032114 -0.003089 -0.023564 -0.000008 -0.038629 -0.000008
# 6 0.000010 -0.000007 0.000007 0.039401 -0.000008 -0.122574
#
#
# Mechanical properties :
#
#
# Convention : Reuss Voigt Hill
#
# Bulk Modulus (GPa) = 61.69012 83.13469 72.41240
# Shear Modulus (GPa) = -41.11685 20.84991 -10.13347
#
# Velocity S-wave (km/s) = -4.06468 2.89446 -2.01788
# Velocity P-wave (km/s) = 1.66119 6.67651 4.86494
#
# Compressibility (1/GPa) = 0.01621005
#
# Stress axis : x y z
#
# Youngs Moduli (GPa) = -143.68908 189.98166 126.52790
#
# Poissons Ratio (x) = 0.27233 -1.25788
# Poissons Ratio (y) = -0.20597 0.44372
# Poissons Ratio (z) = 1.42849 0.66624
#
# Static dielectric constant tensor:
#      x y z
#    x 2.095050 -0.000020 -0.102520 
#    y -0.000020 1.914600 0.000040 
#    z -0.102520 0.000040 2.112420 
# 
# From -- ./inp_files/51648.got.cif
#   From: 2010.05.17/outbox.cif.g08.bks.cpg/sg15_26_cif.got.tgz:51648.got - 2010.06.03 18:47:42.
