data_PCOD9257311
_publ_section_title
;
Structure prediction by ZEFSAII (Michael W. Deem and Ramdas Pophale) SiO2 
 PCOD9257311
Probable space group: C 2/C
;
_chemical_formula_sum "Si O2"
_cell_formula_units_Z 64
_cell_length_a 18.116503
_cell_length_b 14.274933
_cell_length_c 30.559906
_cell_angle_alpha 90.000000
_cell_angle_beta 22.039567
_cell_angle_gamma 90.000000
_cell_volume 2965.633321
_symmetry_space_group_name_H-M "C 2/C"
_symmetry_group_IT_number 15
_symmetry_cell_setting 'monoclinic'
loop_
_space_group_symop_operation_xyz
x,y,z
-x,y,1/2-z
-x,-y,-z
x,-y,1/2+z
1/2+x,1/2+y,z
1/2-x,1/2+y,1/2-z
1/2-x,1/2-y,-z
1/2+x,1/2-y,1/2+z
loop_
_atom_site_type_symbol
_atom_site_label
_atom_site_fract_x
_atom_site_fract_y
_atom_site_fract_z
Si Si1 0.193807 0.332531 0.780893
Si Si2 0.248398 0.716349 0.566831
Si Si3 0.296894 0.727195 0.318684
Si Si4 0.174848 0.027758 0.785778
Si Si5 0.701012 0.514507 0.168362
Si Si6 0.942898 0.810432 0.382374
Si Si7 0.691678 0.068816 0.969200
Si Si8 0.401568 0.887707 0.430490
O O1 0.240787 0.272538 0.798506
O O2 0.339610 0.419129 0.690041
O O3 0.127491 0.259715 0.780259
O O4 0.995979 0.387026 0.904161
O O5 0.290453 0.704510 0.595626
O O6 0.388569 0.790450 0.464996
O O7 0.202631 0.631272 0.558856
O O8 0.032018 0.763391 0.687490
O O9 0.246107 0.623319 0.362352
O O10 0.198021 0.014384 0.720469
O O11 0.374796 0.074483 0.694780
O O12 0.000117 0.104471 0.884241
O O13 0.500000 0.508296 0.250000
O O14 0.842811 0.449135 0.062359
O O15 0.750000 0.750000 0.500000
O O16 0.873825 0.862626 0.376899
O O17 0.717332 0.967931 0.978241
#
# Coordination Sequence:
#
# PCOD9257311 Si02
#       8
#     8   8   8   8   8   8   8   8
#     4   9  21  32  53  79 105 146 183 229 277 335
#     4  10  19  30  48  72 108 146 176 223 267 342
#     4  10  18  31  51  75 109 143 182 227 284 336
#     4  10  21  32  53  79 112 140 180 234 270 337
#     4  11  17  29  51  79 108 142 173 220 302 339
#     4  10  20  37  54  79 112 153 185 225 281 343
#     4  10  19  33  52  76 111 142 180 227 283 337
#     4  10  20  32  47  78 109 142 184 220 281 325
#
# _framework density 21.580551
#
# number of rings (size 3 to 8) (size 9 to 14) (size 15 to 20)
#    0.000    2.000    3.750    0.750    3.500    1.500 
#    0.000    0.000    0.000    0.750    0.000   52.500 
#    0.000    0.000    0.000    0.000    0.000    0.000 
#
# Total GULP energy -178218.633086 kJ/mol
# GULP energy per Si atom -5569.332284 kJ/mol
# Density = 2.153143 g / cm^3
# Si number density = 21.580551 Si / 1000 Ang^3
#
#
#
# Elastic Constant Matrix: (Units=GPa)
#
#
# Indices 1 2 3 4 5 6 
#
# 1 83.2409 52.0387 24.2183 0.0157 -10.7595 -0.0051
# 2 52.0387 77.5819 10.5216 0.0037 -9.8660 -0.0099
# 3 24.2183 10.5216 33.1489 0.0281 -5.6771 -0.0265
# 4 0.0157 0.0037 0.0281 28.8084 -0.0267 -10.0844
# 5 -10.7595 -9.8660 -5.6771 -0.0267 23.1334 0.0016
# 6 -0.0051 -0.0099 -0.0265 -10.0844 0.0016 49.1916
#
#
#
# Elastic Compliance Matrix: (Units=1/GPa)
#
#
# Indices 1 2 3 4 5 6 
#
# 1 0.025707 -0.015121 -0.013610 0.000001 0.002167 -0.000008
# 2 -0.015121 0.022919 0.004429 0.000007 0.003828 0.000007
# 3 -0.013610 0.004429 0.039609 -0.000021 0.005279 0.000016
# 4 0.000001 0.000007 -0.000021 0.037396 0.000041 0.007666
# 5 0.002167 0.003828 0.005279 0.000041 0.047164 0.000011
# 6 -0.000008 0.000007 0.000016 0.007666 0.000011 0.021900
#
#
# Mechanical properties :
#
#
# Convention : Reuss Voigt Hill
#
# Bulk Modulus (GPa) = 25.23458 40.83656 33.03557
# Shear Modulus (GPa) = 19.49249 27.37288 23.43269
#
# Velocity S-wave (km/s) = 3.00866 3.56533 3.29876
# Velocity P-wave (km/s) = 4.87729 5.99272 5.46355
#
# Compressibility (1/GPa) = 0.03962815
#
# Stress axis : x y z
#
# Youngs Moduli (GPa) = 38.90057 43.63257 25.24690
#
# Poissons Ratio (x) = 0.65979 0.34362
# Poissons Ratio (y) = 0.58823 -0.11181
# Poissons Ratio (z) = 0.52945 -0.19324
#
# Static dielectric constant tensor:
#      x y z
#    x 1.862820 0.000000 -0.038350 
#    y 0.000000 1.843570 0.000020 
#    z -0.038350 0.000020 1.906290 
# 
# From -- ./inp_files/316370.got.cif
#   From: 2010.05.17/outbox.cif.g08.bks.cpg/sg15_159_cif.got.tgz:316370.got - 2010.06.03 18:47:42.
