data_PCOD9257069
_publ_section_title
;
Structure prediction by ZEFSAII (Michael W. Deem and Ramdas Pophale) SiO2 
 PCOD9257069
Probable space group: C 2/C
;
_chemical_formula_sum "Si O2"
_cell_formula_units_Z 40
_cell_length_a 21.818885
_cell_length_b 9.273957
_cell_length_c 12.380792
_cell_angle_alpha 90.000000
_cell_angle_beta 138.173626
_cell_angle_gamma 90.000000
_cell_volume 1670.670695
_symmetry_space_group_name_H-M "C 2/C"
_symmetry_group_IT_number 15
_symmetry_cell_setting 'monoclinic'
loop_
_space_group_symop_operation_xyz
x,y,z
-x,y,1/2-z
-x,-y,-z
x,-y,1/2+z
1/2+x,1/2+y,z
1/2-x,1/2+y,1/2-z
1/2-x,1/2-y,-z
1/2+x,1/2-y,1/2+z
loop_
_atom_site_type_symbol
_atom_site_label
_atom_site_fract_x
_atom_site_fract_y
_atom_site_fract_z
Si Si1 0.712165 0.423966 0.371127
Si Si2 0.604842 0.925877 0.365336
Si Si3 0.601291 0.666924 0.528437
Si Si4 0.606377 0.279715 0.674394
Si Si5 0.100405 0.847074 0.428471
O O1 0.819628 0.454731 0.515865
O O2 0.676314 0.337811 0.220482
O O3 0.663963 0.583276 0.293860
O O4 0.673261 0.352122 0.427936
O O5 0.500000 0.971935 0.250000
O O6 0.618731 0.792679 0.465967
O O7 0.621843 0.860332 0.268392
O O8 0.501472 0.686617 0.450737
O O9 0.597231 0.514199 0.463654
O O10 0.621942 0.264315 0.567733
O O11 0.000000 0.810074 0.250000
#
# Coordination Sequence:
#
# PCOD9257069 Si02
#       5
#     8   8   8   8   8
#     4  11  19  31  57  86 113 156 191 235 295 349
#     4  10  21  36  55  89 116 151 199 237 280 352
#     4  10  18  31  52  84 122 143 188 248 292 333
#     4  10  18  30  52  86 119 142 187 251 292 330
#     4  11  16  28  52  87 115 141 181 242 300 338
#
# _framework density 23.942481000000001
#
# number of rings (size 3 to 8) (size 9 to 14) (size 15 to 20)
#    0.000    1.600    6.000    2.400    0.000    0.000 
#    0.000    0.000    0.000   12.000    5.200    5.600 
#    0.000    0.000    0.000    0.000    0.000    0.000 
#
# Total GULP energy -112137.514400 kJ/mol
# GULP energy per Si atom -5606.875720 kJ/mol
# Density = 2.388799 g / cm^3
# Si number density = 23.942481 Si / 1000 Ang^3
#
#
#
# Elastic Constant Matrix: (Units=GPa)
#
#
# Indices 1 2 3 4 5 6 
#
# 1 139.4748 57.4422 93.4970 0.0000 -12.3515 0.0000
# 2 57.4422 86.1959 55.1280 0.0000 -5.9610 0.0000
# 3 93.4970 55.1280 149.1778 0.0000 -10.8336 0.0000
# 4 0.0000 0.0000 0.0000 21.4778 0.0000 8.9347
# 5 -12.3515 -5.9610 -10.8336 0.0000 41.7702 0.0000
# 6 0.0000 0.0000 0.0000 8.9347 0.0000 14.7304
#
#
#
# Elastic Compliance Matrix: (Units=1/GPa)
#
#
# Indices 1 2 3 4 5 6 
#
# 1 0.013825 -0.004759 -0.006786 0.000000 0.001649 0.000000
# 2 -0.004759 0.016852 -0.003233 0.000000 0.000159 0.000000
# 3 -0.006786 -0.003233 0.012202 0.000000 0.000697 0.000000
# 4 0.000000 0.000000 0.000000 0.062272 0.000000 -0.037771
# 5 0.001649 0.000159 0.000697 0.000000 0.024631 0.000000
# 6 0.000000 0.000000 0.000000 -0.037771 0.000000 0.090797
#
#
# Mechanical properties :
#
#
# Convention : Reuss Voigt Hill
#
# Bulk Modulus (GPa) = 75.06493 87.44255 81.25374
# Shear Modulus (GPa) = 19.64036 26.84776 23.24406
#
# Velocity S-wave (km/s) = 2.86722 3.35228 3.11919
# Velocity P-wave (km/s) = 6.51011 7.18226 6.85443
#
# Compressibility (1/GPa) = 0.01332180
#
# Stress axis : x y z
#
# Youngs Moduli (GPa) = 72.33306 59.34096 81.95180
#
# Poissons Ratio (x) = 0.28239 0.55616
# Poissons Ratio (y) = 0.34421 0.26498
# Poissons Ratio (z) = 0.49089 0.19187
#
# Static dielectric constant tensor:
#      x y z
#    x 1.862360 0.000000 0.008730 
#    y 0.000000 1.909530 0.000000 
#    z 0.008730 0.000000 1.894930 
# 
# From -- ./inp_files/95125.got.cif
#   From: 2010.05.17/outbox.cif.g08.bks.cpg/sg15_48_cif.got.tgz:95125.got - 2010.06.03 18:47:42.
