data_PCOD9257623
_publ_section_title
;
Structure prediction by ZEFSAII (Michael W. Deem and Ramdas Pophale) SiO2 
 PCOD9257623
Probable space group: C 2/C
;
_chemical_formula_sum "Si O2"
_cell_formula_units_Z 44
_cell_length_a 13.222651
_cell_length_b 23.960164
_cell_length_c 10.790377
_cell_angle_alpha 90.000000
_cell_angle_beta 41.412747
_cell_angle_gamma 90.000000
_cell_volume 2261.313758
_symmetry_space_group_name_H-M "C 2/C"
_symmetry_group_IT_number 15
_symmetry_cell_setting 'monoclinic'
loop_
_space_group_symop_operation_xyz
x,y,z
-x,y,1/2-z
-x,-y,-z
x,-y,1/2+z
1/2+x,1/2+y,z
1/2-x,1/2+y,1/2-z
1/2-x,1/2-y,-z
1/2+x,1/2-y,1/2+z
loop_
_atom_site_type_symbol
_atom_site_label
_atom_site_fract_x
_atom_site_fract_y
_atom_site_fract_z
Si Si1 0.000000 0.745478 0.250000
Si Si2 0.094293 0.935730 0.792920
Si Si3 0.732435 0.176051 0.883849
Si Si4 0.890344 0.062325 0.730421
Si Si5 0.205220 0.180184 0.176387
Si Si6 0.883090 0.216621 0.519535
O O1 0.128016 0.786868 0.187511
O O2 0.916486 0.703589 0.421588
O O3 0.215645 0.885636 0.682539
O O4 0.000000 0.929493 0.750000
O O5 0.162115 0.997960 0.731913
O O6 0.984744 0.928239 0.014661
O O7 0.766095 0.110481 0.868532
O O8 0.755275 0.186723 0.718318
O O9 0.000000 0.064739 0.750000
O O10 0.351395 0.217909 0.067036
O O11 0.055680 0.199015 0.392521
O O12 0.154931 0.197442 0.084267
#
# Coordination Sequence:
#
# PCOD9257623 Si02
#       6
#     4   8   8   8   8   8
#     4  10  24  30  52  70 108 136 182 206 272 304
#     4  10  18  33  51  79 102 136 172 222 253 309
#     4  11  19  37  47  78 102 144 170 224 254 323
#     4  10  20  31  54  77 104 133 178 217 260 302
#     4  10  18  32  49  82  99 134 168 214 262 321
#     4  10  19  29  53  71 107 130 168 211 268 305
#
# _framework density 19.457716000000001
#
# number of rings (size 3 to 8) (size 9 to 14) (size 15 to 20)
#    0.000    1.818    4.545    1.091    0.000    0.000 
#    0.000    0.000    0.000    4.364    0.000   10.182 
#    0.000    0.000    0.000    0.000    0.000    0.000 
#
# Total GULP energy -122596.663383 kJ/mol
# GULP energy per Si atom -5572.575608 kJ/mol
# Density = 1.941343 g / cm^3
# Si number density = 19.457716 Si / 1000 Ang^3
#
#
#
# Elastic Constant Matrix: (Units=GPa)
#
#
# Indices 1 2 3 4 5 6 
#
# 1 39.2591 12.8581 22.4523 0.0000 9.0618 0.0000
# 2 12.8581 192.1394 32.6464 0.0000 -4.1321 0.0000
# 3 22.4523 32.6464 92.0312 0.0000 14.8626 0.0000
# 4 0.0000 0.0000 0.0000 22.3782 0.0000 -8.5765
# 5 9.0618 -4.1321 14.8626 0.0000 19.5161 0.0000
# 6 0.0000 0.0000 0.0000 -8.5765 0.0000 9.4334
#
#
#
# Elastic Compliance Matrix: (Units=1/GPa)
#
#
# Indices 1 2 3 4 5 6 
#
# 1 0.031545 -0.001417 -0.005449 0.000000 -0.010797 0.000000
# 2 -0.001417 0.005765 -0.002284 0.000000 0.003618 0.000000
# 3 -0.005449 -0.002284 0.014452 0.000000 -0.008959 0.000000
# 4 0.000000 0.000000 0.000000 0.068584 0.000000 0.062354
# 5 -0.010797 0.003618 -0.008959 0.000000 0.063842 0.000000
# 6 0.000000 0.000000 0.000000 0.062354 0.000000 0.162696
#
#
# Mechanical properties :
#
#
# Convention : Reuss Voigt Hill
#
# Bulk Modulus (GPa) = 29.88487 51.03814 40.46151
# Shear Modulus (GPa) = 13.28589 27.29707 20.29148
#
# Velocity S-wave (km/s) = 2.61590 3.74958 3.23282
# Velocity P-wave (km/s) = 4.95137 6.71067 5.89700
#
# Compressibility (1/GPa) = 0.03346175
#
# Stress axis : x y z
#
# Youngs Moduli (GPa) = 31.70108 173.45422 69.19318
#
# Poissons Ratio (x) = 0.24584 0.37706
# Poissons Ratio (y) = 0.04493 0.15801
# Poissons Ratio (z) = 0.17275 0.39610
#
# Static dielectric constant tensor:
#      x y z
#    x 1.720310 0.000000 0.050810 
#    y 0.000000 1.720390 0.000000 
#    z 0.050810 0.000000 1.719940 
# 
# From -- ./inp_files/100424.got.cif
#   From: 2010.05.17/outbox.cif.g08.bks.cpg/sg15_51_cif.got.tgz:100424.got - 2010.06.03 18:47:42.
