data_PCOD9257009
_publ_section_title
;
Structure prediction by ZEFSAII (Michael W. Deem and Ramdas Pophale) SiO2 
 PCOD9257009
Probable space group: C 2/C
;
_chemical_formula_sum "Si O2"
_cell_formula_units_Z 64
_cell_length_a 19.693728
_cell_length_b 9.105033
_cell_length_c 22.242507
_cell_angle_alpha 90.000000
_cell_angle_beta 112.692413
_cell_angle_gamma 90.000000
_cell_volume 3679.607992
_symmetry_space_group_name_H-M "C 2/C"
_symmetry_group_IT_number 15
_symmetry_cell_setting 'monoclinic'
loop_
_space_group_symop_operation_xyz
x,y,z
-x,y,1/2-z
-x,-y,-z
x,-y,1/2+z
1/2+x,1/2+y,z
1/2-x,1/2+y,1/2-z
1/2-x,1/2-y,-z
1/2+x,1/2-y,1/2+z
loop_
_atom_site_type_symbol
_atom_site_label
_atom_site_fract_x
_atom_site_fract_y
_atom_site_fract_z
Si Si1 0.644167 0.245952 0.164269
Si Si2 0.996000 0.577039 0.400889
Si Si3 0.853358 0.690847 0.093454
Si Si4 0.559150 0.827156 0.043125
Si Si5 0.207141 0.966492 0.491936
Si Si6 0.644729 0.463510 0.595895
Si Si7 0.223462 0.253043 0.816309
Si Si8 0.705462 0.018267 0.092300
O O1 0.571433 0.153451 0.155509
O O2 0.623930 0.406440 0.133214
O O3 0.697847 0.251452 0.239423
O O4 0.682093 0.158179 0.122398
O O5 0.975419 0.410821 0.411615
O O6 0.073430 0.602457 0.395845
O O7 0.004227 0.657847 0.468606
O O8 0.847950 0.846462 0.056556
O O9 0.842887 0.712334 0.160667
O O10 0.779127 0.613127 0.044385
O O11 0.584145 0.662654 0.064547
O O12 0.631830 0.924428 0.049931
O O13 0.167432 0.027291 0.537784
O O14 0.243077 0.051742 0.447688
O O15 0.713498 0.373695 0.648378
O O16 0.253647 0.096507 0.849777
#
# Coordination Sequence:
#
# PCOD9257009 Si02
#       8
#     8   8   8   8   8   8   8   8
#     4  11  22  30  45  78 105 133 160 199 255 303
#     4  10  18  30  51  74 103 125 163 204 248 305
#     4   9  15  30  54  73  90 125 171 214 234 291
#     4   9  17  31  50  75  97 131 161 203 256 292
#     4   9  15  29  52  74  93 124 171 207 255 275
#     4  10  19  33  52  72 103 129 166 210 246 300
#     4   9  19  34  53  69  94 134 171 207 242 289
#     4   9  17  32  53  70  95 128 171 211 243 291
#
# _framework density 17.393156999999999
#
# number of rings (size 3 to 8) (size 9 to 14) (size 15 to 20)
#    0.000    2.500    2.500    2.250    0.000    1.500 
#    0.000    0.000    0.000    0.000    0.000    5.250 
#    0.000    0.000    0.000    0.000    0.000    0.000 
#
# Total GULP energy -178217.713762 kJ/mol
# GULP energy per Si atom -5569.303555 kJ/mol
# Density = 1.735357 g / cm^3
# Si number density = 17.393157 Si / 1000 Ang^3
#
#
#
# Elastic Constant Matrix: (Units=GPa)
#
#
# Indices 1 2 3 4 5 6 
#
# 1 54.4818 17.4252 -2.3191 0.0000 0.4340 0.0000
# 2 17.4252 52.5031 14.4321 0.0000 -6.9891 0.0000
# 3 -2.3191 14.4321 66.1863 0.0000 -4.9008 0.0000
# 4 0.0000 0.0000 0.0000 11.3411 0.0000 -0.2459
# 5 0.4340 -6.9891 -4.9008 0.0000 18.4592 0.0000
# 6 0.0000 0.0000 0.0000 -0.2459 0.0000 19.9325
#
#
#
# Elastic Compliance Matrix: (Units=1/GPa)
#
#
# Indices 1 2 3 4 5 6 
#
# 1 0.021030 -0.007990 0.002263 0.000000 -0.002919 0.000000
# 2 -0.007990 0.024124 -0.004947 0.000000 0.008009 0.000000
# 3 0.002263 -0.004947 0.016448 0.000000 0.002440 0.000000
# 4 0.000000 0.000000 0.000000 0.088199 0.000000 0.001088
# 5 -0.002919 0.008009 0.002440 0.000000 0.057922 0.000000
# 6 0.000000 0.000000 0.000000 0.001088 0.000000 0.050183
#
#
# Mechanical properties :
#
#
# Convention : Reuss Voigt Hill
#
# Bulk Modulus (GPa) = 24.84301 25.80530 25.32415
# Shear Modulus (GPa) = 17.08394 19.52208 18.30301
#
# Velocity S-wave (km/s) = 3.13744 3.35386 3.24745
# Velocity P-wave (km/s) = 5.23822 5.46502 5.35282
#
# Compressibility (1/GPa) = 0.04025278
#
# Stress axis : x y z
#
# Youngs Moduli (GPa) = 47.55139 41.45180 60.79892
#
# Poissons Ratio (x) = 0.33121 -0.13759
# Poissons Ratio (y) = 0.37995 0.30080
# Poissons Ratio (z) = -0.10761 0.20508
#
# Static dielectric constant tensor:
#      x y z
#    x 1.614470 0.000000 -0.008510 
#    y 0.000000 1.591010 0.000000 
#    z -0.008510 0.000000 1.579580 
# 
# From -- ./inp_files/279390.got.cif
#   From: 2010.05.17/outbox.cif.g08.bks.cpg/sg15_140_cif.got.tgz:279390.got - 2010.06.03 18:47:42.
