data_PCOD9257465
_publ_section_title
;
Structure prediction by ZEFSAII (Michael W. Deem and Ramdas Pophale) SiO2 
 PCOD9257465
Probable space group: C 2/C
;
_chemical_formula_sum "Si O2"
_cell_formula_units_Z 56
_cell_length_a 29.778549
_cell_length_b 5.556357
_cell_length_c 12.770357
_cell_angle_alpha 90.000000
_cell_angle_beta 85.288348
_cell_angle_gamma 90.000000
_cell_volume 2105.846042
_symmetry_space_group_name_H-M "C 2/C"
_symmetry_group_IT_number 15
_symmetry_cell_setting 'monoclinic'
loop_
_space_group_symop_operation_xyz
x,y,z
-x,y,1/2-z
-x,-y,-z
x,-y,1/2+z
1/2+x,1/2+y,z
1/2-x,1/2+y,1/2-z
1/2-x,1/2-y,-z
1/2+x,1/2-y,1/2+z
loop_
_atom_site_type_symbol
_atom_site_label
_atom_site_fract_x
_atom_site_fract_y
_atom_site_fract_z
Si Si1 0.423289 0.611383 0.888442
Si Si2 0.041482 0.390964 0.136695
Si Si3 0.704392 0.125404 0.590885
Si Si4 0.684188 0.376130 0.069434
Si Si5 0.346008 0.874982 0.193223
Si Si6 0.556191 0.871932 0.421367
Si Si7 0.701843 0.376220 0.312263
O O1 0.438628 0.364478 0.833390
O O2 0.369738 0.622688 0.914972
O O3 0.439454 0.853523 0.825731
O O4 0.445269 0.643292 0.999587
O O5 0.987393 0.385356 0.142683
O O6 0.055074 0.418014 0.009513
O O7 0.701644 0.368458 0.524136
O O8 0.701879 0.879807 0.527159
O O9 0.661889 0.128274 0.679154
O O10 0.747029 0.125879 0.659109
O O11 0.702480 0.381668 0.185080
O O12 0.324438 0.127746 0.161675
O O13 0.397123 0.873004 0.147160
O O14 0.323641 0.626325 0.155922
#
# Coordination Sequence:
#
# PCOD9257465 Si02
#       7
#     8   8   8   8   8   8   8
#     4  10  19  33  53  78 101 134 169 203 252 302
#     4   9  20  34  53  76 100 136 169 202 247 305
#     4  10  19  35  54  75  98 136 174 205 251 296
#     4  10  18  31  55  76 100 130 176 203 246 306
#     4  10  19  30  55  78 100 125 172 222 239 291
#     4   9  21  33  56  77 102 130 175 204 254 292
#     4  10  20  34  54  76  98 136 172 208 251 294
#
# _framework density 26.592637
#
# number of rings (size 3 to 8) (size 9 to 14) (size 15 to 20)
#    0.857    1.429    0.000    5.571    2.000    0.000 
#    0.000    0.000    0.000   30.000    0.000    0.000 
#    0.000    0.000    0.000    0.000    0.000    0.000 
#
# Total GULP energy -156862.806057 kJ/mol
# GULP energy per Si atom -5602.243073 kJ/mol
# Density = 2.653211 g / cm^3
# Si number density = 26.592637 Si / 1000 Ang^3
#
#
#
# Elastic Constant Matrix: (Units=GPa)
#
#
# Indices 1 2 3 4 5 6 
#
# 1 111.4133 72.4859 18.8570 0.0000 -19.7559 0.0000
# 2 72.4859 278.6839 25.2388 0.0000 9.1809 0.0000
# 3 18.8570 25.2388 70.5909 0.0000 -9.3762 0.0000
# 4 0.0000 0.0000 0.0000 47.3508 0.0000 5.0141
# 5 -19.7559 9.1809 -9.3762 0.0000 38.8138 0.0000
# 6 0.0000 0.0000 0.0000 5.0141 0.0000 37.2319
#
#
#
# Elastic Compliance Matrix: (Units=1/GPa)
#
#
# Indices 1 2 3 4 5 6 
#
# 1 0.012627 -0.003401 -0.001236 0.000000 0.006933 0.000000
# 2 -0.003401 0.004683 -0.001181 0.000000 -0.003124 0.000000
# 3 -0.001236 -0.001181 0.015365 0.000000 0.003362 0.000000
# 4 0.000000 0.000000 0.000000 0.021425 0.000000 -0.002885
# 5 0.006933 -0.003124 0.003362 0.000000 0.030844 0.000000
# 6 0.000000 0.000000 0.000000 -0.002885 0.000000 0.027247
#
#
# Mechanical properties :
#
#
# Convention : Reuss Voigt Hill
#
# Bulk Modulus (GPa) = 47.53072 77.09460 62.31266
# Shear Modulus (GPa) = 38.21524 47.61972 42.91748
#
# Velocity S-wave (km/s) = 3.79497 4.23627 4.02168
# Velocity P-wave (km/s) = 6.09220 7.27886 6.71181
#
# Compressibility (1/GPa) = 0.02103903
#
# Stress axis : x y z
#
# Youngs Moduli (GPa) = 79.19817 213.55532 65.08282
#
# Poissons Ratio (x) = 0.72621 0.08046
# Poissons Ratio (y) = 0.26932 0.07684
# Poissons Ratio (z) = 0.09791 0.25215
#
# Static dielectric constant tensor:
#      x y z
#    x 1.984850 0.000000 0.024390 
#    y 0.000000 2.108910 0.000000 
#    z 0.024390 0.000000 2.152710 
# 
# From -- ./inp_files/299741.got.cif
#   From: 2010.05.17/outbox.cif.g08.bks.cpg/sg15_150_cif.got.tgz:299741.got - 2010.06.03 18:47:42.
