data_PCOD9257535
_publ_section_title
;
Structure prediction by ZEFSAII (Michael W. Deem and Ramdas Pophale) SiO2 
 PCOD9257535
Probable space group: C 2/C
;
_chemical_formula_sum "Si O2"
_cell_formula_units_Z 44
_cell_length_a 24.818804
_cell_length_b 10.539724
_cell_length_c 11.512685
_cell_angle_alpha 90.000000
_cell_angle_beta 148.253292
_cell_angle_gamma 90.000000
_cell_volume 1584.560111
_symmetry_space_group_name_H-M "C 2/C"
_symmetry_group_IT_number 15
_symmetry_cell_setting 'monoclinic'
loop_
_space_group_symop_operation_xyz
x,y,z
-x,y,1/2-z
-x,-y,-z
x,-y,1/2+z
1/2+x,1/2+y,z
1/2-x,1/2+y,1/2-z
1/2-x,1/2-y,-z
1/2+x,1/2-y,1/2+z
loop_
_atom_site_type_symbol
_atom_site_label
_atom_site_fract_x
_atom_site_fract_y
_atom_site_fract_z
Si Si1 0.500000 0.521305 0.750000
Si Si2 0.174483 0.179540 0.512825
Si Si3 0.766442 0.018674 0.542214
Si Si4 0.453544 0.700347 0.853046
Si Si5 0.631095 0.108737 0.492716
Si Si6 0.903860 0.377285 0.949224
O O1 0.400775 0.436770 0.589189
O O2 0.522257 0.602585 0.907308
O O3 0.286055 0.176780 0.775070
O O4 0.120374 0.295520 0.480714
O O5 0.199493 0.123454 0.429985
O O6 0.861042 0.114186 0.731694
O O7 0.698143 0.020060 0.530961
O O8 0.696436 0.087911 0.313496
O O9 0.415076 0.788463 0.677725
O O10 0.479600 0.793985 0.006888
O O11 0.564481 0.018010 0.454196
#
# Coordination Sequence:
#
# PCOD9257535 Si02
#       6
#     4   8   8   8   8   8
#     4  10  24  36  58  84 120 152 192 228 290 348
#     4  10  19  34  54  88 113 149 189 234 281 337
#     4   9  17  32  56  84 114 146 192 235 279 335
#     4  10  18  38  55  83 116 157 188 232 283 353
#     4  10  18  33  59  85 111 151 194 234 279 337
#     4  10  18  31  58  81 114 148 188 239 282 327
#
# _framework density 27.767959000000001
#
# number of rings (size 3 to 8) (size 9 to 14) (size 15 to 20)
#    0.000    2.182    3.636    1.091    0.000    1.455 
#    0.000    1.818    0.000    0.000    0.000    0.000 
#    0.000    0.000    0.000    0.000    0.000    0.000 
#
# Total GULP energy -123007.260703 kJ/mol
# GULP energy per Si atom -5591.239123 kJ/mol
# Density = 2.770476 g / cm^3
# Si number density = 27.767959 Si / 1000 Ang^3
#
#
#
# Elastic Constant Matrix: (Units=GPa)
#
#
# Indices 1 2 3 4 5 6 
#
# 1 82.6792 53.9471 -4.4416 0.0000 -6.2235 0.0000
# 2 53.9471 135.2447 15.0827 0.0000 -5.0118 0.0000
# 3 -4.4416 15.0827 77.9080 0.0000 -24.8099 0.0000
# 4 0.0000 0.0000 0.0000 15.0583 0.0000 -26.2038
# 5 -6.2235 -5.0118 -24.8099 0.0000 28.6710 0.0000
# 6 0.0000 0.0000 0.0000 -26.2038 0.0000 67.3783
#
#
#
# Elastic Compliance Matrix: (Units=1/GPa)
#
#
# Indices 1 2 3 4 5 6 
#
# 1 0.017550 -0.007259 0.004438 0.000000 0.006381 0.000000
# 2 -0.007259 0.010560 -0.003274 0.000000 -0.002563 0.000000
# 3 0.004438 -0.003274 0.019114 0.000000 0.016931 0.000000
# 4 0.000000 0.000000 0.000000 0.205446 0.000000 0.079899
# 5 0.006381 -0.002563 0.016931 0.000000 0.050466 0.000000
# 6 0.000000 0.000000 0.000000 0.079899 0.000000 0.045915
#
#
# Mechanical properties :
#
#
# Convention : Reuss Voigt Hill
#
# Bulk Modulus (GPa) = 28.54458 47.22313 37.88386
# Shear Modulus (GPa) = 13.40771 37.63777 25.52274
#
# Velocity S-wave (km/s) = 2.19977 3.68562 3.03503
# Velocity P-wave (km/s) = 4.09316 5.92917 5.09455
#
# Compressibility (1/GPa) = 0.03503292
#
# Stress axis : x y z
#
# Youngs Moduli (GPa) = 56.98023 94.70024 52.31686
#
# Poissons Ratio (x) = 0.68742 -0.23217
# Poissons Ratio (y) = 0.41361 0.17131
# Poissons Ratio (z) = -0.25287 0.31009
#
# Static dielectric constant tensor:
#      x y z
#    x 2.199720 0.000000 0.032470 
#    y 0.000000 2.138370 0.000000 
#    z 0.032470 0.000000 2.160930 
# 
# From -- ./inp_files/122595.got.cif
#   From: 2010.05.17/outbox.cif.g08.bks.cpg/sg15_62_cif.got.tgz:122595.got - 2010.06.03 18:47:42.
