data_PCOD9257608
_publ_section_title
;
Structure prediction by ZEFSAII (Michael W. Deem and Ramdas Pophale) SiO2 
 PCOD9257608
Probable space group: C 2/C
;
_chemical_formula_sum "Si O2"
_cell_formula_units_Z 64
_cell_length_a 27.155522
_cell_length_b 14.735959
_cell_length_c 10.172531
_cell_angle_alpha 90.000000
_cell_angle_beta 78.624152
_cell_angle_gamma 90.000000
_cell_volume 3990.696381
_symmetry_space_group_name_H-M "C 2/C"
_symmetry_group_IT_number 15
_symmetry_cell_setting 'monoclinic'
loop_
_space_group_symop_operation_xyz
x,y,z
-x,y,1/2-z
-x,-y,-z
x,-y,1/2+z
1/2+x,1/2+y,z
1/2-x,1/2+y,1/2-z
1/2-x,1/2-y,-z
1/2+x,1/2-y,1/2+z
loop_
_atom_site_type_symbol
_atom_site_label
_atom_site_fract_x
_atom_site_fract_y
_atom_site_fract_z
Si Si1 0.303023 0.112259 0.104778
Si Si2 0.439100 0.579223 0.632105
Si Si3 0.646412 0.277943 0.328370
Si Si4 0.765875 0.104048 0.100997
Si Si5 0.810311 0.597606 0.596068
Si Si6 0.641425 0.730096 0.515544
Si Si7 0.057685 0.913488 0.062301
Si Si8 0.240241 0.106702 0.881685
O O1 0.348342 0.181606 0.102839
O O2 0.268402 0.118426 0.253077
O O3 0.321674 0.009064 0.075176
O O4 0.266269 0.135232 0.003521
O O5 0.402845 0.662753 0.617493
O O6 0.427852 0.493203 0.545948
O O7 0.431698 0.558538 0.791417
O O8 0.497942 0.601835 0.582616
O O9 0.648936 0.265536 0.169383
O O10 0.694742 0.333073 0.354318
O O11 0.779078 0.997074 0.093204
O O12 0.731779 0.120703 0.991087
O O13 0.813703 0.168858 0.068145
O O14 0.853980 0.669799 0.547570
O O15 0.784053 0.608499 0.750154
O O16 0.589988 0.676219 0.518515
#
# Coordination Sequence:
#
# PCOD9257608 Si02
#       8
#     8   8   8   8   8   8   8   8
#     4  10  21  32  47  70 103 131 164 203 244 277
#     4   9  19  36  56  75 103 126 159 201 252 293
#     4  11  19  32  51  74  96 130 166 203 240 289
#     4  10  18  32  49  70  98 136 161 197 241 290
#     4  10  19  33  48  67  98 135 165 197 240 288
#     4  11  19  31  54  72  94 131 173 195 237 298
#     4   9  19  36  55  78  99 128 159 203 247 296
#     4  10  20  31  46  73 103 128 163 202 239 287
#
# _framework density 16.037300999999999
#
# number of rings (size 3 to 8) (size 9 to 14) (size 15 to 20)
#    0.000    2.000    2.500    2.250    0.000    0.000 
#    4.500    0.000    0.000    0.750    0.000    0.000 
#    0.000    0.000    0.000    0.000    0.000    0.000 
#
# Total GULP energy -178487.684669 kJ/mol
# GULP energy per Si atom -5577.740146 kJ/mol
# Density = 1.600080 g / cm^3
# Si number density = 16.037301 Si / 1000 Ang^3
#
#
#
# Elastic Constant Matrix: (Units=GPa)
#
#
# Indices 1 2 3 4 5 6 
#
# 1 55.9133 52.3492 20.1837 0.0000 5.9388 0.0000
# 2 52.3492 93.6434 21.1801 0.0000 -1.5591 0.0000
# 3 20.1837 21.1801 50.7316 0.0000 6.2337 0.0000
# 4 0.0000 0.0000 0.0000 23.9798 0.0000 -1.3717
# 5 5.9388 -1.5591 6.2337 0.0000 17.6871 0.0000
# 6 0.0000 0.0000 0.0000 -1.3717 0.0000 27.9033
#
#
#
# Elastic Compliance Matrix: (Units=1/GPa)
#
#
# Indices 1 2 3 4 5 6 
#
# 1 0.043015 -0.022988 -0.005741 0.000000 -0.014446 0.000000
# 2 -0.022988 0.024222 -0.002276 0.000000 0.010656 0.000000
# 3 -0.005741 -0.002276 0.023763 0.000000 -0.006648 0.000000
# 4 0.000000 0.000000 0.000000 0.041819 0.000000 0.002056
# 5 -0.014446 0.010656 -0.006648 0.000000 0.064671 0.000000
# 6 0.000000 0.000000 0.000000 0.002056 0.000000 0.035939
#
#
# Mechanical properties :
#
#
# Convention : Reuss Voigt Hill
#
# Bulk Modulus (GPa) = 34.49594 43.07938 38.78766
# Shear Modulus (GPa) = 16.38792 21.01908 18.70350
#
# Velocity S-wave (km/s) = 3.20013 3.62420 3.41874
# Velocity P-wave (km/s) = 5.93388 6.66584 6.31048
#
# Compressibility (1/GPa) = 0.02898892
#
# Stress axis : x y z
#
# Youngs Moduli (GPa) = 23.24788 41.28451 42.08279
#
# Poissons Ratio (x) = 0.94907 0.24159
# Poissons Ratio (y) = 0.53443 0.09578
# Poissons Ratio (z) = 0.13346 0.09396
#
# Static dielectric constant tensor:
#      x y z
#    x 1.511690 0.000000 0.004110 
#    y 0.000000 1.569550 0.000000 
#    z 0.004110 0.000000 1.537700 
# 
# From -- ./inp_files/66230.got.cif
#   From: 2010.05.17/outbox.cif.g08.bks.cpg/sg15_34_cif.got.tgz:66230.got - 2010.06.03 18:47:42.
