data_PCOD9257432
_publ_section_title
;
Structure prediction by ZEFSAII (Michael W. Deem and Ramdas Pophale) SiO2 
 PCOD9257432
Probable space group: C 2/C
;
_chemical_formula_sum "Si O2"
_cell_formula_units_Z 64
_cell_length_a 30.404656
_cell_length_b 14.844606
_cell_length_c 10.240537
_cell_angle_alpha 90.000000
_cell_angle_beta 120.550654
_cell_angle_gamma 90.000000
_cell_volume 3980.388804
_symmetry_space_group_name_H-M "C 2/C"
_symmetry_group_IT_number 15
_symmetry_cell_setting 'monoclinic'
loop_
_space_group_symop_operation_xyz
x,y,z
-x,y,1/2-z
-x,-y,-z
x,-y,1/2+z
1/2+x,1/2+y,z
1/2-x,1/2+y,1/2-z
1/2-x,1/2-y,-z
1/2+x,1/2-y,1/2+z
loop_
_atom_site_type_symbol
_atom_site_label
_atom_site_fract_x
_atom_site_fract_y
_atom_site_fract_z
Si Si1 0.286234 0.414999 0.219915
Si Si2 0.664695 0.913449 0.039195
Si Si3 0.126366 0.772923 0.158623
Si Si4 0.962157 0.903935 0.069988
Si Si5 0.466168 0.388815 0.570734
Si Si6 0.663769 0.923800 0.731555
Si Si7 0.285061 0.425079 0.915677
Si Si8 0.628613 0.716630 0.972731
O O1 0.225800 0.395651 0.141462
O O2 0.321927 0.328469 0.293319
O O3 0.299110 0.492625 0.342635
O O4 0.294614 0.446791 0.082838
O O5 0.651202 0.992119 0.120074
O O6 0.654646 0.940073 0.872522
O O7 0.636160 0.819938 0.023762
O O8 0.135080 0.667474 0.147982
O O9 0.116771 0.784363 0.299655
O O10 0.079625 0.818713 0.013304
O O11 0.915276 0.836939 0.018739
O O12 0.000000 0.896448 0.250000
O O13 0.944817 0.008504 0.037973
O O14 0.995442 0.883117 0.993215
O O15 0.500000 0.376068 0.750000
O O16 0.724744 0.907240 0.810059
O O17 0.318683 0.338259 0.932748
#
# Coordination Sequence:
#
# PCOD9257432 Si02
#       8
#     8   8   8   8   8   8   8   8
#     4   9  17  30  49  74 104 132 163 197 242 291
#     4   9  18  33  51  73 100 132 166 205 241 286
#     4  10  18  32  53  74  97 133 169 201 241 295
#     4  10  19  35  54  74 100 131 161 198 245 299
#     4  10  21  35  52  76 104 127 157 204 252 291
#     4   9  18  33  52  71 100 133 166 203 245 286
#     4   9  17  30  48  75 104 132 162 199 239 292
#     4  10  18  31  54  75  96 132 174 197 234 299
#
# _framework density 16.078831000000001
#
# number of rings (size 3 to 8) (size 9 to 14) (size 15 to 20)
#    0.000    2.500    1.250    1.500    0.000    3.000 
#    4.500    0.000    0.000    7.500    0.000    0.000 
#    0.000    0.000    0.000    0.000    0.000    0.000 
#
# Total GULP energy -178405.946067 kJ/mol
# GULP energy per Si atom -5575.185815 kJ/mol
# Density = 1.604223 g / cm^3
# Si number density = 16.078831 Si / 1000 Ang^3
#
#
#
# Elastic Constant Matrix: (Units=GPa)
#
#
# Indices 1 2 3 4 5 6 
#
# 1 63.6870 67.4932 38.7005 0.0000 -7.3429 0.0000
# 2 67.4932 136.5923 60.9870 0.0000 -3.6581 0.0000
# 3 38.7005 60.9870 67.1156 0.0000 -6.2076 0.0000
# 4 0.0000 0.0000 0.0000 29.8070 0.0000 -0.8477
# 5 -7.3429 -3.6581 -6.2076 0.0000 14.9897 0.0000
# 6 0.0000 0.0000 0.0000 -0.8477 0.0000 27.7539
#
#
#
# Elastic Compliance Matrix: (Units=1/GPa)
#
#
# Indices 1 2 3 4 5 6 
#
# 1 0.036962 -0.015006 -0.006594 0.000000 0.011713 0.000000
# 2 -0.015006 0.018453 -0.008712 0.000000 -0.006456 0.000000
# 3 -0.006594 -0.008712 0.027164 0.000000 0.005893 0.000000
# 4 0.000000 0.000000 0.000000 0.033578 0.000000 0.001026
# 5 0.011713 -0.006456 0.005893 0.000000 0.073316 0.000000
# 6 0.000000 0.000000 0.000000 0.001026 0.000000 0.036062
#
#
# Mechanical properties :
#
#
# Convention : Reuss Voigt Hill
#
# Bulk Modulus (GPa) = 45.54952 66.86182 56.20567
# Shear Modulus (GPa) = 17.03711 21.19105 19.11408
#
# Velocity S-wave (km/s) = 3.25868 3.63429 3.45160
# Velocity P-wave (km/s) = 6.52296 7.69966 7.13561
#
# Compressibility (1/GPa) = 0.02195413
#
# Stress axis : x y z
#
# Youngs Moduli (GPa) = 27.05481 54.19256 36.81388
#
# Poissons Ratio (x) = 0.81320 0.24276
# Poissons Ratio (y) = 0.40598 0.32073
# Poissons Ratio (z) = 0.17841 0.47213
#
# Static dielectric constant tensor:
#      x y z
#    x 1.530300 0.000000 -0.010680 
#    y 0.000000 1.519920 0.000000 
#    z -0.010680 0.000000 1.545280 
# 
# From -- ./inp_files/66178.got.cif
#   From: 2010.05.17/outbox.cif.g08.bks.cpg/sg15_34_cif.got.tgz:66178.got - 2010.06.03 18:47:42.
