data_PCOD9257042
_publ_section_title
;
Structure prediction by ZEFSAII (Michael W. Deem and Ramdas Pophale) SiO2 
 PCOD9257042
Probable space group: C 2/C
;
_chemical_formula_sum "Si O2"
_cell_formula_units_Z 48
_cell_length_a 14.063696
_cell_length_b 25.882636
_cell_length_c 10.857191
_cell_angle_alpha 90.000000
_cell_angle_beta 38.696953
_cell_angle_gamma 90.000000
_cell_volume 2470.843408
_symmetry_space_group_name_H-M "C 2/C"
_symmetry_group_IT_number 15
_symmetry_cell_setting 'monoclinic'
loop_
_space_group_symop_operation_xyz
x,y,z
-x,y,1/2-z
-x,-y,-z
x,-y,1/2+z
1/2+x,1/2+y,z
1/2-x,1/2+y,1/2-z
1/2-x,1/2-y,-z
1/2+x,1/2-y,1/2+z
loop_
_atom_site_type_symbol
_atom_site_label
_atom_site_fract_x
_atom_site_fract_y
_atom_site_fract_z
Si Si1 0.858942 0.684715 0.199576
Si Si2 0.733928 0.909415 0.856077
Si Si3 0.303922 0.778096 0.076594
Si Si4 0.214584 0.028821 0.442601
Si Si5 0.327057 0.369293 0.394165
Si Si6 0.500000 0.976616 0.250000
Si Si7 0.000000 0.940115 0.750000
O O1 0.847803 0.643222 0.102389
O O2 0.752316 0.733424 0.276632
O O3 0.789107 0.651881 0.384633
O O4 0.020602 0.707949 0.079117
O O5 0.796332 0.939671 0.672458
O O6 0.881614 0.906056 0.793113
O O7 0.609752 0.943381 0.052636
O O8 0.218839 0.833146 0.172939
O O9 0.250000 0.750000 0.000000
O O10 0.184270 0.068982 0.586611
O O11 0.387395 0.010696 0.282003
O O12 0.102873 0.980019 0.565280
O O13 0.500000 0.355689 0.250000
#
# Coordination Sequence:
#
# PCOD9257042 Si02
#       7
#     8   8   8   8   8   4   4
#     4  10  21  35  56  83 118 153 193 238 301 369
#     4  10  22  39  60  83 117 160 209 247 304 352
#     4  10  18  33  56  84 122 151 185 242 306 362
#     4  10  20  34  58  88 122 158 195 243 307 364
#     4  10  18  30  51  86 124 155 182 226 297 373
#     4  10  22  38  58  83 125 158 204 256 292 350
#     4  10  20  40  58  83 121 160 204 258 284 352
#
# _framework density 19.426563999999999
#
# number of rings (size 3 to 8) (size 9 to 14) (size 15 to 20)
#    0.000    2.000    0.833    5.000    4.667    0.000 
#    0.000    6.667    0.000    3.000    0.000    0.000 
#    0.000    0.000    0.000    0.000    0.000    0.000 
#
# Total GULP energy -133617.833530 kJ/mol
# GULP energy per Si atom -5567.409730 kJ/mol
# Density = 1.938235 g / cm^3
# Si number density = 19.426564 Si / 1000 Ang^3
#
#
#
# Elastic Constant Matrix: (Units=GPa)
#
#
# Indices 1 2 3 4 5 6 
#
# 1 91.8050 41.7160 36.2323 0.0000 -32.2690 0.0000
# 2 41.7160 69.3219 4.8404 0.0000 -13.8784 0.0000
# 3 36.2323 4.8404 45.7875 0.0000 -34.7311 0.0000
# 4 0.0000 0.0000 0.0000 24.9525 0.0000 1.2066
# 5 -32.2690 -13.8784 -34.7311 0.0000 41.3759 0.0000
# 6 0.0000 0.0000 0.0000 1.2066 0.0000 18.5043
#
#
#
# Elastic Compliance Matrix: (Units=1/GPa)
#
#
# Indices 1 2 3 4 5 6 
#
# 1 0.023684 -0.013257 -0.018448 0.000000 -0.001461 0.000000
# 2 -0.013257 0.023581 0.016941 0.000000 0.011791 0.000000
# 3 -0.018448 0.016941 0.077195 0.000000 0.056093 0.000000
# 4 0.000000 0.000000 0.000000 0.040203 0.000000 -0.002621
# 5 -0.001461 0.011791 0.056093 0.000000 0.074069 0.000000
# 6 0.000000 0.000000 0.000000 -0.002621 0.000000 0.054212
#
#
# Mechanical properties :
#
#
# Convention : Reuss Voigt Hill
#
# Bulk Modulus (GPa) = 10.53374 41.38799 25.96086
# Shear Modulus (GPa) = 14.11971 25.24159 19.68065
#
# Velocity S-wave (km/s) = 2.69889 3.60854 3.18634
# Velocity P-wave (km/s) = 3.89181 6.22199 5.18938
#
# Compressibility (1/GPa) = 0.09493303
#
# Stress axis : x y z
#
# Youngs Moduli (GPa) = 42.22313 42.40767 12.95416
#
# Poissons Ratio (x) = 0.56218 0.23898
# Poissons Ratio (y) = 0.55973 -0.21946
# Poissons Ratio (z) = 0.77894 -0.71845
#
# Static dielectric constant tensor:
#      x y z
#    x 1.703670 0.000000 0.025360 
#    y 0.000000 1.740030 0.000000 
#    z 0.025360 0.000000 1.722610 
# 
# From -- ./inp_files/44479.got.cif
#   From: 2010.05.17/outbox.cif.g08.bks.cpg/sg15_23_cif.got.tgz:44479.got - 2010.06.03 18:47:42.
