data_PCOD9257080
_publ_section_title
;
Structure prediction by ZEFSAII (Michael W. Deem and Ramdas Pophale) SiO2 
 PCOD9257080
Probable space group: C 2/C
;
_chemical_formula_sum "Si O2"
_cell_formula_units_Z 48
_cell_length_a 7.874643
_cell_length_b 13.840199
_cell_length_c 20.733916
_cell_angle_alpha 90.000000
_cell_angle_beta 115.212785
_cell_angle_gamma 90.000000
_cell_volume 2044.440638
_symmetry_space_group_name_H-M "C 2/C"
_symmetry_group_IT_number 15
_symmetry_cell_setting 'monoclinic'
loop_
_space_group_symop_operation_xyz
x,y,z
-x,y,1/2-z
-x,-y,-z
x,-y,1/2+z
1/2+x,1/2+y,z
1/2-x,1/2+y,1/2-z
1/2-x,1/2-y,-z
1/2+x,1/2-y,1/2+z
loop_
_atom_site_type_symbol
_atom_site_label
_atom_site_fract_x
_atom_site_fract_y
_atom_site_fract_z
Si Si1 0.475586 0.220342 0.442405
Si Si2 0.705938 0.740863 0.100700
Si Si3 0.947109 0.952720 0.425331
Si Si4 0.848661 0.940075 0.169731
Si Si5 0.444607 0.291016 0.668130
Si Si6 0.470717 0.944506 0.172647
O O1 0.553299 0.207093 0.527938
O O2 0.642582 0.189087 0.420964
O O3 0.464913 0.336795 0.434643
O O4 0.268527 0.185545 0.388501
O O5 0.821274 0.824822 0.155558
O O6 0.592369 0.681680 0.135920
O O7 0.731744 0.977034 0.380369
O O8 0.074371 0.979542 0.384905
O O9 0.000000 0.000000 0.500000
O O10 0.645157 0.976249 0.157905
O O11 0.000000 0.955671 0.250000
O O12 0.500000 0.322738 0.750000
O O13 0.461935 0.173273 0.671704
O O14 0.500000 0.977486 0.250000
#
# Coordination Sequence:
#
# PCOD9257080 Si02
#       6
#     8   8   8   8   8   8
#     4   9  18  32  45  69 103 129 158 198 253 295
#     4   9  18  28  48  72  99 127 151 201 255 299
#     4  10  20  32  50  74 101 133 171 208 246 297
#     4  10  18  30  53  79  98 123 169 213 252 294
#     4   9  17  26  46  73  96 122 156 198 244 291
#     4   9  16  29  48  74  97 121 160 210 252 287
#
# _framework density 23.478304000000001
#
# number of rings (size 3 to 8) (size 9 to 14) (size 15 to 20)
#    0.000    2.667    1.667    0.500    7.000    0.667 
#    0.000    0.000    0.000    2.000    0.000    0.000 
#    0.000    0.000    0.000    0.000    0.000    0.000 
#
# Total GULP energy -134183.211558 kJ/mol
# GULP energy per Si atom -5590.967148 kJ/mol
# Density = 2.342487 g / cm^3
# Si number density = 23.478304 Si / 1000 Ang^3
#
#
#
# Elastic Constant Matrix: (Units=GPa)
#
#
# Indices 1 2 3 4 5 6 
#
# 1 210.3755 24.6820 105.3158 0.0000 -2.7140 0.0000
# 2 24.6820 72.9071 15.5442 0.0000 -0.4513 0.0000
# 3 105.3158 15.5442 174.7639 0.0000 2.9213 0.0000
# 4 0.0000 0.0000 0.0000 -72.7108 0.0000 -33.7677
# 5 -2.7140 -0.4513 2.9213 0.0000 47.7879 0.0000
# 6 0.0000 0.0000 0.0000 -33.7677 0.0000 7.1964
#
#
#
# Elastic Compliance Matrix: (Units=1/GPa)
#
#
# Indices 1 2 3 4 5 6 
#
# 1 0.006981 -0.001489 -0.004085 0.000000 0.000632 0.000000
# 2 -0.001489 0.014301 -0.000376 0.000000 0.000073 0.000000
# 3 -0.004085 -0.000376 0.008230 0.000000 -0.000739 0.000000
# 4 0.000000 0.000000 0.000000 -0.004326 0.000000 -0.020299
# 5 0.000632 0.000073 -0.000739 0.000000 0.021008 0.000000
# 6 0.000000 0.000000 0.000000 -0.020299 0.000000 0.043709
#
#
# Mechanical properties :
#
#
# Convention : Reuss Voigt Hill
#
# Bulk Modulus (GPa) = 56.78033 83.23674 70.00854
# Shear Modulus (GPa) = 46.43704 17.28835 31.86269
#
# Velocity S-wave (km/s) = 4.45215 2.71653 3.68790
# Velocity P-wave (km/s) = 7.11797 6.73565 6.92945
#
# Compressibility (1/GPa) = 0.01761173
#
# Stress axis : x y z
#
# Youngs Moduli (GPa) = 143.23983 69.92682 121.51207
#
# Poissons Ratio (x) = 0.10409 0.49640
# Poissons Ratio (y) = 0.21322 0.04571
# Poissons Ratio (z) = 0.58517 0.02630
#
# Static dielectric constant tensor:
#      x y z
#    x 1.863790 0.000000 -0.032490 
#    y 0.000000 1.934010 0.000000 
#    z -0.032490 0.000000 1.808110 
# 
# From -- ./inp_files/135483.got.cif
#   From: 2010.05.17/outbox.cif.g08.bks.cpg/sg15_68_cif.got.tgz:135483.got - 2010.06.03 18:47:42.
