data_PCOD9257749
_publ_section_title
;
Structure prediction by ZEFSAII (Michael W. Deem and Ramdas Pophale) SiO2 
 PCOD9257749
Probable space group: C 2/C
;
_chemical_formula_sum "Si O2"
_cell_formula_units_Z 48
_cell_length_a 26.675800
_cell_length_b 16.685684
_cell_length_c 19.152998
_cell_angle_alpha 90.000000
_cell_angle_beta 163.263465
_cell_angle_gamma 90.000000
_cell_volume 2454.976396
_symmetry_space_group_name_H-M "C 2/C"
_symmetry_group_IT_number 15
_symmetry_cell_setting 'monoclinic'
loop_
_space_group_symop_operation_xyz
x,y,z
-x,y,1/2-z
-x,-y,-z
x,-y,1/2+z
1/2+x,1/2+y,z
1/2-x,1/2+y,1/2-z
1/2-x,1/2-y,-z
1/2+x,1/2-y,1/2+z
loop_
_atom_site_type_symbol
_atom_site_label
_atom_site_fract_x
_atom_site_fract_y
_atom_site_fract_z
Si Si1 0.840280 0.871485 0.084766
Si Si2 0.238186 0.657637 0.716379
Si Si3 0.471302 0.673267 0.294524
Si Si4 0.908942 0.765715 0.308855
Si Si5 0.075998 0.646449 0.774046
Si Si6 0.988836 0.475300 0.819646
O O1 0.905731 0.833976 0.245000
O O2 0.000000 0.897868 0.250000
O O3 0.738325 0.798888 0.909967
O O4 0.698012 0.939206 0.909053
O O5 0.350769 0.697360 0.804519
O O6 0.093608 0.720181 0.552347
O O7 0.132855 0.583284 0.543641
O O8 0.370016 0.633774 0.953327
O O9 0.500000 0.673042 0.250000
O O10 0.460321 0.766251 0.306137
O O11 0.283062 0.636035 0.056570
O O12 0.996759 0.566723 0.634965
O O13 0.000000 0.650836 0.750000
O O14 0.000000 0.474008 0.750000
#
# Coordination Sequence:
#
# PCOD9257749 Si02
#       6
#     8   8   8   8   8   8
#     4  10  18  32  52  85 126 166 188 236 302 364
#     4  11  22  36  62  92 119 159 203 248 299 357
#     4  10  23  43  66  85 114 162 212 251 289 349
#     4  10  20  31  54  87 126 157 199 239 292 366
#     4   9  21  42  64  84 116 160 204 249 297 349
#     4  10  20  38  61  91 125 154 191 251 307 361
#
# _framework density 19.552123000000002
#
# number of rings (size 3 to 8) (size 9 to 14) (size 15 to 20)
#    0.000    2.000    3.333    0.000    7.000    0.667 
#    0.000    5.833    0.000    0.000    0.000    0.000 
#    0.000    0.000    0.000    0.000    0.000    0.000 
#
# Total GULP energy -133979.540142 kJ/mol
# GULP energy per Si atom -5582.480839 kJ/mol
# Density = 1.950762 g / cm^3
# Si number density = 19.552123 Si / 1000 Ang^3
#
#
#
# Elastic Constant Matrix: (Units=GPa)
#
#
# Indices 1 2 3 4 5 6 
#
# 1 99.2000 22.4033 58.9656 0.0003 17.7278 0.0002
# 2 22.4033 68.1705 8.0321 0.0001 0.3678 0.0001
# 3 58.9656 8.0321 97.4248 0.0003 6.7929 0.0002
# 4 0.0003 0.0001 0.0003 2.0296 0.0003 5.8262
# 5 17.7278 0.3678 6.7929 0.0003 30.8166 0.0002
# 6 0.0002 0.0001 0.0002 5.8262 0.0002 13.0077
#
#
#
# Elastic Compliance Matrix: (Units=1/GPa)
#
#
# Indices 1 2 3 4 5 6 
#
# 1 0.018940 -0.004946 -0.010461 -0.000001 -0.008531 0.000001
# 2 -0.004946 0.016105 0.001504 0.000003 0.002321 -0.000001
# 3 -0.010461 0.001504 0.016304 0.000004 0.002406 -0.000002
# 4 -0.000001 0.000003 0.000004 -1.724198 0.000013 0.772271
# 5 -0.008531 0.002321 0.002406 0.000013 0.036799 -0.000007
# 6 0.000001 -0.000001 -0.000002 0.772271 -0.000007 -0.269024
#
#
# Mechanical properties :
#
#
# Convention : Reuss Voigt Hill
#
# Bulk Modulus (GPa) = 42.47518 49.28859 45.88189
# Shear Modulus (GPa) = -2.67463 20.86373 9.09455
#
# Velocity S-wave (km/s) = -1.17086 3.27017 2.15906
# Velocity P-wave (km/s) = 4.46580 6.28667 5.45278
#
# Compressibility (1/GPa) = 0.02354316
#
# Stress axis : x y z
#
# Youngs Moduli (GPa) = 52.79791 62.09338 61.33495
#
# Poissons Ratio (x) = 0.30710 0.64161
# Poissons Ratio (y) = 0.26113 -0.09224
# Poissons Ratio (z) = 0.55231 -0.09338
#
# Static dielectric constant tensor:
#      x y z
#    x 1.660130 0.000000 0.000600 
#    y 0.000000 1.701650 0.000000 
#    z 0.000600 0.000000 1.662240 
# 
# From -- ./inp_files/155271.got.cif
#   From: 2010.05.17/outbox.cif.g08.bks.cpg/sg15_78_cif.got.tgz:155271.got - 2010.06.03 18:47:42.
