data_PCOD9257346
_publ_section_title
;
Structure prediction by ZEFSAII (Michael W. Deem and Ramdas Pophale) SiO2 
 PCOD9257346
Probable space group: C 2/C
;
_chemical_formula_sum "Si O2"
_cell_formula_units_Z 36
_cell_length_a 17.401486
_cell_length_b 6.893365
_cell_length_c 30.528684
_cell_angle_alpha 90.000000
_cell_angle_beta 154.483915
_cell_angle_gamma 90.000000
_cell_volume 1577.486197
_symmetry_space_group_name_H-M "C 2/C"
_symmetry_group_IT_number 15
_symmetry_cell_setting 'monoclinic'
loop_
_space_group_symop_operation_xyz
x,y,z
-x,y,1/2-z
-x,-y,-z
x,-y,1/2+z
1/2+x,1/2+y,z
1/2-x,1/2+y,1/2-z
1/2-x,1/2-y,-z
1/2+x,1/2-y,1/2+z
loop_
_atom_site_type_symbol
_atom_site_label
_atom_site_fract_x
_atom_site_fract_y
_atom_site_fract_z
Si Si1 0.227659 0.955744 0.463883
Si Si2 0.546961 0.086935 0.680642
Si Si3 0.500000 0.037100 0.750000
Si Si4 0.162500 0.858684 0.241142
Si Si5 0.794878 0.157022 0.643170
O O1 0.250000 0.750000 0.500000
O O2 0.367002 0.092292 0.560088
O O3 0.283226 0.926598 0.441617
O O4 0.013587 0.991676 0.356064
O O5 0.525763 0.158092 0.719285
O O6 0.585129 0.856585 0.708445
O O7 0.713836 0.150221 0.737508
O O8 0.329104 0.890777 0.655752
O O9 0.270944 0.897582 0.342093
O O10 0.000000 0.087236 0.750000
#
# Coordination Sequence:
#
# PCOD9257346 Si02
#       5
#     8   8   4   8   8
#     4   9  14  28  51  70  90 125 163 183 223 290
#     4  10  18  31  52  68  93 123 161 192 232 274
#     4   8  14  28  48  64  94 124 154 188 232 272
#     4   9  18  30  49  74  93 121 157 198 226 276
#     4   7  12  26  46  70  88 117 156 191 218 268
#
# _framework density 22.821121000000002
#
# number of rings (size 3 to 8) (size 9 to 14) (size 15 to 20)
#    0.667    2.667    4.444    0.000    0.000    0.889 
#    0.000    2.222    7.333    0.000    0.000    0.000 
#    0.000    0.000    0.000    0.000    0.000    0.000 
#
# Total GULP energy -100229.601287 kJ/mol
# GULP energy per Si atom -5568.311183 kJ/mol
# Density = 2.276918 g / cm^3
# Si number density = 22.821121 Si / 1000 Ang^3
#
#
#
# Elastic Constant Matrix: (Units=GPa)
#
#
# Indices 1 2 3 4 5 6 
#
# 1 198.6973 8.3788 78.4991 0.0007 -38.2359 0.0004
# 2 8.3788 44.9728 19.3828 0.0018 -1.0954 0.0010
# 3 78.4991 19.3828 90.5780 0.0018 -22.4106 -0.0011
# 4 0.0007 0.0018 0.0018 12.2396 -0.0007 5.1168
# 5 -38.2359 -1.0954 -22.4106 -0.0007 40.6584 0.0002
# 6 0.0004 0.0010 -0.0011 5.1168 0.0002 27.8970
#
#
#
# Elastic Compliance Matrix: (Units=1/GPa)
#
#
# Indices 1 2 3 4 5 6 
#
# 1 0.008364 0.001331 -0.006459 0.000001 0.004341 -0.000001
# 2 0.001331 0.024943 -0.006965 -0.000003 -0.001915 -0.000001
# 3 -0.006459 -0.006965 0.019197 -0.000002 0.004319 0.000001
# 4 0.000001 -0.000003 -0.000002 0.088487 0.000001 -0.016230
# 5 0.004341 -0.001915 0.004319 0.000001 0.031007 0.000000
# 6 -0.000001 -0.000001 0.000001 -0.016230 0.000000 0.038823
#
#
# Mechanical properties :
#
#
# Convention : Reuss Voigt Hill
#
# Bulk Modulus (GPa) = 35.31356 60.75216 48.03286
# Shear Modulus (GPa) = 20.45434 31.35815 25.90625
#
# Velocity S-wave (km/s) = 2.99706 3.71089 3.37291
# Velocity P-wave (km/s) = 5.24253 6.71116 6.02179
#
# Compressibility (1/GPa) = 0.02831773
#
# Stress axis : x y z
#
# Youngs Moduli (GPa) = 119.56120 40.09161 52.09043
#
# Poissons Ratio (x) = -0.05338 0.33647
# Poissons Ratio (y) = -0.15918 0.36282
# Poissons Ratio (z) = 0.77229 0.27925
#
# Static dielectric constant tensor:
#      x y z
#    x 1.924500 0.000000 -0.049610 
#    y 0.000000 1.936760 0.000000 
#    z -0.049610 0.000000 1.848860 
# 
# From -- ./inp_files/94043.got.cif
#   From: 2010.05.17/outbox.cif.g08.bks.cpg/sg15_48_cif.got.tgz:94043.got - 2010.06.03 18:47:42.
