data_PCOD9257955
_publ_section_title
;
Structure prediction by ZEFSAII (Michael W. Deem and Ramdas Pophale) SiO2 
 PCOD9257955
Probable space group: C 2/C
;
_chemical_formula_sum "Si O2"
_cell_formula_units_Z 60
_cell_length_a 11.974689
_cell_length_b 19.379801
_cell_length_c 15.936975
_cell_angle_alpha 90.000000
_cell_angle_beta 117.458845
_cell_angle_gamma 90.000000
_cell_volume 3281.788734
_symmetry_space_group_name_H-M "C 2/C"
_symmetry_group_IT_number 15
_symmetry_cell_setting 'monoclinic'
loop_
_space_group_symop_operation_xyz
x,y,z
-x,y,1/2-z
-x,-y,-z
x,-y,1/2+z
1/2+x,1/2+y,z
1/2-x,1/2+y,1/2-z
1/2-x,1/2-y,-z
1/2+x,1/2-y,1/2+z
loop_
_atom_site_type_symbol
_atom_site_label
_atom_site_fract_x
_atom_site_fract_y
_atom_site_fract_z
Si Si1 0.901146 0.676249 0.077128
Si Si2 0.984255 0.919607 0.966346
Si Si3 0.759191 0.950735 0.500026
Si Si4 0.719525 0.439756 0.337169
Si Si5 0.000000 0.419934 0.750000
Si Si6 0.112443 0.833107 0.414146
Si Si7 0.254257 0.521797 0.315633
Si Si8 0.496931 0.080504 0.968862
O O1 0.934753 0.754985 0.108778
O O2 0.918357 0.628273 0.162673
O O3 0.756959 0.672087 0.997287
O O4 0.985703 0.637449 0.037587
O O5 0.857422 0.918134 0.866850
O O6 0.114095 0.905879 0.963190
O O7 0.964667 0.873993 0.041817
O O8 0.000000 0.000000 0.000000
O O9 0.629573 0.910776 0.469647
O O10 0.778078 0.006053 0.582853
O O11 0.741583 0.987894 0.403631
O O12 0.629852 0.378231 0.336479
O O13 0.687447 0.475516 0.238331
O O14 0.863082 0.412988 0.376267
O O15 0.889976 0.461157 0.759708
O O16 0.500000 0.000000 0.000000
#
# Coordination Sequence:
#
# PCOD9257955 Si02
#       8
#     8   8   8   8   4   8   8   8
#     4  10  21  34  60  80 114 154 185 237 294 337
#     4  10  19  36  54  77 115 153 185 230 294 345
#     4  10  19  35  51  82 117 145 186 239 286 340
#     4  10  18  32  56  84 110 145 191 239 289 328
#     4  12  18  34  52  88 114 136 200 244 282 334
#     4  10  19  40  54  80 117 154 186 230 296 351
#     4  11  20  31  57  86 111 150 188 245 287 333
#     4   9  17  33  55  81 109 145 189 232 280 333
#
# _framework density 18.282712
#
# number of rings (size 3 to 8) (size 9 to 14) (size 15 to 20)
#    0.000    1.867    4.000    4.000    0.000    0.533 
#    4.800    0.667    0.000    0.000    0.000    1.867 
#    0.000    0.000    0.000    0.000    0.000    0.000 
#
# Total GULP energy -167048.365233 kJ/mol
# GULP energy per Si atom -5568.278841 kJ/mol
# Density = 1.824110 g / cm^3
# Si number density = 18.282712 Si / 1000 Ang^3
#
#
#
# Elastic Constant Matrix: (Units=GPa)
#
#
# Indices 1 2 3 4 5 6 
#
# 1 146.2272 37.8150 16.6190 0.0000 -3.5878 0.0000
# 2 37.8150 81.0249 17.7965 0.0000 -17.3674 0.0000
# 3 16.6190 17.7965 55.4510 0.0000 -12.2153 0.0000
# 4 0.0000 0.0000 0.0000 15.2493 0.0000 0.8749
# 5 -3.5878 -17.3674 -12.2153 0.0000 31.2352 0.0000
# 6 0.0000 0.0000 0.0000 0.8749 0.0000 18.8486
#
#
#
# Elastic Compliance Matrix: (Units=1/GPa)
#
#
# Indices 1 2 3 4 5 6 
#
# 1 0.007942 -0.003744 -0.001572 0.000000 -0.001784 0.000000
# 2 -0.003744 0.016262 -0.002407 0.000000 0.007670 0.000000
# 3 -0.001572 -0.002407 0.020729 0.000000 0.006587 0.000000
# 4 0.000000 0.000000 0.000000 0.065752 0.000000 -0.003052
# 5 -0.001784 0.007670 0.006587 0.000000 0.038651 0.000000
# 6 0.000000 0.000000 0.000000 -0.003052 0.000000 0.053196
#
#
# Mechanical properties :
#
#
# Convention : Reuss Voigt Hill
#
# Bulk Modulus (GPa) = 33.91330 47.46271 40.68801
# Shear Modulus (GPa) = 21.94850 27.09813 24.52331
#
# Velocity S-wave (km/s) = 3.46859 3.85408 3.66640
# Velocity P-wave (km/s) = 5.88482 6.76919 6.34244
#
# Compressibility (1/GPa) = 0.02948695
#
# Stress axis : x y z
#
# Youngs Moduli (GPa) = 125.91860 61.49315 48.24217
#
# Poissons Ratio (x) = 0.23021 0.07582
# Poissons Ratio (y) = 0.47139 0.11614
# Poissons Ratio (z) = 0.19790 0.14804
#
# Static dielectric constant tensor:
#      x y z
#    x 1.717580 0.000000 0.018990 
#    y 0.000000 1.639290 0.000000 
#    z 0.018990 0.000000 1.700100 
# 
# From -- ./inp_files/146106.got.cif
#   From: 2010.05.17/outbox.cif.g08.bks.cpg/sg15_74_cif.got.tgz:146106.got - 2010.06.03 18:47:42.
