data_PCOD9257055
_publ_section_title
;
Structure prediction by ZEFSAII (Michael W. Deem and Ramdas Pophale) SiO2 
 PCOD9257055
Probable space group: C 2/C
;
_chemical_formula_sum "Si O2"
_cell_formula_units_Z 64
_cell_length_a 20.877233
_cell_length_b 6.015896
_cell_length_c 28.018062
_cell_angle_alpha 90.000000
_cell_angle_beta 96.518268
_cell_angle_gamma 90.000000
_cell_volume 3496.188436
_symmetry_space_group_name_H-M "C 2/C"
_symmetry_group_IT_number 15
_symmetry_cell_setting 'monoclinic'
loop_
_space_group_symop_operation_xyz
x,y,z
-x,y,1/2-z
-x,-y,-z
x,-y,1/2+z
1/2+x,1/2+y,z
1/2-x,1/2+y,1/2-z
1/2-x,1/2-y,-z
1/2+x,1/2-y,1/2+z
loop_
_atom_site_type_symbol
_atom_site_label
_atom_site_fract_x
_atom_site_fract_y
_atom_site_fract_z
Si Si1 0.056977 0.401316 0.792416
Si Si2 0.516180 0.762547 0.155666
Si Si3 0.686206 0.806197 0.683754
Si Si4 0.404825 0.513617 0.762581
Si Si5 0.186365 0.368320 0.269388
Si Si6 0.500866 0.430933 0.424876
Si Si7 0.893759 0.546954 0.403789
Si Si8 0.554426 0.189802 0.509567
O O1 0.066340 0.141245 0.780734
O O2 0.127651 0.498245 0.788282
O O3 0.000000 0.457971 0.750000
O O4 0.030247 0.529628 0.836219
O O5 0.547888 0.649155 0.204789
O O6 0.483762 0.568147 0.121484
O O7 0.573988 0.867475 0.129315
O O8 0.622338 0.691306 0.701288
O O9 0.748017 0.649486 0.695586
O O10 0.698443 0.016675 0.719291
O O11 0.669775 0.871159 0.628530
O O12 0.343748 0.373279 0.740801
O O13 0.558163 0.302662 0.457754
O O14 0.472965 0.617351 0.458476
O O15 0.444091 0.252064 0.411341
O O16 0.889561 0.430988 0.455373
O O17 0.500000 0.000000 0.500000
#
# Coordination Sequence:
#
# PCOD9257055 Si02
#       8
#     8   8   8   8   8   8   8   8
#     4  11  24  34  47  71  99 138 182 218 260 306
#     4  11  20  34  52  73 103 141 183 210 263 327
#     4  11  20  34  52  73  99 139 182 216 266 313
#     4  11  21  34  50  67 101 139 175 222 260 301
#     4  11  22  35  50  71 100 142 181 223 258 305
#     4   9  17  29  52  76 105 140 165 217 268 320
#     4  10  18  30  52  80 104 135 175 213 266 326
#     4   8  16  30  46  77 113 133 165 211 271 328
#
# _framework density 18.305648000000001
#
# number of rings (size 3 to 8) (size 9 to 14) (size 15 to 20)
#    0.000    1.750    5.000    0.750    1.750    0.000 
#    0.000    0.000    0.000    0.000    0.000    0.875 
#    0.000   35.000    0.000    3.000    0.000    0.000 
#
# Total GULP energy -178144.444471 kJ/mol
# GULP energy per Si atom -5567.013890 kJ/mol
# Density = 1.826398 g / cm^3
# Si number density = 18.305648 Si / 1000 Ang^3
#
#
#
# Elastic Constant Matrix: (Units=GPa)
#
#
# Indices 1 2 3 4 5 6 
#
# 1 62.7585 16.9445 28.3585 0.0000 15.3442 0.0000
# 2 16.9445 82.1047 23.8320 0.0000 7.3530 0.0000
# 3 28.3585 23.8320 57.8855 0.0000 21.5258 0.0000
# 4 0.0000 0.0000 0.0000 41.0534 0.0000 2.4903
# 5 15.3442 7.3530 21.5258 0.0000 24.2238 0.0000
# 6 0.0000 0.0000 0.0000 2.4903 0.0000 27.1258
#
#
#
# Elastic Compliance Matrix: (Units=1/GPa)
#
#
# Indices 1 2 3 4 5 6 
#
# 1 0.021280 -0.001686 -0.007332 0.000000 -0.006453 0.000000
# 2 -0.001686 0.013993 -0.005605 0.000000 0.001801 0.000000
# 3 -0.007332 -0.005605 0.031088 0.000000 -0.021280 0.000000
# 4 0.000000 0.000000 0.000000 0.024495 0.000000 -0.002249
# 5 -0.006453 0.001801 -0.021280 0.000000 0.063733 0.000000
# 6 0.000000 0.000000 0.000000 -0.002249 0.000000 0.037072
#
#
# Mechanical properties :
#
#
# Convention : Reuss Voigt Hill
#
# Bulk Modulus (GPa) = 26.94190 37.89094 32.41642
# Shear Modulus (GPa) = 21.43372 27.38818 24.41095
#
# Velocity S-wave (km/s) = 3.42552 3.87222 3.65570
# Velocity P-wave (km/s) = 5.51320 6.38248 5.96370
#
# Compressibility (1/GPa) = 0.03711690
#
# Stress axis : x y z
#
# Youngs Moduli (GPa) = 46.99304 71.46382 32.16632
#
# Poissons Ratio (x) = 0.12047 0.23583
# Poissons Ratio (y) = 0.07922 0.18029
# Poissons Ratio (z) = 0.34453 0.40055
#
# Static dielectric constant tensor:
#      x y z
#    x 1.639230 0.000000 0.004620 
#    y 0.000000 1.715610 0.000000 
#    z 0.004620 0.000000 1.689130 
# 
# From -- ./inp_files/299932.got.cif
#   From: 2010.05.17/outbox.cif.g08.bks.cpg/sg15_150_cif.got.tgz:299932.got - 2010.06.03 18:47:42.
