data_PCOD9257747
_publ_section_title
;
Structure prediction by ZEFSAII (Michael W. Deem and Ramdas Pophale) SiO2 
 PCOD9257747
Probable space group: C 2/C
;
_chemical_formula_sum "Si O2"
_cell_formula_units_Z 60
_cell_length_a 11.345577
_cell_length_b 25.990716
_cell_length_c 14.454046
_cell_angle_alpha 90.000000
_cell_angle_beta 45.863456
_cell_angle_gamma 90.000000
_cell_volume 3058.908547
_symmetry_space_group_name_H-M "C 2/C"
_symmetry_group_IT_number 15
_symmetry_cell_setting 'monoclinic'
loop_
_space_group_symop_operation_xyz
x,y,z
-x,y,1/2-z
-x,-y,-z
x,-y,1/2+z
1/2+x,1/2+y,z
1/2-x,1/2+y,1/2-z
1/2-x,1/2-y,-z
1/2+x,1/2-y,1/2+z
loop_
_atom_site_type_symbol
_atom_site_label
_atom_site_fract_x
_atom_site_fract_y
_atom_site_fract_z
Si Si1 0.859152 0.193019 0.625670
Si Si2 0.382471 0.042785 0.939356
Si Si3 0.000000 0.181928 0.250000
Si Si4 0.827339 0.028227 0.073129
Si Si5 0.077779 0.255902 0.378870
Si Si6 0.230391 0.495713 0.809799
Si Si7 0.525344 0.407326 0.338329
Si Si8 0.814794 0.659325 0.966698
O O1 0.758013 0.220854 0.762720
O O2 0.901787 0.136068 0.636012
O O3 0.744805 0.185280 0.596830
O O4 0.017297 0.224753 0.502367
O O5 0.556879 0.020683 0.876152
O O6 0.301225 0.011747 0.899698
O O7 0.387809 0.102761 0.913106
O O8 0.271098 0.030923 0.090330
O O9 0.057726 0.217438 0.303179
O O10 0.156700 0.153408 0.120444
O O11 0.769640 0.044373 0.206283
O O12 0.863156 0.071553 0.978175
O O13 0.000000 0.000000 0.000000
O O14 0.947597 0.302346 0.437894
O O15 0.357558 0.543077 0.739090
O O16 0.500000 0.385697 0.250000
#
# Coordination Sequence:
#
# PCOD9257747 Si02
#       8
#     8   8   4   8   8   8   8   8
#     4  11  22  36  63  86 117 161 202 250 325 371
#     4  11  22  37  58  94 124 160 209 254 304 387
#     4  10  18  32  52  84 126 152 174 252 316 362
#     4  10  21  37  59  84 123 161 199 256 301 365
#     4  11  19  38  56  88 123 152 194 257 307 376
#     4  10  22  38  60  85 126 164 204 257 314 354
#     4  11  22  41  61  85 117 165 211 252 307 377
#     4  11  20  32  58  90 124 152 198 246 323 383
#
# _framework density 19.614839
#
# number of rings (size 3 to 8) (size 9 to 14) (size 15 to 20)
#    0.000    1.333    4.000    3.600    0.000    5.333 
#    0.000    0.667    0.000    0.000    0.000    0.000 
#    0.000    0.000    0.000    0.000    0.000    0.000 
#
# Total GULP energy -167396.690240 kJ/mol
# GULP energy per Si atom -5579.889675 kJ/mol
# Density = 1.957019 g / cm^3
# Si number density = 19.614839 Si / 1000 Ang^3
#
#
#
# Elastic Constant Matrix: (Units=GPa)
#
#
# Indices 1 2 3 4 5 6 
#
# 1 23.6916 -5.3884 0.3902 0.0000 5.2950 0.0000
# 2 -5.3884 51.9993 14.2436 0.0000 0.7932 0.0000
# 3 0.3902 14.2436 111.3062 0.0000 14.1323 0.0000
# 4 0.0000 0.0000 0.0000 13.2844 0.0000 10.5884
# 5 5.2950 0.7932 14.1323 0.0000 25.2561 0.0000
# 6 0.0000 0.0000 0.0000 10.5884 0.0000 12.5630
#
#
#
# Elastic Compliance Matrix: (Units=1/GPa)
#
#
# Indices 1 2 3 4 5 6 
#
# 1 0.045505 0.004730 0.000501 0.000000 -0.009969 0.000000
# 2 0.004730 0.020439 -0.002610 0.000000 -0.000173 0.000000
# 3 0.000501 -0.002610 0.010032 0.000000 -0.005637 0.000000
# 4 0.000000 0.000000 0.000000 0.229341 0.000000 -0.193294
# 5 -0.009969 -0.000173 -0.005637 0.000000 0.044844 0.000000
# 6 0.000000 0.000000 0.000000 -0.193294 0.000000 0.242511
#
#
# Mechanical properties :
#
#
# Convention : Reuss Voigt Hill
#
# Bulk Modulus (GPa) = 12.31261 22.83200 17.57231
# Shear Modulus (GPa) = 8.13666 22.07081 15.10373
#
# Velocity S-wave (km/s) = 2.03893 3.35805 2.77793
# Velocity P-wave (km/s) = 3.44003 5.16728 4.38945
#
# Compressibility (1/GPa) = 0.08121756
#
# Stress axis : x y z
#
# Youngs Moduli (GPa) = 21.97579 48.92656 99.67948
#
# Poissons Ratio (x) = -0.23143 -0.04993
# Poissons Ratio (y) = -0.10395 0.26018
# Poissons Ratio (z) = -0.01101 0.12770
#
# Static dielectric constant tensor:
#      x y z
#    x 1.677470 0.000000 -0.010350 
#    y 0.000000 1.652770 0.000000 
#    z -0.010350 0.000000 1.776730 
# 
# From -- ./inp_files/148380.got.cif
#   From: 2010.05.17/outbox.cif.g08.bks.cpg/sg15_75_cif.got.tgz:148380.got - 2010.06.03 18:47:42.
