data_PCOD9257385
_publ_section_title
;
Structure prediction by ZEFSAII (Michael W. Deem and Ramdas Pophale) SiO2 
 PCOD9257385
Probable space group: C 2/C
;
_chemical_formula_sum "Si O2"
_cell_formula_units_Z 56
_cell_length_a 14.120159
_cell_length_b 16.264364
_cell_length_c 20.058357
_cell_angle_alpha 90.000000
_cell_angle_beta 44.602556
_cell_angle_gamma 90.000000
_cell_volume 3234.621458
_symmetry_space_group_name_H-M "C 2/C"
_symmetry_group_IT_number 15
_symmetry_cell_setting 'monoclinic'
loop_
_space_group_symop_operation_xyz
x,y,z
-x,y,1/2-z
-x,-y,-z
x,-y,1/2+z
1/2+x,1/2+y,z
1/2-x,1/2+y,1/2-z
1/2-x,1/2-y,-z
1/2+x,1/2-y,1/2+z
loop_
_atom_site_type_symbol
_atom_site_label
_atom_site_fract_x
_atom_site_fract_y
_atom_site_fract_z
Si Si1 0.000000 0.473240 0.250000
Si Si2 0.814163 0.548704 0.721233
Si Si3 0.196626 0.358865 0.753384
Si Si4 0.168055 0.792451 0.944388
Si Si5 0.398606 0.692480 0.660394
Si Si6 0.500000 0.366338 0.250000
Si Si7 0.387064 0.097730 0.397203
Si Si8 0.796516 0.403162 0.084288
O O1 0.926907 0.435625 0.221823
O O2 0.882168 0.527867 0.343587
O O3 0.771627 0.452321 0.741187
O O4 0.693920 0.611870 0.797567
O O5 0.857378 0.567893 0.623685
O O6 0.294805 0.333813 0.644375
O O7 0.187128 0.276881 0.803838
O O8 0.037880 0.367970 0.814285
O O9 0.277389 0.832645 0.939081
O O10 0.187707 0.695423 0.927000
O O11 0.020704 0.808573 0.047399
O O12 0.461170 0.686584 0.704194
O O13 0.634950 0.417846 0.166221
O O14 0.364629 0.064334 0.482885
#
# Coordination Sequence:
#
# PCOD9257385 Si02
#       8
#     4   8   8   8   8   4   8   8
#     4  10  22  39  56  75 110 154 204 235 258 327
#     4  10  23  39  56  81 112 156 191 234 274 331
#     4  11  21  35  54  82 117 152 189 224 275 341
#     4  12  19  32  57  88 119 142 173 233 290 356
#     4  11  22  34  56  86 114 148 183 228 293 338
#     4  10  18  31  52  83 124 138 166 219 302 355
#     4  11  19  33  57  88 115 145 176 232 298 349
#     4  11  21  31  55  90 116 149 177 227 295 348
#
# _framework density 17.312691000000001
#
# number of rings (size 3 to 8) (size 9 to 14) (size 15 to 20)
#    0.000    1.143    8.571    1.286    0.000    2.857 
#    0.000    0.000    0.000    4.286    0.000    0.000 
#    0.000    0.000    0.000    0.000    0.000    0.000 
#
# Total GULP energy -155928.919171 kJ/mol
# GULP energy per Si atom -5568.889970 kJ/mol
# Density = 1.727329 g / cm^3
# Si number density = 17.312691 Si / 1000 Ang^3
#
#
#
# Elastic Constant Matrix: (Units=GPa)
#
#
# Indices 1 2 3 4 5 6 
#
# 1 64.7854 38.0648 39.6751 0.0000 13.2256 0.0000
# 2 38.0648 96.7756 36.8011 0.0000 -5.0730 0.0000
# 3 39.6751 36.8011 145.2313 0.0000 7.3558 0.0000
# 4 0.0000 0.0000 0.0000 20.1252 0.0000 5.8587
# 5 13.2256 -5.0730 7.3558 0.0000 27.0845 0.0000
# 6 0.0000 0.0000 0.0000 5.8587 0.0000 21.3210
#
#
#
# Elastic Compliance Matrix: (Units=1/GPa)
#
#
# Indices 1 2 3 4 5 6 
#
# 1 0.026266 -0.009484 -0.004089 0.000000 -0.013492 0.000000
# 2 -0.009484 0.015100 -0.001636 0.000000 0.007903 0.000000
# 3 -0.004089 -0.001636 0.008448 0.000000 -0.000604 0.000000
# 4 0.000000 0.000000 0.000000 0.054009 0.000000 -0.014841
# 5 -0.013492 0.007903 -0.000604 0.000000 0.045154 0.000000
# 6 0.000000 0.000000 0.000000 -0.014841 0.000000 0.050980
#
#
# Mechanical properties :
#
#
# Convention : Reuss Voigt Hill
#
# Bulk Modulus (GPa) = 51.55493 59.54159 55.54826
# Shear Modulus (GPa) = 21.11135 26.52289 23.81712
#
# Velocity S-wave (km/s) = 3.49580 3.91831 3.71307
# Velocity P-wave (km/s) = 6.79246 7.41198 7.10897
#
# Compressibility (1/GPa) = 0.01939679
#
# Stress axis : x y z
#
# Youngs Moduli (GPa) = 38.07185 66.22658 118.37510
#
# Poissons Ratio (x) = 0.62806 0.48405
# Poissons Ratio (y) = 0.36106 0.19363
# Poissons Ratio (z) = 0.15568 0.10833
#
# Static dielectric constant tensor:
#      x y z
#    x 1.607900 0.000000 0.020440 
#    y 0.000000 1.636750 0.000000 
#    z 0.020440 0.000000 1.629430 
# 
# From -- ./inp_files/153474.got.cif
#   From: 2010.05.17/outbox.cif.g08.bks.cpg/sg15_77_cif.got.tgz:153474.got - 2010.06.03 18:47:42.
