data_PCOD9257531
_publ_section_title
;
Structure prediction by ZEFSAII (Michael W. Deem and Ramdas Pophale) SiO2 
 PCOD9257531
Probable space group: C 2/C
;
_chemical_formula_sum "Si O2"
_cell_formula_units_Z 44
_cell_length_a 10.289148
_cell_length_b 26.367590
_cell_length_c 13.870684
_cell_angle_alpha 90.000000
_cell_angle_beta 135.824646
_cell_angle_gamma 90.000000
_cell_volume 2622.353178
_symmetry_space_group_name_H-M "C 2/C"
_symmetry_group_IT_number 15
_symmetry_cell_setting 'monoclinic'
loop_
_space_group_symop_operation_xyz
x,y,z
-x,y,1/2-z
-x,-y,-z
x,-y,1/2+z
1/2+x,1/2+y,z
1/2-x,1/2+y,1/2-z
1/2-x,1/2-y,-z
1/2+x,1/2-y,1/2+z
loop_
_atom_site_type_symbol
_atom_site_label
_atom_site_fract_x
_atom_site_fract_y
_atom_site_fract_z
Si Si1 0.500000 0.404286 0.750000
Si Si2 0.880834 0.989135 0.532952
Si Si3 0.500000 0.571841 0.750000
Si Si4 0.725716 0.788422 0.367587
Si Si5 0.314419 0.871337 0.301560
Si Si6 0.696695 0.176743 0.065720
Si Si7 0.000000 0.550370 0.750000
O O1 0.448723 0.440084 0.631430
O O2 0.672017 0.366469 0.820961
O O3 0.666295 0.980787 0.388233
O O4 0.913142 0.035924 0.621602
O O5 0.000000 0.000000 0.500000
O O6 0.335488 0.604572 0.708339
O O7 0.500000 0.785103 0.250000
O O8 0.778392 0.829109 0.315947
O O9 0.775028 0.810069 0.499471
O O10 0.799669 0.732359 0.385719
O O11 0.489584 0.844938 0.446395
O O12 0.402523 0.913731 0.277647
#
# Coordination Sequence:
#
# PCOD9257531 Si02
#       7
#     4   8   4   8   8   8   4
#     4  11  20  33  58  92 114 148 197 243 288 346
#     4  11  24  39  58  88 117 153 199 248 288 346
#     4  11  26  40  62  83 121 162 198 237 302 348
#     4   9  17  31  56  88 117 145 190 239 290 338
#     4  11  20  38  58  87 117 157 193 239 294 354
#     4  10  18  31  57  90 115 144 192 246 284 339
#     4  12  20  39  64  81 119 156 197 244 296 336
#
# _framework density 16.778822999999999
#
# number of rings (size 3 to 8) (size 9 to 14) (size 15 to 20)
#    0.000    1.455    7.273    0.000    0.000    2.182 
#    0.000    0.909    0.000    0.000    0.000    0.000 
#    0.000    0.000    0.000    0.000    0.000    0.000 
#
# Total GULP energy -122722.799830 kJ/mol
# GULP energy per Si atom -5578.309083 kJ/mol
# Density = 1.674063 g / cm^3
# Si number density = 16.778823 Si / 1000 Ang^3
#
#
#
# Elastic Constant Matrix: (Units=GPa)
#
#
# Indices 1 2 3 4 5 6 
#
# 1 113.5757 70.5558 41.2870 0.0000 -2.5976 0.0000
# 2 70.5558 126.3879 58.4905 0.0000 2.5160 0.0000
# 3 41.2870 58.4905 97.8721 0.0000 2.8658 0.0000
# 4 0.0000 0.0000 0.0000 31.3800 0.0000 5.3868
# 5 -2.5976 2.5160 2.8658 0.0000 16.6583 0.0000
# 6 0.0000 0.0000 0.0000 5.3868 0.0000 15.2640
#
#
#
# Elastic Compliance Matrix: (Units=1/GPa)
#
#
# Indices 1 2 3 4 5 6 
#
# 1 0.013876 -0.006994 -0.001777 0.000000 0.003526 0.000000
# 2 -0.006994 0.014467 -0.005628 0.000000 -0.002307 0.000000
# 3 -0.001777 -0.005628 0.014386 0.000000 -0.001902 0.000000
# 4 0.000000 0.000000 0.000000 0.033922 0.000000 -0.011972
# 5 0.003526 -0.002307 -0.001902 0.000000 0.061256 0.000000
# 6 0.000000 0.000000 0.000000 -0.011972 0.000000 0.069739
#
#
# Mechanical properties :
#
#
# Convention : Reuss Voigt Hill
#
# Bulk Modulus (GPa) = 71.78056 75.38915 73.58485
# Shear Modulus (GPa) = 20.73934 23.82730 22.28332
#
# Velocity S-wave (km/s) = 3.51955 3.77249 3.64821
# Velocity P-wave (km/s) = 7.70647 8.00026 7.85474
#
# Compressibility (1/GPa) = 0.01393135
#
# Stress axis : x y z
#
# Youngs Moduli (GPa) = 72.06546 69.12269 69.51207
#
# Poissons Ratio (x) = 0.48346 0.12352
# Poissons Ratio (y) = 0.50404 0.39120
# Poissons Ratio (z) = 0.12806 0.38901
#
# Static dielectric constant tensor:
#      x y z
#    x 1.480470 0.000000 0.050290 
#    y 0.000000 1.581450 0.000000 
#    z 0.050290 0.000000 1.508210 
# 
# From -- ./inp_files/31442.got.cif
#   From: 2010.05.17/outbox.cif.g08.bks.cpg/sg15_16_cif.got.tgz:31442.got - 2010.06.03 18:47:42.
