data_PCOD9257163
_publ_section_title
;
Structure prediction by ZEFSAII (Michael W. Deem and Ramdas Pophale) SiO2 
 PCOD9257163
Probable space group: C 2/C
;
_chemical_formula_sum "Si O2"
_cell_formula_units_Z 64
_cell_length_a 13.044724
_cell_length_b 28.072076
_cell_length_c 11.170706
_cell_angle_alpha 90.000000
_cell_angle_beta 130.014518
_cell_angle_gamma 90.000000
_cell_volume 3132.936930
_symmetry_space_group_name_H-M "C 2/C"
_symmetry_group_IT_number 15
_symmetry_cell_setting 'monoclinic'
loop_
_space_group_symop_operation_xyz
x,y,z
-x,y,1/2-z
-x,-y,-z
x,-y,1/2+z
1/2+x,1/2+y,z
1/2-x,1/2+y,1/2-z
1/2-x,1/2-y,-z
1/2+x,1/2-y,1/2+z
loop_
_atom_site_type_symbol
_atom_site_label
_atom_site_fract_x
_atom_site_fract_y
_atom_site_fract_z
Si Si1 0.519961 0.109122 0.992412
Si Si2 0.133450 0.140647 0.582772
Si Si3 0.131978 0.984259 0.672142
Si Si4 0.757510 0.077057 0.642527
Si Si5 0.098749 0.699497 0.709835
Si Si6 0.140191 0.439664 0.808078
Si Si7 0.211592 0.899152 0.898385
Si Si8 0.594756 0.308064 0.703855
O O1 0.592573 0.097958 0.172349
O O2 0.629436 0.091798 0.978477
O O3 0.383170 0.079062 0.890766
O O4 0.472896 0.163364 0.936366
O O5 0.151151 0.115379 0.722452
O O6 0.257919 0.176148 0.655479
O O7 0.149280 0.104139 0.483295
O O8 0.994932 0.167733 0.464847
O O9 0.254854 0.975494 0.672603
O O10 0.135574 0.936666 0.756605
O O11 0.172279 0.026713 0.790511
O O12 0.000000 0.000000 0.500000
O O13 0.715798 0.085150 0.475032
O O14 0.127625 0.754021 0.696136
O O15 0.000000 0.699384 0.750000
O O16 0.000000 0.461627 0.750000
O O17 0.201798 0.846877 0.827985
O O18 0.500000 0.304804 0.750000
#
# Coordination Sequence:
#
# PCOD9257163 Si02
#       8
#     8   8   8   8   8   8   8   8
#     4   9  19  36  58  83 112 152 190 239 292 349
#     4  10  20  35  53  85 117 149 193 244 294 355
#     4  11  24  40  62  87 116 159 200 245 298 352
#     4  10  22  38  58  83 114 154 199 237 294 343
#     4  10  18  30  56  86 112 150 188 236 303 359
#     4   9  21  41  59  85 114 155 197 241 292 351
#     4  10  20  35  56  81 119 149 192 247 294 354
#     4   9  20  31  51  83 121 151 182 238 302 363
#
# _framework density 20.428115999999999
#
# number of rings (size 3 to 8) (size 9 to 14) (size 15 to 20)
#    0.000    2.250    1.250    0.750    3.500    6.500 
#    0.000    0.000    0.000    0.750   16.250    0.000 
#    0.000    0.000    0.000    0.000    0.000    0.000 
#
# Total GULP energy -178499.225744 kJ/mol
# GULP energy per Si atom -5578.100804 kJ/mol
# Density = 2.038162 g / cm^3
# Si number density = 20.428116 Si / 1000 Ang^3
#
#
#
# Elastic Constant Matrix: (Units=GPa)
#
#
# Indices 1 2 3 4 5 6 
#
# 1 18.8934 -1.2120 1.8962 0.0000 0.2467 0.0000
# 2 -1.2120 78.3924 40.3142 0.0000 -2.4868 0.0000
# 3 1.8962 40.3142 111.8801 0.0000 -1.2425 0.0000
# 4 0.0000 0.0000 0.0000 18.0243 0.0000 11.6610
# 5 0.2467 -2.4868 -1.2425 0.0000 17.6666 0.0000
# 6 0.0000 0.0000 0.0000 11.6610 0.0000 15.5192
#
#
#
# Elastic Compliance Matrix: (Units=1/GPa)
#
#
# Indices 1 2 3 4 5 6 
#
# 1 0.053184 0.001558 -0.001470 0.000000 -0.000627 0.000000
# 2 0.001558 0.015761 -0.005686 0.000000 0.001797 0.000000
# 3 -0.001470 -0.005686 0.011012 0.000000 -0.000005 0.000000
# 4 0.000000 0.000000 0.000000 0.107964 0.000000 -0.081124
# 5 -0.000627 0.001797 -0.000005 0.000000 0.056865 0.000000
# 6 0.000000 0.000000 0.000000 -0.081124 0.000000 0.125392
#
#
# Mechanical properties :
#
#
# Convention : Reuss Voigt Hill
#
# Bulk Modulus (GPa) = 14.54277 32.35140 23.44708
# Shear Modulus (GPa) = 12.36721 21.45320 16.91020
#
# Velocity S-wave (km/s) = 2.46316 3.24416 2.88026
# Velocity P-wave (km/s) = 3.90179 5.46844 4.75015
#
# Compressibility (1/GPa) = 0.06876271
#
# Stress axis : x y z
#
# Youngs Moduli (GPa) = 18.80254 63.44595 90.81177
#
# Poissons Ratio (x) = -0.09887 0.13348
# Poissons Ratio (y) = -0.02930 0.51634
# Poissons Ratio (z) = 0.02764 0.36074
#
# Static dielectric constant tensor:
#      x y z
#    x 1.766650 0.000000 0.016230 
#    y 0.000000 1.750800 0.000000 
#    z 0.016230 0.000000 1.744930 
# 
# From -- ./inp_files/101650.got.cif
#   From: 2010.05.17/outbox.cif.g08.bks.cpg/sg15_51_cif.got.tgz:101650.got - 2010.06.03 18:47:42.
