data_PCOD9257816
_publ_section_title
;
Structure prediction by ZEFSAII (Michael W. Deem and Ramdas Pophale) SiO2 
 PCOD9257816
Probable space group: C 2/C
;
_chemical_formula_sum "Si O2"
_cell_formula_units_Z 64
_cell_length_a 10.934274
_cell_length_b 14.464356
_cell_length_c 21.085749
_cell_angle_alpha 90.000000
_cell_angle_beta 56.154799
_cell_angle_gamma 90.000000
_cell_volume 2769.755517
_symmetry_space_group_name_H-M "C 2/C"
_symmetry_group_IT_number 15
_symmetry_cell_setting 'monoclinic'
loop_
_space_group_symop_operation_xyz
x,y,z
-x,y,1/2-z
-x,-y,-z
x,-y,1/2+z
1/2+x,1/2+y,z
1/2-x,1/2+y,1/2-z
1/2-x,1/2-y,-z
1/2+x,1/2-y,1/2+z
loop_
_atom_site_type_symbol
_atom_site_label
_atom_site_fract_x
_atom_site_fract_y
_atom_site_fract_z
Si Si1 0.664963 0.993204 0.755192
Si Si2 0.845893 0.023713 0.965766
Si Si3 0.116698 0.675273 0.039587
Si Si4 0.447689 0.832223 0.331582
Si Si5 0.617038 0.201967 0.906404
Si Si6 0.611427 0.180589 0.180077
Si Si7 0.646450 0.595074 0.907764
Si Si8 0.662339 0.474169 0.174143
O O1 0.629604 0.902881 0.724817
O O2 0.525150 0.063162 0.807761
O O3 0.778374 0.045042 0.674991
O O4 0.743175 0.973165 0.799406
O O5 0.855552 0.984406 0.891644
O O6 0.976860 0.100062 0.936056
O O7 0.691217 0.074910 0.015295
O O8 0.857131 0.958141 0.023533
O O9 0.045114 0.676239 0.128738
O O10 0.250000 0.750000 0.000000
O O11 0.034605 0.689658 0.996998
O O12 0.500000 0.789688 0.250000
O O13 0.514562 0.791687 0.375708
O O14 0.271577 0.829153 0.383356
O O15 0.721461 0.290248 0.878568
O O16 0.737669 0.118837 0.864419
O O17 0.500000 0.247141 0.250000
O O18 0.500000 0.459989 0.250000
#
# Coordination Sequence:
#
# PCOD9257816 Si02
#       8
#     8   8   8   8   8   8   8   8
#     4  10  19  33  55  81 111 139 177 234 272 322
#     4  10  19  31  54  81 105 138 186 215 272 325
#     4   9  19  35  53  81 112 137 176 232 269 316
#     4   9  19  36  56  78 112 142 182 227 275 316
#     4   9  20  36  56  80 107 146 183 229 266 327
#     4  11  20  35  57  83 110 145 185 221 281 331
#     4  10  18  32  54  79 102 145 179 221 267 331
#     4  10  18  33  51  81 109 137 178 231 269 313
#
# _framework density 23.106732999999998
#
# number of rings (size 3 to 8) (size 9 to 14) (size 15 to 20)
#    0.000    2.250    2.500    1.500    0.000    0.000 
#    2.250    2.500    0.000    3.000    0.000    0.000 
#    0.000    0.000    0.000    0.000    0.000    0.000 
#
# Total GULP energy -178149.774840 kJ/mol
# GULP energy per Si atom -5567.180464 kJ/mol
# Density = 2.305414 g / cm^3
# Si number density = 23.106733 Si / 1000 Ang^3
#
#
#
# Elastic Constant Matrix: (Units=GPa)
#
#
# Indices 1 2 3 4 5 6 
#
# 1 112.5790 -5.7606 50.5113 0.0000 36.1371 0.0000
# 2 -5.7606 10.9004 9.7447 0.0000 9.7115 0.0000
# 3 50.5113 9.7447 167.2749 0.0000 38.1418 0.0000
# 4 0.0000 0.0000 0.0000 6.5300 0.0000 2.9203
# 5 36.1371 9.7115 38.1418 0.0000 55.0434 0.0000
# 6 0.0000 0.0000 0.0000 2.9203 0.0000 8.4217
#
#
#
# Elastic Compliance Matrix: (Units=1/GPa)
#
#
# Indices 1 2 3 4 5 6 
#
# 1 0.015011 0.020868 -0.003161 0.000000 -0.011346 0.000000
# 2 0.020868 0.138629 -0.006741 0.000000 -0.033487 0.000000
# 3 -0.003161 -0.006741 0.007816 0.000000 -0.002151 0.000000
# 4 0.000000 0.000000 0.000000 0.181246 0.000000 -0.062849
# 5 -0.011346 -0.033487 -0.002151 0.000000 0.033015 0.000000
# 6 0.000000 0.000000 0.000000 -0.062849 0.000000 0.140535
#
#
# Mechanical properties :
#
#
# Convention : Reuss Voigt Hill
#
# Bulk Modulus (GPa) = 5.45300 44.41613 24.93457
# Shear Modulus (GPa) = 9.00170 29.74961 19.37566
#
# Velocity S-wave (km/s) = 1.97589 3.59205 2.89888
# Velocity P-wave (km/s) = 2.75147 6.03884 4.69245
#
# Compressibility (1/GPa) = 0.18338538
#
# Stress axis : x y z
#
# Youngs Moduli (GPa) = 66.61853 7.21349 127.94232
#
# Poissons Ratio (x) = -0.15053 0.40446
# Poissons Ratio (y) = -1.39016 0.86252
# Poissons Ratio (z) = 0.21060 0.04863
#
# Static dielectric constant tensor:
#      x y z
#    x 1.958490 0.000000 -0.090060 
#    y 0.000000 1.998750 0.000000 
#    z -0.090060 0.000000 2.007440 
# 
# From -- ./inp_files/239555.got.cif
#   From: 2010.05.17/outbox.cif.g08.bks.cpg/sg15_120_cif.got.tgz:239555.got - 2010.06.03 18:47:42.
