data_PCOD9257741
_publ_section_title
;
Structure prediction by ZEFSAII (Michael W. Deem and Ramdas Pophale) SiO2 
 PCOD9257741
Probable space group: C 2/C
;
_chemical_formula_sum "Si O2"
_cell_formula_units_Z 48
_cell_length_a 31.461141
_cell_length_b 18.742931
_cell_length_c 16.806091
_cell_angle_alpha 90.000000
_cell_angle_beta 17.370748
_cell_angle_gamma 90.000000
_cell_volume 2958.700177
_symmetry_space_group_name_H-M "C 2/C"
_symmetry_group_IT_number 15
_symmetry_cell_setting 'monoclinic'
loop_
_space_group_symop_operation_xyz
x,y,z
-x,y,1/2-z
-x,-y,-z
x,-y,1/2+z
1/2+x,1/2+y,z
1/2-x,1/2+y,1/2-z
1/2-x,1/2-y,-z
1/2+x,1/2-y,1/2+z
loop_
_atom_site_type_symbol
_atom_site_label
_atom_site_fract_x
_atom_site_fract_y
_atom_site_fract_z
Si Si1 0.442808 0.577232 0.070076
Si Si2 0.150263 0.577930 0.025294
Si Si3 0.150017 0.452379 0.157979
Si Si4 0.782946 0.830807 0.418765
Si Si5 0.863208 0.986841 0.546220
Si Si6 0.663861 0.933122 0.766926
O O1 0.292576 0.589767 0.381984
O O2 0.415721 0.562453 0.025297
O O3 0.500000 0.500000 0.000000
O O4 0.556370 0.639695 0.880872
O O5 0.197571 0.645642 0.992309
O O6 0.273423 0.551649 0.745082
O O7 0.138962 0.514262 0.110621
O O8 0.000000 0.586286 0.250000
O O9 0.163855 0.491750 0.218282
O O10 0.999582 0.413168 0.424611
O O11 0.750000 0.750000 0.500000
O O12 0.730277 0.877580 0.587483
O O13 0.755582 0.944147 0.681593
O O14 0.000000 0.008956 0.250000
#
# Coordination Sequence:
#
# PCOD9257741 Si02
#       6
#     8   8   8   8   8   8
#     4  11  18  34  54  80 108 142 183 234 276 321
#     4  10  19  34  54  82 109 139 179 234 284 324
#     4   9  18  30  55  80 109 135 178 234 281 314
#     4  11  23  39  53  76 119 158 183 219 289 354
#     4  11  18  28  56  88 106 127 182 244 284 310
#     4  10  18  32  52  83 108 137 182 233 275 329
#
# _framework density 16.22334
#
# number of rings (size 3 to 8) (size 9 to 14) (size 15 to 20)
#    0.000    1.667    8.333    0.000    0.000    0.000 
#    3.000    0.833    0.000    0.000    0.000    0.000 
#    0.000    0.000    0.000    0.000    0.000    0.000 
#
# Total GULP energy -133758.022037 kJ/mol
# GULP energy per Si atom -5573.250918 kJ/mol
# Density = 1.618642 g / cm^3
# Si number density = 16.223340 Si / 1000 Ang^3
#
#
#
# Elastic Constant Matrix: (Units=GPa)
#
#
# Indices 1 2 3 4 5 6 
#
# 1 93.8047 14.1796 26.3814 -0.0005 -21.5561 0.0002
# 2 14.1796 53.5146 27.2585 -0.0005 -13.8104 0.0002
# 3 26.3814 27.2585 135.9474 -0.0006 -7.3087 -0.0003
# 4 -0.0005 -0.0005 -0.0006 15.4050 0.0009 2.0398
# 5 -21.5561 -13.8104 -7.3087 0.0009 31.3258 -0.0001
# 6 0.0002 0.0002 -0.0003 2.0398 -0.0001 11.6073
#
#
#
# Elastic Compliance Matrix: (Units=1/GPa)
#
#
# Indices 1 2 3 4 5 6 
#
# 1 0.013235 -0.000262 -0.002058 0.000000 0.008512 0.000000
# 2 -0.000262 0.023195 -0.004111 0.000000 0.009086 0.000000
# 3 -0.002058 -0.004111 0.008513 0.000000 -0.001243 0.000000
# 4 0.000000 0.000000 0.000000 0.066460 -0.000002 -0.011679
# 5 0.008512 0.009086 -0.001243 -0.000002 0.041495 0.000000
# 6 0.000000 0.000000 0.000000 -0.011679 0.000000 0.088205
#
#
# Mechanical properties :
#
#
# Convention : Reuss Voigt Hill
#
# Bulk Modulus (GPa) = 31.17252 46.54507 38.85880
# Shear Modulus (GPa) = 18.89220 26.03078 22.46149
#
# Velocity S-wave (km/s) = 3.41619 4.01000 3.72495
# Velocity P-wave (km/s) = 5.90058 7.08467 6.51956
#
# Compressibility (1/GPa) = 0.03207954
#
# Stress axis : x y z
#
# Youngs Moduli (GPa) = 75.55841 43.11271 117.47078
#
# Poissons Ratio (x) = 0.01129 0.24178
# Poissons Ratio (y) = 0.01979 0.48298
# Poissons Ratio (z) = 0.15551 0.17726
#
# Static dielectric constant tensor:
#      x y z
#    x 1.553590 0.000000 -0.003520 
#    y 0.000000 1.520420 0.000000 
#    z -0.003520 0.000000 1.592670 
# 
# From -- ./inp_files/178899.got.cif
#   From: 2010.05.17/outbox.cif.g08.bks.cpg/sg15_90_cif.got.tgz:178899.got - 2010.06.03 18:47:42.
