data_PCOD9257466
_publ_section_title
;
Structure prediction by ZEFSAII (Michael W. Deem and Ramdas Pophale) SiO2 
 PCOD9257466
Probable space group: C 2/C
;
_chemical_formula_sum "Si O2"
_cell_formula_units_Z 60
_cell_length_a 19.785556
_cell_length_b 23.290493
_cell_length_c 15.942815
_cell_angle_alpha 90.000000
_cell_angle_beta 152.625058
_cell_angle_gamma 90.000000
_cell_volume 3378.094059
_symmetry_space_group_name_H-M "C 2/C"
_symmetry_group_IT_number 15
_symmetry_cell_setting 'monoclinic'
loop_
_space_group_symop_operation_xyz
x,y,z
-x,y,1/2-z
-x,-y,-z
x,-y,1/2+z
1/2+x,1/2+y,z
1/2-x,1/2+y,1/2-z
1/2-x,1/2-y,-z
1/2+x,1/2-y,1/2+z
loop_
_atom_site_type_symbol
_atom_site_label
_atom_site_fract_x
_atom_site_fract_y
_atom_site_fract_z
Si Si1 0.106653 0.403137 0.597581
Si Si2 0.000000 0.642620 0.750000
Si Si3 0.822049 0.708757 0.419200
Si Si4 0.487385 0.308584 0.837628
Si Si5 0.501913 0.065667 0.342319
Si Si6 0.544954 0.439966 0.939976
Si Si7 0.794245 0.008133 0.726601
Si Si8 0.651510 0.055328 0.813137
O O1 0.174227 0.341217 0.646989
O O2 0.217449 0.454741 0.692366
O O3 0.067011 0.404812 0.651736
O O4 0.956747 0.419410 0.379930
O O5 0.129863 0.600586 0.863969
O O6 0.943333 0.682443 0.615114
O O7 0.668628 0.712483 0.298693
O O8 0.884680 0.772338 0.474697
O O9 0.500000 0.303885 0.750000
O O10 0.499621 0.374823 0.876117
O O11 0.500000 0.096089 0.250000
O O12 0.665843 0.046029 0.546498
O O13 0.412023 0.006209 0.233316
O O14 0.403148 0.480573 0.778470
O O15 0.611508 0.453854 0.105108
O O16 0.681706 0.450675 0.029965
#
# Coordination Sequence:
#
# PCOD9257466 Si02
#       8
#     8   4   8   8   8   8   8   8
#     4  10  19  38  55  77 112 153 198 232 285 350
#     4  10  20  34  54  74 110 158 188 234 260 332
#     4  11  24  38  54  78 118 157 195 231 273 338
#     4  12  25  37  55  86 120 153 198 231 277 337
#     4  11  20  34  57  84 111 144 195 242 290 352
#     4  11  21  34  57  79 117 154 191 240 276 340
#     4  10  20  37  55  83 114 153 192 232 295 347
#     4  10  18  31  55  77 108 152 189 222 286 339
#
# _framework density 17.761493999999999
#
# number of rings (size 3 to 8) (size 9 to 14) (size 15 to 20)
#    0.000    1.333    5.333    2.000    3.733    1.067 
#    0.000    0.000    0.000    0.000    0.000    3.733 
#    0.000    0.000    0.000    0.000    0.000    0.000 
#
# Total GULP energy -167411.023929 kJ/mol
# GULP energy per Si atom -5580.367464 kJ/mol
# Density = 1.772107 g / cm^3
# Si number density = 17.761494 Si / 1000 Ang^3
#
#
#
# Elastic Constant Matrix: (Units=GPa)
#
#
# Indices 1 2 3 4 5 6 
#
# 1 102.6880 22.3954 19.1853 0.0000 16.5081 0.0000
# 2 22.3954 49.8478 9.3801 0.0000 2.0208 0.0000
# 3 19.1853 9.3801 39.6542 0.0000 20.8463 0.0000
# 4 0.0000 0.0000 0.0000 16.8599 0.0000 2.2912
# 5 16.5081 2.0208 20.8463 0.0000 37.0517 0.0000
# 6 0.0000 0.0000 0.0000 2.2912 0.0000 22.5480
#
#
#
# Elastic Compliance Matrix: (Units=1/GPa)
#
#
# Indices 1 2 3 4 5 6 
#
# 1 0.011830 -0.004645 -0.002822 0.000000 -0.003430 0.000000
# 2 -0.004645 0.022963 -0.005132 0.000000 0.003705 0.000000
# 3 -0.002822 -0.005132 0.038325 0.000000 -0.020025 0.000000
# 4 0.000000 0.000000 0.000000 0.060143 0.000000 -0.006111
# 5 -0.003430 0.003705 -0.020025 0.000000 0.039582 0.000000
# 6 0.000000 0.000000 0.000000 -0.006111 0.000000 0.044971
#
#
# Mechanical properties :
#
#
# Convention : Reuss Voigt Hill
#
# Bulk Modulus (GPa) = 20.86793 32.67907 26.77350
# Shear Modulus (GPa) = 19.30616 24.70719 22.00667
#
# Velocity S-wave (km/s) = 3.30050 3.73373 3.52378
# Velocity P-wave (km/s) = 5.12824 6.08493 5.62696
#
# Compressibility (1/GPa) = 0.04792043
#
# Stress axis : x y z
#
# Youngs Moduli (GPa) = 84.53245 43.54746 26.09294
#
# Poissons Ratio (x) = 0.20227 0.07362
# Poissons Ratio (y) = 0.39264 0.13391
# Poissons Ratio (z) = 0.23852 0.22349
#
# Static dielectric constant tensor:
#      x y z
#    x 1.653290 0.000000 -0.000480 
#    y 0.000000 1.610370 0.000000 
#    z -0.000480 0.000000 1.630570 
# 
# From -- ./inp_files/51203.got.cif
#   From: 2010.05.17/outbox.cif.g08.bks.cpg/sg15_26_cif.got.tgz:51203.got - 2010.06.03 18:47:42.
