data_PCOD9257008
_publ_section_title
;
Structure prediction by ZEFSAII (Michael W. Deem and Ramdas Pophale) SiO2 
 PCOD9257008
Probable space group: C 2/C
;
_chemical_formula_sum "Si O2"
_cell_formula_units_Z 64
_cell_length_a 26.036703
_cell_length_b 21.300152
_cell_length_c 9.189596
_cell_angle_alpha 90.000000
_cell_angle_beta 50.587121
_cell_angle_gamma 90.000000
_cell_volume 3937.446694
_symmetry_space_group_name_H-M "C 2/C"
_symmetry_group_IT_number 15
_symmetry_cell_setting 'monoclinic'
loop_
_space_group_symop_operation_xyz
x,y,z
-x,y,1/2-z
-x,-y,-z
x,-y,1/2+z
1/2+x,1/2+y,z
1/2-x,1/2+y,1/2-z
1/2-x,1/2-y,-z
1/2+x,1/2-y,1/2+z
loop_
_atom_site_type_symbol
_atom_site_label
_atom_site_fract_x
_atom_site_fract_y
_atom_site_fract_z
Si Si1 0.226038 0.345028 0.112762
Si Si2 0.883980 0.427370 0.602178
Si Si3 0.141953 0.772293 0.629721
Si Si4 0.011851 0.389394 0.560318
Si Si5 0.820156 0.707499 0.207233
Si Si6 0.362161 0.045594 0.815369
Si Si7 0.452600 0.745283 0.958997
Si Si8 0.313560 0.773278 0.060595
O O1 0.179138 0.290641 0.125797
O O2 0.201834 0.410142 0.090931
O O3 0.209915 0.336491 0.313960
O O4 0.302665 0.326317 0.953600
O O5 0.843482 0.363456 0.650772
O O6 0.850463 0.477484 0.769256
O O7 0.887766 0.456885 0.434748
O O8 0.953251 0.410281 0.557047
O O9 0.134649 0.752898 0.474004
O O10 0.074938 0.784326 0.841014
O O11 0.079482 0.420265 0.381443
O O12 0.017670 0.313587 0.552057
O O13 0.000000 0.408081 0.750000
O O14 0.744275 0.723235 0.298072
O O15 0.821495 0.721770 0.375113
O O16 0.500000 0.715483 0.750000
O O17 0.384184 0.755836 0.996371
#
# Coordination Sequence:
#
# PCOD9257008 Si02
#       8
#     8   8   8   8   8   8   8   8
#     4   9  17  32  53  67  92 129 168 215 252 299
#     4  12  25  33  49  68 101 137 182 211 247 289
#     4   9  16  31  52  73  91 123 170 208 257 306
#     4  11  21  36  50  66  99 142 177 208 246 289
#     4  10  18  32  50  75  92 129 167 217 251 301
#     4  12  23  37  47  68  98 142 182 216 243 289
#     4  10  18  30  51  74 100 128 159 208 255 311
#     4   9  18  31  53  71  98 122 166 206 266 305
#
# _framework density 16.254187999999999
#
# number of rings (size 3 to 8) (size 9 to 14) (size 15 to 20)
#    0.000    1.750    3.750    3.750    1.750    0.000 
#    0.000    1.875    0.000    0.000    0.000    0.000 
#    0.000    1.000    0.000    0.000    0.000    0.000 
#
# Total GULP energy -178268.559129 kJ/mol
# GULP energy per Si atom -5570.892473 kJ/mol
# Density = 1.621719 g / cm^3
# Si number density = 16.254188 Si / 1000 Ang^3
#
#
#
# Elastic Constant Matrix: (Units=GPa)
#
#
# Indices 1 2 3 4 5 6 
#
# 1 50.4509 27.8989 26.9221 0.0000 15.0087 0.0000
# 2 27.8989 41.9755 5.4281 0.0000 -3.2810 0.0000
# 3 26.9221 5.4281 120.3194 0.0000 14.5775 0.0000
# 4 0.0000 0.0000 0.0000 12.5809 0.0000 4.4282
# 5 15.0087 -3.2810 14.5775 0.0000 29.5869 0.0000
# 6 0.0000 0.0000 0.0000 4.4282 0.0000 16.3881
#
#
#
# Elastic Compliance Matrix: (Units=1/GPa)
#
#
# Indices 1 2 3 4 5 6 
#
# 1 0.050125 -0.034511 -0.006503 0.000000 -0.026051 0.000000
# 2 -0.034511 0.048048 0.002965 0.000000 0.021374 0.000000
# 3 -0.006503 0.002965 0.009777 0.000000 -0.001190 0.000000
# 4 0.000000 0.000000 0.000000 0.087840 0.000000 -0.023735
# 5 -0.026051 0.021374 -0.001190 0.000000 0.049970 0.000000
# 6 0.000000 0.000000 0.000000 -0.023735 0.000000 0.067433
#
#
# Mechanical properties :
#
#
# Convention : Reuss Voigt Hill
#
# Bulk Modulus (GPa) = 31.39478 37.02711 34.21094
# Shear Modulus (GPa) = 12.50286 21.87763 17.19025
#
# Velocity S-wave (km/s) = 2.77647 3.67272 3.25559
# Velocity P-wave (km/s) = 5.44382 6.38864 5.93506
#
# Compressibility (1/GPa) = 0.03185243
#
# Stress axis : x y z
#
# Youngs Moduli (GPa) = 19.94993 20.81237 102.28515
#
# Poissons Ratio (x) = 0.71826 0.66513
# Poissons Ratio (y) = 0.68849 -0.30325
# Poissons Ratio (z) = 0.12973 -0.06170
#
# Static dielectric constant tensor:
#      x y z
#    x 1.563590 0.000000 0.038420 
#    y 0.000000 1.537540 0.000000 
#    z 0.038420 0.000000 1.648900 
# 
# From -- ./inp_files/63254.got.cif
#   From: 2010.05.17/outbox.cif.g08.bks.cpg/sg15_32_cif.got.tgz:63254.got - 2010.06.03 18:47:42.
