data_PCOD9257801
_publ_section_title
;
Structure prediction by ZEFSAII (Michael W. Deem and Ramdas Pophale) SiO2 
 PCOD9257801
Probable space group: C 2/C
;
_chemical_formula_sum "Si O2"
_cell_formula_units_Z 52
_cell_length_a 17.036175
_cell_length_b 8.042438
_cell_length_c 18.882699
_cell_angle_alpha 90.000000
_cell_angle_beta 114.796084
_cell_angle_gamma 90.000000
_cell_volume 2348.642971
_symmetry_space_group_name_H-M "C 2/C"
_symmetry_group_IT_number 15
_symmetry_cell_setting 'monoclinic'
loop_
_space_group_symop_operation_xyz
x,y,z
-x,y,1/2-z
-x,-y,-z
x,-y,1/2+z
1/2+x,1/2+y,z
1/2-x,1/2+y,1/2-z
1/2-x,1/2-y,-z
1/2+x,1/2-y,1/2+z
loop_
_atom_site_type_symbol
_atom_site_label
_atom_site_fract_x
_atom_site_fract_y
_atom_site_fract_z
Si Si1 0.729285 0.995269 0.419887
Si Si2 0.325369 0.307347 0.179460
Si Si3 0.500000 0.520257 0.250000
Si Si4 0.174108 0.527705 0.052519
Si Si5 0.913853 0.190007 0.501271
Si Si6 0.966116 0.041802 0.381244
Si Si7 0.310396 0.302525 0.333826
O O1 0.734572 0.864984 0.357216
O O2 0.671570 0.149308 0.371273
O O3 0.701646 0.916687 0.484059
O O4 0.823888 0.083845 0.466783
O O5 0.415867 0.402552 0.218631
O O6 0.255019 0.434497 0.120858
O O7 0.293988 0.249391 0.246606
O O8 0.491481 0.625977 0.317951
O O9 0.106969 0.382125 0.010117
O O10 0.145511 0.664437 0.098928
O O11 0.969602 0.113890 0.585162
O O12 0.969047 0.152330 0.451490
O O13 0.871303 0.962507 0.346034
#
# Coordination Sequence:
#
# PCOD9257801 Si02
#       7
#     8   8   4   8   8   8   8
#     4  10  19  34  54  77 100 133 174 211 250 306
#     4  10  20  35  54  73 101 136 173 211 257 314
#     4  10  18  32  54  76  94 130 174 214 258 302
#     4  11  20  33  54  77 103 136 173 213 255 306
#     4   9  18  33  52  74 100 134 171 206 251 302
#     4   9  18  33  52  74 103 133 170 212 252 306
#     4  10  21  33  51  78 107 134 165 213 265 302
#
# _framework density 22.140446000000001
#
# number of rings (size 3 to 8) (size 9 to 14) (size 15 to 20)
#    0.000    2.154    0.000    5.077    0.000    1.846 
#    0.000    0.000    0.000    4.615    0.000    0.000 
#    0.000    0.000    0.000    0.000    0.000    0.000 
#
# Total GULP energy -145007.227807 kJ/mol
# GULP energy per Si atom -5577.201070 kJ/mol
# Density = 2.209005 g / cm^3
# Si number density = 22.140446 Si / 1000 Ang^3
#
#
#
# Elastic Constant Matrix: (Units=GPa)
#
#
# Indices 1 2 3 4 5 6 
#
# 1 40.9912 -3.7793 25.6470 0.0000 -16.4686 0.0000
# 2 -3.7793 31.1730 0.4223 0.0000 -16.7044 0.0000
# 3 25.6470 0.4223 131.4991 0.0000 -53.1290 0.0000
# 4 0.0000 0.0000 0.0000 16.8583 0.0000 -1.3226
# 5 -16.4686 -16.7044 -53.1290 0.0000 45.8227 0.0000
# 6 0.0000 0.0000 0.0000 -1.3226 0.0000 17.6848
#
#
#
# Elastic Compliance Matrix: (Units=1/GPa)
#
#
# Indices 1 2 3 4 5 6 
#
# 1 0.032006 0.012846 0.000482 0.000000 0.016744 0.000000
# 2 0.012846 0.055285 0.013780 0.000000 0.040749 0.000000
# 3 0.000482 0.013780 0.017996 0.000000 0.026062 0.000000
# 4 0.000000 0.000000 0.000000 0.059668 0.000000 0.004462
# 5 0.016744 0.040749 0.026062 0.000000 0.072914 0.000000
# 6 0.000000 0.000000 0.000000 0.004462 0.000000 0.056879
#
#
# Mechanical properties :
#
#
# Convention : Reuss Voigt Hill
#
# Bulk Modulus (GPa) = 6.26943 27.58257 16.92600
# Shear Modulus (GPa) = 17.02419 28.16474 22.59447
#
# Velocity S-wave (km/s) = 2.77595 3.57051 3.19800
# Velocity P-wave (km/s) = 3.62109 5.42984 4.61495
#
# Compressibility (1/GPa) = 0.15950411
#
# Stress axis : x y z
#
# Youngs Moduli (GPa) = 31.24443 18.08798 55.56691
#
# Poissons Ratio (x) = -0.23236 -0.02676
# Poissons Ratio (y) = -0.40138 -0.76574
# Poissons Ratio (z) = -0.01505 -0.24926
#
# Static dielectric constant tensor:
#      x y z
#    x 1.842880 0.000000 -0.033910 
#    y 0.000000 1.826930 0.000000 
#    z -0.033910 0.000000 1.856740 
# 
# From -- ./inp_files/209013.got.cif
#   From: 2010.05.17/outbox.cif.g08.bks.cpg/sg15_105_cif.got.tgz:209013.got - 2010.06.03 18:47:42.
