data_PCOD9257158
_publ_section_title
;
Structure prediction by ZEFSAII (Michael W. Deem and Ramdas Pophale) SiO2 
 PCOD9257158
Probable space group: C 2/C
;
_chemical_formula_sum "Si O2"
_cell_formula_units_Z 48
_cell_length_a 21.693643
_cell_length_b 17.149278
_cell_length_c 5.720850
_cell_angle_alpha 90.000000
_cell_angle_beta 74.400223
_cell_angle_gamma 90.000000
_cell_volume 2049.929653
_symmetry_space_group_name_H-M "C 2/C"
_symmetry_group_IT_number 15
_symmetry_cell_setting 'monoclinic'
loop_
_space_group_symop_operation_xyz
x,y,z
-x,y,1/2-z
-x,-y,-z
x,-y,1/2+z
1/2+x,1/2+y,z
1/2-x,1/2+y,1/2-z
1/2-x,1/2-y,-z
1/2+x,1/2-y,1/2+z
loop_
_atom_site_type_symbol
_atom_site_label
_atom_site_fract_x
_atom_site_fract_y
_atom_site_fract_z
Si Si1 0.576147 0.193350 0.994547
Si Si2 0.072261 0.029182 0.874207
Si Si3 0.798023 0.315816 0.371579
Si Si4 0.381700 0.080036 0.142516
Si Si5 0.500000 0.669509 0.750000
Si Si6 0.000000 0.573885 0.750000
Si Si7 0.741193 0.022138 0.657005
O O1 0.646823 0.217705 0.846448
O O2 0.543100 0.132300 0.858046
O O3 0.585494 0.142216 0.217995
O O4 0.534156 0.270655 0.042404
O O5 0.055663 0.117641 0.813609
O O6 0.099751 0.987267 0.608726
O O7 0.000000 0.000000 0.000000
O O8 0.750000 0.250000 0.500000
O O9 0.836759 0.363454 0.531248
O O10 0.762327 0.386631 0.280401
O O11 0.330033 0.018084 0.295715
O O12 0.442861 0.035829 0.962596
O O13 0.769019 0.014246 0.366523
#
# Coordination Sequence:
#
# PCOD9257158 Si02
#       7
#     8   8   8   8   4   4   8
#     4  11  20  36  57  93 130 164 211 259 326 376
#     4   8  16  31  48  75 102 153 202 235 300 374
#     4  10  23  41  63  90 122 167 227 272 321 385
#     4  10  20  38  61  94 128 174 213 263 329 393
#     4  10  18  30  56  82 116 158 194 254 314 377
#     4  10  20  34  58  88 140 166 212 264 306 401
#     4  10  20  40  66  88 121 173 215 261 328 392
#
# _framework density 23.415437000000001
#
# number of rings (size 3 to 8) (size 9 to 14) (size 15 to 20)
#    0.000    2.333    3.333    0.000    0.000    3.333 
#    0.000    8.333    0.000   12.000    0.000    0.000 
#    0.000    0.000    0.000    0.000    0.000    0.000 
#
# Total GULP energy -133713.902997 kJ/mol
# GULP energy per Si atom -5571.412625 kJ/mol
# Density = 2.336214 g / cm^3
# Si number density = 23.415437 Si / 1000 Ang^3
#
#
#
# Elastic Constant Matrix: (Units=GPa)
#
#
# Indices 1 2 3 4 5 6 
#
# 1 89.4977 21.7811 22.7150 0.0000 8.3863 0.0000
# 2 21.7811 118.7172 23.1821 0.0000 -12.3276 0.0000
# 3 22.7150 23.1821 115.5683 0.0000 9.6742 0.0000
# 4 0.0000 0.0000 0.0000 27.2790 0.0000 -9.8786
# 5 8.3863 -12.3276 9.6742 0.0000 17.5818 0.0000
# 6 0.0000 0.0000 0.0000 -9.8786 0.0000 -1.5288
#
#
#
# Elastic Compliance Matrix: (Units=1/GPa)
#
#
# Indices 1 2 3 4 5 6 
#
# 1 0.012911 -0.002881 -0.001337 0.000000 -0.007443 0.000000
# 2 -0.002881 0.010453 -0.002368 0.000000 0.010007 0.000000
# 3 -0.001337 -0.002368 0.009934 0.000000 -0.006489 0.000000
# 4 0.000000 0.000000 0.000000 0.010975 0.000000 -0.070921
# 5 -0.007443 0.010007 -0.006489 0.000000 0.071014 0.000000
# 6 0.000000 0.000000 0.000000 -0.070921 0.000000 -0.195842
#
#
# Mechanical properties :
#
#
# Convention : Reuss Voigt Hill
#
# Bulk Modulus (GPa) = 49.68468 51.01554 50.35011
# Shear Modulus (GPa) = -82.40810 25.74008 -28.33401
#
# Velocity S-wave (km/s) = -5.93888 3.31913 -3.48236
# Velocity P-wave (km/s) = 5.07565 6.04345 2.31959
#
# Compressibility (1/GPa) = 0.02012693
#
# Stress axis : x y z
#
# Youngs Moduli (GPa) = 77.45195 95.66212 100.66530
#
# Poissons Ratio (x) = 0.27557 0.13457
# Poissons Ratio (y) = 0.22311 0.23841
# Poissons Ratio (z) = 0.10354 0.22656
#
# Static dielectric constant tensor:
#      x y z
#    x 1.791430 0.000000 -0.021210 
#    y 0.000000 1.861840 0.000000 
#    z -0.021210 0.000000 2.059020 
# 
# From -- ./inp_files/15435.got.cif
#   From: 2010.05.17/outbox.cif.g08.bks.cpg/sg15_8_cif.got.tgz:15435.got - 2010.06.03 18:47:42.
