data_PCOD9257543
_publ_section_title
;
Structure prediction by ZEFSAII (Michael W. Deem and Ramdas Pophale) SiO2 
 PCOD9257543
Probable space group: C 2/C
;
_chemical_formula_sum "Si O2"
_cell_formula_units_Z 60
_cell_length_a 24.704158
_cell_length_b 19.033440
_cell_length_c 5.538628
_cell_angle_alpha 90.000000
_cell_angle_beta 111.012992
_cell_angle_gamma 90.000000
_cell_volume 2431.103583
_symmetry_space_group_name_H-M "C 2/C"
_symmetry_group_IT_number 15
_symmetry_cell_setting 'monoclinic'
loop_
_space_group_symop_operation_xyz
x,y,z
-x,y,1/2-z
-x,-y,-z
x,-y,1/2+z
1/2+x,1/2+y,z
1/2-x,1/2+y,1/2-z
1/2-x,1/2-y,-z
1/2+x,1/2-y,1/2+z
loop_
_atom_site_type_symbol
_atom_site_label
_atom_site_fract_x
_atom_site_fract_y
_atom_site_fract_z
Si Si1 0.246321 0.525298 0.872614
Si Si2 0.887604 0.525501 0.742010
Si Si3 0.432071 0.526262 0.922779
Si Si4 0.183814 0.221891 0.128793
Si Si5 0.095060 0.684399 0.719548
Si Si6 0.000000 0.269179 0.750000
Si Si7 0.561856 0.311139 0.987739
Si Si8 0.288192 0.324736 0.328621
O O1 0.271726 0.482613 0.684363
O O2 0.179378 0.503710 0.815155
O O3 0.250708 0.604968 0.785606
O O4 0.913678 0.484855 0.553075
O O5 0.888748 0.607278 0.672181
O O6 0.407715 0.515342 0.614897
O O7 0.500000 0.500000 0.000000
O O8 0.423839 0.607097 0.985240
O O9 0.141588 0.288091 0.098675
O O10 0.248404 0.255049 0.248545
O O11 0.178595 0.175810 0.362714
O O12 0.177313 0.180397 0.868509
O O13 0.094540 0.744685 0.921534
O O14 0.031182 0.684572 0.500135
O O15 0.048196 0.215414 0.733195
O O16 0.500000 0.310674 0.750000
#
# Coordination Sequence:
#
# PCOD9257543 Si02
#       8
#     8   8   8   8   8   4   8   8
#     4  10  19  35  62  94 126 170 212 260 313 393
#     4  10  23  40  64  94 130 169 223 275 332 389
#     4  10  18  31  58  86 116 147 192 266 314 374
#     4  10  22  36  63  90 131 160 203 268 324 384
#     4  11  24  42  64  96 131 174 222 290 321 404
#     4  10  24  40  64  90 128 172 230 270 346 372
#     4  10  21  37  60  91 121 162 217 267 336 379
#     4  10  20  38  59  98 123 163 207 254 326 392
#
# _framework density 24.680150999999999
#
# number of rings (size 3 to 8) (size 9 to 14) (size 15 to 20)
#    0.000    1.867    2.667    1.600    5.600    0.000 
#    0.000    0.667    0.000    4.800    0.000    0.000 
#    0.000    0.000    0.000    0.000    0.000    0.000 
#
# Total GULP energy -167312.204464 kJ/mol
# GULP energy per Si atom -5577.073482 kJ/mol
# Density = 2.462398 g / cm^3
# Si number density = 24.680151 Si / 1000 Ang^3
#
#
#
# Elastic Constant Matrix: (Units=GPa)
#
#
# Indices 1 2 3 4 5 6 
#
# 1 38.1446 21.5090 25.0333 0.0000 -16.8984 0.0000
# 2 21.5090 109.0614 53.4074 0.0000 -28.6049 0.0000
# 3 25.0333 53.4074 158.7820 0.0000 -42.6560 0.0000
# 4 0.0000 0.0000 0.0000 30.1404 0.0000 -7.5972
# 5 -16.8984 -28.6049 -42.6560 0.0000 38.6697 0.0000
# 6 0.0000 0.0000 0.0000 -7.5972 0.0000 32.0709
#
#
#
# Elastic Compliance Matrix: (Units=1/GPa)
#
#
# Indices 1 2 3 4 5 6 
#
# 1 0.033699 -0.003126 -0.001317 0.000000 0.010961 0.000000
# 2 -0.003126 0.012248 -0.002217 0.000000 0.005249 0.000000
# 3 -0.001317 -0.002217 0.009459 0.000000 0.008219 0.000000
# 4 0.000000 0.000000 0.000000 0.035285 0.000000 0.008359
# 5 0.010961 0.005249 0.008219 0.000000 0.043599 0.000000
# 6 0.000000 0.000000 0.000000 0.008359 0.000000 0.033161
#
#
# Mechanical properties :
#
#
# Convention : Reuss Voigt Hill
#
# Bulk Modulus (GPa) = 23.76066 56.20971 39.98518
# Shear Modulus (GPa) = 25.66746 33.91208 29.78977
#
# Velocity S-wave (km/s) = 3.22841 3.71086 3.47801
# Velocity P-wave (km/s) = 4.85234 6.41758 5.68905
#
# Compressibility (1/GPa) = 0.04208637
#
# Stress axis : x y z
#
# Youngs Moduli (GPa) = 29.67454 81.64674 105.71750
#
# Poissons Ratio (x) = 0.25526 0.13920
# Poissons Ratio (y) = 0.09277 0.23435
# Poissons Ratio (z) = 0.03907 0.18099
#
# Static dielectric constant tensor:
#      x y z
#    x 2.115910 0.000000 0.050030 
#    y 0.000000 1.875310 0.000000 
#    z 0.050030 0.000000 2.122000 
# 
# From -- ./inp_files/18385.got.cif
#   From: 2010.05.17/outbox.cif.g08.bks.cpg/sg15_10_cif.got.tgz:18385.got - 2010.06.03 18:47:42.
