data_PCOD9257180
_publ_section_title
;
Structure prediction by ZEFSAII (Michael W. Deem and Ramdas Pophale) SiO2 
 PCOD9257180
Probable space group: C 2/C
;
_chemical_formula_sum "Si O2"
_cell_formula_units_Z 44
_cell_length_a 11.621116
_cell_length_b 18.284280
_cell_length_c 9.410432
_cell_angle_alpha 90.000000
_cell_angle_beta 73.270071
_cell_angle_gamma 90.000000
_cell_volume 1914.926757
_symmetry_space_group_name_H-M "C 2/C"
_symmetry_group_IT_number 15
_symmetry_cell_setting 'monoclinic'
loop_
_space_group_symop_operation_xyz
x,y,z
-x,y,1/2-z
-x,-y,-z
x,-y,1/2+z
1/2+x,1/2+y,z
1/2-x,1/2+y,1/2-z
1/2-x,1/2-y,-z
1/2+x,1/2-y,1/2+z
loop_
_atom_site_type_symbol
_atom_site_label
_atom_site_fract_x
_atom_site_fract_y
_atom_site_fract_z
Si Si1 0.357938 0.090686 0.282340
Si Si2 0.772430 0.829265 0.914664
Si Si3 0.396640 0.731892 0.114883
Si Si4 0.248486 0.068184 0.827646
Si Si5 0.000000 0.651915 0.750000
Si Si6 0.704526 0.657817 0.587277
O O1 0.500000 0.076212 0.250000
O O2 0.332759 0.135229 0.146290
O O3 0.305314 0.132944 0.437419
O O4 0.277466 0.017063 0.312497
O O5 0.873925 0.817595 0.759442
O O6 0.750000 0.750000 0.000000
O O7 0.808307 0.890875 0.016964
O O8 0.492453 0.793411 0.118608
O O9 0.269520 0.776019 0.146448
O O10 0.406083 0.687319 0.966416
O O11 0.381955 0.104246 0.784005
O O12 0.183527 0.094771 0.707846
#
# Coordination Sequence:
#
# PCOD9257180 Si02
#       6
#     8   8   8   8   4   8
#     4  11  24  34  53  89 123 150 179 225 289 353
#     4  11  21  37  55  78 117 155 195 227 269 347
#     4   9  19  35  52  76 104 151 192 232 268 319
#     4  11  21  35  56  83 119 154 178 229 294 349
#     4  10  18  30  58  78 114 144 184 228 286 328
#     4   9  19  34  51  70 112 152 185 221 271 329
#
# _framework density 22.977378999999999
#
# number of rings (size 3 to 8) (size 9 to 14) (size 15 to 20)
#    0.000    1.818    4.545    1.091    5.091    1.455 
#    0.000    0.000    0.000    0.000    0.000   20.364 
#    2.727    0.000    0.000    0.000    0.000    0.000 
#
# Total GULP energy -122738.855232 kJ/mol
# GULP energy per Si atom -5579.038874 kJ/mol
# Density = 2.292508 g / cm^3
# Si number density = 22.977379 Si / 1000 Ang^3
#
#
#
# Elastic Constant Matrix: (Units=GPa)
#
#
# Indices 1 2 3 4 5 6 
#
# 1 36.6500 25.5435 16.4380 0.0000 15.4471 0.0000
# 2 25.5435 133.2767 51.5730 0.0000 13.0607 0.0000
# 3 16.4380 51.5730 128.1728 0.0000 24.4854 0.0000
# 4 0.0000 0.0000 0.0000 29.0479 0.0000 1.0690
# 5 15.4471 13.0607 24.4854 0.0000 21.4522 0.0000
# 6 0.0000 0.0000 0.0000 1.0690 0.0000 21.6103
#
#
#
# Elastic Compliance Matrix: (Units=1/GPa)
#
#
# Indices 1 2 3 4 5 6 
#
# 1 0.043369 -0.006424 0.002866 0.000000 -0.030590 0.000000
# 2 -0.006424 0.009887 -0.003693 0.000000 0.002822 0.000000
# 3 0.002866 -0.003693 0.011363 0.000000 -0.012785 0.000000
# 4 0.000000 0.000000 0.000000 0.034489 0.000000 -0.001706
# 5 -0.030590 0.002822 -0.012785 0.000000 0.081517 0.000000
# 6 0.000000 0.000000 0.000000 -0.001706 0.000000 0.046359
#
#
# Mechanical properties :
#
#
# Convention : Reuss Voigt Hill
#
# Bulk Modulus (GPa) = 19.95297 53.91206 36.93252
# Shear Modulus (GPa) = 19.36553 28.05840 23.71196
#
# Velocity S-wave (km/s) = 2.90627 3.49826 3.21591
# Velocity P-wave (km/s) = 4.46816 6.31119 5.46789
#
# Compressibility (1/GPa) = 0.05011786
#
# Stress axis : x y z
#
# Youngs Moduli (GPa) = 23.05769 101.14260 88.00632
#
# Poissons Ratio (x) = 0.64969 -0.25225
# Poissons Ratio (y) = 0.14811 0.32505
# Poissons Ratio (z) = -0.06609 0.37357
#
# Static dielectric constant tensor:
#      x y z
#    x 1.950740 0.000000 0.000770 
#    y 0.000000 1.908870 0.000000 
#    z 0.000770 0.000000 1.919810 
# 
# From -- ./inp_files/39140.got.cif
#   From: 2010.05.17/outbox.cif.g08.bks.cpg/sg15_20_cif.got.tgz:39140.got - 2010.06.03 18:47:42.
