data_PCOD9257664
_publ_section_title
;
Structure prediction by ZEFSAII (Michael W. Deem and Ramdas Pophale) SiO2 
 PCOD9257664
Probable space group: C 2/C
;
_chemical_formula_sum "Si O2"
_cell_formula_units_Z 64
_cell_length_a 28.483601
_cell_length_b 15.352225
_cell_length_c 7.975326
_cell_angle_alpha 90.000000
_cell_angle_beta 102.923350
_cell_angle_gamma 90.000000
_cell_volume 3399.165591
_symmetry_space_group_name_H-M "C 2/C"
_symmetry_group_IT_number 15
_symmetry_cell_setting 'monoclinic'
loop_
_space_group_symop_operation_xyz
x,y,z
-x,y,1/2-z
-x,-y,-z
x,-y,1/2+z
1/2+x,1/2+y,z
1/2-x,1/2+y,1/2-z
1/2-x,1/2-y,-z
1/2+x,1/2-y,1/2+z
loop_
_atom_site_type_symbol
_atom_site_label
_atom_site_fract_x
_atom_site_fract_y
_atom_site_fract_z
Si Si1 0.747757 0.101489 0.228646
Si Si2 0.934842 0.428518 0.864750
Si Si3 0.850473 0.659611 0.478889
Si Si4 0.304398 0.781659 0.279124
Si Si5 0.532636 0.886499 0.115000
Si Si6 0.946660 0.273140 0.636659
Si Si7 0.351786 0.285519 0.159918
Si Si8 0.767813 0.083975 0.628259
O O1 0.695428 0.100656 0.102884
O O2 0.774888 0.192687 0.214226
O O3 0.744072 0.093156 0.425928
O O4 0.773780 0.015424 0.184679
O O5 0.899696 0.392473 0.980979
O O6 0.931490 0.531929 0.838764
O O7 0.926415 0.364269 0.701924
O O8 0.991244 0.413571 0.947791
O O9 0.840691 0.695747 0.656831
O O10 0.848472 0.733387 0.332253
O O11 0.329568 0.764860 0.479862
O O12 0.266137 0.860031 0.274304
O O13 0.500000 0.874111 0.250000
O O14 0.552716 0.796860 0.058388
O O15 0.907765 0.202688 0.660447
O O16 0.000000 0.254476 0.750000
O O17 0.319264 0.369838 0.155264
#
# Coordination Sequence:
#
# PCOD9257664 Si02
#       8
#     8   8   8   8   8   8   8   8
#     4  11  22  38  57  84 117 155 195 242 292 346
#     4   9  19  32  46  74 104 146 187 221 277 326
#     4  11  21  36  58  81 115 157 197 235 282 338
#     4  11  22  39  59  84 119 155 197 246 288 337
#     4  10  18  32  51  71 108 143 183 238 273 328
#     4   9  19  35  54  75 108 145 184 231 291 344
#     4  10  21  39  57  81 118 148 189 241 286 343
#     4  11  22  39  59  84 116 157 194 240 297 344
#
# _framework density 18.828150999999998
#
# number of rings (size 3 to 8) (size 9 to 14) (size 15 to 20)
#    0.000    1.750    2.500    3.750    3.500    1.000 
#    6.750    0.000    0.000    0.000    0.000    3.500 
#    0.000    0.000    0.000    0.000    0.000    0.000 
#
# Total GULP energy -178465.528076 kJ/mol
# GULP energy per Si atom -5577.047752 kJ/mol
# Density = 1.878530 g / cm^3
# Si number density = 18.828151 Si / 1000 Ang^3
#
#
#
# Elastic Constant Matrix: (Units=GPa)
#
#
# Indices 1 2 3 4 5 6 
#
# 1 84.2241 30.5879 8.9922 0.0000 -10.5567 0.0000
# 2 30.5879 52.7697 27.7149 0.0000 -7.8852 0.0000
# 3 8.9922 27.7149 62.4019 0.0000 -20.3692 0.0000
# 4 0.0000 0.0000 0.0000 21.7602 0.0000 -6.8378
# 5 -10.5567 -7.8852 -20.3692 0.0000 35.4823 0.0000
# 6 0.0000 0.0000 0.0000 -6.8378 0.0000 23.5712
#
#
#
# Elastic Compliance Matrix: (Units=1/GPa)
#
#
# Indices 1 2 3 4 5 6 
#
# 1 0.015871 -0.010565 0.003913 0.000000 0.004621 0.000000
# 2 -0.010565 0.031776 -0.013920 0.000000 -0.004073 0.000000
# 3 0.003913 -0.013920 0.025860 0.000000 0.012916 0.000000
# 4 0.000000 0.000000 0.000000 0.050565 0.000000 0.014668
# 5 0.004621 -0.004073 0.012916 0.000000 0.036067 0.000000
# 6 0.000000 0.000000 0.000000 0.014668 0.000000 0.046680
#
#
# Mechanical properties :
#
#
# Convention : Reuss Voigt Hill
#
# Bulk Modulus (GPa) = 30.89781 37.10952 34.00367
# Shear Modulus (GPa) = 19.32367 24.96947 22.14657
#
# Velocity S-wave (km/s) = 3.20710 3.64562 3.43337
# Velocity P-wave (km/s) = 5.49181 6.12153 5.81520
#
# Compressibility (1/GPa) = 0.03236475
#
# Stress axis : x y z
#
# Youngs Moduli (GPa) = 63.00710 31.46992 38.67027
#
# Poissons Ratio (x) = 0.33247 -0.15133
# Poissons Ratio (y) = 0.66565 0.53829
# Poissons Ratio (z) = -0.24657 0.43806
#
# Static dielectric constant tensor:
#      x y z
#    x 1.687960 0.000000 0.003970 
#    y 0.000000 1.661790 0.000000 
#    z 0.003970 0.000000 1.727450 
# 
# From -- ./inp_files/69743.got.cif
#   From: 2010.05.17/outbox.cif.g08.bks.cpg/sg15_35_cif.got.tgz:69743.got - 2010.06.03 18:47:42.
