data_PCOD9257615
_publ_section_title
;
Structure prediction by ZEFSAII (Michael W. Deem and Ramdas Pophale) SiO2 
 PCOD9257615
Probable space group: C 2/C
;
_chemical_formula_sum "Si O2"
_cell_formula_units_Z 64
_cell_length_a 7.050284
_cell_length_b 23.359186
_cell_length_c 21.764643
_cell_angle_alpha 90.000000
_cell_angle_beta 94.277504
_cell_angle_gamma 90.000000
_cell_volume 3574.410664
_symmetry_space_group_name_H-M "C 2/C"
_symmetry_group_IT_number 15
_symmetry_cell_setting 'monoclinic'
loop_
_space_group_symop_operation_xyz
x,y,z
-x,y,1/2-z
-x,-y,-z
x,-y,1/2+z
1/2+x,1/2+y,z
1/2-x,1/2+y,1/2-z
1/2-x,1/2-y,-z
1/2+x,1/2-y,1/2+z
loop_
_atom_site_type_symbol
_atom_site_label
_atom_site_fract_x
_atom_site_fract_y
_atom_site_fract_z
Si Si1 0.270816 0.020023 0.067809
Si Si2 0.278120 0.555426 0.618849
Si Si3 0.843527 0.802223 0.430708
Si Si4 0.585375 0.175293 0.030427
Si Si5 0.711185 0.052545 0.047859
Si Si6 0.096340 0.871064 0.191235
Si Si7 0.407268 0.037927 0.688134
Si Si8 0.321241 0.372256 0.997448
O O1 0.486742 0.037260 0.053339
O O2 0.282450 0.000089 0.138270
O O3 0.144940 0.076087 0.050190
O O4 0.227913 0.967604 0.019621
O O5 0.313166 0.490331 0.597609
O O6 0.444266 0.582989 0.662126
O O7 0.261543 0.592279 0.556626
O O8 0.081982 0.558016 0.650407
O O9 0.647908 0.817683 0.460650
O O10 0.865908 0.734117 0.434710
O O11 0.862429 0.827495 0.363193
O O12 0.007635 0.831759 0.476962
O O13 0.705266 0.120368 0.056260
O O14 0.361535 0.163052 0.028990
O O15 0.284564 0.908249 0.207966
O O16 0.000000 0.845640 0.250000
O O17 0.500000 0.008257 0.750000
#
# Coordination Sequence:
#
# PCOD9257615 Si02
#       8
#     8   8   8   8   8   8   8   8
#     4   8  15  27  47  75  98 123 156 195 244 310
#     4   9  18  32  50  76  99 130 158 199 255 305
#     4  10  21  31  50  74 101 131 170 206 250 298
#     4  10  18  32  49  75 101 130 160 206 252 295
#     4   8  14  28  50  71 101 125 152 196 252 296
#     4  11  21  34  48  73 101 131 169 207 245 299
#     4  11  19  30  48  69 101 128 161 198 247 298
#     4   9  17  32  52  72 103 126 157 204 255 301
#
# _framework density 17.905049000000002
#
# number of rings (size 3 to 8) (size 9 to 14) (size 15 to 20)
#    0.000    2.500    1.250    4.125    0.000    1.000 
#    0.000    3.750    0.000    6.750    0.000    0.875 
#    0.000    0.000    0.000    0.000    0.000    0.000 
#
# Total GULP energy -178414.722004 kJ/mol
# GULP energy per Si atom -5575.460063 kJ/mol
# Density = 1.786430 g / cm^3
# Si number density = 17.905049 Si / 1000 Ang^3
#
#
#
# Elastic Constant Matrix: (Units=GPa)
#
#
# Indices 1 2 3 4 5 6 
#
# 1 34.8948 14.6868 15.8814 0.0000 0.9011 0.0000
# 2 14.6868 110.0571 31.5634 0.0000 1.3222 0.0000
# 3 15.8814 31.5634 83.6141 0.0000 -4.4717 0.0000
# 4 0.0000 0.0000 0.0000 13.1049 0.0000 -6.3341
# 5 0.9011 1.3222 -4.4717 0.0000 22.3045 0.0000
# 6 0.0000 0.0000 0.0000 -6.3341 0.0000 17.4064
#
#
#
# Elastic Compliance Matrix: (Units=1/GPa)
#
#
# Indices 1 2 3 4 5 6 
#
# 1 0.032249 -0.002789 -0.005189 0.000000 -0.002178 0.000000
# 2 -0.002789 0.010473 -0.003488 0.000000 -0.001208 0.000000
# 3 -0.005189 -0.003488 0.014439 0.000000 0.003311 0.000000
# 4 0.000000 0.000000 0.000000 0.092593 0.000000 0.033694
# 5 -0.002178 -0.001208 0.003311 0.000000 0.045657 0.000000
# 6 0.000000 0.000000 0.000000 0.033694 0.000000 0.069711
#
#
# Mechanical properties :
#
#
# Convention : Reuss Voigt Hill
#
# Bulk Modulus (GPa) = 29.21516 39.20324 34.20920
# Shear Modulus (GPa) = 16.69639 21.65879 19.17759
#
# Velocity S-wave (km/s) = 3.05699 3.48177 3.27627
# Velocity P-wave (km/s) = 5.36772 6.17303 5.78440
#
# Compressibility (1/GPa) = 0.03422880
#
# Stress axis : x y z
#
# Youngs Moduli (GPa) = 31.00834 95.48040 69.25600
#
# Poissons Ratio (x) = 0.26632 0.35936
# Poissons Ratio (y) = 0.08649 0.24159
# Poissons Ratio (z) = 0.16090 0.33307
#
# Static dielectric constant tensor:
#      x y z
#    x 1.697200 0.000000 0.005540 
#    y 0.000000 1.618410 0.000000 
#    z 0.005540 0.000000 1.622220 
# 
# From -- ./inp_files/233509.got.cif
#   From: 2010.05.17/outbox.cif.g08.bks.cpg/sg15_117_cif.got.tgz:233509.got - 2010.06.03 18:47:42.
