data_PCOD9257727
_publ_section_title
;
Structure prediction by ZEFSAII (Michael W. Deem and Ramdas Pophale) SiO2 
 PCOD9257727
Probable space group: C 2/C
;
_chemical_formula_sum "Si O2"
_cell_formula_units_Z 48
_cell_length_a 11.871461
_cell_length_b 19.335432
_cell_length_c 16.150471
_cell_angle_alpha 90.000000
_cell_angle_beta 148.810838
_cell_angle_gamma 90.000000
_cell_volume 1919.817607
_symmetry_space_group_name_H-M "C 2/C"
_symmetry_group_IT_number 15
_symmetry_cell_setting 'monoclinic'
loop_
_space_group_symop_operation_xyz
x,y,z
-x,y,1/2-z
-x,-y,-z
x,-y,1/2+z
1/2+x,1/2+y,z
1/2-x,1/2+y,1/2-z
1/2-x,1/2-y,-z
1/2+x,1/2-y,1/2+z
loop_
_atom_site_type_symbol
_atom_site_label
_atom_site_fract_x
_atom_site_fract_y
_atom_site_fract_z
Si Si1 0.078014 0.383015 0.481424
Si Si2 0.500000 0.820105 0.250000
Si Si3 0.686016 0.524307 0.703643
Si Si4 0.392183 0.872389 0.819313
Si Si5 0.144431 0.824707 0.422074
Si Si6 0.500000 0.477881 0.750000
Si Si7 0.056014 0.155356 0.535122
O O1 0.085782 0.343404 0.573235
O O2 0.294713 0.427941 0.615552
O O3 0.044098 0.350608 0.370114
O O4 0.878664 0.434089 0.368021
O O5 0.755409 0.801594 0.391619
O O6 0.798201 0.450579 0.756115
O O7 0.513379 0.516852 0.670121
O O8 0.617740 0.571632 0.580766
O O9 0.186353 0.832258 0.651411
O O10 0.634478 0.870570 0.934128
O O11 0.250000 0.750000 0.500000
O O12 0.000000 0.832987 0.250000
O O13 0.970724 0.830549 0.385703
#
# Coordination Sequence:
#
# PCOD9257727 Si02
#       7
#     8   4   8   8   8   4   8
#     4  10  21  34  55  83 128 176 218 277 333 416
#     4  10  20  40  58  93 132 177 228 266 352 406
#     4  10  22  35  57  95 133 183 222 282 348 417
#     4  11  22  42  63 101 135 182 236 288 358 415
#     4  12  27  49  76 103 138 183 243 300 352 414
#     4  10  18  32  52  79 128 169 222 266 338 406
#     4  11  24  40  68  97 140 186 228 294 345 424
#
# _framework density 25.002376000000002
#
# number of rings (size 3 to 8) (size 9 to 14) (size 15 to 20)
#    0.000    1.333    0.000    8.000    5.833    1.333 
#    6.000    0.000    0.000   13.000    0.000    0.000 
#    0.000    0.000    0.000    0.000    0.000    0.000 
#
# Total GULP energy -133798.629842 kJ/mol
# GULP energy per Si atom -5574.942910 kJ/mol
# Density = 2.494547 g / cm^3
# Si number density = 25.002376 Si / 1000 Ang^3
#
#
#
# Elastic Constant Matrix: (Units=GPa)
#
#
# Indices 1 2 3 4 5 6 
#
# 1 89.4871 -6.5487 -1.8052 -0.0014 24.9914 -0.0006
# 2 -6.5487 40.8122 -7.6090 -0.0038 12.9705 -0.0011
# 3 -1.8052 -7.6090 133.4456 -0.0076 14.6882 -0.0020
# 4 -0.0014 -0.0038 -0.0076 23.2273 -0.0019 9.4364
# 5 24.9914 12.9705 14.6882 -0.0019 65.8103 -0.0005
# 6 -0.0006 -0.0011 -0.0020 9.4364 -0.0005 15.6021
#
#
#
# Elastic Compliance Matrix: (Units=1/GPa)
#
#
# Indices 1 2 3 4 5 6 
#
# 1 0.013213 0.004263 0.001093 0.000001 -0.006102 0.000000
# 2 0.004263 0.028108 0.002510 0.000005 -0.007719 -0.000001
# 3 0.001093 0.002510 0.007947 0.000003 -0.002684 -0.000001
# 4 0.000001 0.000005 0.000003 0.057077 -0.000001 -0.034521
# 5 -0.006102 -0.007719 -0.002684 -0.000001 0.019633 0.000000
# 6 0.000000 -0.000001 -0.000001 -0.034521 0.000000 0.084973
#
#
# Mechanical properties :
#
#
# Convention : Reuss Voigt Hill
#
# Bulk Modulus (GPa) = 15.38440 25.75766 20.57103
# Shear Modulus (GPa) = 23.05378 39.57513 31.31446
#
# Velocity S-wave (km/s) = 3.03984 3.98283 3.54285
# Velocity P-wave (km/s) = 4.29970 5.61026 4.99812
#
# Compressibility (1/GPa) = 0.06500091
#
# Stress axis : x y z
#
# Youngs Moduli (GPa) = 75.68331 35.57755 125.83392
#
# Poissons Ratio (x) = -0.15168 -0.13759
# Poissons Ratio (y) = -0.32266 -0.31584
# Poissons Ratio (z) = -0.08276 -0.08930
#
# Static dielectric constant tensor:
#      x y z
#    x 2.030670 -0.000010 0.014730 
#    y -0.000010 2.218860 -0.000010 
#    z 0.014730 -0.000010 2.003050 
# 
# From -- ./inp_files/200997.got.cif
#   From: 2010.05.17/outbox.cif.g08.bks.cpg/sg15_101_cif.got.tgz:200997.got - 2010.06.03 18:47:42.
