data_PCOD9257873
_publ_section_title
;
Structure prediction by ZEFSAII (Michael W. Deem and Ramdas Pophale) SiO2 
 PCOD9257873
Probable space group: C 2/C
;
_chemical_formula_sum "Si O2"
_cell_formula_units_Z 64
_cell_length_a 25.529721
_cell_length_b 8.240113
_cell_length_c 18.756658
_cell_angle_alpha 90.000000
_cell_angle_beta 56.798798
_cell_angle_gamma 90.000000
_cell_volume 3301.656468
_symmetry_space_group_name_H-M "C 2/C"
_symmetry_group_IT_number 15
_symmetry_cell_setting 'monoclinic'
loop_
_space_group_symop_operation_xyz
x,y,z
-x,y,1/2-z
-x,-y,-z
x,-y,1/2+z
1/2+x,1/2+y,z
1/2-x,1/2+y,1/2-z
1/2-x,1/2-y,-z
1/2+x,1/2-y,1/2+z
loop_
_atom_site_type_symbol
_atom_site_label
_atom_site_fract_x
_atom_site_fract_y
_atom_site_fract_z
Si Si1 0.724497 0.775389 0.343879
Si Si2 0.183153 0.003847 0.278773
Si Si3 0.928602 0.103242 0.891314
Si Si4 0.653484 0.298433 0.521033
Si Si5 0.838522 0.583405 0.327628
Si Si6 0.074911 0.852048 0.272670
Si Si7 0.210492 0.250448 0.135688
Si Si8 0.638934 0.067156 0.024440
O O1 0.682502 0.632803 0.342386
O O2 0.781930 0.693945 0.343057
O O3 0.685670 0.887445 0.426102
O O4 0.760894 0.874108 0.255000
O O5 0.203678 0.102545 0.193407
O O6 0.118584 0.922867 0.302469
O O7 0.891598 0.953081 0.954277
O O8 0.912795 0.088620 0.818092
O O9 0.908063 0.280141 0.935786
O O10 0.003469 0.104752 0.841329
O O11 0.717260 0.302316 0.427726
O O12 0.681103 0.296623 0.580971
O O13 0.620550 0.123013 0.531386
O O14 0.903144 0.664709 0.253652
O O15 0.829963 0.402140 0.307046
O O16 0.831516 0.574547 0.418327
#
# Coordination Sequence:
#
# PCOD9257873 Si02
#       8
#     8   8   8   8   8   8   8   8
#     4  11  21  34  54  81 113 151 183 234 296 344
#     4  11  21  36  55  81 120 148 186 234 291 353
#     4  10  19  37  59  82 116 156 192 238 285 330
#     4  10  19  32  57  89 114 146 184 238 289 340
#     4   9  19  33  57  83 111 146 184 239 289 337
#     4   9  20  37  54  83 116 152 193 233 282 347
#     4  10  18  32  54  88 115 140 185 238 291 341
#     4  10  20  35  56  84 115 145 194 235 283 340
#
# _framework density 19.384209999999999
#
# number of rings (size 3 to 8) (size 9 to 14) (size 15 to 20)
#    0.000    2.000    2.500    1.875    0.000    0.000 
#    2.250    1.875    0.000    0.750    0.000    0.000 
#    0.000    0.000    0.000    0.000    0.000    0.000 
#
# Total GULP energy -178326.482397 kJ/mol
# GULP energy per Si atom -5572.702575 kJ/mol
# Density = 1.934009 g / cm^3
# Si number density = 19.384210 Si / 1000 Ang^3
#
#
#
# Elastic Constant Matrix: (Units=GPa)
#
#
# Indices 1 2 3 4 5 6 
#
# 1 56.4492 30.2209 19.2204 0.0001 -9.2982 0.0003
# 2 30.2209 112.4556 31.8703 0.0000 -15.9188 0.0010
# 3 19.2204 31.8703 46.6020 -0.0002 -13.9554 -0.0001
# 4 0.0001 0.0000 -0.0002 19.6955 0.0000 4.5520
# 5 -9.2982 -15.9188 -13.9554 0.0000 24.0633 0.0000
# 6 0.0003 0.0010 -0.0001 4.5520 0.0000 18.0591
#
#
#
# Elastic Compliance Matrix: (Units=1/GPa)
#
#
# Indices 1 2 3 4 5 6 
#
# 1 0.022211 -0.003995 -0.005627 0.000000 0.002676 0.000000
# 2 -0.003995 0.012003 -0.005622 0.000000 0.003137 -0.000001
# 3 -0.005627 -0.005622 0.031294 0.000000 0.012255 0.000001
# 4 0.000000 0.000000 0.000000 0.053914 0.000000 -0.013590
# 5 0.002676 0.003137 0.012255 0.000000 0.051773 0.000000
# 6 0.000000 -0.000001 0.000001 -0.013590 0.000000 0.058799
#
#
# Mechanical properties :
#
#
# Convention : Reuss Voigt Hill
#
# Bulk Modulus (GPa) = 28.55532 42.01445 35.28488
# Shear Modulus (GPa) = 18.37188 21.30993 19.84091
#
# Velocity S-wave (km/s) = 3.08194 3.31923 3.20278
# Velocity P-wave (km/s) = 5.23714 6.03418 5.64974
#
# Compressibility (1/GPa) = 0.03501974
#
# Stress axis : x y z
#
# Youngs Moduli (GPa) = 45.02342 83.31034 31.95541
#
# Poissons Ratio (x) = 0.33285 0.17981
# Poissons Ratio (y) = 0.17988 0.17965
# Poissons Ratio (z) = 0.25334 0.46835
#
# Static dielectric constant tensor:
#      x y z
#    x 1.671350 0.000000 0.023800 
#    y 0.000000 1.722610 0.000000 
#    z 0.023800 0.000000 1.685370 
# 
# From -- ./inp_files/256987.got.cif
#   From: 2010.05.17/outbox.cif.g08.bks.cpg/sg15_129_cif.got.tgz:256987.got - 2010.06.03 18:47:42.
