data_PCOD9257296
_publ_section_title
;
Structure prediction by ZEFSAII (Michael W. Deem and Ramdas Pophale) SiO2 
 PCOD9257296
Probable space group: C 2/C
;
_chemical_formula_sum "Si O2"
_cell_formula_units_Z 56
_cell_length_a 16.652640
_cell_length_b 11.118095
_cell_length_c 20.723527
_cell_angle_alpha 90.000000
_cell_angle_beta 141.852382
_cell_angle_gamma 90.000000
_cell_volume 2369.995320
_symmetry_space_group_name_H-M "C 2/C"
_symmetry_group_IT_number 15
_symmetry_cell_setting 'monoclinic'
loop_
_space_group_symop_operation_xyz
x,y,z
-x,y,1/2-z
-x,-y,-z
x,-y,1/2+z
1/2+x,1/2+y,z
1/2-x,1/2+y,1/2-z
1/2-x,1/2-y,-z
1/2+x,1/2-y,1/2+z
loop_
_atom_site_type_symbol
_atom_site_label
_atom_site_fract_x
_atom_site_fract_y
_atom_site_fract_z
Si Si1 0.562813 0.173749 0.174034
Si Si2 0.470740 0.814624 0.470570
Si Si3 0.834672 0.888169 0.826655
Si Si4 0.325639 0.413495 0.210555
Si Si5 0.425043 0.945987 0.093704
Si Si6 0.155543 0.894355 0.890296
Si Si7 0.898498 0.250256 0.254532
O O1 0.697821 0.105244 0.275784
O O2 0.578146 0.301748 0.217492
O O3 0.445815 0.086097 0.118220
O O4 0.545213 0.178442 0.085182
O O5 0.450439 0.671489 0.441118
O O6 0.324572 0.868875 0.387461
O O7 0.538872 0.893544 0.456313
O O8 0.818365 0.773929 0.767349
O O9 0.843731 0.001804 0.785287
O O10 0.350683 0.489639 0.160883
O O11 0.531022 0.875058 0.201592
O O12 0.276763 0.911835 0.012565
O O13 0.020573 0.846315 0.834321
O O14 0.184807 0.786493 0.858679
#
# Coordination Sequence:
#
# PCOD9257296 Si02
#       7
#     8   8   8   8   8   8   8
#     4  11  20  31  55  84 120 150 183 236 287 345
#     4  10  18  31  50  81 114 152 185 232 290 331
#     4   9  19  33  51  79 113 148 190 233 278 337
#     4  10  19  33  52  79 118 153 190 227 286 337
#     4  11  19  33  58  86 114 144 193 234 288 341
#     4  10  19  36  59  79 112 152 188 231 284 328
#     4   9  20  34  57  84 106 146 193 234 272 336
#
# _framework density 23.628737999999998
#
# number of rings (size 3 to 8) (size 9 to 14) (size 15 to 20)
#    0.000    2.000    2.857    2.571    0.000    0.571 
#    0.000    0.000    6.286   14.571    0.000    0.000 
#    0.000    0.000    0.000    0.000    0.000    0.000 
#
# Total GULP energy -156042.967577 kJ/mol
# GULP energy per Si atom -5572.963128 kJ/mol
# Density = 2.357496 g / cm^3
# Si number density = 23.628738 Si / 1000 Ang^3
#
#
#
# Elastic Constant Matrix: (Units=GPa)
#
#
# Indices 1 2 3 4 5 6 
#
# 1 36.4536 9.8902 -0.7864 0.0000 5.3961 0.0000
# 2 9.8902 130.2839 52.6931 0.0000 0.5848 0.0000
# 3 -0.7864 52.6931 61.1716 0.0000 11.1286 0.0000
# 4 0.0000 0.0000 0.0000 37.4984 0.0000 0.2450
# 5 5.3961 0.5848 11.1286 0.0000 26.2668 0.0000
# 6 0.0000 0.0000 0.0000 0.2450 0.0000 24.0288
#
#
#
# Elastic Compliance Matrix: (Units=1/GPa)
#
#
# Indices 1 2 3 4 5 6 
#
# 1 0.030099 -0.004659 0.005966 0.000000 -0.008608 0.000000
# 2 -0.004659 0.012983 -0.012315 0.000000 0.005885 0.000000
# 3 0.005966 -0.012315 0.029477 0.000000 -0.013440 0.000000
# 4 0.000000 0.000000 0.000000 0.026670 0.000000 -0.000272
# 5 -0.008608 0.005885 -0.013440 0.000000 0.045402 0.000000
# 6 0.000000 0.000000 0.000000 -0.000272 0.000000 0.041619
#
#
# Mechanical properties :
#
#
# Convention : Reuss Voigt Hill
#
# Bulk Modulus (GPa) = 19.78451 39.05589 29.42020
# Shear Modulus (GPa) = 22.21096 28.63295 25.42196
#
# Velocity S-wave (km/s) = 3.06926 3.48485 3.28364
# Velocity P-wave (km/s) = 4.57731 5.72338 5.18212
#
# Compressibility (1/GPa) = 0.05054460
#
# Stress axis : x y z
#
# Youngs Moduli (GPa) = 33.22360 77.02136 33.92479
#
# Poissons Ratio (x) = 0.35887 -0.20241
# Poissons Ratio (y) = 0.15480 0.41777
# Poissons Ratio (z) = -0.19823 0.94848
#
# Static dielectric constant tensor:
#      x y z
#    x 1.941990 0.000000 -0.019720 
#    y 0.000000 1.957620 0.000000 
#    z -0.019720 0.000000 1.905340 
# 
# From -- ./inp_files/280005.got.cif
#   From: 2010.05.17/outbox.cif.g08.bks.cpg/sg15_141_cif.got.tgz:280005.got - 2010.06.03 18:47:42.
