data_PCOD9257195
_publ_section_title
;
Structure prediction by ZEFSAII (Michael W. Deem and Ramdas Pophale) SiO2 
 PCOD9257195
Probable space group: C 2/C
;
_chemical_formula_sum "Si O2"
_cell_formula_units_Z 60
_cell_length_a 13.391809
_cell_length_b 8.122882
_cell_length_c 23.572535
_cell_angle_alpha 90.000000
_cell_angle_beta 96.310861
_cell_angle_gamma 90.000000
_cell_volume 2548.683506
_symmetry_space_group_name_H-M "C 2/C"
_symmetry_group_IT_number 15
_symmetry_cell_setting 'monoclinic'
loop_
_space_group_symop_operation_xyz
x,y,z
-x,y,1/2-z
-x,-y,-z
x,-y,1/2+z
1/2+x,1/2+y,z
1/2-x,1/2+y,1/2-z
1/2-x,1/2-y,-z
1/2+x,1/2-y,1/2+z
loop_
_atom_site_type_symbol
_atom_site_label
_atom_site_fract_x
_atom_site_fract_y
_atom_site_fract_z
Si Si1 0.095488 0.271064 0.872785
Si Si2 0.005592 0.571751 0.935875
Si Si3 0.697151 0.061182 0.113729
Si Si4 0.199213 0.126662 0.168081
Si Si5 0.156184 0.859370 0.970616
Si Si6 0.309909 0.950220 0.267990
Si Si7 0.500000 0.832160 0.750000
Si Si8 0.923180 0.095429 0.915773
O O1 0.212579 0.295876 0.865784
O O2 0.042821 0.239884 0.807921
O O3 0.063832 0.447177 0.897789
O O4 0.037935 0.147304 0.911841
O O5 0.891783 0.568743 0.905822
O O6 0.069083 0.738234 0.942850
O O7 0.000000 0.500000 0.000000
O O8 0.737286 0.034879 0.179246
O O9 0.786848 0.045375 0.075201
O O10 0.641344 0.238382 0.103524
O O11 0.246246 0.976946 0.207719
O O12 0.110461 0.050792 0.126626
O O13 0.172005 0.264207 0.212449
O O14 0.250000 0.750000 0.000000
O O15 0.109580 0.946973 0.022505
O O16 0.411194 0.051045 0.265276
#
# Coordination Sequence:
#
# PCOD9257195 Si02
#       8
#     8   8   8   8   8   8   4   8
#     4  10  20  36  63  89 126 162 214 264 319 374
#     4  11  17  31  59  94 118 165 215 263 306 380
#     4  10  20  36  61  89 128 158 216 269 315 379
#     4  11  25  39  67  88 128 167 215 263 338 389
#     4  10  18  30  59  94 125 157 215 262 312 378
#     4  11  23  45  59  93 118 167 210 268 323 392
#     4  10  20  40  62  84 120 162 204 274 314 366
#     4  10  19  37  61  95 123 164 211 264 313 391
#
# _framework density 23.541564999999999
#
# number of rings (size 3 to 8) (size 9 to 14) (size 15 to 20)
#    0.000    1.600    6.667    2.400    1.867    1.067 
#    2.400    0.667    0.000    1.600    0.000    0.000 
#    0.000    0.000    0.000    0.000    0.000    0.000 
#
# Total GULP energy -167735.898524 kJ/mol
# GULP energy per Si atom -5591.196617 kJ/mol
# Density = 2.348798 g / cm^3
# Si number density = 23.541565 Si / 1000 Ang^3
#
#
#
# Elastic Constant Matrix: (Units=GPa)
#
#
# Indices 1 2 3 4 5 6 
#
# 1 107.1675 29.4752 32.9090 0.0000 -7.4585 0.0000
# 2 29.4752 68.1296 27.6803 0.0000 0.1942 0.0000
# 3 32.9090 27.6803 111.0446 0.0000 -15.5567 0.0000
# 4 0.0000 0.0000 0.0000 33.1784 0.0000 11.3353
# 5 -7.4585 0.1942 -15.5567 0.0000 32.0897 0.0000
# 6 0.0000 0.0000 0.0000 11.3353 0.0000 37.4815
#
#
#
# Elastic Compliance Matrix: (Units=1/GPa)
#
#
# Indices 1 2 3 4 5 6 
#
# 1 0.011184 -0.003993 -0.002094 0.000000 0.001609 0.000000
# 2 -0.003993 0.017906 -0.003675 0.000000 -0.002818 0.000000
# 3 -0.002094 -0.003675 0.011240 0.000000 0.004985 0.000000
# 4 0.000000 0.000000 0.000000 0.033613 0.000000 -0.010165
# 5 0.001609 -0.002818 0.004985 0.000000 0.033970 0.000000
# 6 0.000000 0.000000 0.000000 -0.010165 0.000000 0.029754
#
#
# Mechanical properties :
#
#
# Convention : Reuss Voigt Hill
#
# Bulk Modulus (GPa) = 48.05888 51.83007 49.94447
# Shear Modulus (GPa) = 30.46412 33.63507 32.04959
#
# Velocity S-wave (km/s) = 3.60120 3.78398 3.69372
# Velocity P-wave (km/s) = 6.14413 6.41526 6.28116
#
# Compressibility (1/GPa) = 0.02080781
#
# Stress axis : x y z
#
# Youngs Moduli (GPa) = 89.41146 55.84600 88.96482
#
# Poissons Ratio (x) = 0.22297 0.18629
# Poissons Ratio (y) = 0.35698 0.32696
# Poissons Ratio (z) = 0.18723 0.20524
#
# Static dielectric constant tensor:
#      x y z
#    x 1.886950 0.000000 0.019290 
#    y 0.000000 1.955920 0.000000 
#    z 0.019290 0.000000 1.901250 
# 
# From -- ./inp_files/272718.got.cif
#   From: 2010.05.17/outbox.cif.g08.bks.cpg/sg15_137_cif.got.tgz:272718.got - 2010.06.03 18:47:42.
