data_PCOD9257954
_publ_section_title
;
Structure prediction by ZEFSAII (Michael W. Deem and Ramdas Pophale) SiO2 
 PCOD9257954
Probable space group: C 2/C
;
_chemical_formula_sum "Si O2"
_cell_formula_units_Z 64
_cell_length_a 20.812246
_cell_length_b 8.672928
_cell_length_c 18.169178
_cell_angle_alpha 90.000000
_cell_angle_beta 86.842470
_cell_angle_gamma 90.000000
_cell_volume 3274.614296
_symmetry_space_group_name_H-M "C 2/C"
_symmetry_group_IT_number 15
_symmetry_cell_setting 'monoclinic'
loop_
_space_group_symop_operation_xyz
x,y,z
-x,y,1/2-z
-x,-y,-z
x,-y,1/2+z
1/2+x,1/2+y,z
1/2-x,1/2+y,1/2-z
1/2-x,1/2-y,-z
1/2+x,1/2-y,1/2+z
loop_
_atom_site_type_symbol
_atom_site_label
_atom_site_fract_x
_atom_site_fract_y
_atom_site_fract_z
Si Si1 0.734177 0.880083 0.803094
Si Si2 0.914246 0.880782 0.965438
Si Si3 0.252156 0.275888 0.354330
Si Si4 0.010173 0.170301 0.586389
Si Si5 0.178303 0.648969 0.614275
Si Si6 0.185927 0.012324 0.411210
Si Si7 0.114979 0.805804 0.308548
Si Si8 0.880598 0.671011 0.353670
O O1 0.737248 0.836541 0.717026
O O2 0.789826 0.775779 0.834723
O O3 0.663312 0.827679 0.834851
O O4 0.742567 0.055772 0.824012
O O5 0.871732 0.745599 0.932037
O O6 0.947576 0.012560 0.913060
O O7 0.865118 0.964184 0.024737
O O8 0.973535 0.820350 0.011117
O O9 0.319388 0.259672 0.392192
O O10 0.197121 0.194531 0.404163
O O11 0.058436 0.308710 0.598903
O O12 0.953686 0.177611 0.649949
O O13 0.244062 0.568009 0.577884
O O14 0.138879 0.507941 0.653043
O O15 0.156742 0.952035 0.334526
O O16 0.106884 0.762957 0.223578
#
# Coordination Sequence:
#
# PCOD9257954 Si02
#       8
#     8   8   8   8   8   8   8   8
#     4  10  18  32  56  84 110 135 172 227 287 332
#     4  10  21  38  55  77 110 149 190 222 262 326
#     4  10  18  32  56  85 112 136 171 225 285 333
#     4  10  21  37  56  75 106 151 188 220 261 320
#     4  10  20  35  57  83 109 140 181 231 280 325
#     4   9  19  35  56  83 112 142 178 224 274 327
#     4   9  18  35  57  80 108 141 178 223 274 324
#     4  10  19  34  57  82 108 138 178 227 278 327
#
# _framework density 19.544286
#
# number of rings (size 3 to 8) (size 9 to 14) (size 15 to 20)
#    0.000    2.250    0.000    5.250    0.000    0.500 
#    0.000   13.125    0.000    4.500    0.000    0.000 
#    0.000    0.000    0.000    0.000    0.000    0.000 
#
# Total GULP energy -178181.825672 kJ/mol
# GULP energy per Si atom -5568.182052 kJ/mol
# Density = 1.949980 g / cm^3
# Si number density = 19.544286 Si / 1000 Ang^3
#
#
#
# Elastic Constant Matrix: (Units=GPa)
#
#
# Indices 1 2 3 4 5 6 
#
# 1 124.5587 62.1496 36.2250 0.0000 10.8753 0.0000
# 2 62.1496 107.2064 35.6141 0.0000 3.1904 0.0000
# 3 36.2250 35.6141 49.3052 0.0000 1.3668 0.0000
# 4 0.0000 0.0000 0.0000 21.2396 0.0000 -1.7728
# 5 10.8753 3.1904 1.3668 0.0000 29.5173 0.0000
# 6 0.0000 0.0000 0.0000 -1.7728 0.0000 24.3535
#
#
#
# Elastic Compliance Matrix: (Units=1/GPa)
#
#
# Indices 1 2 3 4 5 6 
#
# 1 0.012601 -0.005462 -0.005207 0.000000 -0.003811 0.000000
# 2 -0.005462 0.014665 -0.006600 0.000000 0.000733 0.000000
# 3 -0.005207 -0.006600 0.028839 0.000000 0.001297 0.000000
# 4 0.000000 0.000000 0.000000 0.047370 0.000000 0.003448
# 5 -0.003811 0.000733 0.001297 0.000000 0.035143 0.000000
# 6 0.000000 0.000000 0.000000 0.003448 0.000000 0.041313
#
#
# Mechanical properties :
#
#
# Convention : Reuss Voigt Hill
#
# Bulk Modulus (GPa) = 46.36818 61.00529 53.68674
# Shear Modulus (GPa) = 22.55736 24.82752 23.69244
#
# Velocity S-wave (km/s) = 3.40099 3.56802 3.48551
# Velocity P-wave (km/s) = 6.26087 6.94666 6.61266
#
# Compressibility (1/GPa) = 0.02156651
#
# Stress axis : x y z
#
# Youngs Moduli (GPa) = 79.36163 68.19053 34.67511
#
# Poissons Ratio (x) = 0.37243 0.18056
# Poissons Ratio (y) = 0.43344 0.22887
# Poissons Ratio (z) = 0.41324 0.45008
#
# Static dielectric constant tensor:
#      x y z
#    x 1.720830 0.000000 0.009680 
#    y 0.000000 1.698020 0.000000 
#    z 0.009680 0.000000 1.738200 
# 
# From -- ./inp_files/213898.got.cif
#   From: 2010.05.17/outbox.cif.g08.bks.cpg/sg15_107_cif.got.tgz:213898.got - 2010.06.03 18:47:42.
