data_PCOD9257309
_publ_section_title
;
Structure prediction by ZEFSAII (Michael W. Deem and Ramdas Pophale) SiO2 
 PCOD9257309
Probable space group: C 2/C
;
_chemical_formula_sum "Si O2"
_cell_formula_units_Z 56
_cell_length_a 21.906323
_cell_length_b 17.895899
_cell_length_c 21.150702
_cell_angle_alpha 90.000000
_cell_angle_beta 22.045996
_cell_angle_gamma 90.000000
_cell_volume 3112.326408
_symmetry_space_group_name_H-M "C 2/C"
_symmetry_group_IT_number 15
_symmetry_cell_setting 'monoclinic'
loop_
_space_group_symop_operation_xyz
x,y,z
-x,y,1/2-z
-x,-y,-z
x,-y,1/2+z
1/2+x,1/2+y,z
1/2-x,1/2+y,1/2-z
1/2-x,1/2-y,-z
1/2+x,1/2-y,1/2+z
loop_
_atom_site_type_symbol
_atom_site_label
_atom_site_fract_x
_atom_site_fract_y
_atom_site_fract_z
Si Si1 0.617239 0.164138 0.746282
Si Si2 0.541871 0.009838 0.637819
Si Si3 0.962103 0.188086 0.358882
Si Si4 0.578214 0.523976 0.244642
Si Si5 0.488207 0.438092 0.455112
Si Si6 0.866477 0.567708 0.190987
Si Si7 0.676005 0.097996 0.824349
O O1 0.507640 0.096027 0.826912
O O2 0.772388 0.173075 0.551889
O O3 0.520058 0.241110 0.842670
O O4 0.681348 0.140543 0.753227
O O5 0.500000 0.991294 0.750000
O O6 0.732688 0.002684 0.440196
O O7 0.437163 0.960358 0.689971
O O8 0.000000 0.206826 0.250000
O O9 0.056842 0.111460 0.282111
O O10 0.500000 0.514006 0.250000
O O11 0.491680 0.478672 0.383747
O O12 0.500000 0.500000 0.500000
O O13 0.313794 0.398577 0.630459
O O14 0.654522 0.391632 0.302042
O O15 0.839889 0.490804 0.176572
O O16 0.008775 0.614945 0.021514
#
# Coordination Sequence:
#
# PCOD9257309 Si02
#       7
#     8   8   8   8   8   8   8
#     4  11  22  35  49  70  96 134 181 217 256 296
#     4  11  19  31  49  71 101 134 170 210 251 307
#     4  11  21  35  48  68  98 137 179 219 251 292
#     4  11  21  33  50  75 104 140 177 211 255 304
#     4  10  18  31  51  74  98 130 172 210 259 309
#     4   9  17  30  48  70  95 124 164 203 254 306
#     4   9  18  33  48  71  94 126 169 211 257 304
#
# _framework density 17.992971000000001
#
# number of rings (size 3 to 8) (size 9 to 14) (size 15 to 20)
#    0.000    1.714    1.429    6.857    2.000    0.000 
#    2.571    0.000    0.000    0.000    0.000    0.000 
#    0.000    0.000    0.000   11.571    0.857    0.286 
#
# Total GULP energy -156239.390232 kJ/mol
# GULP energy per Si atom -5579.978223 kJ/mol
# Density = 1.795202 g / cm^3
# Si number density = 17.992971 Si / 1000 Ang^3
#
#
#
# Elastic Constant Matrix: (Units=GPa)
#
#
# Indices 1 2 3 4 5 6 
#
# 1 59.1732 5.6395 42.4831 -0.0007 0.5358 -0.0032
# 2 5.6395 9.9887 8.4853 -0.0121 1.1662 -0.0010
# 3 42.4831 8.4853 137.7388 -0.0104 -9.6419 -0.0079
# 4 -0.0007 -0.0121 -0.0104 2.6834 0.0008 -9.7870
# 5 0.5358 1.1662 -9.6419 0.0008 31.4262 0.0020
# 6 -0.0032 -0.0010 -0.0079 -9.7870 0.0020 -4.4132
#
#
#
# Elastic Compliance Matrix: (Units=1/GPa)
#
#
# Indices 1 2 3 4 5 6 
#
# 1 0.022312 -0.006722 -0.006619 -0.000007 -0.002162 0.000012
# 2 -0.006722 0.108803 -0.005012 0.000046 -0.005461 -0.000117
# 3 -0.006619 -0.005012 0.009843 -0.000003 0.003319 -0.000004
# 4 -0.000007 0.000046 -0.000003 0.041005 0.000002 -0.090934
# 5 -0.002162 -0.005461 0.003319 0.000002 0.033078 0.000007
# 6 0.000012 -0.000117 -0.000004 -0.090934 0.000007 -0.024932
#
#
# Mechanical properties :
#
#
# Convention : Reuss Voigt Hill
#
# Bulk Modulus (GPa) = 9.59210 35.56850 22.58030
# Shear Modulus (GPa) = 19.11579 15.95880 17.53729
#
# Velocity S-wave (km/s) = 3.26299 2.98140 3.12536
# Velocity P-wave (km/s) = 4.42026 5.62695 5.05971
#
# Compressibility (1/GPa) = 0.10425243
#
# Stress axis : x y z
#
# Youngs Moduli (GPa) = 44.81950 9.19093 101.59863
#
# Poissons Ratio (x) = 0.06178 0.67247
# Poissons Ratio (y) = 0.30127 0.50919
# Poissons Ratio (z) = 0.29666 0.04606
#
# Static dielectric constant tensor:
#      x y z
#    x 1.619220 0.000000 -0.016050 
#    y 0.000000 1.574870 0.000010 
#    z -0.016050 0.000010 1.653540 
# 
# From -- ./inp_files/253319.got.cif
#   From: 2010.05.17/outbox.cif.g08.bks.cpg/sg15_127_cif.got.tgz:253319.got - 2010.06.03 18:47:42.
