data_PCOD9257358
_publ_section_title
;
Structure prediction by ZEFSAII (Michael W. Deem and Ramdas Pophale) SiO2 
 PCOD9257358
Probable space group: C 2/C
;
_chemical_formula_sum "Si O2"
_cell_formula_units_Z 56
_cell_length_a 26.411657
_cell_length_b 22.767244
_cell_length_c 12.360477
_cell_angle_alpha 90.000000
_cell_angle_beta 26.902845
_cell_angle_gamma 90.000000
_cell_volume 3363.099840
_symmetry_space_group_name_H-M "C 2/C"
_symmetry_group_IT_number 15
_symmetry_cell_setting 'monoclinic'
loop_
_space_group_symop_operation_xyz
x,y,z
-x,y,1/2-z
-x,-y,-z
x,-y,1/2+z
1/2+x,1/2+y,z
1/2-x,1/2+y,1/2-z
1/2-x,1/2-y,-z
1/2+x,1/2-y,1/2+z
loop_
_atom_site_type_symbol
_atom_site_label
_atom_site_fract_x
_atom_site_fract_y
_atom_site_fract_z
Si Si1 0.721550 0.154301 0.014729
Si Si2 0.429541 0.734414 0.662741
Si Si3 0.560583 0.945091 0.518201
Si Si4 0.648500 0.256728 0.603199
Si Si5 0.000000 0.665214 0.750000
Si Si6 0.799489 0.342814 0.189662
Si Si7 0.599368 0.924286 0.883873
Si Si8 0.000000 0.255082 0.750000
O O1 0.618072 0.198890 0.237639
O O2 0.712644 0.103070 0.119011
O O3 0.830286 0.194209 0.811802
O O4 0.715671 0.133796 0.902839
O O5 0.538308 0.729579 0.382671
O O6 0.455384 0.717677 0.736422
O O7 0.658049 0.897132 0.321625
O O8 0.477112 0.932591 0.577766
O O9 0.604200 0.011611 0.427561
O O10 0.500000 0.936535 0.750000
O O11 0.750000 0.250000 0.500000
O O12 0.599364 0.204812 0.616920
O O13 0.694954 0.308056 0.437319
O O14 0.049216 0.622435 0.563837
O O15 0.901292 0.295982 0.985216
#
# Coordination Sequence:
#
# PCOD9257358 Si02
#       8
#     8   8   8   8   4   8   8   4
#     4  10  20  35  55  79 112 154 188 234 289 353
#     4  10  20  34  52  81 117 152 190 226 292 358
#     4  11  20  38  57  84 116 153 205 242 305 357
#     4  12  23  36  55  88 126 161 192 250 297 363
#     4  12  24  37  54  96 129 150 200 250 312 356
#     4  11  20  34  55  77 113 158 187 232 282 356
#     4  11  22  35  59  84 118 155 189 261 299 350
#     4  10  18  31  52  76 109 152 184 226 274 348
#
# _framework density 16.651304
#
# number of rings (size 3 to 8) (size 9 to 14) (size 15 to 20)
#    0.000    1.143    5.714    2.571    4.000    0.000 
#    0.000    0.000    0.000    0.857    0.000    5.000 
#    0.000    0.000    0.000    0.000    0.000    0.000 
#
# Total GULP energy -156005.374135 kJ/mol
# GULP energy per Si atom -5571.620505 kJ/mol
# Density = 1.661340 g / cm^3
# Si number density = 16.651304 Si / 1000 Ang^3
#
#
#
# Elastic Constant Matrix: (Units=GPa)
#
#
# Indices 1 2 3 4 5 6 
#
# 1 54.1978 9.5097 18.9514 0.0000 10.7384 0.0000
# 2 9.5097 65.2014 36.9277 0.0000 6.9750 0.0000
# 3 18.9514 36.9277 109.5006 0.0000 3.5143 0.0000
# 4 0.0000 0.0000 0.0000 23.7341 0.0000 5.0101
# 5 10.7384 6.9750 3.5143 0.0000 19.9931 0.0000
# 6 0.0000 0.0000 0.0000 5.0101 0.0000 25.2263
#
#
#
# Elastic Compliance Matrix: (Units=1/GPa)
#
#
# Indices 1 2 3 4 5 6 
#
# 1 0.021855 -0.000072 -0.003401 0.000000 -0.011116 0.000000
# 2 -0.000072 0.019584 -0.006410 0.000000 -0.005667 0.000000
# 3 -0.003401 -0.006410 0.011819 0.000000 0.001986 0.000000
# 4 0.000000 0.000000 0.000000 0.043977 0.000000 -0.008734
# 5 -0.011116 -0.005667 0.001986 0.000000 0.057615 0.000000
# 6 0.000000 0.000000 0.000000 -0.008734 0.000000 0.041376
#
#
# Mechanical properties :
#
#
# Convention : Reuss Voigt Hill
#
# Bulk Modulus (GPa) = 29.85854 39.96416 34.91135
# Shear Modulus (GPa) = 22.01106 24.69143 23.35124
#
# Velocity S-wave (km/s) = 3.63971 3.85496 3.74888
# Velocity P-wave (km/s) = 5.96942 6.62322 6.30480
#
# Compressibility (1/GPa) = 0.03349126
#
# Stress axis : x y z
#
# Youngs Moduli (GPa) = 45.75536 51.06121 84.60877
#
# Poissons Ratio (x) = 0.00368 0.28780
# Poissons Ratio (y) = 0.00330 0.54236
# Poissons Ratio (z) = 0.15564 0.32731
#
# Static dielectric constant tensor:
#      x y z
#    x 1.625740 0.000000 0.001070 
#    y 0.000000 1.569950 0.000000 
#    z 0.001070 0.000000 1.554920 
# 
# From -- ./inp_files/124154.got.cif
#   From: 2010.05.17/outbox.cif.g08.bks.cpg/sg15_63_cif.got.tgz:124154.got - 2010.06.03 18:47:42.
