data_PCOD9257582
_publ_section_title
;
Structure prediction by ZEFSAII (Michael W. Deem and Ramdas Pophale) SiO2 
 PCOD9257582
Probable space group: C 2/C
;
_chemical_formula_sum "Si O2"
_cell_formula_units_Z 52
_cell_length_a 22.703141
_cell_length_b 9.187301
_cell_length_c 20.290254
_cell_angle_alpha 90.000000
_cell_angle_beta 37.362588
_cell_angle_gamma 90.000000
_cell_volume 2568.311711
_symmetry_space_group_name_H-M "C 2/C"
_symmetry_group_IT_number 15
_symmetry_cell_setting 'monoclinic'
loop_
_space_group_symop_operation_xyz
x,y,z
-x,y,1/2-z
-x,-y,-z
x,-y,1/2+z
1/2+x,1/2+y,z
1/2-x,1/2+y,1/2-z
1/2-x,1/2-y,-z
1/2+x,1/2-y,1/2+z
loop_
_atom_site_type_symbol
_atom_site_label
_atom_site_fract_x
_atom_site_fract_y
_atom_site_fract_z
Si Si1 0.659339 0.682022 0.181701
Si Si2 0.122260 0.348660 0.873936
Si Si3 0.718640 0.861686 0.259402
Si Si4 0.000000 0.628912 0.750000
Si Si5 0.378483 0.856664 0.472181
Si Si6 0.436981 0.709551 0.021480
Si Si7 0.489869 0.568717 0.405110
O O1 0.685331 0.783439 0.221708
O O2 0.590984 0.776656 0.195517
O O3 0.587006 0.558107 0.274200
O O4 0.763284 0.634677 0.060624
O O5 0.171582 0.189082 0.829284
O O6 0.192716 0.469423 0.780690
O O7 0.019162 0.328489 0.932348
O O8 0.110190 0.394128 0.960867
O O9 0.660453 0.790412 0.371796
O O10 0.949272 0.557753 0.859242
O O11 0.418790 0.689090 0.436104
O O12 0.437111 0.581730 0.968237
O O13 0.473070 0.637245 0.058635
#
# Coordination Sequence:
#
# PCOD9257582 Si02
#       7
#     8   8   8   4   8   8   8
#     4   9  18  30  50  73 108 132 182 219 265 306
#     4  10  21  32  51  81 113 140 170 214 266 324
#     4  10  21  32  51  81 113 140 170 214 266 324
#     4  10  18  32  46  76  98 148 172 234 264 292
#     4   9  18  30  50  73 108 132 182 219 265 306
#     4   9  17  29  48  65 108 138 172 197 252 310
#     4   8  16  28  46  73  95 142 166 208 256 312
#
# _framework density 20.246765
#
# number of rings (size 3 to 8) (size 9 to 14) (size 15 to 20)
#    0.000    2.769    0.000    1.846   12.923    0.000 
#    0.000    0.000    0.000    0.000    0.000   18.308 
#    0.000    0.000    0.000    0.000    0.000    0.000 
#
# Total GULP energy -144833.509209 kJ/mol
# GULP energy per Si atom -5570.519585 kJ/mol
# Density = 2.020068 g / cm^3
# Si number density = 20.246765 Si / 1000 Ang^3
#
#
#
# Elastic Constant Matrix: (Units=GPa)
#
#
# Indices 1 2 3 4 5 6 
#
# 1 29.5274 -3.5333 12.3216 -0.0002 -7.9700 0.0001
# 2 -3.5333 43.7949 26.8996 -0.0006 -6.6642 0.0004
# 3 12.3216 26.8996 122.7193 -0.0004 -13.3335 0.0003
# 4 -0.0002 -0.0006 -0.0004 28.8290 0.0002 -5.8986
# 5 -7.9700 -6.6642 -13.3335 0.0002 25.7092 -0.0001
# 6 0.0001 0.0004 0.0003 -5.8986 -0.0001 11.2221
#
#
#
# Elastic Compliance Matrix: (Units=1/GPa)
#
#
# Indices 1 2 3 4 5 6 
#
# 1 0.039894 0.007757 -0.004391 0.000000 0.012101 0.000000
# 2 0.007757 0.028302 -0.006278 0.000000 0.006485 -0.000001
# 3 -0.004391 -0.006278 0.010217 0.000000 0.002310 0.000000
# 4 0.000000 0.000000 0.000000 0.038867 0.000000 0.020430
# 5 0.012101 0.006485 0.002310 0.000000 0.045527 0.000000
# 6 0.000000 -0.000001 0.000000 0.020430 0.000000 0.099848
#
#
# Mechanical properties :
#
#
# Convention : Reuss Voigt Hill
#
# Bulk Modulus (GPa) = 13.77630 29.71305 21.74467
# Shear Modulus (GPa) = 17.08378 23.84231 20.46304
#
# Velocity S-wave (km/s) = 2.90794 3.43532 3.18257
# Velocity P-wave (km/s) = 4.25368 5.51748 4.92627
#
# Compressibility (1/GPa) = 0.07258843
#
# Stress axis : x y z
#
# Youngs Moduli (GPa) = 25.06668 35.33269 97.87933
#
# Poissons Ratio (x) = -0.27407 0.42980
# Poissons Ratio (y) = -0.19444 0.61449
# Poissons Ratio (z) = 0.11007 0.22182
#
# Static dielectric constant tensor:
#      x y z
#    x 1.726870 0.000000 0.007060 
#    y 0.000000 1.735390 0.000000 
#    z 0.007060 0.000000 1.807630 
# 
# From -- ./inp_files/176128.got.cif
#   From: 2010.05.17/outbox.cif.g08.bks.cpg/sg15_89_cif.got.tgz:176128.got - 2010.06.03 18:47:42.
