data_PCOD9257122
_publ_section_title
;
Structure prediction by ZEFSAII (Michael W. Deem and Ramdas Pophale) SiO2 
 PCOD9257122
Probable space group: C 2/C
;
_chemical_formula_sum "Si O2"
_cell_formula_units_Z 56
_cell_length_a 18.769304
_cell_length_b 16.565861
_cell_length_c 9.445817
_cell_angle_alpha 90.000000
_cell_angle_beta 134.066434
_cell_angle_gamma 90.000000
_cell_volume 2110.323092
_symmetry_space_group_name_H-M "C 2/C"
_symmetry_group_IT_number 15
_symmetry_cell_setting 'monoclinic'
loop_
_space_group_symop_operation_xyz
x,y,z
-x,y,1/2-z
-x,-y,-z
x,-y,1/2+z
1/2+x,1/2+y,z
1/2-x,1/2+y,1/2-z
1/2-x,1/2-y,-z
1/2+x,1/2-y,1/2+z
loop_
_atom_site_type_symbol
_atom_site_label
_atom_site_fract_x
_atom_site_fract_y
_atom_site_fract_z
Si Si1 0.811717 0.057239 0.228179
Si Si2 0.348230 0.081855 0.903352
Si Si3 0.000000 0.208349 0.250000
Si Si4 0.032089 0.187763 0.619107
Si Si5 0.326587 0.179588 0.147028
Si Si6 0.655598 0.843298 0.393534
Si Si7 0.500000 0.981379 0.250000
Si Si8 0.843234 0.935731 0.053342
O O1 0.891204 0.068657 0.463785
O O2 0.739465 0.983589 0.185915
O O3 0.842999 0.023450 0.119393
O O4 0.755461 0.140277 0.117238
O O5 0.325198 0.143216 0.745151
O O6 0.361820 0.139245 0.054168
O O7 0.451381 0.032969 0.056303
O O8 0.998428 0.168014 0.407038
O O9 0.096308 0.266456 0.363572
O O10 0.081076 0.276045 0.655565
O O11 0.110730 0.118440 0.761588
O O12 0.000000 0.198832 0.750000
O O13 0.250000 0.250000 0.000000
O O14 0.263489 0.106122 0.126228
O O15 0.587842 0.922616 0.324972
#
# Coordination Sequence:
#
# PCOD9257122 Si02
#       8
#     8   8   4   8   8   8   4   8
#     4  10  19  37  61  91 122 154 204 254 319 366
#     4  10  18  30  54  85 124 166 196 243 306 377
#     4  11  24  38  62  94 130 167 208 252 304 385
#     4  11  24  45  64  89 127 172 214 253 312 372
#     4   9  20  36  58  84 117 162 207 249 302 361
#     4  10  19  33  54  93 132 153 197 255 304 376
#     4   9  20  26  46  86 130 163 192 230 306 385
#     4  10  21  41  65  91 124 160 204 267 311 371
#
# _framework density 26.53622
#
# number of rings (size 3 to 8) (size 9 to 14) (size 15 to 20)
#    0.000    2.000    1.429    2.143    3.000    0.000 
#    2.571    0.714    0.000    7.714    0.000    0.000 
#    0.000    0.000    0.000    0.000    0.000    0.000 
#
# Total GULP energy -155905.370780 kJ/mol
# GULP energy per Si atom -5568.048956 kJ/mol
# Density = 2.647582 g / cm^3
# Si number density = 26.536220 Si / 1000 Ang^3
#
#
#
# Elastic Constant Matrix: (Units=GPa)
#
#
# Indices 1 2 3 4 5 6 
#
# 1 62.9834 5.6573 26.3865 0.0000 -22.7570 0.0000
# 2 5.6573 36.9800 7.2958 0.0000 2.0006 0.0000
# 3 26.3865 7.2958 143.8236 0.0000 -41.2854 0.0000
# 4 0.0000 0.0000 0.0000 27.3460 0.0000 -4.3572
# 5 -22.7570 2.0006 -41.2854 0.0000 36.2566 0.0000
# 6 0.0000 0.0000 0.0000 -4.3572 0.0000 29.2063
#
#
#
# Elastic Compliance Matrix: (Units=1/GPa)
#
#
# Indices 1 2 3 4 5 6 
#
# 1 0.021104 -0.004034 0.000296 0.000000 0.013806 0.000000
# 2 -0.004034 0.028608 -0.002809 0.000000 -0.007310 0.000000
# 3 0.000296 -0.002809 0.010606 0.000000 0.012417 0.000000
# 4 0.000000 0.000000 0.000000 0.037459 0.000000 0.005588
# 5 0.013806 -0.007310 0.012417 0.000000 0.050790 0.000000
# 6 0.000000 0.000000 0.000000 0.005588 0.000000 0.035073
#
#
# Mechanical properties :
#
#
# Convention : Reuss Voigt Hill
#
# Bulk Modulus (GPa) = 21.17606 35.82957 28.50282
# Shear Modulus (GPa) = 23.53216 32.19159 27.86188
#
# Velocity S-wave (km/s) = 2.98114 3.48676 3.24382
# Velocity P-wave (km/s) = 4.45499 5.45358 4.97938
#
# Compressibility (1/GPa) = 0.04722314
#
# Stress axis : x y z
#
# Youngs Moduli (GPa) = 47.38488 34.95471 94.28885
#
# Poissons Ratio (x) = 0.14100 -0.02789
# Poissons Ratio (y) = 0.19114 0.26490
# Poissons Ratio (z) = -0.01402 0.09820
#
# Static dielectric constant tensor:
#      x y z
#    x 2.337030 0.000000 0.002160 
#    y 0.000000 2.017650 0.000000 
#    z 0.002160 0.000000 2.129220 
# 
# From -- ./inp_files/62812.got.cif
#   From: 2010.05.17/outbox.cif.g08.bks.cpg/sg15_32_cif.got.tgz:62812.got - 2010.06.03 18:47:42.
