data_PCOD9257926
_publ_section_title
;
Structure prediction by ZEFSAII (Michael W. Deem and Ramdas Pophale) SiO2 
 PCOD9257926
Probable space group: C 2/C
;
_chemical_formula_sum "Si O2"
_cell_formula_units_Z 60
_cell_length_a 20.345285
_cell_length_b 8.441071
_cell_length_c 25.365642
_cell_angle_alpha 90.000000
_cell_angle_beta 43.816643
_cell_angle_gamma 90.000000
_cell_volume 3016.022948
_symmetry_space_group_name_H-M "C 2/C"
_symmetry_group_IT_number 15
_symmetry_cell_setting 'monoclinic'
loop_
_space_group_symop_operation_xyz
x,y,z
-x,y,1/2-z
-x,-y,-z
x,-y,1/2+z
1/2+x,1/2+y,z
1/2-x,1/2+y,1/2-z
1/2-x,1/2-y,-z
1/2+x,1/2-y,1/2+z
loop_
_atom_site_type_symbol
_atom_site_label
_atom_site_fract_x
_atom_site_fract_y
_atom_site_fract_z
Si Si1 0.213017 0.113950 0.099014
Si Si2 0.677857 0.953482 0.859117
Si Si3 0.483587 0.507267 0.140927
Si Si4 0.841718 0.928806 0.584688
Si Si5 0.967354 0.785691 0.051983
Si Si6 0.300969 0.558416 0.506493
Si Si7 0.694062 0.714326 0.292481
Si Si8 0.500000 0.459360 0.750000
O O1 0.269441 0.039968 0.115312
O O2 0.250982 0.286219 0.059178
O O3 0.229765 0.017067 0.034988
O O4 0.101412 0.125786 0.179572
O O5 0.572350 0.889193 0.926642
O O6 0.729524 0.812192 0.796843
O O7 0.686666 0.108948 0.818585
O O8 0.471531 0.360424 0.108164
O O9 0.402164 0.634832 0.174516
O O10 0.481590 0.459321 0.203651
O O11 0.585722 0.581626 0.067385
O O12 0.779841 0.888773 0.670842
O O13 0.928627 0.804833 0.532705
O O14 0.896182 0.096154 0.561647
O O15 0.790471 0.929905 0.558520
#
# Coordination Sequence:
#
# PCOD9257926 Si02
#       8
#     8   8   8   8   8   8   8   4
#     4  10  20  33  55  86 106 149 188 235 267 332
#     4  12  23  36  53  86 115 150 182 236 276 341
#     4   9  18  35  56  86 106 149 180 230 275 333
#     4   9  17  35  57  83 108 151 177 231 271 335
#     4   9  18  33  57  79 115 139 185 219 281 331
#     4   9  18  35  60  82 111 143 192 227 277 327
#     4  11  23  34  54  83 118 147 186 229 287 323
#     4  10  18  32  56  78 110 140 198 226 262 326
#
# _framework density 19.893747999999999
#
# number of rings (size 3 to 8) (size 9 to 14) (size 15 to 20)
#    0.000    2.133    2.667    2.400    0.000    0.533 
#    0.000    0.667    0.000    0.800    0.000    0.000 
#    0.000    0.000    0.000    0.000    0.000    0.000 
#
# Total GULP energy -167144.484940 kJ/mol
# GULP energy per Si atom -5571.482831 kJ/mol
# Density = 1.984847 g / cm^3
# Si number density = 19.893748 Si / 1000 Ang^3
#
#
#
# Elastic Constant Matrix: (Units=GPa)
#
#
# Indices 1 2 3 4 5 6 
#
# 1 112.9132 21.0875 46.2610 0.0000 36.8604 -0.0001
# 2 21.0875 37.1103 4.5794 0.0001 6.4294 -0.0003
# 3 46.2610 4.5794 76.0516 0.0000 24.9922 0.0001
# 4 0.0000 0.0001 0.0000 27.6915 0.0000 4.7475
# 5 36.8604 6.4294 24.9922 0.0000 38.3208 -0.0001
# 6 -0.0001 -0.0003 0.0001 4.7475 -0.0001 12.8291
#
#
#
# Elastic Compliance Matrix: (Units=1/GPa)
#
#
# Indices 1 2 3 4 5 6 
#
# 1 0.015836 -0.006487 -0.005847 0.000000 -0.010330 0.000000
# 2 -0.006487 0.030413 0.002216 0.000000 -0.000308 0.000001
# 3 -0.005847 0.002216 0.018896 0.000000 -0.007071 0.000000
# 4 0.000000 0.000000 0.000000 0.038558 0.000000 -0.014269
# 5 -0.010330 -0.000308 -0.007071 0.000000 0.040695 0.000000
# 6 0.000000 0.000001 0.000000 -0.014269 0.000000 0.083228
#
#
# Mechanical properties :
#
#
# Convention : Reuss Voigt Hill
#
# Bulk Modulus (GPa) = 22.26793 41.10342 31.68567
# Shear Modulus (GPa) = 19.02348 26.04478 22.53413
#
# Velocity S-wave (km/s) = 3.09569 3.62220 3.36925
# Velocity P-wave (km/s) = 4.89852 6.18063 5.57654
#
# Compressibility (1/GPa) = 0.04490763
#
# Stress axis : x y z
#
# Youngs Moduli (GPa) = 63.14744 32.88081 52.92115
#
# Poissons Ratio (x) = 0.21331 0.30945
# Poissons Ratio (y) = 0.40966 -0.11727
# Poissons Ratio (z) = 0.36924 -0.07286
#
# Static dielectric constant tensor:
#      x y z
#    x 1.753050 0.000000 0.016180 
#    y 0.000000 1.720020 0.000000 
#    z 0.016180 0.000000 1.724200 
# 
# From -- ./inp_files/300491.got.cif
#   From: 2010.05.17/outbox.cif.g08.bks.cpg/sg15_151_cif.got.tgz:300491.got - 2010.06.03 18:47:42.
