data_PCOD9257907
_publ_section_title
;
Structure prediction by ZEFSAII (Michael W. Deem and Ramdas Pophale) SiO2 
 PCOD9257907
Probable space group: C 2/C
;
_chemical_formula_sum "Si O2"
_cell_formula_units_Z 56
_cell_length_a 15.385268
_cell_length_b 13.358830
_cell_length_c 27.912179
_cell_angle_alpha 90.000000
_cell_angle_beta 154.472894
_cell_angle_gamma 90.000000
_cell_volume 2472.191304
_symmetry_space_group_name_H-M "C 2/C"
_symmetry_group_IT_number 15
_symmetry_cell_setting 'monoclinic'
loop_
_space_group_symop_operation_xyz
x,y,z
-x,y,1/2-z
-x,-y,-z
x,-y,1/2+z
1/2+x,1/2+y,z
1/2-x,1/2+y,1/2-z
1/2-x,1/2-y,-z
1/2+x,1/2-y,1/2+z
loop_
_atom_site_type_symbol
_atom_site_label
_atom_site_fract_x
_atom_site_fract_y
_atom_site_fract_z
Si Si1 0.424438 0.447327 0.260151
Si Si2 0.717602 0.549817 0.117151
Si Si3 0.639481 0.976059 0.410508
Si Si4 0.616540 0.216719 0.565318
Si Si5 0.617920 0.425656 0.671554
Si Si6 0.466456 0.783989 0.090651
Si Si7 0.685047 0.844049 0.999090
O O1 0.500000 0.503673 0.250000
O O2 0.278691 0.360846 0.167910
O O3 0.335054 0.519539 0.255636
O O4 0.612037 0.391949 0.378038
O O5 0.702460 0.670476 0.103170
O O6 0.740218 0.537663 0.185720
O O7 0.500000 0.500000 0.000000
O O8 0.852618 0.502761 0.141937
O O9 0.507022 0.885452 0.366216
O O10 0.878323 0.949165 0.541222
O O11 0.593380 0.074285 0.418546
O O12 0.453234 0.210276 0.526262
O O13 0.557092 0.184196 0.482411
O O14 0.626137 0.304832 0.679469
O O15 0.250000 0.750000 0.000000
O O16 0.750000 0.750000 0.000000
#
# Coordination Sequence:
#
# PCOD9257907 Si02
#       7
#     8   8   8   8   8   8   8
#     4   9  19  34  55  79 110 148 186 236 292 346
#     4   9  16  29  54  82 106 148 192 232 282 345
#     4   9  16  29  51  81 110 135 183 240 277 325
#     4  10  19  33  55  83 118 151 190 239 302 343
#     4   8  16  31  53  74 103 149 189 220 281 346
#     4   9  18  33  54  79 112 149 186 233 284 345
#     4  10  18  32  55  86 111 142 194 245 283 337
#
# _framework density 22.651969000000001
#
# number of rings (size 3 to 8) (size 9 to 14) (size 15 to 20)
#    0.000    2.857    1.429    0.857    0.000    0.571 
#    0.000    2.857    6.286    0.000    0.000    0.000 
#    0.000    0.000    0.000    0.000    0.000    0.000 
#
# Total GULP energy -156225.154921 kJ/mol
# GULP energy per Si atom -5579.469819 kJ/mol
# Density = 2.260041 g / cm^3
# Si number density = 22.651969 Si / 1000 Ang^3
#
#
#
# Elastic Constant Matrix: (Units=GPa)
#
#
# Indices 1 2 3 4 5 6 
#
# 1 241.9371 91.4160 41.9548 -0.0003 -43.9529 -0.0002
# 2 91.4160 153.7325 29.1238 -0.0003 -40.2038 -0.0003
# 3 41.9548 29.1238 65.8238 0.0022 -30.5967 0.0000
# 4 -0.0003 -0.0003 0.0022 21.8453 0.0002 -8.1145
# 5 -43.9529 -40.2038 -30.5967 0.0002 42.0442 -0.0002
# 6 -0.0002 -0.0003 0.0000 -8.1145 -0.0002 44.3335
#
#
#
# Elastic Compliance Matrix: (Units=1/GPa)
#
#
# Indices 1 2 3 4 5 6 
#
# 1 0.005796 -0.002485 -0.001334 0.000000 0.002713 0.000000
# 2 -0.002485 0.009739 0.000598 0.000000 0.007151 0.000000
# 3 -0.001334 0.000598 0.023265 -0.000003 0.016108 0.000000
# 4 0.000000 0.000000 -0.000003 0.049116 -0.000002 0.008990
# 5 0.002713 0.007151 0.016108 -0.000002 0.045180 0.000000
# 6 0.000000 0.000000 0.000000 0.008990 0.000000 0.024202
#
#
# Mechanical properties :
#
#
# Convention : Reuss Voigt Hill
#
# Bulk Modulus (GPa) = 30.90254 87.38697 59.14476
# Shear Modulus (GPa) = 28.64913 41.57787 35.11350
#
# Velocity S-wave (km/s) = 3.56019 4.28893 3.94144
# Velocity P-wave (km/s) = 5.52919 7.94911 6.84691
#
# Compressibility (1/GPa) = 0.03235980
#
# Stress axis : x y z
#
# Youngs Moduli (GPa) = 172.52462 102.68102 42.98272
#
# Poissons Ratio (x) = 0.25512 0.05735
# Poissons Ratio (y) = 0.42864 -0.02573
# Poissons Ratio (z) = 0.23019 -0.06145
#
# Static dielectric constant tensor:
#      x y z
#    x 1.895400 0.000000 0.041340 
#    y 0.000000 1.874590 0.000000 
#    z 0.041340 0.000000 1.898390 
# 
# From -- ./inp_files/204762.got.cif
#   From: 2010.05.17/outbox.cif.g08.bks.cpg/sg15_103_cif.got.tgz:204762.got - 2010.06.03 18:47:42.
