data_PCOD9257099
_publ_section_title
;
Structure prediction by ZEFSAII (Michael W. Deem and Ramdas Pophale) SiO2 
 PCOD9257099
Probable space group: C 2/C
;
_chemical_formula_sum "Si O2"
_cell_formula_units_Z 56
_cell_length_a 17.088006
_cell_length_b 30.003860
_cell_length_c 5.506610
_cell_angle_alpha 90.000000
_cell_angle_beta 64.833233
_cell_angle_gamma 90.000000
_cell_volume 2555.270380
_symmetry_space_group_name_H-M "C 2/C"
_symmetry_group_IT_number 15
_symmetry_cell_setting 'monoclinic'
loop_
_space_group_symop_operation_xyz
x,y,z
-x,y,1/2-z
-x,-y,-z
x,-y,1/2+z
1/2+x,1/2+y,z
1/2-x,1/2+y,1/2-z
1/2-x,1/2-y,-z
1/2+x,1/2-y,1/2+z
loop_
_atom_site_type_symbol
_atom_site_label
_atom_site_fract_x
_atom_site_fract_y
_atom_site_fract_z
Si Si1 0.895561 0.024148 0.363173
Si Si2 0.085685 0.708835 0.230176
Si Si3 0.000000 0.880540 0.250000
Si Si4 0.343713 0.387882 0.139463
Si Si5 0.500000 0.143747 0.750000
Si Si6 0.421790 0.312683 0.727043
Si Si7 0.750894 0.712575 0.199502
Si Si8 0.167527 0.359142 0.241971
O O1 0.860371 0.074294 0.417932
O O2 0.000000 0.026193 0.250000
O O3 0.868839 0.999082 0.647067
O O4 0.172804 0.728975 0.226513
O O5 0.000000 0.734606 0.250000
O O6 0.044389 0.675532 0.487600
O O7 0.126738 0.679965 0.958817
O O8 0.088316 0.902241 0.238473
O O9 0.968488 0.850901 0.513930
O O10 0.240284 0.384240 0.303827
O O11 0.370059 0.338588 0.008788
O O12 0.418977 0.117142 0.743023
O O13 0.500000 0.285021 0.750000
O O14 0.351865 0.293251 0.632153
O O15 0.750000 0.750000 0.000000
O O16 0.784198 0.665226 0.047238
#
# Coordination Sequence:
#
# PCOD9257099 Si02
#       8
#     8   8   4   8   4   8   8   8
#     4  10  22  36  53  81 120 157 191 227 273 331
#     4   9  17  33  53  74  98 128 168 220 274 324
#     4  10  18  30  54  72 102 136 181 217 258 314
#     4  10  20  32  53  77 105 145 180 221 263 316
#     4   8  16  32  54  76 102 122 163 229 270 316
#     4   9  19  34  49  73 100 134 179 217 262 319
#     4  10  20  34  51  71 103 134 171 223 269 321
#     4   9  18  34  54  77 102 132 180 221 274 324
#
# _framework density 21.915489000000001
#
# number of rings (size 3 to 8) (size 9 to 14) (size 15 to 20)
#    0.000    2.571    0.000    2.143    5.000    0.571 
#    7.714    0.000    6.286    0.000    0.000    1.000 
#    0.000    0.000    0.000    0.000    0.000    0.000 
#
# Total GULP energy -155903.773668 kJ/mol
# GULP energy per Si atom -5567.991917 kJ/mol
# Density = 2.186561 g / cm^3
# Si number density = 21.915489 Si / 1000 Ang^3
#
#
#
# Elastic Constant Matrix: (Units=GPa)
#
#
# Indices 1 2 3 4 5 6 
#
# 1 272.3059 32.5976 37.1093 0.0000 -14.0895 0.0000
# 2 32.5976 36.3312 2.8461 0.0000 0.3860 0.0000
# 3 37.1093 2.8461 46.9406 0.0000 -0.9685 0.0000
# 4 0.0000 0.0000 0.0000 23.3309 0.0000 1.7310
# 5 -14.0895 0.3860 -0.9685 0.0000 25.9879 0.0000
# 6 0.0000 0.0000 0.0000 1.7310 0.0000 10.2132
#
#
#
# Elastic Compliance Matrix: (Units=1/GPa)
#
#
# Indices 1 2 3 4 5 6 
#
# 1 0.004756 -0.004022 -0.003464 0.000000 0.002509 0.000000
# 2 -0.004022 0.031064 0.001243 0.000000 -0.002596 0.000000
# 3 -0.003464 0.001243 0.023946 0.000000 -0.001004 0.000000
# 4 0.000000 0.000000 0.000000 0.043407 0.000000 -0.007357
# 5 0.002509 -0.002596 -0.001004 0.000000 0.039841 0.000000
# 6 0.000000 0.000000 0.000000 -0.007357 0.000000 0.099159
#
#
# Mechanical properties :
#
#
# Convention : Reuss Voigt Hill
#
# Bulk Modulus (GPa) = 21.15128 55.63152 38.39140
# Shear Modulus (GPa) = 18.48979 30.77472 24.63226
#
# Velocity S-wave (km/s) = 2.90778 3.75139 3.35620
# Velocity P-wave (km/s) = 4.57666 6.64858 5.70743
#
# Compressibility (1/GPa) = 0.04727847
#
# Stress axis : x y z
#
# Youngs Moduli (GPa) = 210.27208 32.19192 41.76066
#
# Poissons Ratio (x) = 0.12949 0.14466
# Poissons Ratio (y) = 0.84578 -0.05190
# Poissons Ratio (z) = 0.72839 -0.04001
#
# Static dielectric constant tensor:
#      x y z
#    x 1.927630 0.000000 0.011350 
#    y 0.000000 2.817400 0.000000 
#    z 0.011350 0.000000 1.865710 
# 
# From -- ./inp_files/12141.got.cif
#   From: 2010.05.17/outbox.cif.g08.bks.cpg/sg15_7_cif.got.tgz:12141.got - 2010.06.03 18:47:42.
