data_PCOD9257698
_publ_section_title
;
Structure prediction by ZEFSAII (Michael W. Deem and Ramdas Pophale) SiO2 
 PCOD9257698
Probable space group: C 2/C
;
_chemical_formula_sum "Si O2"
_cell_formula_units_Z 52
_cell_length_a 16.549297
_cell_length_b 7.042786
_cell_length_c 23.815480
_cell_angle_alpha 90.000000
_cell_angle_beta 41.570927
_cell_angle_gamma 90.000000
_cell_volume 1841.852559
_symmetry_space_group_name_H-M "C 2/C"
_symmetry_group_IT_number 15
_symmetry_cell_setting 'monoclinic'
loop_
_space_group_symop_operation_xyz
x,y,z
-x,y,1/2-z
-x,-y,-z
x,-y,1/2+z
1/2+x,1/2+y,z
1/2-x,1/2+y,1/2-z
1/2-x,1/2-y,-z
1/2+x,1/2-y,1/2+z
loop_
_atom_site_type_symbol
_atom_site_label
_atom_site_fract_x
_atom_site_fract_y
_atom_site_fract_z
Si Si1 0.126273 0.200975 0.472466
Si Si2 0.011980 0.332574 0.808578
Si Si3 0.442613 0.266859 0.606705
Si Si4 0.473619 0.284099 0.825095
Si Si5 0.211713 0.360720 0.930499
Si Si6 0.750000 0.750000 0.500000
Si Si7 0.363371 0.167198 0.149241
O O1 0.193612 0.408074 0.447132
O O2 0.205461 0.089294 0.475244
O O3 0.123628 0.131690 0.410469
O O4 0.987848 0.243651 0.559652
O O5 0.005901 0.561620 0.809913
O O6 0.000000 0.270882 0.750000
O O7 0.128560 0.283143 0.788456
O O8 0.891718 0.265388 0.903673
O O9 0.450366 0.366711 0.662303
O O10 0.582430 0.219946 0.517916
O O11 0.381091 0.060522 0.640314
O O12 0.500000 0.362447 0.750000
O O13 0.329470 0.309578 0.904123
O O14 0.227987 0.304893 0.855899
#
# Coordination Sequence:
#
# PCOD9257698 Si02
#       7
#     8   8   8   8   8   4   8
#     4   8  15  28  49  71  92 124 169 203 234 302
#     4   9  18  33  51  72  99 132 172 214 251 304
#     4   8  14  27  47  69  92 122 166 199 234 298
#     4  10  19  30  47  75 103 125 157 213 265 304
#     4   9  15  28  51  73  91 126 160 202 254 297
#     4  10  18  32  52  74  96 136 178 208 240 302
#     4   7  13  27  48  71  92 118 164 203 236 293
#
# _framework density 28.232444999999998
#
# number of rings (size 3 to 8) (size 9 to 14) (size 15 to 20)
#    0.000    3.385    0.000    3.231    0.000    0.000 
#    2.769    0.769    0.000   14.769    0.000    0.000 
#    0.000    0.000    0.000    0.000    0.000    0.000 
#
# Total GULP energy -144899.946325 kJ/mol
# GULP energy per Si atom -5573.074859 kJ/mol
# Density = 2.816819 g / cm^3
# Si number density = 28.232445 Si / 1000 Ang^3
#
#
#
# Elastic Constant Matrix: (Units=GPa)
#
#
# Indices 1 2 3 4 5 6 
#
# 1 172.9694 5.0300 23.6695 0.0000 50.1128 0.0006
# 2 5.0300 106.5899 9.3839 -0.0006 3.3696 0.0018
# 3 23.6695 9.3839 97.0426 0.0001 18.1519 0.0001
# 4 0.0000 -0.0006 0.0001 0.0767 0.0000 -2.5397
# 5 50.1128 3.3696 18.1519 0.0000 41.3614 0.0000
# 6 0.0006 0.0018 0.0001 -2.5397 0.0000 -1.6801
#
#
#
# Elastic Compliance Matrix: (Units=1/GPa)
#
#
# Indices 1 2 3 4 5 6 
#
# 1 0.008911 -0.000067 -0.000162 0.000002 -0.010720 0.000000
# 2 -0.000067 0.009469 -0.000839 0.000008 -0.000322 -0.000002
# 3 -0.000162 -0.000839 0.011304 -0.000001 -0.004696 0.000001
# 4 0.000002 0.000008 -0.000001 0.255368 -0.000002 -0.386034
# 5 -0.010720 -0.000322 -0.004696 -0.000002 0.039253 0.000000
# 6 0.000000 -0.000002 0.000001 -0.386034 0.000000 -0.011657
#
#
# Mechanical properties :
#
#
# Convention : Reuss Voigt Hill
#
# Bulk Modulus (GPa) = 36.30062 50.30763 43.30412
# Shear Modulus (GPa) = 15.43364 30.51950 22.97657
#
# Velocity S-wave (km/s) = 2.34062 3.29144 2.85588
# Velocity P-wave (km/s) = 4.49337 5.68353 5.12313
#
# Compressibility (1/GPa) = 0.02754774
#
# Stress axis : x y z
#
# Youngs Moduli (GPa) = 112.21582 105.60813 88.46566
#
# Poissons Ratio (x) = 0.00712 0.01431
# Poissons Ratio (y) = 0.00756 0.07423
# Poissons Ratio (z) = 0.01815 0.08861
#
# Static dielectric constant tensor:
#      x y z
#    x 2.117050 0.000000 0.196160 
#    y 0.000000 2.092570 0.000000 
#    z 0.196160 0.000000 2.328160 
# 
# From -- ./inp_files/298663.got.cif
#   From: 2010.05.17/outbox.cif.g08.bks.cpg/sg15_150_cif.got.tgz:298663.got - 2010.06.03 18:47:42.
