data_PCOD9257494
_publ_section_title
;
Structure prediction by ZEFSAII (Michael W. Deem and Ramdas Pophale) SiO2 
 PCOD9257494
Probable space group: C 2/C
;
_chemical_formula_sum "Si O2"
_cell_formula_units_Z 56
_cell_length_a 12.211881
_cell_length_b 20.295045
_cell_length_c 13.356970
_cell_angle_alpha 90.000000
_cell_angle_beta 73.609999
_cell_angle_gamma 90.000000
_cell_volume 3175.876481
_symmetry_space_group_name_H-M "C 2/C"
_symmetry_group_IT_number 15
_symmetry_cell_setting 'monoclinic'
loop_
_space_group_symop_operation_xyz
x,y,z
-x,y,1/2-z
-x,-y,-z
x,-y,1/2+z
1/2+x,1/2+y,z
1/2-x,1/2+y,1/2-z
1/2-x,1/2-y,-z
1/2+x,1/2-y,1/2+z
loop_
_atom_site_type_symbol
_atom_site_label
_atom_site_fract_x
_atom_site_fract_y
_atom_site_fract_z
Si Si1 0.628444 0.433535 0.170322
Si Si2 0.527328 0.278137 0.489792
Si Si3 0.628018 0.279725 0.673804
Si Si4 0.149892 0.287618 0.586055
Si Si5 0.864183 0.074306 0.269282
Si Si6 0.835887 0.886719 0.561139
Si Si7 0.318115 0.696051 0.734331
O O1 0.500000 0.431661 0.250000
O O2 0.677900 0.506707 0.171544
O O3 0.695115 0.374281 0.208491
O O4 0.629962 0.418152 0.052467
O O5 0.611126 0.264784 0.560432
O O6 0.460687 0.217119 0.455709
O O7 0.428324 0.327782 0.553306
O O8 0.594134 0.310444 0.380029
O O9 0.500000 0.276825 0.750000
O O10 0.675508 0.354307 0.679509
O O11 0.706609 0.229316 0.714691
O O12 0.250000 0.250000 0.500000
O O13 0.208195 0.357328 0.590157
O O14 0.135858 0.246165 0.691843
O O15 0.843978 0.069012 0.156334
O O16 0.000000 0.075850 0.250000
#
# Coordination Sequence:
#
# PCOD9257494 Si02
#       7
#     8   8   8   8   8   8   8
#     4  11  22  33  54  85 112 139 181 231 274 327
#     4  11  20  32  51  85 113 140 181 228 276 321
#     4  11  21  36  54  80 112 150 182 220 281 335
#     4  10  18  31  56  75 110 143 185 222 263 329
#     4  10  21  35  53  78 113 150 177 215 282 339
#     4  11  19  35  54  79 110 149 184 217 271 339
#     4  12  20  34  53  84 113 138 186 236 273 320
#
# _framework density 17.632926999999999
#
# number of rings (size 3 to 8) (size 9 to 14) (size 15 to 20)
#    0.000    1.143    8.571    1.714    0.000    3.429 
#    0.000    0.000    0.000    0.000    3.714    2.000 
#    0.000    0.000    0.000    0.000    0.000    0.000 
#
# Total GULP energy -156066.641337 kJ/mol
# GULP energy per Si atom -5573.808619 kJ/mol
# Density = 1.759279 g / cm^3
# Si number density = 17.632927 Si / 1000 Ang^3
#
#
#
# Elastic Constant Matrix: (Units=GPa)
#
#
# Indices 1 2 3 4 5 6 
#
# 1 58.6891 41.3588 32.0858 0.0000 22.9588 0.0000
# 2 41.3588 72.9870 12.5801 0.0000 20.4453 0.0000
# 3 32.0858 12.5801 91.0622 0.0000 36.5625 0.0000
# 4 0.0000 0.0000 0.0000 54.6319 0.0000 123.3216
# 5 22.9588 20.4453 36.5625 0.0000 30.0777 0.0000
# 6 0.0000 0.0000 0.0000 123.3216 0.0000 456.9773
#
#
#
# Elastic Compliance Matrix: (Units=1/GPa)
#
#
# Indices 1 2 3 4 5 6 
#
# 1 0.035866 -0.017242 -0.007753 0.000000 -0.006232 0.000000
# 2 -0.017242 0.026191 0.008440 0.000000 -0.014903 0.000000
# 3 -0.007753 0.008440 0.024368 0.000000 -0.029442 0.000000
# 4 0.000000 0.000000 0.000000 0.046834 0.000000 -0.012639
# 5 -0.006232 -0.014903 -0.029442 0.000000 0.083924 0.000000
# 6 0.000000 0.000000 0.000000 -0.012639 0.000000 0.005599
#
#
# Mechanical properties :
#
#
# Convention : Reuss Voigt Hill
#
# Bulk Modulus (GPa) = 18.75580 43.86531 31.31056
# Shear Modulus (GPa) = 18.27059 117.45162 67.86110
#
# Velocity S-wave (km/s) = 3.22244 8.17030 6.21039
# Velocity P-wave (km/s) = 4.95029 10.67408 8.31990
#
# Compressibility (1/GPa) = 0.05331684
#
# Stress axis : x y z
#
# Youngs Moduli (GPa) = 27.88144 38.18103 41.03673
#
# Poissons Ratio (x) = 0.65831 0.31816
# Poissons Ratio (y) = 0.48072 -0.34637
# Poissons Ratio (z) = 0.21617 -0.32227
#
# Static dielectric constant tensor:
#      x y z
#    x 1.646640 0.000000 -0.000040 
#    y 0.000000 1.645280 0.000000 
#    z -0.000040 0.000000 1.623800 
# 
# From -- ./inp_files/88895.got.cif
#   From: 2010.05.17/outbox.cif.g08.bks.cpg/sg15_45_cif.got.tgz:88895.got - 2010.06.03 18:47:42.
