data_PCOD9257033
_publ_section_title
;
Structure prediction by ZEFSAII (Michael W. Deem and Ramdas Pophale) SiO2 
 PCOD9257033
Probable space group: C 2/C
;
_chemical_formula_sum "Si O2"
_cell_formula_units_Z 48
_cell_length_a 11.120216
_cell_length_b 20.081578
_cell_length_c 11.677575
_cell_angle_alpha 90.000000
_cell_angle_beta 107.866536
_cell_angle_gamma 90.000000
_cell_volume 2481.975270
_symmetry_space_group_name_H-M "C 2/C"
_symmetry_group_IT_number 15
_symmetry_cell_setting 'monoclinic'
loop_
_space_group_symop_operation_xyz
x,y,z
-x,y,1/2-z
-x,-y,-z
x,-y,1/2+z
1/2+x,1/2+y,z
1/2-x,1/2+y,1/2-z
1/2-x,1/2-y,-z
1/2+x,1/2-y,1/2+z
loop_
_atom_site_type_symbol
_atom_site_label
_atom_site_fract_x
_atom_site_fract_y
_atom_site_fract_z
Si Si1 0.069978 0.269716 0.150093
Si Si2 0.927025 0.932491 0.072365
Si Si3 0.108144 0.174971 0.520695
Si Si4 0.652398 0.357886 0.787248
Si Si5 0.259075 0.375754 0.221630
Si Si6 0.817206 0.989595 0.832867
O O1 0.161976 0.207038 0.208821
O O2 0.145136 0.334592 0.135262
O O3 0.000000 0.284250 0.250000
O O4 0.967269 0.241967 0.030966
O O5 0.863609 0.892394 0.156598
O O6 0.001057 0.881377 0.011468
O O7 0.820077 0.969356 0.966908
O O8 0.037122 0.984113 0.139725
O O9 0.186893 0.157560 0.429060
O O10 0.188070 0.169940 0.659363
O O11 0.500000 0.367079 0.750000
O O12 0.707562 0.424878 0.750628
O O13 0.233625 0.447467 0.272403
#
# Coordination Sequence:
#
# PCOD9257033 Si02
#       6
#     8   8   8   8   8   8
#     4   9  20  36  52  75 105 145 179 217 253 310
#     4  10  19  29  50  82 113 132 159 218 280 320
#     4   9  18  33  53  77 109 136 168 217 265 313
#     4   9  15  30  52  70 102 137 165 211 265 300
#     4  11  22  30  52  86 105 140 177 208 275 318
#     4  10  18  30  51  80 110 131 166 216 271 324
#
# _framework density 19.339435000000002
#
# number of rings (size 3 to 8) (size 9 to 14) (size 15 to 20)
#    0.000    2.667    3.333    3.000    4.667    3.333 
#    0.000    0.000    0.000    1.000    0.000    0.000 
#    0.000    0.000    0.000    0.000    0.000    0.000 
#
# Total GULP energy -133674.829293 kJ/mol
# GULP energy per Si atom -5569.784554 kJ/mol
# Density = 1.929542 g / cm^3
# Si number density = 19.339435 Si / 1000 Ang^3
#
#
#
# Elastic Constant Matrix: (Units=GPa)
#
#
# Indices 1 2 3 4 5 6 
#
# 1 14.7859 22.4542 6.9548 0.0000 -1.1461 0.0000
# 2 22.4542 99.8446 18.9294 0.0000 13.2891 0.0000
# 3 6.9548 18.9294 71.1129 0.0000 -9.5677 0.0000
# 4 0.0000 0.0000 0.0000 12.1475 0.0000 5.6682
# 5 -1.1461 13.2891 -9.5677 0.0000 9.7684 0.0000
# 6 0.0000 0.0000 0.0000 5.6682 0.0000 24.5236
#
#
#
# Elastic Compliance Matrix: (Units=1/GPa)
#
#
# Indices 1 2 3 4 5 6 
#
# 1 0.136180 -0.043828 0.009813 0.000000 0.085214 0.000000
# 2 -0.043828 0.029434 -0.011089 0.000000 -0.056047 0.000000
# 3 0.009813 -0.011089 0.021007 0.000000 0.036813 0.000000
# 4 0.000000 0.000000 0.000000 0.092274 0.000000 -0.021328
# 5 0.085214 -0.056047 0.036813 0.000000 0.224674 0.000000
# 6 0.000000 0.000000 0.000000 -0.021328 0.000000 0.045707
#
#
# Mechanical properties :
#
#
# Convention : Reuss Voigt Hill
#
# Bulk Modulus (GPa) = 10.37206 31.38003 20.87605
# Shear Modulus (GPa) = 7.44467 18.44822 12.94644
#
# Velocity S-wave (km/s) = 1.96414 3.09191 2.59015
# Velocity P-wave (km/s) = 3.24324 5.38588 4.44557
#
# Compressibility (1/GPa) = 0.09641283
#
# Stress axis : x y z
#
# Youngs Moduli (GPa) = 7.34324 33.97412 47.60258
#
# Poissons Ratio (x) = 1.48901 -0.46713
# Poissons Ratio (y) = 0.32184 0.52788
# Poissons Ratio (z) = -0.07206 0.37675
#
# Static dielectric constant tensor:
#      x y z
#    x 1.659130 0.000000 -0.006070 
#    y 0.000000 1.724590 0.000000 
#    z -0.006070 0.000000 1.780800 
# 
# From -- ./inp_files/99161.got.cif
#   From: 2010.05.17/outbox.cif.g08.bks.cpg/sg15_50_cif.got.tgz:99161.got - 2010.06.03 18:47:42.
