data_PCOD9257076
_publ_section_title
;
Structure prediction by ZEFSAII (Michael W. Deem and Ramdas Pophale) SiO2 
 PCOD9257076
Probable space group: C 2/C
;
_chemical_formula_sum "Si O2"
_cell_formula_units_Z 60
_cell_length_a 33.438735
_cell_length_b 20.729252
_cell_length_c 16.061830
_cell_angle_alpha 90.000000
_cell_angle_beta 161.378074
_cell_angle_gamma 90.000000
_cell_volume 3555.144910
_symmetry_space_group_name_H-M "C 2/C"
_symmetry_group_IT_number 15
_symmetry_cell_setting 'monoclinic'
loop_
_space_group_symop_operation_xyz
x,y,z
-x,y,1/2-z
-x,-y,-z
x,-y,1/2+z
1/2+x,1/2+y,z
1/2-x,1/2+y,1/2-z
1/2-x,1/2-y,-z
1/2+x,1/2-y,1/2+z
loop_
_atom_site_type_symbol
_atom_site_label
_atom_site_fract_x
_atom_site_fract_y
_atom_site_fract_z
Si Si1 0.867863 0.036289 0.717630
Si Si2 0.500000 0.328081 0.750000
Si Si3 0.536735 0.423783 0.412297
Si Si4 0.734858 0.350624 0.918939
Si Si5 0.375698 0.111603 0.957435
Si Si6 0.834872 0.935683 0.337246
Si Si7 0.115612 0.544711 0.699959
Si Si8 0.803911 0.210935 0.986553
O O1 0.823925 0.070744 0.715815
O O2 0.750750 0.991045 0.464817
O O3 0.912389 0.074513 0.724302
O O4 0.000000 0.000000 0.000000
O O5 0.416785 0.376834 0.531895
O O6 0.421702 0.286323 0.659201
O O7 0.641646 0.386823 0.672726
O O8 0.594537 0.495777 0.511050
O O9 0.500000 0.396449 0.250000
O O10 0.768327 0.281622 0.946616
O O11 0.853951 0.395583 0.177416
O O12 0.672835 0.333872 0.886291
O O13 0.289592 0.070865 0.852223
O O14 0.408360 0.070272 0.940104
O O15 0.300655 0.172996 0.773150
O O16 0.500000 0.131821 0.250000
O O17 0.000000 0.500000 0.500000
#
# Coordination Sequence:
#
# PCOD9257076 Si02
#       8
#     8   4   8   8   8   8   8   8
#     4  10  19  32  53  81 115 144 183 222 284 338
#     4  10  18  32  56  82 104 138 192 234 270 316
#     4  11  20  31  55  86 114 139 178 240 290 326
#     4  10  20  38  56  79 112 149 191 224 279 346
#     4  10  21  34  54  80 110 146 189 230 276 334
#     4  10  18  30  53  79 110 134 180 236 278 322
#     4  11  21  35  56  83 119 151 179 228 292 346
#     4   9  21  37  57  76 105 154 194 227 265 333
#
# _framework density 16.876949
#
# number of rings (size 3 to 8) (size 9 to 14) (size 15 to 20)
#    0.000    1.867    3.333    2.400    7.467    0.533 
#    0.000    2.667    0.000    0.000    0.000   13.067 
#    0.000    0.000    0.000    0.000    0.000    0.000 
#
# Total GULP energy -167089.545728 kJ/mol
# GULP energy per Si atom -5569.651524 kJ/mol
# Density = 1.683854 g / cm^3
# Si number density = 16.876949 Si / 1000 Ang^3
#
#
#
# Elastic Constant Matrix: (Units=GPa)
#
#
# Indices 1 2 3 4 5 6 
#
# 1 139.8045 51.6098 57.2069 0.0000 -6.3671 0.0000
# 2 51.6098 59.2038 26.2391 0.0000 6.2063 0.0000
# 3 57.2069 26.2391 78.7071 0.0000 -3.5106 0.0000
# 4 0.0000 0.0000 0.0000 8.3873 0.0000 -0.4612
# 5 -6.3671 6.2063 -3.5106 0.0000 32.3451 0.0000
# 6 0.0000 0.0000 0.0000 -0.4612 0.0000 16.9490
#
#
#
# Elastic Compliance Matrix: (Units=1/GPa)
#
#
# Indices 1 2 3 4 5 6 
#
# 1 0.013355 -0.009150 -0.006492 0.000000 0.003680 0.000000
# 2 -0.009150 0.026776 -0.002598 0.000000 -0.007221 0.000000
# 3 -0.006492 -0.002598 0.018344 0.000000 0.001211 0.000000
# 4 0.000000 0.000000 0.000000 0.119407 0.000000 0.003249
# 5 0.003680 -0.007221 0.001211 0.000000 0.033158 0.000000
# 6 0.000000 0.000000 0.000000 0.003249 0.000000 0.059089
#
#
# Mechanical properties :
#
#
# Convention : Reuss Voigt Hill
#
# Bulk Modulus (GPa) = 45.46626 60.86967 53.16797
# Shear Modulus (GPa) = 15.92661 21.04691 18.48676
#
# Velocity S-wave (km/s) = 3.07529 3.53523 3.31325
# Velocity P-wave (km/s) = 6.29350 7.26697 6.79769
#
# Compressibility (1/GPa) = 0.02199433
#
# Stress axis : x y z
#
# Youngs Moduli (GPa) = 74.87909 37.34738 54.51351
#
# Poissons Ratio (x) = 0.34174 0.35391
# Poissons Ratio (y) = 0.68517 0.14161
# Poissons Ratio (z) = 0.48612 0.09702
#
# Static dielectric constant tensor:
#      x y z
#    x 1.599180 0.000000 -0.007580 
#    y 0.000000 1.568170 0.000000 
#    z -0.007580 0.000000 1.575410 
# 
# From -- ./inp_files/183085.got.cif
#   From: 2010.05.17/outbox.cif.g08.bks.cpg/sg15_92_cif.got.tgz:183085.got - 2010.06.03 18:47:42.
