data_PCOD9257577
_publ_section_title
;
Structure prediction by ZEFSAII (Michael W. Deem and Ramdas Pophale) SiO2 
 PCOD9257577
Probable space group: C 2/C
;
_chemical_formula_sum "Si O2"
_cell_formula_units_Z 64
_cell_length_a 26.736396
_cell_length_b 24.273486
_cell_length_c 12.223884
_cell_angle_alpha 90.000000
_cell_angle_beta 29.103831
_cell_angle_gamma 90.000000
_cell_volume 3858.622295
_symmetry_space_group_name_H-M "C 2/C"
_symmetry_group_IT_number 15
_symmetry_cell_setting 'monoclinic'
loop_
_space_group_symop_operation_xyz
x,y,z
-x,y,1/2-z
-x,-y,-z
x,-y,1/2+z
1/2+x,1/2+y,z
1/2-x,1/2+y,1/2-z
1/2-x,1/2-y,-z
1/2+x,1/2-y,1/2+z
loop_
_atom_site_type_symbol
_atom_site_label
_atom_site_fract_x
_atom_site_fract_y
_atom_site_fract_z
Si Si1 0.880902 0.178084 0.515470
Si Si2 0.075013 0.727283 0.403777
Si Si3 0.205528 0.657359 0.307518
Si Si4 0.583673 0.291273 0.184889
Si Si5 0.662727 0.442815 0.908028
Si Si6 0.476777 0.408365 0.120631
Si Si7 0.337665 0.239410 0.919097
Si Si8 0.405897 0.441028 0.016147
O O1 0.875840 0.221452 0.623365
O O2 0.828393 0.207501 0.514939
O O3 0.848728 0.116686 0.604778
O O4 0.000000 0.174293 0.250000
O O5 0.121150 0.673896 0.377007
O O6 0.099998 0.738354 0.229880
O O7 0.952396 0.733578 0.652057
O O8 0.235794 0.593748 0.268353
O O9 0.175854 0.686467 0.477429
O O10 0.310889 0.686933 0.067734
O O11 0.500000 0.282542 0.250000
O O12 0.544123 0.342846 0.334727
O O13 0.591229 0.416871 0.948705
O O14 0.597538 0.435351 0.145271
O O15 0.666130 0.506526 0.867640
O O16 0.453361 0.434664 0.047567
O O17 0.250000 0.250000 0.000000
O O18 0.500000 0.446649 0.750000
#
# Coordination Sequence:
#
# PCOD9257577 Si02
#       8
#     8   8   8   8   8   8   8   8
#     4   8  17  29  46  71  99 130 159 194 254 313
#     4  10  19  34  52  72 101 139 170 211 261 314
#     4  10  20  33  48  71 104 138 178 207 252 311
#     4  11  18  31  52  73 103 140 176 209 258 310
#     4  10  20  31  46  72 100 143 173 207 247 312
#     4  10  18  32  45  70 107 138 172 207 250 311
#     4  10  20  34  51  75 105 131 167 222 264 312
#     4  11  19  29  48  73 104 142 169 205 264 322
#
# _framework density 16.586231000000002
#
# number of rings (size 3 to 8) (size 9 to 14) (size 15 to 20)
#    0.000    2.000    5.000    2.625    0.000    0.000 
#    0.000    0.000    0.000    0.000    0.000    0.875 
#    3.750    0.125    0.000    0.000    0.000    0.000 
#
# Total GULP energy -178276.683693 kJ/mol
# GULP energy per Si atom -5571.146365 kJ/mol
# Density = 1.654848 g / cm^3
# Si number density = 16.586231 Si / 1000 Ang^3
#
#
#
# Elastic Constant Matrix: (Units=GPa)
#
#
# Indices 1 2 3 4 5 6 
#
# 1 128.5903 37.7840 18.5086 -0.0001 -3.8548 0.0001
# 2 37.7840 93.0929 4.5581 -0.0001 -7.3337 0.0000
# 3 18.5086 4.5581 31.6943 -0.0002 -3.7385 0.0001
# 4 -0.0001 -0.0001 -0.0002 16.0872 0.0001 -7.2874
# 5 -3.8548 -7.3337 -3.7385 0.0001 24.3101 -0.0001
# 6 0.0001 0.0000 0.0001 -7.2874 -0.0001 26.8900
#
#
#
# Elastic Compliance Matrix: (Units=1/GPa)
#
#
# Indices 1 2 3 4 5 6 
#
# 1 0.009578 -0.003667 -0.005110 0.000000 -0.000373 0.000000
# 2 -0.003667 0.012453 0.000738 0.000000 0.003289 0.000000
# 3 -0.005110 0.000738 0.034995 0.000000 0.004794 0.000000
# 4 0.000000 0.000000 0.000000 0.070860 0.000000 0.019204
# 5 -0.000373 0.003289 0.004794 0.000000 0.042805 0.000000
# 6 0.000000 0.000000 0.000000 0.019204 0.000000 0.042393
#
#
# Mechanical properties :
#
#
# Convention : Reuss Voigt Hill
#
# Bulk Modulus (GPa) = 24.42055 41.67543 33.04799
# Shear Modulus (GPa) = 20.59202 26.29257 23.44229
#
# Velocity S-wave (km/s) = 3.52733 3.98578 3.76354
# Velocity P-wave (km/s) = 5.59864 6.80904 6.23329
#
# Compressibility (1/GPa) = 0.04094911
#
# Stress axis : x y z
#
# Youngs Moduli (GPa) = 104.40140 80.30087 28.57555
#
# Poissons Ratio (x) = 0.29445 0.14603
# Poissons Ratio (y) = 0.38282 -0.02110
# Poissons Ratio (z) = 0.53351 -0.05929
#
# Static dielectric constant tensor:
#      x y z
#    x 1.585460 0.000000 0.015340 
#    y 0.000000 1.605350 0.000000 
#    z 0.015340 0.000000 1.572540 
# 
# From -- ./inp_files/120243.got.cif
#   From: 2010.05.17/outbox.cif.g08.bks.cpg/sg15_61_cif.got.tgz:120243.got - 2010.06.03 18:47:42.
