data_PCOD9257497
_publ_section_title
;
Structure prediction by ZEFSAII (Michael W. Deem and Ramdas Pophale) SiO2 
 PCOD9257497
Probable space group: C 2/C
;
_chemical_formula_sum "Si O2"
_cell_formula_units_Z 60
_cell_length_a 15.843757
_cell_length_b 30.185866
_cell_length_c 5.433183
_cell_angle_alpha 90.000000
_cell_angle_beta 111.521852
_cell_angle_gamma 90.000000
_cell_volume 2417.290059
_symmetry_space_group_name_H-M "C 2/C"
_symmetry_group_IT_number 15
_symmetry_cell_setting 'monoclinic'
loop_
_space_group_symop_operation_xyz
x,y,z
-x,y,1/2-z
-x,-y,-z
x,-y,1/2+z
1/2+x,1/2+y,z
1/2-x,1/2+y,1/2-z
1/2-x,1/2-y,-z
1/2+x,1/2-y,1/2+z
loop_
_atom_site_type_symbol
_atom_site_label
_atom_site_fract_x
_atom_site_fract_y
_atom_site_fract_z
Si Si1 0.000000 0.149761 0.750000
Si Si2 0.599402 0.390650 0.981713
Si Si3 0.112191 0.194410 0.214900
Si Si4 0.726397 0.816888 0.965518
Si Si5 0.089232 0.621535 0.518469
Si Si6 0.396896 0.019243 0.866677
Si Si7 0.891316 0.013800 0.909042
Si Si8 0.638260 0.793339 0.356931
O O1 0.919430 0.118346 0.750977
O O2 0.983786 0.180302 0.500352
O O3 0.636089 0.439250 0.997636
O O4 0.500000 0.395304 0.750000
O O5 0.645638 0.347845 0.911187
O O6 0.175281 0.192109 0.039001
O O7 0.104453 0.243216 0.308675
O O8 0.682809 0.865238 0.975399
O O9 0.666518 0.801142 0.667391
O O10 0.713237 0.792342 0.213638
O O11 0.098410 0.572621 0.640622
O O12 0.083559 0.663658 0.699071
O O13 0.000000 0.621818 0.250000
O O14 0.355000 0.997700 0.578048
O O15 0.500000 0.000000 0.000000
O O16 0.858714 0.017293 0.594357
O O17 0.000000 0.000000 0.000000
#
# Coordination Sequence:
#
# PCOD9257497 Si02
#       8
#     4   8   8   8   8   8   8   8
#     4  10  24  38  62  92 130 162 224 266 336 390
#     4  10  21  35  57  91 118 162 204 269 320 391
#     4  11  24  42  64  93 133 175 226 270 342 389
#     4  10  25  43  67  91 130 177 224 271 324 402
#     4  10  23  40  65 102 131 171 227 269 333 387
#     4  10  20  34  62  92 130 172 210 266 323 403
#     4  10  18  31  56  79 115 150 203 253 314 378
#     4  10  25  42  68  91 133 177 220 272 328 402
#
# _framework density 24.821182
#
# number of rings (size 3 to 8) (size 9 to 14) (size 15 to 20)
#    0.800    1.067    2.667    1.600    8.400    0.533 
#    4.800    0.000    0.000    1.600    0.000    0.000 
#    0.000    0.000    0.000    0.000    0.000    0.000 
#
# Total GULP energy -167019.615916 kJ/mol
# GULP energy per Si atom -5567.320531 kJ/mol
# Density = 2.476469 g / cm^3
# Si number density = 24.821182 Si / 1000 Ang^3
#
#
#
# Elastic Constant Matrix: (Units=GPa)
#
#
# Indices 1 2 3 4 5 6 
#
# 1 65.3679 15.5626 3.4142 0.0000 -14.8454 0.0000
# 2 15.5626 195.5872 24.2192 0.0000 -7.2479 0.0000
# 3 3.4142 24.2192 85.4967 0.0000 -25.1153 0.0000
# 4 0.0000 0.0000 0.0000 10.0727 0.0000 -15.5414
# 5 -14.8454 -7.2479 -25.1153 0.0000 34.1102 0.0000
# 6 0.0000 0.0000 0.0000 -15.5414 0.0000 26.4007
#
#
#
# Elastic Compliance Matrix: (Units=1/GPa)
#
#
# Indices 1 2 3 4 5 6 
#
# 1 0.017561 -0.001352 0.002351 0.000000 0.009086 0.000000
# 2 -0.001352 0.005403 -0.001674 0.000000 -0.000673 0.000000
# 3 0.002351 -0.001674 0.015660 0.000000 0.012198 0.000000
# 4 0.000000 0.000000 0.000000 1.082311 0.000000 0.637127
# 5 0.009086 -0.000673 0.012198 0.000000 0.042110 0.000000
# 6 0.000000 0.000000 0.000000 0.637127 0.000000 0.412937
#
#
# Mechanical properties :
#
#
# Convention : Reuss Voigt Hill
#
# Bulk Modulus (GPa) = 26.82886 48.09376 37.46131
# Shear Modulus (GPa) = 3.14514 34.33377 18.73945
#
# Velocity S-wave (km/s) = 1.12689 3.72323 2.75067
# Velocity P-wave (km/s) = 3.53914 6.15642 5.02130
#
# Compressibility (1/GPa) = 0.03727329
#
# Stress axis : x y z
#
# Youngs Moduli (GPa) = 56.94560 185.09153 63.85721
#
# Poissons Ratio (x) = 0.25018 -0.15012
# Poissons Ratio (y) = 0.07697 0.10691
# Poissons Ratio (z) = -0.13387 0.30988
#
# Static dielectric constant tensor:
#      x y z
#    x 2.097700 0.000000 0.075470 
#    y 0.000000 1.979370 0.000000 
#    z 0.075470 0.000000 2.118270 
# 
# From -- ./inp_files/12197.got.cif
#   From: 2010.05.17/outbox.cif.g08.bks.cpg/sg15_7_cif.got.tgz:12197.got - 2010.06.03 18:47:42.
