data_PCOD9257482
_publ_section_title
;
Structure prediction by ZEFSAII (Michael W. Deem and Ramdas Pophale) SiO2 
 PCOD9257482
Probable space group: C 2/C
;
_chemical_formula_sum "Si O2"
_cell_formula_units_Z 64
_cell_length_a 10.802115
_cell_length_b 18.740465
_cell_length_c 23.914217
_cell_angle_alpha 90.000000
_cell_angle_beta 131.326997
_cell_angle_gamma 90.000000
_cell_volume 3635.449530
_symmetry_space_group_name_H-M "C 2/C"
_symmetry_group_IT_number 15
_symmetry_cell_setting 'monoclinic'
loop_
_space_group_symop_operation_xyz
x,y,z
-x,y,1/2-z
-x,-y,-z
x,-y,1/2+z
1/2+x,1/2+y,z
1/2-x,1/2+y,1/2-z
1/2-x,1/2-y,-z
1/2+x,1/2-y,1/2+z
loop_
_atom_site_type_symbol
_atom_site_label
_atom_site_fract_x
_atom_site_fract_y
_atom_site_fract_z
Si Si1 0.916456 0.435901 0.047279
Si Si2 0.314666 0.565507 0.327896
Si Si3 0.289740 0.148961 0.909312
Si Si4 0.303551 0.497614 0.940974
Si Si5 0.143445 0.642620 0.444751
Si Si6 0.824217 0.706475 0.167047
Si Si7 0.156284 0.007354 0.381600
Si Si8 0.664759 0.943420 0.662790
O O1 0.779929 0.433125 0.055795
O O2 0.026676 0.372090 0.056911
O O3 0.052949 0.488445 0.114237
O O4 0.816715 0.469854 0.965718
O O5 0.250248 0.520511 0.361932
O O6 0.300789 0.648398 0.343100
O O7 0.494422 0.534552 0.365303
O O8 0.206514 0.558160 0.240109
O O9 0.226258 0.210868 0.849733
O O10 0.175406 0.077420 0.876185
O O11 0.302859 0.170125 0.978782
O O12 0.244050 0.430525 0.960963
O O13 0.500000 0.500000 0.000000
O O14 0.165396 0.687727 0.395502
O O15 0.950595 0.622142 0.388800
O O16 0.000000 0.696553 0.250000
O O17 0.177292 0.048045 0.329216
#
# Coordination Sequence:
#
# PCOD9257482 Si02
#       8
#     8   8   8   8   8   8   8   8
#     4  10  19  33  59  85 115 145 188 239 297 334
#     4  11  22  35  57  87 115 150 198 233 284 346
#     4  11  20  37  59  85 114 148 191 243 293 341
#     4  10  18  31  55  85 116 143 182 243 287 336
#     4  10  18  34  57  78 108 151 193 226 283 350
#     4  11  24  37  55  81 119 156 190 232 290 357
#     4  11  19  36  62  91 111 141 192 252 287 335
#     4  10  18  33  59  85 107 147 190 237 282 335
#
# _framework density 17.604424999999999
#
# number of rings (size 3 to 8) (size 9 to 14) (size 15 to 20)
#    0.000    1.500    6.250    1.500    0.000    2.000 
#    0.000    0.625    0.000    0.000    6.500    0.000 
#    0.000    0.000    0.000    0.000    0.000    0.000 
#
# Total GULP energy -178159.920350 kJ/mol
# GULP energy per Si atom -5567.497511 kJ/mol
# Density = 1.756436 g / cm^3
# Si number density = 17.604425 Si / 1000 Ang^3
#
#
#
# Elastic Constant Matrix: (Units=GPa)
#
#
# Indices 1 2 3 4 5 6 
#
# 1 107.8122 33.8830 26.9676 0.0000 -5.4119 0.0000
# 2 33.8830 72.0352 26.8397 0.0000 3.2666 0.0000
# 3 26.9676 26.8397 80.0345 0.0000 -12.8232 0.0000
# 4 0.0000 0.0000 0.0000 22.3480 0.0000 -0.6637
# 5 -5.4119 3.2666 -12.8232 0.0000 34.1649 0.0000
# 6 0.0000 0.0000 0.0000 -0.6637 0.0000 13.6276
#
#
#
# Elastic Compliance Matrix: (Units=1/GPa)
#
#
# Indices 1 2 3 4 5 6 
#
# 1 0.011311 -0.004635 -0.002021 0.000000 0.001477 0.000000
# 2 -0.004635 0.018225 -0.005264 0.000000 -0.004452 0.000000
# 3 -0.002021 -0.005264 0.015928 0.000000 0.006161 0.000000
# 4 0.000000 0.000000 0.000000 0.044812 0.000000 0.002183
# 5 0.001477 -0.004452 0.006161 0.000000 0.032242 0.000000
# 6 0.000000 0.000000 0.000000 0.002183 0.000000 0.073487
#
#
# Mechanical properties :
#
#
# Convention : Reuss Voigt Hill
#
# Bulk Modulus (GPa) = 46.23884 48.36249 47.30066
# Shear Modulus (GPa) = 22.02147 25.50756 23.76451
#
# Velocity S-wave (km/s) = 3.54065 3.81061 3.67811
# Velocity P-wave (km/s) = 6.56029 6.84780 6.70559
#
# Compressibility (1/GPa) = 0.02162684
#
# Stress axis : x y z
#
# Youngs Moduli (GPa) = 88.40569 54.86930 62.78347
#
# Poissons Ratio (x) = 0.25430 0.12686
# Poissons Ratio (y) = 0.40973 0.33046
# Poissons Ratio (z) = 0.17863 0.28881
#
# Static dielectric constant tensor:
#      x y z
#    x 1.663510 0.000000 -0.010490 
#    y 0.000000 1.626800 0.000000 
#    z -0.010490 0.000000 1.620590 
# 
# From -- ./inp_files/270446.got.cif
#   From: 2010.05.17/outbox.cif.g08.bks.cpg/sg15_136_cif.got.tgz:270446.got - 2010.06.03 18:47:42.
