data_PCOD9257578
_publ_section_title
;
Structure prediction by ZEFSAII (Michael W. Deem and Ramdas Pophale) SiO2 
 PCOD9257578
Probable space group: C 2/C
;
_chemical_formula_sum "Si O2"
_cell_formula_units_Z 52
_cell_length_a 12.050706
_cell_length_b 24.581868
_cell_length_c 18.037264
_cell_angle_alpha 90.000000
_cell_angle_beta 34.534792
_cell_angle_gamma 90.000000
_cell_volume 3029.071508
_symmetry_space_group_name_H-M "C 2/C"
_symmetry_group_IT_number 15
_symmetry_cell_setting 'monoclinic'
loop_
_space_group_symop_operation_xyz
x,y,z
-x,y,1/2-z
-x,-y,-z
x,-y,1/2+z
1/2+x,1/2+y,z
1/2-x,1/2+y,1/2-z
1/2-x,1/2-y,-z
1/2+x,1/2-y,1/2+z
loop_
_atom_site_type_symbol
_atom_site_label
_atom_site_fract_x
_atom_site_fract_y
_atom_site_fract_z
Si Si1 0.625410 0.238491 0.393072
Si Si2 0.301044 0.533396 0.317287
Si Si3 0.000000 0.411153 0.250000
Si Si4 0.407770 0.644031 0.218716
Si Si5 0.934748 0.566408 0.619162
Si Si6 0.277523 0.186120 0.930877
Si Si7 0.357726 0.192254 0.656116
O O1 0.716035 0.180625 0.322511
O O2 0.758050 0.264688 0.385202
O O3 0.420617 0.224875 0.546896
O O4 0.672510 0.279734 0.299209
O O5 0.500000 0.518338 0.250000
O O6 0.356714 0.581661 0.229577
O O7 0.203967 0.481116 0.333970
O O8 0.141724 0.559405 0.462123
O O9 0.969230 0.440199 0.188604
O O10 0.823894 0.368814 0.360451
O O11 0.500000 0.641756 0.250000
O O12 0.570952 0.674042 0.081410
O O13 0.847718 0.626840 0.651514
O O14 0.452083 0.195479 0.893109
#
# Coordination Sequence:
#
# PCOD9257578 Si02
#       7
#     8   8   4   8   8   8   8
#     4  12  18  24  42  66 102 131 159 187 253 318
#     4  10  20  36  53  73  95 136 181 217 241 299
#     4  10  18  32  46  72 104 136 158 206 258 306
#     4  11  18  26  41  65  96 126 163 200 244 296
#     4  10  20  35  53  70 105 135 173 208 259 295
#     4  11  18  24  40  65 101 132 158 185 247 315
#     4  11  19  28  41  70  99 138 156 201 243 314
#
# _framework density 17.166976999999999
#
# number of rings (size 3 to 8) (size 9 to 14) (size 15 to 20)
#    0.000    1.231    7.692    4.154    0.000    0.000 
#    0.000    3.077    0.000    0.000    0.000    1.077 
#    2.308    0.000    0.000    0.000    0.000    0.000 
#
# Total GULP energy -144812.546275 kJ/mol
# GULP energy per Si atom -5569.713318 kJ/mol
# Density = 1.712790 g / cm^3
# Si number density = 17.166977 Si / 1000 Ang^3
#
#
#
# Elastic Constant Matrix: (Units=GPa)
#
#
# Indices 1 2 3 4 5 6 
#
# 1 23.2954 30.8449 16.0338 -0.0008 4.2491 0.0004
# 2 30.8449 112.7948 36.2414 -0.0010 5.1167 -0.0011
# 3 16.0338 36.2414 85.5849 -0.0037 18.7619 0.0003
# 4 -0.0008 -0.0010 -0.0037 12.1621 0.0000 -0.0970
# 5 4.2491 5.1167 18.7619 0.0000 16.9477 -0.0015
# 6 0.0004 -0.0011 0.0003 -0.0970 -0.0015 21.1464
#
#
#
# Elastic Compliance Matrix: (Units=1/GPa)
#
#
# Indices 1 2 3 4 5 6 
#
# 1 0.070459 -0.017623 -0.004003 0.000002 -0.007914 -0.000003
# 2 -0.017623 0.014736 -0.003871 -0.000001 0.004255 0.000001
# 3 -0.004003 -0.003871 0.017955 0.000005 -0.017704 -0.000002
# 4 0.000002 -0.000001 0.000005 0.082225 -0.000006 0.000377
# 5 -0.007914 0.004255 -0.017704 -0.000006 0.079304 0.000006
# 6 -0.000003 0.000001 -0.000002 0.000377 0.000006 0.047291
#
#
# Mechanical properties :
#
#
# Convention : Reuss Voigt Hill
#
# Bulk Modulus (GPa) = 19.17323 43.10169 31.13746
# Shear Modulus (GPa) = 13.14583 19.28824 16.21704
#
# Velocity S-wave (km/s) = 2.77024 3.35560 3.07687
# Velocity P-wave (km/s) = 4.62874 6.33839 5.54980
#
# Compressibility (1/GPa) = 0.05215605
#
# Stress axis : x y z
#
# Youngs Moduli (GPa) = 14.19262 67.86316 55.69601
#
# Poissons Ratio (x) = 1.19593 0.22294
# Poissons Ratio (y) = 0.25011 0.21561
# Poissons Ratio (z) = 0.05681 0.26271
#
# Static dielectric constant tensor:
#      x y z
#    x 1.557230 0.000000 0.036660 
#    y 0.000000 1.622100 0.000000 
#    z 0.036660 0.000000 1.668100 
# 
# From -- ./inp_files/100134.got.cif
#   From: 2010.05.17/outbox.cif.g08.bks.cpg/sg15_51_cif.got.tgz:100134.got - 2010.06.03 18:47:42.
