data_PCOD9257129
_publ_section_title
;
Structure prediction by ZEFSAII (Michael W. Deem and Ramdas Pophale) SiO2 
 PCOD9257129
Probable space group: C 2/C
;
_chemical_formula_sum "Si O2"
_cell_formula_units_Z 44
_cell_length_a 11.461704
_cell_length_b 17.817740
_cell_length_c 12.581911
_cell_angle_alpha 90.000000
_cell_angle_beta 56.198521
_cell_angle_gamma 90.000000
_cell_volume 2135.176676
_symmetry_space_group_name_H-M "C 2/C"
_symmetry_group_IT_number 15
_symmetry_cell_setting 'monoclinic'
loop_
_space_group_symop_operation_xyz
x,y,z
-x,y,1/2-z
-x,-y,-z
x,-y,1/2+z
1/2+x,1/2+y,z
1/2-x,1/2+y,1/2-z
1/2-x,1/2-y,-z
1/2+x,1/2-y,1/2+z
loop_
_atom_site_type_symbol
_atom_site_label
_atom_site_fract_x
_atom_site_fract_y
_atom_site_fract_z
Si Si1 0.997356 0.838570 0.981137
Si Si2 0.311051 0.122204 0.826317
Si Si3 0.533512 0.069141 0.557643
Si Si4 0.559572 0.819296 0.879385
Si Si5 0.282255 0.824517 0.915611
Si Si6 0.000000 0.233215 0.250000
O O1 0.140490 0.869492 0.961685
O O2 0.008692 0.818111 0.850570
O O3 0.855278 0.881234 0.082404
O O4 0.979324 0.757719 0.045544
O O5 0.386091 0.103046 0.676769
O O6 0.374899 0.065461 0.881813
O O7 0.369435 0.206913 0.822678
O O8 0.617186 0.127170 0.440609
O O9 0.500000 0.000000 0.500000
O O10 0.417048 0.858613 0.906810
O O11 0.659107 0.803242 0.730235
O O12 0.250000 0.750000 0.000000
#
# Coordination Sequence:
#
# PCOD9257129 Si02
#       6
#     8   8   8   8   8   4
#     4  11  19  32  57  90 126 139 182 250 315 349
#     4  10  21  35  57  94 112 145 201 251 292 342
#     4  10  22  40  61  80 111 158 207 235 278 358
#     4  10  19  36  57  80 117 159 193 233 294 359
#     4   9  21  32  50  85 118 154 186 227 293 366
#     4  10  18  30  54  88 122 146 172 232 314 362
#
# _framework density 20.607195000000001
#
# number of rings (size 3 to 8) (size 9 to 14) (size 15 to 20)
#    0.000    2.182    3.636    1.636    5.091    2.909 
#    0.000    0.000    0.000    6.545    0.000    0.000 
#    0.000    0.000    0.000    0.000    0.000    0.000 
#
# Total GULP energy -122549.649350 kJ/mol
# GULP energy per Si atom -5570.438607 kJ/mol
# Density = 2.056029 g / cm^3
# Si number density = 20.607195 Si / 1000 Ang^3
#
#
#
# Elastic Constant Matrix: (Units=GPa)
#
#
# Indices 1 2 3 4 5 6 
#
# 1 108.1902 -0.1889 42.7661 0.0000 -22.7410 0.0000
# 2 -0.1889 27.6465 17.1218 0.0000 6.5538 0.0000
# 3 42.7661 17.1218 134.6242 0.0000 12.4195 0.0000
# 4 0.0000 0.0000 0.0000 17.2211 0.0000 10.0505
# 5 -22.7410 6.5538 12.4195 0.0000 32.2701 0.0000
# 6 0.0000 0.0000 0.0000 10.0505 0.0000 18.3092
#
#
#
# Elastic Compliance Matrix: (Units=1/GPa)
#
#
# Indices 1 2 3 4 5 6 
#
# 1 0.013957 0.000771 -0.005624 0.000000 0.011844 0.000000
# 2 0.000771 0.040571 -0.004868 0.000000 -0.005823 0.000000
# 3 -0.005624 -0.004868 0.010480 0.000000 -0.007009 0.000000
# 4 0.000000 0.000000 0.000000 0.085441 0.000000 -0.046901
# 5 0.011844 -0.005823 -0.007009 0.000000 0.043215 0.000000
# 6 0.000000 0.000000 0.000000 -0.046901 0.000000 0.080363
#
#
# Mechanical properties :
#
#
# Convention : Reuss Voigt Hill
#
# Bulk Modulus (GPa) = 21.94591 43.31767 32.63179
# Shear Modulus (GPa) = 16.19915 27.61086 21.90501
#
# Velocity S-wave (km/s) = 2.80678 3.66439 3.26387
# Velocity P-wave (km/s) = 4.60182 6.24259 5.48392
#
# Compressibility (1/GPa) = 0.04556657
#
# Stress axis : x y z
#
# Youngs Moduli (GPa) = 71.64823 24.64799 95.41583
#
# Poissons Ratio (x) = -0.01900 0.53666
# Poissons Ratio (y) = -0.05524 0.46446
# Poissons Ratio (z) = 0.40298 0.11998
#
# Static dielectric constant tensor:
#      x y z
#    x 1.836560 0.000000 -0.029400 
#    y 0.000000 1.733580 0.000000 
#    z -0.029400 0.000000 1.772900 
# 
# From -- ./inp_files/31048.got.cif
#   From: 2010.05.17/outbox.cif.g08.bks.cpg/sg15_16_cif.got.tgz:31048.got - 2010.06.03 18:47:42.
