data_PCOD9257307
_publ_section_title
;
Structure prediction by ZEFSAII (Michael W. Deem and Ramdas Pophale) SiO2 
 PCOD9257307
Probable space group: C 2/C
;
_chemical_formula_sum "Si O2"
_cell_formula_units_Z 56
_cell_length_a 20.719754
_cell_length_b 16.441105
_cell_length_c 10.134081
_cell_angle_alpha 90.000000
_cell_angle_beta 113.210747
_cell_angle_gamma 90.000000
_cell_volume 3172.813247
_symmetry_space_group_name_H-M "C 2/C"
_symmetry_group_IT_number 15
_symmetry_cell_setting 'monoclinic'
loop_
_space_group_symop_operation_xyz
x,y,z
-x,y,1/2-z
-x,-y,-z
x,-y,1/2+z
1/2+x,1/2+y,z
1/2-x,1/2+y,1/2-z
1/2-x,1/2-y,-z
1/2+x,1/2-y,1/2+z
loop_
_atom_site_type_symbol
_atom_site_label
_atom_site_fract_x
_atom_site_fract_y
_atom_site_fract_z
Si Si1 0.169881 0.551900 0.859245
Si Si2 0.166751 0.739904 0.915667
Si Si3 0.041346 0.451176 0.649580
Si Si4 0.806784 0.858435 0.784726
Si Si5 0.257885 0.473320 0.166844
Si Si6 0.859777 0.698575 0.332285
Si Si7 0.815219 0.189092 0.579389
O O1 0.155649 0.645763 0.875432
O O2 0.098997 0.511489 0.755019
O O3 0.222603 0.544308 0.778961
O O4 0.202567 0.505738 0.012030
O O5 0.153091 0.800035 0.784703
O O6 0.250000 0.750000 0.000000
O O7 0.131975 0.752613 0.029549
O O8 0.084990 0.374694 0.627473
O O9 0.000000 0.425638 0.750000
O O10 0.000000 0.500000 0.500000
O O11 0.721629 0.836666 0.726029
O O12 0.808832 0.950321 0.734040
O O13 0.837236 0.842972 0.954076
O O14 0.290706 0.390013 0.140437
O O15 0.865500 0.755287 0.208609
O O16 0.750000 0.250000 0.500000
#
# Coordination Sequence:
#
# PCOD9257307 Si02
#       7
#     8   8   8   8   8   8   8
#     4  12  20  34  51  71 110 146 178 226 269 313
#     4  10  18  31  51  74 102 146 172 205 272 339
#     4  12  25  38  54  76 103 147 202 235 263 304
#     4  10  19  31  49  80 108 140 180 210 265 345
#     4  12  19  31  52  77 111 144 177 212 271 338
#     4  10  19  37  49  69 106 140 183 227 267 314
#     4  10  20  31  48  75 105 143 178 211 272 333
#
# _framework density 17.649951999999999
#
# number of rings (size 3 to 8) (size 9 to 14) (size 15 to 20)
#    0.000    1.143    5.714    5.143    0.000    1.143 
#    0.000    0.000    0.000    0.000    0.000    0.000 
#    0.000   11.429    0.000    0.000    0.000    0.143 
#
# Total GULP energy -156073.871771 kJ/mol
# GULP energy per Si atom -5574.066849 kJ/mol
# Density = 1.760978 g / cm^3
# Si number density = 17.649952 Si / 1000 Ang^3
#
#
#
# Elastic Constant Matrix: (Units=GPa)
#
#
# Indices 1 2 3 4 5 6 
#
# 1 29.9017 7.9546 15.5256 0.0000 -7.4087 0.0000
# 2 7.9546 91.8383 28.7966 0.0000 9.0529 0.0000
# 3 15.5256 28.7966 101.0769 0.0000 -10.3025 0.0000
# 4 0.0000 0.0000 0.0000 33.6831 0.0000 -9.3770
# 5 -7.4087 9.0529 -10.3025 0.0000 18.0540 0.0000
# 6 0.0000 0.0000 0.0000 -9.3770 0.0000 23.5966
#
#
#
# Elastic Compliance Matrix: (Units=1/GPa)
#
#
# Indices 1 2 3 4 5 6 
#
# 1 0.040413 -0.004106 -0.003331 0.000000 0.016742 0.000000
# 2 -0.004106 0.013718 -0.004407 0.000000 -0.011079 0.000000
# 3 -0.003331 -0.004407 0.012472 0.000000 0.007960 0.000000
# 4 0.000000 0.000000 0.000000 0.033381 0.000000 0.013265
# 5 0.016742 -0.011079 0.007960 0.000000 0.072357 0.000000
# 6 0.000000 0.000000 0.000000 0.013265 0.000000 0.047651
#
#
# Mechanical properties :
#
#
# Convention : Reuss Voigt Hill
#
# Bulk Modulus (GPa) = 23.30193 36.37448 29.83821
# Shear Modulus (GPa) = 19.38094 26.43609 22.90852
#
# Velocity S-wave (km/s) = 3.31731 3.87434 3.60660
# Velocity P-wave (km/s) = 5.28239 6.37711 5.85539
#
# Compressibility (1/GPa) = 0.04291489
#
# Stress axis : x y z
#
# Youngs Moduli (GPa) = 24.74447 72.89596 80.18004
#
# Poissons Ratio (x) = 0.29933 0.26709
# Poissons Ratio (y) = 0.10161 0.35333
# Poissons Ratio (z) = 0.08243 0.32124
#
# Static dielectric constant tensor:
#      x y z
#    x 1.521620 0.000000 0.000650 
#    y 0.000000 1.601010 0.000000 
#    z 0.000650 0.000000 1.637410 
# 
# From -- ./inp_files/49173.got.cif
#   From: 2010.05.17/outbox.cif.g08.bks.cpg/sg15_25_cif.got.tgz:49173.got - 2010.06.03 18:47:42.
