data_PCOD9257258
_publ_section_title
;
Structure prediction by ZEFSAII (Michael W. Deem and Ramdas Pophale) SiO2 
 PCOD9257258
Probable space group: C 2/C
;
_chemical_formula_sum "Si O2"
_cell_formula_units_Z 40
_cell_length_a 15.018659
_cell_length_b 18.382579
_cell_length_c 12.318648
_cell_angle_alpha 90.000000
_cell_angle_beta 30.523885
_cell_angle_gamma 90.000000
_cell_volume 1727.335605
_symmetry_space_group_name_H-M "C 2/C"
_symmetry_group_IT_number 15
_symmetry_cell_setting 'monoclinic'
loop_
_space_group_symop_operation_xyz
x,y,z
-x,y,1/2-z
-x,-y,-z
x,-y,1/2+z
1/2+x,1/2+y,z
1/2-x,1/2+y,1/2-z
1/2-x,1/2-y,-z
1/2+x,1/2-y,1/2+z
loop_
_atom_site_type_symbol
_atom_site_label
_atom_site_fract_x
_atom_site_fract_y
_atom_site_fract_z
Si Si1 0.544476 0.406497 0.577542
Si Si2 0.680219 0.606802 0.614609
Si Si3 0.985639 0.787933 0.480887
Si Si4 0.119718 0.640299 0.310995
Si Si5 0.228850 0.502732 0.297093
O O1 0.500000 0.404355 0.750000
O O2 0.560739 0.325548 0.510698
O O3 0.709650 0.456568 0.372198
O O4 0.390741 0.446283 0.670055
O O5 0.500000 0.573885 0.750000
O O6 0.599064 0.675679 0.764239
O O7 0.816744 0.624912 0.377502
O O8 0.776723 0.554048 0.598103
O O9 0.976304 0.701764 0.476576
O O10 0.789007 0.817194 0.679383
O O11 0.092565 0.564755 0.402856
#
# Coordination Sequence:
#
# PCOD9257258 Si02
#       5
#     8   8   8   8   8
#     4   9  15  27  45  67  93 121 158 202 234 266
#     4   9  16  28  48  72  95 120 158 205 237 265
#     4   9  19  30  46  72 100 126 156 191 240 290
#     4  10  18  31  49  74 100 123 154 198 241 284
#     4   9  16  25  45  73  93 118 162 204 235 267
#
# _framework density 23.157052
#
# number of rings (size 3 to 8) (size 9 to 14) (size 15 to 20)
#    0.000    2.800    0.000    6.000    0.000    0.000 
#    0.000    4.000    0.000    4.800    0.000   22.400 
#    0.000    0.000    0.000    0.000    0.000    0.000 
#
# Total GULP energy -111697.498902 kJ/mol
# GULP energy per Si atom -5584.874945 kJ/mol
# Density = 2.310435 g / cm^3
# Si number density = 23.157052 Si / 1000 Ang^3
#
#
#
# Elastic Constant Matrix: (Units=GPa)
#
#
# Indices 1 2 3 4 5 6 
#
# 1 83.0614 32.4489 37.7590 -0.0051 11.5547 0.0014
# 2 32.4489 150.7475 50.3522 -0.0023 22.6256 0.0000
# 3 37.7590 50.3522 99.2107 0.0005 30.3327 -0.0006
# 4 -0.0051 -0.0023 0.0005 22.5015 0.0027 -12.9625
# 5 11.5547 22.6256 30.3327 0.0027 36.6319 -0.0040
# 6 0.0014 0.0000 -0.0006 -12.9625 -0.0040 21.4823
#
#
#
# Elastic Compliance Matrix: (Units=1/GPa)
#
#
# Indices 1 2 3 4 5 6 
#
# 1 0.014868 -0.001602 -0.004973 0.000004 0.000418 0.000001
# 2 -0.001602 0.008284 -0.002926 0.000001 -0.002189 0.000000
# 3 -0.004973 -0.002926 0.016637 -0.000002 -0.010400 -0.000002
# 4 0.000004 0.000001 -0.000002 0.068120 -0.000001 0.041104
# 5 0.000418 -0.002189 -0.010400 -0.000001 0.037131 0.000006
# 6 0.000001 0.000000 -0.000002 0.041104 0.000006 0.071352
#
#
# Mechanical properties :
#
#
# Convention : Reuss Voigt Hill
#
# Bulk Modulus (GPa) = 48.10590 63.79330 55.94960
# Shear Modulus (GPa) = 20.63369 30.28712 25.46040
#
# Velocity S-wave (km/s) = 2.98826 3.62041 3.31942
# Velocity P-wave (km/s) = 5.72058 6.71450 6.23737
#
# Compressibility (1/GPa) = 0.02078747
#
# Stress axis : x y z
#
# Youngs Moduli (GPa) = 67.25945 120.71277 60.10702
#
# Poissons Ratio (x) = 0.19337 0.29893
# Poissons Ratio (y) = 0.10774 0.17584
# Poissons Ratio (z) = 0.33450 0.35315
#
# Static dielectric constant tensor:
#      x y z
#    x 2.001040 0.000000 -0.089910 
#    y 0.000000 1.970310 0.000000 
#    z -0.089910 0.000000 1.854070 
# 
# From -- ./inp_files/96678.got.cif
#   From: 2010.05.17/outbox.cif.g08.bks.cpg/sg15_49_cif.got.tgz:96678.got - 2010.06.03 18:47:42.
