data_PCOD9257841
_publ_section_title
;
Structure prediction by ZEFSAII (Michael W. Deem and Ramdas Pophale) SiO2 
 PCOD9257841
Probable space group: C 2/C
;
_chemical_formula_sum "Si O2"
_cell_formula_units_Z 48
_cell_length_a 20.510800
_cell_length_b 12.749259
_cell_length_c 24.472710
_cell_angle_alpha 90.000000
_cell_angle_beta 160.383548
_cell_angle_gamma 90.000000
_cell_volume 2148.470954
_symmetry_space_group_name_H-M "C 2/C"
_symmetry_group_IT_number 15
_symmetry_cell_setting 'monoclinic'
loop_
_space_group_symop_operation_xyz
x,y,z
-x,y,1/2-z
-x,-y,-z
x,-y,1/2+z
1/2+x,1/2+y,z
1/2-x,1/2+y,1/2-z
1/2-x,1/2-y,-z
1/2+x,1/2-y,1/2+z
loop_
_atom_site_type_symbol
_atom_site_label
_atom_site_fract_x
_atom_site_fract_y
_atom_site_fract_z
Si Si1 0.000000 0.324010 0.750000
Si Si2 0.281995 0.969710 0.246446
Si Si3 0.037655 0.163357 0.068702
Si Si4 0.000000 0.244847 0.250000
Si Si5 0.921998 0.676572 0.570053
Si Si6 0.606508 0.186452 0.446093
Si Si7 0.765373 0.338225 0.339386
O O1 0.808234 0.251606 0.599773
O O2 0.964482 0.378771 0.663338
O O3 0.483335 0.921869 0.385003
O O4 0.243130 0.925578 0.276257
O O5 0.227472 0.090956 0.209629
O O6 0.134888 0.911751 0.087798
O O7 0.069994 0.258331 0.052436
O O8 0.996699 0.220298 0.094253
O O9 0.978543 0.312233 0.178031
O O10 0.190597 0.176996 0.389100
O O11 0.436598 0.273749 0.317329
O O12 0.658737 0.125351 0.542277
#
# Coordination Sequence:
#
# PCOD9257841 Si02
#       7
#     4   8   8   4   8   8   8
#     4   8  16  28  48  74  98 142 190 230 258 342
#     4  10  20  35  58  88 120 153 197 253 311 372
#     4  10  20  35  58  88 119 153 196 254 311 377
#     4  10  20  36  64  86 126 164 204 252 306 374
#     4  10  20  38  62  94 120 164 203 255 312 374
#     4   9  16  29  50  73 104 138 190 228 279 335
#     4  10  18  32  54  82 109 150 188 246 303 370
#
# _framework density 22.341470000000001
#
# number of rings (size 3 to 8) (size 9 to 14) (size 15 to 20)
#    0.000    2.333    3.333    0.000    0.000    0.000 
#    0.000    3.333    0.000   30.000    0.000    0.000 
#    0.000    0.000    0.000    0.000    0.000    0.333 
#
# Total GULP energy -133793.318106 kJ/mol
# GULP energy per Si atom -5574.721588 kJ/mol
# Density = 2.229062 g / cm^3
# Si number density = 22.341470 Si / 1000 Ang^3
#
#
#
# Elastic Constant Matrix: (Units=GPa)
#
#
# Indices 1 2 3 4 5 6 
#
# 1 131.0728 35.4127 60.4733 0.0120 -20.6025 0.0106
# 2 35.4127 82.9018 25.3757 0.0084 -4.9438 0.0114
# 3 60.4733 25.3757 118.0799 0.0081 -0.5300 0.0231
# 4 0.0120 0.0084 0.0081 26.3221 -0.0132 4.0360
# 5 -20.6025 -4.9438 -0.5300 -0.0132 57.0732 -0.0024
# 6 0.0106 0.0114 0.0231 4.0360 -0.0024 3.7218
#
#
#
# Elastic Compliance Matrix: (Units=1/GPa)
#
#
# Indices 1 2 3 4 5 6 
#
# 1 0.011455 -0.003077 -0.005188 -0.000003 0.003820 0.000015
# 2 -0.003077 0.013807 -0.001391 0.000002 0.000072 -0.000026
# 3 -0.005188 -0.001391 0.011416 0.000008 -0.001887 -0.000061
# 4 -0.000003 0.000002 0.000008 0.045568 0.000008 -0.049415
# 5 0.003820 0.000072 -0.001887 0.000008 0.018889 0.000005
# 6 0.000015 -0.000026 -0.000061 -0.049415 0.000005 0.322277
#
#
# Mechanical properties :
#
#
# Convention : Reuss Voigt Hill
#
# Bulk Modulus (GPa) = 57.58426 63.84198 60.71312
# Shear Modulus (GPa) = 11.14795 31.47627 21.31211
#
# Velocity S-wave (km/s) = 2.23621 3.75757 3.09192
# Velocity P-wave (km/s) = 5.70071 6.88936 6.32303
#
# Compressibility (1/GPa) = 0.01736586
#
# Stress axis : x y z
#
# Youngs Moduli (GPa) = 87.29939 72.42706 87.59443
#
# Poissons Ratio (x) = 0.22288 0.45444
# Poissons Ratio (y) = 0.26864 0.12183
# Poissons Ratio (z) = 0.45291 0.10073
#
# Static dielectric constant tensor:
#      x y z
#    x 1.940810 0.000000 0.013720 
#    y 0.000000 1.777040 -0.000020 
#    z 0.013720 -0.000020 1.862630 
# 
# From -- ./inp_files/280286.got.cif
#   From: 2010.05.17/outbox.cif.g08.bks.cpg/sg15_141_cif.got.tgz:280286.got - 2010.06.03 18:47:42.
