data_PCOD9257669
_publ_section_title
;
Structure prediction by ZEFSAII (Michael W. Deem and Ramdas Pophale) SiO2 
 PCOD9257669
Probable space group: C 2/C
;
_chemical_formula_sum "Si O2"
_cell_formula_units_Z 60
_cell_length_a 9.064700
_cell_length_b 34.707609
_cell_length_c 10.191268
_cell_angle_alpha 90.000000
_cell_angle_beta 65.502085
_cell_angle_gamma 90.000000
_cell_volume 2917.671980
_symmetry_space_group_name_H-M "C 2/C"
_symmetry_group_IT_number 15
_symmetry_cell_setting 'monoclinic'
loop_
_space_group_symop_operation_xyz
x,y,z
-x,y,1/2-z
-x,-y,-z
x,-y,1/2+z
1/2+x,1/2+y,z
1/2-x,1/2+y,1/2-z
1/2-x,1/2-y,-z
1/2+x,1/2-y,1/2+z
loop_
_atom_site_type_symbol
_atom_site_label
_atom_site_fract_x
_atom_site_fract_y
_atom_site_fract_z
Si Si1 0.231912 0.138149 0.871818
Si Si2 0.941538 0.437575 0.567806
Si Si3 0.176865 0.516085 0.795760
Si Si4 0.465256 0.858960 0.038749
Si Si5 0.145272 0.940114 0.497977
Si Si6 0.381060 0.227040 0.541132
Si Si7 0.882965 0.782400 0.164276
Si Si8 0.000000 0.986773 0.750000
O O1 0.369484 0.143530 0.934164
O O2 0.327993 0.132704 0.699314
O O3 0.123881 0.100374 0.935349
O O4 0.125851 0.176264 0.899651
O O5 0.908747 0.474315 0.672400
O O6 0.014291 0.395264 0.567103
O O7 0.762840 0.430706 0.576078
O O8 0.055069 0.454582 0.409837
O O9 0.249279 0.532326 0.634793
O O10 0.338732 0.511506 0.823284
O O11 0.417655 0.817718 0.994658
O O12 0.994200 0.961323 0.619713
O O13 0.250000 0.250000 0.500000
O O14 0.296565 0.226581 0.714537
O O15 0.544795 0.250577 0.458475
O O16 0.000000 0.784675 0.250000
#
# Coordination Sequence:
#
# PCOD9257669 Si02
#       8
#     8   8   8   8   8   8   8   4
#     4   9  17  30  53  77  99 133 174 222 262 312
#     4   9  18  31  55  77  94 133 184 226 257 314
#     4  10  18  32  51  74 104 136 176 220 274 313
#     4   9  16  31  53  79  99 129 180 220 262 317
#     4  10  18  34  52  71 103 140 176 220 272 311
#     4   9  18  33  54  74 104 140 168 211 267 323
#     4   9  18  34  53  76 103 138 173 209 265 328
#     4  10  22  32  46  72 106 144 174 214 272 334
#
# _framework density 20.564340000000001
#
# number of rings (size 3 to 8) (size 9 to 14) (size 15 to 20)
#    0.000    2.667    1.333    0.800    0.000    0.533 
#    1.200    4.000    0.000   14.400    0.000    0.000 
#    0.000    0.000    0.000    0.000    0.000    0.000 
#
# Total GULP energy -167015.797755 kJ/mol
# GULP energy per Si atom -5567.193258 kJ/mol
# Density = 2.051753 g / cm^3
# Si number density = 20.564340 Si / 1000 Ang^3
#
#
#
# Elastic Constant Matrix: (Units=GPa)
#
#
# Indices 1 2 3 4 5 6 
#
# 1 15.7467 8.9172 0.3088 0.0000 -4.5153 0.0000
# 2 8.9172 161.5347 48.3954 0.0000 -7.3191 0.0000
# 3 0.3088 48.3954 73.9433 0.0000 -14.2729 0.0000
# 4 0.0000 0.0000 0.0000 23.0959 0.0000 0.5156
# 5 -4.5153 -7.3191 -14.2729 0.0000 21.6626 0.0000
# 6 0.0000 0.0000 0.0000 0.5156 0.0000 18.8535
#
#
#
# Elastic Compliance Matrix: (Units=1/GPa)
#
#
# Indices 1 2 3 4 5 6 
#
# 1 0.071206 -0.005048 0.006350 0.000000 0.017320 0.000000
# 2 -0.005048 0.008071 -0.005658 0.000000 -0.002053 0.000000
# 3 0.006350 -0.005658 0.019577 0.000000 0.012310 0.000000
# 4 0.000000 0.000000 0.000000 0.043324 0.000000 -0.001185
# 5 0.017320 -0.002053 0.012310 0.000000 0.057190 0.000000
# 6 0.000000 0.000000 0.000000 -0.001185 0.000000 0.053073
#
#
# Mechanical properties :
#
#
# Convention : Reuss Voigt Hill
#
# Bulk Modulus (GPa) = 11.09367 40.71862 25.90614
# Shear Modulus (GPa) = 17.17027 25.62928 21.39978
#
# Velocity S-wave (km/s) = 2.89269 3.53412 3.22937
# Velocity P-wave (km/s) = 4.06979 6.04127 5.15074
#
# Compressibility (1/GPa) = 0.09014148
#
# Stress axis : x y z
#
# Youngs Moduli (GPa) = 14.04372 123.89464 51.08139
#
# Poissons Ratio (x) = 0.62548 -0.32437
# Poissons Ratio (y) = 0.07090 0.28901
# Poissons Ratio (z) = -0.08918 0.70098
#
# Static dielectric constant tensor:
#      x y z
#    x 1.767190 0.000000 0.016160 
#    y 0.000000 1.772980 0.000000 
#    z 0.016160 0.000000 1.759480 
# 
# From -- ./inp_files/92590.got.cif
#   From: 2010.05.17/outbox.cif.g08.bks.cpg/sg15_47_cif.got.tgz:92590.got - 2010.06.03 18:47:42.
