data_PCOD9257748
_publ_section_title
;
Structure prediction by ZEFSAII (Michael W. Deem and Ramdas Pophale) SiO2 
 PCOD9257748
Probable space group: C 2/C
;
_chemical_formula_sum "Si O2"
_cell_formula_units_Z 64
_cell_length_a 14.153298
_cell_length_b 12.681490
_cell_length_c 31.361846
_cell_angle_alpha 90.000000
_cell_angle_beta 41.607133
_cell_angle_gamma 90.000000
_cell_volume 3737.750064
_symmetry_space_group_name_H-M "C 2/C"
_symmetry_group_IT_number 15
_symmetry_cell_setting 'monoclinic'
loop_
_space_group_symop_operation_xyz
x,y,z
-x,y,1/2-z
-x,-y,-z
x,-y,1/2+z
1/2+x,1/2+y,z
1/2-x,1/2+y,1/2-z
1/2-x,1/2-y,-z
1/2+x,1/2-y,1/2+z
loop_
_atom_site_type_symbol
_atom_site_label
_atom_site_fract_x
_atom_site_fract_y
_atom_site_fract_z
Si Si1 0.837766 0.401088 0.023365
Si Si2 0.924380 0.567168 0.588167
Si Si3 0.139566 0.303644 0.070903
Si Si4 0.500306 0.371652 0.679239
Si Si5 0.728001 0.612191 0.175575
Si Si6 0.968978 0.020630 0.903455
Si Si7 0.090310 0.092427 0.993442
Si Si8 0.032112 0.226189 0.935056
O O1 0.848555 0.389998 0.070957
O O2 0.687413 0.443427 0.058581
O O3 0.954050 0.487679 0.970185
O O4 0.887266 0.293314 0.984039
O O5 0.813631 0.496648 0.652369
O O6 0.008556 0.649967 0.588373
O O7 0.074936 0.221648 0.126915
O O8 0.237233 0.395497 0.060346
O O9 0.250000 0.250000 0.000000
O O10 0.361257 0.346723 0.754042
O O11 0.618753 0.405714 0.673622
O O12 0.461403 0.467705 0.661008
O O13 0.841578 0.698377 0.122192
O O14 0.032415 0.122798 0.905437
O O15 0.959158 0.927653 0.941798
O O16 0.053624 0.192943 0.977092
O O17 0.000000 0.000000 0.000000
#
# Coordination Sequence:
#
# PCOD9257748 Si02
#       8
#     8   8   8   8   8   8   8   8
#     4  10  18  32  52  85 108 136 170 223 275 331
#     4  10  20  32  56  80 113 136 180 228 274 324
#     4  12  20  34  59  87 106 141 181 234 280 327
#     4  11  22  36  58  76 110 146 195 225 267 333
#     4  10  22  39  53  79 106 153 187 227 269 324
#     4  11  20  35  54  82 111 143 172 228 282 329
#     4  10  20  33  51  83 114 135 170 221 283 331
#     4  10  21  34  56  79 114 140 177 225 275 330
#
# _framework density 17.122599999999998
#
# number of rings (size 3 to 8) (size 9 to 14) (size 15 to 20)
#    0.000    1.500    5.000    1.125    1.750    1.000 
#    0.000    0.000    0.000    0.000    0.000    1.750 
#    0.000    0.000    0.000    0.000    0.000    0.000 
#
# Total GULP energy -178141.247200 kJ/mol
# GULP energy per Si atom -5566.913975 kJ/mol
# Density = 1.708363 g / cm^3
# Si number density = 17.122600 Si / 1000 Ang^3
#
#
#
# Elastic Constant Matrix: (Units=GPa)
#
#
# Indices 1 2 3 4 5 6 
#
# 1 85.1913 22.3951 29.2812 0.0000 6.8301 0.0000
# 2 22.3951 65.0695 39.3524 0.0000 6.0655 0.0000
# 3 29.2812 39.3524 81.9087 0.0000 4.6683 0.0000
# 4 0.0000 0.0000 0.0000 20.4453 0.0000 1.6777
# 5 6.8301 6.0655 4.6683 0.0000 22.4183 0.0000
# 6 0.0000 0.0000 0.0000 1.6777 0.0000 35.2442
#
#
#
# Elastic Compliance Matrix: (Units=1/GPa)
#
#
# Indices 1 2 3 4 5 6 
#
# 1 0.013830 -0.002260 -0.003697 0.000000 -0.002832 0.000000
# 2 -0.002260 0.022346 -0.009738 0.000000 -0.003329 0.000000
# 3 -0.003697 -0.009738 0.018211 0.000000 -0.000031 0.000000
# 4 0.000000 0.000000 0.000000 0.049103 0.000000 -0.002337
# 5 -0.002832 -0.003329 -0.000031 0.000000 0.046377 0.000000
# 6 0.000000 0.000000 0.000000 -0.002337 0.000000 0.028485
#
#
# Mechanical properties :
#
#
# Convention : Reuss Voigt Hill
#
# Bulk Modulus (GPa) = 43.48509 46.02522 44.75516
# Shear Modulus (GPa) = 22.99840 25.03094 24.01467
#
# Velocity S-wave (km/s) = 3.66889 3.82758 3.74908
# Velocity P-wave (km/s) = 6.58780 6.81704 6.70340
#
# Compressibility (1/GPa) = 0.02299639
#
# Stress axis : x y z
#
# Youngs Moduli (GPa) = 72.30582 44.75106 54.91300
#
# Poissons Ratio (x) = 0.10115 0.20300
# Poissons Ratio (y) = 0.16343 0.53475
# Poissons Ratio (z) = 0.26730 0.43579
#
# Static dielectric constant tensor:
#      x y z
#    x 1.601330 0.000000 0.015870 
#    y 0.000000 1.609670 0.000000 
#    z 0.015870 0.000000 1.560560 
# 
# From -- ./inp_files/313579.got.cif
#   From: 2010.05.17/outbox.cif.g08.bks.cpg/sg15_157_cif.got.tgz:313579.got - 2010.06.03 18:47:42.
