data_PCOD9257233
_publ_section_title
;
Structure prediction by ZEFSAII (Michael W. Deem and Ramdas Pophale) SiO2 
 PCOD9257233
Probable space group: C 2/C
;
_chemical_formula_sum "Si O2"
_cell_formula_units_Z 60
_cell_length_a 13.932658
_cell_length_b 15.477975
_cell_length_c 13.110004
_cell_angle_alpha 90.000000
_cell_angle_beta 79.038105
_cell_angle_gamma 90.000000
_cell_volume 2775.578800
_symmetry_space_group_name_H-M "C 2/C"
_symmetry_group_IT_number 15
_symmetry_cell_setting 'monoclinic'
loop_
_space_group_symop_operation_xyz
x,y,z
-x,y,1/2-z
-x,-y,-z
x,-y,1/2+z
1/2+x,1/2+y,z
1/2-x,1/2+y,1/2-z
1/2-x,1/2-y,-z
1/2+x,1/2-y,1/2+z
loop_
_atom_site_type_symbol
_atom_site_label
_atom_site_fract_x
_atom_site_fract_y
_atom_site_fract_z
Si Si1 0.737582 0.338389 0.439581
Si Si2 0.017644 0.459654 0.633249
Si Si3 0.475570 0.716191 0.530250
Si Si4 0.528714 0.440740 0.900674
Si Si5 0.328647 0.004224 0.045915
Si Si6 0.637784 0.519479 0.707068
Si Si7 0.436783 0.162641 0.850664
Si Si8 0.000000 0.183148 0.750000
O O1 0.750000 0.250000 0.500000
O O2 0.625385 0.337401 0.434697
O O3 0.770883 0.422043 0.495383
O O4 0.823619 0.332114 0.339776
O O5 0.916707 0.453056 0.592292
O O6 0.000000 0.423059 0.750000
O O7 0.113338 0.439581 0.543686
O O8 0.033658 0.563132 0.644599
O O9 0.542625 0.652296 0.449448
O O10 0.454472 0.793519 0.456510
O O11 0.503085 0.734569 0.641925
O O12 0.622940 0.475347 0.820519
O O13 0.433419 0.456771 0.847099
O O14 0.500000 0.500000 0.000000
O O15 0.245636 0.971297 0.139935
O O16 0.588737 0.613903 0.721772
O O17 0.500000 0.205919 0.750000
#
# Coordination Sequence:
#
# PCOD9257233 Si02
#       8
#     8   8   8   8   8   8   8   4
#     4   9  19  33  57  81 107 142 190 236 276 336
#     4   9  20  38  56  83 112 146 200 240 296 342
#     4  11  19  35  57  79 118 152 189 235 293 361
#     4  10  18  31  47  78 114 139 183 227 282 354
#     4  10  19  34  60  81 109 149 188 239 293 334
#     4  10  20  30  49  84 111 142 189 232 288 345
#     4   9  20  35  57  83 106 147 197 252 289 334
#     4  10  22  34  50  86 116 162 180 218 304 370
#
# _framework density 21.617113
#
# number of rings (size 3 to 8) (size 9 to 14) (size 15 to 20)
#    0.000    2.400    4.000    0.000    1.867    4.267 
#    0.000    0.000   23.467    1.600    0.000    0.000 
#    0.000    0.000    0.000    0.000    0.000    0.000 
#
# Total GULP energy -167011.275123 kJ/mol
# GULP energy per Si atom -5567.042504 kJ/mol
# Density = 2.156791 g / cm^3
# Si number density = 21.617113 Si / 1000 Ang^3
#
#
#
# Elastic Constant Matrix: (Units=GPa)
#
#
# Indices 1 2 3 4 5 6 
#
# 1 85.8701 2.1907 55.3908 0.0000 -40.6926 0.0000
# 2 2.1907 28.3057 11.7114 0.0000 -8.4717 0.0000
# 3 55.3908 11.7114 159.7668 0.0000 -31.0866 0.0000
# 4 0.0000 0.0000 0.0000 22.8085 0.0000 2.0781
# 5 -40.6926 -8.4717 -31.0866 0.0000 44.8991 0.0000
# 6 0.0000 0.0000 0.0000 2.0781 0.0000 12.4104
#
#
#
# Elastic Compliance Matrix: (Units=1/GPa)
#
#
# Indices 1 2 3 4 5 6 
#
# 1 0.023829 0.005978 -0.004944 0.000000 0.019301 0.000000
# 2 0.005978 0.039293 -0.002838 0.000000 0.010867 0.000000
# 3 -0.004944 -0.002838 0.008327 0.000000 0.000749 0.000000
# 4 0.000000 0.000000 0.000000 0.044522 0.000000 -0.007455
# 5 0.019301 0.010867 0.000749 0.000000 0.042334 0.000000
# 6 0.000000 0.000000 0.000000 -0.007455 0.000000 0.081826
#
#
# Mechanical properties :
#
#
# Convention : Reuss Voigt Hill
#
# Bulk Modulus (GPa) = 14.74071 45.83650 30.28860
# Shear Modulus (GPa) = 18.77210 29.66692 24.21951
#
# Velocity S-wave (km/s) = 2.95004 3.70859 3.35085
# Velocity P-wave (km/s) = 4.29389 6.29190 5.38635
#
# Compressibility (1/GPa) = 0.06783934
#
# Stress axis : x y z
#
# Youngs Moduli (GPa) = 41.96624 25.45008 120.09121
#
# Poissons Ratio (x) = -0.15214 0.59374
# Poissons Ratio (y) = -0.25088 0.34088
# Poissons Ratio (z) = 0.20748 0.07224
#
# Static dielectric constant tensor:
#      x y z
#    x 1.897950 0.000000 -0.036580 
#    y 0.000000 1.829210 0.000000 
#    z -0.036580 0.000000 1.884460 
# 
# From -- ./inp_files/99402.got.cif
#   From: 2010.05.17/outbox.cif.g08.bks.cpg/sg15_50_cif.got.tgz:99402.got - 2010.06.03 18:47:42.
