data_PCOD9257750
_publ_section_title
;
Structure prediction by ZEFSAII (Michael W. Deem and Ramdas Pophale) SiO2 
 PCOD9257750
Probable space group: C 2/C
;
_chemical_formula_sum "Si O2"
_cell_formula_units_Z 60
_cell_length_a 19.736775
_cell_length_b 8.821874
_cell_length_c 21.094225
_cell_angle_alpha 90.000000
_cell_angle_beta 71.064848
_cell_angle_gamma 90.000000
_cell_volume 3474.078438
_symmetry_space_group_name_H-M "C 2/C"
_symmetry_group_IT_number 15
_symmetry_cell_setting 'monoclinic'
loop_
_space_group_symop_operation_xyz
x,y,z
-x,y,1/2-z
-x,-y,-z
x,-y,1/2+z
1/2+x,1/2+y,z
1/2-x,1/2+y,1/2-z
1/2-x,1/2-y,-z
1/2+x,1/2-y,1/2+z
loop_
_atom_site_type_symbol
_atom_site_label
_atom_site_fract_x
_atom_site_fract_y
_atom_site_fract_z
Si Si1 0.325988 0.306239 0.499806
Si Si2 0.914206 0.355853 0.078178
Si Si3 0.536491 0.305816 0.129980
Si Si4 0.926332 0.298059 0.215501
Si Si5 0.054868 0.708401 0.458019
Si Si6 0.576348 0.634687 0.162758
Si Si7 0.324235 0.662012 0.489246
Si Si8 0.000000 0.570538 0.250000
O O1 0.250000 0.250000 0.500000
O O2 0.353126 0.211262 0.551650
O O3 0.388809 0.280448 0.429269
O O4 0.317729 0.486399 0.511139
O O5 0.894439 0.314178 0.155887
O O6 0.928725 0.535499 0.067355
O O7 0.989083 0.286554 0.028538
O O8 0.474774 0.299417 0.094383
O O9 0.545697 0.465843 0.162683
O O10 0.522233 0.174695 0.184645
O O11 0.895345 0.178406 0.275679
O O12 0.935870 0.460810 0.246126
O O13 0.007752 0.243485 0.176992
O O14 0.125134 0.766004 0.472359
O O15 0.632878 0.663897 0.090417
O O16 0.250000 0.750000 0.500000
#
# Coordination Sequence:
#
# PCOD9257750 Si02
#       8
#     8   8   8   8   8   8   8   4
#     4  10  23  37  58  81 108 147 183 229 280 324
#     4  10  19  34  57  83 115 139 181 233 268 323
#     4  10  20  35  57  82 112 140 181 232 268 329
#     4  10  19  32  55  84 113 143 178 226 274 329
#     4  10  20  33  56  86 109 142 184 228 274 316
#     4   9  20  33  54  82 110 144 178 222 278 325
#     4  11  22  37  58  79 112 145 186 229 277 333
#     4  10  18  32  52  86 108 146 180 218 276 318
#
# _framework density 17.270766999999999
#
# number of rings (size 3 to 8) (size 9 to 14) (size 15 to 20)
#    0.000    2.133    2.667    1.600    1.867    3.733 
#    0.000    0.000    2.933    0.000    0.000    0.000 
#    0.000    0.000    0.000    0.000    0.000    0.000 
#
# Total GULP energy -167166.400391 kJ/mol
# GULP energy per Si atom -5572.213346 kJ/mol
# Density = 1.723146 g / cm^3
# Si number density = 17.270767 Si / 1000 Ang^3
#
#
#
# Elastic Constant Matrix: (Units=GPa)
#
#
# Indices 1 2 3 4 5 6 
#
# 1 109.6865 38.7977 40.5147 0.0000 20.6108 0.0000
# 2 38.7977 86.2053 55.6739 0.0001 11.9584 0.0001
# 3 40.5147 55.6739 111.7906 0.0000 33.4720 0.0000
# 4 0.0000 0.0001 0.0000 24.7213 0.0000 4.9429
# 5 20.6108 11.9584 33.4720 0.0000 22.8018 0.0000
# 6 0.0000 0.0001 0.0000 4.9429 0.0000 23.1193
#
#
#
# Elastic Compliance Matrix: (Units=1/GPa)
#
#
# Indices 1 2 3 4 5 6 
#
# 1 0.012339 -0.004729 0.000857 0.000000 -0.009931 0.000000
# 2 -0.004729 0.019436 -0.011051 0.000000 0.010303 0.000000
# 3 0.000857 -0.011051 0.022543 0.000000 -0.028071 0.000000
# 4 0.000000 0.000000 0.000000 0.042257 0.000000 -0.009035
# 5 -0.009931 0.010303 -0.028071 0.000000 0.088637 0.000000
# 6 0.000000 0.000000 0.000000 -0.009035 0.000000 0.045186
#
#
# Mechanical properties :
#
#
# Convention : Reuss Voigt Hill
#
# Bulk Modulus (GPa) = 40.86168 64.18389 52.52279
# Shear Modulus (GPa) = 18.62874 25.64155 22.13515
#
# Velocity S-wave (km/s) = 3.28781 3.85733 3.58390
# Velocity P-wave (km/s) = 6.17444 7.55531 6.89951
#
# Compressibility (1/GPa) = 0.02447280
#
# Stress axis : x y z
#
# Youngs Moduli (GPa) = 81.04173 51.45047 44.35913
#
# Poissons Ratio (x) = 0.24332 -0.03801
# Poissons Ratio (y) = 0.38326 0.49020
# Poissons Ratio (z) = -0.06944 0.56856
#
# Static dielectric constant tensor:
#      x y z
#    x 1.562130 0.000000 0.023360 
#    y 0.000000 1.618300 0.000000 
#    z 0.023360 0.000000 1.608160 
# 
# From -- ./inp_files/247436.got.cif
#   From: 2010.05.17/outbox.cif.g08.bks.cpg/sg15_124_cif.got.tgz:247436.got - 2010.06.03 18:47:42.
