data_PCOD9257833
_publ_section_title
;
Structure prediction by ZEFSAII (Michael W. Deem and Ramdas Pophale) SiO2 
 PCOD9257833
Probable space group: C 2/C
;
_chemical_formula_sum "Si O2"
_cell_formula_units_Z 48
_cell_length_a 27.499389
_cell_length_b 9.187320
_cell_length_c 11.306118
_cell_angle_alpha 90.000000
_cell_angle_beta 59.899557
_cell_angle_gamma 90.000000
_cell_volume 2471.243730
_symmetry_space_group_name_H-M "C 2/C"
_symmetry_group_IT_number 15
_symmetry_cell_setting 'monoclinic'
loop_
_space_group_symop_operation_xyz
x,y,z
-x,y,1/2-z
-x,-y,-z
x,-y,1/2+z
1/2+x,1/2+y,z
1/2-x,1/2+y,1/2-z
1/2-x,1/2-y,-z
1/2+x,1/2-y,1/2+z
loop_
_atom_site_type_symbol
_atom_site_label
_atom_site_fract_x
_atom_site_fract_y
_atom_site_fract_z
Si Si1 0.236410 0.268761 0.379436
Si Si2 0.272444 0.109295 0.123139
Si Si3 0.536540 0.340750 0.319125
Si Si4 0.626465 0.408252 0.044875
Si Si5 0.947197 0.151298 0.093099
Si Si6 0.842137 0.791734 0.868720
O O1 0.250000 0.250000 0.500000
O O2 0.279770 0.193351 0.237472
O O3 0.230195 0.437486 0.356788
O O4 0.179002 0.180822 0.434902
O O5 0.212472 0.161471 0.141504
O O6 0.320790 0.158179 0.973595
O O7 0.500000 0.299236 0.250000
O O8 0.599642 0.325574 0.192211
O O9 0.535408 0.514543 0.347210
O O10 0.504311 0.275535 0.472510
O O11 0.644245 0.568484 0.065348
O O12 0.583135 0.411506 0.988380
O O13 0.898250 0.235681 0.222973
#
# Coordination Sequence:
#
# PCOD9257833 Si02
#       6
#     8   8   8   8   8   8
#     4  12  24  38  56  80 115 154 192 234 284 336
#     4  11  24  36  54  81 113 150 194 230 278 339
#     4   8  16  28  49  83 109 138 182 234 284 331
#     4  10  18  32  54  81 109 146 185 234 284 334
#     4   9  16  30  53  78 111 142 180 234 283 329
#     4  10  20  35  55  77 112 147 185 237 280 330
#
# _framework density 19.423418000000002
#
# number of rings (size 3 to 8) (size 9 to 14) (size 15 to 20)
#    0.000    2.000    3.333    1.000    2.333    0.000 
#    0.000    0.000    0.000    1.000    0.000   32.667 
#    0.000    0.000    0.000    0.000    0.000    0.000 
#
# Total GULP energy -133605.927968 kJ/mol
# GULP energy per Si atom -5566.913665 kJ/mol
# Density = 1.937921 g / cm^3
# Si number density = 19.423418 Si / 1000 Ang^3
#
#
#
# Elastic Constant Matrix: (Units=GPa)
#
#
# Indices 1 2 3 4 5 6 
#
# 1 25.4621 -4.8701 -4.2371 0.0000 5.5595 0.0000
# 2 -4.8701 61.0255 29.9057 0.0000 10.8687 0.0000
# 3 -4.2371 29.9057 144.6913 0.0000 -16.4788 0.0000
# 4 0.0000 0.0000 0.0000 29.4328 0.0000 -4.1040
# 5 5.5595 10.8687 -16.4788 0.0000 33.7734 0.0000
# 6 0.0000 0.0000 0.0000 -4.1040 0.0000 10.7083
#
#
#
# Elastic Compliance Matrix: (Units=1/GPa)
#
#
# Indices 1 2 3 4 5 6 
#
# 1 0.042159 0.005452 -0.000934 0.000000 -0.009150 0.000000
# 2 0.005452 0.021342 -0.005438 0.000000 -0.010419 0.000000
# 3 -0.000934 -0.005438 0.008709 0.000000 0.006153 0.000000
# 4 0.000000 0.000000 0.000000 0.035894 0.000000 0.013756
# 5 -0.009150 -0.010419 0.006153 0.000000 0.037471 0.000000
# 6 0.000000 0.000000 0.000000 0.013756 0.000000 0.098657
#
#
# Mechanical properties :
#
#
# Convention : Reuss Voigt Hill
#
# Bulk Modulus (GPa) = 14.21074 30.30845 22.25959
# Shear Modulus (GPa) = 18.55084 28.80825 23.67954
#
# Velocity S-wave (km/s) = 3.09378 3.85537 3.49538
# Velocity P-wave (km/s) = 4.48265 5.95454 5.27023
#
# Compressibility (1/GPa) = 0.07036933
#
# Stress axis : x y z
#
# Youngs Moduli (GPa) = 23.71957 46.85525 114.82823
#
# Poissons Ratio (x) = -0.25546 0.10730
# Poissons Ratio (y) = -0.12932 0.62445
# Poissons Ratio (z) = 0.02216 0.25481
#
# Static dielectric constant tensor:
#      x y z
#    x 1.659930 0.000000 -0.008630 
#    y 0.000000 1.614190 0.000000 
#    z -0.008630 0.000000 1.781660 
# 
# From -- ./inp_files/116444.got.cif
#   From: 2010.05.17/outbox.cif.g08.bks.cpg/sg15_59_cif.got.tgz:116444.got - 2010.06.03 18:47:42.
