data_PCOD9257752
_publ_section_title
;
Structure prediction by ZEFSAII (Michael W. Deem and Ramdas Pophale) SiO2 
 PCOD9257752
Probable space group: C 2/C
;
_chemical_formula_sum "Si O2"
_cell_formula_units_Z 60
_cell_length_a 16.624404
_cell_length_b 16.448782
_cell_length_c 26.767272
_cell_angle_alpha 90.000000
_cell_angle_beta 151.483927
_cell_angle_gamma 90.000000
_cell_volume 3494.388223
_symmetry_space_group_name_H-M "C 2/C"
_symmetry_group_IT_number 15
_symmetry_cell_setting 'monoclinic'
loop_
_space_group_symop_operation_xyz
x,y,z
-x,y,1/2-z
-x,-y,-z
x,-y,1/2+z
1/2+x,1/2+y,z
1/2-x,1/2+y,1/2-z
1/2-x,1/2-y,-z
1/2+x,1/2-y,1/2+z
loop_
_atom_site_type_symbol
_atom_site_label
_atom_site_fract_x
_atom_site_fract_y
_atom_site_fract_z
Si Si1 0.404953 0.046912 0.612379
Si Si2 0.297485 0.334271 0.772705
Si Si3 0.962856 0.025916 0.065587
Si Si4 0.500000 0.834460 0.250000
Si Si5 0.686127 0.767088 0.611563
Si Si6 0.599562 0.794738 0.450688
Si Si7 0.488548 0.608769 0.510509
Si Si8 0.116261 0.393607 0.767490
O O1 0.213743 0.015043 0.503072
O O2 0.410960 0.107197 0.662590
O O3 0.438187 0.113012 0.587294
O O4 0.530763 0.973474 0.695454
O O5 0.404970 0.417758 0.833828
O O6 0.206539 0.325212 0.670044
O O7 0.169426 0.336951 0.749852
O O8 0.435439 0.262763 0.855715
O O9 0.928327 0.074087 0.994568
O O10 0.037793 0.941571 0.086331
O O11 0.636743 0.780577 0.296428
O O12 0.653800 0.798781 0.538161
O O13 0.540849 0.701379 0.543572
O O14 0.750000 0.750000 0.500000
O O15 0.293042 0.591589 0.392276
O O16 0.000000 0.364382 0.750000
#
# Coordination Sequence:
#
# PCOD9257752 Si02
#       8
#     8   8   8   4   8   8   8   8
#     4  12  20  32  57  90 115 146 189 247 303 340
#     4  11  23  35  55  86 127 152 194 243 300 353
#     4  10  18  32  52  86 116 141 188 251 290 344
#     4  12  18  28  56  90 116 144 180 232 304 350
#     4  12  22  36  56  90 125 157 185 238 307 365
#     4  12  20  36  57  91 124 150 186 242 305 368
#     4  10  19  34  59  81 116 150 192 253 294 332
#     4  11  22  38  59  87 114 155 205 255 283 342
#
# _framework density 17.170387999999999
#
# number of rings (size 3 to 8) (size 9 to 14) (size 15 to 20)
#    0.000    0.800   10.000    0.000    3.733    0.000 
#    0.000    1.333    0.000    0.000    0.000    0.000 
#    0.000    0.000    0.000    0.000    0.000    0.000 
#
# Total GULP energy -167099.943453 kJ/mol
# GULP energy per Si atom -5569.998115 kJ/mol
# Density = 1.713131 g / cm^3
# Si number density = 17.170388 Si / 1000 Ang^3
#
#
#
# Elastic Constant Matrix: (Units=GPa)
#
#
# Indices 1 2 3 4 5 6 
#
# 1 103.1235 43.7526 53.2067 0.0001 -5.5971 -0.0002
# 2 43.7526 55.8472 32.7861 0.0006 -7.9367 -0.0001
# 3 53.2067 32.7861 78.7361 0.0016 -8.8500 -0.0001
# 4 0.0001 0.0006 0.0016 21.0760 0.0003 -21.6337
# 5 -5.5971 -7.9367 -8.8500 0.0003 36.6721 -0.0003
# 6 -0.0002 -0.0001 -0.0001 -21.6337 -0.0003 -17.2678
#
#
#
# Elastic Compliance Matrix: (Units=1/GPa)
#
#
# Indices 1 2 3 4 5 6 
#
# 1 0.017880 -0.009283 -0.008363 0.000000 -0.001298 -0.000001
# 2 -0.009283 0.028807 -0.005325 0.000000 0.003532 0.000000
# 3 -0.008363 -0.005325 0.020863 -0.000001 0.002606 0.000001
# 4 0.000000 0.000000 -0.000001 0.020756 -0.000001 -0.026003
# 5 -0.001298 0.003532 0.002606 -0.000001 0.028464 0.000000
# 6 -0.000001 0.000000 0.000001 -0.026003 0.000000 -0.025333
#
#
# Mechanical properties :
#
#
# Convention : Reuss Voigt Hill
#
# Bulk Modulus (GPa) = 46.28148 55.24418 50.76283
# Shear Modulus (GPa) = 34.58281 15.29347 24.93814
#
# Velocity S-wave (km/s) = 4.49274 2.98768 3.81516
# Velocity P-wave (km/s) = 7.34341 6.64421 7.00254
#
# Compressibility (1/GPa) = 0.02160692
#
# Stress axis : x y z
#
# Youngs Moduli (GPa) = 55.92840 34.71416 47.93263
#
# Poissons Ratio (x) = 0.32224 0.40087
# Poissons Ratio (y) = 0.51916 0.25526
# Poissons Ratio (z) = 0.46774 0.18487
#
# Static dielectric constant tensor:
#      x y z
#    x 1.646740 0.000000 -0.011050 
#    y 0.000000 1.610180 0.000000 
#    z -0.011050 0.000000 1.664890 
# 
# From -- ./inp_files/274578.got.cif
#   From: 2010.05.17/outbox.cif.g08.bks.cpg/sg15_138_cif.got.tgz:274578.got - 2010.06.03 18:47:42.
