data_PCOD9257860
_publ_section_title
;
Structure prediction by ZEFSAII (Michael W. Deem and Ramdas Pophale) SiO2 
 PCOD9257860
Probable space group: C 2/C
;
_chemical_formula_sum "Si O2"
_cell_formula_units_Z 60
_cell_length_a 5.251240
_cell_length_b 18.149516
_cell_length_c 33.052130
_cell_angle_alpha 90.000000
_cell_angle_beta 68.231359
_cell_angle_gamma 90.000000
_cell_volume 2925.476697
_symmetry_space_group_name_H-M "C 2/C"
_symmetry_group_IT_number 15
_symmetry_cell_setting 'monoclinic'
loop_
_space_group_symop_operation_xyz
x,y,z
-x,y,1/2-z
-x,-y,-z
x,-y,1/2+z
1/2+x,1/2+y,z
1/2-x,1/2+y,1/2-z
1/2-x,1/2-y,-z
1/2+x,1/2-y,1/2+z
loop_
_atom_site_type_symbol
_atom_site_label
_atom_site_fract_x
_atom_site_fract_y
_atom_site_fract_z
Si Si1 0.322276 0.568002 0.092774
Si Si2 0.252013 0.873582 0.115282
Si Si3 0.584744 0.992079 0.327427
Si Si4 0.500000 0.458117 0.250000
Si Si5 0.230902 0.206268 0.358179
Si Si6 0.377554 0.708244 0.300204
Si Si7 0.918429 0.494333 0.051347
Si Si8 0.766125 0.624269 0.807145
O O1 0.146553 0.544647 0.142701
O O2 0.329682 0.655399 0.099210
O O3 0.624982 0.533970 0.075710
O O4 0.148987 0.535287 0.065305
O O5 0.323106 0.791271 0.125182
O O6 0.923788 0.877514 0.141367
O O7 0.358376 0.935345 0.140028
O O8 0.366974 0.908695 0.067341
O O9 0.861409 0.017106 0.290170
O O10 0.479250 0.941336 0.297529
O O11 0.411526 0.397511 0.220887
O O12 0.549854 0.198393 0.325784
O O13 0.040148 0.184871 0.331174
O O14 0.500000 0.682451 0.250000
O O15 0.405836 0.797390 0.297489
O O16 0.000000 0.500000 0.000000
#
# Coordination Sequence:
#
# PCOD9257860 Si02
#       8
#     8   8   8   4   8   8   8   8
#     4  11  24  43  64  91 128 159 198 250 328 374
#     4   9  20  36  61  88 117 159 210 242 310 375
#     4  10  18  35  55  82 116 162 205 257 292 364
#     4  10  20  28  50  88 118 154 212 262 306 328
#     4  11  23  40  61  87 125 171 200 254 311 368
#     4  11  22  36  57  86 121 168 220 254 287 345
#     4  11  23  44  71  96 120 155 204 261 317 393
#     4  10  18  32  54  84 116 158 208 267 293 343
#
# _framework density 20.509475999999999
#
# number of rings (size 3 to 8) (size 9 to 14) (size 15 to 20)
#    0.000    1.600    2.667    2.800    3.733    0.000 
#    1.200    2.667    0.000    0.000    0.000    0.000 
#    0.000    0.000    0.000    0.000    0.000    0.000 
#
# Total GULP energy -167019.395793 kJ/mol
# GULP energy per Si atom -5567.313193 kJ/mol
# Density = 2.046280 g / cm^3
# Si number density = 20.509476 Si / 1000 Ang^3
#
#
#
# Elastic Constant Matrix: (Units=GPa)
#
#
# Indices 1 2 3 4 5 6 
#
# 1 70.8467 14.4115 11.4301 0.0000 16.5881 0.0000
# 2 14.4115 65.0776 24.6201 0.0000 -10.9169 0.0000
# 3 11.4301 24.6201 83.6360 0.0000 3.7679 0.0000
# 4 0.0000 0.0000 0.0000 19.1867 0.0000 -0.8883
# 5 16.5881 -10.9169 3.7679 0.0000 22.0163 0.0000
# 6 0.0000 0.0000 0.0000 -0.8883 0.0000 19.6746
#
#
#
# Elastic Compliance Matrix: (Units=1/GPa)
#
#
# Indices 1 2 3 4 5 6 
#
# 1 0.020109 -0.007812 0.000412 0.000000 -0.019095 0.000000
# 2 -0.007812 0.022562 -0.006393 0.000000 0.018168 0.000000
# 3 0.000412 -0.006393 0.014047 0.000000 -0.005884 0.000000
# 4 0.000000 0.000000 0.000000 0.052229 0.000000 0.002358
# 5 -0.019095 0.018168 -0.005884 0.000000 0.069824 0.000000
# 6 0.000000 0.000000 0.000000 0.002358 0.000000 0.050933
#
#
# Mechanical properties :
#
#
# Convention : Reuss Voigt Hill
#
# Bulk Modulus (GPa) = 34.32606 35.60931 34.96768
# Shear Modulus (GPa) = 18.72655 23.44875 21.08765
#
# Velocity S-wave (km/s) = 3.02498 3.38496 3.21002
# Velocity P-wave (km/s) = 5.38272 5.71641 5.55207
#
# Compressibility (1/GPa) = 0.02913238
#
# Stress axis : x y z
#
# Youngs Moduli (GPa) = 49.72998 44.32152 71.18862
#
# Poissons Ratio (x) = 0.34624 -0.02931
# Poissons Ratio (y) = 0.38850 0.45508
# Poissons Ratio (z) = -0.02048 0.28333
#
# Static dielectric constant tensor:
#      x y z
#    x 1.222650 0.000000 0.169850 
#    y 0.000000 1.783840 0.000000 
#    z 0.169850 0.000000 1.704920 
# 
# From -- ./inp_files/305780.got.cif
#   From: 2010.05.17/outbox.cif.g08.bks.cpg/sg15_153_cif.got.tgz:305780.got - 2010.06.03 18:47:42.
