data_PCOD9257997
_publ_section_title
;
Structure prediction by ZEFSAII (Michael W. Deem and Ramdas Pophale) SiO2 
 PCOD9257997
Probable space group: C 2/C
;
_chemical_formula_sum "Si O2"
_cell_formula_units_Z 60
_cell_length_a 28.553294
_cell_length_b 7.069222
_cell_length_c 24.583368
_cell_angle_alpha 90.000000
_cell_angle_beta 136.127043
_cell_angle_gamma 90.000000
_cell_volume 3439.070615
_symmetry_space_group_name_H-M "C 2/C"
_symmetry_group_IT_number 15
_symmetry_cell_setting 'monoclinic'
loop_
_space_group_symop_operation_xyz
x,y,z
-x,y,1/2-z
-x,-y,-z
x,-y,1/2+z
1/2+x,1/2+y,z
1/2-x,1/2+y,1/2-z
1/2-x,1/2-y,-z
1/2+x,1/2-y,1/2+z
loop_
_atom_site_type_symbol
_atom_site_label
_atom_site_fract_x
_atom_site_fract_y
_atom_site_fract_z
Si Si1 0.789720 0.518266 0.709593
Si Si2 0.675653 0.266088 0.579713
Si Si3 0.056357 0.757614 0.400267
Si Si4 0.057221 0.468988 0.189781
Si Si5 0.402400 0.420265 0.419618
Si Si6 0.983998 0.082859 0.398145
Si Si7 0.500000 0.091906 0.250000
Si Si8 0.717145 0.881381 0.673684
O O1 0.739397 0.406678 0.627269
O O2 0.867111 0.472183 0.761776
O O3 0.775205 0.743678 0.698681
O O4 0.770015 0.446377 0.753706
O O5 0.629721 0.234341 0.488090
O O6 0.626921 0.382907 0.580439
O O7 0.700941 0.068514 0.625713
O O8 0.048229 0.715775 0.329539
O O9 0.002395 0.608511 0.380899
O O10 0.027479 0.960936 0.392395
O O11 0.045168 0.265747 0.154354
O O12 0.044019 0.473985 0.243723
O O13 0.426082 0.458886 0.378362
O O14 0.465996 0.364930 0.510298
O O15 0.347416 0.257202 0.378639
#
# Coordination Sequence:
#
# PCOD9257997 Si02
#       8
#     8   8   8   8   8   8   4   8
#     4  11  22  33  54  85 118 157 188 223 281 358
#     4  10  20  36  56  81 121 158 182 231 284 341
#     4   9  20  39  60  82 107 147 199 245 293 326
#     4  10  21  37  59  82 112 149 193 250 288 326
#     4   9  20  31  50  90 114 146 186 218 274 362
#     4  10  18  32  57  83 115 143 183 231 290 343
#     4   8  22  42  58  84 106 140 210 256 290 326
#     4  11  20  33  51  78 122 154 184 216 275 350
#
# _framework density 17.446574999999999
#
# number of rings (size 3 to 8) (size 9 to 14) (size 15 to 20)
#    0.800    1.333    1.333    2.400    1.867    1.600 
#    0.000    6.000    0.000    0.800    0.000    0.000 
#    0.000    0.000    0.000    0.000    0.000    0.000 
#
# Total GULP energy -167104.956175 kJ/mol
# GULP energy per Si atom -5570.165206 kJ/mol
# Density = 1.740687 g / cm^3
# Si number density = 17.446575 Si / 1000 Ang^3
#
#
#
# Elastic Constant Matrix: (Units=GPa)
#
#
# Indices 1 2 3 4 5 6 
#
# 1 38.8824 16.9482 33.4078 0.0002 3.9717 -0.0007
# 2 16.9482 74.7585 41.2013 0.0013 1.2075 0.0020
# 3 33.4078 41.2013 110.9041 0.0000 -0.3877 0.0001
# 4 0.0002 0.0013 0.0000 31.0906 0.0000 8.0842
# 5 3.9717 1.2075 -0.3877 0.0000 24.4862 -0.0003
# 6 -0.0007 0.0020 0.0001 8.0842 -0.0003 13.3036
#
#
#
# Elastic Compliance Matrix: (Units=1/GPa)
#
#
# Indices 1 2 3 4 5 6 
#
# 1 0.035941 -0.002610 -0.009878 -0.000001 -0.005857 0.000003
# 2 -0.002610 0.017031 -0.005543 0.000000 -0.000504 -0.000003
# 3 -0.009878 -0.005543 0.014059 0.000000 0.002098 0.000000
# 4 -0.000001 0.000000 0.000000 0.038200 0.000000 -0.023213
# 5 -0.005857 -0.000504 0.002098 0.000000 0.041847 0.000001
# 6 0.000003 -0.000003 0.000000 -0.023213 0.000001 0.089273
#
#
# Mechanical properties :
#
#
# Convention : Reuss Voigt Hill
#
# Bulk Modulus (GPa) = 32.28836 45.29548 38.79192
# Shear Modulus (GPa) = 17.68441 22.64194 20.16318
#
# Velocity S-wave (km/s) = 3.18721 3.60639 3.40326
# Velocity P-wave (km/s) = 5.66495 6.58484 6.14214
#
# Compressibility (1/GPa) = 0.03097091
#
# Stress axis : x y z
#
# Youngs Moduli (GPa) = 27.82320 58.71684 71.13031
#
# Poissons Ratio (x) = 0.15323 0.70260
# Poissons Ratio (y) = 0.07261 0.39425
# Poissons Ratio (z) = 0.27483 0.32545
#
# Static dielectric constant tensor:
#      x y z
#    x 1.590520 0.000000 0.022420 
#    y 0.000000 1.598830 0.000000 
#    z 0.022420 0.000000 1.616280 
# 
# From -- ./inp_files/284089.got.cif
#   From: 2010.05.17/outbox.cif.g08.bks.cpg/sg15_143_cif.got.tgz:284089.got - 2010.06.03 18:47:42.
