data_PCOD9257288
_publ_section_title
;
Structure prediction by ZEFSAII (Michael W. Deem and Ramdas Pophale) SiO2 
 PCOD9257288
Probable space group: C 2/C
;
_chemical_formula_sum "Si O2"
_cell_formula_units_Z 48
_cell_length_a 20.496202
_cell_length_b 16.923836
_cell_length_c 5.593100
_cell_angle_alpha 90.000000
_cell_angle_beta 71.225064
_cell_angle_gamma 90.000000
_cell_volume 1836.870390
_symmetry_space_group_name_H-M "C 2/C"
_symmetry_group_IT_number 15
_symmetry_cell_setting 'monoclinic'
loop_
_space_group_symop_operation_xyz
x,y,z
-x,y,1/2-z
-x,-y,-z
x,-y,1/2+z
1/2+x,1/2+y,z
1/2-x,1/2+y,1/2-z
1/2-x,1/2-y,-z
1/2+x,1/2-y,1/2+z
loop_
_atom_site_type_symbol
_atom_site_label
_atom_site_fract_x
_atom_site_fract_y
_atom_site_fract_z
Si Si1 0.424626 0.286032 0.231548
Si Si2 0.339613 0.453558 0.947460
Si Si3 0.000000 0.717646 0.750000
Si Si4 0.867647 0.637913 0.744353
Si Si5 0.000000 0.044573 0.250000
Si Si6 0.307299 0.310344 0.710246
Si Si7 0.664788 0.130732 0.199451
O O1 0.500000 0.300766 0.250000
O O2 0.369178 0.333868 0.450186
O O3 0.392745 0.198113 0.281883
O O4 0.446614 0.278330 0.932091
O O5 0.324439 0.505382 0.722206
O O6 0.419981 0.429767 0.849721
O O7 0.303416 0.370211 0.937433
O O8 0.050886 0.662221 0.843203
O O9 0.825305 0.722153 0.779847
O O10 0.841888 0.587865 0.546868
O O11 0.853056 0.598539 0.018436
O O12 0.000000 0.000000 0.500000
O O13 0.237404 0.325391 0.647871
#
# Coordination Sequence:
#
# PCOD9257288 Si02
#       7
#     8   8   4   8   4   8   8
#     4  10  18  35  49  79 110 144 175 213 257 322
#     4  10  23  41  56  76 103 139 185 243 274 308
#     4  10  18  31  50  76 108 146 178 214 250 305
#     4  10  20  33  53  77 111 142 178 215 261 322
#     4   8  16  37  54  66  92 126 166 222 274 287
#     4  11  22  37  57  79 107 148 188 219 278 327
#     4  10  21  35  53  79 113 142 179 218 265 326
#
# _framework density 26.131405000000001
#
# number of rings (size 3 to 8) (size 9 to 14) (size 15 to 20)
#    0.000    2.000    3.333    2.500    0.000    7.333 
#    9.000    0.000    0.000    0.000    0.000    0.000 
#    0.000    1.333    0.000    0.000    0.000    0.000 
#
# Total GULP energy -133653.040982 kJ/mol
# GULP energy per Si atom -5568.876708 kJ/mol
# Density = 2.607193 g / cm^3
# Si number density = 26.131405 Si / 1000 Ang^3
#
#
#
# Elastic Constant Matrix: (Units=GPa)
#
#
# Indices 1 2 3 4 5 6 
#
# 1 171.2370 21.2741 62.3826 0.0000 15.0627 0.0000
# 2 21.2741 77.1670 29.9276 0.0000 6.2799 0.0000
# 3 62.3826 29.9276 167.3974 0.0000 26.2903 0.0000
# 4 0.0000 0.0000 0.0000 -11.9233 0.0000 5.2728
# 5 15.0627 6.2799 26.2903 0.0000 54.1480 0.0000
# 6 0.0000 0.0000 0.0000 5.2728 0.0000 1.6325
#
#
#
# Elastic Compliance Matrix: (Units=1/GPa)
#
#
# Indices 1 2 3 4 5 6 
#
# 1 0.006847 -0.000950 -0.002273 0.000000 -0.000691 0.000000
# 2 -0.000950 0.014066 -0.002107 0.000000 -0.000344 0.000000
# 3 -0.002273 -0.002107 0.007643 0.000000 -0.002834 0.000000
# 4 0.000000 0.000000 0.000000 -0.034537 0.000000 0.111554
# 5 -0.000691 -0.000344 -0.002834 0.000000 0.020076 0.000000
# 6 0.000000 0.000000 0.000000 0.111554 0.000000 0.252258
#
#
# Mechanical properties :
#
#
# Convention : Reuss Voigt Hill
#
# Bulk Modulus (GPa) = 55.87879 71.44110 63.65995
# Shear Modulus (GPa) = 17.66932 28.91923 23.29428
#
# Velocity S-wave (km/s) = 2.60315 3.33030 2.98892
# Velocity P-wave (km/s) = 5.51955 6.49510 6.02709
#
# Compressibility (1/GPa) = 0.01789588
#
# Stress axis : x y z
#
# Youngs Moduli (GPa) = 146.05426 71.09439 130.84383
#
# Poissons Ratio (x) = 0.06752 0.29744
# Poissons Ratio (y) = 0.13871 0.27565
# Poissons Ratio (z) = 0.33202 0.14978
#
# Static dielectric constant tensor:
#      x y z
#    x 2.315120 0.000000 -0.186470 
#    y 0.000000 2.097420 0.000000 
#    z -0.186470 0.000000 2.571610 
# 
# From -- ./inp_files/13198.got.cif
#   From: 2010.05.17/outbox.cif.g08.bks.cpg/sg15_7_cif.got.tgz:13198.got - 2010.06.03 18:47:42.
