data_PCOD9257625
_publ_section_title
;
Structure prediction by ZEFSAII (Michael W. Deem and Ramdas Pophale) SiO2 
 PCOD9257625
Probable space group: C 2/C
;
_chemical_formula_sum "Si O2"
_cell_formula_units_Z 60
_cell_length_a 25.621151
_cell_length_b 13.977994
_cell_length_c 7.474155
_cell_angle_alpha 90.000000
_cell_angle_beta 118.083852
_cell_angle_gamma 90.000000
_cell_volume 2361.576226
_symmetry_space_group_name_H-M "C 2/C"
_symmetry_group_IT_number 15
_symmetry_cell_setting 'monoclinic'
loop_
_space_group_symop_operation_xyz
x,y,z
-x,y,1/2-z
-x,-y,-z
x,-y,1/2+z
1/2+x,1/2+y,z
1/2-x,1/2+y,1/2-z
1/2-x,1/2-y,-z
1/2+x,1/2-y,1/2+z
loop_
_atom_site_type_symbol
_atom_site_label
_atom_site_fract_x
_atom_site_fract_y
_atom_site_fract_z
Si Si1 0.695091 0.368738 0.089122
Si Si2 0.059802 0.311746 0.134436
Si Si3 0.239389 0.070385 0.319305
Si Si4 0.111707 0.182285 0.761921
Si Si5 0.000000 0.167349 0.750000
Si Si6 0.325424 0.949374 0.663644
Si Si7 0.181061 0.289612 0.139823
Si Si8 0.058776 0.625054 0.046403
O O1 0.709923 0.472806 0.198786
O O2 0.691807 0.378120 0.869282
O O3 0.638350 0.339181 0.111848
O O4 0.749844 0.295464 0.201542
O O5 0.060243 0.329501 0.349639
O O6 0.008914 0.391206 0.004209
O O7 0.030897 0.223743 0.970661
O O8 0.128023 0.303283 0.193500
O O9 0.281543 0.104316 0.228356
O O10 0.290624 0.043248 0.548183
O O11 0.057952 0.118869 0.752014
O O12 0.165415 0.198348 0.987209
O O13 0.082912 0.287972 0.707106
O O14 0.326289 0.885735 0.489706
O O15 0.391164 0.955409 0.849090
#
# Coordination Sequence:
#
# PCOD9257625 Si02
#       8
#     8   8   8   8   4   8   8   8
#     4  10  18  32  50  67  95 125 162 194 226 277
#     4   9  16  29  48  70  99 125 146 180 240 290
#     4   9  19  32  47  65  91 132 162 194 232 264
#     4   9  17  30  49  75  97 120 151 191 237 280
#     4   8  16  30  48  72 100 122 144 180 236 296
#     4   9  17  31  48  65  90 124 163 193 228 275
#     4   9  17  29  49  73  97 123 152 192 238 279
#     4   9  17  29  49  73  95 120 152 192 236 280
#
# _framework density 25.406760999999999
#
# number of rings (size 3 to 8) (size 9 to 14) (size 15 to 20)
#    0.000    2.933    0.000    2.000    0.000    0.000 
#    0.000   14.000    0.000   28.000    0.000    0.000 
#    0.000    0.000    0.000    0.000    0.000    0.000 
#
# Total GULP energy -167058.099834 kJ/mol
# GULP energy per Si atom -5568.603328 kJ/mol
# Density = 2.534893 g / cm^3
# Si number density = 25.406761 Si / 1000 Ang^3
#
#
#
# Elastic Constant Matrix: (Units=GPa)
#
#
# Indices 1 2 3 4 5 6 
#
# 1 183.8936 20.3621 3.4901 0.0000 -0.8339 0.0000
# 2 20.3621 25.6785 -8.2224 0.0000 11.1779 0.0000
# 3 3.4901 -8.2224 77.3395 0.0000 -6.0561 0.0000
# 4 0.0000 0.0000 0.0000 19.5145 0.0000 -1.4492
# 5 -0.8339 11.1779 -6.0561 0.0000 36.1668 0.0000
# 6 0.0000 0.0000 0.0000 -1.4492 0.0000 20.9673
#
#
#
# Elastic Compliance Matrix: (Units=1/GPa)
#
#
# Indices 1 2 3 4 5 6 
#
# 1 0.006113 -0.005888 -0.000758 0.000000 0.001834 0.000000
# 2 -0.005888 0.051765 0.004566 0.000000 -0.015370 0.000000
# 3 -0.000758 0.004566 0.013515 0.000000 0.000835 0.000000
# 4 0.000000 0.000000 0.000000 0.051508 0.000000 0.003560
# 5 0.001834 -0.015370 0.000835 0.000000 0.032582 0.000000
# 6 0.000000 0.000000 0.000000 0.003560 0.000000 0.047939
#
#
# Mechanical properties :
#
#
# Convention : Reuss Voigt Hill
#
# Bulk Modulus (GPa) = 14.87421 35.35237 25.11329
# Shear Modulus (GPa) = 21.73974 33.41517 27.57746
#
# Velocity S-wave (km/s) = 2.92835 3.63051 3.29817
# Velocity P-wave (km/s) = 4.15942 5.61417 4.94063
#
# Compressibility (1/GPa) = 0.06723046
#
# Stress axis : x y z
#
# Youngs Moduli (GPa) = 163.59621 19.31824 73.99206
#
# Poissons Ratio (x) = 0.11375 0.05610
# Poissons Ratio (y) = 0.96327 -0.33781
# Poissons Ratio (z) = 0.12405 -0.08820
#
# Static dielectric constant tensor:
#      x y z
#    x 2.114330 0.000000 0.055500 
#    y 0.000000 2.165100 0.000000 
#    z 0.055500 0.000000 2.099360 
# 
# From -- ./inp_files/62538.got.cif
#   From: 2010.05.17/outbox.cif.g08.bks.cpg/sg15_32_cif.got.tgz:62538.got - 2010.06.03 18:47:42.
