data_PCOD9257995
_publ_section_title
;
Structure prediction by ZEFSAII (Michael W. Deem and Ramdas Pophale) SiO2 
 PCOD9257995
Probable space group: C 2/C
;
_chemical_formula_sum "Si O2"
_cell_formula_units_Z 40
_cell_length_a 16.003474
_cell_length_b 17.176663
_cell_length_c 8.648520
_cell_angle_alpha 90.000000
_cell_angle_beta 126.400555
_cell_angle_gamma 90.000000
_cell_volume 1913.508240
_symmetry_space_group_name_H-M "C 2/C"
_symmetry_group_IT_number 15
_symmetry_cell_setting 'monoclinic'
loop_
_space_group_symop_operation_xyz
x,y,z
-x,y,1/2-z
-x,-y,-z
x,-y,1/2+z
1/2+x,1/2+y,z
1/2-x,1/2+y,1/2-z
1/2-x,1/2-y,-z
1/2+x,1/2-y,1/2+z
loop_
_atom_site_type_symbol
_atom_site_label
_atom_site_fract_x
_atom_site_fract_y
_atom_site_fract_z
Si Si1 0.381643 0.464730 0.590360
Si Si2 0.368501 0.105139 0.450231
Si Si3 0.590361 0.155601 0.644977
Si Si4 0.748238 0.053767 0.658418
Si Si5 0.814216 0.806341 0.687037
O O1 0.500000 0.486617 0.750000
O O2 0.300501 0.530996 0.555033
O O3 0.348043 0.447453 0.379845
O O4 0.358388 0.384664 0.658173
O O5 0.475845 0.124401 0.485457
O O6 0.384140 0.121820 0.653458
O O7 0.274879 0.161889 0.297286
O O8 0.330663 0.017356 0.391985
O O9 0.678816 0.127622 0.623960
O O10 0.596051 0.249141 0.657220
O O11 0.750000 0.750000 0.500000
#
# Coordination Sequence:
#
# PCOD9257995 Si02
#       5
#     8   8   8   8   8
#     4  11  23  35  58  83 114 149 183 232 287 330
#     4   9  19  31  52  83 113 140 182 226 284 317
#     4  10  18  32  57  83 111 149 181 234 276 320
#     4  11  19  38  51  83 120 142 190 229 273 342
#     4   9  17  32  51  82 112 136 190 236 265 318
#
# _framework density 20.904014
#
# number of rings (size 3 to 8) (size 9 to 14) (size 15 to 20)
#    0.000    2.000    6.000    1.200    5.600    0.000 
#    0.000    0.000    0.000    4.800    0.000    5.600 
#    0.000    0.000    0.000    0.000    0.000    0.000 
#
# Total GULP energy -111418.990833 kJ/mol
# GULP energy per Si atom -5570.949542 kJ/mol
# Density = 2.085644 g / cm^3
# Si number density = 20.904014 Si / 1000 Ang^3
#
#
#
# Elastic Constant Matrix: (Units=GPa)
#
#
# Indices 1 2 3 4 5 6 
#
# 1 70.0248 2.4953 10.2623 0.0000 13.6767 0.0000
# 2 2.4953 50.5615 2.9146 0.0000 -7.0298 0.0000
# 3 10.2623 2.9146 26.7677 0.0000 13.6630 0.0000
# 4 0.0000 0.0000 0.0000 18.8470 0.0000 0.9595
# 5 13.6767 -7.0298 13.6630 0.0000 21.3311 0.0000
# 6 0.0000 0.0000 0.0000 0.9595 0.0000 15.5839
#
#
#
# Elastic Compliance Matrix: (Units=1/GPa)
#
#
# Indices 1 2 3 4 5 6 
#
# 1 0.016603 -0.002346 -0.000419 0.000000 -0.011150 0.000000
# 2 -0.002346 0.022460 -0.009051 0.000000 0.014703 0.000000
# 3 -0.000419 -0.009051 0.059266 0.000000 -0.040676 0.000000
# 4 0.000000 0.000000 0.000000 0.053226 0.000000 -0.003277
# 5 -0.011150 0.014703 -0.040676 0.000000 0.084928 0.000000
# 6 0.000000 0.000000 0.000000 -0.003277 0.000000 0.064371
#
#
# Mechanical properties :
#
#
# Convention : Reuss Voigt Hill
#
# Bulk Modulus (GPa) = 13.38709 19.85539 16.62124
# Shear Modulus (GPa) = 14.31092 19.93119 17.12105
#
# Velocity S-wave (km/s) = 2.61933 3.09117 2.86498
# Velocity P-wave (km/s) = 3.94535 4.71799 4.34886
#
# Compressibility (1/GPa) = 0.07469885
#
# Stress axis : x y z
#
# Youngs Moduli (GPa) = 60.22873 44.52443 16.87299
#
# Poissons Ratio (x) = 0.10443 0.00706
# Poissons Ratio (y) = 0.14127 0.15272
# Poissons Ratio (z) = 0.02521 0.40299
#
# Static dielectric constant tensor:
#      x y z
#    x 1.784170 0.000000 0.007640 
#    y 0.000000 1.750200 0.000000 
#    z 0.007640 0.000000 1.805130 
# 
# From -- ./inp_files/48292.got.cif
#   From: 2010.05.17/outbox.cif.g08.bks.cpg/sg15_25_cif.got.tgz:48292.got - 2010.06.03 18:47:42.
