data_PCOD9257022
_publ_section_title
;
Structure prediction by ZEFSAII (Michael W. Deem and Ramdas Pophale) SiO2 
 PCOD9257022
Probable space group: C 2/C
;
_chemical_formula_sum "Si O2"
_cell_formula_units_Z 40
_cell_length_a 15.390979
_cell_length_b 16.424583
_cell_length_c 27.989298
_cell_angle_alpha 90.000000
_cell_angle_beta 161.740380
_cell_angle_gamma 90.000000
_cell_volume 2216.895575
_symmetry_space_group_name_H-M "C 2/C"
_symmetry_group_IT_number 15
_symmetry_cell_setting 'monoclinic'
loop_
_space_group_symop_operation_xyz
x,y,z
-x,y,1/2-z
-x,-y,-z
x,-y,1/2+z
1/2+x,1/2+y,z
1/2-x,1/2+y,1/2-z
1/2-x,1/2-y,-z
1/2+x,1/2-y,1/2+z
loop_
_atom_site_type_symbol
_atom_site_label
_atom_site_fract_x
_atom_site_fract_y
_atom_site_fract_z
Si Si1 0.386979 0.762581 0.639458
Si Si2 0.515673 0.307435 0.704121
Si Si3 0.583089 0.903992 0.003058
Si Si4 0.992647 0.576275 0.926506
Si Si5 0.168437 0.808219 0.199104
O O1 0.500000 0.789858 0.750000
O O2 0.269042 0.671144 0.584582
O O3 0.613175 0.751164 0.715979
O O4 0.122554 0.811621 0.481331
O O5 0.500000 0.274942 0.750000
O O6 0.234587 0.356606 0.548492
O O7 0.603274 0.235936 0.714395
O O8 0.766839 0.372638 0.833980
O O9 0.613682 0.985437 0.988260
O O10 0.633184 0.920046 0.085464
O O11 0.769345 0.605315 0.771532
#
# Coordination Sequence:
#
# PCOD9257022 Si02
#       5
#     8   8   8   8   8
#     4  10  19  34  53  78 114 140 184 227 264 326
#     4   9  19  33  48  77 111 143 182 222 268 319
#     4   9  19  30  50  79 111 143 167 219 284 325
#     4  10  18  30  51  77 115 141 171 219 277 336
#     4  10  20  32  52  80 107 149 184 216 276 320
#
# _framework density 18.04325
#
# number of rings (size 3 to 8) (size 9 to 14) (size 15 to 20)
#    0.000    2.400    2.000    0.600    2.800    0.800 
#    0.000    0.000    0.000    0.000    0.000   26.600 
#    0.000    0.000    0.000    0.000    0.000    0.000 
#
# Total GULP energy -111534.711540 kJ/mol
# GULP energy per Si atom -5576.735577 kJ/mol
# Density = 1.800218 g / cm^3
# Si number density = 18.043250 Si / 1000 Ang^3
#
#
#
# Elastic Constant Matrix: (Units=GPa)
#
#
# Indices 1 2 3 4 5 6 
#
# 1 94.3354 23.1360 33.1063 0.0022 -5.5535 0.0008
# 2 23.1360 61.6053 28.2421 -0.0038 -12.1479 -0.0050
# 3 33.1063 28.2421 75.9517 -0.0198 -20.9310 -0.0029
# 4 0.0022 -0.0038 -0.0198 19.3328 0.0029 -9.5337
# 5 -5.5535 -12.1479 -20.9310 0.0029 32.6540 -0.0020
# 6 0.0008 -0.0050 -0.0029 -9.5337 -0.0020 22.6020
#
#
#
# Elastic Compliance Matrix: (Units=1/GPa)
#
#
# Indices 1 2 3 4 5 6 
#
# 1 0.013012 -0.002945 -0.005185 -0.000010 -0.002206 -0.000006
# 2 -0.002945 0.020510 -0.005317 0.000001 0.003721 0.000005
# 3 -0.005185 -0.005317 0.020180 0.000025 0.010075 0.000013
# 4 -0.000010 0.000001 0.000025 0.065311 0.000011 0.027549
# 5 -0.002206 0.003721 0.010075 0.000011 0.038091 0.000010
# 6 -0.000006 0.000005 0.000013 0.027549 0.000010 0.055864
#
#
# Mechanical properties :
#
#
# Convention : Reuss Voigt Hill
#
# Bulk Modulus (GPa) = 37.30228 44.54014 40.92121
# Shear Modulus (GPa) = 20.09657 24.74497 22.42077
#
# Velocity S-wave (km/s) = 3.34098 3.70729 3.52890
# Velocity P-wave (km/s) = 5.96671 6.56233 6.27159
#
# Compressibility (1/GPa) = 0.02680801
#
# Stress axis : x y z
#
# Youngs Moduli (GPa) = 76.84954 48.75743 49.55380
#
# Poissons Ratio (x) = 0.14359 0.25693
# Poissons Ratio (y) = 0.22632 0.26350
# Poissons Ratio (z) = 0.39845 0.25926
#
# Static dielectric constant tensor:
#      x y z
#    x 1.644140 0.000000 0.007450 
#    y 0.000000 1.607390 -0.000010 
#    z 0.007450 -0.000010 1.673520 
# 
# From -- ./inp_files/38029.got.cif
#   From: 2010.05.17/outbox.cif.g08.bks.cpg/sg15_20_cif.got.tgz:38029.got - 2010.06.03 18:47:42.
