data_PCOD9257940
_publ_section_title
;
Structure prediction by ZEFSAII (Michael W. Deem and Ramdas Pophale) SiO2 
 PCOD9257940
Probable space group: C 2/C
;
_chemical_formula_sum "Si O2"
_cell_formula_units_Z 56
_cell_length_a 16.273987
_cell_length_b 8.042291
_cell_length_c 25.326268
_cell_angle_alpha 90.000000
_cell_angle_beta 60.302639
_cell_angle_gamma 90.000000
_cell_volume 2879.333282
_symmetry_space_group_name_H-M "C 2/C"
_symmetry_group_IT_number 15
_symmetry_cell_setting 'monoclinic'
loop_
_space_group_symop_operation_xyz
x,y,z
-x,y,1/2-z
-x,-y,-z
x,-y,1/2+z
1/2+x,1/2+y,z
1/2-x,1/2+y,1/2-z
1/2-x,1/2-y,-z
1/2+x,1/2-y,1/2+z
loop_
_atom_site_type_symbol
_atom_site_label
_atom_site_fract_x
_atom_site_fract_y
_atom_site_fract_z
Si Si1 0.289916 0.608722 0.377385
Si Si2 0.895317 0.772701 0.044406
Si Si3 0.041469 0.801193 0.073143
Si Si4 0.214547 0.989406 0.501638
Si Si5 0.938421 0.434277 0.432868
Si Si6 0.421924 0.912337 0.320003
Si Si7 0.081569 0.801010 0.180597
O O1 0.177876 0.638630 0.406972
O O2 0.308922 0.598358 0.434841
O O3 0.344455 0.768765 0.337591
O O4 0.334780 0.436994 0.341094
O O5 0.961259 0.880292 0.062167
O O6 0.822994 0.892529 0.036688
O O7 0.951130 0.689975 0.977228
O O8 0.016196 0.610659 0.069018
O O9 0.036065 0.829704 0.137105
O O10 0.148815 0.847438 0.023613
O O11 0.326946 0.983690 0.464193
O O12 0.964920 0.382908 0.365123
O O13 0.500000 0.896438 0.250000
O O14 0.387518 0.105956 0.329102
O O15 0.000000 0.823535 0.250000
#
# Coordination Sequence:
#
# PCOD9257940 Si02
#       7
#     8   8   8   8   8   8   8
#     4  10  18  34  57  78 106 144 179 220 271 318
#     4  11  19  33  52  81 117 133 169 229 278 318
#     4  10  21  31  54  82 108 139 173 226 277 310
#     4  10  18  33  54  77 108 140 175 215 265 329
#     4  10  18  34  51  77 106 142 181 215 267 327
#     4  10  18  32  56  81  99 139 193 226 251 313
#     4   9  20  36  57  77 103 142 194 222 257 325
#
# _framework density 19.448947
#
# number of rings (size 3 to 8) (size 9 to 14) (size 15 to 20)
#    0.000    2.000    2.857    2.571    0.000    1.143 
#    0.000    0.000    9.429    0.000    0.000    0.000 
#    0.000    0.000    0.000    0.000    0.000    0.000 
#
# Total GULP energy -155914.387183 kJ/mol
# GULP energy per Si atom -5568.370971 kJ/mol
# Density = 1.940468 g / cm^3
# Si number density = 19.448947 Si / 1000 Ang^3
#
#
#
# Elastic Constant Matrix: (Units=GPa)
#
#
# Indices 1 2 3 4 5 6 
#
# 1 74.8563 15.2106 20.2217 0.0000 -1.7645 0.0000
# 2 15.2106 68.3684 36.1703 0.0000 -2.1984 0.0000
# 3 20.2217 36.1703 114.5748 0.0000 -0.3172 0.0000
# 4 0.0000 0.0000 0.0000 28.7020 0.0000 -2.1090
# 5 -1.7645 -2.1984 -0.3172 0.0000 12.2733 0.0000
# 6 0.0000 0.0000 0.0000 -2.1090 0.0000 10.3983
#
#
#
# Elastic Compliance Matrix: (Units=1/GPa)
#
#
# Indices 1 2 3 4 5 6 
#
# 1 0.014334 -0.002162 -0.001843 0.000000 0.001626 0.000000
# 2 -0.002162 0.017997 -0.005292 0.000000 0.002776 0.000000
# 3 -0.001843 -0.005292 0.010721 0.000000 -0.000936 0.000000
# 4 0.000000 0.000000 0.000000 0.035368 0.000000 0.007173
# 5 0.001626 0.002776 -0.000936 0.000000 0.082185 0.000000
# 6 0.000000 0.000000 0.000000 0.007173 0.000000 0.097624
#
#
# Mechanical properties :
#
#
# Convention : Reuss Voigt Hill
#
# Bulk Modulus (GPa) = 40.88559 44.55606 42.72083
# Shear Modulus (GPa) = 17.54536 22.68786 20.11661
#
# Velocity S-wave (km/s) = 3.00680 3.41916 3.21959
# Velocity P-wave (km/s) = 5.75518 6.20859 5.98618
#
# Compressibility (1/GPa) = 0.02445849
#
# Stress axis : x y z
#
# Youngs Moduli (GPa) = 69.76234 55.56578 93.27229
#
# Poissons Ratio (x) = 0.12012 0.17190
# Poissons Ratio (y) = 0.15081 0.49361
# Poissons Ratio (z) = 0.12857 0.29406
#
# Static dielectric constant tensor:
#      x y z
#    x 1.708470 0.000000 -0.005640 
#    y 0.000000 1.783830 0.000000 
#    z -0.005640 0.000000 1.683740 
# 
# From -- ./inp_files/298132.got.cif
#   From: 2010.05.17/outbox.cif.g08.bks.cpg/sg15_150_cif.got.tgz:298132.got - 2010.06.03 18:47:42.
