data_PCOD9257425
_publ_section_title
;
Structure prediction by ZEFSAII (Michael W. Deem and Ramdas Pophale) SiO2 
 PCOD9257425
Probable space group: C 2/C
;
_chemical_formula_sum "Si O2"
_cell_formula_units_Z 52
_cell_length_a 19.077321
_cell_length_b 16.937439
_cell_length_c 17.841341
_cell_angle_alpha 90.000000
_cell_angle_beta 149.216340
_cell_angle_gamma 90.000000
_cell_volume 2950.469353
_symmetry_space_group_name_H-M "C 2/C"
_symmetry_group_IT_number 15
_symmetry_cell_setting 'monoclinic'
loop_
_space_group_symop_operation_xyz
x,y,z
-x,y,1/2-z
-x,-y,-z
x,-y,1/2+z
1/2+x,1/2+y,z
1/2-x,1/2+y,1/2-z
1/2-x,1/2-y,-z
1/2+x,1/2-y,1/2+z
loop_
_atom_site_type_symbol
_atom_site_label
_atom_site_fract_x
_atom_site_fract_y
_atom_site_fract_z
Si Si1 0.359244 0.267163 0.165166
Si Si2 0.000000 0.940535 0.750000
Si Si3 0.292501 0.438390 0.111734
Si Si4 0.172085 0.805774 0.988919
Si Si5 0.536482 0.172198 0.695402
Si Si6 0.366246 0.095827 0.181087
Si Si7 0.480665 0.011127 0.569719
O O1 0.500000 0.277238 0.250000
O O2 0.327180 0.350711 0.173213
O O3 0.357696 0.184099 0.207569
O O4 0.250000 0.250000 0.000000
O O5 0.892252 0.883078 0.608895
O O6 0.085616 0.998579 0.774595
O O7 0.253801 0.426173 0.987479
O O8 0.159867 0.471507 0.031337
O O9 0.298708 0.823937 0.160012
O O10 0.250000 0.750000 0.000000
O O11 0.043409 0.753005 0.897081
O O12 0.500000 0.154436 0.750000
O O13 0.479562 0.101707 0.593561
O O14 0.500000 0.098224 0.250000
O O15 0.397383 0.031417 0.272043
O O16 0.500000 0.000000 0.500000
#
# Coordination Sequence:
#
# PCOD9257425 Si02
#       7
#     8   4   8   8   8   8   8
#     4   9  16  30  53  85 111 134 173 228 281 317
#     4  12  18  28  56  90 114 132 174 236 286 318
#     4  10  19  31  55  87 108 139 180 233 274 323
#     4  10  18  31  53  86 113 136 171 232 283 327
#     4  10  19  35  57  81 110 139 187 230 276 323
#     4   8  16  33  55  77 105 139 184 228 269 317
#     4  11  22  36  54  77 111 154 189 220 267 332
#
# _framework density 17.624314999999999
#
# number of rings (size 3 to 8) (size 9 to 14) (size 15 to 20)
#    0.000    2.154    3.077    5.077    0.000    0.000 
#    0.000    1.538    0.000    3.692    0.000    0.000 
#    0.000    0.000    0.000    0.000    0.000    0.000 
#
# Total GULP energy -144769.788469 kJ/mol
# GULP energy per Si atom -5568.068787 kJ/mol
# Density = 1.758420 g / cm^3
# Si number density = 17.624315 Si / 1000 Ang^3
#
#
#
# Elastic Constant Matrix: (Units=GPa)
#
#
# Indices 1 2 3 4 5 6 
#
# 1 45.0618 24.1481 23.6353 -0.0001 0.0098 -0.0001
# 2 24.1481 110.9887 15.3013 -0.0002 2.5724 -0.0002
# 3 23.6353 15.3013 57.0107 -0.0002 20.0620 -0.0003
# 4 -0.0001 -0.0002 -0.0002 33.4347 -0.0001 14.3484
# 5 0.0098 2.5724 20.0620 -0.0001 27.3630 -0.0001
# 6 -0.0001 -0.0002 -0.0003 14.3484 -0.0001 1.6327
#
#
#
# Elastic Compliance Matrix: (Units=1/GPa)
#
#
# Indices 1 2 3 4 5 6 
#
# 1 0.034177 -0.005345 -0.017395 0.000000 0.013244 0.000001
# 2 -0.005345 0.010226 -0.000258 0.000000 -0.000771 0.000000
# 3 -0.017395 -0.000258 0.033438 0.000001 -0.024485 -0.000002
# 4 0.000000 0.000000 0.000001 -0.010792 0.000000 0.094841
# 5 0.013244 -0.000771 -0.024485 0.000000 0.054565 0.000000
# 6 0.000001 0.000000 -0.000002 0.094841 0.000000 -0.221000
#
#
# Mechanical properties :
#
#
# Convention : Reuss Voigt Hill
#
# Bulk Modulus (GPa) = 31.40119 37.69227 34.54673
# Shear Modulus (GPa) = -116.88940 22.48452 -47.20244
#
# Velocity S-wave (km/s) = -8.15272 3.57566 -5.18080
# Velocity P-wave (km/s) = 8.41230 6.20323 4.01787
#
# Compressibility (1/GPa) = 0.03184593
#
# Stress axis : x y z
#
# Youngs Moduli (GPa) = 29.25955 97.78819 29.90645
#
# Poissons Ratio (x) = 0.52266 0.52022
# Poissons Ratio (y) = 0.15639 0.00771
# Poissons Ratio (z) = 0.50897 0.02520
#
# Static dielectric constant tensor:
#      x y z
#    x 1.561190 0.000000 0.030120 
#    y 0.000000 1.665890 0.000000 
#    z 0.030120 0.000000 1.649240 
# 
# From -- ./inp_files/215605.got.cif
#   From: 2010.05.17/outbox.cif.g08.bks.cpg/sg15_108_cif.got.tgz:215605.got - 2010.06.03 18:47:42.
