data_PCOD9257993
_publ_section_title
;
Structure prediction by ZEFSAII (Michael W. Deem and Ramdas Pophale) SiO2 
 PCOD9257993
Probable space group: C 2/C
;
_chemical_formula_sum "Si O2"
_cell_formula_units_Z 48
_cell_length_a 17.583049
_cell_length_b 15.971030
_cell_length_c 15.417539
_cell_angle_alpha 90.000000
_cell_angle_beta 24.506400
_cell_angle_gamma 90.000000
_cell_volume 1795.872741
_symmetry_space_group_name_H-M "C 2/C"
_symmetry_group_IT_number 15
_symmetry_cell_setting 'monoclinic'
loop_
_space_group_symop_operation_xyz
x,y,z
-x,y,1/2-z
-x,-y,-z
x,-y,1/2+z
1/2+x,1/2+y,z
1/2-x,1/2+y,1/2-z
1/2-x,1/2-y,-z
1/2+x,1/2-y,1/2+z
loop_
_atom_site_type_symbol
_atom_site_label
_atom_site_fract_x
_atom_site_fract_y
_atom_site_fract_z
Si Si1 0.362073 0.679922 0.328192
Si Si2 0.343585 0.387899 0.261220
Si Si3 0.691136 0.966047 0.258603
Si Si4 0.802678 0.570470 0.416654
Si Si5 0.954736 0.290026 0.654347
Si Si6 0.447255 0.822588 0.469441
O O1 0.500000 0.633778 0.250000
O O2 0.250000 0.750000 0.500000
O O3 0.206082 0.637120 0.433192
O O4 0.489215 0.732503 0.130533
O O5 0.334895 0.445075 0.185070
O O6 0.333584 0.436139 0.361840
O O7 0.477378 0.309362 0.131100
O O8 0.147938 0.338214 0.458245
O O9 0.627037 0.879112 0.282836
O O10 0.500000 0.000000 0.500000
O O11 0.745864 0.024823 0.122536
O O12 0.838452 0.667231 0.351222
O O13 0.000000 0.539092 0.250000
O O14 0.877617 0.312777 0.639154
#
# Coordination Sequence:
#
# PCOD9257993 Si02
#       6
#     8   8   8   8   8   8
#     4   9  19  34  49  84 119 151 202 244 289 345
#     4  10  21  36  61  93 118 153 199 251 299 352
#     4  11  19  35  55  90 116 150 198 236 303 352
#     4  10  19  34  55  86 119 152 194 247 291 349
#     4  10  19  34  57  89 114 151 196 251 299 343
#     4  10  18  32  57  82 119 155 194 253 294 354
#
# _framework density 26.727951999999998
#
# number of rings (size 3 to 8) (size 9 to 14) (size 15 to 20)
#    0.000    2.000    5.000    2.500    0.000    2.000 
#    0.000    0.000    0.000    1.000   17.333    0.000 
#    0.000    0.000    0.000    0.000    0.000    0.000 
#
# Total GULP energy -134347.856197 kJ/mol
# GULP energy per Si atom -5597.827342 kJ/mol
# Density = 2.666712 g / cm^3
# Si number density = 26.727952 Si / 1000 Ang^3
#
#
#
# Elastic Constant Matrix: (Units=GPa)
#
#
# Indices 1 2 3 4 5 6 
#
# 1 186.4026 42.6470 69.5094 0.0285 25.7263 -0.0062
# 2 42.6470 90.8295 37.5511 0.0294 19.4985 -0.0125
# 3 69.5094 37.5511 70.0672 0.0290 4.8614 -0.0153
# 4 0.0285 0.0294 0.0290 33.4957 -0.0171 6.6889
# 5 25.7263 19.4985 4.8614 -0.0171 39.1630 0.0038
# 6 -0.0062 -0.0125 -0.0153 6.6889 0.0038 42.3145
#
#
#
# Elastic Compliance Matrix: (Units=1/GPa)
#
#
# Indices 1 2 3 4 5 6 
#
# 1 0.009436 0.000551 -0.009287 -0.000003 -0.005320 -0.000001
# 2 0.000551 0.015816 -0.008525 -0.000011 -0.007178 0.000004
# 3 -0.009287 -0.008525 0.027574 -0.000006 0.006922 0.000006
# 4 -0.000003 -0.000011 -0.000006 0.030828 0.000022 -0.004873
# 5 -0.005320 -0.007178 0.006922 0.000022 0.031744 -0.000007
# 6 -0.000001 0.000004 0.000006 -0.004873 -0.000007 0.024403
#
#
# Mechanical properties :
#
#
# Convention : Reuss Voigt Hill
#
# Bulk Modulus (GPa) = 54.63320 71.85714 63.24517
# Shear Modulus (GPa) = 27.71243 36.16744 31.93994
#
# Velocity S-wave (km/s) = 3.22348 3.68254 3.46063
# Velocity P-wave (km/s) = 5.85997 6.71002 6.29935
#
# Compressibility (1/GPa) = 0.01830389
#
# Stress axis : x y z
#
# Youngs Moduli (GPa) = 105.97615 63.22559 36.26626
#
# Poissons Ratio (x) = -0.03484 0.33681
# Poissons Ratio (y) = -0.05841 0.30917
# Poissons Ratio (z) = 0.98422 0.53901
#
# Static dielectric constant tensor:
#      x y z
#    x 2.120330 0.000000 -0.037520 
#    y 0.000000 2.149880 0.000000 
#    z -0.037520 0.000000 2.113640 
# 
# From -- ./inp_files/163179.got.cif
#   From: 2010.05.17/outbox.cif.g08.bks.cpg/sg15_82_cif.got.tgz:163179.got - 2010.06.03 18:47:42.
