data_PCOD9257984
_publ_section_title
;
Structure prediction by ZEFSAII (Michael W. Deem and Ramdas Pophale) SiO2 
 PCOD9257984
Probable space group: C 2/C
;
_chemical_formula_sum "Si O2"
_cell_formula_units_Z 52
_cell_length_a 18.409218
_cell_length_b 22.250712
_cell_length_c 11.458755
_cell_angle_alpha 90.000000
_cell_angle_beta 30.754569
_cell_angle_gamma 90.000000
_cell_volume 2400.185532
_symmetry_space_group_name_H-M "C 2/C"
_symmetry_group_IT_number 15
_symmetry_cell_setting 'monoclinic'
loop_
_space_group_symop_operation_xyz
x,y,z
-x,y,1/2-z
-x,-y,-z
x,-y,1/2+z
1/2+x,1/2+y,z
1/2-x,1/2+y,1/2-z
1/2-x,1/2-y,-z
1/2+x,1/2-y,1/2+z
loop_
_atom_site_type_symbol
_atom_site_label
_atom_site_fract_x
_atom_site_fract_y
_atom_site_fract_z
Si Si1 0.284934 0.834531 0.199350
Si Si2 0.636362 0.898386 0.914104
Si Si3 0.000000 0.586138 0.250000
Si Si4 0.579516 0.640061 0.790254
Si Si5 0.202178 0.800722 0.903508
Si Si6 0.191276 0.597842 0.605398
Si Si7 0.240976 0.032050 0.461521
O O1 0.139986 0.854828 0.335502
O O2 0.306394 0.765446 0.134670
O O3 0.275820 0.849864 0.348139
O O4 0.409959 0.873033 0.964302
O O5 0.651968 0.834647 0.826081
O O6 0.723523 0.946278 0.718048
O O7 0.473795 0.918244 0.141941
O O8 0.692365 0.888530 0.967169
O O9 0.117652 0.547830 0.157114
O O10 0.666543 0.688128 0.588627
O O11 0.620467 0.575129 0.681785
O O12 0.419204 0.659527 0.992645
O O13 0.283638 0.538488 0.500291
#
# Coordination Sequence:
#
# PCOD9257984 Si02
#       7
#     8   8   4   8   8   8   8
#     4  11  22  33  62  91 120 153 204 250 297 352
#     4  10  22  38  59  83 124 163 192 245 307 350
#     4  10  18  32  56  94 114 150 194 258 306 334
#     4   9  21  38  62  90 118 159 197 250 305 343
#     4  10  21  40  61  84 126 157 200 245 300 364
#     4  11  23  36  59  93 117 159 203 244 300 360
#     4  10  20  36  61  87 121 148 199 258 300 350
#
# _framework density 21.664991000000001
#
# number of rings (size 3 to 8) (size 9 to 14) (size 15 to 20)
#    0.000    1.846    1.538    2.769    6.462    0.615 
#    0.000    1.538    6.769    0.000    0.000    0.000 
#    0.000    0.000    0.000    0.000    0.000    0.000 
#
# Total GULP energy -145266.917924 kJ/mol
# GULP energy per Si atom -5587.189151 kJ/mol
# Density = 2.161568 g / cm^3
# Si number density = 21.664991 Si / 1000 Ang^3
#
#
#
# Elastic Constant Matrix: (Units=GPa)
#
#
# Indices 1 2 3 4 5 6 
#
# 1 108.0797 1.0384 8.2668 -0.0012 13.3705 0.0017
# 2 1.0384 92.2379 11.3809 0.0057 -0.1966 0.0029
# 3 8.2668 11.3809 37.4190 0.0067 5.5947 0.0026
# 4 -0.0012 0.0057 0.0067 -3.7174 0.0012 -9.7981
# 5 13.3705 -0.1966 5.5947 0.0012 29.7955 -0.0027
# 6 0.0017 0.0029 0.0026 -9.7981 -0.0027 11.9810
#
#
#
# Elastic Compliance Matrix: (Units=1/GPa)
#
#
# Indices 1 2 3 4 5 6 
#
# 1 0.009885 0.000076 -0.001588 -0.000001 -0.004137 -0.000003
# 2 0.000076 0.011281 -0.003554 0.000005 0.000708 0.000002
# 3 -0.001588 -0.003554 0.028863 0.000020 -0.004730 0.000010
# 4 -0.000001 0.000005 0.000020 -0.085249 -0.000006 -0.069717
# 5 -0.004137 0.000708 -0.004730 -0.000006 0.036312 0.000004
# 6 -0.000003 0.000002 0.000010 -0.069717 0.000004 0.026451
#
#
# Mechanical properties :
#
#
# Convention : Reuss Voigt Hill
#
# Bulk Modulus (GPa) = 25.06459 31.01208 28.03833
# Shear Modulus (GPa) = 98.09113 22.08185 60.08649
#
# Velocity S-wave (km/s) = 6.73607 3.19602 5.27206
# Velocity P-wave (km/s) = 8.49081 5.28818 7.07314
#
# Compressibility (1/GPa) = 0.03989692
#
# Stress axis : x y z
#
# Youngs Moduli (GPa) = 101.16344 88.64749 34.64605
#
# Poissons Ratio (x) = -0.00673 0.05503
# Poissons Ratio (y) = -0.00768 0.12312
# Poissons Ratio (z) = 0.16069 0.31501
#
# Static dielectric constant tensor:
#      x y z
#    x 1.819310 0.000000 -0.007540 
#    y 0.000000 1.787150 0.000000 
#    z -0.007540 0.000000 1.766060 
# 
# From -- ./inp_files/107469.got.cif
#   From: 2010.05.17/outbox.cif.g08.bks.cpg/sg15_54_cif.got.tgz:107469.got - 2010.06.03 18:47:42.
