data_PCOD9257121
_publ_section_title
;
Structure prediction by ZEFSAII (Michael W. Deem and Ramdas Pophale) SiO2 
 PCOD9257121
Probable space group: C 2/C
;
_chemical_formula_sum "Si O2"
_cell_formula_units_Z 56
_cell_length_a 5.613731
_cell_length_b 23.195993
_cell_length_c 26.565356
_cell_angle_alpha 90.000000
_cell_angle_beta 121.890341
_cell_angle_gamma 90.000000
_cell_volume 2937.101653
_symmetry_space_group_name_H-M "C 2/C"
_symmetry_group_IT_number 15
_symmetry_cell_setting 'monoclinic'
loop_
_space_group_symop_operation_xyz
x,y,z
-x,y,1/2-z
-x,-y,-z
x,-y,1/2+z
1/2+x,1/2+y,z
1/2-x,1/2+y,1/2-z
1/2-x,1/2-y,-z
1/2+x,1/2-y,1/2+z
loop_
_atom_site_type_symbol
_atom_site_label
_atom_site_fract_x
_atom_site_fract_y
_atom_site_fract_z
Si Si1 0.827017 0.055217 0.781061
Si Si2 0.828290 0.805216 0.281061
Si Si3 0.690816 0.063447 0.474466
Si Si4 0.228098 0.125000 0.541239
Si Si5 0.693049 0.965144 0.090267
Si Si6 0.491713 0.284856 0.409733
Si Si7 0.568485 0.813447 0.525534
O O1 0.500000 0.037410 0.750000
O O2 0.829514 0.125000 0.781805
O O3 0.000000 0.037653 0.750000
O O4 0.016344 0.033522 0.848362
O O5 0.500000 0.787653 0.250000
O O6 0.000000 0.787410 0.250000
O O7 0.975466 0.783522 0.348362
O O8 0.729139 0.037517 0.534543
O O9 0.532855 0.125000 0.463143
O O10 0.008824 0.078006 0.496028
O O11 0.509757 0.019364 0.421736
O O12 0.522791 0.093695 0.582858
O O13 0.221313 0.171994 0.496028
O O14 0.141501 0.156305 0.582858
O O15 0.348922 0.230636 0.421736
O O16 0.806424 0.287517 0.465457
#
# Coordination Sequence:
#
# PCOD9257121 Si02
#       7
#     8   8   8   8   8   8   8
#     4  10  22  36  54  81 116 150 189 234 288 346
#     4  10  22  36  54  81 116 150 189 234 288 346
#     4   9  19  34  52  81 112 147 187 233 293 349
#     4  10  18  30  54  84 114 149 186 234 296 360
#     4  10  20  33  54  79 114 148 186 238 290 351
#     4  10  20  33  54  79 114 148 186 238 290 351
#     4   9  19  34  52  81 112 147 187 233 293 349
#
# _framework density 19.066414000000002
#
# number of rings (size 3 to 8) (size 9 to 14) (size 15 to 20)
#    0.000    2.286    0.000    3.429   10.000    0.000 
#    0.000    0.000    0.000    0.857    0.000    2.000 
#    0.000    0.000    0.000    0.000    0.000    0.000 
#
# Total GULP energy -156134.049097 kJ/mol
# GULP energy per Si atom -5576.216039 kJ/mol
# Density = 1.902302 g / cm^3
# Si number density = 19.066414 Si / 1000 Ang^3
#
#
#
# Elastic Constant Matrix: (Units=GPa)
#
#
# Indices 1 2 3 4 5 6 
#
# 1 103.9204 23.4337 57.3933 0.0000 0.7571 0.0000
# 2 23.4337 53.0311 35.2801 0.0000 0.7953 0.0000
# 3 57.3933 35.2801 113.0106 0.0000 -0.1472 0.0000
# 4 0.0000 0.0000 0.0000 15.0131 0.0000 -0.7131
# 5 0.7571 0.7953 -0.1472 0.0000 28.8438 0.0000
# 6 0.0000 0.0000 0.0000 -0.7131 0.0000 25.6367
#
#
#
# Elastic Compliance Matrix: (Units=1/GPa)
#
#
# Indices 1 2 3 4 5 6 
#
# 1 0.013508 -0.001767 -0.006309 0.000000 -0.000338 0.000000
# 2 -0.001767 0.024045 -0.006610 0.000000 -0.000650 0.000000
# 3 -0.006309 -0.006610 0.014117 0.000000 0.000420 0.000000
# 4 0.000000 0.000000 0.000000 0.066697 0.000000 0.001855
# 5 -0.000338 -0.000650 0.000420 0.000000 0.034698 0.000000
# 6 0.000000 0.000000 0.000000 0.001855 0.000000 0.039058
#
#
# Mechanical properties :
#
#
# Convention : Reuss Voigt Hill
#
# Bulk Modulus (GPa) = 44.84678 55.79738 50.32208
# Shear Modulus (GPa) = 21.84101 24.15571 22.99836
#
# Velocity S-wave (km/s) = 3.38823 3.56325 3.47684
# Velocity P-wave (km/s) = 6.23532 6.80127 6.52443
#
# Compressibility (1/GPa) = 0.02229814
#
# Stress axis : x y z
#
# Youngs Moduli (GPa) = 74.03053 41.58918 70.83711
#
# Poissons Ratio (x) = 0.07347 0.44691
# Poissons Ratio (y) = 0.13079 0.46823
# Poissons Ratio (z) = 0.46706 0.27490
#
# Static dielectric constant tensor:
#      x y z
#    x 1.775570 0.000000 -0.008980 
#    y 0.000000 1.715060 0.000000 
#    z -0.008980 0.000000 1.641730 
# 
# From -- ./inp_files/261750.got.cif
#   From: 2010.05.17/outbox.cif.g08.bks.cpg/sg15_131_cif.got.tgz:261750.got - 2010.06.03 18:47:42.
