data_PCOD9257489
_publ_section_title
;
Structure prediction by ZEFSAII (Michael W. Deem and Ramdas Pophale) SiO2 
 PCOD9257489
Probable space group: C 2/C
;
_chemical_formula_sum "Si O2"
_cell_formula_units_Z 60
_cell_length_a 9.198823
_cell_length_b 16.054492
_cell_length_c 26.915049
_cell_angle_alpha 90.000000
_cell_angle_beta 134.332667
_cell_angle_gamma 90.000000
_cell_volume 2843.209368
_symmetry_space_group_name_H-M "C 2/C"
_symmetry_group_IT_number 15
_symmetry_cell_setting 'monoclinic'
loop_
_space_group_symop_operation_xyz
x,y,z
-x,y,1/2-z
-x,-y,-z
x,-y,1/2+z
1/2+x,1/2+y,z
1/2-x,1/2+y,1/2-z
1/2-x,1/2-y,-z
1/2+x,1/2-y,1/2+z
loop_
_atom_site_type_symbol
_atom_site_label
_atom_site_fract_x
_atom_site_fract_y
_atom_site_fract_z
Si Si1 0.484407 0.760875 0.972221
Si Si2 0.190986 0.176733 0.110242
Si Si3 0.924671 0.972689 0.536479
Si Si4 0.001290 0.545320 0.604511
Si Si5 0.983106 0.286469 0.142977
Si Si6 0.000000 0.805345 0.750000
Si Si7 0.678008 0.932766 0.052461
Si Si8 0.450715 0.852082 0.863250
O O1 0.247363 0.742931 0.924107
O O2 0.501172 0.781898 0.917418
O O3 0.600276 0.692125 0.032642
O O4 0.580332 0.844778 0.017138
O O5 0.430995 0.172771 0.158364
O O6 0.086538 0.089384 0.099464
O O7 0.119224 0.245412 0.132160
O O8 0.708166 0.928736 0.473781
O O9 0.864952 0.045115 0.561351
O O10 0.000000 0.000000 0.500000
O O11 0.197023 0.558607 0.616042
O O12 0.977713 0.446866 0.608403
O O13 0.007426 0.613678 0.648900
O O14 0.027920 0.249594 0.207491
O O15 0.791914 0.856192 0.695977
O O16 0.500000 0.000000 0.000000
#
# Coordination Sequence:
#
# PCOD9257489 Si02
#       8
#     8   8   8   8   8   4   8   8
#     4  11  19  35  61  99 134 167 191 245 322 389
#     4  12  22  35  64 101 128 163 197 258 324 381
#     4  11  20  33  55 101 141 157 186 244 321 383
#     4  11  20  38  63  91 123 163 200 251 307 379
#     4  11  23  41  66  89 127 163 217 258 312 372
#     4  10  28  50  62  80 118 176 220 270 306 362
#     4  10  18  31  55  90 133 164 191 228 306 387
#     4  11  24  42  63  89 128 166 211 255 312 374
#
# _framework density 21.102913999999998
#
# number of rings (size 3 to 8) (size 9 to 14) (size 15 to 20)
#    0.000    1.067    6.667    2.400    1.867    0.533 
#    0.000    2.667    0.000    0.000    0.000    0.000 
#    0.000    0.000    0.000    0.000    0.000    0.000 
#
# Total GULP energy -167170.403257 kJ/mol
# GULP energy per Si atom -5572.346775 kJ/mol
# Density = 2.105488 g / cm^3
# Si number density = 21.102914 Si / 1000 Ang^3
#
#
#
# Elastic Constant Matrix: (Units=GPa)
#
#
# Indices 1 2 3 4 5 6 
#
# 1 150.4686 29.8823 15.3631 0.0000 -3.5408 0.0000
# 2 29.8823 84.1824 3.2210 0.0000 -9.0531 0.0000
# 3 15.3631 3.2210 29.2051 0.0000 1.1405 0.0000
# 4 0.0000 0.0000 0.0000 7.4176 0.0000 0.5820
# 5 -3.5408 -9.0531 1.1405 0.0000 15.1485 0.0000
# 6 0.0000 0.0000 0.0000 0.5820 0.0000 23.8867
#
#
#
# Elastic Compliance Matrix: (Units=1/GPa)
#
#
# Indices 1 2 3 4 5 6 
#
# 1 0.007528 -0.002470 -0.003710 0.000000 0.000563 0.000000
# 2 -0.002470 0.013590 -0.000496 0.000000 0.007582 0.000000
# 3 -0.003710 -0.000496 0.036399 0.000000 -0.003904 0.000000
# 4 0.000000 0.000000 0.000000 0.135072 0.000000 -0.003291
# 5 0.000563 0.007582 -0.003904 0.000000 0.070969 0.000000
# 6 0.000000 0.000000 0.000000 -0.003291 0.000000 0.041944
#
#
# Mechanical properties :
#
#
# Convention : Reuss Voigt Hill
#
# Bulk Modulus (GPa) = 22.64138 40.08765 31.36452
# Shear Modulus (GPa) = 14.98907 23.64990 19.31948
#
# Velocity S-wave (km/s) = 2.66801 3.35131 3.02899
# Velocity P-wave (km/s) = 4.49926 5.83203 5.20845
#
# Compressibility (1/GPa) = 0.04416693
#
# Stress axis : x y z
#
# Youngs Moduli (GPa) = 132.82965 73.58340 27.47311
#
# Poissons Ratio (x) = 0.18174 0.10192
# Poissons Ratio (y) = 0.32807 0.01362
# Poissons Ratio (z) = 0.49278 0.03647
#
# Static dielectric constant tensor:
#      x y z
#    x 1.854540 0.000000 -0.019170 
#    y 0.000000 1.787380 0.000000 
#    z -0.019170 0.000000 1.805270 
# 
# From -- ./inp_files/289602.got.cif
#   From: 2010.05.17/outbox.cif.g08.bks.cpg/sg15_145_cif.got.tgz:289602.got - 2010.06.03 18:47:42.
