data_PCOD9257200
_publ_section_title
;
Structure prediction by ZEFSAII (Michael W. Deem and Ramdas Pophale) SiO2 
 PCOD9257200
Probable space group: C 2/C
;
_chemical_formula_sum "Si O2"
_cell_formula_units_Z 60
_cell_length_a 10.795515
_cell_length_b 15.123897
_cell_length_c 19.280354
_cell_angle_alpha 90.000000
_cell_angle_beta 120.520052
_cell_angle_gamma 90.000000
_cell_volume 2711.770317
_symmetry_space_group_name_H-M "C 2/C"
_symmetry_group_IT_number 15
_symmetry_cell_setting 'monoclinic'
loop_
_space_group_symop_operation_xyz
x,y,z
-x,y,1/2-z
-x,-y,-z
x,-y,1/2+z
1/2+x,1/2+y,z
1/2-x,1/2+y,1/2-z
1/2-x,1/2-y,-z
1/2+x,1/2-y,1/2+z
loop_
_atom_site_type_symbol
_atom_site_label
_atom_site_fract_x
_atom_site_fract_y
_atom_site_fract_z
Si Si1 0.000000 0.562674 0.250000
Si Si2 0.750767 0.045191 0.843718
Si Si3 0.155409 0.343012 0.184473
Si Si4 0.056937 0.791448 0.072070
Si Si5 0.914038 0.762118 0.567887
Si Si6 0.600148 0.626254 0.843223
Si Si7 0.026409 0.934954 0.666656
Si Si8 0.782343 0.335196 0.787755
O O1 0.893458 0.502456 0.173168
O O2 0.900023 0.619588 0.272033
O O3 0.702472 0.084834 0.754595
O O4 0.828986 0.127288 0.901685
O O5 0.869673 0.969345 0.866276
O O6 0.238164 0.364894 0.137230
O O7 0.219232 0.250632 0.230956
O O8 0.988005 0.320329 0.127832
O O9 0.141331 0.704982 0.123288
O O10 0.947011 0.821436 0.101229
O O11 0.998560 0.774466 0.979265
O O12 0.750000 0.750000 0.500000
O O13 0.935329 0.851232 0.617326
O O14 0.500000 0.657667 0.750000
O O15 0.559230 0.523841 0.841569
O O16 0.145570 0.900297 0.756061
#
# Coordination Sequence:
#
# PCOD9257200 Si02
#       8
#     4   8   8   8   8   8   8   8
#     4  10  18  30  60  94 122 140 200 272 304 342
#     4   9  19  35  62  93 114 158 203 266 306 354
#     4  10  20  40  63  87 125 160 209 257 308 361
#     4  10  21  38  60  88 123 167 206 246 318 375
#     4  11  26  43  56  86 135 176 203 242 313 396
#     4  11  18  36  67  93 116 151 212 277 308 351
#     4   9  20  37  61  88 117 156 208 255 305 364
#     4   9  17  35  59  91 115 156 208 260 293 360
#
# _framework density 22.125768999999998
#
# number of rings (size 3 to 8) (size 9 to 14) (size 15 to 20)
#    0.000    2.133    4.000    0.800    1.867    3.733 
#    0.000    2.000    0.000    0.000    0.000    0.000 
#    0.000    0.000    0.000    0.000    0.000    0.000 
#
# Total GULP energy -167515.349422 kJ/mol
# GULP energy per Si atom -5583.844981 kJ/mol
# Density = 2.207541 g / cm^3
# Si number density = 22.125769 Si / 1000 Ang^3
#
#
#
# Elastic Constant Matrix: (Units=GPa)
#
#
# Indices 1 2 3 4 5 6 
#
# 1 75.9878 20.7568 6.9588 0.0000 12.8667 0.0000
# 2 20.7568 78.1729 15.6747 0.0000 6.0232 0.0000
# 3 6.9588 15.6747 45.8559 0.0000 -5.5895 0.0000
# 4 0.0000 0.0000 0.0000 17.2925 0.0000 -0.5929
# 5 12.8667 6.0232 -5.5895 0.0000 38.2819 0.0000
# 6 0.0000 0.0000 0.0000 -0.5929 0.0000 36.2359
#
#
#
# Elastic Compliance Matrix: (Units=1/GPa)
#
#
# Indices 1 2 3 4 5 6 
#
# 1 0.015024 -0.003270 -0.001746 0.000000 -0.004790 0.000000
# 2 -0.003270 0.014768 -0.004786 0.000000 -0.001923 0.000000
# 3 -0.001746 -0.004786 0.024304 0.000000 0.004889 0.000000
# 4 0.000000 0.000000 0.000000 0.057861 0.000000 0.000947
# 5 -0.004790 -0.001923 0.004889 0.000000 0.028748 0.000000
# 6 0.000000 0.000000 0.000000 0.000947 0.000000 0.027612
#
#
# Mechanical properties :
#
#
# Convention : Reuss Voigt Hill
#
# Bulk Modulus (GPa) = 28.99233 31.86636 30.42935
# Shear Modulus (GPa) = 25.07254 28.80381 26.93817
#
# Velocity S-wave (km/s) = 3.36993 3.61199 3.49306
# Velocity P-wave (km/s) = 5.31731 5.64172 5.48191
#
# Compressibility (1/GPa) = 0.03449188
#
# Stress axis : x y z
#
# Youngs Moduli (GPa) = 66.55905 67.71225 41.14482
#
# Poissons Ratio (x) = 0.22143 0.07184
# Poissons Ratio (y) = 0.21766 0.19694
# Poissons Ratio (z) = 0.11622 0.32410
#
# Static dielectric constant tensor:
#      x y z
#    x 1.889110 0.000000 -0.022350 
#    y 0.000000 1.811900 0.000000 
#    z -0.022350 0.000000 1.815770 
# 
# From -- ./inp_files/238797.got.cif
#   From: 2010.05.17/outbox.cif.g08.bks.cpg/sg15_120_cif.got.tgz:238797.got - 2010.06.03 18:47:42.
