data_PCOD9257045
_publ_section_title
;
Structure prediction by ZEFSAII (Michael W. Deem and Ramdas Pophale) SiO2 
 PCOD9257045
Probable space group: C 2/C
;
_chemical_formula_sum "Si O2"
_cell_formula_units_Z 60
_cell_length_a 16.791279
_cell_length_b 25.192020
_cell_length_c 8.742729
_cell_angle_alpha 90.000000
_cell_angle_beta 109.745339
_cell_angle_gamma 90.000000
_cell_volume 3480.785981
_symmetry_space_group_name_H-M "C 2/C"
_symmetry_group_IT_number 15
_symmetry_cell_setting 'monoclinic'
loop_
_space_group_symop_operation_xyz
x,y,z
-x,y,1/2-z
-x,-y,-z
x,-y,1/2+z
1/2+x,1/2+y,z
1/2-x,1/2+y,1/2-z
1/2-x,1/2-y,-z
1/2+x,1/2-y,1/2+z
loop_
_atom_site_type_symbol
_atom_site_label
_atom_site_fract_x
_atom_site_fract_y
_atom_site_fract_z
Si Si1 0.500000 0.878450 0.750000
Si Si2 0.900118 0.329363 0.176717
Si Si3 0.763161 0.149007 0.403936
Si Si4 0.343859 0.054980 0.274473
Si Si5 0.898335 0.549415 0.659920
Si Si6 0.886085 0.692873 0.992704
Si Si7 0.599773 0.699059 0.812041
Si Si8 0.300631 0.234064 0.377376
O O1 0.577807 0.914555 0.752895
O O2 0.531505 0.841929 0.910666
O O3 0.878707 0.390563 0.196757
O O4 0.867795 0.298323 0.303997
O O5 0.000000 0.324556 0.250000
O O6 0.868172 0.306891 0.996255
O O7 0.737060 0.092862 0.310046
O O8 0.691049 0.162098 0.481117
O O9 0.848137 0.155281 0.557759
O O10 0.752878 0.196770 0.273284
O O11 0.371384 0.048953 0.466758
O O12 0.344648 0.995933 0.207555
O O13 0.000000 0.540603 0.750000
O O14 0.895806 0.747668 0.085041
O O15 0.500000 0.684964 0.750000
O O16 0.649001 0.719567 0.686828
O O17 0.250000 0.250000 0.500000
#
# Coordination Sequence:
#
# PCOD9257045 Si02
#       8
#     4   8   8   8   8   8   8   8
#     4  10  18  30  52  72 112 152 182 226 254 324
#     4  11  21  31  50  80 114 149 186 227 265 325
#     4  10  22  37  52  75 110 145 183 234 275 327
#     4  11  22  35  49  78 112 145 188 227 270 326
#     4  11  22  33  51  76 111 147 189 223 271 325
#     4  10  19  32  52  77 109 150 184 212 276 325
#     4  11  21  37  59  81 107 150 193 227 280 342
#     4  11  21  37  55  81 118 146 187 230 283 330
#
# _framework density 17.237486000000001
#
# number of rings (size 3 to 8) (size 9 to 14) (size 15 to 20)
#    0.000    1.333    2.667    6.000    5.600    0.000 
#    0.000    0.000    0.000    0.000    0.000    0.933 
#    0.000    0.000    0.000    0.000    0.000    0.000 
#
# Total GULP energy -167158.380095 kJ/mol
# GULP energy per Si atom -5571.946003 kJ/mol
# Density = 1.719825 g / cm^3
# Si number density = 17.237486 Si / 1000 Ang^3
#
#
#
# Elastic Constant Matrix: (Units=GPa)
#
#
# Indices 1 2 3 4 5 6 
#
# 1 72.3917 28.8716 44.4967 0.0000 6.4119 0.0000
# 2 28.8716 57.8878 29.6263 0.0000 10.2740 0.0000
# 3 44.4967 29.6263 115.2498 0.0000 5.7258 0.0000
# 4 0.0000 0.0000 0.0000 19.0130 0.0000 -3.7171
# 5 6.4119 10.2740 5.7258 0.0000 34.7874 0.0000
# 6 0.0000 0.0000 0.0000 -3.7171 0.0000 15.9669
#
#
#
# Elastic Compliance Matrix: (Units=1/GPa)
#
#
# Indices 1 2 3 4 5 6 
#
# 1 0.020356 -0.006935 -0.006041 0.000000 -0.000709 0.000000
# 2 -0.006935 0.023184 -0.003031 0.000000 -0.005070 0.000000
# 3 -0.006041 -0.003031 0.011785 0.000000 0.000069 0.000000
# 4 0.000000 0.000000 0.000000 0.055103 0.000000 0.012828
# 5 -0.000709 -0.005070 0.000069 0.000000 0.030363 0.000000
# 6 0.000000 0.000000 0.000000 0.012828 0.000000 0.065616
#
#
# Mechanical properties :
#
#
# Convention : Reuss Voigt Hill
#
# Bulk Modulus (GPa) = 42.89624 50.16870 46.53247
# Shear Modulus (GPa) = 20.30950 23.45580 21.88265
#
# Velocity S-wave (km/s) = 3.43624 3.69283 3.56684
# Velocity P-wave (km/s) = 6.37833 6.88115 6.63451
#
# Compressibility (1/GPa) = 0.02331207
#
# Stress axis : x y z
#
# Youngs Moduli (GPa) = 49.12658 43.13264 84.85471
#
# Poissons Ratio (x) = 0.29911 0.51262
# Poissons Ratio (y) = 0.34067 0.25715
# Poissons Ratio (z) = 0.29678 0.13071
#
# Static dielectric constant tensor:
#      x y z
#    x 1.655450 0.000000 0.004920 
#    y 0.000000 1.646610 0.000000 
#    z 0.004920 0.000000 1.648460 
# 
# From -- ./inp_files/51289.got.cif
#   From: 2010.05.17/outbox.cif.g08.bks.cpg/sg15_26_cif.got.tgz:51289.got - 2010.06.03 18:47:42.
