data_PCOD9257012
_publ_section_title
;
Structure prediction by ZEFSAII (Michael W. Deem and Ramdas Pophale) SiO2 
 PCOD9257012
Probable space group: C 2/C
;
_chemical_formula_sum "Si O2"
_cell_formula_units_Z 48
_cell_length_a 21.178629
_cell_length_b 8.854840
_cell_length_c 16.463695
_cell_angle_alpha 90.000000
_cell_angle_beta 126.800711
_cell_angle_gamma 90.000000
_cell_volume 2472.228932
_symmetry_space_group_name_H-M "C 2/C"
_symmetry_group_IT_number 15
_symmetry_cell_setting 'monoclinic'
loop_
_space_group_symop_operation_xyz
x,y,z
-x,y,1/2-z
-x,-y,-z
x,-y,1/2+z
1/2+x,1/2+y,z
1/2-x,1/2+y,1/2-z
1/2-x,1/2-y,-z
1/2+x,1/2-y,1/2+z
loop_
_atom_site_type_symbol
_atom_site_label
_atom_site_fract_x
_atom_site_fract_y
_atom_site_fract_z
Si Si1 0.351140 0.773417 0.650987
Si Si2 0.260224 0.977773 0.167177
Si Si3 0.606423 0.370518 0.567600
Si Si4 0.818852 0.378496 0.454250
Si Si5 0.433824 0.363271 0.359598
Si Si6 0.695173 0.166734 0.142260
O O1 0.272359 0.671216 0.605188
O O2 0.362741 0.806747 0.565591
O O3 0.417676 0.693987 0.756243
O O4 0.326717 0.937848 0.667386
O O5 0.255478 0.798787 0.164917
O O6 0.173565 0.034143 0.071123
O O7 0.268667 0.054633 0.262307
O O8 0.643946 0.204560 0.595569
O O9 0.522936 0.358829 0.458892
O O10 0.593318 0.465778 0.639752
O O11 0.826559 0.556550 0.448186
O O12 0.378278 0.253608 0.372211
#
# Coordination Sequence:
#
# PCOD9257012 Si02
#       6
#     8   8   8   8   8   8
#     4   9  19  33  48  72 102 131 165 204 252 299
#     4   9  17  31  50  73 100 131 169 208 245 293
#     4   9  17  31  51  73  98 129 168 201 241 298
#     4  10  19  31  49  73 101 131 165 207 251 297
#     4   9  18  32  51  73  98 131 168 204 245 297
#     4  10  18  30  51  74  99 131 169 211 248 290
#
# _framework density 19.415676999999999
#
# number of rings (size 3 to 8) (size 9 to 14) (size 15 to 20)
#    0.000    2.667    0.000    4.000    0.000    2.000 
#    0.000    0.000    0.000    0.000    0.000   18.667 
#    0.000    0.000    0.000    0.000    0.000    0.000 
#
# Total GULP energy -133613.362610 kJ/mol
# GULP energy per Si atom -5567.223442 kJ/mol
# Density = 1.937149 g / cm^3
# Si number density = 19.415677 Si / 1000 Ang^3
#
#
#
# Elastic Constant Matrix: (Units=GPa)
#
#
# Indices 1 2 3 4 5 6 
#
# 1 35.5400 21.9670 24.4714 0.0000 2.9690 0.0000
# 2 21.9670 136.0852 46.8865 0.0000 -8.5950 0.0000
# 3 24.4714 46.8865 108.1488 0.0000 2.3240 0.0000
# 4 0.0000 0.0000 0.0000 25.8225 0.0000 -0.4029
# 5 2.9690 -8.5950 2.3240 0.0000 23.9656 0.0000
# 6 0.0000 0.0000 0.0000 -0.4029 0.0000 14.5657
#
#
#
# Elastic Compliance Matrix: (Units=1/GPa)
#
#
# Indices 1 2 3 4 5 6 
#
# 1 0.035220 -0.003883 -0.006175 0.000000 -0.005157 0.000000
# 2 -0.003883 0.009365 -0.003270 0.000000 0.004157 0.000000
# 3 -0.006175 -0.003270 0.012096 0.000000 -0.001581 0.000000
# 4 0.000000 0.000000 0.000000 0.038743 0.000000 0.001072
# 5 -0.005157 0.004157 -0.001581 0.000000 0.044009 0.000000
# 6 0.000000 0.000000 0.000000 0.001072 0.000000 0.068684
#
#
# Mechanical properties :
#
#
# Convention : Reuss Voigt Hill
#
# Bulk Modulus (GPa) = 33.30828 51.82485 42.56657
# Shear Modulus (GPa) = 20.42633 25.30070 22.86352
#
# Velocity S-wave (km/s) = 3.24706 3.61377 3.43531
# Velocity P-wave (km/s) = 5.59021 6.64550 6.14057
#
# Compressibility (1/GPa) = 0.03002256
#
# Stress axis : x y z
#
# Youngs Moduli (GPa) = 28.39267 106.78575 82.67456
#
# Poissons Ratio (x) = 0.41470 0.51052
# Poissons Ratio (y) = 0.11026 0.27038
# Poissons Ratio (z) = 0.17533 0.34924
#
# Static dielectric constant tensor:
#      x y z
#    x 1.699940 0.000000 -0.015910 
#    y 0.000000 1.713780 0.000000 
#    z -0.015910 0.000000 1.761240 
# 
# From -- ./inp_files/213554.got.cif
#   From: 2010.05.17/outbox.cif.g08.bks.cpg/sg15_107_cif.got.tgz:213554.got - 2010.06.03 18:47:42.
