data_PCOD9257871
_publ_section_title
;
Structure prediction by ZEFSAII (Michael W. Deem and Ramdas Pophale) SiO2 
 PCOD9257871
Probable space group: C 2/C
;
_chemical_formula_sum "Si O2"
_cell_formula_units_Z 60
_cell_length_a 5.464599
_cell_length_b 29.852397
_cell_length_c 14.037007
_cell_angle_alpha 90.000000
_cell_angle_beta 102.343781
_cell_angle_gamma 90.000000
_cell_volume 2236.940109
_symmetry_space_group_name_H-M "C 2/C"
_symmetry_group_IT_number 15
_symmetry_cell_setting 'monoclinic'
loop_
_space_group_symop_operation_xyz
x,y,z
-x,y,1/2-z
-x,-y,-z
x,-y,1/2+z
1/2+x,1/2+y,z
1/2-x,1/2+y,1/2-z
1/2-x,1/2-y,-z
1/2+x,1/2-y,1/2+z
loop_
_atom_site_type_symbol
_atom_site_label
_atom_site_fract_x
_atom_site_fract_y
_atom_site_fract_z
Si Si1 0.166328 0.032385 0.636839
Si Si2 0.314820 0.959171 0.509280
Si Si3 0.612946 0.697707 0.363481
Si Si4 0.243370 0.130722 0.639125
Si Si5 0.865037 0.397170 0.843112
Si Si6 0.000000 0.971728 0.750000
Si Si7 0.236938 0.334715 0.138446
Si Si8 0.610732 0.768397 0.861162
O O1 0.310709 0.078178 0.632040
O O2 0.884783 0.048409 0.589336
O O3 0.174331 0.985123 0.582293
O O4 0.208564 0.009516 0.741007
O O5 0.438566 0.915173 0.563026
O O6 0.500000 0.000000 0.500000
O O7 0.500000 0.712307 0.250000
O O8 0.717604 0.647554 0.358884
O O9 0.362751 0.704037 0.406058
O O10 0.864063 0.726191 0.405709
O O11 0.254172 0.145223 0.752079
O O12 0.444057 0.157726 0.593708
O O13 0.954699 0.142418 0.594737
O O14 0.662528 0.436901 0.823515
O O15 0.000000 0.393417 0.750000
O O16 0.303827 0.282541 0.143876
O O17 0.500000 0.784509 0.750000
#
# Coordination Sequence:
#
# PCOD9257871 Si02
#       8
#     8   8   8   8   8   4   8   8
#     4  11  25  42  62  95 121 178 220 269 329 398
#     4  11  25  44  64  86 130 176 223 269 333 394
#     4  10  21  32  56  88 129 161 208 263 315 387
#     4  10  21  33  57  85 126 158 213 252 321 374
#     4  12  23  40  61  95 126 166 218 278 324 378
#     4  12  22  38  66  90 130 158 220 270 334 380
#     4  10  19  34  55  94 128 163 196 270 322 392
#     4  10  18  32  54  86 134 162 197 255 338 384
#
# _framework density 26.822355000000002
#
# number of rings (size 3 to 8) (size 9 to 14) (size 15 to 20)
#    0.000    1.333    4.667    2.800    5.600    2.133 
#    0.000    0.000    0.000    0.000    0.000    5.600 
#    0.000    0.000    0.000    0.000    0.000    0.000 
#
# Total GULP energy -167373.294871 kJ/mol
# GULP energy per Si atom -5579.109829 kJ/mol
# Density = 2.676131 g / cm^3
# Si number density = 26.822355 Si / 1000 Ang^3
#
#
#
# Elastic Constant Matrix: (Units=GPa)
#
#
# Indices 1 2 3 4 5 6 
#
# 1 216.5728 78.4453 8.2386 0.0000 29.2629 0.0000
# 2 78.4453 174.4173 27.4730 0.0000 10.8034 0.0000
# 3 8.2386 27.4730 61.5879 0.0000 6.8468 0.0000
# 4 0.0000 0.0000 0.0000 34.3658 0.0000 -0.6681
# 5 29.2629 10.8034 6.8468 0.0000 10.7996 0.0000
# 6 0.0000 0.0000 0.0000 -0.6681 0.0000 70.4716
#
#
#
# Elastic Compliance Matrix: (Units=1/GPa)
#
#
# Indices 1 2 3 4 5 6 
#
# 1 0.008510 -0.002882 0.002571 0.000000 -0.021805 0.000000
# 2 -0.002882 0.007379 -0.003177 0.000000 0.002441 0.000000
# 3 0.002571 -0.003177 0.019076 0.000000 -0.015883 0.000000
# 4 0.000000 0.000000 0.000000 0.029104 0.000000 0.000276
# 5 -0.021805 0.002441 -0.015883 0.000000 0.159307 0.000000
# 6 0.000000 0.000000 0.000000 0.000276 0.000000 0.014193
#
#
# Mechanical properties :
#
#
# Convention : Reuss Voigt Hill
#
# Bulk Modulus (GPa) = 35.72861 75.65467 55.69164
# Shear Modulus (GPa) = 19.69487 45.68880 32.69184
#
# Velocity S-wave (km/s) = 2.71268 4.13169 3.49496
# Velocity P-wave (km/s) = 4.81258 7.14340 6.09053
#
# Compressibility (1/GPa) = 0.02798877
#
# Stress axis : x y z
#
# Youngs Moduli (GPa) = 117.51381 135.52552 52.42170
#
# Poissons Ratio (x) = 0.39054 -0.13479
# Poissons Ratio (y) = 0.33863 0.16656
# Poissons Ratio (z) = -0.30216 0.43062
#
# Static dielectric constant tensor:
#      x y z
#    x 1.410730 0.000000 0.862960 
#    y 0.000000 1.937000 0.000000 
#    z 0.862960 0.000000 1.271050 
# 
# From -- ./inp_files/186747.got.cif
#   From: 2010.05.17/outbox.cif.g08.bks.cpg/sg15_94_cif.got.tgz:186747.got - 2010.06.03 18:47:42.
