data_PCOD9257215
_publ_section_title
;
Structure prediction by ZEFSAII (Michael W. Deem and Ramdas Pophale) SiO2 
 PCOD9257215
Probable space group: C 2/C
;
_chemical_formula_sum "Si O2"
_cell_formula_units_Z 52
_cell_length_a 24.942813
_cell_length_b 6.907066
_cell_length_c 14.121506
_cell_angle_alpha 90.000000
_cell_angle_beta 58.116943
_cell_angle_gamma 90.000000
_cell_volume 2065.823295
_symmetry_space_group_name_H-M "C 2/C"
_symmetry_group_IT_number 15
_symmetry_cell_setting 'monoclinic'
loop_
_space_group_symop_operation_xyz
x,y,z
-x,y,1/2-z
-x,-y,-z
x,-y,1/2+z
1/2+x,1/2+y,z
1/2-x,1/2+y,1/2-z
1/2-x,1/2-y,-z
1/2+x,1/2-y,1/2+z
loop_
_atom_site_type_symbol
_atom_site_label
_atom_site_fract_x
_atom_site_fract_y
_atom_site_fract_z
Si Si1 0.216997 0.269676 0.314204
Si Si2 0.071090 0.090516 0.029159
Si Si3 0.500000 0.112672 0.250000
Si Si4 0.056213 0.047800 0.821010
Si Si5 0.884845 0.655269 0.461190
Si Si6 0.313519 0.407450 0.379720
Si Si7 0.208201 0.132135 0.925514
O O1 0.156836 0.394639 0.406573
O O2 0.274940 0.330010 0.327453
O O3 0.201634 0.055538 0.363462
O O4 0.238744 0.261411 0.185276
O O5 0.083093 0.863193 0.043246
O O6 0.135245 0.200945 0.999283
O O7 0.064894 0.100601 0.922248
O O8 0.999821 0.110085 0.135885
O O9 0.461771 0.255053 0.215721
O O10 0.442692 0.027066 0.366885
O O11 0.122700 0.988180 0.714648
O O12 0.835855 0.724086 0.424547
O O13 0.276300 0.549724 0.485515
#
# Coordination Sequence:
#
# PCOD9257215 Si02
#       7
#     8   8   4   8   8   8   8
#     4  10  18  31  46  66  92 119 149 190 224 267
#     4   8  14  23  39  64  89 115 139 185 230 259
#     4   8  14  22  36  66  84 112 148 192 218 262
#     4   9  13  22  40  63  93 112 143 186 230 262
#     4   8  15  25  41  62  87 111 152 186 220 261
#     4   9  16  27  45  66  90 118 151 186 220 269
#     4  10  19  30  46  68  92 120 156 183 225 269
#
# _framework density 25.171562999999999
#
# number of rings (size 3 to 8) (size 9 to 14) (size 15 to 20)
#    0.000    3.385    1.538    2.769    0.000    0.000 
#    0.000    0.769    0.000    0.000    0.000   29.077 
#    0.000    0.000    0.000    0.000    0.000    0.000 
#
# Total GULP energy -144888.024110 kJ/mol
# GULP energy per Si atom -5572.616312 kJ/mol
# Density = 2.511427 g / cm^3
# Si number density = 25.171563 Si / 1000 Ang^3
#
#
#
# Elastic Constant Matrix: (Units=GPa)
#
#
# Indices 1 2 3 4 5 6 
#
# 1 83.2887 1.8281 39.6891 -0.0001 0.2338 -0.0003
# 2 1.8281 35.0517 11.6742 -0.0001 -20.4729 -0.0008
# 3 39.6891 11.6742 205.0074 -0.0001 -24.3207 -0.0003
# 4 -0.0001 -0.0001 -0.0001 37.6383 0.0001 -10.7629
# 5 0.2338 -20.4729 -24.3207 0.0001 54.4338 0.0002
# 6 -0.0003 -0.0008 -0.0003 -10.7629 0.0002 7.2010
#
#
#
# Elastic Compliance Matrix: (Units=1/GPa)
#
#
# Indices 1 2 3 4 5 6 
#
# 1 0.013323 -0.000682 -0.002722 0.000000 -0.001530 0.000001
# 2 -0.000682 0.036640 -0.000337 0.000002 0.013633 0.000006
# 3 -0.002722 -0.000337 0.005713 0.000000 0.002438 0.000000
# 4 0.000000 0.000002 0.000000 0.046400 0.000000 0.069352
# 5 -0.001530 0.013633 0.002438 0.000000 0.024594 0.000001
# 6 0.000001 0.000006 0.000000 0.069352 0.000001 0.242526
#
#
# Mechanical properties :
#
#
# Convention : Reuss Voigt Hill
#
# Bulk Modulus (GPa) = 20.74953 47.74785 34.24869
# Shear Modulus (GPa) = 12.73101 37.86506 25.29803
#
# Velocity S-wave (km/s) = 2.25137 3.88271 3.17365
# Velocity P-wave (km/s) = 3.87548 6.25386 5.20241
#
# Compressibility (1/GPa) = 0.04819387
#
# Stress axis : x y z
#
# Youngs Moduli (GPa) = 75.05962 27.29283 175.03318
#
# Poissons Ratio (x) = 0.01861 0.47643
# Poissons Ratio (y) = 0.05117 0.05902
# Poissons Ratio (z) = 0.20431 0.00920
#
# Static dielectric constant tensor:
#      x y z
#    x 2.007330 0.000000 -0.095990 
#    y 0.000000 2.095910 0.000000 
#    z -0.095990 0.000000 2.177780 
# 
# From -- ./inp_files/177183.got.cif
#   From: 2010.05.17/outbox.cif.g08.bks.cpg/sg15_89_cif.got.tgz:177183.got - 2010.06.03 18:47:42.
