data_PCOD9257001
_publ_section_title
;
Structure prediction by ZEFSAII (Michael W. Deem and Ramdas Pophale) SiO2 
 PCOD9257001
Probable space group: C 2/C
;
_chemical_formula_sum "Si O2"
_cell_formula_units_Z 60
_cell_length_a 16.769420
_cell_length_b 9.717913
_cell_length_c 22.524797
_cell_angle_alpha 90.000000
_cell_angle_beta 104.633645
_cell_angle_gamma 90.000000
_cell_volume 3551.650988
_symmetry_space_group_name_H-M "C 2/C"
_symmetry_group_IT_number 15
_symmetry_cell_setting 'monoclinic'
loop_
_space_group_symop_operation_xyz
x,y,z
-x,y,1/2-z
-x,-y,-z
x,-y,1/2+z
1/2+x,1/2+y,z
1/2-x,1/2+y,1/2-z
1/2-x,1/2-y,-z
1/2+x,1/2-y,1/2+z
loop_
_atom_site_type_symbol
_atom_site_label
_atom_site_fract_x
_atom_site_fract_y
_atom_site_fract_z
Si Si1 0.797703 0.502505 0.351610
Si Si2 0.254777 0.973100 0.205410
Si Si3 0.500000 0.325785 0.250000
Si Si4 0.859770 0.791096 0.849447
Si Si5 0.510147 0.500724 0.571907
Si Si6 0.090701 0.305016 0.273489
Si Si7 0.887369 0.968490 0.649884
Si Si8 0.604412 0.264026 0.157793
O O1 0.771325 0.502840 0.277331
O O2 0.838149 0.355706 0.372938
O O3 0.711098 0.519622 0.368449
O O4 0.862926 0.626055 0.366796
O O5 0.219389 0.109017 0.168256
O O6 0.339578 0.913663 0.196232
O O7 0.185029 0.855352 0.188745
O O8 0.565918 0.422816 0.297568
O O9 0.551046 0.245939 0.208357
O O10 0.884616 0.760324 0.785689
O O11 0.930981 0.876524 0.894977
O O12 0.500000 0.500000 0.500000
O O13 0.425641 0.486319 0.592314
O O14 0.552060 0.640659 0.603709
O O15 0.089514 0.180272 0.319372
O O16 0.000000 0.366592 0.250000
#
# Coordination Sequence:
#
# PCOD9257001 Si02
#       8
#     8   8   4   8   8   8   8   8
#     4  11  19  32  53  84 110 142 165 216 273 318
#     4  10  18  30  52  80 118 139 165 207 259 328
#     4  10  18  30  50  84 112 148 170 206 266 330
#     4  10  20  34  54  78 111 140 171 213 268 321
#     4  10  22  40  57  72  98 143 190 230 261 309
#     4  11  17  30  52  85 111 138 171 214 267 322
#     4  11  17  31  56  76 107 139 179 211 271 320
#     4  10  19  34  55  80 110 140 180 212 258 329
#
# _framework density 16.893553000000001
#
# number of rings (size 3 to 8) (size 9 to 14) (size 15 to 20)
#    0.000    1.600    6.000    1.600    0.000    0.000 
#    4.800    2.000    0.000    0.000    0.000    0.000 
#    0.000    0.000    0.000    0.000    0.000    0.000 
#
# Total GULP energy -167364.502274 kJ/mol
# GULP energy per Si atom -5578.816742 kJ/mol
# Density = 1.685510 g / cm^3
# Si number density = 16.893553 Si / 1000 Ang^3
#
#
#
# Elastic Constant Matrix: (Units=GPa)
#
#
# Indices 1 2 3 4 5 6 
#
# 1 130.2246 67.9047 25.8448 0.0000 -12.4365 0.0000
# 2 67.9047 104.1121 24.4482 0.0000 0.2302 0.0000
# 3 25.8448 24.4482 63.9978 0.0000 -16.0795 0.0000
# 4 0.0000 0.0000 0.0000 3.5605 0.0000 -1.2110
# 5 -12.4365 0.2302 -16.0795 0.0000 14.4857 0.0000
# 6 0.0000 0.0000 0.0000 -1.2110 0.0000 24.7934
#
#
#
# Elastic Compliance Matrix: (Units=1/GPa)
#
#
# Indices 1 2 3 4 5 6 
#
# 1 0.013409 -0.009097 0.001371 0.000000 0.013179 0.000000
# 2 -0.009097 0.017174 -0.006820 0.000000 -0.015653 0.000000
# 3 0.001371 -0.006820 0.024962 0.000000 0.028994 0.000000
# 4 0.000000 0.000000 0.000000 0.285607 0.000000 0.013950
# 5 0.013179 -0.015653 0.028994 0.000000 0.112781 0.000000
# 6 0.000000 0.000000 0.000000 0.013950 0.000000 0.041015
#
#
# Mechanical properties :
#
#
# Convention : Reuss Voigt Hill
#
# Bulk Modulus (GPa) = 37.80181 59.41444 48.60813
# Shear Modulus (GPa) = 9.38337 20.57703 14.98020
#
# Velocity S-wave (km/s) = 2.35934 3.49383 2.98105
# Velocity P-wave (km/s) = 5.46324 7.17789 6.37844
#
# Compressibility (1/GPa) = 0.02645376
#
# Stress axis : x y z
#
# Youngs Moduli (GPa) = 74.57718 58.22629 40.06095
#
# Poissons Ratio (x) = 0.52967 -0.05493
# Poissons Ratio (y) = 0.67841 0.27322
# Poissons Ratio (z) = -0.10226 0.39711
#
# Static dielectric constant tensor:
#      x y z
#    x 1.612990 0.000000 0.001960 
#    y 0.000000 1.597250 0.000000 
#    z 0.001960 0.000000 1.522700 
# 
# From -- ./inp_files/247543.got.cif
#   From: 2010.05.17/outbox.cif.g08.bks.cpg/sg15_124_cif.got.tgz:247543.got - 2010.06.03 18:47:42.
