data_PCOD9257505
_publ_section_title
;
Structure prediction by ZEFSAII (Michael W. Deem and Ramdas Pophale) SiO2 
 PCOD9257505
Probable space group: C 2/C
;
_chemical_formula_sum "Si O2"
_cell_formula_units_Z 40
_cell_length_a 8.500137
_cell_length_b 16.766337
_cell_length_c 11.388330
_cell_angle_alpha 90.000000
_cell_angle_beta 82.136191
_cell_angle_gamma 90.000000
_cell_volume 1607.758321
_symmetry_space_group_name_H-M "C 2/C"
_symmetry_group_IT_number 15
_symmetry_cell_setting 'monoclinic'
loop_
_space_group_symop_operation_xyz
x,y,z
-x,y,1/2-z
-x,-y,-z
x,-y,1/2+z
1/2+x,1/2+y,z
1/2-x,1/2+y,1/2-z
1/2-x,1/2-y,-z
1/2+x,1/2-y,1/2+z
loop_
_atom_site_type_symbol
_atom_site_label
_atom_site_fract_x
_atom_site_fract_y
_atom_site_fract_z
Si Si1 0.340342 0.563307 0.053991
Si Si2 0.903711 0.655288 0.660756
Si Si3 0.017463 0.367896 0.913726
Si Si4 0.274029 0.509289 0.310032
Si Si5 0.566406 0.691370 0.622776
O O1 0.158145 0.594836 0.081965
O O2 0.370424 0.530102 0.181310
O O3 0.662576 0.493607 0.062056
O O4 0.445198 0.636565 0.991514
O O5 0.034135 0.631950 0.551791
O O6 0.822720 0.572387 0.708381
O O7 0.755601 0.703381 0.623485
O O8 0.000000 0.699850 0.750000
O O9 0.017731 0.275779 0.878429
O O10 0.148911 0.419588 0.839134
O O11 0.500000 0.651941 0.750000
#
# Coordination Sequence:
#
# PCOD9257505 Si02
#       5
#     8   8   8   8   8
#     4  10  19  32  53  85 115 146 193 247 288 335
#     4  10  19  34  55  85 116 148 194 250 288 331
#     4  10  18  31  56  85 115 151 193 238 290 351
#     4  10  18  31  56  87 112 143 195 248 285 333
#     4  10  21  36  54  80 117 160 191 229 292 362
#
# _framework density 24.879362
#
# number of rings (size 3 to 8) (size 9 to 14) (size 15 to 20)
#    0.000    2.400    0.000    9.000    0.000    0.000 
#    0.000    5.000    0.000    7.200    0.000   30.800 
#    0.000    0.000    0.000    0.000    0.000    0.000 
#
# Total GULP energy -111663.349790 kJ/mol
# GULP energy per Si atom -5583.167489 kJ/mol
# Density = 2.482274 g / cm^3
# Si number density = 24.879362 Si / 1000 Ang^3
#
#
#
# Elastic Constant Matrix: (Units=GPa)
#
#
# Indices 1 2 3 4 5 6 
#
# 1 38.7710 30.7457 42.8512 0.0000 -7.6418 0.0000
# 2 30.7457 131.0513 45.0523 0.0000 -8.3710 0.0000
# 3 42.8512 45.0523 210.8915 0.0000 -12.3948 0.0000
# 4 0.0000 0.0000 0.0000********** 0.0000**********
# 5 -7.6418 -8.3710 -12.3948 0.0000 47.7553 0.0000
# 6 0.0000 0.0000 0.0000********** 0.0000-5512.8483
#
#
#
# Elastic Compliance Matrix: (Units=1/GPa)
#
#
# Indices 1 2 3 4 5 6 
#
# 1 0.038663 -0.006715 -0.006222 0.000000 0.003395 0.000000
# 2 -0.006715 0.009449 -0.000630 0.000000 0.000418 0.000000
# 3 -0.006222 -0.000630 0.006170 0.000000 0.000495 0.000000
# 4 0.000000 0.000000 0.000000 0.007792 0.000000 -0.015233
# 5 0.003395 0.000418 0.000495 0.000000 0.021685 0.000000
# 6 0.000000 0.000000 0.000000 -0.015233 0.000000 0.029598
#
#
# Mechanical properties :
#
#
# Convention : Reuss Voigt Hill
#
# Bulk Modulus (GPa) = 36.83356 68.66802 52.75079
# Shear Modulus (GPa) = 33.43589 -5263.55309 -2615.05860
#
# Velocity S-wave (km/s) = 3.66993 -46.04588 -32.45578
# Velocity P-wave (km/s) = 5.72668 52.90845 37.19213
#
# Compressibility (1/GPa) = 0.02714915
#
# Stress axis : x y z
#
# Youngs Moduli (GPa) = 25.86421 105.82975 162.08389
#
# Poissons Ratio (x) = 0.71064 1.00849
# Poissons Ratio (y) = 0.17368 0.10205
# Poissons Ratio (z) = 0.16093 0.06663
#
# Static dielectric constant tensor:
#      x y z
#    x 2.129240 0.000000 -0.009620 
#    y 0.000000 1.968660 0.000000 
#    z -0.009620 0.000000 2.079730 
# 
# From -- ./inp_files/76706.got.cif
#   From: 2010.05.17/outbox.cif.g08.bks.cpg/sg15_39_cif.got.tgz:76706.got - 2010.06.03 18:47:42.
