data_PCOD9257111
_publ_section_title
;
Structure prediction by ZEFSAII (Michael W. Deem and Ramdas Pophale) SiO2 
 PCOD9257111
Probable space group: C 2/C
;
_chemical_formula_sum "Si O2"
_cell_formula_units_Z 56
_cell_length_a 10.487223
_cell_length_b 13.423797
_cell_length_c 22.664390
_cell_angle_alpha 90.000000
_cell_angle_beta 111.822453
_cell_angle_gamma 90.000000
_cell_volume 2962.013832
_symmetry_space_group_name_H-M "C 2/C"
_symmetry_group_IT_number 15
_symmetry_cell_setting 'monoclinic'
loop_
_space_group_symop_operation_xyz
x,y,z
-x,y,1/2-z
-x,-y,-z
x,-y,1/2+z
1/2+x,1/2+y,z
1/2-x,1/2+y,1/2-z
1/2-x,1/2-y,-z
1/2+x,1/2-y,1/2+z
loop_
_atom_site_type_symbol
_atom_site_label
_atom_site_fract_x
_atom_site_fract_y
_atom_site_fract_z
Si Si1 0.909927 0.057087 0.363896
Si Si2 0.848325 0.835472 0.339839
Si Si3 0.165843 0.834521 0.401726
Si Si4 0.873738 0.828230 0.970456
Si Si5 0.845976 0.278826 0.961393
Si Si6 0.342731 0.320334 0.744499
Si Si7 0.276189 0.459062 0.625923
O O1 0.908968 0.084830 0.431796
O O2 0.846125 0.141644 0.311606
O O3 0.067579 0.049389 0.370653
O O4 0.834687 0.953606 0.338896
O O5 0.816514 0.790441 0.399190
O O6 0.748261 0.777323 0.279346
O O7 0.009849 0.818063 0.353507
O O8 0.152713 0.867557 0.468376
O O9 0.245416 0.731369 0.421857
O O10 0.244935 0.922012 0.380495
O O11 0.998162 0.748749 0.995465
O O12 0.817622 0.390687 0.932884
O O13 0.750000 0.250000 0.000000
O O14 0.500000 0.304032 0.750000
O O15 0.279917 0.406341 0.690591
#
# Coordination Sequence:
#
# PCOD9257111 Si02
#       7
#     8   8   8   8   8   8   8
#     4  10  19  33  55  76 101 142 175 212 258 315
#     4   9  20  35  54  76 102 136 175 213 257 310
#     4   9  20  35  52  76 109 138 170 210 258 318
#     4  10  20  33  50  80 110 135 170 214 261 307
#     4  10  18  30  54  80 106 131 171 219 258 302
#     4   9  19  36  53  75 104 130 178 221 255 302
#     4   9  18  33  54  76 101 139 174 213 258 310
#
# _framework density 18.906057000000001
#
# number of rings (size 3 to 8) (size 9 to 14) (size 15 to 20)
#    0.000    2.571    1.429    0.000    2.000    3.429 
#    0.000    3.571    0.000    0.000    0.000    0.000 
#    0.000    0.000    0.000    0.000    0.000    0.000 
#
# Total GULP energy -156091.481726 kJ/mol
# GULP energy per Si atom -5574.695776 kJ/mol
# Density = 1.886303 g / cm^3
# Si number density = 18.906057 Si / 1000 Ang^3
#
#
#
# Elastic Constant Matrix: (Units=GPa)
#
#
# Indices 1 2 3 4 5 6 
#
# 1 25.7916 13.1641 11.3465 0.0000 7.8174 0.0000
# 2 13.1641 66.8955 15.7436 0.0000 17.9289 0.0000
# 3 11.3465 15.7436 31.4556 0.0000 12.8142 0.0000
# 4 0.0000 0.0000 0.0000 22.1059 0.0000 5.1379
# 5 7.8174 17.9289 12.8142 0.0000 27.0717 0.0000
# 6 0.0000 0.0000 0.0000 5.1379 0.0000 25.1712
#
#
#
# Elastic Compliance Matrix: (Units=1/GPa)
#
#
# Indices 1 2 3 4 5 6 
#
# 1 0.048553 -0.005320 -0.013101 0.000000 -0.004296 0.000000
# 2 -0.005320 0.019470 -0.003963 0.000000 -0.009482 0.000000
# 3 -0.013101 -0.003963 0.044463 0.000000 -0.014639 0.000000
# 4 0.000000 0.000000 0.000000 0.047490 0.000000 -0.009693
# 5 -0.004296 -0.009482 -0.014639 0.000000 0.051388 0.000000
# 6 0.000000 0.000000 0.000000 -0.009693 0.000000 0.041707
#
#
# Mechanical properties :
#
#
# Convention : Reuss Voigt Hill
#
# Bulk Modulus (GPa) = 14.76699 22.73901 18.75300
# Shear Modulus (GPa) = 15.60492 20.46232 18.03362
#
# Velocity S-wave (km/s) = 2.87608 3.29343 3.09180
# Velocity P-wave (km/s) = 4.34244 5.14934 4.76301
#
# Compressibility (1/GPa) = 0.06771861
#
# Stress axis : x y z
#
# Youngs Moduli (GPa) = 20.59589 51.36223 22.49041
#
# Poissons Ratio (x) = 0.27324 0.29465
# Poissons Ratio (y) = 0.10957 0.08913
# Poissons Ratio (z) = 0.26983 0.20354
#
# Static dielectric constant tensor:
#      x y z
#    x 1.651360 0.000000 0.010290 
#    y 0.000000 1.664320 0.000000 
#    z 0.010290 0.000000 1.660820 
# 
# From -- ./inp_files/236956.got.cif
#   From: 2010.05.17/outbox.cif.g08.bks.cpg/sg15_119_cif.got.tgz:236956.got - 2010.06.03 18:47:42.
