data_PCOD9257426
_publ_section_title
;
Structure prediction by ZEFSAII (Michael W. Deem and Ramdas Pophale) SiO2 
 PCOD9257426
Probable space group: C 2/C
;
_chemical_formula_sum "Si O2"
_cell_formula_units_Z 56
_cell_length_a 30.645633
_cell_length_b 11.849258
_cell_length_c 25.069907
_cell_angle_alpha 90.000000
_cell_angle_beta 19.560808
_cell_angle_gamma 90.000000
_cell_volume 3047.945024
_symmetry_space_group_name_H-M "C 2/C"
_symmetry_group_IT_number 15
_symmetry_cell_setting 'monoclinic'
loop_
_space_group_symop_operation_xyz
x,y,z
-x,y,1/2-z
-x,-y,-z
x,-y,1/2+z
1/2+x,1/2+y,z
1/2-x,1/2+y,1/2-z
1/2-x,1/2-y,-z
1/2+x,1/2-y,1/2+z
loop_
_atom_site_type_symbol
_atom_site_label
_atom_site_fract_x
_atom_site_fract_y
_atom_site_fract_z
Si Si1 0.098599 0.838835 0.877685
Si Si2 0.409941 0.208995 0.765542
Si Si3 0.208375 0.606670 0.494641
Si Si4 0.518997 0.451127 0.788777
Si Si5 0.108609 0.416722 0.398901
Si Si6 0.121693 0.431611 0.979701
Si Si7 0.095877 0.975384 0.469719
O O1 0.076905 0.711163 0.920473
O O2 0.249690 0.864894 0.688736
O O3 0.069601 0.918269 0.961894
O O4 0.004854 0.880894 0.937427
O O5 0.278166 0.272838 0.899295
O O6 0.494821 0.314212 0.689934
O O7 0.488920 0.141290 0.630232
O O8 0.372107 0.132424 0.859598
O O9 0.330716 0.529551 0.369165
O O10 0.140633 0.556844 0.521211
O O11 0.500000 0.485175 0.750000
O O12 0.432555 0.499331 0.935763
O O13 0.113416 0.453983 0.455589
O O14 0.254604 0.439951 0.209573
O O15 0.000000 0.500000 0.500000
#
# Coordination Sequence:
#
# PCOD9257426 Si02
#       7
#     8   8   8   8   8   8   8
#     4  10  22  41  61  86 116 163 212 238 299 367
#     4   9  19  29  52  84 123 152 195 242 295 359
#     4   9  19  31  51  82 117 163 193 233 308 357
#     4  10  18  31  53  86 113 151 196 241 295 355
#     4  11  27  37  58  94 116 152 205 254 303 351
#     4  11  20  36  57  82 120 163 191 250 301 356
#     4  10  22  41  64  81 120 166 192 252 302 356
#
# _framework density 18.373035000000002
#
# number of rings (size 3 to 8) (size 9 to 14) (size 15 to 20)
#    0.857    1.143    1.429    2.143    8.000    1.143 
#    0.000    0.000    0.000    1.714    0.000    3.000 
#    0.000    0.000    0.000    0.000    0.000    0.000 
#
# Total GULP energy -156048.309906 kJ/mol
# GULP energy per Si atom -5573.153925 kJ/mol
# Density = 1.833122 g / cm^3
# Si number density = 18.373035 Si / 1000 Ang^3
#
#
#
# Elastic Constant Matrix: (Units=GPa)
#
#
# Indices 1 2 3 4 5 6 
#
# 1 108.5435 33.6610 33.7781 0.0000 18.5768 0.0000
# 2 33.6610 81.0220 28.2988 0.0001 0.0495 -0.0001
# 3 33.7781 28.2988 105.3711 0.0001 8.2609 -0.0001
# 4 0.0000 0.0001 0.0001 14.1989 0.0000 7.5918
# 5 18.5768 0.0495 8.2609 0.0000 35.0230 0.0000
# 6 0.0000 -0.0001 -0.0001 7.5918 0.0000 26.3010
#
#
#
# Elastic Compliance Matrix: (Units=1/GPa)
#
#
# Indices 1 2 3 4 5 6 
#
# 1 0.012286 -0.004291 -0.002318 0.000000 -0.005964 0.000000
# 2 -0.004291 0.015144 -0.002922 0.000000 0.002944 0.000000
# 3 -0.002318 -0.002922 0.011127 0.000000 -0.001391 0.000000
# 4 0.000000 0.000000 0.000000 0.083281 0.000000 -0.024039
# 5 -0.005964 0.002944 -0.001391 0.000000 0.032040 0.000000
# 6 0.000000 0.000000 0.000000 -0.024039 0.000000 0.044960
#
#
# Mechanical properties :
#
#
# Convention : Reuss Voigt Hill
#
# Bulk Modulus (GPa) = 51.29870 54.04582 52.67226
# Shear Modulus (GPa) = 22.28178 28.38450 25.33314
#
# Velocity S-wave (km/s) = 3.48622 3.93479 3.71728
# Velocity P-wave (km/s) = 6.64728 7.07977 6.86693
#
# Compressibility (1/GPa) = 0.01949367
#
# Stress axis : x y z
#
# Youngs Moduli (GPa) = 81.39570 66.03347 89.86851
#
# Poissons Ratio (x) = 0.28333 0.20836
# Poissons Ratio (y) = 0.34925 0.26263
# Poissons Ratio (z) = 0.18871 0.19298
#
# Static dielectric constant tensor:
#      x y z
#    x 1.678970 0.000000 -0.032040 
#    y 0.000000 1.618650 0.000000 
#    z -0.032040 0.000000 1.680540 
# 
# From -- ./inp_files/284591.got.cif
#   From: 2010.05.17/outbox.cif.g08.bks.cpg/sg15_143_cif.got.tgz:284591.got - 2010.06.03 18:47:42.
