data_PCOD9257836
_publ_section_title
;
Structure prediction by ZEFSAII (Michael W. Deem and Ramdas Pophale) SiO2 
 PCOD9257836
Probable space group: C 2/C
;
_chemical_formula_sum "Si O2"
_cell_formula_units_Z 52
_cell_length_a 12.400407
_cell_length_b 6.943540
_cell_length_c 30.306368
_cell_angle_alpha 90.000000
_cell_angle_beta 136.614880
_cell_angle_gamma 90.000000
_cell_volume 1792.435459
_symmetry_space_group_name_H-M "C 2/C"
_symmetry_group_IT_number 15
_symmetry_cell_setting 'monoclinic'
loop_
_space_group_symop_operation_xyz
x,y,z
-x,y,1/2-z
-x,-y,-z
x,-y,1/2+z
1/2+x,1/2+y,z
1/2-x,1/2+y,1/2-z
1/2-x,1/2-y,-z
1/2+x,1/2-y,1/2+z
loop_
_atom_site_type_symbol
_atom_site_label
_atom_site_fract_x
_atom_site_fract_y
_atom_site_fract_z
Si Si1 0.926891 0.899200 0.837450
Si Si2 0.000000 0.245177 0.750000
Si Si3 0.376077 0.160792 0.301875
Si Si4 0.779999 0.463572 0.860209
Si Si5 0.328411 0.519908 0.489174
Si Si6 0.788683 0.412051 0.958707
Si Si7 0.817714 0.962568 0.391454
O O1 0.809893 0.822052 0.765542
O O2 0.839328 0.888177 0.858477
O O3 0.107395 0.846450 0.894727
O O4 0.934208 0.128658 0.831478
O O5 0.132174 0.095148 0.805731
O O6 0.044046 0.378712 0.721340
O O7 0.389146 0.027478 0.348777
O O8 0.845507 0.499950 0.929190
O O9 0.737302 0.233976 0.851355
O O10 0.226356 0.546621 0.502895
O O11 0.362728 0.288218 0.496059
O O12 0.260114 0.555855 0.420166
O O13 0.501245 0.605251 0.546084
#
# Coordination Sequence:
#
# PCOD9257836 Si02
#       7
#     8   4   8   8   8   8   8
#     4  10  19  33  54  83 122 154 200 246 298 358
#     4  12  22  38  58  80 122 162 202 238 300 372
#     4  11  21  36  55  81 118 159 198 246 291 365
#     4  10  18  32  54  81 116 159 193 246 298 353
#     4   8  14  26  48  85 120 144 202 253 288 357
#     4   9  15  28  52  85 116 153 197 249 301 348
#     4   8  16  28  49  83 121 150 198 254 294 348
#
# _framework density 29.010807
#
# number of rings (size 3 to 8) (size 9 to 14) (size 15 to 20)
#    0.000    2.462    3.077    0.000    0.000    0.000 
#    0.000    7.692    0.000    0.000    0.000   40.923 
#    0.000    0.000    0.000    0.000    0.000    0.000 
#
# Total GULP energy -145554.096246 kJ/mol
# GULP energy per Si atom -5598.234471 kJ/mol
# Density = 2.894478 g / cm^3
# Si number density = 29.010807 Si / 1000 Ang^3
#
#
#
# Elastic Constant Matrix: (Units=GPa)
#
#
# Indices 1 2 3 4 5 6 
#
# 1 158.3508 36.5535 67.0234 0.0000 -70.5141 0.0000
# 2 36.5535 89.2190 29.8065 0.0000 7.3137 0.0000
# 3 67.0234 29.8065 155.7026 0.0000 -39.7421 0.0000
# 4 0.0000 0.0000 0.0000 43.9660 0.0000 1.0509
# 5 -70.5141 7.3137 -39.7421 0.0000 77.1914 0.0000
# 6 0.0000 0.0000 0.0000 1.0509 0.0000 34.9969
#
#
#
# Elastic Compliance Matrix: (Units=1/GPa)
#
#
# Indices 1 2 3 4 5 6 
#
# 1 0.014055 -0.006241 -0.001643 0.000000 0.012585 0.000000
# 2 -0.006241 0.015241 -0.002366 0.000000 -0.008364 0.000000
# 3 -0.001643 -0.002366 0.008355 0.000000 0.003024 0.000000
# 4 0.000000 0.000000 0.000000 0.022761 0.000000 -0.000684
# 5 0.012585 -0.008364 0.003024 0.000000 0.026801 0.000000
# 6 0.000000 0.000000 0.000000 -0.000684 0.000000 0.028594
#
#
# Mechanical properties :
#
#
# Convention : Reuss Voigt Hill
#
# Bulk Modulus (GPa) = 58.30604 74.44879 66.37742
# Shear Modulus (GPa) = 35.20489 49.22345 42.21417
#
# Velocity S-wave (km/s) = 3.48733 4.12360 3.81874
# Velocity P-wave (km/s) = 6.02967 6.95631 6.50950
#
# Compressibility (1/GPa) = 0.01715088
#
# Stress axis : x y z
#
# Youngs Moduli (GPa) = 71.14673 65.61059 119.69248
#
# Poissons Ratio (x) = 0.40949 0.19669
# Poissons Ratio (y) = 0.44404 0.28317
# Poissons Ratio (z) = 0.11691 0.15522
#
# Static dielectric constant tensor:
#      x y z
#    x 2.369640 0.000000 -0.085130 
#    y 0.000000 2.155210 0.000000 
#    z -0.085130 0.000000 2.228270 
# 
# From -- ./inp_files/312714.got.cif
#   From: 2010.05.17/outbox.cif.g08.bks.cpg/sg15_157_cif.got.tgz:312714.got - 2010.06.03 18:47:42.
