data_PCOD9257524
_publ_section_title
;
Structure prediction by ZEFSAII (Michael W. Deem and Ramdas Pophale) SiO2 
 PCOD9257524
Probable space group: C 2/C
;
_chemical_formula_sum "Si O2"
_cell_formula_units_Z 32
_cell_length_a 21.490817
_cell_length_b 7.239937
_cell_length_c 6.730561
_cell_angle_alpha 90.000000
_cell_angle_beta 81.007731
_cell_angle_gamma 90.000000
_cell_volume 1034.351580
_symmetry_space_group_name_H-M "C 2/C"
_symmetry_group_IT_number 15
_symmetry_cell_setting 'monoclinic'
loop_
_space_group_symop_operation_xyz
x,y,z
-x,y,1/2-z
-x,-y,-z
x,-y,1/2+z
1/2+x,1/2+y,z
1/2-x,1/2+y,1/2-z
1/2-x,1/2-y,-z
1/2+x,1/2-y,1/2+z
loop_
_atom_site_type_symbol
_atom_site_label
_atom_site_fract_x
_atom_site_fract_y
_atom_site_fract_z
Si Si1 0.931565 0.681206 0.796611
Si Si2 0.194640 0.454576 0.165335
Si Si3 0.793437 0.015342 0.369284
Si Si4 0.570806 0.412542 0.299384
O O1 0.880718 0.521760 0.792026
O O2 0.000000 0.594675 0.750000
O O3 0.929823 0.863317 0.655116
O O4 0.925376 0.788559 0.007505
O O5 0.194601 0.233304 0.139452
O O6 0.210382 0.479093 0.410818
O O7 0.275398 0.502029 0.127513
O O8 0.857955 0.895707 0.329892
O O9 0.500000 0.382192 0.250000
#
# Coordination Sequence:
#
# PCOD9257524 Si02
#       4
#     8   8   8   8
#     4  10  20  36  57  85 118 153 194 240 288 343
#     4  10  22  38  59  85 117 153 195 238 287 344
#     4  10  20  38  59  87 119 151 191 240 289 345
#     4  10  18  31  57  87 115 147 191 244 286 326
#
# _framework density 30.937253999999999
#
# number of rings (size 3 to 8) (size 9 to 14) (size 15 to 20)
#    0.000    2.000    0.000    7.500    0.000    3.000 
#    0.000    8.750    0.000    1.500    0.000    0.000 
#    0.000    0.000    0.000    0.000    0.000    0.000 
#
# Total GULP energy -89426.955899 kJ/mol
# GULP energy per Si atom -5589.184744 kJ/mol
# Density = 3.086684 g / cm^3
# Si number density = 30.937254 Si / 1000 Ang^3
#
#
#
# Elastic Constant Matrix: (Units=GPa)
#
#
# Indices 1 2 3 4 5 6 
#
# 1 399.9258 34.3415 169.7054 0.0000 9.7229 0.0000
# 2 34.3415 118.1747 75.8654 0.0000 -8.5502 0.0000
# 3 169.7054 75.8654 260.0915 0.0000 22.9119 0.0000
# 4 0.0000 0.0000 0.0000 40.9270 0.0000 -4.9748
# 5 9.7229 -8.5502 22.9119 0.0000 59.9083 0.0000
# 6 0.0000 0.0000 0.0000 -4.9748 0.0000 46.5788
#
#
#
# Elastic Compliance Matrix: (Units=1/GPa)
#
#
# Indices 1 2 3 4 5 6 
#
# 1 0.003500 0.000629 -0.002509 0.000000 0.000481 0.000000
# 2 0.000629 0.010978 -0.003872 0.000000 0.002946 0.000000
# 3 -0.002509 -0.003872 0.006855 0.000000 -0.002767 0.000000
# 4 0.000000 0.000000 0.000000 0.024755 0.000000 0.002644
# 5 0.000481 0.002946 -0.002767 0.000000 0.018093 0.000000
# 6 0.000000 0.000000 0.000000 0.002644 0.000000 0.021751
#
#
# Mechanical properties :
#
#
# Convention : Reuss Voigt Hill
#
# Bulk Modulus (GPa) = 101.74929 148.66853 125.20891
# Shear Modulus (GPa) = 49.64617 62.70147 56.17382
#
# Velocity S-wave (km/s) = 4.01026 4.50681 4.26577
# Velocity P-wave (km/s) = 7.37586 8.67415 8.05122
#
# Compressibility (1/GPa) = 0.00982808
#
# Stress axis : x y z
#
# Youngs Moduli (GPa) = 285.75339 91.09028 145.87617
#
# Poissons Ratio (x) = -0.05727 0.36603
# Poissons Ratio (y) = -0.17965 0.56481
# Poissons Ratio (z) = 0.71700 0.35269
#
# Static dielectric constant tensor:
#      x y z
#    x 2.785560 0.000000 -0.040810 
#    y 0.000000 2.109890 0.000000 
#    z -0.040810 0.000000 2.685890 
# 
# From -- ./inp_files/53403.got.cif
#   From: 2010.05.17/outbox.cif.g08.bks.cpg/sg15_27_cif.got.tgz:53403.got - 2010.06.03 18:47:42.
