data_PCOD9257780
_publ_section_title
;
Structure prediction by ZEFSAII (Michael W. Deem and Ramdas Pophale) SiO2 
 PCOD9257780
Probable space group: C 2/C
;
_chemical_formula_sum "Si O2"
_cell_formula_units_Z 40
_cell_length_a 19.733501
_cell_length_b 10.917757
_cell_length_c 8.728263
_cell_angle_alpha 90.000000
_cell_angle_beta 100.589760
_cell_angle_gamma 90.000000
_cell_volume 1848.437890
_symmetry_space_group_name_H-M "C 2/C"
_symmetry_group_IT_number 15
_symmetry_cell_setting 'monoclinic'
loop_
_space_group_symop_operation_xyz
x,y,z
-x,y,1/2-z
-x,-y,-z
x,-y,1/2+z
1/2+x,1/2+y,z
1/2-x,1/2+y,1/2-z
1/2-x,1/2-y,-z
1/2+x,1/2-y,1/2+z
loop_
_atom_site_type_symbol
_atom_site_label
_atom_site_fract_x
_atom_site_fract_y
_atom_site_fract_z
Si Si1 0.977846 0.158944 0.486963
Si Si2 0.585893 0.432285 0.217410
Si Si3 0.685378 0.983339 0.457962
Si Si4 0.716480 0.406081 0.754357
Si Si5 0.377491 0.166025 0.821881
O O1 0.935850 0.123851 0.627312
O O2 0.951150 0.282951 0.403083
O O3 0.057473 0.158347 0.573119
O O4 0.956416 0.053187 0.357874
O O5 0.663795 0.478489 0.249558
O O6 0.731866 0.062366 0.360979
O O7 0.649839 0.074522 0.560796
O O8 0.738010 0.898559 0.574527
O O9 0.631038 0.904359 0.340285
O O10 0.672164 0.285301 0.705653
#
# Coordination Sequence:
#
# PCOD9257780 Si02
#       5
#     8   8   8   8   8
#     4   9  18  33  54  80 110 138 177 228 283 323
#     4   9  17  31  54  82 107 134 174 229 277 328
#     4  10  21  33  51  81 114 147 183 219 276 349
#     4  10  18  32  53  81 113 138 176 231 285 328
#     4  10  20  35  51  75 112 151 184 223 271 329
#
# _framework density 21.639894000000002
#
# number of rings (size 3 to 8) (size 9 to 14) (size 15 to 20)
#    0.000    2.400    0.000    3.600    0.000    1.600 
#    0.000    8.000    0.000    4.800    0.000    5.600 
#    0.000    0.000    0.000    0.000    0.000    0.000 
#
# Total GULP energy -111627.170646 kJ/mol
# GULP energy per Si atom -5581.358532 kJ/mol
# Density = 2.159064 g / cm^3
# Si number density = 21.639894 Si / 1000 Ang^3
#
#
#
# Elastic Constant Matrix: (Units=GPa)
#
#
# Indices 1 2 3 4 5 6 
#
# 1 50.3305 25.4748 40.1355 0.0000 23.5953 0.0000
# 2 25.4748 82.9844 43.1202 0.0000 17.2471 0.0000
# 3 40.1355 43.1202 140.4318 0.0000 25.8594 0.0000
# 4 0.0000 0.0000 0.0000 17.8180 0.0000 15.8724
# 5 23.5953 17.2471 25.8594 0.0000 23.1680 0.0000
# 6 0.0000 0.0000 0.0000 15.8724 0.0000 31.4868
#
#
#
# Elastic Compliance Matrix: (Units=1/GPa)
#
#
# Indices 1 2 3 4 5 6 
#
# 1 0.041296 -0.003148 -0.004434 0.000000 -0.034765 0.000000
# 2 -0.003148 0.015616 -0.002952 0.000000 -0.005125 0.000000
# 3 -0.004434 -0.002952 0.010143 0.000000 -0.004608 0.000000
# 4 0.000000 0.000000 0.000000 0.101867 0.000000 -0.051351
# 5 -0.034765 -0.005125 -0.004608 0.000000 0.087528 0.000000
# 6 0.000000 0.000000 0.000000 -0.051351 0.000000 0.057645
#
#
# Mechanical properties :
#
#
# Convention : Reuss Voigt Hill
#
# Bulk Modulus (GPa) = 21.74497 54.57865 38.16181
# Shear Modulus (GPa) = 14.26574 25.49564 19.88069
#
# Velocity S-wave (km/s) = 2.57034 3.43618 3.03430
# Velocity P-wave (km/s) = 4.34502 6.40462 5.47259
#
# Compressibility (1/GPa) = 0.04598764
#
# Stress axis : x y z
#
# Youngs Moduli (GPa) = 24.21544 64.03891 98.58999
#
# Poissons Ratio (x) = 0.20157 0.43717
# Poissons Ratio (y) = 0.07622 0.29099
# Poissons Ratio (z) = 0.10738 0.18901
#
# Static dielectric constant tensor:
#      x y z
#    x 1.845770 0.000000 0.018200 
#    y 0.000000 1.805380 0.000000 
#    z 0.018200 0.000000 1.811940 
# 
# From -- ./inp_files/54185.got.cif
#   From: 2010.05.17/outbox.cif.g08.bks.cpg/sg15_28_cif.got.tgz:54185.got - 2010.06.03 18:47:42.
