data_PCOD9257979
_publ_section_title
;
Structure prediction by ZEFSAII (Michael W. Deem and Ramdas Pophale) SiO2 
 PCOD9257979
Probable space group: C 2/C
;
_chemical_formula_sum "Si O2"
_cell_formula_units_Z 40
_cell_length_a 4.968538
_cell_length_b 22.364106
_cell_length_c 18.985580
_cell_angle_alpha 90.000000
_cell_angle_beta 48.779328
_cell_angle_gamma 90.000000
_cell_volume 1586.807325
_symmetry_space_group_name_H-M "C 2/C"
_symmetry_group_IT_number 15
_symmetry_cell_setting 'monoclinic'
loop_
_space_group_symop_operation_xyz
x,y,z
-x,y,1/2-z
-x,-y,-z
x,-y,1/2+z
1/2+x,1/2+y,z
1/2-x,1/2+y,1/2-z
1/2-x,1/2-y,-z
1/2+x,1/2-y,1/2+z
loop_
_atom_site_type_symbol
_atom_site_label
_atom_site_fract_x
_atom_site_fract_y
_atom_site_fract_z
Si Si1 0.578050 0.283283 0.314819
Si Si2 0.687414 0.905505 0.358755
Si Si3 0.809625 0.333284 0.635180
Si Si4 0.024218 0.028994 0.919178
Si Si5 0.207812 0.899640 0.858336
O O1 0.500000 0.256393 0.250000
O O2 0.306331 0.338833 0.360540
O O3 0.528287 0.232320 0.382076
O O4 0.000000 0.301797 0.250000
O O5 0.324566 0.919774 0.379568
O O6 0.000000 0.924702 0.250000
O O7 0.710670 0.943719 0.426217
O O8 0.500000 0.334381 0.750000
O O9 0.618730 0.354609 0.597688
O O10 0.103580 0.383445 0.601428
O O11 0.131762 0.968818 0.858832
O O12 0.000000 0.000000 0.000000
O O13 0.500000 0.883719 0.750000
#
# Coordination Sequence:
#
# PCOD9257979 Si02
#       5
#     8   8   8   8   8
#     4  10  18  32  56  89 121 146 187 250 309 355
#     4  11  22  39  63  88 115 154 203 248 295 360
#     4   9  17  30  53  84 114 141 181 242 298 343
#     4  12  25  40  58  84 123 162 200 250 305 356
#     4  10  19  33  55  81 110 148 194 238 286 351
#
# _framework density 25.207847000000001
#
# number of rings (size 3 to 8) (size 9 to 14) (size 15 to 20)
#    0.000    1.600    0.000    9.000    0.000    1.600 
#    0.000    0.000    0.000    7.200    0.000    0.000 
#    0.000    0.000    0.000    0.000    0.000    0.000 
#
# Total GULP energy -111659.462867 kJ/mol
# GULP energy per Si atom -5582.973143 kJ/mol
# Density = 2.515047 g / cm^3
# Si number density = 25.207847 Si / 1000 Ang^3
#
#
#
# Elastic Constant Matrix: (Units=GPa)
#
#
# Indices 1 2 3 4 5 6 
#
# 1 141.1390 36.3026 1.0506 0.0000 -4.3750 0.0000
# 2 36.3026 157.9117 -0.9802 0.0000 -10.7293 0.0000
# 3 1.0506 -0.9802 41.2232 0.0000 3.8663 0.0000
# 4 0.0000 0.0000 0.0000 5.0846 0.0000 -17.0314
# 5 -4.3750 -10.7293 3.8663 0.0000 21.5328 0.0000
# 6 0.0000 0.0000 0.0000 -17.0314 0.0000 33.6307
#
#
#
# Elastic Compliance Matrix: (Units=1/GPa)
#
#
# Indices 1 2 3 4 5 6 
#
# 1 0.007544 -0.001685 -0.000302 0.000000 0.000747 0.000000
# 2 -0.001685 0.006932 -0.000085 0.000000 0.003127 0.000000
# 3 -0.000302 -0.000085 0.024689 0.000000 -0.004537 0.000000
# 4 0.000000 0.000000 0.000000 -0.282440 0.000000 -0.143035
# 5 0.000747 0.003127 -0.004537 0.000000 0.048965 0.000000
# 6 0.000000 0.000000 0.000000 -0.143035 0.000000 -0.042702
#
#
# Mechanical properties :
#
#
# Convention : Reuss Voigt Hill
#
# Bulk Modulus (GPa) = 28.55601 45.89109 37.22355
# Shear Modulus (GPa) = -22.60492 32.30967 4.85237
#
# Velocity S-wave (km/s) = -2.99781 3.58401 1.38893
# Velocity P-wave (km/s) = 0.79353 5.94739 4.16784
#
# Compressibility (1/GPa) = 0.03501890
#
# Stress axis : x y z
#
# Youngs Moduli (GPa) = 132.55317 144.25740 40.50316
#
# Poissons Ratio (x) = 0.24314 0.01225
# Poissons Ratio (y) = 0.22341 0.00346
# Poissons Ratio (z) = 0.04009 0.01233
#
# Static dielectric constant tensor:
#      x y z
#    x 1.966480 0.000000 0.005690 
#    y 0.000000 2.050780 0.000000 
#    z 0.005690 0.000000 2.077800 
# 
# From -- ./inp_files/261621.got.cif
#   From: 2010.05.17/outbox.cif.g08.bks.cpg/sg15_131_cif.got.tgz:261621.got - 2010.06.03 18:47:42.
