data_PCOD9257575
_publ_section_title
;
Structure prediction by ZEFSAII (Michael W. Deem and Ramdas Pophale) SiO2 
 PCOD9257575
Probable space group: C 2/C
;
_chemical_formula_sum "Si O2"
_cell_formula_units_Z 48
_cell_length_a 13.392619
_cell_length_b 22.087059
_cell_length_c 10.592085
_cell_angle_alpha 90.000000
_cell_angle_beta 136.526103
_cell_angle_gamma 90.000000
_cell_volume 2155.700750
_symmetry_space_group_name_H-M "C 2/C"
_symmetry_group_IT_number 15
_symmetry_cell_setting 'monoclinic'
loop_
_space_group_symop_operation_xyz
x,y,z
-x,y,1/2-z
-x,-y,-z
x,-y,1/2+z
1/2+x,1/2+y,z
1/2-x,1/2+y,1/2-z
1/2-x,1/2-y,-z
1/2+x,1/2-y,1/2+z
loop_
_atom_site_type_symbol
_atom_site_label
_atom_site_fract_x
_atom_site_fract_y
_atom_site_fract_z
Si Si1 0.637129 0.432467 0.304034
Si Si2 0.449072 0.314710 0.347746
Si Si3 0.646846 0.967117 0.592786
Si Si4 0.322973 0.754468 0.270380
Si Si5 0.092146 0.665879 0.000014
Si Si6 0.352999 0.111377 0.187762
O O1 0.500000 0.459083 0.250000
O O2 0.567197 0.386642 0.139919
O O3 0.746791 0.484372 0.367876
O O4 0.729390 0.383040 0.470907
O O5 0.500000 0.302056 0.250000
O O6 0.572857 0.287881 0.551107
O O7 0.296722 0.286416 0.251787
O O8 0.500000 0.000000 0.500000
O O9 0.614151 0.904956 0.485554
O O10 0.707859 0.942288 0.780878
O O11 0.226668 0.710105 0.093129
O O12 0.437020 0.804852 0.323253
O O13 0.101421 0.660403 0.164658
O O14 0.500000 0.095201 0.250000
#
# Coordination Sequence:
#
# PCOD9257575 Si02
#       6
#     8   8   8   8   8   8
#     4  11  21  35  52  80 113 138 176 232 268 306
#     4  10  19  28  45  69 106 139 174 203 257 309
#     4  10  20  36  56  75 107 148 180 215 266 320
#     4  10  18  32  44  72 104 143 175 208 246 322
#     4   9  20  31  53  74 106 139 178 210 261 312
#     4  10  19  34  53  75 108 143 181 207 259 317
#
# _framework density 22.266541
#
# number of rings (size 3 to 8) (size 9 to 14) (size 15 to 20)
#    1.000    1.000    1.667    4.500    0.000    4.667 
#    0.000    0.000    0.000    0.000    0.000    1.167 
#    0.000    0.000    0.000    0.000    0.000    0.000 
#
# Total GULP energy -133665.917334 kJ/mol
# GULP energy per Si atom -5569.413222 kJ/mol
# Density = 2.221586 g / cm^3
# Si number density = 22.266541 Si / 1000 Ang^3
#
#
#
# Elastic Constant Matrix: (Units=GPa)
#
#
# Indices 1 2 3 4 5 6 
#
# 1 64.0701 47.3905 48.9336 0.0000 32.0184 0.0000
# 2 47.3905 152.6910 46.5257 0.0000 32.7984 0.0000
# 3 48.9336 46.5257 115.5856 0.0000 45.8766 0.0000
# 4 0.0000 0.0000 0.0000 33.9470 0.0000 11.5987
# 5 32.0184 32.7984 45.8766 0.0000 42.7377 0.0000
# 6 0.0000 0.0000 0.0000 11.5987 0.0000 27.8635
#
#
#
# Elastic Compliance Matrix: (Units=1/GPa)
#
#
# Indices 1 2 3 4 5 6 
#
# 1 0.029768 -0.004820 -0.005713 0.000000 -0.012471 0.000000
# 2 -0.004820 0.008743 -0.000434 0.000000 -0.002633 0.000000
# 3 -0.005713 -0.000434 0.016402 0.000000 -0.012994 0.000000
# 4 0.000000 0.000000 0.000000 0.034342 0.000000 -0.014296
# 5 -0.012471 -0.002633 -0.012994 0.000000 0.048711 0.000000
# 6 0.000000 0.000000 0.000000 -0.014296 0.000000 0.041840
#
#
# Mechanical properties :
#
#
# Convention : Reuss Voigt Hill
#
# Bulk Modulus (GPa) = 30.32039 68.67181 49.49610
# Shear Modulus (GPa) = 23.50383 33.54278 28.52331
#
# Velocity S-wave (km/s) = 3.25247 3.88547 3.58298
# Velocity P-wave (km/s) = 5.26796 7.14402 6.27648
#
# Compressibility (1/GPa) = 0.03298110
#
# Stress axis : x y z
#
# Youngs Moduli (GPa) = 33.59308 114.37989 60.96794
#
# Poissons Ratio (x) = 0.55127 0.34829
# Poissons Ratio (y) = 0.16191 0.02643
# Poissons Ratio (z) = 0.19191 0.04959
#
# Static dielectric constant tensor:
#      x y z
#    x 1.857110 0.000000 -0.078780 
#    y 0.000000 1.925260 0.000000 
#    z -0.078780 0.000000 1.878840 
# 
# From -- ./inp_files/211838.got.cif
#   From: 2010.05.17/outbox.cif.g08.bks.cpg/sg15_106_cif.got.tgz:211838.got - 2010.06.03 18:47:42.
