data_PCOD9257434
_publ_section_title
;
Structure prediction by ZEFSAII (Michael W. Deem and Ramdas Pophale) SiO2 
 PCOD9257434
Probable space group: C 2/C
;
_chemical_formula_sum "Si O2"
_cell_formula_units_Z 64
_cell_length_a 24.524976
_cell_length_b 12.682474
_cell_length_c 11.814182
_cell_angle_alpha 90.000000
_cell_angle_beta 99.545581
_cell_angle_gamma 90.000000
_cell_volume 3623.772825
_symmetry_space_group_name_H-M "C 2/C"
_symmetry_group_IT_number 15
_symmetry_cell_setting 'monoclinic'
loop_
_space_group_symop_operation_xyz
x,y,z
-x,y,1/2-z
-x,-y,-z
x,-y,1/2+z
1/2+x,1/2+y,z
1/2-x,1/2+y,1/2-z
1/2-x,1/2-y,-z
1/2+x,1/2-y,1/2+z
loop_
_atom_site_type_symbol
_atom_site_label
_atom_site_fract_x
_atom_site_fract_y
_atom_site_fract_z
Si Si1 0.426284 0.117052 0.997023
Si Si2 0.659978 0.759018 0.902155
Si Si3 0.274392 0.351234 0.575398
Si Si4 0.323300 0.159766 0.318012
Si Si5 0.136464 0.289889 0.415842
Si Si6 0.829809 0.578931 0.784699
Si Si7 0.748945 0.409513 0.459079
Si Si8 0.530197 0.905227 0.377867
O O1 0.381283 0.111236 0.881341
O O2 0.485554 0.127926 0.957029
O O3 0.398927 0.206471 0.067055
O O4 0.434118 0.006435 0.067265
O O5 0.657643 0.755940 0.765905
O O6 0.692017 0.654539 0.953731
O O7 0.703930 0.852362 0.950188
O O8 0.250000 0.250000 0.500000
O O9 0.242710 0.341816 0.683634
O O10 0.339054 0.326164 0.596564
O O11 0.259567 0.466237 0.522839
O O12 0.350072 0.174841 0.450891
O O13 0.337831 0.045555 0.275402
O O14 0.167084 0.361960 0.332526
O O15 0.072496 0.310230 0.373361
O O16 0.774673 0.598830 0.840417
O O17 0.500000 0.932795 0.250000
#
# Coordination Sequence:
#
# PCOD9257434 Si02
#       8
#     8   8   8   8   8   8   8   8
#     4  10  21  33  52  80 106 142 180 226 280 323
#     4  10  20  35  56  78 117 145 179 223 275 334
#     4   9  20  34  53  80 111 144 184 218 265 326
#     4  10  20  31  52  82 110 149 175 218 274 329
#     4  11  20  34  53  76 111 147 185 224 272 325
#     4  10  18  31  54  76 113 139 179 221 271 329
#     4   9  20  37  54  84 110 149 181 218 275 336
#     4  11  21  34  53  80 110 142 183 234 279 325
#
# _framework density 17.661151
#
# number of rings (size 3 to 8) (size 9 to 14) (size 15 to 20)
#    0.000    2.000    2.500    1.500    7.000    0.000 
#    2.250    0.000    0.000    0.750    0.000    0.875 
#    0.000    0.000    0.000    0.000    0.000    0.000 
#
# Total GULP energy -178188.728738 kJ/mol
# GULP energy per Si atom -5568.397773 kJ/mol
# Density = 1.762095 g / cm^3
# Si number density = 17.661151 Si / 1000 Ang^3
#
#
#
# Elastic Constant Matrix: (Units=GPa)
#
#
# Indices 1 2 3 4 5 6 
#
# 1 78.3372 29.0060 15.0790 0.0000 -12.6135 0.0000
# 2 29.0060 74.9721 20.0169 0.0000 -5.1974 0.0000
# 3 15.0790 20.0169 86.3671 0.0000 3.7636 0.0000
# 4 0.0000 0.0000 0.0000 16.7914 0.0000 -0.9425
# 5 -12.6135 -5.1974 3.7636 0.0000 19.1985 0.0000
# 6 0.0000 0.0000 0.0000 -0.9425 0.0000 30.2755
#
#
#
# Elastic Compliance Matrix: (Units=1/GPa)
#
#
# Indices 1 2 3 4 5 6 
#
# 1 0.016713 -0.005200 -0.002148 0.000000 0.009994 0.000000
# 2 -0.005200 0.016238 -0.002923 0.000000 0.001553 0.000000
# 3 -0.002148 -0.002923 0.012837 0.000000 -0.004719 0.000000
# 4 0.000000 0.000000 0.000000 0.059658 0.000000 0.001857
# 5 0.009994 0.001553 -0.004719 0.000000 0.059999 0.000000
# 6 0.000000 0.000000 0.000000 0.001857 0.000000 0.033088
#
#
# Mechanical properties :
#
#
# Convention : Reuss Voigt Hill
#
# Bulk Modulus (GPa) = 39.61120 40.87558 40.24339
# Shear Modulus (GPa) = 21.97879 24.95804 23.46842
#
# Velocity S-wave (km/s) = 3.53153 3.76328 3.64925
# Velocity P-wave (km/s) = 6.25349 6.48673 6.37117
#
# Compressibility (1/GPa) = 0.02524538
#
# Stress axis : x y z
#
# Youngs Moduli (GPa) = 59.83206 61.58316 77.90137
#
# Poissons Ratio (x) = 0.32022 0.16736
# Poissons Ratio (y) = 0.31112 0.22773
# Poissons Ratio (z) = 0.12854 0.18002
#
# Static dielectric constant tensor:
#      x y z
#    x 1.666540 0.000000 -0.005420 
#    y 0.000000 1.615570 0.000000 
#    z -0.005420 0.000000 1.649730 
# 
# From -- ./inp_files/122445.got.cif
#   From: 2010.05.17/outbox.cif.g08.bks.cpg/sg15_62_cif.got.tgz:122445.got - 2010.06.03 18:47:42.
