data_PCOD9257498
_publ_section_title
;
Structure prediction by ZEFSAII (Michael W. Deem and Ramdas Pophale) SiO2 
 PCOD9257498
Probable space group: C 2/C
;
_chemical_formula_sum "Si O2"
_cell_formula_units_Z 52
_cell_length_a 12.210577
_cell_length_b 17.278143
_cell_length_c 16.108720
_cell_angle_alpha 90.000000
_cell_angle_beta 134.567171
_cell_angle_gamma 90.000000
_cell_volume 2421.226466
_symmetry_space_group_name_H-M "C 2/C"
_symmetry_group_IT_number 15
_symmetry_cell_setting 'monoclinic'
loop_
_space_group_symop_operation_xyz
x,y,z
-x,y,1/2-z
-x,-y,-z
x,-y,1/2+z
1/2+x,1/2+y,z
1/2-x,1/2+y,1/2-z
1/2-x,1/2-y,-z
1/2+x,1/2-y,1/2+z
loop_
_atom_site_type_symbol
_atom_site_label
_atom_site_fract_x
_atom_site_fract_y
_atom_site_fract_z
Si Si1 0.189900 0.390685 0.117981
Si Si2 0.982480 0.742444 0.056300
Si Si3 0.500000 0.295404 0.250000
Si Si4 0.411414 0.662588 0.365445
Si Si5 0.830662 0.309765 0.225320
Si Si6 0.314869 0.439612 0.675296
Si Si7 0.746142 0.341615 0.012085
O O1 0.351929 0.348055 0.187345
O O2 0.153761 0.372272 0.194295
O O3 0.224727 0.480079 0.122838
O O4 0.065215 0.343452 0.997586
O O5 0.963727 0.750662 0.145076
O O6 0.156668 0.772163 0.133204
O O7 0.882508 0.798739 0.940235
O O8 0.422006 0.734330 0.305825
O O9 0.308457 0.599904 0.263264
O O10 0.581762 0.628516 0.457852
O O11 0.854051 0.347807 0.148571
O O12 0.500000 0.447222 0.750000
O O13 0.237342 0.384163 0.565741
O O14 0.750000 0.250000 0.000000
#
# Coordination Sequence:
#
# PCOD9257498 Si02
#       7
#     8   8   4   8   8   8   8
#     4  10  19  34  52  78 111 134 177 222 270 314
#     4   9  19  33  55  76 102 142 182 213 256 317
#     4  10  18  34  54  76 102 144 182 222 248 322
#     4   9  18  33  53  78 103 138 175 215 265 315
#     4   9  18  34  53  77 105 139 178 215 258 318
#     4  10  19  33  52  81 111 137 172 223 274 309
#     4  10  18  31  56  80 102 138 180 218 259 319
#
# _framework density 21.476718000000002
#
# number of rings (size 3 to 8) (size 9 to 14) (size 15 to 20)
#    0.000    2.462    2.308    0.462    0.000    0.000 
#    2.769    3.846    0.000    0.000    0.000    0.000 
#    0.000    0.000    0.000    0.000    0.000    0.000 
#
# Total GULP energy -144888.072932 kJ/mol
# GULP energy per Si atom -5572.618190 kJ/mol
# Density = 2.142784 g / cm^3
# Si number density = 21.476718 Si / 1000 Ang^3
#
#
#
# Elastic Constant Matrix: (Units=GPa)
#
#
# Indices 1 2 3 4 5 6 
#
# 1 60.4132 25.1997 47.0124 0.0000 -22.2840 0.0000
# 2 25.1997 140.8020 71.1284 0.0000 -23.4380 0.0000
# 3 47.0124 71.1284 166.9599 -0.0001 -36.5262 -0.0001
# 4 0.0000 0.0000 -0.0001 25.2293 -0.0001 1.5927
# 5 -22.2840 -23.4380 -36.5262 -0.0001 44.6866 0.0000
# 6 0.0000 0.0000 -0.0001 1.5927 0.0000 19.8256
#
#
#
# Elastic Compliance Matrix: (Units=1/GPa)
#
#
# Indices 1 2 3 4 5 6 
#
# 1 0.023153 -0.000552 -0.004654 0.000000 0.007452 0.000000
# 2 -0.000552 0.009204 -0.003373 0.000000 0.001795 0.000000
# 3 -0.004654 -0.003373 0.009550 0.000000 0.003716 0.000000
# 4 0.000000 0.000000 0.000000 0.039839 0.000000 -0.003201
# 5 0.007452 0.001795 0.003716 0.000000 0.030073 0.000000
# 6 0.000000 0.000000 0.000000 -0.003201 0.000000 0.050697
#
#
# Mechanical properties :
#
#
# Convention : Reuss Voigt Hill
#
# Bulk Modulus (GPa) = 40.40572 72.76178 56.58375
# Shear Modulus (GPa) = 26.60665 32.93728 29.77197
#
# Velocity S-wave (km/s) = 3.52356 3.92040 3.72727
# Velocity P-wave (km/s) = 5.95051 7.37873 6.70277
#
# Compressibility (1/GPa) = 0.02474897
#
# Stress axis : x y z
#
# Youngs Moduli (GPa) = 43.19005 108.65317 104.71528
#
# Poissons Ratio (x) = 0.06001 0.48733
# Poissons Ratio (y) = 0.02386 0.35317
# Poissons Ratio (z) = 0.20100 0.36645
#
# Static dielectric constant tensor:
#      x y z
#    x 1.930830 0.000000 0.051420 
#    y 0.000000 1.745460 0.000000 
#    z 0.051420 0.000000 1.861190 
# 
# From -- ./inp_files/97784.got.cif
#   From: 2010.05.17/outbox.cif.g08.bks.cpg/sg15_49_cif.got.tgz:97784.got - 2010.06.03 18:47:42.
