data_PCOD9257097
_publ_section_title
;
Structure prediction by ZEFSAII (Michael W. Deem and Ramdas Pophale) SiO2 
 PCOD9257097
Probable space group: C 2/C
;
_chemical_formula_sum "Si O2"
_cell_formula_units_Z 40
_cell_length_a 22.430536
_cell_length_b 9.446958
_cell_length_c 19.704971
_cell_angle_alpha 90.000000
_cell_angle_beta 159.698938
_cell_angle_gamma 90.000000
_cell_volume 1448.698892
_symmetry_space_group_name_H-M "C 2/C"
_symmetry_group_IT_number 15
_symmetry_cell_setting 'monoclinic'
loop_
_space_group_symop_operation_xyz
x,y,z
-x,y,1/2-z
-x,-y,-z
x,-y,1/2+z
1/2+x,1/2+y,z
1/2-x,1/2+y,1/2-z
1/2-x,1/2-y,-z
1/2+x,1/2-y,1/2+z
loop_
_atom_site_type_symbol
_atom_site_label
_atom_site_fract_x
_atom_site_fract_y
_atom_site_fract_z
Si Si1 0.363260 0.075546 0.050109
Si Si2 0.631921 0.805948 0.200859
Si Si3 0.178205 0.669545 0.314833
Si Si4 0.232051 0.430471 0.725112
Si Si5 0.691223 0.587633 0.473001
O O1 0.500000 0.138819 0.250000
O O2 0.489932 0.099788 0.121598
O O3 0.198639 0.169031 0.857960
O O4 0.304603 0.931529 0.024931
O O5 0.630463 0.640445 0.178342
O O6 0.722241 0.907697 0.239966
O O7 0.718361 0.834711 0.366621
O O8 0.440137 0.866166 0.992623
O O9 0.243227 0.647814 0.308948
O O10 0.303125 0.574643 0.494781
O O11 0.500000 0.633006 0.250000
#
# Coordination Sequence:
#
# PCOD9257097 Si02
#       5
#     8   8   8   8   8
#     4  10  18  30  53  90 128 159 203 269 329 372
#     4  10  23  43  67  95 133 170 219 272 325 390
#     4  10  18  32  60  92 124 160 216 282 321 365
#     4  10  22  43  67  99 131 171 218 270 329 387
#     4  10  20  36  57  88 125 165 211 261 319 385
#
# _framework density 27.610983999999998
#
# number of rings (size 3 to 8) (size 9 to 14) (size 15 to 20)
#    0.000    2.000    0.000    5.400    0.000    4.000 
#    0.000   11.000    0.000    0.000    0.000    0.000 
#    0.000    0.000    0.000    0.000    0.000    0.000 
#
# Total GULP energy -111616.990976 kJ/mol
# GULP energy per Si atom -5580.849549 kJ/mol
# Density = 2.754814 g / cm^3
# Si number density = 27.610984 Si / 1000 Ang^3
#
#
#
# Elastic Constant Matrix: (Units=GPa)
#
#
# Indices 1 2 3 4 5 6 
#
# 1 62.0799 26.3731 20.6196 0.0004 -20.7644 0.0002
# 2 26.3731 87.0888 20.4985 0.0012 -9.7755 0.0009
# 3 20.6196 20.4985 124.0688 0.0009 -5.9097 0.0009
# 4 0.0004 0.0012 0.0009 23.4457 0.0005 -13.1210
# 5 -20.7644 -9.7755 -5.9097 0.0005 46.2776 0.0003
# 6 0.0002 0.0009 0.0009 -13.1210 0.0003 48.9421
#
#
#
# Elastic Compliance Matrix: (Units=1/GPa)
#
#
# Indices 1 2 3 4 5 6 
#
# 1 0.021902 -0.005122 -0.002392 0.000000 0.008440 0.000000
# 2 -0.005122 0.013390 -0.001344 -0.000001 0.000359 0.000000
# 3 -0.002392 -0.001344 0.008668 0.000000 -0.000250 0.000000
# 4 0.000000 -0.000001 0.000000 0.050181 -0.000001 0.013453
# 5 0.008440 0.000359 -0.000250 -0.000001 0.025439 0.000000
# 6 0.000000 0.000000 0.000000 0.013453 0.000000 0.024039
#
#
# Mechanical properties :
#
#
# Convention : Reuss Voigt Hill
#
# Bulk Modulus (GPa) = 38.10410 45.35778 41.73094
# Shear Modulus (GPa) = 29.39761 37.44949 33.42355
#
# Velocity S-wave (km/s) = 3.26652 3.68683 3.48302
# Velocity P-wave (km/s) = 5.29691 5.88105 5.59660
#
# Compressibility (1/GPa) = 0.02624389
#
# Stress axis : x y z
#
# Youngs Moduli (GPa) = 45.65881 74.68111 115.37139
#
# Poissons Ratio (x) = 0.38253 0.27593
# Poissons Ratio (y) = 0.23387 0.15506
# Poissons Ratio (z) = 0.10920 0.10037
#
# Static dielectric constant tensor:
#      x y z
#    x 2.310430 0.000000 0.092060 
#    y 0.000000 2.105600 0.000000 
#    z 0.092060 0.000000 2.082750 
# 
# From -- ./inp_files/255516.got.cif
#   From: 2010.05.17/outbox.cif.g08.bks.cpg/sg15_128_cif.got.tgz:255516.got - 2010.06.03 18:47:42.
