data_PCOD9257973
_publ_section_title
;
Structure prediction by ZEFSAII (Michael W. Deem and Ramdas Pophale) SiO2 
 PCOD9257973
Probable space group: C 2/C
;
_chemical_formula_sum "Si O2"
_cell_formula_units_Z 60
_cell_length_a 12.543957
_cell_length_b 14.647611
_cell_length_c 18.995498
_cell_angle_alpha 90.000000
_cell_angle_beta 66.551646
_cell_angle_gamma 90.000000
_cell_volume 3201.988963
_symmetry_space_group_name_H-M "C 2/C"
_symmetry_group_IT_number 15
_symmetry_cell_setting 'monoclinic'
loop_
_space_group_symop_operation_xyz
x,y,z
-x,y,1/2-z
-x,-y,-z
x,-y,1/2+z
1/2+x,1/2+y,z
1/2-x,1/2+y,1/2-z
1/2-x,1/2-y,-z
1/2+x,1/2-y,1/2+z
loop_
_atom_site_type_symbol
_atom_site_label
_atom_site_fract_x
_atom_site_fract_y
_atom_site_fract_z
Si Si1 0.478937 0.085255 0.102639
Si Si2 0.000000 0.583392 0.250000
Si Si3 0.126075 0.140072 0.591699
Si Si4 0.383509 0.711234 0.656637
Si Si5 0.834391 0.091617 0.541459
Si Si6 0.283037 0.779986 0.821242
Si Si7 0.906336 0.111098 0.061959
Si Si8 0.687229 0.003447 0.470905
O O1 0.479092 0.037840 0.179763
O O2 0.443857 0.191067 0.123001
O O3 0.385221 0.042317 0.074671
O O4 0.603936 0.068411 0.033807
O O5 0.112757 0.646269 0.206663
O O6 0.193296 0.215240 0.618706
O O7 0.121142 0.151957 0.508548
O O8 0.991471 0.145905 0.649540
O O9 0.195504 0.046611 0.584060
O O10 0.323668 0.667189 0.604487
O O11 0.299082 0.726039 0.744409
O O12 0.727904 0.079240 0.516445
O O13 0.954988 0.110527 0.468559
O O14 0.858251 0.992522 0.571163
O O15 0.162285 0.831182 0.863015
#
# Coordination Sequence:
#
# PCOD9257973 Si02
#       8
#     8   4   8   8   8   8   8   8
#     4  10  21  38  58  87 112 157 191 242 287 358
#     4  10  18  34  58  80 114 144 188 236 294 332
#     4  10  18  32  56  87 111 146 190 250 275 340
#     4  10  21  35  58  85 118 150 199 233 301 338
#     4   9  19  36  55  88 115 152 191 245 284 350
#     4  11  18  32  55  89 113 150 190 244 289 344
#     4   9  19  31  57  85 121 147 191 237 302 331
#     4  10  22  37  59  87 118 149 204 233 294 339
#
# _framework density 18.738353
#
# number of rings (size 3 to 8) (size 9 to 14) (size 15 to 20)
#    0.000    2.133    2.667    2.800    3.733    0.533 
#    7.200    0.000    0.000    0.000    0.000    0.000 
#    0.000    0.000    0.000    0.000    0.000    0.000 
#
# Total GULP energy -167263.997867 kJ/mol
# GULP energy per Si atom -5575.466596 kJ/mol
# Density = 1.869570 g / cm^3
# Si number density = 18.738353 Si / 1000 Ang^3
#
#
#
# Elastic Constant Matrix: (Units=GPa)
#
#
# Indices 1 2 3 4 5 6 
#
# 1 88.4453 27.2200 44.2713 0.0000 12.8646 0.0000
# 2 27.2200 40.8542 51.9335 0.0000 0.9003 0.0000
# 3 44.2713 51.9335 96.0990 0.0000 2.8099 0.0000
# 4 0.0000 0.0000 0.0000 19.6304 0.0000 1.5303
# 5 12.8646 0.9003 2.8099 0.0000 21.7641 0.0000
# 6 0.0000 0.0000 0.0000 1.5303 0.0000 23.6425
#
#
#
# Elastic Compliance Matrix: (Units=1/GPa)
#
#
# Indices 1 2 3 4 5 6 
#
# 1 0.016435 -0.004665 -0.004790 0.000000 -0.008903 0.000000
# 2 -0.004665 0.079627 -0.041022 0.000000 0.004760 0.000000
# 3 -0.004790 -0.041022 0.034780 0.000000 0.000038 0.000000
# 4 0.000000 0.000000 0.000000 0.051200 0.000000 -0.003314
# 5 -0.008903 0.004760 0.000038 0.000000 0.051008 0.000000
# 6 0.000000 0.000000 0.000000 -0.003314 0.000000 0.042511
#
#
# Mechanical properties :
#
#
# Convention : Reuss Voigt Hill
#
# Bulk Modulus (GPa) = 33.45739 52.47200 42.96470
# Shear Modulus (GPa) = 12.93736 19.80565 16.37150
#
# Velocity S-wave (km/s) = 2.63044 3.25462 2.95903
# Velocity P-wave (km/s) = 5.20763 6.49512 5.88668
#
# Compressibility (1/GPa) = 0.02988876
#
# Stress axis : x y z
#
# Youngs Moduli (GPa) = 60.84720 12.55852 28.75185
#
# Poissons Ratio (x) = 0.05858 0.13772
# Poissons Ratio (y) = 0.28385 1.17946
# Poissons Ratio (z) = 0.29145 0.51518
#
# Static dielectric constant tensor:
#      x y z
#    x 1.659860 0.000000 0.004680 
#    y 0.000000 1.667100 0.000000 
#    z 0.004680 0.000000 1.670810 
# 
# From -- ./inp_files/238711.got.cif
#   From: 2010.05.17/outbox.cif.g08.bks.cpg/sg15_120_cif.got.tgz:238711.got - 2010.06.03 18:47:42.
