data_PCOD9257157
_publ_section_title
;
Structure prediction by ZEFSAII (Michael W. Deem and Ramdas Pophale) SiO2 
 PCOD9257157
Probable space group: C 2/C
;
_chemical_formula_sum "Si O2"
_cell_formula_units_Z 40
_cell_length_a 15.268847
_cell_length_b 12.073471
_cell_length_c 24.849297
_cell_angle_alpha 90.000000
_cell_angle_beta 29.388992
_cell_angle_gamma 90.000000
_cell_volume 2248.022907
_symmetry_space_group_name_H-M "C 2/C"
_symmetry_group_IT_number 15
_symmetry_cell_setting 'monoclinic'
loop_
_space_group_symop_operation_xyz
x,y,z
-x,y,1/2-z
-x,-y,-z
x,-y,1/2+z
1/2+x,1/2+y,z
1/2-x,1/2+y,1/2-z
1/2-x,1/2-y,-z
1/2+x,1/2-y,1/2+z
loop_
_atom_site_type_symbol
_atom_site_label
_atom_site_fract_x
_atom_site_fract_y
_atom_site_fract_z
Si Si1 0.125848 0.734475 0.483331
Si Si2 0.146959 0.158854 0.589289
Si Si3 0.253070 0.644016 0.839152
Si Si4 0.339250 0.591436 0.455111
Si Si5 0.847063 0.099723 0.286726
O O1 0.198653 0.651592 0.490964
O O2 0.174978 0.856190 0.478362
O O3 0.230127 0.697207 0.373942
O O4 0.918334 0.712152 0.586514
O O5 0.250000 0.250000 0.500000
O O6 0.220423 0.155409 0.610911
O O7 0.934681 0.177865 0.711141
O O8 0.172344 0.039339 0.547416
O O9 0.233864 0.511664 0.839306
O O10 0.535295 0.626599 0.327999
O O11 0.000000 0.071560 0.250000
#
# Coordination Sequence:
#
# PCOD9257157 Si02
#       5
#     8   8   8   8   8
#     4  10  18  30  56  82 107 130 177 229 271 307
#     4  10  20  37  56  71 109 147 181 220 261 318
#     4  10  18  34  54  81  97 144 191 212 257 332
#     4   9  19  34  51  82 110 136 175 224 270 316
#     4   9  15  31  53  73 108 140 177 220 260 325
#
# _framework density 17.793413000000001
#
# number of rings (size 3 to 8) (size 9 to 14) (size 15 to 20)
#    0.000    2.400    6.000    0.600    0.000    1.600 
#    3.600    1.000   22.000    0.000    0.000    0.000 
#    0.000    0.000    0.000    0.000    0.000    0.000 
#
# Total GULP energy -111444.822312 kJ/mol
# GULP energy per Si atom -5572.241116 kJ/mol
# Density = 1.775291 g / cm^3
# Si number density = 17.793413 Si / 1000 Ang^3
#
#
#
# Elastic Constant Matrix: (Units=GPa)
#
#
# Indices 1 2 3 4 5 6 
#
# 1 39.2305 34.7501 37.0306 0.0006 -11.9417 0.0000
# 2 34.7501 99.2007 69.7197 -0.0003 3.5148 0.0002
# 3 37.0306 69.7197 86.8207 0.0036 6.1414 -0.0005
# 4 0.0006 -0.0003 0.0036 31.2626 -0.0013 6.7350
# 5 -11.9417 3.5148 6.1414 -0.0013 26.3589 0.0002
# 6 0.0000 0.0002 -0.0005 6.7350 0.0002 18.8566
#
#
#
# Elastic Compliance Matrix: (Units=1/GPa)
#
#
# Indices 1 2 3 4 5 6 
#
# 1 0.067361 -0.006586 -0.026093 0.000004 0.037475 -0.000002
# 2 -0.006586 0.023826 -0.016155 0.000002 -0.002397 -0.000002
# 3 -0.026093 -0.016155 0.036912 -0.000005 -0.018267 0.000003
# 4 0.000004 0.000002 -0.000005 0.034654 0.000004 -0.012377
# 5 0.037475 -0.002397 -0.018267 0.000004 0.059492 -0.000003
# 6 -0.000002 -0.000002 0.000003 -0.012377 -0.000003 0.057453
#
#
# Mechanical properties :
#
#
# Convention : Reuss Voigt Hill
#
# Bulk Modulus (GPa) = 32.85972 56.47252 44.66612
# Shear Modulus (GPa) = 12.90295 20.87907 16.89101
#
# Velocity S-wave (km/s) = 2.69579 3.42923 3.08439
# Velocity P-wave (km/s) = 5.31010 6.89103 6.15156
#
# Compressibility (1/GPa) = 0.03043239
#
# Stress axis : x y z
#
# Youngs Moduli (GPa) = 14.84533 41.97038 27.09155
#
# Poissons Ratio (x) = 0.27642 0.70689
# Poissons Ratio (y) = 0.09777 0.43765
# Poissons Ratio (z) = 0.38736 0.67802
#
# Static dielectric constant tensor:
#      x y z
#    x 1.609210 0.000000 0.008740 
#    y 0.000000 1.608070 0.000000 
#    z 0.008740 0.000000 1.633060 
# 
# From -- ./inp_files/151259.got.cif
#   From: 2010.05.17/outbox.cif.g08.bks.cpg/sg15_76_cif.got.tgz:151259.got - 2010.06.03 18:47:42.
