data_PCOD9257964
_publ_section_title
;
Structure prediction by ZEFSAII (Michael W. Deem and Ramdas Pophale) SiO2 
 PCOD9257964
Probable space group: C 2/C
;
_chemical_formula_sum "Si O2"
_cell_formula_units_Z 44
_cell_length_a 28.785317
_cell_length_b 13.817390
_cell_length_c 15.899032
_cell_angle_alpha 90.000000
_cell_angle_beta 158.700105
_cell_angle_gamma 90.000000
_cell_volume 2297.062271
_symmetry_space_group_name_H-M "C 2/C"
_symmetry_group_IT_number 15
_symmetry_cell_setting 'monoclinic'
loop_
_space_group_symop_operation_xyz
x,y,z
-x,y,1/2-z
-x,-y,-z
x,-y,1/2+z
1/2+x,1/2+y,z
1/2-x,1/2+y,1/2-z
1/2-x,1/2-y,-z
1/2+x,1/2-y,1/2+z
loop_
_atom_site_type_symbol
_atom_site_label
_atom_site_fract_x
_atom_site_fract_y
_atom_site_fract_z
Si Si1 0.855581 0.944209 0.042597
Si Si2 0.028318 0.897703 0.090068
Si Si3 0.461262 0.248913 0.855975
Si Si4 0.500000 0.860656 0.250000
Si Si5 0.737961 0.659171 0.272145
Si Si6 0.755404 0.349657 0.113915
O O1 0.000000 0.962958 0.250000
O O2 0.775565 0.043461 0.907415
O O3 0.873077 0.908846 0.167457
O O4 0.788386 0.866645 0.868711
O O5 0.057790 0.815095 0.071303
O O6 0.893069 0.867211 0.902347
O O7 0.000000 0.000000 0.000000
O O8 0.510067 0.198932 0.853982
O O9 0.350582 0.321549 0.635144
O O10 0.390848 0.170932 0.797182
O O11 0.642641 0.903862 0.490037
O O12 0.760126 0.770010 0.338480
#
# Coordination Sequence:
#
# PCOD9257964 Si02
#       6
#     8   8   8   4   8   8
#     4  10  20  33  58  88 112 143 186 237 278 325
#     4  10  18  32  56  85 114 134 186 241 281 321
#     4   9  18  31  52  82 104 148 182 231 275 327
#     4  10  20  34  56  68 114 152 198 214 276 348
#     4   9  21  34  53  85 112 147 183 234 272 329
#     4   9  17  32  55  79 114 141 186 229 275 325
#
# _framework density 19.154900999999999
#
# number of rings (size 3 to 8) (size 9 to 14) (size 15 to 20)
#    0.000    2.545    1.818    1.091    5.091    0.000 
#    0.000    1.818   10.000    0.000    0.000    0.000 
#    0.000    0.000    0.000    0.000    0.000    0.000 
#
# Total GULP energy -122487.984390 kJ/mol
# GULP energy per Si atom -5567.635654 kJ/mol
# Density = 1.911130 g / cm^3
# Si number density = 19.154901 Si / 1000 Ang^3
#
#
#
# Elastic Constant Matrix: (Units=GPa)
#
#
# Indices 1 2 3 4 5 6 
#
# 1 74.7870 37.0446 28.0777 0.0000 -28.5274 0.0000
# 2 37.0446 74.9216 44.6782 0.0000 -25.5925 0.0000
# 3 28.0777 44.6782 82.8733 0.0000 -31.7818 0.0000
# 4 0.0000 0.0000 0.0000 26.5779 0.0000 -7.6371
# 5 -28.5274 -25.5925 -31.7818 0.0000 40.4951 0.0000
# 6 0.0000 0.0000 0.0000 -7.6371 0.0000 17.9070
#
#
#
# Elastic Compliance Matrix: (Units=1/GPa)
#
#
# Indices 1 2 3 4 5 6 
#
# 1 0.020650 -0.007096 0.000985 0.000000 0.010835 0.000000
# 2 -0.007096 0.023139 -0.009126 0.000000 0.002462 0.000000
# 3 0.000985 -0.009126 0.021040 0.000000 0.011439 0.000000
# 4 0.000000 0.000000 0.000000 0.042880 0.000000 0.018288
# 5 0.010835 0.002462 0.011439 0.000000 0.042861 0.000000
# 6 0.000000 0.000000 0.000000 0.018288 0.000000 0.063644
#
#
# Mechanical properties :
#
#
# Convention : Reuss Voigt Hill
#
# Bulk Modulus (GPa) = 29.10922 50.24254 39.67588
# Shear Modulus (GPa) = 19.52057 25.18142 22.35100
#
# Velocity S-wave (km/s) = 3.19578 3.62970 3.41963
# Velocity P-wave (km/s) = 5.37095 6.62215 6.02909
#
# Compressibility (1/GPa) = 0.03435338
#
# Stress axis : x y z
#
# Youngs Moduli (GPa) = 48.42705 43.21651 47.52901
#
# Poissons Ratio (x) = 0.30667 -0.04680
# Poissons Ratio (y) = 0.34365 0.43376
# Poissons Ratio (z) = -0.04769 0.39440
#
# Static dielectric constant tensor:
#      x y z
#    x 1.743340 0.000000 0.036250 
#    y 0.000000 1.661880 0.000000 
#    z 0.036250 0.000000 1.719060 
# 
# From -- ./inp_files/182360.got.cif
#   From: 2010.05.17/outbox.cif.g08.bks.cpg/sg15_92_cif.got.tgz:182360.got - 2010.06.03 18:47:42.
