data_PCOD9257756
_publ_section_title
;
Structure prediction by ZEFSAII (Michael W. Deem and Ramdas Pophale) SiO2 
 PCOD9257756
Probable space group: C 2/C
;
_chemical_formula_sum "Si O2"
_cell_formula_units_Z 64
_cell_length_a 12.701829
_cell_length_b 16.207307
_cell_length_c 17.107854
_cell_angle_alpha 90.000000
_cell_angle_beta 85.145339
_cell_angle_gamma 90.000000
_cell_volume 3509.230181
_symmetry_space_group_name_H-M "C 2/C"
_symmetry_group_IT_number 15
_symmetry_cell_setting 'monoclinic'
loop_
_space_group_symop_operation_xyz
x,y,z
-x,y,1/2-z
-x,-y,-z
x,-y,1/2+z
1/2+x,1/2+y,z
1/2-x,1/2+y,1/2-z
1/2-x,1/2-y,-z
1/2+x,1/2-y,1/2+z
loop_
_atom_site_type_symbol
_atom_site_label
_atom_site_fract_x
_atom_site_fract_y
_atom_site_fract_z
Si Si1 0.296124 0.089376 0.448661
Si Si2 0.118527 0.959957 0.411524
Si Si3 0.959202 0.504172 0.335131
Si Si4 0.048802 0.094752 0.082660
Si Si5 0.377980 0.298901 0.781350
Si Si6 0.349458 0.704908 0.111298
Si Si7 0.657310 0.101733 0.878544
Si Si8 0.724739 0.877880 0.205856
O O1 0.252918 0.179977 0.431367
O O2 0.298181 0.075366 0.540905
O O3 0.206952 0.030243 0.417931
O O4 0.405358 0.067092 0.398994
O O5 0.106068 0.917826 0.496855
O O6 0.167552 0.898641 0.345247
O O7 0.010773 0.007945 0.395589
O O8 0.869403 0.436815 0.319317
O O9 0.000000 0.540883 0.250000
O O10 0.056609 0.454671 0.366084
O O11 0.115089 0.133473 0.150325
O O12 0.954092 0.159807 0.074613
O O13 0.500000 0.278214 0.750000
O O14 0.331110 0.327709 0.701352
O O15 0.315911 0.215370 0.805611
O O16 0.371555 0.801745 0.112230
O O17 0.731983 0.101782 0.797677
#
# Coordination Sequence:
#
# PCOD9257756 Si02
#       8
#     8   8   8   8   8   8   8   8
#     4  10  19  32  49  75 102 129 166 205 248 301
#     4   9  19  33  48  73 107 130 159 212 255 297
#     4   9  17  31  50  72 100 131 160 206 253 292
#     4   9  17  33  51  70 102 133 166 202 252 301
#     4   9  16  30  51  77  94 133 176 206 244 306
#     4   9  18  32  52  72  97 131 171 207 240 294
#     4  10  18  32  53  74  94 134 170 202 246 307
#     4   9  17  31  51  73 101 125 169 215 249 286
#
# _framework density 18.237618000000001
#
# number of rings (size 3 to 8) (size 9 to 14) (size 15 to 20)
#    0.000    2.750    0.000    3.375    0.000    0.500 
#   13.500    0.000    5.500    0.000    0.000    0.000 
#    0.000    0.000    0.000    0.000    0.000    0.000 
#
# Total GULP energy -178210.576095 kJ/mol
# GULP energy per Si atom -5569.080503 kJ/mol
# Density = 1.819611 g / cm^3
# Si number density = 18.237618 Si / 1000 Ang^3
#
#
#
# Elastic Constant Matrix: (Units=GPa)
#
#
# Indices 1 2 3 4 5 6 
#
# 1 35.3277 14.4201 43.8185 0.0000 -5.9118 0.0000
# 2 14.4201 44.9604 39.2439 0.0000 -4.7409 0.0000
# 3 43.8185 39.2439 110.8042 0.0000 -4.2043 0.0000
# 4 0.0000 0.0000 0.0000 27.6097 0.0000 -1.2328
# 5 -5.9118 -4.7409 -4.2043 0.0000 32.1793 0.0000
# 6 0.0000 0.0000 0.0000 -1.2328 0.0000 12.2931
#
#
#
# Elastic Compliance Matrix: (Units=1/GPa)
#
#
# Indices 1 2 3 4 5 6 
#
# 1 0.057607 0.002870 -0.023496 0.000000 0.007936 0.000000
# 2 0.002870 0.032683 -0.012570 0.000000 0.003700 0.000000
# 3 -0.023496 -0.012570 0.022647 0.000000 -0.003210 0.000000
# 4 0.000000 0.000000 0.000000 0.036382 0.000000 0.003648
# 5 0.007936 0.003700 -0.003210 0.000000 0.032660 0.000000
# 6 0.000000 0.000000 0.000000 0.003648 0.000000 0.081713
#
#
# Mechanical properties :
#
#
# Convention : Reuss Voigt Hill
#
# Bulk Modulus (GPa) = 21.48528 42.89527 32.19027
# Shear Modulus (GPa) = 14.46764 20.65707 17.56235
#
# Velocity S-wave (km/s) = 2.81959 3.36916 3.10655
# Velocity P-wave (km/s) = 4.73354 6.22143 5.52778
#
# Compressibility (1/GPa) = 0.04654350
#
# Stress axis : x y z
#
# Youngs Moduli (GPa) = 17.35914 30.59654 44.15613
#
# Poissons Ratio (x) = -0.08780 1.03750
# Poissons Ratio (y) = -0.04981 0.55504
# Poissons Ratio (z) = 0.40787 0.38460
#
# Static dielectric constant tensor:
#      x y z
#    x 1.636220 0.000000 0.013300 
#    y 0.000000 1.649830 0.000000 
#    z 0.013300 0.000000 1.652870 
# 
# From -- ./inp_files/154839.got.cif
#   From: 2010.05.17/outbox.cif.g08.bks.cpg/sg15_78_cif.got.tgz:154839.got - 2010.06.03 18:47:42.
