data_PCOD9257970
_publ_section_title
;
Structure prediction by ZEFSAII (Michael W. Deem and Ramdas Pophale) SiO2 
 PCOD9257970
Probable space group: C 2/C
;
_chemical_formula_sum "Si O2"
_cell_formula_units_Z 56
_cell_length_a 9.689202
_cell_length_b 19.774833
_cell_length_c 13.820600
_cell_angle_alpha 90.000000
_cell_angle_beta 76.701301
_cell_angle_gamma 90.000000
_cell_volume 2577.049351
_symmetry_space_group_name_H-M "C 2/C"
_symmetry_group_IT_number 15
_symmetry_cell_setting 'monoclinic'
loop_
_space_group_symop_operation_xyz
x,y,z
-x,y,1/2-z
-x,-y,-z
x,-y,1/2+z
1/2+x,1/2+y,z
1/2-x,1/2+y,1/2-z
1/2-x,1/2-y,-z
1/2+x,1/2-y,1/2+z
loop_
_atom_site_type_symbol
_atom_site_label
_atom_site_fract_x
_atom_site_fract_y
_atom_site_fract_z
Si Si1 0.103767 0.561085 0.952069
Si Si2 0.131801 0.194748 0.303772
Si Si3 0.796488 0.976704 0.040394
Si Si4 0.488548 0.441918 0.638008
Si Si5 0.477844 0.209177 0.961585
Si Si6 0.794487 0.775976 0.139227
Si Si7 0.340711 0.900527 0.269767
O O1 0.237957 0.543409 0.997485
O O2 0.027940 0.633611 0.979246
O O3 0.155992 0.559725 0.831821
O O4 0.000000 0.500000 0.000000
O O5 0.115875 0.122107 0.354399
O O6 0.262091 0.213134 0.214948
O O7 0.000000 0.195555 0.250000
O O8 0.103006 0.253935 0.383910
O O9 0.919107 0.994803 0.096427
O O10 0.679988 0.944075 0.129728
O O11 0.863998 0.930275 0.944243
O O12 0.500000 0.454532 0.750000
O O13 0.432773 0.256648 0.057993
O O14 0.336405 0.211731 0.915973
O O15 0.780486 0.843769 0.204503
O O16 0.500000 0.869488 0.250000
#
# Coordination Sequence:
#
# PCOD9257970 Si02
#       7
#     8   8   8   8   8   8   8
#     4  12  23  37  59  94 133 167 201 263 326 383
#     4   9  17  33  56  82 109 148 206 258 298 352
#     4  11  24  39  62  93 125 173 210 256 329 389
#     4  10  22  43  64  89 121 164 221 271 308 378
#     4  10  19  32  55  85 122 154 205 258 305 369
#     4  10  18  32  56  86 115 163 207 253 306 361
#     4  12  20  38  59  89 132 165 208 261 316 375
#
# _framework density 21.730277000000001
#
# number of rings (size 3 to 8) (size 9 to 14) (size 15 to 20)
#    0.000    1.429    4.286    2.143    0.000    5.714 
#    0.000    0.714    0.000    0.000    0.000    0.000 
#    0.000    0.000    0.000    0.000    0.000    0.000 
#
# Total GULP energy -156110.246856 kJ/mol
# GULP energy per Si atom -5575.365959 kJ/mol
# Density = 2.168082 g / cm^3
# Si number density = 21.730277 Si / 1000 Ang^3
#
#
#
# Elastic Constant Matrix: (Units=GPa)
#
#
# Indices 1 2 3 4 5 6 
#
# 1 23.9103 6.0404 30.4753 0.0000 -2.3621 0.0000
# 2 6.0404 78.5466 58.0266 0.0000 0.1294 0.0000
# 3 30.4753 58.0266 171.0008 0.0000 -16.1006 0.0000
# 4 0.0000 0.0000 0.0000 44.4575 0.0000 -4.0699
# 5 -2.3621 0.1294 -16.1006 0.0000 21.1216 0.0000
# 6 0.0000 0.0000 0.0000 -4.0699 0.0000 17.7901
#
#
#
# Elastic Compliance Matrix: (Units=1/GPa)
#
#
# Indices 1 2 3 4 5 6 
#
# 1 0.055185 0.004285 -0.011538 0.000000 -0.002650 0.000000
# 2 0.004285 0.017797 -0.007291 0.000000 -0.005188 0.000000
# 3 -0.011538 -0.007291 0.011054 0.000000 0.007181 0.000000
# 4 0.000000 0.000000 0.000000 0.022975 0.000000 0.005256
# 5 -0.002650 -0.005188 0.007181 0.000000 0.052554 0.000000
# 6 0.000000 0.000000 0.000000 0.005256 0.000000 0.057413
#
#
# Mechanical properties :
#
#
# Convention : Reuss Voigt Hill
#
# Bulk Modulus (GPa) = 18.19953 51.39359 34.79656
# Shear Modulus (GPa) = 18.91192 28.60154 23.75673
#
# Velocity S-wave (km/s) = 2.95329 3.63189 3.31003
# Velocity P-wave (km/s) = 4.47466 6.42569 5.53679
#
# Compressibility (1/GPa) = 0.05494647
#
# Stress axis : x y z
#
# Youngs Moduli (GPa) = 18.12084 56.19036 90.46095
#
# Poissons Ratio (x) = -0.24075 1.04377
# Poissons Ratio (y) = -0.07764 0.65956
# Poissons Ratio (z) = 0.20908 0.40969
#
# Static dielectric constant tensor:
#      x y z
#    x 1.917430 0.000000 -0.001960 
#    y 0.000000 1.851440 0.000000 
#    z -0.001960 0.000000 1.855500 
# 
# From -- ./inp_files/89546.got.cif
#   From: 2010.05.17/outbox.cif.g08.bks.cpg/sg15_45_cif.got.tgz:89546.got - 2010.06.03 18:47:42.
