data_PCOD9257584
_publ_section_title
;
Structure prediction by ZEFSAII (Michael W. Deem and Ramdas Pophale) SiO2 
 PCOD9257584
Probable space group: C 2/C
;
_chemical_formula_sum "Si O2"
_cell_formula_units_Z 64
_cell_length_a 20.808156
_cell_length_b 19.046055
_cell_length_c 20.530863
_cell_angle_alpha 90.000000
_cell_angle_beta 26.405736
_cell_angle_gamma 90.000000
_cell_volume 3618.572098
_symmetry_space_group_name_H-M "C 2/C"
_symmetry_group_IT_number 15
_symmetry_cell_setting 'monoclinic'
loop_
_space_group_symop_operation_xyz
x,y,z
-x,y,1/2-z
-x,-y,-z
x,-y,1/2+z
1/2+x,1/2+y,z
1/2-x,1/2+y,1/2-z
1/2-x,1/2-y,-z
1/2+x,1/2-y,1/2+z
loop_
_atom_site_type_symbol
_atom_site_label
_atom_site_fract_x
_atom_site_fract_y
_atom_site_fract_z
Si Si1 0.693052 0.578142 0.937206
Si Si2 0.825604 0.336207 0.210282
Si Si3 0.614382 0.044761 0.939699
Si Si4 0.102925 0.650266 0.551757
Si Si5 0.007981 0.502469 0.814664
Si Si6 0.587661 0.465853 0.861746
Si Si7 0.163676 0.819199 0.769625
Si Si8 0.087258 0.800997 0.606401
O O1 0.704680 0.617981 0.856893
O O2 0.826070 0.524872 0.821548
O O3 0.534601 0.543585 0.083353
O O4 0.702227 0.639861 0.982587
O O5 0.871977 0.377593 0.103636
O O6 0.789888 0.253684 0.239054
O O7 0.955493 0.342409 0.144465
O O8 0.771405 0.008349 0.788876
O O9 0.500000 0.000000 0.000000
O O10 0.556765 0.040199 0.065744
O O11 0.084456 0.575536 0.602734
O O12 0.224905 0.655011 0.386340
O O13 0.129289 0.719224 0.571389
O O14 0.000000 0.470185 0.750000
O O15 0.639114 0.387556 0.835266
O O16 0.500000 0.500000 0.000000
O O17 0.019411 0.803709 0.859209
O O18 0.000000 0.820112 0.750000
#
# Coordination Sequence:
#
# PCOD9257584 Si02
#       8
#     8   8   8   8   8   8   8   8
#     4  10  20  34  50  71 107 145 184 231 267 322
#     4  10  19  33  50  70 102 138 178 231 269 315
#     4  12  20  36  57  77 103 146 186 229 281 327
#     4  10  18  32  47  70 102 144 179 216 265 318
#     4  11  23  35  51  77 109 146 187 229 273 329
#     4  11  20  34  56  80 108 145 183 232 283 329
#     4  10  20  32  48  73 104 140 185 221 270 325
#     4  10  21  29  44  69 105 149 184 216 259 316
#
# _framework density 17.686534999999999
#
# number of rings (size 3 to 8) (size 9 to 14) (size 15 to 20)
#    0.000    1.500    6.250    0.375    1.750    0.500 
#    0.000    0.000    0.000    0.000    0.000    0.000 
#    0.000   20.000    0.000    0.000    0.000    0.750 
#
# Total GULP energy -178420.140083 kJ/mol
# GULP energy per Si atom -5575.629378 kJ/mol
# Density = 1.764628 g / cm^3
# Si number density = 17.686535 Si / 1000 Ang^3
#
#
#
# Elastic Constant Matrix: (Units=GPa)
#
#
# Indices 1 2 3 4 5 6 
#
# 1 55.3113 26.6508 31.8521 -0.0031 14.4496 -0.0007
# 2 26.6508 60.8407 24.4999 -0.0065 12.2978 -0.0017
# 3 31.8521 24.4999 103.0114 -0.0029 10.5975 0.0056
# 4 -0.0031 -0.0065 -0.0029 78.7141 0.0021 32.7483
# 5 14.4496 12.2978 10.5975 0.0021 40.2738 -0.0018
# 6 -0.0007 -0.0017 0.0056 32.7483 -0.0018 37.2743
#
#
#
# Elastic Compliance Matrix: (Units=1/GPa)
#
#
# Indices 1 2 3 4 5 6 
#
# 1 0.026859 -0.008321 -0.005752 0.000000 -0.005582 0.000001
# 2 -0.008321 0.021599 -0.002254 0.000002 -0.003017 0.000000
# 3 -0.005752 -0.002254 0.012066 0.000001 -0.000423 -0.000003
# 4 0.000000 0.000002 0.000001 0.020023 -0.000003 -0.017592
# 5 -0.005582 -0.003017 -0.000423 -0.000003 0.027865 0.000004
# 6 0.000001 0.000000 -0.000003 -0.017592 0.000004 0.042284
#
#
# Mechanical properties :
#
#
# Convention : Reuss Voigt Hill
#
# Bulk Modulus (GPa) = 35.87985 42.79656 39.33820
# Shear Modulus (GPa) = 25.95520 40.32983 33.14251
#
# Velocity S-wave (km/s) = 3.83497 4.78038 4.33353
# Velocity P-wave (km/s) = 6.31980 7.39724 6.87965
#
# Compressibility (1/GPa) = 0.02787080
#
# Stress axis : x y z
#
# Youngs Moduli (GPa) = 37.23080 46.29925 82.87945
#
# Poissons Ratio (x) = 0.38526 0.47671
# Poissons Ratio (y) = 0.30980 0.18678
# Poissons Ratio (z) = 0.21415 0.10434
#
# Static dielectric constant tensor:
#      x y z
#    x 1.642350 0.000000 -0.030200 
#    y 0.000000 1.675470 0.000000 
#    z -0.030200 0.000000 1.695030 
# 
# From -- ./inp_files/253447.got.cif
#   From: 2010.05.17/outbox.cif.g08.bks.cpg/sg15_127_cif.got.tgz:253447.got - 2010.06.03 18:47:42.
