data_PCOD9257452
_publ_section_title
;
Structure prediction by ZEFSAII (Michael W. Deem and Ramdas Pophale) SiO2 
 PCOD9257452
Probable space group: C 2/C
;
_chemical_formula_sum "Si O2"
_cell_formula_units_Z 60
_cell_length_a 5.072847
_cell_length_b 23.198706
_cell_length_c 27.194623
_cell_angle_alpha 90.000000
_cell_angle_beta 119.226873
_cell_angle_gamma 90.000000
_cell_volume 2792.930583
_symmetry_space_group_name_H-M "C 2/C"
_symmetry_group_IT_number 15
_symmetry_cell_setting 'monoclinic'
loop_
_space_group_symop_operation_xyz
x,y,z
-x,y,1/2-z
-x,-y,-z
x,-y,1/2+z
1/2+x,1/2+y,z
1/2-x,1/2+y,1/2-z
1/2-x,1/2-y,-z
1/2+x,1/2-y,1/2+z
loop_
_atom_site_type_symbol
_atom_site_label
_atom_site_fract_x
_atom_site_fract_y
_atom_site_fract_z
Si Si1 0.896992 0.175188 0.978748
Si Si2 0.000000 0.137634 0.250000
Si Si3 0.239822 0.073036 0.361173
Si Si4 0.962555 0.271625 0.692885
Si Si5 0.707672 0.455929 0.045866
Si Si6 0.624050 0.547909 0.890998
Si Si7 0.630197 0.641568 0.101662
Si Si8 0.681730 0.683416 0.902954
O O1 0.925196 0.106830 0.973532
O O2 0.543301 0.188649 0.940891
O O3 0.059826 0.199976 0.945811
O O4 0.038638 0.179498 0.045785
O O5 0.017612 0.097472 0.299125
O O6 0.277897 0.180657 0.280849
O O7 0.573174 0.100944 0.381239
O O8 0.134478 0.099558 0.403899
O O9 0.175216 0.004330 0.357182
O O10 0.683358 0.311973 0.650428
O O11 0.969902 0.224365 0.651175
O O12 0.000000 0.243613 0.750000
O O13 0.657860 0.466419 0.099573
O O14 0.042209 0.456463 0.054531
O O15 0.500000 0.500000 0.000000
O O16 0.608947 0.616845 0.879730
#
# Coordination Sequence:
#
# PCOD9257452 Si02
#       8
#     8   4   8   8   8   8   8   8
#     4  10  21  38  57  95 128 159 200 244 309 361
#     4  10  24  42  66  86 116 152 216 262 308 352
#     4  11  21  38  62  91 123 157 201 257 304 359
#     4  11  24  45  66  86 118 161 217 255 304 361
#     4  10  18  31  54  83 123 164 190 227 284 371
#     4  10  20  35  54  87 123 154 195 235 298 358
#     4  11  23  38  66  93 123 162 202 255 306 357
#     4  10  24  39  63  89 129 164 199 250 297 377
#
# _framework density 21.482811999999999
#
# number of rings (size 3 to 8) (size 9 to 14) (size 15 to 20)
#    0.000    1.600    1.333    3.600    1.867    3.200 
#    1.200    0.000    0.000    0.000    0.000    0.000 
#    0.000    0.000    0.000    0.000    0.000    0.000 
#
# Total GULP energy -167121.369915 kJ/mol
# GULP energy per Si atom -5570.712331 kJ/mol
# Density = 2.143392 g / cm^3
# Si number density = 21.482812 Si / 1000 Ang^3
#
#
#
# Elastic Constant Matrix: (Units=GPa)
#
#
# Indices 1 2 3 4 5 6 
#
# 1 83.5124 7.6449 10.2433 0.0000 -13.7050 0.0000
# 2 7.6449 86.9148 44.9342 0.0000 -4.8349 0.0000
# 3 10.2433 44.9342 120.8498 0.0000 -10.8472 0.0000
# 4 0.0000 0.0000 0.0000 36.1420 0.0000 -12.1876
# 5 -13.7050 -4.8349 -10.8472 0.0000 18.8681 0.0000
# 6 0.0000 0.0000 0.0000 -12.1876 0.0000 28.4624
#
#
#
# Elastic Compliance Matrix: (Units=1/GPa)
#
#
# Indices 1 2 3 4 5 6 
#
# 1 0.013632 -0.000634 -0.000048 0.000000 0.009712 0.000000
# 2 -0.000634 0.014280 -0.005239 0.000000 0.000187 0.000000
# 3 -0.000048 -0.005239 0.010653 0.000000 0.004747 0.000000
# 4 0.000000 0.000000 0.000000 0.032338 0.000000 0.013847
# 5 0.009712 0.000187 0.004747 0.000000 0.062830 0.000000
# 6 0.000000 0.000000 0.000000 0.013847 0.000000 0.041063
#
#
# Mechanical properties :
#
#
# Convention : Reuss Voigt Hill
#
# Bulk Modulus (GPa) = 37.42129 46.32464 41.87296
# Shear Modulus (GPa) = 25.56928 31.92479 28.74703
#
# Velocity S-wave (km/s) = 3.45370 3.85913 3.66203
# Velocity P-wave (km/s) = 5.77590 6.43953 6.11672
#
# Compressibility (1/GPa) = 0.02672276
#
# Stress axis : x y z
#
# Youngs Moduli (GPa) = 73.35712 70.02665 93.87117
#
# Poissons Ratio (x) = 0.04439 0.00451
# Poissons Ratio (y) = 0.04651 0.49181
# Poissons Ratio (z) = 0.00352 0.36688
#
# Static dielectric constant tensor:
#      x y z
#    x 1.815070 0.000000 -0.129990 
#    y 0.000000 1.805420 0.000000 
#    z -0.129990 0.000000 1.587730 
# 
# From -- ./inp_files/286679.got.cif
#   From: 2010.05.17/outbox.cif.g08.bks.cpg/sg15_144_cif.got.tgz:286679.got - 2010.06.03 18:47:42.
