data_PCOD9257676
_publ_section_title
;
Structure prediction by ZEFSAII (Michael W. Deem and Ramdas Pophale) SiO2 
 PCOD9257676
Probable space group: C 2/C
;
_chemical_formula_sum "Si O2"
_cell_formula_units_Z 56
_cell_length_a 22.583203
_cell_length_b 7.386163
_cell_length_c 23.802662
_cell_angle_alpha 90.000000
_cell_angle_beta 50.485892
_cell_angle_gamma 90.000000
_cell_volume 3063.005926
_symmetry_space_group_name_H-M "C 2/C"
_symmetry_group_IT_number 15
_symmetry_cell_setting 'monoclinic'
loop_
_space_group_symop_operation_xyz
x,y,z
-x,y,1/2-z
-x,-y,-z
x,-y,1/2+z
1/2+x,1/2+y,z
1/2-x,1/2+y,1/2-z
1/2-x,1/2-y,-z
1/2+x,1/2-y,1/2+z
loop_
_atom_site_type_symbol
_atom_site_label
_atom_site_fract_x
_atom_site_fract_y
_atom_site_fract_z
Si Si1 0.262449 0.610119 0.409110
Si Si2 0.053409 0.533179 0.166958
Si Si3 0.507429 0.873361 0.571447
Si Si4 0.275633 0.978226 0.946013
Si Si5 0.889523 0.331998 0.553322
Si Si6 0.929790 0.903744 0.831884
Si Si7 0.608864 0.537470 0.518751
O O1 0.270219 0.820839 0.422572
O O2 0.230395 0.509717 0.483675
O O3 0.197690 0.598971 0.400990
O O4 0.350162 0.554403 0.347559
O O5 0.013649 0.595009 0.133791
O O6 0.141311 0.602997 0.117243
O O7 0.060787 0.313692 0.164420
O O8 0.000000 0.590528 0.250000
O O9 0.423942 0.845641 0.594835
O O10 0.555169 0.693847 0.528295
O O11 0.552794 0.041464 0.516961
O O12 0.196394 0.891553 0.973085
O O13 0.892390 0.135650 0.521674
O O14 0.000000 0.962847 0.750000
O O15 0.919718 0.981838 0.901107
#
# Coordination Sequence:
#
# PCOD9257676 Si02
#       7
#     8   8   8   8   8   8   8
#     4   8  13  28  52  71 100 133 165 210 254 293
#     4  10  18  32  51  78 105 136 167 210 263 305
#     4  11  21  31  53  78 100 136 167 208 253 303
#     4   8  14  28  49  76  98 126 168 215 255 291
#     4  10  19  35  51  74 106 131 170 206 251 307
#     4   9  17  31  54  77 103 136 171 214 262 301
#     4  10  19  33  54  77 102 131 174 219 253 294
#
# _framework density 18.282695
#
# number of rings (size 3 to 8) (size 9 to 14) (size 15 to 20)
#    0.000    2.571    2.857    2.143    0.000    1.143 
#    0.000    0.000    0.000    8.571    0.000    0.000 
#    0.000    0.000    0.000    0.000    0.000    0.000 
#
# Total GULP energy -156083.805008 kJ/mol
# GULP energy per Si atom -5574.421607 kJ/mol
# Density = 1.824108 g / cm^3
# Si number density = 18.282695 Si / 1000 Ang^3
#
#
#
# Elastic Constant Matrix: (Units=GPa)
#
#
# Indices 1 2 3 4 5 6 
#
# 1 160.0425 27.0138 45.1607 -0.0002 -26.5991 0.0166
# 2 27.0138 52.3442 2.8283 -0.0006 1.3713 0.0046
# 3 45.1607 2.8283 87.7079 -0.0018 -23.3213 0.0087
# 4 -0.0002 -0.0006 -0.0018 -5.3904 0.0012 1.6426
# 5 -26.5991 1.3713 -23.3213 0.0012 25.1728 -0.0017
# 6 0.0166 0.0046 0.0087 1.6426 -0.0017 0.1287
#
#
#
# Elastic Compliance Matrix: (Units=1/GPa)
#
#
# Indices 1 2 3 4 5 6 
#
# 1 0.008980 -0.004694 -0.002496 -0.000045 0.007432 -0.000155
# 2 -0.004694 0.021679 0.000113 -0.000017 -0.006037 -0.000042
# 3 -0.002496 0.000113 0.015896 -0.000038 0.012083 -0.000115
# 4 -0.000045 -0.000017 -0.000038 -0.037950 -0.000046 0.484247
# 5 0.007432 -0.006037 0.012083 -0.000046 0.059102 -0.000181
# 6 -0.000155 -0.000042 -0.000115 0.484247 -0.000181 1.589106
#
#
# Mechanical properties :
#
#
# Convention : Reuss Voigt Hill
#
# Bulk Modulus (GPa) = 30.86451 50.01115 40.43783
# Shear Modulus (GPa) = 2.97306 18.98834 10.98070
#
# Velocity S-wave (km/s) = 1.27659 3.22622 2.45339
# Velocity P-wave (km/s) = 4.36937 6.42587 5.49469
#
# Compressibility (1/GPa) = 0.03239967
#
# Stress axis : x y z
#
# Youngs Moduli (GPa) = 111.35373 46.12749 62.90871
#
# Poissons Ratio (x) = 0.21654 0.15705
# Poissons Ratio (y) = 0.52274 -0.00710
# Poissons Ratio (z) = 0.27799 -0.00521
#
# Static dielectric constant tensor:
#      x y z
#    x 1.652260 0.000000 -0.024500 
#    y 0.000000 1.670730 0.000000 
#    z -0.024500 0.000000 1.606940 
# 
# From -- ./inp_files/279345.got.cif
#   From: 2010.05.17/outbox.cif.g08.bks.cpg/sg15_140_cif.got.tgz:279345.got - 2010.06.03 18:47:42.
