data_PCOD9257368
_publ_section_title
;
Structure prediction by ZEFSAII (Michael W. Deem and Ramdas Pophale) SiO2 
 PCOD9257368
Probable space group: C 2/C
;
_chemical_formula_sum "Si O2"
_cell_formula_units_Z 64
_cell_length_a 12.694795
_cell_length_b 22.466837
_cell_length_c 26.811433
_cell_angle_alpha 90.000000
_cell_angle_beta 150.264941
_cell_angle_gamma 90.000000
_cell_volume 3792.806177
_symmetry_space_group_name_H-M "C 2/C"
_symmetry_group_IT_number 15
_symmetry_cell_setting 'monoclinic'
loop_
_space_group_symop_operation_xyz
x,y,z
-x,y,1/2-z
-x,-y,-z
x,-y,1/2+z
1/2+x,1/2+y,z
1/2-x,1/2+y,1/2-z
1/2-x,1/2-y,-z
1/2+x,1/2-y,1/2+z
loop_
_atom_site_type_symbol
_atom_site_label
_atom_site_fract_x
_atom_site_fract_y
_atom_site_fract_z
Si Si1 0.111944 0.358173 0.848689
Si Si2 0.283862 0.706668 0.273242
Si Si3 0.483061 0.815151 0.299838
Si Si4 0.954737 0.466229 0.601807
Si Si5 0.144124 0.907479 0.761118
Si Si6 0.145216 0.550608 0.762307
Si Si7 0.040301 0.152155 0.470511
Si Si8 0.463330 0.529025 0.087883
O O1 0.099871 0.412899 0.882051
O O2 0.355985 0.342814 0.936738
O O3 0.000000 0.376303 0.750000
O O4 0.956265 0.306044 0.805610
O O5 0.352265 0.770418 0.280881
O O6 0.318549 0.659136 0.243243
O O7 0.442272 0.688018 0.383293
O O8 0.500000 0.792169 0.250000
O O9 0.363839 0.878697 0.248185
O O10 0.725456 0.826170 0.418122
O O11 0.753157 0.494237 0.492963
O O12 0.130845 0.439364 0.637848
O O13 0.051763 0.518739 0.675312
O O14 0.000000 0.909457 0.750000
O O15 0.044686 0.941751 0.672592
O O16 0.370252 0.519666 0.863189
O O17 0.000000 0.536755 0.750000
O O18 0.055316 0.083225 0.459057
#
# Coordination Sequence:
#
# PCOD9257368 Si02
#       8
#     8   8   8   8   8   8   8   8
#     4   9  18  32  55  80 103 135 176 211 258 309
#     4   9  19  37  56  72 102 137 180 223 251 299
#     4  11  22  33  51  80 109 141 173 216 261 306
#     4  10  18  31  52  78 107 134 168 209 259 320
#     4   9  19  35  54  72  95 137 182 219 255 296
#     4  10  20  31  47  79 112 141 159 207 268 311
#     4  10  19  35  57  83 100 140 177 210 261 320
#     4  10  20  32  53  80 109 134 168 212 264 324
#
# _framework density 16.87405
#
# number of rings (size 3 to 8) (size 9 to 14) (size 15 to 20)
#    0.000    2.250    1.250    4.125    3.500    1.500 
#    0.000    0.625    2.750    9.000    0.000    0.000 
#    0.000    0.000    0.000    0.000    0.000    0.000 
#
# Total GULP energy -178406.246999 kJ/mol
# GULP energy per Si atom -5575.195219 kJ/mol
# Density = 1.683564 g / cm^3
# Si number density = 16.874050 Si / 1000 Ang^3
#
#
#
# Elastic Constant Matrix: (Units=GPa)
#
#
# Indices 1 2 3 4 5 6 
#
# 1 100.9782 42.3433 21.7302 -0.0002 26.9627 -0.0005
# 2 42.3433 68.3101 28.4377 -0.0001 16.8118 -0.0002
# 3 21.7302 28.4377 68.7816 -0.0007 22.1914 -0.0012
# 4 -0.0002 -0.0001 -0.0007 16.6982 -0.0014 5.4872
# 5 26.9627 16.8118 22.1914 -0.0014 19.8498 -0.0004
# 6 -0.0005 -0.0002 -0.0012 5.4872 -0.0004 19.4598
#
#
#
# Elastic Compliance Matrix: (Units=1/GPa)
#
#
# Indices 1 2 3 4 5 6 
#
# 1 0.018529 -0.007615 0.005215 -0.000002 -0.024550 0.000001
# 2 -0.007615 0.022376 -0.006364 0.000000 -0.001494 0.000000
# 3 0.005215 -0.006364 0.025135 -0.000002 -0.029794 0.000002
# 4 -0.000002 0.000000 -0.000002 0.066002 0.000009 -0.018611
# 5 -0.024550 -0.001494 -0.029794 0.000009 0.118299 -0.000003
# 6 0.000001 0.000000 0.000002 -0.018611 -0.000003 0.056636
#
#
# Mechanical properties :
#
#
# Convention : Reuss Voigt Hill
#
# Bulk Modulus (GPa) = 20.61292 47.01027 33.81160
# Shear Modulus (GPa) = 14.67672 20.90548 17.79110
#
# Velocity S-wave (km/s) = 2.95240 3.52364 3.25059
# Velocity P-wave (km/s) = 4.88513 6.66893 5.84548
#
# Compressibility (1/GPa) = 0.04851326
#
# Stress axis : x y z
#
# Youngs Moduli (GPa) = 53.96908 44.69057 39.78534
#
# Poissons Ratio (x) = 0.34031 -0.20748
# Poissons Ratio (y) = 0.41096 0.25318
# Poissons Ratio (z) = -0.28145 0.28440
#
# Static dielectric constant tensor:
#      x y z
#    x 1.557940 0.000000 0.017930 
#    y 0.000000 1.560910 0.000000 
#    z 0.017930 0.000000 1.601030 
# 
# From -- ./inp_files/90798.got.cif
#   From: 2010.05.17/outbox.cif.g08.bks.cpg/sg15_46_cif.got.tgz:90798.got - 2010.06.03 18:47:42.
