data_PCOD9257167
_publ_section_title
;
Structure prediction by ZEFSAII (Michael W. Deem and Ramdas Pophale) SiO2 
 PCOD9257167
Probable space group: C 2/C
;
_chemical_formula_sum "Si O2"
_cell_formula_units_Z 60
_cell_length_a 28.951498
_cell_length_b 14.654264
_cell_length_c 22.532570
_cell_angle_alpha 90.000000
_cell_angle_beta 165.482828
_cell_angle_gamma 90.000000
_cell_volume 2396.339841
_symmetry_space_group_name_H-M "C 2/C"
_symmetry_group_IT_number 15
_symmetry_cell_setting 'monoclinic'
loop_
_space_group_symop_operation_xyz
x,y,z
-x,y,1/2-z
-x,-y,-z
x,-y,1/2+z
1/2+x,1/2+y,z
1/2-x,1/2+y,1/2-z
1/2-x,1/2-y,-z
1/2+x,1/2-y,1/2+z
loop_
_atom_site_type_symbol
_atom_site_label
_atom_site_fract_x
_atom_site_fract_y
_atom_site_fract_z
Si Si1 0.289236 0.724699 0.982178
Si Si2 0.246972 0.582677 0.535050
Si Si3 0.764272 0.672327 0.336488
Si Si4 0.145442 0.213229 0.652296
Si Si5 0.212725 0.026928 0.777965
Si Si6 0.837142 0.844324 0.978877
Si Si7 0.779087 0.028174 0.964952
Si Si8 0.750000 0.250000 0.500000
O O1 0.500000 0.700640 0.250000
O O2 0.209018 0.627693 0.860358
O O3 0.250000 0.750000 0.000000
O O4 0.274502 0.807610 0.918869
O O5 0.263251 0.552136 0.622609
O O6 0.213714 0.498803 0.449826
O O7 0.117223 0.660401 0.347473
O O8 0.438237 0.643613 0.755176
O O9 0.879521 0.748819 0.445138
O O10 0.812660 0.567253 0.385705
O O11 0.548350 0.694795 0.056118
O O12 0.251549 0.117334 0.788348
O O13 0.252847 0.293640 0.818312
O O14 0.000000 0.000000 0.500000
O O15 0.783502 0.785172 0.969441
O O16 0.755874 0.945414 0.889743
O O17 0.000000 0.022646 0.250000
#
# Coordination Sequence:
#
# PCOD9257167 Si02
#       8
#     8   8   8   8   8   8   8   4
#     4  11  22  41  66  88 120 159 209 268 318 373
#     4  10  18  35  58  90 121 163 218 257 317 384
#     4  11  25  42  67  94 125 169 220 262 325 392
#     4  11  23  42  64  93 128 170 212 262 324 387
#     4  10  21  39  63  88 121 176 220 254 310 408
#     4  10  19  34  59  88 126 160 214 263 312 373
#     4   8  18  33  58  88 113 162 210 259 306 384
#     4  10  18  30  56  88 122 156 208 258 322 362
#
# _framework density 25.038184000000001
#
# number of rings (size 3 to 8) (size 9 to 14) (size 15 to 20)
#    0.000    1.867    1.333    4.400    0.000    6.400 
#    0.000    4.000    2.933    0.000    0.000    0.000 
#    0.000    0.000    0.000    0.000    0.000    0.000 
#
# Total GULP energy -167053.857712 kJ/mol
# GULP energy per Si atom -5568.461924 kJ/mol
# Density = 2.498120 g / cm^3
# Si number density = 25.038184 Si / 1000 Ang^3
#
#
#
# Elastic Constant Matrix: (Units=GPa)
#
#
# Indices 1 2 3 4 5 6 
#
# 1 113.0808 37.0302 -0.2938 0.0087 6.3922 0.0002
# 2 37.0302 168.3639 1.3382 0.0144 -0.5262 0.0059
# 3 -0.2938 1.3382 49.9931 0.0041 6.3463 0.0068
# 4 0.0087 0.0144 0.0041 14.8197 0.0056 -21.4616
# 5 6.3922 -0.5262 6.3463 0.0056 29.3707 0.0059
# 6 0.0002 0.0059 0.0068 -21.4616 0.0059 22.6705
#
#
#
# Elastic Compliance Matrix: (Units=1/GPa)
#
#
# Indices 1 2 3 4 5 6 
#
# 1 0.009670 -0.002137 0.000397 0.000004 -0.002229 0.000005
# 2 -0.002137 0.006414 -0.000265 0.000021 0.000637 0.000018
# 3 0.000397 -0.000265 0.020588 0.000030 -0.004540 0.000023
# 4 0.000004 0.000021 0.000030 -0.181905 0.000062 -0.172204
# 5 -0.002229 0.000637 -0.004540 0.000062 0.035525 0.000051
# 6 0.000005 0.000018 0.000023 -0.172204 0.000051 -0.118911
#
#
# Mechanical properties :
#
#
# Convention : Reuss Voigt Hill
#
# Bulk Modulus (GPa) = 30.61678 45.28743 37.95211
# Shear Modulus (GPa) = -23.39496 32.92973 4.76738
#
# Velocity S-wave (km/s) = -3.06006 3.63048 1.38137
# Velocity P-wave (km/s) = 0.48036 5.97498 4.21127
#
# Compressibility (1/GPa) = 0.03266183
#
# Stress axis : x y z
#
# Youngs Moduli (GPa) = 103.41229 155.91820 48.57082
#
# Poissons Ratio (x) = 0.33319 -0.01928
# Poissons Ratio (y) = 0.22099 0.01288
# Poissons Ratio (z) = -0.04105 0.04134
#
# Static dielectric constant tensor:
#      x y z
#    x 2.032720 0.000000 0.081220 
#    y 0.000000 1.592650 -0.000040 
#    z 0.081220 -0.000040 1.879720 
# 
# From -- ./inp_files/257876.got.cif
#   From: 2010.05.17/outbox.cif.g08.bks.cpg/sg15_129_cif.got.tgz:257876.got - 2010.06.03 18:47:42.
