data_PCOD9257162
_publ_section_title
;
Structure prediction by ZEFSAII (Michael W. Deem and Ramdas Pophale) SiO2 
 PCOD9257162
Probable space group: C 2/C
;
_chemical_formula_sum "Si O2"
_cell_formula_units_Z 36
_cell_length_a 22.039452
_cell_length_b 11.220119
_cell_length_c 14.849037
_cell_angle_alpha 90.000000
_cell_angle_beta 154.962254
_cell_angle_gamma 90.000000
_cell_volume 1554.024426
_symmetry_space_group_name_H-M "C 2/C"
_symmetry_group_IT_number 15
_symmetry_cell_setting 'monoclinic'
loop_
_space_group_symop_operation_xyz
x,y,z
-x,y,1/2-z
-x,-y,-z
x,-y,1/2+z
1/2+x,1/2+y,z
1/2-x,1/2+y,1/2-z
1/2-x,1/2-y,-z
1/2+x,1/2-y,1/2+z
loop_
_atom_site_type_symbol
_atom_site_label
_atom_site_fract_x
_atom_site_fract_y
_atom_site_fract_z
Si Si1 0.000000 0.963817 0.750000
Si Si2 0.104246 0.772280 0.749799
Si Si3 0.245988 0.388418 0.968329
Si Si4 0.971649 0.475874 0.102281
Si Si5 0.832323 0.974999 0.767740
O O1 0.016509 0.871809 0.688871
O O2 0.864493 0.053631 0.561442
O O3 0.161965 0.832372 0.736807
O O4 0.017147 0.651861 0.624946
O O5 0.250000 0.750000 0.000000
O O6 0.086484 0.426559 0.725878
O O7 0.250000 0.250000 0.000000
O O8 0.285823 0.458699 0.113369
O O9 0.000000 0.464544 0.250000
O O10 0.806287 0.504317 0.858773
O O11 0.000000 0.000000 0.000000
#
# Coordination Sequence:
#
# PCOD9257162 Si02
#       5
#     4   8   8   8   8
#     4  10  18  30  56  86 106 132 200 234 266 318
#     4  11  16  34  61  86 105 143 194 239 268 332
#     4  10  22  36  59  81 111 155 191 226 276 346
#     4  10  18  34  60  82 106 148 194 228 271 338
#     4  10  22  38  55  84 118 145 180 239 294 321
#
# _framework density 23.165658000000001
#
# number of rings (size 3 to 8) (size 9 to 14) (size 15 to 20)
#    0.000    1.778    7.778    0.000    4.667    0.000 
#    4.000    0.000    0.000    6.667    0.000    0.000 
#    0.000    0.000    0.000    0.000    0.000    0.000 
#
# Total GULP energy -100274.570744 kJ/mol
# GULP energy per Si atom -5570.809486 kJ/mol
# Density = 2.311293 g / cm^3
# Si number density = 23.165658 Si / 1000 Ang^3
#
#
#
# Elastic Constant Matrix: (Units=GPa)
#
#
# Indices 1 2 3 4 5 6 
#
# 1 42.9508 26.4648 40.1865 0.0000 29.7304 0.0000
# 2 26.4648 140.0480 48.9732 0.0000 40.2338 0.0000
# 3 40.1865 48.9732 193.4136 0.0000 65.7116 0.0000
# 4 0.0000 0.0000 0.0000 25.9317 0.0000 14.3685
# 5 29.7304 40.2338 65.7116 0.0000 51.1122 0.0000
# 6 0.0000 0.0000 0.0000 14.3685 0.0000 26.6717
#
#
#
# Elastic Compliance Matrix: (Units=1/GPa)
#
#
# Indices 1 2 3 4 5 6 
#
# 1 0.039165 -0.001125 -0.000735 0.000000 -0.020951 0.000000
# 2 -0.001125 0.009265 0.000254 0.000000 -0.006966 0.000000
# 3 -0.000735 0.000254 0.009200 0.000000 -0.011600 0.000000
# 4 0.000000 0.000000 0.000000 0.054972 0.000000 -0.029614
# 5 -0.020951 -0.006966 -0.011600 0.000000 0.052149 0.000000
# 6 0.000000 0.000000 0.000000 -0.029614 0.000000 0.053447
#
#
# Mechanical properties :
#
#
# Convention : Reuss Voigt Hill
#
# Bulk Modulus (GPa) = 18.37576 67.51795 42.94686
# Shear Modulus (GPa) = 20.87263 38.12898 29.50080
#
# Velocity S-wave (km/s) = 3.00495 4.06140 3.57244
# Velocity P-wave (km/s) = 4.47093 7.15558 5.96622
#
# Compressibility (1/GPa) = 0.05441951
#
# Stress axis : x y z
#
# Youngs Moduli (GPa) = 25.53272 107.92982 108.69965
#
# Poissons Ratio (x) = 0.12145 0.07985
# Poissons Ratio (y) = 0.02873 -0.02766
# Poissons Ratio (z) = 0.01876 -0.02746
#
# Static dielectric constant tensor:
#      x y z
#    x 2.288260 0.000000 -0.408270 
#    y 0.000000 1.881250 0.000000 
#    z -0.408270 0.000000 2.527510 
# 
# From -- ./inp_files/94079.got.cif
#   From: 2010.05.17/outbox.cif.g08.bks.cpg/sg15_48_cif.got.tgz:94079.got - 2010.06.03 18:47:42.
