data_PCOD9257327
_publ_section_title
;
Structure prediction by ZEFSAII (Michael W. Deem and Ramdas Pophale) SiO2 
 PCOD9257327
Probable space group: C 2/C
;
_chemical_formula_sum "Si O2"
_cell_formula_units_Z 40
_cell_length_a 29.527851
_cell_length_b 6.833328
_cell_length_c 13.746311
_cell_angle_alpha 90.000000
_cell_angle_beta 147.492340
_cell_angle_gamma 90.000000
_cell_volume 1490.589037
_symmetry_space_group_name_H-M "C 2/C"
_symmetry_group_IT_number 15
_symmetry_cell_setting 'monoclinic'
loop_
_space_group_symop_operation_xyz
x,y,z
-x,y,1/2-z
-x,-y,-z
x,-y,1/2+z
1/2+x,1/2+y,z
1/2-x,1/2+y,1/2-z
1/2-x,1/2-y,-z
1/2+x,1/2-y,1/2+z
loop_
_atom_site_type_symbol
_atom_site_label
_atom_site_fract_x
_atom_site_fract_y
_atom_site_fract_z
Si Si1 0.887725 0.710220 0.939575
Si Si2 0.779180 0.844260 0.451148
Si Si3 0.531428 0.730648 0.554156
Si Si4 0.842242 0.823707 0.364912
Si Si5 0.341163 0.238912 0.059584
O O1 0.806238 0.591884 0.757266
O O2 0.900245 0.680160 0.076497
O O3 0.858111 0.940065 0.890166
O O4 0.956130 0.680750 0.980716
O O5 0.750000 0.750000 0.500000
O O6 0.825294 0.742248 0.443095
O O7 0.837893 0.028523 0.575203
O O8 0.500000 0.500000 0.500000
O O9 0.568650 0.754947 0.513982
O O10 0.612125 0.821334 0.759013
O O11 0.754953 0.810962 0.143435
#
# Coordination Sequence:
#
# PCOD9257327 Si02
#       5
#     8   8   8   8   8
#     4   9  19  34  53  78 106 134 172 216 260 306
#     4  10  19  33  51  75 105 139 173 214 260 309
#     4  10  18  31  51  78 103 131 171 218 257 301
#     4   9  19  33  52  76 102 137 178 212 255 314
#     4  10  19  33  55  77 103 139 174 210 257 314
#
# _framework density 26.835031000000001
#
# number of rings (size 3 to 8) (size 9 to 14) (size 15 to 20)
#    0.000    2.400    0.000    3.600    0.000    0.000 
#    0.000    4.000    0.000    4.800    0.000   28.000 
#    0.000    0.000    0.000    0.000    0.000    0.000 
#
# Total GULP energy -111410.582134 kJ/mol
# GULP energy per Si atom -5570.529107 kJ/mol
# Density = 2.677395 g / cm^3
# Si number density = 26.835031 Si / 1000 Ang^3
#
#
#
# Elastic Constant Matrix: (Units=GPa)
#
#
# Indices 1 2 3 4 5 6 
#
# 1 307.1633 30.5426 52.5235 0.0000 32.4270 0.0000
# 2 30.5426 81.9480 16.4465 0.0000 2.9393 0.0000
# 3 52.5235 16.4465 29.8195 0.0000 -9.4295 0.0000
# 4 0.0000 0.0000 0.0000 22.3354 0.0000 -3.8707
# 5 32.4270 2.9393 -9.4295 0.0000 47.3496 0.0000
# 6 0.0000 0.0000 0.0000 -3.8707 0.0000 34.5162
#
#
#
# Elastic Compliance Matrix: (Units=1/GPa)
#
#
# Indices 1 2 3 4 5 6 
#
# 1 0.006262 0.000651 -0.013616 0.000000 -0.007041 0.000000
# 2 0.000651 0.014077 -0.009955 0.000000 -0.003302 0.000000
# 3 -0.013616 -0.009955 0.070599 0.000000 0.024002 0.000000
# 4 0.000000 0.000000 0.000000 0.045659 0.000000 0.005120
# 5 -0.007041 -0.003302 0.024002 0.000000 0.030926 0.000000
# 6 0.000000 0.000000 0.000000 0.005120 0.000000 0.029546
#
#
# Mechanical properties :
#
#
# Convention : Reuss Voigt Hill
#
# Bulk Modulus (GPa) = 22.17389 68.66177 45.41783
# Shear Modulus (GPa) = 19.38418 42.13477 30.75948
#
# Velocity S-wave (km/s) = 2.69057 3.96680 3.38929
# Velocity P-wave (km/s) = 4.23476 6.82809 5.68137
#
# Compressibility (1/GPa) = 0.04509809
#
# Stress axis : x y z
#
# Youngs Moduli (GPa) = 159.68214 71.04032 14.16451
#
# Poissons Ratio (x) = -0.04626 0.19287
# Poissons Ratio (y) = -0.10398 0.14101
# Poissons Ratio (z) = 2.17426 0.70720
#
# Static dielectric constant tensor:
#      x y z
#    x 2.115390 0.000000 -0.027500 
#    y 0.000000 2.301150 0.000000 
#    z -0.027500 0.000000 2.072240 
# 
# From -- ./inp_files/158761.got.cif
#   From: 2010.05.17/outbox.cif.g08.bks.cpg/sg15_80_cif.got.tgz:158761.got - 2010.06.03 18:47:42.
