data_PCOD9257376
_publ_section_title
;
Structure prediction by ZEFSAII (Michael W. Deem and Ramdas Pophale) SiO2 
 PCOD9257376
Probable space group: C 2/C
;
_chemical_formula_sum "Si O2"
_cell_formula_units_Z 52
_cell_length_a 27.473230
_cell_length_b 16.167457
_cell_length_c 5.498355
_cell_angle_alpha 90.000000
_cell_angle_beta 70.261239
_cell_angle_gamma 90.000000
_cell_volume 2298.717707
_symmetry_space_group_name_H-M "C 2/C"
_symmetry_group_IT_number 15
_symmetry_cell_setting 'monoclinic'
loop_
_space_group_symop_operation_xyz
x,y,z
-x,y,1/2-z
-x,-y,-z
x,-y,1/2+z
1/2+x,1/2+y,z
1/2-x,1/2+y,1/2-z
1/2-x,1/2-y,-z
1/2+x,1/2-y,1/2+z
loop_
_atom_site_type_symbol
_atom_site_label
_atom_site_fract_x
_atom_site_fract_y
_atom_site_fract_z
Si Si1 0.746724 0.553572 0.429930
Si Si2 0.973544 0.371591 0.544875
Si Si3 0.649946 0.668859 0.615778
Si Si4 0.136097 0.448267 0.791463
Si Si5 0.500000 0.712803 0.250000
Si Si6 0.385752 0.330725 0.823771
Si Si7 0.419645 0.505332 0.758473
O O1 0.740071 0.501332 0.693690
O O2 0.705901 0.627810 0.498519
O O3 0.805773 0.586042 0.325183
O O4 0.913208 0.389732 0.646572
O O5 0.000000 0.399789 0.750000
O O6 0.982673 0.273837 0.496130
O O7 0.000000 0.405752 0.250000
O O8 0.633808 0.711419 0.390544
O O9 0.609355 0.592399 0.695480
O O10 0.641275 0.708024 0.894571
O O11 0.131895 0.508711 0.563662
O O12 0.552196 0.670521 0.250979
O O13 0.376874 0.430738 0.828413
O O14 0.448967 0.498692 0.459276
#
# Coordination Sequence:
#
# PCOD9257376 Si02
#       7
#     8   8   8   8   4   8   8
#     4  10  18  31  55  85 122 146 168 214 281 357
#     4  10  23  40  61  81 110 155 178 233 277 329
#     4  10  18  31  52  80 109 143 178 227 286 328
#     4  10  21  36  60  96 119 138 173 218 279 349
#     4  10  26  40  56  76 104 154 208 232 278 304
#     4  10  20  32  53  72 105 145 196 233 262 331
#     4   8  14  26  42  67  94 125 163 213 267 306
#
# _framework density 22.621309
#
# number of rings (size 3 to 8) (size 9 to 14) (size 15 to 20)
#    0.462    1.846    0.000    4.615    2.154    1.846 
#    0.000    6.923    0.000    1.846    0.000    0.000 
#    0.000    0.000    0.000    0.000    0.000    0.000 
#
# Total GULP energy -144934.420521 kJ/mol
# GULP energy per Si atom -5574.400789 kJ/mol
# Density = 2.256982 g / cm^3
# Si number density = 22.621309 Si / 1000 Ang^3
#
#
#
# Elastic Constant Matrix: (Units=GPa)
#
#
# Indices 1 2 3 4 5 6 
#
# 1 154.1763 13.6162 69.5934 0.0000 -5.3428 0.0000
# 2 13.6162 16.8717 -2.2034 0.0000 -5.0901 0.0000
# 3 69.5934 -2.2034 183.3211 0.0000 33.2750 0.0000
# 4 0.0000 0.0000 0.0000 -24.2298 0.0000 -20.9001
# 5 -5.3428 -5.0901 33.2750 0.0000 50.5476 0.0000
# 6 0.0000 0.0000 0.0000 -20.9001 0.0000 -3.5945
#
#
#
# Elastic Compliance Matrix: (Units=1/GPa)
#
#
# Indices 1 2 3 4 5 6 
#
# 1 0.009021 -0.006929 -0.004037 0.000000 0.002913 0.000000
# 2 -0.006929 0.066480 0.002666 0.000000 0.004207 0.000000
# 3 -0.004037 0.002666 0.008005 0.000000 -0.005428 0.000000
# 4 0.000000 0.000000 0.000000 0.010278 0.000000 -0.059762
# 5 0.002913 0.004207 -0.005428 0.000000 0.024088 0.000000
# 6 0.000000 0.000000 0.000000 -0.059762 0.000000 0.069283
#
#
# Mechanical properties :
#
#
# Convention : Reuss Voigt Hill
#
# Bulk Modulus (GPa) = 14.94633 57.37573 36.16103
# Shear Modulus (GPa) = 22.11843 22.76887 22.44365
#
# Velocity S-wave (km/s) = 3.13032 3.17602 3.15325
# Velocity P-wave (km/s) = 4.43698 6.23443 5.41086
#
# Compressibility (1/GPa) = 0.06690608
#
# Stress axis : x y z
#
# Youngs Moduli (GPa) = 110.85203 15.04216 124.92927
#
# Poissons Ratio (x) = 0.10422 0.50430
# Poissons Ratio (y) = 0.76805 -0.33302
# Poissons Ratio (z) = 0.44747 -0.04010
#
# Static dielectric constant tensor:
#      x y z
#    x 1.813170 0.000000 0.060580 
#    y 0.000000 1.878290 0.000000 
#    z 0.060580 0.000000 1.962110 
# 
# From -- ./inp_files/17052.got.cif
#   From: 2010.05.17/outbox.cif.g08.bks.cpg/sg15_9_cif.got.tgz:17052.got - 2010.06.03 18:47:42.
