data_PCOD9257071
_publ_section_title
;
Structure prediction by ZEFSAII (Michael W. Deem and Ramdas Pophale) SiO2 
 PCOD9257071
Probable space group: C 2/C
;
_chemical_formula_sum "Si O2"
_cell_formula_units_Z 60
_cell_length_a 7.296139
_cell_length_b 12.293413
_cell_length_c 25.708674
_cell_angle_alpha 90.000000
_cell_angle_beta 100.014675
_cell_angle_gamma 90.000000
_cell_volume 2270.790555
_symmetry_space_group_name_H-M "C 2/C"
_symmetry_group_IT_number 15
_symmetry_cell_setting 'monoclinic'
loop_
_space_group_symop_operation_xyz
x,y,z
-x,y,1/2-z
-x,-y,-z
x,-y,1/2+z
1/2+x,1/2+y,z
1/2-x,1/2+y,1/2-z
1/2-x,1/2-y,-z
1/2+x,1/2-y,1/2+z
loop_
_atom_site_type_symbol
_atom_site_label
_atom_site_fract_x
_atom_site_fract_y
_atom_site_fract_z
Si Si1 0.000000 0.801122 0.750000
Si Si2 0.639640 0.127927 0.819724
Si Si3 0.165178 0.612272 0.619277
Si Si4 0.359114 0.415208 0.650991
Si Si5 0.302313 0.190463 0.076853
Si Si6 0.032046 0.613457 0.308164
Si Si7 0.201744 0.767360 0.074110
Si Si8 0.143645 0.525375 0.961661
O O1 0.158726 0.714811 0.775176
O O2 0.985832 0.877235 0.800376
O O3 0.433379 0.154636 0.833891
O O4 0.781085 0.158886 0.872458
O O5 0.629719 0.003747 0.803463
O O6 0.349631 0.540802 0.633793
O O7 0.177467 0.702955 0.575377
O O8 0.001553 0.530829 0.593100
O O9 0.171790 0.405575 0.676775
O O10 0.330415 0.335324 0.599660
O O11 0.354874 0.172664 0.140394
O O12 0.494225 0.223817 0.058131
O O13 0.231806 0.079891 0.046337
O O14 0.000000 0.664220 0.250000
O O15 0.259772 0.856158 0.033344
O O16 0.000000 0.500000 0.000000
#
# Coordination Sequence:
#
# PCOD9257071 Si02
#       8
#     4   8   8   8   8   8   8   8
#     4  10  18  30  52  88 110 166 220 236 290 362
#     4   9  17  34  58  79 117 166 202 249 294 348
#     4  10  21  42  58  86 128 159 199 257 308 368
#     4   9  19  37  54  80 129 165 197 252 303 350
#     4  11  22  41  63  89 126 161 199 254 315 360
#     4  10  18  34  55  83 118 164 207 244 294 351
#     4   9  18  41  62  84 118 163 195 242 316 363
#     4  11  23  44  70  92 118 157 205 259 320 380
#
# _framework density 26.422516000000002
#
# number of rings (size 3 to 8) (size 9 to 14) (size 15 to 20)
#    0.000    2.133    6.000    0.000    1.867    1.067 
#   10.800    0.667    0.000    0.000    0.000    0.000 
#    0.000    0.000    0.000    0.000    0.000    0.000 
#
# Total GULP energy -167372.714649 kJ/mol
# GULP energy per Si atom -5579.090488 kJ/mol
# Density = 2.636238 g / cm^3
# Si number density = 26.422516 Si / 1000 Ang^3
#
#
#
# Elastic Constant Matrix: (Units=GPa)
#
#
# Indices 1 2 3 4 5 6 
#
# 1 51.8239 56.1963 6.8089 0.0000 -16.5359 0.0000
# 2 56.1963 153.0843 21.5469 0.0000 -14.7875 0.0000
# 3 6.8089 21.5469 59.9338 0.0000 -14.6021 0.0000
# 4 0.0000 0.0000 0.0000 30.2669 0.0000 -3.8344
# 5 -16.5359 -14.7875 -14.6021 0.0000 20.8034 0.0000
# 6 0.0000 0.0000 0.0000 -3.8344 0.0000 43.1385
#
#
#
# Elastic Compliance Matrix: (Units=1/GPa)
#
#
# Indices 1 2 3 4 5 6 
#
# 1 0.042694 -0.013876 0.007242 0.000000 0.029156 0.000000
# 2 -0.013876 0.011649 -0.003958 0.000000 -0.005527 0.000000
# 3 0.007242 -0.003958 0.021716 0.000000 0.018185 0.000000
# 4 0.000000 0.000000 0.000000 0.033416 0.000000 0.002970
# 5 0.029156 -0.005527 0.018185 0.000000 0.080079 0.000000
# 6 0.000000 0.000000 0.000000 0.002970 0.000000 0.023445
#
#
# Mechanical properties :
#
#
# Convention : Reuss Voigt Hill
#
# Bulk Modulus (GPa) = 18.22338 48.21624 33.21981
# Shear Modulus (GPa) = 19.80390 30.86109 25.33250
#
# Velocity S-wave (km/s) = 2.74069 3.42129 3.09972
# Velocity P-wave (km/s) = 4.11425 5.82192 5.04092
#
# Compressibility (1/GPa) = 0.05487458
#
# Stress axis : x y z
#
# Youngs Moduli (GPa) = 23.42251 85.84252 46.04901
#
# Poissons Ratio (x) = 1.19112 -0.33347
# Poissons Ratio (y) = 0.32500 0.18227
# Poissons Ratio (z) = -0.16962 0.33979
#
# Static dielectric constant tensor:
#      x y z
#    x 2.145990 0.000000 -0.085740 
#    y 0.000000 2.202400 0.000000 
#    z -0.085740 0.000000 2.291670 
# 
# From -- ./inp_files/307206.got.cif
#   From: 2010.05.17/outbox.cif.g08.bks.cpg/sg15_154_cif.got.tgz:307206.got - 2010.06.03 18:47:42.
