data_PCOD9257879
_publ_section_title
;
Structure prediction by ZEFSAII (Michael W. Deem and Ramdas Pophale) SiO2 
 PCOD9257879
Probable space group: C 2/C
;
_chemical_formula_sum "Si O2"
_cell_formula_units_Z 48
_cell_length_a 25.439058
_cell_length_b 13.295630
_cell_length_c 12.468267
_cell_angle_alpha 90.000000
_cell_angle_beta 29.230682
_cell_angle_gamma 90.000000
_cell_volume 2059.334113
_symmetry_space_group_name_H-M "C 2/C"
_symmetry_group_IT_number 15
_symmetry_cell_setting 'monoclinic'
loop_
_space_group_symop_operation_xyz
x,y,z
-x,y,1/2-z
-x,-y,-z
x,-y,1/2+z
1/2+x,1/2+y,z
1/2-x,1/2+y,1/2-z
1/2-x,1/2-y,-z
1/2+x,1/2-y,1/2+z
loop_
_atom_site_type_symbol
_atom_site_label
_atom_site_fract_x
_atom_site_fract_y
_atom_site_fract_z
Si Si1 0.910240 0.776818 0.326347
Si Si2 0.624480 0.055245 0.157708
Si Si3 0.321871 0.869295 0.711800
Si Si4 0.500000 0.392733 0.750000
Si Si5 0.035526 0.881515 0.924075
Si Si6 0.000000 0.384998 0.250000
Si Si7 0.315792 0.484154 0.700821
O O1 0.914621 0.657577 0.326120
O O2 0.786226 0.808147 0.566846
O O3 0.000000 0.819279 0.250000
O O4 0.948624 0.814251 0.140974
O O5 0.621156 0.080720 0.288582
O O6 0.560410 0.958897 0.227432
O O7 0.751337 0.045665 0.904530
O O8 0.411214 0.821497 0.473786
O O9 0.274203 0.958181 0.724980
O O10 0.550629 0.352219 0.773209
O O11 0.594419 0.458585 0.526911
O O12 0.140783 0.886129 0.812676
O O13 0.000000 0.000000 0.000000
#
# Coordination Sequence:
#
# PCOD9257879 Si02
#       7
#     8   8   8   4   8   4   8
#     4  12  23  42  66  94 130 165 210 266 316 374
#     4  11  23  41  64  94 124 169 213 259 318 377
#     4  11  21  38  64  92 124 167 215 256 310 386
#     4  10  18  32  54  92 124 154 204 254 302 366
#     4  10  20  34  61  94 125 165 201 259 311 368
#     4  10  24  42  66  90 128 166 212 266 310 374
#     4  10  19  35  61  93 124 162 207 259 308 371
#
# _framework density 23.308503999999999
#
# number of rings (size 3 to 8) (size 9 to 14) (size 15 to 20)
#    0.000    1.333    2.500    6.000    1.167    0.000 
#    0.000    3.333    0.000    2.000    0.000    0.000 
#    0.000    0.000    0.000    0.000    0.000    0.000 
#
# Total GULP energy -133799.823773 kJ/mol
# GULP energy per Si atom -5574.992657 kJ/mol
# Density = 2.325545 g / cm^3
# Si number density = 23.308504 Si / 1000 Ang^3
#
#
#
# Elastic Constant Matrix: (Units=GPa)
#
#
# Indices 1 2 3 4 5 6 
#
# 1 127.1985 -3.2528 56.5149 0.0000 10.3608 0.0000
# 2 -3.2528 39.9639 18.0116 0.0000 0.3770 0.0000
# 3 56.5149 18.0116 187.0664 0.0000 21.1296 0.0000
# 4 0.0000 0.0000 0.0000 -1.0067 0.0000 -10.4857
# 5 10.3608 0.3770 21.1296 0.0000 37.7522 0.0000
# 6 0.0000 0.0000 0.0000 -10.4857 0.0000 28.0979
#
#
#
# Elastic Compliance Matrix: (Units=1/GPa)
#
#
# Indices 1 2 3 4 5 6 
#
# 1 0.009278 0.002069 -0.002895 0.000000 -0.000946 0.000000
# 2 0.002069 0.026672 -0.003308 0.000000 0.001017 0.000000
# 3 -0.002895 -0.003308 0.006880 0.000000 -0.003023 0.000000
# 4 0.000000 0.000000 0.000000 -0.203259 0.000000 -0.075853
# 5 -0.000946 0.001017 -0.003023 0.000000 0.028430 0.000000
# 6 0.000000 0.000000 0.000000 -0.075853 0.000000 0.007283
#
#
# Mechanical properties :
#
#
# Convention : Reuss Voigt Hill
#
# Bulk Modulus (GPa) = 28.93349 55.19739 42.06544
# Shear Modulus (GPa) = -47.65304 31.83233 -7.91036
#
# Velocity S-wave (km/s) = -4.52646 3.69954 -1.84422
# Velocity P-wave (km/s) = 3.85724 6.47931 3.68125
#
# Compressibility (1/GPa) = 0.03456203
#
# Stress axis : x y z
#
# Youngs Moduli (GPa) = 107.78017 37.49199 145.33989
#
# Poissons Ratio (x) = -0.07757 0.42081
# Poissons Ratio (y) = -0.22300 0.48080
# Poissons Ratio (z) = 0.31206 0.12403
#
# Static dielectric constant tensor:
#      x y z
#    x 2.107090 0.000000 -0.082860 
#    y 0.000000 1.872920 0.000000 
#    z -0.082860 0.000000 2.017380 
# 
# From -- ./inp_files/123461.got.cif
#   From: 2010.05.17/outbox.cif.g08.bks.cpg/sg15_62_cif.got.tgz:123461.got - 2010.06.03 18:47:42.
