data_PCOD9257264
_publ_section_title
;
Structure prediction by ZEFSAII (Michael W. Deem and Ramdas Pophale) SiO2 
 PCOD9257264
Probable space group: C 2/C
;
_chemical_formula_sum "Si O2"
_cell_formula_units_Z 44
_cell_length_a 10.990138
_cell_length_b 24.433554
_cell_length_c 13.149085
_cell_angle_alpha 90.000000
_cell_angle_beta 41.057781
_cell_angle_gamma 90.000000
_cell_volume 2319.164500
_symmetry_space_group_name_H-M "C 2/C"
_symmetry_group_IT_number 15
_symmetry_cell_setting 'monoclinic'
loop_
_space_group_symop_operation_xyz
x,y,z
-x,y,1/2-z
-x,-y,-z
x,-y,1/2+z
1/2+x,1/2+y,z
1/2-x,1/2+y,1/2-z
1/2-x,1/2-y,-z
1/2+x,1/2-y,1/2+z
loop_
_atom_site_type_symbol
_atom_site_label
_atom_site_fract_x
_atom_site_fract_y
_atom_site_fract_z
Si Si1 0.962128 0.440365 0.476041
Si Si2 0.500000 0.741138 0.750000
Si Si3 0.284238 0.407943 0.390329
Si Si4 0.275451 0.485875 0.034538
Si Si5 0.196746 0.172345 0.459952
Si Si6 0.165708 0.071457 0.331424
O O1 0.880079 0.446978 0.415707
O O2 0.801641 0.417134 0.651604
O O3 0.000000 0.500000 0.500000
O O4 0.159010 0.410441 0.369021
O O5 0.671387 0.780873 0.665670
O O6 0.545735 0.705274 0.621532
O O7 0.500000 0.393728 0.250000
O O8 0.292208 0.466914 0.438729
O O9 0.194920 0.364163 0.523429
O O10 0.244966 0.522529 0.154930
O O11 0.467524 0.453342 0.924634
O O12 0.138004 0.126057 0.416440
#
# Coordination Sequence:
#
# PCOD9257264 Si02
#       6
#     8   4   8   8   8   8
#     4  10  19  30  50  75 112 151 184 217 254 323
#     4  10  20  36  54  82 102 138 184 248 288 324
#     4  10  18  31  49  77 110 144 175 219 271 322
#     4   9  19  32  51  78 114 150 178 215 261 338
#     4  10  20  34  56  78 108 133 185 235 292 327
#     4  10  19  34  52  81 112 149 182 222 274 332
#
# _framework density 18.972351
#
# number of rings (size 3 to 8) (size 9 to 14) (size 15 to 20)
#    0.000    2.182    0.909    3.818    0.000    5.818 
#    0.000    0.000    0.000    0.000    0.000   22.909 
#    0.000    0.000    0.000    0.000    0.000    0.000 
#
# Total GULP energy -122538.227456 kJ/mol
# GULP energy per Si atom -5569.919430 kJ/mol
# Density = 1.892917 g / cm^3
# Si number density = 18.972351 Si / 1000 Ang^3
#
#
#
# Elastic Constant Matrix: (Units=GPa)
#
#
# Indices 1 2 3 4 5 6 
#
# 1 138.6483 40.6164 44.3586 0.0000 -8.4091 0.0000
# 2 40.6164 100.2147 45.3928 0.0000 -2.5235 0.0000
# 3 44.3586 45.3928 101.9621 0.0000 -0.3082 0.0000
# 4 0.0000 0.0000 0.0000 18.5616 0.0000 9.1182
# 5 -8.4091 -2.5235 -0.3082 0.0000 15.2499 0.0000
# 6 0.0000 0.0000 0.0000 9.1182 0.0000 5.2388
#
#
#
# Elastic Compliance Matrix: (Units=1/GPa)
#
#
# Indices 1 2 3 4 5 6 
#
# 1 0.009087 -0.002234 -0.002945 0.000000 0.004582 0.000000
# 2 -0.002234 0.013107 -0.004861 0.000000 0.000839 0.000000
# 3 -0.002945 -0.004861 0.013246 0.000000 -0.002161 0.000000
# 4 0.000000 0.000000 0.000000 0.371581 0.000000 -0.646739
# 5 0.004582 0.000839 -0.002161 0.000000 0.068196 0.000000
# 6 0.000000 0.000000 0.000000 -0.646739 0.000000 1.316538
#
#
# Mechanical properties :
#
#
# Convention : Reuss Voigt Hill
#
# Bulk Modulus (GPa) = 65.09934 66.84006 65.96970
# Shear Modulus (GPa) = 2.75186 21.84054 12.29620
#
# Velocity S-wave (km/s) = 1.20566 3.39658 2.54857
# Velocity P-wave (km/s) = 6.02705 7.11963 6.59600
#
# Compressibility (1/GPa) = 0.01536114
#
# Stress axis : x y z
#
# Youngs Moduli (GPa) = 110.04851 76.29720 75.49300
#
# Poissons Ratio (x) = 0.17041 0.22233
# Poissons Ratio (y) = 0.24579 0.36695
# Poissons Ratio (z) = 0.32410 0.37086
#
# Static dielectric constant tensor:
#      x y z
#    x 1.715250 0.000000 -0.026140 
#    y 0.000000 1.684730 0.000000 
#    z -0.026140 0.000000 1.791380 
# 
# From -- ./inp_files/147799.got.cif
#   From: 2010.05.17/outbox.cif.g08.bks.cpg/sg15_74_cif.got.tgz:147799.got - 2010.06.03 18:47:42.
