data_PCOD9257266
_publ_section_title
;
Structure prediction by ZEFSAII (Michael W. Deem and Ramdas Pophale) SiO2 
 PCOD9257266
Probable space group: C 2/C
;
_chemical_formula_sum "Si O2"
_cell_formula_units_Z 64
_cell_length_a 12.891731
_cell_length_b 20.919445
_cell_length_c 11.906068
_cell_angle_alpha 90.000000
_cell_angle_beta 68.240319
_cell_angle_gamma 90.000000
_cell_volume 2982.133918
_symmetry_space_group_name_H-M "C 2/C"
_symmetry_group_IT_number 15
_symmetry_cell_setting 'monoclinic'
loop_
_space_group_symop_operation_xyz
x,y,z
-x,y,1/2-z
-x,-y,-z
x,-y,1/2+z
1/2+x,1/2+y,z
1/2-x,1/2+y,1/2-z
1/2-x,1/2-y,-z
1/2+x,1/2-y,1/2+z
loop_
_atom_site_type_symbol
_atom_site_label
_atom_site_fract_x
_atom_site_fract_y
_atom_site_fract_z
Si Si1 0.231141 0.588484 0.998210
Si Si2 0.105394 0.352166 0.881237
Si Si3 0.471559 0.594513 0.937574
Si Si4 0.241265 0.288322 0.657191
Si Si5 0.970130 0.566185 0.576043
Si Si6 0.160850 0.523636 0.237300
Si Si7 0.435968 0.262782 0.430931
Si Si8 0.408870 0.473119 0.690163
O O1 0.359038 0.579894 0.910452
O O2 0.233170 0.650562 0.077046
O O3 0.196696 0.530587 0.094296
O O4 0.136328 0.596132 0.945502
O O5 0.217014 0.315739 0.791153
O O6 0.094588 0.412754 0.801853
O O7 0.073166 0.385153 0.013482
O O8 0.015412 0.297520 0.895492
O O9 0.496550 0.668724 0.910687
O O10 0.434498 0.577217 0.079630
O O11 0.564259 0.543591 0.868566
O O12 0.360044 0.259942 0.574448
O O13 0.146483 0.241739 0.643866
O O14 0.911214 0.538820 0.710755
O O15 0.000000 0.500000 0.500000
O O16 0.275705 0.527990 0.264362
O O17 0.500000 0.460491 0.750000
#
# Coordination Sequence:
#
# PCOD9257266 Si02
#       8
#     8   8   8   8   8   8   8   8
#     4   9  16  32  50  72 112 139 175 222 265 330
#     4  10  19  32  49  72 111 140 171 212 263 333
#     4   9  20  33  52  82 105 134 179 228 276 319
#     4   9  18  29  48  75 106 144 170 200 281 333
#     4  10  19  29  47  75 104 147 183 209 256 319
#     4   9  20  32  51  78 101 143 187 217 276 329
#     4  10  18  31  49  78 108 137 172 216 264 334
#     4  10  19  36  56  75 105 141 180 227 276 328
#
# _framework density 21.461143
#
# number of rings (size 3 to 8) (size 9 to 14) (size 15 to 20)
#    0.000    2.500    1.250    1.875    1.750    2.500 
#    2.250    0.000    0.000    0.750    6.500    0.000 
#    0.000    0.000    0.000    0.000    0.000    0.000 
#
# Total GULP energy -178248.801261 kJ/mol
# GULP energy per Si atom -5570.275039 kJ/mol
# Density = 2.141230 g / cm^3
# Si number density = 21.461143 Si / 1000 Ang^3
#
#
#
# Elastic Constant Matrix: (Units=GPa)
#
#
# Indices 1 2 3 4 5 6 
#
# 1 76.7172 34.2959 22.4607 0.0000 -2.2569 0.0000
# 2 34.2959 112.6849 31.5796 0.0000 -11.7595 0.0000
# 3 22.4607 31.5796 59.8243 0.0000 -19.8915 0.0000
# 4 0.0000 0.0000 0.0000 35.0024 0.0000 -13.1443
# 5 -2.2569 -11.7595 -19.8915 0.0000 29.0534 0.0000
# 6 0.0000 0.0000 0.0000 -13.1443 0.0000 29.5596
#
#
#
# Elastic Compliance Matrix: (Units=1/GPa)
#
#
# Indices 1 2 3 4 5 6 
#
# 1 0.016211 -0.003841 -0.005382 0.000000 -0.003980 0.000000
# 2 -0.003841 0.011333 -0.004032 0.000000 0.001528 0.000000
# 3 -0.005382 -0.004032 0.026132 0.000000 0.015841 0.000000
# 4 0.000000 0.000000 0.000000 0.034297 0.000000 0.015251
# 5 -0.003980 0.001528 0.015841 0.000000 0.045574 0.000000
# 6 0.000000 0.000000 0.000000 0.015251 0.000000 0.040612
#
#
# Mechanical properties :
#
#
# Convention : Reuss Voigt Hill
#
# Bulk Modulus (GPa) = 36.81205 47.32210 42.06708
# Shear Modulus (GPa) = 23.84099 29.44908 26.64503
#
# Velocity S-wave (km/s) = 3.33662 3.70835 3.52738
# Velocity P-wave (km/s) = 5.65987 6.35876 6.01947
#
# Compressibility (1/GPa) = 0.02716502
#
# Stress axis : x y z
#
# Youngs Moduli (GPa) = 61.68839 88.24020 38.26730
#
# Poissons Ratio (x) = 0.33891 0.20596
# Poissons Ratio (y) = 0.23693 0.15430
# Poissons Ratio (z) = 0.33202 0.35580
#
# Static dielectric constant tensor:
#      x y z
#    x 1.830340 0.000000 -0.064040 
#    y 0.000000 1.801930 0.000000 
#    z -0.064040 0.000000 1.951230 
# 
# From -- ./inp_files/99772.got.cif
#   From: 2010.05.17/outbox.cif.g08.bks.cpg/sg15_50_cif.got.tgz:99772.got - 2010.06.03 18:47:42.
