data_PCOD9257731
_publ_section_title
;
Structure prediction by ZEFSAII (Michael W. Deem and Ramdas Pophale) SiO2 
 PCOD9257731
Probable space group: C 2/C
;
_chemical_formula_sum "Si O2"
_cell_formula_units_Z 64
_cell_length_a 21.776988
_cell_length_b 20.642835
_cell_length_c 8.967118
_cell_angle_alpha 90.000000
_cell_angle_beta 113.721509
_cell_angle_gamma 90.000000
_cell_volume 3690.488926
_symmetry_space_group_name_H-M "C 2/C"
_symmetry_group_IT_number 15
_symmetry_cell_setting 'monoclinic'
loop_
_space_group_symop_operation_xyz
x,y,z
-x,y,1/2-z
-x,-y,-z
x,-y,1/2+z
1/2+x,1/2+y,z
1/2-x,1/2+y,1/2-z
1/2-x,1/2-y,-z
1/2+x,1/2-y,1/2+z
loop_
_atom_site_type_symbol
_atom_site_label
_atom_site_fract_x
_atom_site_fract_y
_atom_site_fract_z
Si Si1 0.427038 0.262900 0.192350
Si Si2 0.290289 0.318478 0.042721
Si Si3 0.167997 0.563500 0.130903
Si Si4 0.654002 0.757097 0.431501
Si Si5 0.727770 0.333655 0.818950
Si Si6 0.945085 0.329482 0.984034
Si Si7 0.597499 0.824880 0.103281
Si Si8 0.681600 0.077111 0.500921
O O1 0.500000 0.295118 0.250000
O O2 0.363627 0.304917 0.181219
O O3 0.435682 0.200061 0.308338
O O4 0.409595 0.236800 0.011325
O O5 0.247243 0.375884 0.076145
O O6 0.250000 0.250000 0.000000
O O7 0.296757 0.335349 0.874052
O O8 0.230416 0.601445 0.118328
O O9 0.101501 0.607440 0.033898
O O10 0.172893 0.566050 0.315427
O O11 0.174966 0.491564 0.075973
O O12 0.671149 0.687590 0.379837
O O13 0.714138 0.778867 0.599398
O O14 0.584704 0.770942 0.446117
O O15 0.648365 0.805753 0.284138
O O16 0.023137 0.341466 0.088139
O O17 0.624480 0.880743 0.024191
#
# Coordination Sequence:
#
# PCOD9257731 Si02
#       8
#     8   8   8   8   8   8   8   8
#     4  10  19  34  56  82 109 136 176 229 286 329
#     4  11  17  35  58  84 101 140 184 233 280 321
#     4  10  22  38  48  77 106 148 183 226 265 326
#     4  10  18  32  52  81 101 138 178 227 275 317
#     4   9  19  32  53  73 108 133 176 233 274 308
#     4  10  21  35  51  76 117 141 178 225 273 317
#     4  11  20  34  54  77 105 150 181 223 265 328
#     4  11  23  35  56  75 109 143 190 228 265 318
#
# _framework density 17.341875999999999
#
# number of rings (size 3 to 8) (size 9 to 14) (size 15 to 20)
#    0.000    1.750    3.750    1.875    3.500    1.500 
#    0.000    0.000    0.000    0.000    0.000    5.250 
#    0.000    0.000    0.000    0.000    0.000    0.125 
#
# Total GULP energy -178204.829086 kJ/mol
# GULP energy per Si atom -5568.900909 kJ/mol
# Density = 1.730241 g / cm^3
# Si number density = 17.341876 Si / 1000 Ang^3
#
#
#
# Elastic Constant Matrix: (Units=GPa)
#
#
# Indices 1 2 3 4 5 6 
#
# 1 131.3659 68.3594 17.5281 0.0000 0.4225 0.0000
# 2 68.3594 67.5728 13.3789 0.0000 5.4477 0.0000
# 3 17.5281 13.3789 45.3214 0.0000 -0.8989 0.0000
# 4 0.0000 0.0000 0.0000 22.0264 0.0000 -10.1303
# 5 0.4225 5.4477 -0.8989 0.0000 25.1458 0.0000
# 6 0.0000 0.0000 0.0000 -10.1303 0.0000 21.9936
#
#
#
# Elastic Compliance Matrix: (Units=1/GPa)
#
#
# Indices 1 2 3 4 5 6 
#
# 1 0.016431 -0.016612 -0.001386 0.000000 0.003273 0.000000
# 2 -0.016612 0.032840 -0.003408 0.000000 -0.006957 0.000000
# 3 -0.001386 -0.003408 0.023638 0.000000 0.001607 0.000000
# 4 0.000000 0.000000 0.000000 0.057602 0.000000 0.026532
# 5 0.003273 -0.006957 0.001607 0.000000 0.041278 0.000000
# 6 0.000000 0.000000 0.000000 0.026532 0.000000 0.057688
#
#
# Mechanical properties :
#
#
# Convention : Reuss Voigt Hill
#
# Bulk Modulus (GPa) = 33.22452 49.19922 41.21187
# Shear Modulus (GPa) = 17.71033 23.49941 20.60487
#
# Velocity S-wave (km/s) = 3.19916 3.68512 3.45070
# Velocity P-wave (km/s) = 5.73117 6.82192 6.30019
#
# Compressibility (1/GPa) = 0.03009825
#
# Stress axis : x y z
#
# Youngs Moduli (GPa) = 60.86031 30.45106 42.30397
#
# Poissons Ratio (x) = 0.50585 0.05863
# Poissons Ratio (y) = 1.01100 0.14416
# Poissons Ratio (z) = 0.08435 0.10377
#
# Static dielectric constant tensor:
#      x y z
#    x 1.642380 0.000000 -0.003480 
#    y 0.000000 1.580760 0.000000 
#    z -0.003480 0.000000 1.642660 
# 
# From -- ./inp_files/57551.got.cif
#   From: 2010.05.17/outbox.cif.g08.bks.cpg/sg15_29_cif.got.tgz:57551.got - 2010.06.03 18:47:42.
