data_PCOD9257398
_publ_section_title
;
Structure prediction by ZEFSAII (Michael W. Deem and Ramdas Pophale) SiO2 
 PCOD9257398
Probable space group: C 2/C
;
_chemical_formula_sum "Si O2"
_cell_formula_units_Z 60
_cell_length_a 12.090986
_cell_length_b 24.102946
_cell_length_c 14.335390
_cell_angle_alpha 90.000000
_cell_angle_beta 124.258131
_cell_angle_gamma 90.000000
_cell_volume 3452.942956
_symmetry_space_group_name_H-M "C 2/C"
_symmetry_group_IT_number 15
_symmetry_cell_setting 'monoclinic'
loop_
_space_group_symop_operation_xyz
x,y,z
-x,y,1/2-z
-x,-y,-z
x,-y,1/2+z
1/2+x,1/2+y,z
1/2-x,1/2+y,1/2-z
1/2-x,1/2-y,-z
1/2+x,1/2-y,1/2+z
loop_
_atom_site_type_symbol
_atom_site_label
_atom_site_fract_x
_atom_site_fract_y
_atom_site_fract_z
Si Si1 0.678239 0.619018 0.170517
Si Si2 0.170190 0.997873 0.425032
Si Si3 0.500000 0.591272 0.250000
Si Si4 0.654104 0.210354 0.335468
Si Si5 0.243294 0.329014 0.076528
Si Si6 0.153651 0.510897 0.310700
Si Si7 0.981288 0.108406 0.590558
Si Si8 0.264968 0.077527 0.797716
O O1 0.601468 0.622372 0.230862
O O2 0.785618 0.667474 0.209103
O O3 0.755449 0.560520 0.189599
O O4 0.568030 0.624965 0.035453
O O5 0.282385 0.003240 0.557864
O O6 0.062376 0.955235 0.415847
O O7 0.222806 0.967784 0.356265
O O8 0.092024 0.052585 0.359451
O O9 0.500000 0.222936 0.250000
O O10 0.733838 0.268077 0.372181
O O11 0.671199 0.180284 0.443750
O O12 0.387109 0.356059 0.115601
O O13 0.172086 0.372558 0.111379
O O14 0.160161 0.457469 0.245882
O O15 0.000000 0.529046 0.250000
O O16 0.136514 0.107433 0.688902
#
# Coordination Sequence:
#
# PCOD9257398 Si02
#       8
#     8   8   4   8   8   8   8   8
#     4  10  21  32  52  76 109 142 173 221 262 314
#     4  10  18  31  53  76 103 137 169 224 259 306
#     4  12  18  34  50  80 100 138 186 212 266 310
#     4  10  19  36  54  81 110 132 170 222 271 315
#     4   9  19  32  58  84  99 135 175 221 272 305
#     4  11  23  36  48  75 112 148 177 206 266 325
#     4   9  16  31  53  80 103 126 175 227 268 294
#     4  11  18  33  53  78 105 137 173 226 258 313
#
# _framework density 17.376483
#
# number of rings (size 3 to 8) (size 9 to 14) (size 15 to 20)
#    0.000    1.867    2.667    4.000    0.000    2.667 
#    2.400    0.000    1.467    0.000    0.000    4.667 
#    0.000    0.000    0.000    0.000    0.000    0.000 
#
# Total GULP energy -167245.546681 kJ/mol
# GULP energy per Si atom -5574.851556 kJ/mol
# Density = 1.733693 g / cm^3
# Si number density = 17.376483 Si / 1000 Ang^3
#
#
#
# Elastic Constant Matrix: (Units=GPa)
#
#
# Indices 1 2 3 4 5 6 
#
# 1 45.9637 5.8170 15.7872 0.0000 -5.0983 0.0000
# 2 5.8170 48.0205 2.5958 0.0000 -7.3617 0.0000
# 3 15.7872 2.5958 34.7775 0.0000 5.3907 0.0000
# 4 0.0000 0.0000 0.0000 17.0865 0.0000 -7.2394
# 5 -5.0983 -7.3617 5.3907 0.0000 11.6421 0.0000
# 6 0.0000 0.0000 0.0000 -7.2394 0.0000 11.2257
#
#
#
# Elastic Compliance Matrix: (Units=1/GPa)
#
#
# Indices 1 2 3 4 5 6 
#
# 1 0.029838 0.000553 -0.016877 0.000000 0.021231 0.000000
# 2 0.000553 0.023680 -0.004715 0.000000 0.017399 0.000000
# 3 -0.016877 -0.004715 0.041342 0.000000 -0.029515 0.000000
# 4 0.000000 0.000000 0.000000 0.080529 0.000000 0.051933
# 5 0.021231 0.017399 -0.029515 0.000000 0.119861 0.000000
# 6 0.000000 0.000000 0.000000 0.051933 0.000000 0.122573
#
#
# Mechanical properties :
#
#
# Convention : Reuss Voigt Hill
#
# Bulk Modulus (GPa) = 18.94624 19.68464 19.31544
# Shear Modulus (GPa) = 10.47129 14.96165 12.71647
#
# Velocity S-wave (km/s) = 2.45748 2.93751 2.70815
# Velocity P-wave (km/s) = 4.35653 4.78103 4.57370
#
# Compressibility (1/GPa) = 0.05278091
#
# Stress axis : x y z
#
# Youngs Moduli (GPa) = 33.51417 42.23023 24.18820
#
# Poissons Ratio (x) = -0.02334 0.40823
# Poissons Ratio (y) = -0.01852 0.11405
# Poissons Ratio (z) = 0.56562 0.19913
#
# Static dielectric constant tensor:
#      x y z
#    x 1.592440 0.000000 -0.010490 
#    y 0.000000 1.594900 0.000000 
#    z -0.010490 0.000000 1.628840 
# 
# From -- ./inp_files/90874.got.cif
#   From: 2010.05.17/outbox.cif.g08.bks.cpg/sg15_46_cif.got.tgz:90874.got - 2010.06.03 18:47:42.
