data_PCOD9257439
_publ_section_title
;
Structure prediction by ZEFSAII (Michael W. Deem and Ramdas Pophale) SiO2 
 PCOD9257439
Probable space group: C 2/C
;
_chemical_formula_sum "Si O2"
_cell_formula_units_Z 52
_cell_length_a 18.212316
_cell_length_b 21.215530
_cell_length_c 12.612318
_cell_angle_alpha 90.000000
_cell_angle_beta 142.771589
_cell_angle_gamma 90.000000
_cell_volume 2948.255052
_symmetry_space_group_name_H-M "C 2/C"
_symmetry_group_IT_number 15
_symmetry_cell_setting 'monoclinic'
loop_
_space_group_symop_operation_xyz
x,y,z
-x,y,1/2-z
-x,-y,-z
x,-y,1/2+z
1/2+x,1/2+y,z
1/2-x,1/2+y,1/2-z
1/2-x,1/2-y,-z
1/2+x,1/2-y,1/2+z
loop_
_atom_site_type_symbol
_atom_site_label
_atom_site_fract_x
_atom_site_fract_y
_atom_site_fract_z
Si Si1 0.500000 0.978384 0.750000
Si Si2 0.301202 0.082795 0.885453
Si Si3 0.729579 0.724190 0.856294
Si Si4 0.617452 0.476367 0.758399
Si Si5 0.105775 0.067760 0.018112
Si Si6 0.718952 0.028896 0.868243
Si Si7 0.535957 0.710444 0.909757
O O1 0.429143 0.935578 0.583879
O O2 0.596805 0.019112 0.794779
O O3 0.260899 0.150857 0.878750
O O4 0.207937 0.031987 0.825887
O O5 0.298187 0.071316 0.755622
O O6 0.585596 0.728568 0.665043
O O7 0.750000 0.750000 0.000000
O O8 0.834430 0.759873 0.910644
O O9 0.490779 0.513058 0.621505
O O10 0.611252 0.430088 0.651723
O O11 0.677685 0.447131 0.931590
O O12 0.230360 0.039971 0.112968
O O13 0.060264 0.135533 0.929878
O O14 0.500000 0.732396 0.750000
#
# Coordination Sequence:
#
# PCOD9257439 Si02
#       7
#     4   8   8   8   8   8   8
#     4  10  22  32  52  78 114 144 182 222 278 344
#     4  10  20  35  53  76 112 147 184 224 277 339
#     4  10  22  34  51  79 110 149 182 231 279 332
#     4   9  18  32  53  83 107 133 174 230 281 328
#     4  10  18  31  54  80 107 137 177 228 279 329
#     4  10  20  33  52  79 111 147 179 224 283 339
#     4  10  20  33  52  74 111 141 186 226 279 331
#
# _framework density 17.637551999999999
#
# number of rings (size 3 to 8) (size 9 to 14) (size 15 to 20)
#    0.000    2.154    1.538    1.846    9.692    0.000 
#    0.000    0.000    0.000    0.923    0.000    0.000 
#    0.000    0.000    0.000    0.000    0.000    0.000 
#
# Total GULP energy -144759.928018 kJ/mol
# GULP energy per Si atom -5567.689539 kJ/mol
# Density = 1.759741 g / cm^3
# Si number density = 17.637552 Si / 1000 Ang^3
#
#
#
# Elastic Constant Matrix: (Units=GPa)
#
#
# Indices 1 2 3 4 5 6 
#
# 1 80.9749 21.1135 45.9812 0.0000 13.9929 0.0000
# 2 21.1135 39.2187 22.8485 0.0000 6.0550 0.0000
# 3 45.9812 22.8485 98.0691 0.0000 -9.5221 0.0000
# 4 0.0000 0.0000 0.0000 18.5138 0.0000 -1.6434
# 5 13.9929 6.0550 -9.5221 0.0000 44.1957 0.0000
# 6 0.0000 0.0000 0.0000 -1.6434 0.0000 13.6144
#
#
#
# Elastic Compliance Matrix: (Units=1/GPa)
#
#
# Indices 1 2 3 4 5 6 
#
# 1 0.019967 -0.004246 -0.009121 0.000000 -0.007705 0.000000
# 2 -0.004246 0.031850 -0.005845 0.000000 -0.004279 0.000000
# 3 -0.009121 -0.005845 0.016539 0.000000 0.007252 0.000000
# 4 0.000000 0.000000 0.000000 0.054599 0.000000 0.006591
# 5 -0.007705 -0.004279 0.007252 0.000000 0.027215 0.000000
# 6 0.000000 0.000000 0.000000 0.006591 0.000000 0.074247
#
#
# Mechanical properties :
#
#
# Convention : Reuss Voigt Hill
#
# Bulk Modulus (GPa) = 33.40866 44.23878 38.82372
# Shear Modulus (GPa) = 18.32718 23.81942 21.07330
#
# Velocity S-wave (km/s) = 3.22700 3.67889 3.46033
# Velocity P-wave (km/s) = 5.73303 6.57132 6.16644
#
# Compressibility (1/GPa) = 0.02993236
#
# Stress axis : x y z
#
# Youngs Moduli (GPa) = 50.08153 31.39744 60.46198
#
# Poissons Ratio (x) = 0.13332 0.55147
# Poissons Ratio (y) = 0.21265 0.35340
# Poissons Ratio (z) = 0.45679 0.18352
#
# Static dielectric constant tensor:
#      x y z
#    x 1.685930 0.000000 0.022420 
#    y 0.000000 1.569780 0.000000 
#    z 0.022420 0.000000 1.665200 
# 
# From -- ./inp_files/99701.got.cif
#   From: 2010.05.17/outbox.cif.g08.bks.cpg/sg15_50_cif.got.tgz:99701.got - 2010.06.03 18:47:42.
