data_PCOD9257374
_publ_section_title
;
Structure prediction by ZEFSAII (Michael W. Deem and Ramdas Pophale) SiO2 
 PCOD9257374
Probable space group: C 2/C
;
_chemical_formula_sum "Si O2"
_cell_formula_units_Z 60
_cell_length_a 11.380822
_cell_length_b 20.057372
_cell_length_c 29.318038
_cell_angle_alpha 90.000000
_cell_angle_beta 151.714432
_cell_angle_gamma 90.000000
_cell_volume 3171.308505
_symmetry_space_group_name_H-M "C 2/C"
_symmetry_group_IT_number 15
_symmetry_cell_setting 'monoclinic'
loop_
_space_group_symop_operation_xyz
x,y,z
-x,y,1/2-z
-x,-y,-z
x,-y,1/2+z
1/2+x,1/2+y,z
1/2-x,1/2+y,1/2-z
1/2-x,1/2-y,-z
1/2+x,1/2-y,1/2+z
loop_
_atom_site_type_symbol
_atom_site_label
_atom_site_fract_x
_atom_site_fract_y
_atom_site_fract_z
Si Si1 0.315911 0.689940 0.393239
Si Si2 0.453344 0.757399 0.889522
Si Si3 0.008947 0.389397 0.640559
Si Si4 0.251190 0.068138 0.191322
Si Si5 0.000000 0.811379 0.250000
Si Si6 0.544314 0.445049 0.435424
Si Si7 0.681346 0.355491 0.220038
Si Si8 0.744589 0.658518 0.602557
O O1 0.154858 0.653901 0.378510
O O2 0.293308 0.642697 0.341625
O O3 0.593689 0.684584 0.507265
O O4 0.206519 0.761435 0.342410
O O5 0.387169 0.833961 0.858455
O O6 0.395183 0.717628 0.823769
O O7 0.302599 0.717521 0.876633
O O8 0.750000 0.750000 0.000000
O O9 0.821970 0.435043 0.548010
O O10 0.195676 0.429519 0.736695
O O11 0.500000 0.044188 0.250000
O O12 0.036128 0.020193 0.100571
O O13 0.883989 0.856608 0.249652
O O14 0.473434 0.405606 0.364853
O O15 0.381554 0.407005 0.418332
O O16 0.973020 0.359674 0.310108
#
# Coordination Sequence:
#
# PCOD9257374 Si02
#       8
#     8   8   8   8   4   8   8   8
#     4  10  18  33  51  79 113 145 177 220 277 334
#     4  11  15  32  55  77 112 146 179 221 270 335
#     4  10  18  31  52  80 103 150 184 216 275 329
#     4  10  19  31  50  79 113 148 182 226 268 329
#     4  12  20  36  56  76 114 146 188 222 282 340
#     4  10  20  33  52  80 109 143 185 227 274 318
#     4  11  21  33  52  82 111 144 179 236 274 329
#     4  10  21  31  52  84 117 140 179 230 278 327
#
# _framework density 18.919635
#
# number of rings (size 3 to 8) (size 9 to 14) (size 15 to 20)
#    0.000    1.600    7.333    2.400    0.000    6.400 
#    0.000    0.000    0.000    0.000    6.933    1.867 
#    0.000    0.000    0.000    0.000    0.000    0.000 
#
# Total GULP energy -167312.230501 kJ/mol
# GULP energy per Si atom -5577.074350 kJ/mol
# Density = 1.887657 g / cm^3
# Si number density = 18.919635 Si / 1000 Ang^3
#
#
#
# Elastic Constant Matrix: (Units=GPa)
#
#
# Indices 1 2 3 4 5 6 
#
# 1 63.7052 3.8075 24.4245 0.0016 -9.9541 -0.0012
# 2 3.8075 26.3583 -2.2585 0.0062 2.1720 -0.0014
# 3 24.4245 -2.2585 71.6756 0.0097 -21.9458 -0.0031
# 4 0.0016 0.0062 0.0097 29.8162 0.0011 -1.9623
# 5 -9.9541 2.1720 -21.9458 0.0011 14.0108 -0.0014
# 6 -0.0012 -0.0014 -0.0031 -1.9623 -0.0014 4.3056
#
#
#
# Elastic Compliance Matrix: (Units=1/GPa)
#
#
# Indices 1 2 3 4 5 6 
#
# 1 0.018675 -0.003650 -0.004310 0.000001 0.007082 0.000004
# 2 -0.003650 0.039195 -0.000337 -0.000007 -0.009198 0.000006
# 3 -0.004310 -0.000337 0.027840 -0.000008 0.040597 0.000028
# 4 0.000001 -0.000007 -0.000008 0.034576 -0.000012 0.015758
# 5 0.007082 -0.009198 0.040597 -0.000012 0.141419 0.000067
# 6 0.000004 0.000006 0.000028 0.015758 0.000067 0.239436
#
#
# Mechanical properties :
#
#
# Convention : Reuss Voigt Hill
#
# Bulk Modulus (GPa) = 14.46891 23.74290 19.10590
# Shear Modulus (GPa) = 9.24600 18.67757 13.96178
#
# Velocity S-wave (km/s) = 2.21305 3.14539 2.71947
# Velocity P-wave (km/s) = 3.76753 5.07621 4.47002
#
# Compressibility (1/GPa) = 0.06911371
#
# Stress axis : x y z
#
# Youngs Moduli (GPa) = 53.54860 25.51338 35.91952
#
# Poissons Ratio (x) = 0.09314 0.15482
# Poissons Ratio (y) = 0.19548 0.01211
# Poissons Ratio (z) = 0.23081 0.00860
#
# Static dielectric constant tensor:
#      x y z
#    x 1.680480 0.000000 -0.014260 
#    y 0.000000 1.672400 0.000000 
#    z -0.014260 0.000000 1.701590 
# 
# From -- ./inp_files/311759.got.cif
#   From: 2010.05.17/outbox.cif.g08.bks.cpg/sg15_156_cif.got.tgz:311759.got - 2010.06.03 18:47:42.
