data_PCOD9257420
_publ_section_title
;
Structure prediction by ZEFSAII (Michael W. Deem and Ramdas Pophale) SiO2 
 PCOD9257420
Probable space group: C 2/C
;
_chemical_formula_sum "Si O2"
_cell_formula_units_Z 48
_cell_length_a 15.689545
_cell_length_b 30.059015
_cell_length_c 9.073454
_cell_angle_alpha 90.000000
_cell_angle_beta 33.489967
_cell_angle_gamma 90.000000
_cell_volume 2361.197497
_symmetry_space_group_name_H-M "C 2/C"
_symmetry_group_IT_number 15
_symmetry_cell_setting 'monoclinic'
loop_
_space_group_symop_operation_xyz
x,y,z
-x,y,1/2-z
-x,-y,-z
x,-y,1/2+z
1/2+x,1/2+y,z
1/2-x,1/2+y,1/2-z
1/2-x,1/2-y,-z
1/2+x,1/2-y,1/2+z
loop_
_atom_site_type_symbol
_atom_site_label
_atom_site_fract_x
_atom_site_fract_y
_atom_site_fract_z
Si Si1 0.838280 0.364074 0.064675
Si Si2 0.667774 0.127447 0.583790
Si Si3 0.329182 0.960965 0.573749
Si Si4 0.347029 0.715092 0.267731
Si Si5 0.704346 0.265710 0.225866
Si Si6 0.674653 0.950567 0.565134
O O1 0.859653 0.380378 0.202494
O O2 0.765363 0.315199 0.172333
O O3 0.755783 0.403325 0.088826
O O4 0.000000 0.356797 0.750000
O O5 0.500000 0.138818 0.750000
O O6 0.734315 0.084463 0.403660
O O7 0.793306 0.166407 0.390276
O O8 0.332038 0.957989 0.748078
O O9 0.254810 0.006376 0.619080
O O10 0.500000 0.961230 0.250000
O O11 0.250000 0.750000 0.500000
O O12 0.283116 0.725898 0.200589
O O13 0.523876 0.729084 0.019331
O O14 0.750000 0.250000 0.000000
O O15 0.500000 0.947960 0.750000
#
# Coordination Sequence:
#
# PCOD9257420 Si02
#       6
#     8   8   8   8   8   8
#     4  11  22  37  59  89 126 163 210 259 313 369
#     4  11  22  36  61  89 124 164 210 259 312 372
#     4  10  18  31  53  84 121 161 207 256 311 365
#     4  12  25  44  66  91 126 164 213 255 315 370
#     4  12  27  44  64  93 124 168 207 263 310 377
#     4  10  18  31  53  83 123 160 207 257 309 367
#
# _framework density 20.328668
#
# number of rings (size 3 to 8) (size 9 to 14) (size 15 to 20)
#    0.000    1.000    1.667   10.000    4.667    0.000 
#    0.000    0.000    0.000    1.000    0.000    0.000 
#    0.000    0.000    0.000    0.000    0.000    0.000 
#
# Total GULP energy -133795.481343 kJ/mol
# GULP energy per Si atom -5574.811723 kJ/mol
# Density = 2.028240 g / cm^3
# Si number density = 20.328668 Si / 1000 Ang^3
#
#
#
# Elastic Constant Matrix: (Units=GPa)
#
#
# Indices 1 2 3 4 5 6 
#
# 1 78.1556 11.2418 54.5939 0.0000 41.7755 0.0000
# 2 11.2418 112.0399 19.0913 0.0000 6.0290 0.0000
# 3 54.5939 19.0913 117.9653 0.0000 13.2200 0.0000
# 4 0.0000 0.0000 0.0000 26.7789 0.0000 12.3716
# 5 41.7755 6.0290 13.2200 0.0000 59.1462 0.0000
# 6 0.0000 0.0000 0.0000 12.3716 0.0000 26.4852
#
#
#
# Elastic Compliance Matrix: (Units=1/GPa)
#
#
# Indices 1 2 3 4 5 6 
#
# 1 0.032424 0.000000 -0.012759 0.000000 -0.020050 0.000000
# 2 0.000000 0.009201 -0.001419 0.000000 -0.000620 0.000000
# 3 -0.012759 -0.001419 0.013934 0.000000 0.006042 0.000000
# 4 0.000000 0.000000 0.000000 0.047619 0.000000 -0.022243
# 5 -0.020050 -0.000620 0.006042 0.000000 0.029781 0.000000
# 6 0.000000 0.000000 0.000000 -0.022243 0.000000 0.048147
#
#
# Mechanical properties :
#
#
# Convention : Reuss Voigt Hill
#
# Bulk Modulus (GPa) = 36.76159 53.11276 44.93717
# Shear Modulus (GPa) = 22.87996 37.36433 30.12214
#
# Velocity S-wave (km/s) = 3.35849 4.29185 3.85354
# Velocity P-wave (km/s) = 5.75866 7.12347 6.47711
#
# Compressibility (1/GPa) = 0.02720231
#
# Stress axis : x y z
#
# Youngs Moduli (GPa) = 30.84090 108.68784 71.76452
#
# Poissons Ratio (x) = 0.00004 0.91564
# Poissons Ratio (y) = 0.00001 0.10186
# Poissons Ratio (z) = 0.39350 0.15426
#
# Static dielectric constant tensor:
#      x y z
#    x 1.767680 0.000000 -0.029000 
#    y 0.000000 1.790900 0.000000 
#    z -0.029000 0.000000 1.681790 
# 
# From -- ./inp_files/52716.got.cif
#   From: 2010.05.17/outbox.cif.g08.bks.cpg/sg15_27_cif.got.tgz:52716.got - 2010.06.03 18:47:42.
