data_PCOD9257234
_publ_section_title
;
Structure prediction by ZEFSAII (Michael W. Deem and Ramdas Pophale) SiO2 
 PCOD9257234
Probable space group: C 2/C
;
_chemical_formula_sum "Si O2"
_cell_formula_units_Z 52
_cell_length_a 33.581933
_cell_length_b 7.144372
_cell_length_c 10.866028
_cell_angle_alpha 90.000000
_cell_angle_beta 126.073781
_cell_angle_gamma 90.000000
_cell_volume 2107.130073
_symmetry_space_group_name_H-M "C 2/C"
_symmetry_group_IT_number 15
_symmetry_cell_setting 'monoclinic'
loop_
_space_group_symop_operation_xyz
x,y,z
-x,y,1/2-z
-x,-y,-z
x,-y,1/2+z
1/2+x,1/2+y,z
1/2-x,1/2+y,1/2-z
1/2-x,1/2-y,-z
1/2+x,1/2-y,1/2+z
loop_
_atom_site_type_symbol
_atom_site_label
_atom_site_fract_x
_atom_site_fract_y
_atom_site_fract_z
Si Si1 0.250000 0.250000 0.000000
Si Si2 0.815191 0.807867 0.783703
Si Si3 0.970945 0.280269 0.317269
Si Si4 0.640115 0.211555 0.892169
Si Si5 0.360923 0.245639 0.118194
Si Si6 0.525165 0.235228 0.165261
Si Si7 0.279536 0.900865 0.800863
O O1 0.186392 0.227446 0.879760
O O2 0.251477 0.319308 0.865034
O O3 0.841642 0.799323 0.701544
O O4 0.763258 0.920959 0.673086
O O5 0.799875 0.592187 0.784204
O O6 0.850264 0.841375 0.965125
O O7 0.914963 0.226244 0.190601
O O8 0.973446 0.507417 0.327484
O O9 0.000000 0.219443 0.250000
O O10 0.992441 0.213878 0.486773
O O11 0.639583 0.983336 0.888908
O O12 0.680054 0.237900 0.071436
O O13 0.417704 0.293702 0.252699
O O14 0.500000 0.291466 0.250000
#
# Coordination Sequence:
#
# PCOD9257234 Si02
#       7
#     4   8   8   8   8   8   8
#     4  10  18  32  44  70  96 136 172 206 250 318
#     4  10  19  34  49  76 102 142 174 218 257 318
#     4   9  18  26  42  68  98 132 173 208 257 320
#     4  10  18  31  48  68 102 140 170 214 266 311
#     4   9  18  27  47  65  98 136 169 206 254 313
#     4   9  16  27  41  64  93 132 167 205 254 316
#     4  10  21  32  52  72 104 137 176 214 264 314
#
# _framework density 24.678118000000001
#
# number of rings (size 3 to 8) (size 9 to 14) (size 15 to 20)
#    0.000    2.462    1.538    1.385    2.154    3.692 
#    0.000    0.000    0.000    0.000    0.000    0.000 
#    0.000   16.000    0.000    1.385    0.000    0.000 
#
# Total GULP energy -144741.981792 kJ/mol
# GULP energy per Si atom -5566.999300 kJ/mol
# Density = 2.462195 g / cm^3
# Si number density = 24.678118 Si / 1000 Ang^3
#
#
#
# Elastic Constant Matrix: (Units=GPa)
#
#
# Indices 1 2 3 4 5 6 
#
# 1 169.4543 -8.8947 53.0815 0.0000 29.4624 0.0000
# 2 -8.8947 87.2713 -20.3761 0.0000 10.6880 0.0000
# 3 53.0815 -20.3761 120.3379 0.0000 32.4980 0.0000
# 4 0.0000 0.0000 0.0000 -3.2491 0.0000 10.5227
# 5 29.4624 10.6880 32.4980 0.0000 41.5474 0.0000
# 6 0.0000 0.0000 0.0000 10.5227 0.0000 6.1689
#
#
#
# Elastic Compliance Matrix: (Units=1/GPa)
#
#
# Indices 1 2 3 4 5 6 
#
# 1 0.007229 0.000704 -0.002074 0.000000 -0.003684 0.000000
# 2 0.000704 0.013257 0.003791 0.000000 -0.006875 0.000000
# 3 -0.002074 0.003791 0.012340 0.000000 -0.009156 0.000000
# 4 0.000000 0.000000 0.000000 -0.047174 0.000000 0.080467
# 5 -0.003684 -0.006875 -0.009156 0.000000 0.035612 0.000000
# 6 0.000000 0.000000 0.000000 0.080467 0.000000 0.024846
#
#
# Mechanical properties :
#
#
# Convention : Reuss Voigt Hill
#
# Bulk Modulus (GPa) = 26.54941 47.18722 36.86832
# Shear Modulus (GPa) = 92.89419 32.44363 62.66891
#
# Velocity S-wave (km/s) = 6.14199 3.62977 5.04477
# Velocity P-wave (km/s) = 7.81539 6.06050 6.99321
#
# Compressibility (1/GPa) = 0.03766562
#
# Stress axis : x y z
#
# Youngs Moduli (GPa) = 138.33852 75.43041 81.04051
#
# Poissons Ratio (x) = -0.05308 0.16811
# Poissons Ratio (y) = -0.09734 -0.30722
# Poissons Ratio (z) = 0.28697 -0.28595
#
# Static dielectric constant tensor:
#      x y z
#    x 1.843630 0.000000 0.105400 
#    y 0.000000 2.041500 0.000000 
#    z 0.105400 0.000000 1.948730 
# 
# From -- ./inp_files/126239.got.cif
#   From: 2010.05.17/outbox.cif.g08.bks.cpg/sg15_64_cif.got.tgz:126239.got - 2010.06.03 18:47:42.
