data_PCOD9257901
_publ_section_title
;
Structure prediction by ZEFSAII (Michael W. Deem and Ramdas Pophale) SiO2 
 PCOD9257901
Probable space group: C 2/C
;
_chemical_formula_sum "Si O2"
_cell_formula_units_Z 48
_cell_length_a 14.198523
_cell_length_b 23.498245
_cell_length_c 11.188312
_cell_angle_alpha 90.000000
_cell_angle_beta 39.749882
_cell_angle_gamma 90.000000
_cell_volume 2386.938406
_symmetry_space_group_name_H-M "C 2/C"
_symmetry_group_IT_number 15
_symmetry_cell_setting 'monoclinic'
loop_
_space_group_symop_operation_xyz
x,y,z
-x,y,1/2-z
-x,-y,-z
x,-y,1/2+z
1/2+x,1/2+y,z
1/2-x,1/2+y,1/2-z
1/2-x,1/2-y,-z
1/2+x,1/2-y,1/2+z
loop_
_atom_site_type_symbol
_atom_site_label
_atom_site_fract_x
_atom_site_fract_y
_atom_site_fract_z
Si Si1 0.791479 0.979493 0.179943
Si Si2 0.740044 0.076027 0.070371
Si Si3 0.524603 0.215983 0.370048
Si Si4 0.068909 0.404101 0.496871
Si Si5 0.562590 0.422142 0.822629
Si Si6 0.149116 0.825083 0.900198
O O1 0.636471 0.946451 0.333810
O O2 0.806053 0.016376 0.044659
O O3 0.826528 0.026111 0.249270
O O4 0.922336 0.934051 0.045840
O O5 0.595559 0.081803 0.297875
O O6 0.847704 0.127105 0.999299
O O7 0.678946 0.082862 0.998852
O O8 0.500000 0.210122 0.250000
O O9 0.435318 0.163622 0.517886
O O10 0.694062 0.205899 0.237330
O O11 0.471702 0.277193 0.463649
O O12 0.500000 0.420376 0.750000
O O13 0.633011 0.362527 0.796122
#
# Coordination Sequence:
#
# PCOD9257901 Si02
#       6
#     8   8   8   8   8   8
#     4  10  20  33  60  83 111 152 197 228 294 351
#     4   9  18  34  50  86 118 146 181 236 288 343
#     4  11  21  37  59  88 118 152 191 246 295 341
#     4  10  18  32  55  83 119 148 181 234 294 346
#     4  10  22  40  55  83 118 153 195 246 283 340
#     4  10  22  36  58  81 116 152 194 240 290 339
#
# _framework density 20.109442999999999
#
# number of rings (size 3 to 8) (size 9 to 14) (size 15 to 20)
#    0.000    2.000    3.333    2.000    2.333    0.000 
#    0.000    2.500    0.000    0.000    0.000    0.000 
#    0.000    0.000    0.000    0.000    0.000    0.000 
#
# Total GULP energy -133828.465545 kJ/mol
# GULP energy per Si atom -5576.186064 kJ/mol
# Density = 2.006367 g / cm^3
# Si number density = 20.109443 Si / 1000 Ang^3
#
#
#
# Elastic Constant Matrix: (Units=GPa)
#
#
# Indices 1 2 3 4 5 6 
#
# 1 91.8613 20.1653 3.2390 0.0000 8.1126 0.0000
# 2 20.1653 108.6205 36.8823 0.0000 -1.2046 0.0000
# 3 3.2390 36.8823 32.3306 0.0000 -5.1151 0.0000
# 4 0.0000 0.0000 0.0000 27.5447 0.0000 -14.4796
# 5 8.1126 -1.2046 -5.1151 0.0000 15.6311 0.0000
# 6 0.0000 0.0000 0.0000 -14.4796 0.0000 26.1371
#
#
#
# Elastic Compliance Matrix: (Units=1/GPa)
#
#
# Indices 1 2 3 4 5 6 
#
# 1 0.011961 -0.002531 0.000713 0.000000 -0.006170 0.000000
# 2 -0.002531 0.015897 -0.018434 0.000000 -0.003494 0.000000
# 3 0.000713 -0.018434 0.054423 0.000000 0.016019 0.000000
# 4 0.000000 0.000000 0.000000 0.051221 0.000000 0.028376
# 5 -0.006170 -0.003494 0.016019 0.000000 0.072150 0.000000
# 6 0.000000 0.000000 0.000000 0.028376 0.000000 0.053980
#
#
# Mechanical properties :
#
#
# Convention : Reuss Voigt Hill
#
# Bulk Modulus (GPa) = 23.93686 39.26503 31.60095
# Shear Modulus (GPa) = 15.92044 25.36429 20.64236
#
# Velocity S-wave (km/s) = 2.81675 3.55535 3.20738
# Velocity P-wave (km/s) = 4.74425 6.03507 5.42817
#
# Compressibility (1/GPa) = 0.04177657
#
# Stress axis : x y z
#
# Youngs Moduli (GPa) = 83.60268 62.90562 18.37470
#
# Poissons Ratio (x) = 0.15922 -0.01310
# Poissons Ratio (y) = 0.21161 0.33872
# Poissons Ratio (z) = -0.05961 1.15960
#
# Static dielectric constant tensor:
#      x y z
#    x 1.735630 0.000000 0.007930 
#    y 0.000000 1.738400 0.000000 
#    z 0.007930 0.000000 1.769570 
# 
# From -- ./inp_files/99979.got.cif
#   From: 2010.05.17/outbox.cif.g08.bks.cpg/sg15_50_cif.got.tgz:99979.got - 2010.06.03 18:47:42.
