data_PCOD9257301
_publ_section_title
;
Structure prediction by ZEFSAII (Michael W. Deem and Ramdas Pophale) SiO2 
 PCOD9257301
Probable space group: C 2/C
;
_chemical_formula_sum "Si O2"
_cell_formula_units_Z 48
_cell_length_a 9.326572
_cell_length_b 26.440800
_cell_length_c 10.049945
_cell_angle_alpha 90.000000
_cell_angle_beta 100.493662
_cell_angle_gamma 90.000000
_cell_volume 2436.886754
_symmetry_space_group_name_H-M "C 2/C"
_symmetry_group_IT_number 15
_symmetry_cell_setting 'monoclinic'
loop_
_space_group_symop_operation_xyz
x,y,z
-x,y,1/2-z
-x,-y,-z
x,-y,1/2+z
1/2+x,1/2+y,z
1/2-x,1/2+y,1/2-z
1/2-x,1/2-y,-z
1/2+x,1/2-y,1/2+z
loop_
_atom_site_type_symbol
_atom_site_label
_atom_site_fract_x
_atom_site_fract_y
_atom_site_fract_z
Si Si1 0.894772 0.011673 0.858687
Si Si2 0.565838 0.620045 0.614397
Si Si3 0.767730 0.289170 0.163335
Si Si4 0.133950 0.902638 0.667862
Si Si5 0.939902 0.721695 0.942389
Si Si6 0.283252 0.802150 0.674085
O O1 0.804574 0.960019 0.823635
O O2 0.000000 0.016153 0.750000
O O3 0.836720 0.068426 0.868479
O O4 0.000000 0.000000 0.000000
O O5 0.500000 0.628891 0.750000
O O6 0.660168 0.668567 0.593081
O O7 0.437347 0.609693 0.487628
O O8 0.848587 0.308434 0.312667
O O9 0.603223 0.224023 0.916145
O O10 0.690038 0.238828 0.206048
O O11 0.245677 0.857787 0.717160
O O12 0.000000 0.901334 0.750000
O O13 0.903069 0.699048 0.079040
O O14 0.862841 0.777029 0.918837
#
# Coordination Sequence:
#
# PCOD9257301 Si02
#       6
#     8   8   8   8   8   8
#     4   8  16  29  45  71  97 122 156 200 246 291
#     4  10  19  30  50  77  99 121 165 212 248 286
#     4   9  16  30  48  70  99 126 165 206 243 292
#     4  10  18  31  51  70 100 133 158 197 256 305
#     4   8  16  28  49  68  99 131 162 197 249 293
#     4   9  16  30  49  65  96 134 163 191 245 306
#
# _framework density 19.697261999999998
#
# number of rings (size 3 to 8) (size 9 to 14) (size 15 to 20)
#    1.000    2.000    0.000    2.000    0.000    0.000 
#    0.000    3.333    0.000    1.000    0.000    0.000 
#    0.000    0.000    0.000    0.000    0.000    0.000 
#
# Total GULP energy -133651.093248 kJ/mol
# GULP energy per Si atom -5568.795552 kJ/mol
# Density = 1.965243 g / cm^3
# Si number density = 19.697262 Si / 1000 Ang^3
#
#
#
# Elastic Constant Matrix: (Units=GPa)
#
#
# Indices 1 2 3 4 5 6 
#
# 1 77.8594 29.8284 16.4547 0.0000 -15.3132 0.0000
# 2 29.8284 154.8989 -5.7200 0.0000 3.0292 0.0000
# 3 16.4547 -5.7200 67.7226 0.0000 -20.7184 0.0000
# 4 0.0000 0.0000 0.0000 22.5450 0.0000 2.2288
# 5 -15.3132 3.0292 -20.7184 0.0000 25.8710 0.0000
# 6 0.0000 0.0000 0.0000 2.2288 0.0000 18.4052
#
#
#
# Elastic Compliance Matrix: (Units=1/GPa)
#
#
# Indices 1 2 3 4 5 6 
#
# 1 0.016165 -0.003340 -0.001540 0.000000 0.008726 0.000000
# 2 -0.003340 0.007170 0.000736 0.000000 -0.002228 0.000000
# 3 -0.001540 0.000736 0.019731 0.000000 0.014804 0.000000
# 4 0.000000 0.000000 0.000000 0.044893 0.000000 -0.005436
# 5 0.008726 -0.002228 0.014804 0.000000 0.055935 0.000000
# 6 0.000000 0.000000 0.000000 -0.005436 0.000000 0.054991
#
#
# Mechanical properties :
#
#
# Convention : Reuss Voigt Hill
#
# Bulk Modulus (GPa) = 28.75512 42.40082 35.57797
# Shear Modulus (GPa) = 22.85540 30.69209 26.77374
#
# Velocity S-wave (km/s) = 3.41006 3.95167 3.69082
# Velocity P-wave (km/s) = 5.48953 6.51106 6.02200
#
# Compressibility (1/GPa) = 0.03477641
#
# Stress axis : x y z
#
# Youngs Moduli (GPa) = 61.86166 139.47383 50.68054
#
# Poissons Ratio (x) = 0.46590 0.07806
# Poissons Ratio (y) = 0.20664 -0.03729
# Poissons Ratio (z) = 0.09529 -0.10262
#
# Static dielectric constant tensor:
#      x y z
#    x 1.685040 0.000000 0.030180 
#    y 0.000000 1.750510 0.000000 
#    z 0.030180 0.000000 1.749310 
# 
# From -- ./inp_files/91591.got.cif
#   From: 2010.05.17/outbox.cif.g08.bks.cpg/sg15_46_cif.got.tgz:91591.got - 2010.06.03 18:47:42.
