data_PCOD9257026
_publ_section_title
;
Structure prediction by ZEFSAII (Michael W. Deem and Ramdas Pophale) SiO2 
 PCOD9257026
Probable space group: C 2/C
;
_chemical_formula_sum "Si O2"
_cell_formula_units_Z 64
_cell_length_a 14.610800
_cell_length_b 12.271042
_cell_length_c 19.236525
_cell_angle_alpha 90.000000
_cell_angle_beta 130.236290
_cell_angle_gamma 90.000000
_cell_volume 2632.854451
_symmetry_space_group_name_H-M "C 2/C"
_symmetry_group_IT_number 15
_symmetry_cell_setting 'monoclinic'
loop_
_space_group_symop_operation_xyz
x,y,z
-x,y,1/2-z
-x,-y,-z
x,-y,1/2+z
1/2+x,1/2+y,z
1/2-x,1/2+y,1/2-z
1/2-x,1/2-y,-z
1/2+x,1/2-y,1/2+z
loop_
_atom_site_type_symbol
_atom_site_label
_atom_site_fract_x
_atom_site_fract_y
_atom_site_fract_z
Si Si1 0.410372 0.769333 0.443803
Si Si2 0.439666 0.708669 0.147418
Si Si3 0.960007 0.574705 0.579941
Si Si4 0.745620 0.445939 0.875682
Si Si5 0.328890 0.594666 0.309595
Si Si6 0.366310 0.137024 0.075216
Si Si7 0.622651 0.627510 0.892266
Si Si8 0.560926 0.590997 0.578786
O O1 0.423890 0.869238 0.397026
O O2 0.317260 0.685270 0.363561
O O3 0.378651 0.813458 0.503331
O O4 0.534751 0.701811 0.523026
O O5 0.500000 0.737353 0.250000
O O6 0.409547 0.821292 0.095977
O O7 0.324817 0.639549 0.110595
O O8 0.538558 0.634408 0.155238
O O9 0.874989 0.546254 0.473288
O O10 0.954321 0.465697 0.623304
O O11 0.749131 0.406687 0.798180
O O12 0.661820 0.552950 0.846775
O O13 0.320794 0.474934 0.340662
O O14 0.382986 0.244618 0.128852
O O15 0.227534 0.101400 0.001458
O O16 0.504770 0.603648 0.879038
O O17 0.500000 0.500000 0.500000
#
# Coordination Sequence:
#
# PCOD9257026 Si02
#       8
#     8   8   8   8   8   8   8   8
#     4   9  18  32  51  74 101 144 176 204 257 315
#     4   9  17  30  50  72 100 132 168 215 262 313
#     4  10  19  31  49  75 102 139 175 207 252 314
#     4  10  18  30  51  79 105 128 170 223 266 306
#     4   9  17  30  51  76 101 134 169 217 272 309
#     4   9  18  32  51  74  99 139 177 206 245 315
#     4   9  17  30  51  78  99 128 172 214 256 303
#     4   9  16  29  50  75 104 127 167 215 262 307
#
# _framework density 24.308218
#
# number of rings (size 3 to 8) (size 9 to 14) (size 15 to 20)
#    0.000    2.750    1.250    0.750    0.000    0.000 
#    0.000    2.500    5.500    0.000    0.000    0.000 
#    0.000    0.000    0.000    0.000    0.000    0.000 
#
# Total GULP energy -178274.272746 kJ/mol
# GULP energy per Si atom -5571.071023 kJ/mol
# Density = 2.425289 g / cm^3
# Si number density = 24.308218 Si / 1000 Ang^3
#
#
#
# Elastic Constant Matrix: (Units=GPa)
#
#
# Indices 1 2 3 4 5 6 
#
# 1 28.8572 23.0154 4.4295 0.0000 -9.0245 0.0000
# 2 23.0154 151.9568 15.4687 0.0000 -14.7690 0.0000
# 3 4.4295 15.4687 62.7440 0.0000 -16.0268 0.0000
# 4 0.0000 0.0000 0.0000 15.2366 0.0000 -4.8587
# 5 -9.0245 -14.7690 -16.0268 0.0000 16.7736 0.0000
# 6 0.0000 0.0000 0.0000 -4.8587 0.0000 26.4929
#
#
#
# Elastic Compliance Matrix: (Units=1/GPa)
#
#
# Indices 1 2 3 4 5 6 
#
# 1 0.045516 -0.004977 0.004166 0.000000 0.024087 0.000000
# 2 -0.004977 0.007743 -0.000662 0.000000 0.003508 0.000000
# 3 0.004166 -0.000662 0.021471 0.000000 0.022174 0.000000
# 4 0.000000 0.000000 0.000000 0.069708 0.000000 0.012784
# 5 0.024087 0.003508 0.022174 0.000000 0.096851 0.000000
# 6 0.000000 0.000000 0.000000 0.012784 0.000000 0.040090
#
#
# Mechanical properties :
#
#
# Convention : Reuss Voigt Hill
#
# Bulk Modulus (GPa) = 13.93050 36.59837 25.26444
# Shear Modulus (GPa) = 16.22050 25.07693 20.64871
#
# Velocity S-wave (km/s) = 2.58599 3.21537 2.91770
# Velocity P-wave (km/s) = 3.82879 5.37341 4.66547
#
# Compressibility (1/GPa) = 0.07178493
#
# Stress axis : x y z
#
# Youngs Moduli (GPa) = 21.97033 129.15073 46.57543
#
# Poissons Ratio (x) = 0.64277 -0.19405
# Poissons Ratio (y) = 0.10934 0.03081
# Poissons Ratio (z) = -0.09153 0.08544
#
# Static dielectric constant tensor:
#      x y z
#    x 2.053610 0.000000 0.006380 
#    y 0.000000 2.027450 0.000000 
#    z 0.006380 0.000000 1.949970 
# 
# From -- ./inp_files/248384.got.cif
#   From: 2010.05.17/outbox.cif.g08.bks.cpg/sg15_125_cif.got.tgz:248384.got - 2010.06.03 18:47:42.
