data_PCOD9257382
_publ_section_title
;
Structure prediction by ZEFSAII (Michael W. Deem and Ramdas Pophale) SiO2 
 PCOD9257382
Probable space group: C 2/C
;
_chemical_formula_sum "Si O2"
_cell_formula_units_Z 48
_cell_length_a 20.031765
_cell_length_b 16.035199
_cell_length_c 17.831570
_cell_angle_alpha 90.000000
_cell_angle_beta 152.894053
_cell_angle_gamma 90.000000
_cell_volume 2609.771157
_symmetry_space_group_name_H-M "C 2/C"
_symmetry_group_IT_number 15
_symmetry_cell_setting 'monoclinic'
loop_
_space_group_symop_operation_xyz
x,y,z
-x,y,1/2-z
-x,-y,-z
x,-y,1/2+z
1/2+x,1/2+y,z
1/2-x,1/2+y,1/2-z
1/2-x,1/2-y,-z
1/2+x,1/2-y,1/2+z
loop_
_atom_site_type_symbol
_atom_site_label
_atom_site_fract_x
_atom_site_fract_y
_atom_site_fract_z
Si Si1 0.750000 0.502578 0.099361
Si Si2 0.750000 0.812466 0.358687
Si Si3 0.250000 0.868756 0.908723
Si Si4 0.500000 0.464894 0.750000
Si Si5 0.000000 0.535106 0.750000
Si Si6 0.500000 0.750000 0.002926
Si Si7 0.250000 0.370224 0.771881
O O1 0.750000 0.402188 0.105385
O O2 0.750001 0.547437 0.178804
O O3 0.895420 0.520376 0.197500
O O4 0.604580 0.520376 0.906661
O O5 0.750000 0.731881 0.412434
O O6 0.892141 0.802450 0.448603
O O7 0.607860 0.802450 0.164321
O O8 0.107275 0.908533 0.805387
O O9 0.250000 0.885306 0.818429
O O10 0.392725 0.908534 0.090837
O O11 0.392908 0.813703 0.853987
O O12 0.607091 0.686297 0.068170
#
# Coordination Sequence:
#
# PCOD9257382 Si02
#       7
#     8   8   8   4   4   8   8
#     4  11  22  35  55  79 108 139 175 224 269 306
#     4  10  18  31  52  81 111 145 178 203 247 315
#     4   9  20  35  52  78 115 150 178 203 248 316
#     4  10  22  35  50  81 118 146 172 211 260 316
#     4  10  22  35  50  81 118 146 172 211 260 316
#     4   8  18  34  54  80 106 132 180 224 254 308
#     4  10  20  38  59  78 100 138 183 223 264 313
#
# _framework density 18.392416000000001
#
# number of rings (size 3 to 8) (size 9 to 14) (size 15 to 20)
#    0.000    2.667    0.000    4.000    0.000    9.333 
#    0.000    5.000    0.000    3.000    0.000    0.000 
#    0.000    0.000    0.000    0.000    0.000    0.000 
#
# Total GULP energy -133837.806465 kJ/mol
# GULP energy per Si atom -5576.575269 kJ/mol
# Density = 1.835055 g / cm^3
# Si number density = 18.392416 Si / 1000 Ang^3
#
#
#
# Elastic Constant Matrix: (Units=GPa)
#
#
# Indices 1 2 3 4 5 6 
#
# 1 85.7051 48.4092 56.1615 -0.0003 -8.9642 -0.0002
# 2 48.4092 38.2480 29.7356 -0.0010 -10.8793 -0.0005
# 3 56.1615 29.7356 110.2682 -0.0008 23.2765 -0.0003
# 4 -0.0003 -0.0010 -0.0008 1.4318 -0.0005 -4.1737
# 5 -8.9642 -10.8793 23.2765 -0.0005 25.8626 -0.0002
# 6 -0.0002 -0.0005 -0.0003 -4.1737 -0.0002 8.5956
#
#
#
# Elastic Compliance Matrix: (Units=1/GPa)
#
#
# Indices 1 2 3 4 5 6 
#
# 1 0.049600 -0.049708 -0.013670 0.000086 0.008585 0.000040
# 2 -0.049708 0.111623 -0.013652 -0.000218 0.042013 -0.000100
# 3 -0.013670 -0.013652 0.027068 0.000025 -0.034842 0.000011
# 4 0.000086 -0.000218 0.000025 -1.681346 -0.000122 -0.816396
# 5 0.008585 0.042013 -0.034842 -0.000122 0.090673 -0.000056
# 6 0.000040 -0.000100 0.000011 -0.816396 -0.000056 -0.280072
#
#
# Mechanical properties :
#
#
# Convention : Reuss Voigt Hill
#
# Bulk Modulus (GPa) = 29.21381 55.87042 42.54211
# Shear Modulus (GPa) = -3.29602 13.83900 5.27149
#
# Velocity S-wave (km/s) = -1.34013 2.74602 1.69480
# Velocity P-wave (km/s) = 3.67743 6.36373 5.19714
#
# Compressibility (1/GPa) = 0.03423038
#
# Stress axis : x y z
#
# Youngs Moduli (GPa) = 20.16109 8.95870 36.94456
#
# Poissons Ratio (x) = 0.44532 0.50503
# Poissons Ratio (y) = 1.00217 0.50438
# Poissons Ratio (z) = 0.27560 0.12231
#
# Static dielectric constant tensor:
#      x y z
#    x 1.653260 0.000000 0.058680 
#    y 0.000000 1.616140 0.000000 
#    z 0.058680 0.000000 1.753970 
# 
# From -- ./inp_files/56267.got.cif
#   From: 2010.05.17/outbox.cif.g08.bks.cpg/sg15_29_cif.got.tgz:56267.got - 2010.06.03 18:47:42.
