data_PCOD9257272
_publ_section_title
;
Structure prediction by ZEFSAII (Michael W. Deem and Ramdas Pophale) SiO2 
 PCOD9257272
Probable space group: C 2/C
;
_chemical_formula_sum "Si O2"
_cell_formula_units_Z 64
_cell_length_a 16.444085
_cell_length_b 25.744339
_cell_length_c 8.484434
_cell_angle_alpha 90.000000
_cell_angle_beta 45.798917
_cell_angle_gamma 90.000000
_cell_volume 2574.965162
_symmetry_space_group_name_H-M "C 2/C"
_symmetry_group_IT_number 15
_symmetry_cell_setting 'monoclinic'
loop_
_space_group_symop_operation_xyz
x,y,z
-x,y,1/2-z
-x,-y,-z
x,-y,1/2+z
1/2+x,1/2+y,z
1/2-x,1/2+y,1/2-z
1/2-x,1/2-y,-z
1/2+x,1/2-y,1/2+z
loop_
_atom_site_type_symbol
_atom_site_label
_atom_site_fract_x
_atom_site_fract_y
_atom_site_fract_z
Si Si1 0.360600 0.541002 0.312702
Si Si2 0.395205 0.330278 0.461037
Si Si3 0.409071 0.568646 0.607007
Si Si4 0.144180 0.649131 0.306442
Si Si5 0.815285 0.362169 0.086084
Si Si6 0.158264 0.796940 0.629438
Si Si7 0.846831 0.773666 0.201377
Si Si8 0.335945 0.109473 0.899221
O O1 0.384335 0.551108 0.462177
O O2 0.383830 0.481167 0.246524
O O3 0.229038 0.556294 0.471603
O O4 0.453677 0.575303 0.088838
O O5 0.500000 0.363105 0.250000
O O6 0.279359 0.361451 0.628826
O O7 0.404233 0.300693 0.616889
O O8 0.383708 0.291246 0.326217
O O9 0.310654 0.611437 0.762506
O O10 0.139712 0.711760 0.323653
O O11 0.097875 0.625554 0.531162
O O12 0.115495 0.631368 0.169258
O O13 0.778469 0.301156 0.144465
O O14 0.874713 0.384308 0.164015
O O15 0.250000 0.750000 0.500000
O O16 0.100370 0.793289 0.536012
O O17 0.233008 0.848834 0.526458
#
# Coordination Sequence:
#
# PCOD9257272 Si02
#       8
#     8   8   8   8   8   8   8   8
#     4   9  18  31  43  58  85 115 160 201 237 280
#     4  10  20  30  43  68  93 114 152 199 234 271
#     4   9  18  31  43  58  83 124 152 193 252 278
#     4  10  19  30  48  68  86 120 157 193 241 291
#     4   9  18  27  43  63  83 109 151 194 231 275
#     4  10  18  31  50  65  87 124 158 193 250 296
#     4  10  19  32  50  66  92 122 158 195 237 304
#     4   9  18  28  43  65  81 105 156 203 224 274
#
# _framework density 24.854704999999999
#
# number of rings (size 3 to 8) (size 9 to 14) (size 15 to 20)
#    0.000    2.500    2.500    1.500    3.500    4.500 
#    0.000    5.000    0.000    0.000    0.000    0.000 
#    0.000    0.000    0.000    0.000    0.000   20.000 
#
# Total GULP energy -178281.464655 kJ/mol
# GULP energy per Si atom -5571.295770 kJ/mol
# Density = 2.479813 g / cm^3
# Si number density = 24.854705 Si / 1000 Ang^3
#
#
#
# Elastic Constant Matrix: (Units=GPa)
#
#
# Indices 1 2 3 4 5 6 
#
# 1 115.3833 6.5634 58.9747 0.0000 41.9559 0.0000
# 2 6.5634 53.1034 25.0724 0.0000 6.8471 0.0000
# 3 58.9747 25.0724 225.8991 0.0000 50.6435 0.0000
# 4 0.0000 0.0000 0.0000 27.6527 0.0000 27.1911
# 5 41.9559 6.8471 50.6435 0.0000 49.4320 0.0000
# 6 0.0000 0.0000 0.0000 27.1911 0.0000 -2.8844
#
#
#
# Elastic Compliance Matrix: (Units=1/GPa)
#
#
# Indices 1 2 3 4 5 6 
#
# 1 0.012773 0.000231 -0.001198 0.000000 -0.009646 0.000000
# 2 0.000231 0.019892 -0.002085 0.000000 -0.000815 0.000000
# 3 -0.001198 -0.002085 0.006073 0.000000 -0.004917 0.000000
# 4 0.000000 0.000000 0.000000 0.003521 0.000000 0.033196
# 5 -0.009646 -0.000815 -0.004917 0.000000 0.033567 0.000000
# 6 0.000000 0.000000 0.000000 0.033196 0.000000 -0.033759
#
#
# Mechanical properties :
#
#
# Convention : Reuss Voigt Hill
#
# Bulk Modulus (GPa) = 30.64312 63.95632 47.29972
# Shear Modulus (GPa) = 84.67184 35.09174 59.88179
#
# Velocity S-wave (km/s) = 5.84300 3.76157 4.91376
# Velocity P-wave (km/s) = 7.60767 6.68235 7.15997
#
# Compressibility (1/GPa) = 0.03263375
#
# Stress axis : x y z
#
# Youngs Moduli (GPa) = 78.28712 50.27064 164.66017
#
# Poissons Ratio (x) = -0.01159 0.19722
# Poissons Ratio (y) = -0.01805 0.34339
# Poissons Ratio (z) = 0.09377 0.10484
#
# Static dielectric constant tensor:
#      x y z
#    x 2.133510 0.000000 -0.006250 
#    y 0.000000 2.074060 0.000000 
#    z -0.006250 0.000000 2.060670 
# 
# From -- ./inp_files/59022.got.cif
#   From: 2010.05.17/outbox.cif.g08.bks.cpg/sg15_30_cif.got.tgz:59022.got - 2010.06.03 18:47:42.
