data_PCOD9257496
_publ_section_title
;
Structure prediction by ZEFSAII (Michael W. Deem and Ramdas Pophale) SiO2 
 PCOD9257496
Probable space group: C 2/C
;
_chemical_formula_sum "Si O2"
_cell_formula_units_Z 64
_cell_length_a 15.309264
_cell_length_b 28.481801
_cell_length_c 12.213469
_cell_angle_alpha 90.000000
_cell_angle_beta 142.547393
_cell_angle_gamma 90.000000
_cell_volume 3238.466135
_symmetry_space_group_name_H-M "C 2/C"
_symmetry_group_IT_number 15
_symmetry_cell_setting 'monoclinic'
loop_
_space_group_symop_operation_xyz
x,y,z
-x,y,1/2-z
-x,-y,-z
x,-y,1/2+z
1/2+x,1/2+y,z
1/2-x,1/2+y,1/2-z
1/2-x,1/2-y,-z
1/2+x,1/2-y,1/2+z
loop_
_atom_site_type_symbol
_atom_site_label
_atom_site_fract_x
_atom_site_fract_y
_atom_site_fract_z
Si Si1 0.133889 0.555912 0.057168
Si Si2 0.484160 0.848806 0.392493
Si Si3 0.447214 0.200247 0.075724
Si Si4 0.844645 0.954271 0.579848
Si Si5 0.910340 0.477585 0.757832
Si Si6 0.661589 0.275145 0.188517
Si Si7 0.249204 0.710491 0.090338
Si Si8 0.844313 0.848771 0.505306
O O1 0.280561 0.556653 0.136139
O O2 0.144661 0.554532 0.198437
O O3 0.045756 0.600541 0.930570
O O4 0.037390 0.511585 0.927522
O O5 0.483762 0.839112 0.521709
O O6 0.593006 0.812001 0.449153
O O7 0.325963 0.845042 0.189423
O O8 0.500000 0.189882 0.250000
O O9 0.535719 0.246069 0.121386
O O10 0.275291 0.205966 0.890632
O O11 0.723317 0.988537 0.408079
O O12 0.869940 0.904925 0.539401
O O13 0.000000 0.977252 0.750000
O O14 0.000000 0.452348 0.750000
O O15 0.760782 0.238990 0.214912
O O16 0.603753 0.314731 0.043699
O O17 0.250000 0.750000 0.000000
O O18 0.355776 0.672186 0.141548
#
# Coordination Sequence:
#
# PCOD9257496 Si02
#       8
#     8   8   8   8   8   8   8   8
#     4  10  19  36  60  83 111 148 186 238 284 338
#     4  10  18  31  56  79 104 142 188 232 282 329
#     4  10  20  35  52  73 101 144 191 231 273 322
#     4  11  22  34  55  87 117 152 180 225 293 354
#     4   9  20  37  59  86 111 143 192 236 284 341
#     4   9  20  33  50  75 103 142 184 225 274 328
#     4   9  17  28  48  79 111 139 171 221 279 332
#     4  10  18  32  52  79 112 141 179 226 280 343
#
# _framework density 19.762443000000001
#
# number of rings (size 3 to 8) (size 9 to 14) (size 15 to 20)
#    0.000    2.250    2.500    0.750    0.000    3.000 
#    0.000    3.750    0.000    0.000    0.000    0.000 
#    0.000    0.000    0.000    0.000    0.000    0.000 
#
# Total GULP energy -178183.249830 kJ/mol
# GULP energy per Si atom -5568.226557 kJ/mol
# Density = 1.971746 g / cm^3
# Si number density = 19.762443 Si / 1000 Ang^3
#
#
#
# Elastic Constant Matrix: (Units=GPa)
#
#
# Indices 1 2 3 4 5 6 
#
# 1 74.0633 2.8036 19.0901 0.0000 -10.4285 0.0000
# 2 2.8036 23.9746 -10.1248 0.0000 -4.3389 0.0000
# 3 19.0901 -10.1248 64.8224 0.0000 -20.2976 0.0000
# 4 0.0000 0.0000 0.0000 18.8771 0.0000 -2.2183
# 5 -10.4285 -4.3389 -20.2976 0.0000 30.5060 0.0000
# 6 0.0000 0.0000 0.0000 -2.2183 0.0000 18.3829
#
#
#
# Elastic Compliance Matrix: (Units=1/GPa)
#
#
# Indices 1 2 3 4 5 6 
#
# 1 0.015003 -0.003292 -0.004387 0.000000 0.001741 0.000000
# 2 -0.003292 0.050577 0.013604 0.000000 0.015120 0.000000
# 3 -0.004387 0.013604 0.023975 0.000000 0.016387 0.000000
# 4 0.000000 0.000000 0.000000 0.053736 0.000000 0.006484
# 5 0.001741 0.015120 0.016387 0.000000 0.046430 0.000000
# 6 0.000000 0.000000 0.000000 0.006484 0.000000 0.055181
#
#
# Mechanical properties :
#
#
# Convention : Reuss Voigt Hill
#
# Bulk Modulus (GPa) = 9.86160 20.71091 15.28625
# Shear Modulus (GPa) = 18.73690 23.62598 21.18144
#
# Velocity S-wave (km/s) = 3.08247 3.46135 3.27739
# Velocity P-wave (km/s) = 4.20354 5.14561 4.69825
#
# Compressibility (1/GPa) = 0.10140343
#
# Stress axis : x y z
#
# Youngs Moduli (GPa) = 66.65522 19.77177 41.71051
#
# Poissons Ratio (x) = 0.06509 0.18299
# Poissons Ratio (y) = 0.21943 -0.56742
# Poissons Ratio (z) = 0.29243 -0.26897
#
# Static dielectric constant tensor:
#      x y z
#    x 1.731840 0.000000 -0.037180 
#    y 0.000000 1.714450 0.000000 
#    z -0.037180 0.000000 1.732560 
# 
# From -- ./inp_files/101654.got.cif
#   From: 2010.05.17/outbox.cif.g08.bks.cpg/sg15_51_cif.got.tgz:101654.got - 2010.06.03 18:47:42.
