data_PCOD9257541
_publ_section_title
;
Structure prediction by ZEFSAII (Michael W. Deem and Ramdas Pophale) SiO2 
 PCOD9257541
Probable space group: C 2/C
;
_chemical_formula_sum "Si O2"
_cell_formula_units_Z 64
_cell_length_a 12.241873
_cell_length_b 12.368998
_cell_length_c 23.069515
_cell_angle_alpha 90.000000
_cell_angle_beta 92.569077
_cell_angle_gamma 90.000000
_cell_volume 3489.668132
_symmetry_space_group_name_H-M "C 2/C"
_symmetry_group_IT_number 15
_symmetry_cell_setting 'monoclinic'
loop_
_space_group_symop_operation_xyz
x,y,z
-x,y,1/2-z
-x,-y,-z
x,-y,1/2+z
1/2+x,1/2+y,z
1/2-x,1/2+y,1/2-z
1/2-x,1/2-y,-z
1/2+x,1/2-y,1/2+z
loop_
_atom_site_type_symbol
_atom_site_label
_atom_site_fract_x
_atom_site_fract_y
_atom_site_fract_z
Si Si1 0.903263 0.358044 0.956497
Si Si2 0.179709 0.813115 0.546205
Si Si3 0.929044 0.185197 0.045599
Si Si4 0.692040 0.162813 0.658857
Si Si5 0.945014 0.625951 0.643435
Si Si6 0.128410 0.540360 0.446702
Si Si7 0.781099 0.067043 0.130584
Si Si8 0.629346 0.278145 0.767369
O O1 0.832310 0.382477 0.897732
O O2 0.034750 0.368461 0.952702
O O3 0.877339 0.245042 0.988253
O O4 0.878133 0.457933 0.999503
O O5 0.250000 0.750000 0.500000
O O6 0.186964 0.736296 0.601977
O O7 0.249791 0.919575 0.556698
O O8 0.053745 0.841478 0.532410
O O9 0.937153 0.280609 0.094124
O O10 0.863360 0.092195 0.078237
O O11 0.570416 0.114665 0.664123
O O12 0.700674 0.245953 0.713058
O O13 0.767403 0.058853 0.647489
O O14 0.904490 0.519811 0.612205
O O15 0.876468 0.668608 0.695206
O O16 0.822364 0.131403 0.188471
O O17 0.500000 0.303896 0.750000
#
# Coordination Sequence:
#
# PCOD9257541 Si02
#       8
#     8   8   8   8   8   8   8   8
#     4  10  18  33  56  87 113 144 182 232 274 329
#     4  11  20  34  56  83 114 152 183 222 275 342
#     4   9  19  33  54  84 118 146 181 218 279 347
#     4  10  20  35  57  81 108 142 189 233 278 331
#     4   8  16  34  57  83 101 138 193 234 266 321
#     4  10  18  31  58  85 114 142 185 230 275 320
#     4  11  20  35  62  82 110 147 190 232 286 328
#     4   9  20  38  59  78 103 145 195 237 277 332
#
# _framework density 18.339853999999999
#
# number of rings (size 3 to 8) (size 9 to 14) (size 15 to 20)
#    0.000    2.250    2.500    1.875    0.000    1.000 
#    0.000    2.500    8.250    0.000    0.000    0.000 
#    0.000    0.000    0.000    0.000    0.000    0.000 
#
# Total GULP energy -178170.389818 kJ/mol
# GULP energy per Si atom -5567.824682 kJ/mol
# Density = 1.829811 g / cm^3
# Si number density = 18.339854 Si / 1000 Ang^3
#
#
#
# Elastic Constant Matrix: (Units=GPa)
#
#
# Indices 1 2 3 4 5 6 
#
# 1 74.4213 16.1406 9.1408 0.0000 -1.1974 0.0000
# 2 16.1406 37.9877 8.4580 0.0000 0.2351 0.0000
# 3 9.1408 8.4580 77.7121 0.0000 4.2037 0.0000
# 4 0.0000 0.0000 0.0000 19.3724 0.0000 -1.3189
# 5 -1.1974 0.2351 4.2037 0.0000 30.1198 0.0000
# 6 0.0000 0.0000 0.0000 -1.3189 0.0000 23.9787
#
#
#
# Elastic Compliance Matrix: (Units=1/GPa)
#
#
# Indices 1 2 3 4 5 6 
#
# 1 0.014909 -0.006087 -0.001134 0.000000 0.000799 0.000000
# 2 -0.006087 0.029465 -0.002484 0.000000 -0.000125 0.000000
# 3 -0.001134 -0.002484 0.013374 0.000000 -0.001892 0.000000
# 4 0.000000 0.000000 0.000000 0.051814 0.000000 0.002850
# 5 0.000799 -0.000125 -0.001892 0.000000 0.033498 0.000000
# 6 0.000000 0.000000 0.000000 0.002850 0.000000 0.041860
#
#
# Mechanical properties :
#
#
# Convention : Reuss Voigt Hill
#
# Bulk Modulus (GPa) = 26.08462 28.62222 27.35342
# Shear Modulus (GPa) = 23.02975 25.11961 24.07468
#
# Velocity S-wave (km/s) = 3.54746 3.70493 3.62705
# Velocity P-wave (km/s) = 5.57074 5.82601 5.69980
#
# Compressibility (1/GPa) = 0.03833676
#
# Stress axis : x y z
#
# Youngs Moduli (GPa) = 67.07179 33.93903 74.77105
#
# Poissons Ratio (x) = 0.20660 0.08482
# Poissons Ratio (y) = 0.40828 0.18574
# Poissons Ratio (z) = 0.07608 0.08431
#
# Static dielectric constant tensor:
#      x y z
#    x 1.679110 0.000000 0.021320 
#    y 0.000000 1.627720 0.000000 
#    z 0.021320 0.000000 1.695380 
# 
# From -- ./inp_files/268856.got.cif
#   From: 2010.05.17/outbox.cif.g08.bks.cpg/sg15_135_cif.got.tgz:268856.got - 2010.06.03 18:47:42.
