data_PCOD9257658
_publ_section_title
;
Structure prediction by ZEFSAII (Michael W. Deem and Ramdas Pophale) SiO2 
 PCOD9257658
Probable space group: C 2/C
;
_chemical_formula_sum "Si O2"
_cell_formula_units_Z 52
_cell_length_a 22.090505
_cell_length_b 14.927547
_cell_length_c 9.585387
_cell_angle_alpha 90.000000
_cell_angle_beta 135.268771
_cell_angle_gamma 90.000000
_cell_volume 2224.548659
_symmetry_space_group_name_H-M "C 2/C"
_symmetry_group_IT_number 15
_symmetry_cell_setting 'monoclinic'
loop_
_space_group_symop_operation_xyz
x,y,z
-x,y,1/2-z
-x,-y,-z
x,-y,1/2+z
1/2+x,1/2+y,z
1/2-x,1/2+y,1/2-z
1/2-x,1/2-y,-z
1/2+x,1/2-y,1/2+z
loop_
_atom_site_type_symbol
_atom_site_label
_atom_site_fract_x
_atom_site_fract_y
_atom_site_fract_z
Si Si1 0.654648 0.733772 0.786994
Si Si2 0.500000 0.210277 0.750000
Si Si3 0.136998 0.409780 0.601427
Si Si4 0.975128 0.790948 0.005311
Si Si5 0.578478 0.094786 0.480700
Si Si6 0.296794 0.364990 0.697964
Si Si7 0.257901 0.339910 0.320307
O O1 0.631408 0.835724 0.711161
O O2 0.570557 0.695358 0.727417
O O3 0.667321 0.673415 0.669506
O O4 0.750000 0.750000 0.000000
O O5 0.419497 0.141608 0.608906
O O6 0.488531 0.274511 0.862574
O O7 0.094194 0.500638 0.583907
O O8 0.232740 0.419456 0.694490
O O9 0.898387 0.861715 0.898009
O O10 0.946054 0.690705 0.998112
O O11 0.500000 0.074508 0.250000
O O12 0.678264 0.115741 0.608056
O O13 0.279861 0.384079 0.505878
O O14 0.267730 0.262231 0.681114
#
# Coordination Sequence:
#
# PCOD9257658 Si02
#       7
#     8   4   8   8   8   8   8
#     4  10  20  35  53  83 113 146 184 234 288 341
#     4  10  18  32  50  84 110 144 176 228 278 344
#     4  10  20  34  52  76 118 147 182 226 285 343
#     4  10  20  34  60  83 111 146 190 236 282 338
#     4  11  21  35  52  86 120 150 175 229 296 359
#     4   9  17  35  55  76 101 147 199 226 260 329
#     4   9  18  34  54  76 109 146 187 228 270 328
#
# _framework density 23.375527999999999
#
# number of rings (size 3 to 8) (size 9 to 14) (size 15 to 20)
#    0.000    2.154    0.769    5.538    0.000    2.462 
#   11.077    0.000    0.000    0.923    4.000    0.000 
#    0.000    0.000    0.000    0.000    0.000    0.000 
#
# Total GULP energy -144786.130342 kJ/mol
# GULP energy per Si atom -5568.697321 kJ/mol
# Density = 2.332232 g / cm^3
# Si number density = 23.375528 Si / 1000 Ang^3
#
#
#
# Elastic Constant Matrix: (Units=GPa)
#
#
# Indices 1 2 3 4 5 6 
#
# 1 86.3954 7.5678 40.8592 0.0000 38.9457 0.0000
# 2 7.5678 31.6911 18.0824 0.0000 9.2510 0.0000
# 3 40.8592 18.0824 122.9145 0.0000 41.3839 0.0000
# 4 0.0000 0.0000 0.0000 6.9332 0.0000 1.3618
# 5 38.9457 9.2510 41.3839 0.0000 47.9262 0.0000
# 6 0.0000 0.0000 0.0000 1.3618 0.0000 10.1994
#
#
#
# Elastic Compliance Matrix: (Units=1/GPa)
#
#
# Indices 1 2 3 4 5 6 
#
# 1 0.018475 0.000506 -0.001591 0.000000 -0.013737 0.000000
# 2 0.000506 0.034813 -0.004073 0.000000 -0.003614 0.000000
# 3 -0.001591 -0.004073 0.012074 0.000000 -0.008347 0.000000
# 4 0.000000 0.000000 0.000000 0.148118 0.000000 -0.019777
# 5 -0.013737 -0.003614 -0.008347 0.000000 0.039934 0.000000
# 6 0.000000 0.000000 0.000000 -0.019777 0.000000 0.100686
#
#
# Mechanical properties :
#
#
# Convention : Reuss Voigt Hill
#
# Bulk Modulus (GPa) = 18.16639 41.55776 29.86207
# Shear Modulus (GPa) = 13.06289 24.64453 18.85371
#
# Velocity S-wave (km/s) = 2.36652 3.25050 2.84308
# Velocity P-wave (km/s) = 3.90584 5.64842 4.85594
#
# Compressibility (1/GPa) = 0.05504672
#
# Stress axis : x y z
#
# Youngs Moduli (GPa) = 54.12637 28.72516 82.82233
#
# Poissons Ratio (x) = -0.01453 0.13175
# Poissons Ratio (y) = -0.02738 0.33732
# Poissons Ratio (z) = 0.08610 0.11699
#
# Static dielectric constant tensor:
#      x y z
#    x 1.962110 0.000000 0.002150 
#    y 0.000000 1.856030 0.000000 
#    z 0.002150 0.000000 2.070990 
# 
# From -- ./inp_files/118813.got.cif
#   From: 2010.05.17/outbox.cif.g08.bks.cpg/sg15_60_cif.got.tgz:118813.got - 2010.06.03 18:47:42.
