data_PCOD9257139
_publ_section_title
;
Structure prediction by ZEFSAII (Michael W. Deem and Ramdas Pophale) SiO2 
 PCOD9257139
Probable space group: C 2/C
;
_chemical_formula_sum "Si O2"
_cell_formula_units_Z 56
_cell_length_a 29.825279
_cell_length_b 5.453006
_cell_length_c 13.868188
_cell_angle_alpha 90.000000
_cell_angle_beta 80.036404
_cell_angle_gamma 90.000000
_cell_volume 2221.468885
_symmetry_space_group_name_H-M "C 2/C"
_symmetry_group_IT_number 15
_symmetry_cell_setting 'monoclinic'
loop_
_space_group_symop_operation_xyz
x,y,z
-x,y,1/2-z
-x,-y,-z
x,-y,1/2+z
1/2+x,1/2+y,z
1/2-x,1/2+y,1/2-z
1/2-x,1/2-y,-z
1/2+x,1/2-y,1/2+z
loop_
_atom_site_type_symbol
_atom_site_label
_atom_site_fract_x
_atom_site_fract_y
_atom_site_fract_z
Si Si1 0.547031 0.721989 0.409514
Si Si2 0.297607 0.450932 0.468510
Si Si3 0.332301 0.831669 0.716541
Si Si4 0.649557 0.925225 0.020994
Si Si5 0.448814 0.778808 0.466130
Si Si6 0.262734 0.713975 0.162111
Si Si7 0.358970 0.302480 0.737625
O O1 0.495277 0.732340 0.388770
O O2 0.553733 0.477466 0.473135
O O3 0.590595 0.711467 0.325472
O O4 0.547674 0.979400 0.467295
O O5 0.323559 0.700078 0.441268
O O6 0.270667 0.492710 0.578276
O O7 0.260469 0.410226 0.400225
O O8 0.329031 0.201374 0.473212
O O9 0.348185 0.860647 0.598455
O O10 0.277511 0.835076 0.748327
O O11 0.350937 0.584706 0.759667
O O12 0.353406 0.032159 0.780733
O O13 0.597746 0.851988 0.068179
O O14 0.312699 0.731636 0.187651
#
# Coordination Sequence:
#
# PCOD9257139 Si02
#       7
#     8   8   8   8   8   8   8
#     4  10  18  31  51  84 114 138 177 228 297 314
#     4  11  26  36  58  77 122 149 192 220 281 329
#     4  12  23  35  60  80 115 149 191 227 284 320
#     4  12  20  40  56  87 111 149 182 239 273 334
#     4  10  18  30  55  81 115 139 175 233 286 329
#     4  11  24  40  53  86 113 156 186 230 270 342
#     4  12  21  37  56  83 116 147 182 241 272 332
#
# _framework density 25.208544
#
# number of rings (size 3 to 8) (size 9 to 14) (size 15 to 20)
#    0.000    0.857    5.714    1.714    0.000    4.571 
#    0.000    0.000    0.000    0.000    0.000    6.000 
#    0.000    0.000    0.000    0.000    0.000    0.000 
#
# Total GULP energy -155943.336820 kJ/mol
# GULP energy per Si atom -5569.404886 kJ/mol
# Density = 2.515117 g / cm^3
# Si number density = 25.208544 Si / 1000 Ang^3
#
#
#
# Elastic Constant Matrix: (Units=GPa)
#
#
# Indices 1 2 3 4 5 6 
#
# 1 180.8298 57.7872 43.5685 0.0000 -42.7609 0.0000
# 2 57.7872 235.6498 35.9814 0.0000 -8.1212 0.0000
# 3 43.5685 35.9814 30.0483 0.0000 -10.5141 0.0000
# 4 0.0000 0.0000 0.0000 35.4346 0.0000 1.9332
# 5 -42.7609 -8.1212 -10.5141 0.0000 45.5616 0.0000
# 6 0.0000 0.0000 0.0000 1.9332 0.0000 30.2088
#
#
#
# Elastic Compliance Matrix: (Units=1/GPa)
#
#
# Indices 1 2 3 4 5 6 
#
# 1 0.010081 -0.000449 -0.011745 0.000000 0.006671 0.000000
# 2 -0.000449 0.005226 -0.005905 0.000000 -0.000852 0.000000
# 3 -0.011745 -0.005905 0.057824 0.000000 0.001268 0.000000
# 4 0.000000 0.000000 0.000000 0.028320 0.000000 -0.001812
# 5 0.006671 -0.000852 0.001268 0.000000 0.028350 0.000000
# 6 0.000000 0.000000 0.000000 -0.001812 0.000000 0.033219
#
#
# Mechanical properties :
#
#
# Convention : Reuss Voigt Hill
#
# Bulk Modulus (GPa) = 27.07614 80.13357 53.60485
# Shear Modulus (GPa) = 23.63746 42.85372 33.24559
#
# Velocity S-wave (km/s) = 3.06547 4.12754 3.63550
# Velocity P-wave (km/s) = 4.82635 7.38733 6.23965
#
# Compressibility (1/GPa) = 0.03693289
#
# Stress axis : x y z
#
# Youngs Moduli (GPa) = 99.19957 191.35256 17.29374
#
# Poissons Ratio (x) = 0.08588 0.20311
# Poissons Ratio (y) = 0.04452 0.10213
# Poissons Ratio (z) = 1.16509 1.13000
#
# Static dielectric constant tensor:
#      x y z
#    x 2.126950 0.000000 -0.017080 
#    y 0.000000 2.389230 0.000000 
#    z -0.017080 0.000000 2.183310 
# 
# From -- ./inp_files/223592.got.cif
#   From: 2010.05.17/outbox.cif.g08.bks.cpg/sg15_112_cif.got.tgz:223592.got - 2010.06.03 18:47:42.
