data_PCOD9257299
_publ_section_title
;
Structure prediction by ZEFSAII (Michael W. Deem and Ramdas Pophale) SiO2 
 PCOD9257299
Probable space group: C 2/C
;
_chemical_formula_sum "Si O2"
_cell_formula_units_Z 60
_cell_length_a 29.938909
_cell_length_b 5.383239
_cell_length_c 21.664246
_cell_angle_alpha 90.000000
_cell_angle_beta 81.347860
_cell_angle_gamma 90.000000
_cell_volume 3451.855086
_symmetry_space_group_name_H-M "C 2/C"
_symmetry_group_IT_number 15
_symmetry_cell_setting 'monoclinic'
loop_
_space_group_symop_operation_xyz
x,y,z
-x,y,1/2-z
-x,-y,-z
x,-y,1/2+z
1/2+x,1/2+y,z
1/2-x,1/2+y,1/2-z
1/2-x,1/2-y,-z
1/2+x,1/2-y,1/2+z
loop_
_atom_site_type_symbol
_atom_site_label
_atom_site_fract_x
_atom_site_fract_y
_atom_site_fract_z
Si Si1 0.592076 0.017577 0.102280
Si Si2 0.756164 0.009983 0.917957
Si Si3 0.195679 0.496375 0.048808
Si Si4 0.762561 0.104661 0.281768
Si Si5 0.409898 0.952487 0.747655
Si Si6 0.436272 0.517784 0.365432
Si Si7 0.369001 0.451735 0.767302
Si Si8 0.000000 0.193704 0.750000
O O1 0.595178 0.029677 0.176694
O O2 0.562780 0.772188 0.097745
O O3 0.641837 0.998554 0.064370
O O4 0.568583 0.276606 0.091339
O O5 0.785571 0.766590 0.930010
O O6 0.740441 0.965984 0.851699
O O7 0.784593 0.266036 0.917831
O O8 0.715844 0.025851 0.975899
O O9 0.748704 0.377504 0.261776
O O10 0.816455 0.103088 0.281112
O O11 0.394472 0.222147 0.728831
O O12 0.379193 0.718893 0.734854
O O13 0.461436 0.867130 0.728086
O O14 0.391078 0.531210 0.331314
O O15 0.475692 0.472187 0.307125
#
# Coordination Sequence:
#
# PCOD9257299 Si02
#       8
#     8   8   8   8   8   8   8   4
#     4   9  15  24  37  60  79 116 141 170 219 261
#     4  10  20  32  47  70  87 120 159 205 253 270
#     4  10  18  31  51  66  92 116 159 206 235 298
#     4  12  23  34  49  66  95 130 169 210 233 275
#     4   9  16  25  43  59  90 116 144 182 218 291
#     4   9  17  25  42  59  90 117 145 180 218 290
#     4   9  17  29  40  58  79 119 155 180 223 264
#     4   8  16  26  38  66  88 124 148 172 228 278
#
# _framework density 17.381958000000001
#
# number of rings (size 3 to 8) (size 9 to 14) (size 15 to 20)
#    0.000    2.667    0.000    5.600    0.000    8.533 
#    0.000    0.000    0.000    0.000    0.000    0.000 
#    0.000    0.000    0.000  127.200    0.000    0.533 
#
# Total GULP energy -167034.951235 kJ/mol
# GULP energy per Si atom -5567.831708 kJ/mol
# Density = 1.734240 g / cm^3
# Si number density = 17.381958 Si / 1000 Ang^3
#
#
#
# Elastic Constant Matrix: (Units=GPa)
#
#
# Indices 1 2 3 4 5 6 
#
# 1 42.2989 -2.8401 7.2162 0.0000 -15.6169 0.0000
# 2 -2.8401 126.1526 -2.3420 0.0000 -6.2919 0.0000
# 3 7.2162 -2.3420 31.6072 0.0000 -9.6577 0.0000
# 4 0.0000 0.0000 0.0000 12.9239 0.0000 -4.3603
# 5 -15.6169 -6.2919 -9.6577 0.0000 16.5275 0.0000
# 6 0.0000 0.0000 0.0000 -4.3603 0.0000 19.6131
#
#
#
# Elastic Compliance Matrix: (Units=1/GPa)
#
#
# Indices 1 2 3 4 5 6 
#
# 1 0.037445 0.002824 0.003408 0.000000 0.038448 0.000000
# 2 0.002824 0.008385 0.002152 0.000000 0.007118 0.000000
# 3 0.003408 0.002152 0.039265 0.000000 0.026984 0.000000
# 4 0.000000 0.000000 0.000000 0.083650 0.000000 0.018597
# 5 0.038448 0.007118 0.026984 0.000000 0.115313 0.000000
# 6 0.000000 0.000000 0.000000 0.018597 0.000000 0.055121
#
#
# Mechanical properties :
#
#
# Convention : Reuss Voigt Hill
#
# Bulk Modulus (GPa) = 9.81718 22.68076 16.24897
# Shear Modulus (GPa) = 14.03057 23.01454 18.52256
#
# Velocity S-wave (km/s) = 2.84419 3.64269 3.26792
# Velocity P-wave (km/s) = 4.05538 5.54699 4.85876
#
# Compressibility (1/GPa) = 0.10186221
#
# Stress axis : x y z
#
# Youngs Moduli (GPa) = 26.70601 119.25446 25.46826
#
# Poissons Ratio (x) = -0.33676 -0.08680
# Poissons Ratio (y) = -0.07542 -0.05480
# Poissons Ratio (z) = -0.09102 -0.25658
#
# Static dielectric constant tensor:
#      x y z
#    x 1.592970 0.000000 -0.012300 
#    y 0.000000 1.722110 0.000000 
#    z -0.012300 0.000000 1.593080 
# 
# From -- ./inp_files/258301.got.cif
#   From: 2010.05.17/outbox.cif.g08.bks.cpg/sg15_130_cif.got.tgz:258301.got - 2010.06.03 18:47:42.
