data_PCOD9257725
_publ_section_title
;
Structure prediction by ZEFSAII (Michael W. Deem and Ramdas Pophale) SiO2 
 PCOD9257725
Probable space group: C 2/C
;
_chemical_formula_sum "Si O2"
_cell_formula_units_Z 44
_cell_length_a 27.242597
_cell_length_b 8.728089
_cell_length_c 12.817632
_cell_angle_alpha 90.000000
_cell_angle_beta 146.465418
_cell_angle_gamma 90.000000
_cell_volume 1683.684598
_symmetry_space_group_name_H-M "C 2/C"
_symmetry_group_IT_number 15
_symmetry_cell_setting 'monoclinic'
loop_
_space_group_symop_operation_xyz
x,y,z
-x,y,1/2-z
-x,-y,-z
x,-y,1/2+z
1/2+x,1/2+y,z
1/2-x,1/2+y,1/2-z
1/2-x,1/2-y,-z
1/2+x,1/2-y,1/2+z
loop_
_atom_site_type_symbol
_atom_site_label
_atom_site_fract_x
_atom_site_fract_y
_atom_site_fract_z
Si Si1 0.814177 0.875948 0.244459
Si Si2 0.363610 0.449199 0.545142
Si Si3 0.936533 0.774350 0.297974
Si Si4 0.675871 0.046456 0.655575
Si Si5 0.000000 0.520347 0.250000
Si Si6 0.876433 0.197083 0.271835
O O1 0.881765 0.887691 0.462482
O O2 0.851326 0.762794 0.222738
O O3 0.718843 0.864353 0.131667
O O4 0.822642 0.045715 0.210534
O O5 0.423409 0.581906 0.697821
O O6 0.266097 0.528051 0.357763
O O7 0.361924 0.307099 0.622439
O O8 0.961659 0.627707 0.274811
O O9 0.019744 0.815961 0.518664
O O10 0.589405 0.956105 0.463099
O O11 0.651751 0.162680 0.705550
#
# Coordination Sequence:
#
# PCOD9257725 Si02
#       6
#     8   8   8   8   4   8
#     4   9  19  30  49  81  99 140 170 216 253 306
#     4   9  17  30  49  78 107 132 169 211 264 308
#     4  10  19  31  54  80 104 134 170 220 259 305
#     4   9  20  32  51  78 100 143 169 213 255 313
#     4  10  20  36  52  74 108 138 176 210 260 310
#     4  10  18  32  52  79 112 135 166 212 269 305
#
# _framework density 26.133161000000001
#
# number of rings (size 3 to 8) (size 9 to 14) (size 15 to 20)
#    1.091    1.455    0.000    4.909    0.000    2.909 
#    0.000    0.000    0.000    4.364   18.909    0.000 
#    0.000    0.000    0.000    0.000    0.000    0.000 
#
# Total GULP energy -122807.095179 kJ/mol
# GULP energy per Si atom -5582.140690 kJ/mol
# Density = 2.607368 g / cm^3
# Si number density = 26.133161 Si / 1000 Ang^3
#
#
#
# Elastic Constant Matrix: (Units=GPa)
#
#
# Indices 1 2 3 4 5 6 
#
# 1 124.7740 5.8626 8.1090 0.0000 -17.1207 0.0000
# 2 5.8626 52.6162 -5.0161 0.0000 2.0955 0.0000
# 3 8.1090 -5.0161 158.1815 0.0000 4.9009 0.0000
# 4 0.0000 0.0000 0.0000 0.7249 0.0000 -3.2976
# 5 -17.1207 2.0955 4.9009 0.0000 43.7927 0.0000
# 6 0.0000 0.0000 0.0000 -3.2976 0.0000 21.6387
#
#
#
# Elastic Compliance Matrix: (Units=1/GPa)
#
#
# Indices 1 2 3 4 5 6 
#
# 1 0.008583 -0.001151 -0.000584 0.000000 0.003476 0.000000
# 2 -0.001151 0.019260 0.000715 0.000000 -0.001451 0.000000
# 3 -0.000584 0.000715 0.006405 0.000000 -0.000979 0.000000
# 4 0.000000 0.000000 0.000000 4.497229 0.000000 0.685356
# 5 0.003476 -0.001451 -0.000979 0.000000 0.024373 0.000000
# 6 0.000000 0.000000 0.000000 0.685356 0.000000 0.150659
#
#
# Mechanical properties :
#
#
# Convention : Reuss Voigt Hill
#
# Bulk Modulus (GPa) = 31.04827 39.27585 35.16206
# Shear Modulus (GPa) = 1.05948 35.00566 18.03257
#
# Velocity S-wave (km/s) = 0.63741 3.66390 2.62969
# Velocity P-wave (km/s) = 3.52822 5.74114 4.76492
#
# Compressibility (1/GPa) = 0.03220791
#
# Stress axis : x y z
#
# Youngs Moduli (GPa) = 116.50272 51.92189 156.13266
#
# Poissons Ratio (x) = 0.05974 0.09121
# Poissons Ratio (y) = 0.13404 -0.11159
# Poissons Ratio (z) = 0.06806 -0.03711
#
# Static dielectric constant tensor:
#      x y z
#    x 2.058820 0.000000 0.026320 
#    y 0.000000 2.064420 0.000000 
#    z 0.026320 0.000000 2.117470 
# 
# From -- ./inp_files/181619.got.cif
#   From: 2010.05.17/outbox.cif.g08.bks.cpg/sg15_91_cif.got.tgz:181619.got - 2010.06.03 18:47:42.
