data_PCOD9257422
_publ_section_title
;
Structure prediction by ZEFSAII (Michael W. Deem and Ramdas Pophale) SiO2 
 PCOD9257422
Probable space group: C 2/C
;
_chemical_formula_sum "Si O2"
_cell_formula_units_Z 48
_cell_length_a 13.934069
_cell_length_b 34.555544
_cell_length_c 14.370824
_cell_angle_alpha 90.000000
_cell_angle_beta 20.660104
_cell_angle_gamma 90.000000
_cell_volume 2441.376354
_symmetry_space_group_name_H-M "C 2/C"
_symmetry_group_IT_number 15
_symmetry_cell_setting 'monoclinic'
loop_
_space_group_symop_operation_xyz
x,y,z
-x,y,1/2-z
-x,-y,-z
x,-y,1/2+z
1/2+x,1/2+y,z
1/2-x,1/2+y,1/2-z
1/2-x,1/2-y,-z
1/2+x,1/2-y,1/2+z
loop_
_atom_site_type_symbol
_atom_site_label
_atom_site_fract_x
_atom_site_fract_y
_atom_site_fract_z
Si Si1 0.500000 0.655960 0.750000
Si Si2 0.000000 0.069476 0.250000
Si Si3 0.500000 0.790943 0.750000
Si Si4 0.794088 0.894498 0.748914
Si Si5 0.764909 0.855052 0.272047
Si Si6 0.500000 0.013398 0.750000
Si Si7 0.281752 0.021124 0.263361
Si Si8 0.476089 0.230151 0.480195
O O1 0.653068 0.634505 0.695510
O O2 0.731838 0.681823 0.488750
O O3 0.939482 0.095002 0.213882
O O4 0.740895 0.041591 0.497865
O O5 0.545223 0.767876 0.613523
O O6 0.764513 0.934326 0.718771
O O7 0.974862 0.863978 0.527349
O O8 0.487862 0.879385 0.037256
O O9 0.653838 0.811102 0.377051
O O10 0.617538 0.986871 0.724545
O O11 0.000000 0.000000 0.500000
O O12 0.500000 0.000000 0.000000
O O13 0.795638 0.238558 0.199136
#
# Coordination Sequence:
#
# PCOD9257422 Si02
#       8
#     4   4   4   8   8   4   8   8
#     4  10  20  37  55  80 131 174 198 246 304 375
#     4  12  24  42  71  90 115 161 210 273 312 351
#     4  10  18  31  53  84 117 166 216 254 286 351
#     4  12  24  42  64  92 124 160 206 265 318 364
#     4  11  24  39  59  90 130 165 209 254 310 374
#     4  12  22  42  67  96 125 161 212 253 306 371
#     4  12  23  41  64  95 125 165 203 253 309 373
#     4  11  20  34  56  86 122 168 212 255 304 366
#
# _framework density 19.661041000000001
#
# number of rings (size 3 to 8) (size 9 to 14) (size 15 to 20)
#    0.000    0.667    3.333    7.500    0.000    2.000 
#    0.000    0.000    0.000    0.000    0.000   11.667 
#    0.000    0.000    0.000    0.000    0.000    0.000 
#
# Total GULP energy -134079.063002 kJ/mol
# GULP energy per Si atom -5586.627625 kJ/mol
# Density = 1.961629 g / cm^3
# Si number density = 19.661041 Si / 1000 Ang^3
#
#
#
# Elastic Constant Matrix: (Units=GPa)
#
#
# Indices 1 2 3 4 5 6 
#
# 1 132.3028 22.3828 9.9575 0.0006 -2.0433 0.0005
# 2 22.3828 55.7588 18.0054 -0.0012 5.8928 -0.0018
# 3 9.9575 18.0054 126.4091 0.0037 -9.9777 0.0070
# 4 0.0006 -0.0012 0.0037 43.3726 -0.0031 10.1453
# 5 -2.0433 5.8928 -9.9777 -0.0031 30.5559 -0.0047
# 6 0.0005 -0.0018 0.0070 10.1453 -0.0047 28.1116
#
#
#
# Elastic Compliance Matrix: (Units=1/GPa)
#
#
# Indices 1 2 3 4 5 6 
#
# 1 0.008153 -0.003374 -0.000069 0.000000 0.001173 0.000000
# 2 -0.003374 0.020853 -0.003120 0.000000 -0.005266 0.000001
# 3 -0.000069 -0.003120 0.008630 0.000000 0.003415 -0.000002
# 4 0.000000 0.000000 0.000000 0.025182 0.000001 -0.009088
# 5 0.001173 -0.005266 0.003415 0.000001 0.034936 0.000004
# 6 0.000000 0.000001 -0.000002 -0.009088 0.000004 0.038852
#
#
# Mechanical properties :
#
#
# Convention : Reuss Voigt Hill
#
# Bulk Modulus (GPa) = 40.80133 46.12911 43.46522
# Shear Modulus (GPa) = 31.66511 38.01637 34.84074
#
# Velocity S-wave (km/s) = 4.01752 4.40203 4.21416
# Velocity P-wave (km/s) = 6.50523 7.02498 6.77009
#
# Compressibility (1/GPa) = 0.02450901
#
# Stress axis : x y z
#
# Youngs Moduli (GPa) = 122.66028 47.95479 115.87156
#
# Poissons Ratio (x) = 0.16182 0.00799
# Poissons Ratio (y) = 0.41390 0.36153
# Poissons Ratio (z) = 0.00846 0.14962
#
# Static dielectric constant tensor:
#      x y z
#    x 1.697080 0.000000 -0.013700 
#    y 0.000000 1.700620 0.000000 
#    z -0.013700 0.000000 1.706820 
# 
# From -- ./inp_files/157683.got.cif
#   From: 2010.05.17/outbox.cif.g08.bks.cpg/sg15_79_cif.got.tgz:157683.got - 2010.06.03 18:47:42.
