data_PCOD9257551
_publ_section_title
;
Structure prediction by ZEFSAII (Michael W. Deem and Ramdas Pophale) SiO2 
 PCOD9257551
Probable space group: C 2/C
;
_chemical_formula_sum "Si O2"
_cell_formula_units_Z 56
_cell_length_a 19.944058
_cell_length_b 11.848269
_cell_length_c 12.874934
_cell_angle_alpha 90.000000
_cell_angle_beta 138.526549
_cell_angle_gamma 90.000000
_cell_volume 2014.885878
_symmetry_space_group_name_H-M "C 2/C"
_symmetry_group_IT_number 15
_symmetry_cell_setting 'monoclinic'
loop_
_space_group_symop_operation_xyz
x,y,z
-x,y,1/2-z
-x,-y,-z
x,-y,1/2+z
1/2+x,1/2+y,z
1/2-x,1/2+y,1/2-z
1/2-x,1/2-y,-z
1/2+x,1/2-y,1/2+z
loop_
_atom_site_type_symbol
_atom_site_label
_atom_site_fract_x
_atom_site_fract_y
_atom_site_fract_z
Si Si1 0.301432 0.592813 0.897158
Si Si2 0.250000 0.250000 0.000000
Si Si3 0.509651 0.564857 0.881736
Si Si4 0.818460 0.557027 0.924172
Si Si5 0.169951 0.116117 0.327515
Si Si6 0.000000 0.461945 0.750000
Si Si7 0.550175 0.832161 0.200303
Si Si8 0.903265 0.729478 0.363564
O O1 0.198497 0.568685 0.717620
O O2 0.342282 0.698226 0.878978
O O3 0.380259 0.488290 0.972692
O O4 0.304844 0.613409 0.021804
O O5 0.243614 0.360315 0.069328
O O6 0.167785 0.306404 0.816129
O O7 0.500000 0.596420 0.750000
O O8 0.426088 0.467234 0.802831
O O9 0.481419 0.676565 0.909667
O O10 0.930938 0.594484 0.085643
O O11 0.767340 0.435190 0.884681
O O12 0.132494 0.241584 0.260894
O O13 0.924425 0.546311 0.722950
O O14 0.500000 0.778300 0.250000
O O15 0.468483 0.851046 0.014409
#
# Coordination Sequence:
#
# PCOD9257551 Si02
#       8
#     8   4   8   8   8   4   8   8
#     4  10  18  32  63  98 126 167 210 279 341 386
#     4  10  24  40  64  92 120 180 216 276 328 398
#     4  10  18  31  59 103 137 159 210 282 347 376
#     4  11  24  44  66  90 138 173 228 276 334 401
#     4  11  18  35  67 103 124 165 224 273 327 401
#     4  10  26  48  60  90 140 186 210 270 342 408
#     4  10  20  38  67  93 130 178 214 267 338 396
#     4  11  18  37  60  92 135 169 216 272 335 390
#
# _framework density 27.793137999999999
#
# number of rings (size 3 to 8) (size 9 to 14) (size 15 to 20)
#    0.429    1.143    5.714    1.714    0.000    1.714 
#    1.286    2.857    3.143    0.000    0.000    0.000 
#    0.000    0.000    0.000    0.000    0.000    0.000 
#
# Total GULP energy -156221.869072 kJ/mol
# GULP energy per Si atom -5579.352467 kJ/mol
# Density = 2.772988 g / cm^3
# Si number density = 27.793138 Si / 1000 Ang^3
#
#
#
# Elastic Constant Matrix: (Units=GPa)
#
#
# Indices 1 2 3 4 5 6 
#
# 1 81.8979 30.2236 28.0700 0.0000 -20.5519 0.0000
# 2 30.2236 82.6540 13.4908 0.0000 -1.6479 0.0000
# 3 28.0700 13.4908 239.8450 0.0000 -21.1898 0.0000
# 4 0.0000 0.0000 0.0000 29.0463 0.0000 -8.1472
# 5 -20.5519 -1.6479 -21.1898 0.0000 56.2501 0.0000
# 6 0.0000 0.0000 0.0000 -8.1472 0.0000 38.4276
#
#
#
# Elastic Compliance Matrix: (Units=1/GPa)
#
#
# Indices 1 2 3 4 5 6 
#
# 1 0.015951 -0.005550 -0.001090 0.000000 0.005255 0.000000
# 2 -0.005550 0.014142 -0.000298 0.000000 -0.001726 0.000000
# 3 -0.001090 -0.000298 0.004425 0.000000 0.001260 0.000000
# 4 0.000000 0.000000 0.000000 0.036605 0.000000 0.007761
# 5 0.005255 -0.001726 0.001260 0.000000 0.020122 0.000000
# 6 0.000000 0.000000 0.000000 0.007761 0.000000 0.027668
#
#
# Mechanical properties :
#
#
# Convention : Reuss Voigt Hill
#
# Bulk Modulus (GPa) = 48.44787 60.88510 54.66648
# Shear Modulus (GPa) = 35.79856 46.91897 41.35876
#
# Velocity S-wave (km/s) = 3.59282 4.11317 3.86177
# Velocity P-wave (km/s) = 5.88902 6.67170 6.29254
#
# Compressibility (1/GPa) = 0.02064074
#
# Stress axis : x y z
#
# Youngs Moduli (GPa) = 62.69280 70.70974 225.98561
#
# Poissons Ratio (x) = 0.39243 0.24641
# Poissons Ratio (y) = 0.34794 0.06744
# Poissons Ratio (z) = 0.06836 0.02110
#
# Static dielectric constant tensor:
#      x y z
#    x 2.216940 0.000000 0.090420 
#    y 0.000000 1.706740 0.000000 
#    z 0.090420 0.000000 2.199740 
# 
# From -- ./inp_files/178467.got.cif
#   From: 2010.05.17/outbox.cif.g08.bks.cpg/sg15_90_cif.got.tgz:178467.got - 2010.06.03 18:47:42.
