data_PCOD9257481
_publ_section_title
;
Structure prediction by ZEFSAII (Michael W. Deem and Ramdas Pophale) SiO2 
 PCOD9257481
Probable space group: C 2/C
;
_chemical_formula_sum "Si O2"
_cell_formula_units_Z 44
_cell_length_a 7.313026
_cell_length_b 24.454642
_cell_length_c 9.498782
_cell_angle_alpha 90.000000
_cell_angle_beta 105.769835
_cell_angle_gamma 90.000000
_cell_volume 1634.799352
_symmetry_space_group_name_H-M "C 2/C"
_symmetry_group_IT_number 15
_symmetry_cell_setting 'monoclinic'
loop_
_space_group_symop_operation_xyz
x,y,z
-x,y,1/2-z
-x,-y,-z
x,-y,1/2+z
1/2+x,1/2+y,z
1/2-x,1/2+y,1/2-z
1/2-x,1/2-y,-z
1/2+x,1/2-y,1/2+z
loop_
_atom_site_type_symbol
_atom_site_label
_atom_site_fract_x
_atom_site_fract_y
_atom_site_fract_z
Si Si1 0.240334 0.631608 0.855246
Si Si2 0.500000 0.718785 0.750000
Si Si3 0.317630 0.070196 0.934704
Si Si4 0.868770 0.293620 0.938399
Si Si5 0.271188 0.873437 0.691161
Si Si6 0.766958 0.950794 0.584480
O O1 0.348327 0.678435 0.789914
O O2 0.187655 0.587604 0.727443
O O3 0.090850 0.662907 0.928346
O O4 0.347906 0.593970 0.992964
O O5 0.467680 0.761584 0.612832
O O6 0.242094 0.118891 0.019789
O O7 0.197921 0.014447 0.928676
O O8 0.536307 0.056075 0.017997
O O9 0.750000 0.250000 0.000000
O O10 0.736603 0.322667 0.790003
O O11 0.500000 0.874474 0.750000
O O12 0.197160 0.928010 0.752056
#
# Coordination Sequence:
#
# PCOD9257481 Si02
#       6
#     8   4   8   8   8   8
#     4  10  20  34  58  82 109 143 190 226 268 337
#     4  10  20  38  56  74 108 158 190 222 278 318
#     4  10  18  31  55  85 111 131 175 229 272 326
#     4   9  18  34  55  69  99 149 187 218 270 324
#     4   9  16  28  51  71 102 136 166 212 269 322
#     4   9  18  32  53  82 113 140 164 215 290 336
#
# _framework density 26.914617
#
# number of rings (size 3 to 8) (size 9 to 14) (size 15 to 20)
#    0.000    2.545    0.909    1.636    0.000    2.909 
#    0.000    4.545    8.000    8.727    0.000    0.000 
#    0.000    0.000    0.000    0.000    0.000    0.000 
#
# Total GULP energy -122655.366945 kJ/mol
# GULP energy per Si atom -5575.243952 kJ/mol
# Density = 2.685336 g / cm^3
# Si number density = 26.914617 Si / 1000 Ang^3
#
#
#
# Elastic Constant Matrix: (Units=GPa)
#
#
# Indices 1 2 3 4 5 6 
#
# 1 66.5767 8.6519 17.0901 0.0000 -25.4210 0.0000
# 2 8.6519 158.7306 73.9197 0.0000 -25.3709 0.0000
# 3 17.0901 73.9197 222.2544 0.0000 -28.9946 0.0000
# 4 0.0000 0.0000 0.0000 51.0781 0.0000 -17.3219
# 5 -25.4210 -25.3709 -28.9946 0.0000 32.2716 0.0000
# 6 0.0000 0.0000 0.0000 -17.3219 0.0000 18.9034
#
#
#
# Elastic Compliance Matrix: (Units=1/GPa)
#
#
# Indices 1 2 3 4 5 6 
#
# 1 0.021924 0.001719 0.000195 0.000000 0.018796 0.000000
# 2 0.001719 0.008105 -0.002062 0.000000 0.005874 0.000000
# 3 0.000195 -0.002062 0.005640 0.000000 0.003599 0.000000
# 4 0.000000 0.000000 0.000000 0.028405 0.000000 0.026028
# 5 0.018796 0.005874 0.003599 0.000000 0.053644 0.000000
# 6 0.000000 0.000000 0.000000 0.026028 0.000000 0.076751
#
#
# Mechanical properties :
#
#
# Convention : Reuss Voigt Hill
#
# Bulk Modulus (GPa) = 28.27106 71.87613 50.07360
# Shear Modulus (GPa) = 24.20650 43.64396 33.92523
#
# Velocity S-wave (km/s) = 3.00222 4.03124 3.55417
# Velocity P-wave (km/s) = 4.74811 6.95925 5.95717
#
# Compressibility (1/GPa) = 0.03537186
#
# Stress axis : x y z
#
# Youngs Moduli (GPa) = 45.61258 123.37769 177.31644
#
# Poissons Ratio (x) = -0.21204 -0.03451
# Poissons Ratio (y) = -0.07839 0.36556
# Poissons Ratio (z) = -0.00888 0.25436
#
# Static dielectric constant tensor:
#      x y z
#    x 2.207330 0.000000 0.001860 
#    y 0.000000 2.171620 0.000000 
#    z 0.001860 0.000000 2.070280 
# 
# From -- ./inp_files/31856.got.cif
#   From: 2010.05.17/outbox.cif.g08.bks.cpg/sg15_16_cif.got.tgz:31856.got - 2010.06.03 18:47:42.
