data_PCOD9257526
_publ_section_title
;
Structure prediction by ZEFSAII (Michael W. Deem and Ramdas Pophale) SiO2 
 PCOD9257526
Probable space group: C 2/C
;
_chemical_formula_sum "Si O2"
_cell_formula_units_Z 48
_cell_length_a 13.778499
_cell_length_b 17.853483
_cell_length_c 24.475485
_cell_angle_alpha 90.000000
_cell_angle_beta 158.154912
_cell_angle_gamma 90.000000
_cell_volume 2240.340068
_symmetry_space_group_name_H-M "C 2/C"
_symmetry_group_IT_number 15
_symmetry_cell_setting 'monoclinic'
loop_
_space_group_symop_operation_xyz
x,y,z
-x,y,1/2-z
-x,-y,-z
x,-y,1/2+z
1/2+x,1/2+y,z
1/2-x,1/2+y,1/2-z
1/2-x,1/2-y,-z
1/2+x,1/2-y,1/2+z
loop_
_atom_site_type_symbol
_atom_site_label
_atom_site_fract_x
_atom_site_fract_y
_atom_site_fract_z
Si Si1 0.482643 0.366707 0.430293
Si Si2 0.539188 0.038114 0.333519
Si Si3 0.717106 0.123186 0.900514
Si Si4 0.793478 0.848254 0.781177
Si Si5 0.407169 0.193465 0.991639
Si Si6 0.151743 0.189427 0.748111
O O1 0.695426 0.419416 0.514032
O O2 0.396160 0.402208 0.442493
O O3 0.581362 0.283856 0.498563
O O4 0.287173 0.347459 0.278377
O O5 0.500000 0.059949 0.250000
O O6 0.310220 0.072681 0.250001
O O7 0.585034 0.949805 0.357404
O O8 0.500000 0.167525 0.750000
O O9 0.903487 0.159080 0.043348
O O10 0.669853 0.838167 0.656513
O O11 0.658839 0.779115 0.742730
O O12 0.352754 0.170727 0.901014
O O13 0.143004 0.171713 0.886293
#
# Coordination Sequence:
#
# PCOD9257526 Si02
#       6
#     8   8   8   8   8   8
#     4  11  18  33  52  82 116 138 177 230 285 323
#     4  11  19  31  53  82 106 142 176 230 285 315
#     4  11  25  34  51  81 113 153 184 218 276 338
#     4  11  19  35  55  82 115 137 182 235 273 323
#     4  10  18  31  57  88 108 136 179 238 286 314
#     4  10  18  31  58  89 109 135 178 238 286 318
#
# _framework density 21.425318999999998
#
# number of rings (size 3 to 8) (size 9 to 14) (size 15 to 20)
#    0.000    1.333    6.667    1.500    2.333    0.000 
#    0.000    3.333    0.000    1.000    8.667    0.000 
#    0.000    0.000    0.000    0.000    0.000    0.000 
#
# Total GULP energy -133713.161463 kJ/mol
# GULP energy per Si atom -5571.381728 kJ/mol
# Density = 2.137655 g / cm^3
# Si number density = 21.425319 Si / 1000 Ang^3
#
#
#
# Elastic Constant Matrix: (Units=GPa)
#
#
# Indices 1 2 3 4 5 6 
#
# 1 50.5865 23.3076 20.2085 -0.0005 -30.4636 -0.0003
# 2 23.3076 54.3532 20.2137 0.0081 -7.7712 -0.0082
# 3 20.2085 20.2137 142.1676 -0.0083 -42.0536 -0.0191
# 4 -0.0005 0.0081 -0.0083 18.8058 -0.0123 -9.0642
# 5 -30.4636 -7.7712 -42.0536 -0.0123 43.0900 0.0016
# 6 -0.0003 -0.0082 -0.0191 -9.0642 0.0016 5.5912
#
#
#
# Elastic Compliance Matrix: (Units=1/GPa)
#
#
# Indices 1 2 3 4 5 6 
#
# 1 0.047340 -0.017511 0.006645 0.000140 0.036795 0.000216
# 2 -0.017511 0.025942 -0.004889 -0.000048 -0.012472 -0.000054
# 3 0.006645 -0.004889 0.011125 0.000137 0.014674 0.000248
# 4 0.000140 -0.000048 0.000137 0.243220 0.000278 0.394294
# 5 0.036795 -0.012472 0.014674 0.000278 0.061292 0.000467
# 6 0.000216 -0.000054 0.000248 0.394294 0.000467 0.818057
#
#
# Mechanical properties :
#
#
# Convention : Reuss Voigt Hill
#
# Bulk Modulus (GPa) = 18.90435 41.61854 30.26144
# Shear Modulus (GPa) = 3.98052 25.72258 14.85155
#
# Velocity S-wave (km/s) = 1.36451 3.46868 2.63568
# Velocity P-wave (km/s) = 3.36527 5.95898 4.83914
#
# Compressibility (1/GPa) = 0.05289788
#
# Stress axis : x y z
#
# Youngs Moduli (GPa) = 21.12374 38.54769 89.88728
#
# Poissons Ratio (x) = 0.67499 -0.59728
# Poissons Ratio (y) = 0.36989 0.43944
# Poissons Ratio (z) = -0.14036 0.18845
#
# Static dielectric constant tensor:
#      x y z
#    x 1.797260 0.000000 0.023760 
#    y 0.000000 1.768800 -0.000020 
#    z 0.023760 -0.000020 1.945990 
# 
# From -- ./inp_files/296960.got.cif
#   From: 2010.05.17/outbox.cif.g08.bks.cpg/sg15_149_cif.got.tgz:296960.got - 2010.06.03 18:47:42.
