data_PCOD9257832
_publ_section_title
;
Structure prediction by ZEFSAII (Michael W. Deem and Ramdas Pophale) SiO2 
 PCOD9257832
Probable space group: C 2/C
;
_chemical_formula_sum "Si O2"
_cell_formula_units_Z 56
_cell_length_a 8.367729
_cell_length_b 20.825065
_cell_length_c 16.975493
_cell_angle_alpha 90.000000
_cell_angle_beta 122.035446
_cell_angle_gamma 90.000000
_cell_volume 2507.661132
_symmetry_space_group_name_H-M "C 2/C"
_symmetry_group_IT_number 15
_symmetry_cell_setting 'monoclinic'
loop_
_space_group_symop_operation_xyz
x,y,z
-x,y,1/2-z
-x,-y,-z
x,-y,1/2+z
1/2+x,1/2+y,z
1/2-x,1/2+y,1/2-z
1/2-x,1/2-y,-z
1/2+x,1/2-y,1/2+z
loop_
_atom_site_type_symbol
_atom_site_label
_atom_site_fract_x
_atom_site_fract_y
_atom_site_fract_z
Si Si1 0.642740 0.423321 0.592562
Si Si2 0.285685 0.422136 0.707139
Si Si3 0.687338 0.061765 0.622115
Si Si4 0.446420 0.174877 0.143813
Si Si5 0.230813 0.546046 0.961329
Si Si6 0.064838 0.179325 0.859394
Si Si7 0.193820 0.377909 0.296254
O O1 0.720709 0.439759 0.700684
O O2 0.747551 0.360550 0.591520
O O3 0.700958 0.474426 0.540312
O O4 0.417506 0.419018 0.540423
O O5 0.500000 0.397034 0.750000
O O6 0.265690 0.488473 0.650633
O O7 0.116064 0.369693 0.651105
O O8 0.465320 0.056073 0.545349
O O9 0.789948 0.119024 0.600581
O O10 0.710433 0.088241 0.716905
O O11 0.500000 0.178216 0.250000
O O12 0.403245 0.247507 0.107024
O O13 0.181835 0.570984 0.861668
O O14 0.000000 0.182306 0.750000
O O15 0.880958 0.160392 0.859498
O O16 0.000000 0.338387 0.250000
#
# Coordination Sequence:
#
# PCOD9257832 Si02
#       7
#     8   8   8   8   8   8   8
#     4  10  20  35  54  79 113 146 178 223 281 336
#     4  11  20  33  56  85 108 141 184 237 273 326
#     4  10  18  32  54  81 109 138 187 228 274 315
#     4   9  19  35  55  75 110 147 180 218 287 332
#     4  10  19  33  54  82 108 145 184 222 272 334
#     4   9  18  33  52  81 108 141 179 237 275 322
#     4   9  17  29  53  78 104 140 187 221 262 326
#
# _framework density 22.331565000000001
#
# number of rings (size 3 to 8) (size 9 to 14) (size 15 to 20)
#    0.000    2.286    2.857    1.286    0.000    0.571 
#    0.000    5.000    0.000    0.000    0.000    0.000 
#    0.000    0.000    0.000    0.000    0.000    0.000 
#
# Total GULP energy -156020.860120 kJ/mol
# GULP energy per Si atom -5572.173576 kJ/mol
# Density = 2.228074 g / cm^3
# Si number density = 22.331565 Si / 1000 Ang^3
#
#
#
# Elastic Constant Matrix: (Units=GPa)
#
#
# Indices 1 2 3 4 5 6 
#
# 1 116.0069 95.4630 37.0717 0.0000 51.0917 0.0000
# 2 95.4630 150.6141 41.3177 0.0000 32.5037 0.0000
# 3 37.0717 41.3177 87.3418 0.0000 23.5840 0.0000
# 4 0.0000 0.0000 0.0000 -27.9775 0.0000 -25.7009
# 5 51.0917 32.5037 23.5840 0.0000 47.2050 0.0000
# 6 0.0000 0.0000 0.0000 -25.7009 0.0000 -7.1645
#
#
#
# Elastic Compliance Matrix: (Units=1/GPa)
#
#
# Indices 1 2 3 4 5 6 
#
# 1 0.030895 -0.014545 0.000107 0.000000 -0.023477 0.000000
# 2 -0.014545 0.015187 -0.002818 0.000000 0.006693 0.000000
# 3 0.000107 -0.002818 0.014154 0.000000 -0.005246 0.000000
# 4 0.000000 0.000000 0.000000 0.015572 0.000000 -0.055860
# 5 -0.023477 0.006693 -0.005246 0.000000 0.044607 0.000000
# 6 0.000000 0.000000 0.000000 -0.055860 0.000000 0.060809
#
#
# Mechanical properties :
#
#
# Convention : Reuss Voigt Hill
#
# Bulk Modulus (GPa) = 38.87564 77.96305 58.41934
# Shear Modulus (GPa) = 22.29068 14.41994 18.35531
#
# Velocity S-wave (km/s) = 3.16281 2.54386 2.87007
# Velocity P-wave (km/s) = 5.54833 6.60422 6.09917
#
# Compressibility (1/GPa) = 0.02572305
#
# Stress axis : x y z
#
# Youngs Moduli (GPa) = 32.36811 65.84618 70.65252
#
# Poissons Ratio (x) = 0.95770 -0.00753
# Poissons Ratio (y) = 0.47078 0.19911
# Poissons Ratio (z) = -0.00345 0.18557
#
# Static dielectric constant tensor:
#      x y z
#    x 1.882380 0.000000 -0.003760 
#    y 0.000000 1.834220 0.000000 
#    z -0.003760 0.000000 1.888400 
# 
# From -- ./inp_files/233246.got.cif
#   From: 2010.05.17/outbox.cif.g08.bks.cpg/sg15_117_cif.got.tgz:233246.got - 2010.06.03 18:47:42.
