data_PCOD9257775
_publ_section_title
;
Structure prediction by ZEFSAII (Michael W. Deem and Ramdas Pophale) SiO2 
 PCOD9257775
Probable space group: C 2/C
;
_chemical_formula_sum "Si O2"
_cell_formula_units_Z 56
_cell_length_a 13.587697
_cell_length_b 25.908513
_cell_length_c 8.292400
_cell_angle_alpha 90.000000
_cell_angle_beta 105.133785
_cell_angle_gamma 90.000000
_cell_volume 2817.989516
_symmetry_space_group_name_H-M "C 2/C"
_symmetry_group_IT_number 15
_symmetry_cell_setting 'monoclinic'
loop_
_space_group_symop_operation_xyz
x,y,z
-x,y,1/2-z
-x,-y,-z
x,-y,1/2+z
1/2+x,1/2+y,z
1/2-x,1/2+y,1/2-z
1/2-x,1/2-y,-z
1/2+x,1/2-y,1/2+z
loop_
_atom_site_type_symbol
_atom_site_label
_atom_site_fract_x
_atom_site_fract_y
_atom_site_fract_z
Si Si1 0.684342 0.116579 0.135760
Si Si2 0.377832 0.564095 0.684632
Si Si3 0.348193 0.783981 0.082518
Si Si4 0.067362 0.731069 0.530470
Si Si5 0.637829 0.343804 0.550801
Si Si6 0.682577 0.539539 0.483533
Si Si7 0.000000 0.104013 0.250000
Si Si8 0.000000 0.648481 0.250000
O O1 0.766034 0.141478 0.295634
O O2 0.577446 0.114498 0.180778
O O3 0.671829 0.158815 0.990199
O O4 0.723069 0.063877 0.072657
O O5 0.500000 0.556056 0.750000
O O6 0.359875 0.620323 0.604397
O O7 0.325438 0.554927 0.833802
O O8 0.332685 0.521344 0.543888
O O9 0.373955 0.784637 0.281970
O O10 0.448670 0.762318 0.033372
O O11 0.250000 0.750000 0.000000
O O12 0.119352 0.784440 0.499481
O O13 0.063617 0.686927 0.394065
O O14 0.543284 0.361397 0.623926
O O15 0.587489 0.567511 0.356185
#
# Coordination Sequence:
#
# PCOD9257775 Si02
#       8
#     8   8   8   8   8   8   4   4
#     4  10  23  41  63  87 120 173 215 275 316 380
#     4  12  23  38  60  96 134 169 203 259 324 409
#     4  10  19  38  60  88 127 172 218 258 322 375
#     4  10  22  37  60  89 131 169 215 268 316 393
#     4  11  22  35  58  94 128 168 206 257 322 385
#     4  11  22  38  60  86 125 166 208 254 322 381
#     4  10  18  32  53  80 124 158 203 238 306 376
#     4  10  24  44  59  88 128 166 229 274 324 372
#
# _framework density 19.872323000000002
#
# number of rings (size 3 to 8) (size 9 to 14) (size 15 to 20)
#    0.000    1.429    3.571    3.000    3.000    1.714 
#    2.571    0.000    0.000    3.429    0.000    2.000 
#    0.000    0.000    0.000    0.000    0.000    0.000 
#
# Total GULP energy -156508.150390 kJ/mol
# GULP energy per Si atom -5589.576800 kJ/mol
# Density = 1.982709 g / cm^3
# Si number density = 19.872323 Si / 1000 Ang^3
#
#
#
# Elastic Constant Matrix: (Units=GPa)
#
#
# Indices 1 2 3 4 5 6 
#
# 1 53.7787 29.5202 30.8652 0.0000 -5.7313 0.0000
# 2 29.5202 59.9001 27.0962 0.0000 -3.2985 0.0000
# 3 30.8652 27.0962 99.8199 0.0000 -10.5300 0.0000
# 4 0.0000 0.0000 0.0000 28.7190 0.0000 7.3217
# 5 -5.7313 -3.2985 -10.5300 0.0000 28.4017 0.0000
# 6 0.0000 0.0000 0.0000 7.3217 0.0000 7.5381
#
#
#
# Elastic Compliance Matrix: (Units=1/GPa)
#
#
# Indices 1 2 3 4 5 6 
#
# 1 0.028141 -0.011303 -0.005383 0.000000 0.002370 0.000000
# 2 -0.011303 0.023574 -0.002972 0.000000 -0.000645 0.000000
# 3 -0.005383 -0.002972 0.012841 0.000000 0.003329 0.000000
# 4 0.000000 0.000000 0.000000 0.046280 0.000000 -0.044952
# 5 0.002370 -0.000645 0.003329 0.000000 0.036847 0.000000
# 6 0.000000 0.000000 0.000000 -0.044952 0.000000 0.176321
#
#
# Mechanical properties :
#
#
# Convention : Reuss Voigt Hill
#
# Bulk Modulus (GPa) = 39.62160 43.16244 41.39202
# Shear Modulus (GPa) = 13.45048 21.33291 17.39170
#
# Velocity S-wave (km/s) = 2.60445 3.27998 2.96154
# Velocity P-wave (km/s) = 5.38754 6.00928 5.70688
#
# Compressibility (1/GPa) = 0.02523876
#
# Stress axis : x y z
#
# Youngs Moduli (GPa) = 35.53476 42.41989 77.87792
#
# Poissons Ratio (x) = 0.47947 0.41924
# Poissons Ratio (y) = 0.40165 0.23147
# Poissons Ratio (z) = 0.19130 0.12608
#
# Static dielectric constant tensor:
#      x y z
#    x 1.710580 0.000000 0.001220 
#    y 0.000000 1.681230 0.000000 
#    z 0.001220 0.000000 1.678850 
# 
# From -- ./inp_files/42298.got.cif
#   From: 2010.05.17/outbox.cif.g08.bks.cpg/sg15_22_cif.got.tgz:42298.got - 2010.06.03 18:47:42.
