data_PCOD9257447
_publ_section_title
;
Structure prediction by ZEFSAII (Michael W. Deem and Ramdas Pophale) SiO2 
 PCOD9257447
Probable space group: C 2/C
;
_chemical_formula_sum "Si O2"
_cell_formula_units_Z 56
_cell_length_a 18.425117
_cell_length_b 13.081754
_cell_length_c 13.079081
_cell_angle_alpha 90.000000
_cell_angle_beta 90.000434
_cell_angle_gamma 90.000000
_cell_volume 3152.488143
_symmetry_space_group_name_H-M "C 2/C"
_symmetry_group_IT_number 15
_symmetry_cell_setting 'monoclinic'
loop_
_space_group_symop_operation_xyz
x,y,z
-x,y,1/2-z
-x,-y,-z
x,-y,1/2+z
1/2+x,1/2+y,z
1/2-x,1/2+y,1/2-z
1/2-x,1/2-y,-z
1/2+x,1/2-y,1/2+z
loop_
_atom_site_type_symbol
_atom_site_label
_atom_site_fract_x
_atom_site_fract_y
_atom_site_fract_z
Si Si1 0.080821 0.644788 0.705822
Si Si2 0.580822 0.855209 0.794175
Si Si3 0.709312 0.500001 0.250000
Si Si4 0.825838 0.186462 0.381781
Si Si5 0.343887 0.056760 0.618436
Si Si6 0.343890 0.943239 0.881567
Si Si7 0.174163 0.813542 0.381782
O O1 0.107086 0.736941 0.635576
O O2 0.129774 0.646579 0.808050
O O3 0.104545 0.540641 0.646875
O O4 0.000000 0.643658 0.750000
O O5 0.500000 0.856341 0.750000
O O6 0.607087 0.763056 0.864421
O O7 0.604550 0.959356 0.853121
O O8 0.629772 0.853418 0.691945
O O9 0.668697 0.596196 0.201250
O O10 0.763841 0.469686 0.157790
O O11 0.763845 0.530314 0.342208
O O12 0.668696 0.403809 0.298753
O O13 0.824155 0.150760 0.499999
O O14 0.750000 0.250003 0.366152
O O15 0.347573 0.077963 0.500002
#
# Coordination Sequence:
#
# PCOD9257447 Si02
#       7
#     8   8   8   8   8   8   8
#     4  10  21  34  52  82 114 146 187 228 271 337
#     4  10  21  34  52  82 114 146 187 228 271 337
#     4  10  20  34  54  86 110 136 188 240 266 326
#     4  11  20  37  62  81 107 149 188 225 276 332
#     4  10  18  31  54  82 115 144 174 229 292 335
#     4  10  18  31  54  82 115 144 174 229 292 335
#     4  11  20  37  62  81 107 149 188 225 276 332
#
# _framework density 17.763745
#
# number of rings (size 3 to 8) (size 9 to 14) (size 15 to 20)
#    0.000    2.000    5.714    3.429    0.000    3.429 
#    0.000    5.000    0.000    1.714    0.000    0.000 
#    0.000    0.000    0.000    0.000    0.000    0.000 
#
# Total GULP energy -155948.898203 kJ/mol
# GULP energy per Si atom -5569.603507 kJ/mol
# Density = 1.772331 g / cm^3
# Si number density = 17.763745 Si / 1000 Ang^3
#
#
#
# Elastic Constant Matrix: (Units=GPa)
#
#
# Indices 1 2 3 4 5 6 
#
# 1 25.7427 4.6046 -2.2768 0.0000 4.8918 0.0000
# 2 4.6046 60.3117 14.5421 0.0000 -1.9675 0.0000
# 3 -2.2768 14.5421 103.5498 0.0000 -20.3096 0.0000
# 4 0.0000 0.0000 0.0000 19.4137 0.0000 -1.8727
# 5 4.8918 -1.9675 -20.3096 0.0000 6.6581 0.0000
# 6 0.0000 0.0000 0.0000 -1.8727 0.0000 9.9684
#
#
#
# Elastic Compliance Matrix: (Units=1/GPa)
#
#
# Indices 1 2 3 4 5 6 
#
# 1 0.055252 -0.003292 -0.016120 0.000000 -0.090738 0.000000
# 2 -0.003292 0.017444 -0.002581 0.000000 -0.000299 0.000000
# 3 -0.016120 -0.002581 0.029470 0.000000 0.100974 0.000000
# 4 0.000000 0.000000 0.000000 0.052461 0.000000 0.009855
# 5 -0.090738 -0.000299 0.100974 0.000000 0.524778 0.000000
# 6 0.000000 0.000000 0.000000 0.009855 0.000000 0.102168
#
#
# Mechanical properties :
#
#
# Convention : Reuss Voigt Hill
#
# Bulk Modulus (GPa) = 17.18769 24.81600 21.00185
# Shear Modulus (GPa) = 5.91751 18.72367 12.32059
#
# Velocity S-wave (km/s) = 1.82715 3.25012 2.63645
# Velocity P-wave (km/s) = 3.76138 5.29950 4.59525
#
# Compressibility (1/GPa) = 0.05818117
#
# Stress axis : x y z
#
# Youngs Moduli (GPa) = 18.09904 57.32505 33.93334
#
# Poissons Ratio (x) = 0.18869 0.54699
# Poissons Ratio (y) = 0.05958 0.08758
# Poissons Ratio (z) = 0.29175 0.14795
#
# Static dielectric constant tensor:
#      x y z
#    x 1.633300 0.000000 0.004940 
#    y 0.000000 1.642970 0.000000 
#    z 0.004940 0.000000 1.608360 
# 
# From -- ./inp_files/161733.got.cif
#   From: 2010.05.17/outbox.cif.g08.bks.cpg/sg15_81_cif.got.tgz:161733.got - 2010.06.03 18:47:42.
