data_PCOD9257362
_publ_section_title
;
Structure prediction by ZEFSAII (Michael W. Deem and Ramdas Pophale) SiO2 
 PCOD9257362
Probable space group: C 2/C
;
_chemical_formula_sum "Si O2"
_cell_formula_units_Z 32
_cell_length_a 32.986922
_cell_length_b 5.008793
_cell_length_c 17.969047
_cell_angle_alpha 90.000000
_cell_angle_beta 156.618456
_cell_angle_gamma 90.000000
_cell_volume 1178.226437
_symmetry_space_group_name_H-M "C 2/C"
_symmetry_group_IT_number 15
_symmetry_cell_setting 'monoclinic'
loop_
_space_group_symop_operation_xyz
x,y,z
-x,y,1/2-z
-x,-y,-z
x,-y,1/2+z
1/2+x,1/2+y,z
1/2-x,1/2+y,1/2-z
1/2-x,1/2-y,-z
1/2+x,1/2-y,1/2+z
loop_
_atom_site_type_symbol
_atom_site_label
_atom_site_fract_x
_atom_site_fract_y
_atom_site_fract_z
Si Si1 0.398325 0.585876 0.475822
Si Si2 0.218789 0.147932 0.027734
Si Si3 0.941055 0.602069 0.472266
Si Si4 0.672503 0.164125 0.024178
O O1 0.466729 0.404793 0.536121
O O2 0.389125 0.375001 0.528249
O O3 0.281387 0.625001 0.250000
O O4 0.442598 0.884511 0.541928
O O5 0.322982 0.125001 0.250000
O O6 0.150670 0.365490 0.958072
O O7 0.180608 0.845208 0.963879
O O8 0.250000 0.250000 0.000000
O O9 0.000000 0.500000 0.500000
#
# Coordination Sequence:
#
# PCOD9257362 Si02
#       4
#     8   8   8   8
#     4  10  18  31  52  77 101 130 175 225 266 308
#     4  10  20  33  52  76 104 137 172 217 269 323
#     4  10  20  33  52  76 104 137 172 217 269 323
#     4  10  18  31  52  77 101 130 175 225 266 308
#
# _framework density 27.159465999999998
#
# number of rings (size 3 to 8) (size 9 to 14) (size 15 to 20)
#    0.000    2.000    0.000    7.500    0.000    0.000 
#    0.000    0.000    0.000    9.000    0.000    0.000 
#    0.000    0.000    0.000    0.000    0.000    0.000 
#
# Total GULP energy -89287.494082 kJ/mol
# GULP energy per Si atom -5580.468380 kJ/mol
# Density = 2.709765 g / cm^3
# Si number density = 27.159466 Si / 1000 Ang^3
#
#
#
# Elastic Constant Matrix: (Units=GPa)
#
#
# Indices 1 2 3 4 5 6 
#
# 1 133.6252 55.5178 -10.6929 0.0001 1.9660 0.0000
# 2 55.5178 241.9848 -2.5026 0.0001 0.9629 -0.0003
# 3 -10.6929 -2.5026 124.4787 0.0001 -1.8145 -0.0001
# 4 0.0001 0.0001 0.0001 -12.9820 0.0000 1.0498
# 5 1.9660 0.9629 -1.8145 0.0000 12.9868 0.0001
# 6 0.0000 -0.0003 -0.0001 1.0498 0.0001 50.2798
#
#
#
# Elastic Compliance Matrix: (Units=1/GPa)
#
#
# Indices 1 2 3 4 5 6 
#
# 1 0.008343 -0.001903 0.000663 0.000000 -0.001029 0.000000
# 2 -0.001903 0.004569 -0.000073 0.000000 -0.000061 0.000000
# 3 0.000663 -0.000073 0.008104 0.000000 0.001037 0.000000
# 4 0.000000 0.000000 0.000000 -0.076900 0.000000 0.001606
# 5 -0.001029 -0.000061 0.001037 0.000000 0.077306 0.000000
# 6 0.000000 0.000000 0.000000 0.001606 0.000000 0.019855
#
#
# Mechanical properties :
#
#
# Convention : Reuss Voigt Hill
#
# Bulk Modulus (GPa) = 54.37474 64.97036 59.67255
# Shear Modulus (GPa) = 99.93653 40.57469 70.25561
#
# Velocity S-wave (km/s) = 6.07257 3.86935 5.09156
# Velocity P-wave (km/s) = 8.32058 6.62844 7.52225
#
# Compressibility (1/GPa) = 0.01839089
#
# Stress axis : x y z
#
# Youngs Moduli (GPa) = 119.86806 218.88590 123.39358
#
# Poissons Ratio (x) = 0.41655 -0.08186
# Poissons Ratio (y) = 0.22811 0.00895
# Poissons Ratio (z) = -0.07952 0.01587
#
# Static dielectric constant tensor:
#      x y z
#    x 2.236350 0.000000 0.001060 
#    y 0.000000 2.092660 0.000000 
#    z 0.001060 0.000000 2.172670 
# 
# From -- ./inp_files/220727.got.cif
#   From: 2010.05.17/outbox.cif.g08.bks.cpg/sg15_111_cif.got.tgz:220727.got - 2010.06.03 18:47:42.
