data_PCOD9257198
_publ_section_title
;
Structure prediction by ZEFSAII (Michael W. Deem and Ramdas Pophale) SiO2 
 PCOD9257198
Probable space group: C 2/C
;
_chemical_formula_sum "Si O2"
_cell_formula_units_Z 44
_cell_length_a 18.996822
_cell_length_b 5.996725
_cell_length_c 19.856674
_cell_angle_alpha 90.000000
_cell_angle_beta 52.757912
_cell_angle_gamma 90.000000
_cell_volume 1800.782866
_symmetry_space_group_name_H-M "C 2/C"
_symmetry_group_IT_number 15
_symmetry_cell_setting 'monoclinic'
loop_
_space_group_symop_operation_xyz
x,y,z
-x,y,1/2-z
-x,-y,-z
x,-y,1/2+z
1/2+x,1/2+y,z
1/2-x,1/2+y,1/2-z
1/2-x,1/2-y,-z
1/2+x,1/2-y,1/2+z
loop_
_atom_site_type_symbol
_atom_site_label
_atom_site_fract_x
_atom_site_fract_y
_atom_site_fract_z
Si Si1 0.384017 0.674894 0.126789
Si Si2 0.448730 0.065773 0.165447
Si Si3 0.066565 0.939313 0.039376
Si Si4 0.720261 0.499760 0.542682
Si Si5 0.155828 0.039756 0.717704
Si Si6 0.000000 0.730084 0.750000
O O1 0.489421 0.616446 0.070974
O O2 0.329510 0.539813 0.214316
O O3 0.385936 0.925149 0.152351
O O4 0.366676 0.596367 0.061302
O O5 0.511285 0.216452 0.083761
O O6 0.386084 0.216192 0.249491
O O7 0.512993 0.931058 0.178415
O O8 0.119163 0.995675 0.075712
O O9 0.750000 0.750000 0.500000
O O10 0.729419 0.513560 0.618307
O O11 0.750000 0.250000 0.500000
O O12 0.078808 0.879412 0.733477
#
# Coordination Sequence:
#
# PCOD9257198 Si02
#       6
#     8   8   8   8   8   4
#     4   9  20  37  70  95 127 155 202 291 338 386
#     4  10  18  32  64  96 124 159 202 284 337 384
#     4  10  21  40  61 101 126 164 216 262 338 388
#     4  12  29  45  64  91 132 186 224 264 307 391
#     4  10  21  38  57  93 119 163 220 259 335 375
#     4  10  18  30  60  88 124 160 196 284 318 384
#
# _framework density 24.433817000000001
#
# number of rings (size 3 to 8) (size 9 to 14) (size 15 to 20)
#    0.000    1.818    0.000    5.455   10.182    0.000 
#    0.000    1.818    0.000    0.000    0.000    0.000 
#    0.000    0.000    0.000    0.000    0.000    0.000 
#
# Total GULP energy -122670.228535 kJ/mol
# GULP energy per Si atom -5575.919479 kJ/mol
# Density = 2.437820 g / cm^3
# Si number density = 24.433817 Si / 1000 Ang^3
#
#
#
# Elastic Constant Matrix: (Units=GPa)
#
#
# Indices 1 2 3 4 5 6 
#
# 1 35.1974 -1.9953 3.5999 -0.0040 4.2632 0.0106
# 2 -1.9953 124.1694 49.8790 -0.0273 -1.4177 0.0192
# 3 3.5999 49.8790 164.6684 0.0067 41.2202 0.0015
# 4 -0.0040 -0.0273 0.0067 3.7883 0.0027 1.4906
# 5 4.2632 -1.4177 41.2202 0.0027 35.3938 -0.0014
# 6 0.0106 0.0192 0.0015 1.4906 -0.0014 8.3147
#
#
#
# Elastic Compliance Matrix: (Units=1/GPa)
#
#
# Indices 1 2 3 4 5 6 
#
# 1 0.028857 0.000348 0.000184 0.000054 -0.003676 -0.000048
# 2 0.000348 0.009871 -0.004356 0.000090 0.005426 -0.000038
# 3 0.000184 -0.004356 0.010498 -0.000047 -0.012423 0.000014
# 4 0.000054 0.000090 -0.000047 0.284007 0.000028 -0.050914
# 5 -0.003676 0.005426 -0.012423 0.000028 0.043381 -0.000003
# 6 -0.000048 -0.000038 0.000014 -0.050914 -0.000003 0.129396
#
#
# Mechanical properties :
#
#
# Convention : Reuss Voigt Hill
#
# Bulk Modulus (GPa) = 24.05113 47.44469 35.74791
# Shear Modulus (GPa) = 9.47836 27.66946 18.57391
#
# Velocity S-wave (km/s) = 1.97170 3.36880 2.76011
# Velocity P-wave (km/s) = 3.87921 5.88146 4.98196
#
# Compressibility (1/GPa) = 0.04157808
#
# Stress axis : x y z
#
# Youngs Moduli (GPa) = 34.65316 101.30825 95.25713
#
# Poissons Ratio (x) = -0.03524 -0.01753
# Poissons Ratio (y) = -0.01205 0.41493
# Poissons Ratio (z) = -0.00638 0.44129
#
# Static dielectric constant tensor:
#      x y z
#    x 1.572030 -0.000070 0.049240 
#    y -0.000070 2.024130 0.000010 
#    z 0.049240 0.000010 2.022220 
# 
# From -- ./inp_files/212808.got.cif
#   From: 2010.05.17/outbox.cif.g08.bks.cpg/sg15_107_cif.got.tgz:212808.got - 2010.06.03 18:47:42.
