data_PCOD9257992
_publ_section_title
;
Structure prediction by ZEFSAII (Michael W. Deem and Ramdas Pophale) SiO2 
 PCOD9257992
Probable space group: C 2/C
;
_chemical_formula_sum "Si O2"
_cell_formula_units_Z 48
_cell_length_a 10.116686
_cell_length_b 13.897868
_cell_length_c 28.196757
_cell_angle_alpha 90.000000
_cell_angle_beta 152.170378
_cell_angle_gamma 90.000000
_cell_volume 1850.790707
_symmetry_space_group_name_H-M "C 2/C"
_symmetry_group_IT_number 15
_symmetry_cell_setting 'monoclinic'
loop_
_space_group_symop_operation_xyz
x,y,z
-x,y,1/2-z
-x,-y,-z
x,-y,1/2+z
1/2+x,1/2+y,z
1/2-x,1/2+y,1/2-z
1/2-x,1/2-y,-z
1/2+x,1/2-y,1/2+z
loop_
_atom_site_type_symbol
_atom_site_label
_atom_site_fract_x
_atom_site_fract_y
_atom_site_fract_z
Si Si1 0.185835 0.115872 0.524199
Si Si2 0.438752 0.696066 0.363048
Si Si3 0.391798 0.511679 0.135670
Si Si4 0.222054 0.274201 0.693545
Si Si5 0.943997 0.566674 0.780048
Si Si6 0.913781 0.567128 0.045667
O O1 0.421325 0.198620 0.587937
O O2 0.915766 0.156793 0.409769
O O3 0.262365 0.100701 0.603494
O O4 0.250346 0.010274 0.525092
O O5 0.638254 0.613752 0.402052
O O6 0.222364 0.704672 0.250438
O O7 0.725005 0.489333 0.244044
O O8 0.215495 0.520008 0.127127
O O9 0.244656 0.432919 0.055140
O O10 0.500000 0.305501 0.750000
O O11 0.267859 0.160255 0.707832
O O12 0.969997 0.331933 0.588779
O O13 0.000000 0.508283 0.750000
#
# Coordination Sequence:
#
# PCOD9257992 Si02
#       6
#     8   8   8   8   8   8
#     4   9  19  33  56  83 110 147 188 229 283 340
#     4   9  17  33  54  80 113 146 183 225 284 344
#     4  10  20  36  60  87 114 144 191 240 286 335
#     4  10  18  32  57  82 112 150 185 229 287 337
#     4  10  22  37  56  81 113 155 192 227 283 345
#     4  10  20  34  61  91 109 143 189 244 290 327
#
# _framework density 25.934863
#
# number of rings (size 3 to 8) (size 9 to 14) (size 15 to 20)
#    0.000    2.333    1.667    1.000    0.000    0.667 
#    0.000    3.333   11.000    0.000    0.000    0.000 
#    0.000    0.000    0.000    0.000    0.000    0.000 
#
# Total GULP energy -133615.923889 kJ/mol
# GULP energy per Si atom -5567.330162 kJ/mol
# Density = 2.587583 g / cm^3
# Si number density = 25.934863 Si / 1000 Ang^3
#
#
#
# Elastic Constant Matrix: (Units=GPa)
#
#
# Indices 1 2 3 4 5 6 
#
# 1 71.8543 18.1450 61.4521 0.0001 -13.8722 0.0001
# 2 18.1450 107.7369 35.9662 -0.0005 11.5246 0.0000
# 3 61.4521 35.9662 90.8854 -0.0007 -19.7605 0.0001
# 4 0.0001 -0.0005 -0.0007 34.1660 0.0000 -6.0125
# 5 -13.8722 11.5246 -19.7605 0.0000 36.9241 0.0001
# 6 0.0001 0.0000 0.0001 -6.0125 0.0001 14.7173
#
#
#
# Elastic Compliance Matrix: (Units=1/GPa)
#
#
# Indices 1 2 3 4 5 6 
#
# 1 0.033472 0.002395 -0.023775 -0.000001 -0.000896 0.000000
# 2 0.002395 0.012361 -0.008097 0.000000 -0.007291 0.000000
# 3 -0.023775 -0.008097 0.032694 0.000001 0.011091 0.000000
# 4 -0.000001 0.000000 0.000001 0.031536 0.000000 0.012884
# 5 -0.000896 -0.007291 0.011091 0.000000 0.034958 0.000000
# 6 0.000000 0.000000 0.000000 0.012884 0.000000 0.073211
#
#
# Mechanical properties :
#
#
# Convention : Reuss Voigt Hill
#
# Bulk Modulus (GPa) = 51.08547 55.73369 53.40958
# Shear Modulus (GPa) = 17.62370 27.48904 22.55637
#
# Velocity S-wave (km/s) = 2.60962 3.25918 2.95232
# Velocity P-wave (km/s) = 5.36848 5.97491 5.67979
#
# Compressibility (1/GPa) = 0.01957504
#
# Stress axis : x y z
#
# Youngs Moduli (GPa) = 29.87546 80.89760 30.58686
#
# Poissons Ratio (x) = -0.19377 0.72720
# Poissons Ratio (y) = -0.07156 0.24765
# Poissons Ratio (z) = 0.71028 0.65499
#
# Static dielectric constant tensor:
#      x y z
#    x 2.139230 0.000000 -0.008180 
#    y 0.000000 2.006150 0.000000 
#    z -0.008180 0.000000 2.127650 
# 
# From -- ./inp_files/143661.got.cif
#   From: 2010.05.17/outbox.cif.g08.bks.cpg/sg15_72_cif.got.tgz:143661.got - 2010.06.03 18:47:42.
