data_PCOD9257896
_publ_section_title
;
Structure prediction by ZEFSAII (Michael W. Deem and Ramdas Pophale) SiO2 
 PCOD9257896
Probable space group: C 2/C
;
_chemical_formula_sum "Si O2"
_cell_formula_units_Z 56
_cell_length_a 12.292916
_cell_length_b 12.871857
_cell_length_c 17.859793
_cell_angle_alpha 90.000000
_cell_angle_beta 115.948494
_cell_angle_gamma 90.000000
_cell_volume 2541.106846
_symmetry_space_group_name_H-M "C 2/C"
_symmetry_group_IT_number 15
_symmetry_cell_setting 'monoclinic'
loop_
_space_group_symop_operation_xyz
x,y,z
-x,y,1/2-z
-x,-y,-z
x,-y,1/2+z
1/2+x,1/2+y,z
1/2-x,1/2+y,1/2-z
1/2-x,1/2-y,-z
1/2+x,1/2-y,1/2+z
loop_
_atom_site_type_symbol
_atom_site_label
_atom_site_fract_x
_atom_site_fract_y
_atom_site_fract_z
Si Si1 0.518606 0.836086 0.022437
Si Si2 0.240453 0.036212 0.874945
Si Si3 0.122174 0.576725 0.780031
Si Si4 0.036838 0.116760 0.530773
Si Si5 0.781242 0.423573 0.034402
Si Si6 0.862896 0.838599 0.280925
Si Si7 0.609079 0.889783 0.667355
O O1 0.634775 0.897068 0.087093
O O2 0.397704 0.866344 0.033054
O O3 0.542529 0.712894 0.022835
O O4 0.486460 0.874104 0.928430
O O5 0.140949 0.101211 0.799190
O O6 0.269009 0.929250 0.838560
O O7 0.227644 0.002907 0.957132
O O8 0.170776 0.532209 0.872819
O O9 0.229438 0.639263 0.774168
O O10 0.085349 0.483117 0.715525
O O11 0.000000 0.643090 0.750000
O O12 0.166363 0.141311 0.529614
O O13 0.052767 0.123151 0.625313
O O14 0.000000 0.000000 0.500000
O O15 0.880055 0.715812 0.283432
#
# Coordination Sequence:
#
# PCOD9257896 Si02
#       7
#     8   8   8   8   8   8   8
#     4  10  19  35  60  83 107 142 184 228 276 324
#     4  10  19  34  58  84 107 139 184 230 273 324
#     4  10  18  32  55  83 108 138 183 231 270 320
#     4  10  22  39  57  79 113 150 182 221 273 328
#     4  10  19  34  56  84 111 142 183 231 273 319
#     4   9  20  36  54  76 110 146 177 219 277 326
#     4   9  18  34  52  75 110 143 172 218 272 321
#
# _framework density 22.037641000000001
#
# number of rings (size 3 to 8) (size 9 to 14) (size 15 to 20)
#    0.000    2.286    0.000    4.714    0.000    4.571 
#    0.000    6.429    0.000    1.714    0.000    0.000 
#    0.000    0.000    0.000    0.000    0.000    0.000 
#
# Total GULP energy -156138.620403 kJ/mol
# GULP energy per Si atom -5576.379300 kJ/mol
# Density = 2.198748 g / cm^3
# Si number density = 22.037641 Si / 1000 Ang^3
#
#
#
# Elastic Constant Matrix: (Units=GPa)
#
#
# Indices 1 2 3 4 5 6 
#
# 1 50.3313 -5.2434 11.6494 0.0000 -11.5105 0.0000
# 2 -5.2434 90.6934 26.3679 0.0000 9.8093 0.0000
# 3 11.6494 26.3679 110.1866 0.0000 -16.7040 0.0000
# 4 0.0000 0.0000 0.0000 29.9939 0.0000 5.7779
# 5 -11.5105 9.8093 -16.7040 0.0000 26.5460 0.0000
# 6 0.0000 0.0000 0.0000 5.7779 0.0000 1.5137
#
#
#
# Elastic Compliance Matrix: (Units=1/GPa)
#
#
# Indices 1 2 3 4 5 6 
#
# 1 0.022189 0.000705 -0.001211 0.000000 0.008599 0.000000
# 2 0.000705 0.013104 -0.004309 0.000000 -0.007248 0.000000
# 3 -0.001211 -0.004309 0.011493 0.000000 0.008299 0.000000
# 4 0.000000 0.000000 0.000000 0.125952 0.000000 -0.480765
# 5 0.008599 -0.007248 0.008299 0.000000 0.049299 0.000000
# 6 0.000000 0.000000 0.000000 -0.480765 0.000000 2.495733
#
#
# Mechanical properties :
#
#
# Convention : Reuss Voigt Hill
#
# Bulk Modulus (GPa) = 26.91448 35.19544 31.05496
# Shear Modulus (GPa) = 1.82496 26.17321 13.99908
#
# Velocity S-wave (km/s) = 0.91099 3.44998 2.52312
# Velocity P-wave (km/s) = 3.65322 5.64580 4.75506
#
# Compressibility (1/GPa) = 0.03715472
#
# Stress axis : x y z
#
# Youngs Moduli (GPa) = 45.06829 76.31474 87.01093
#
# Poissons Ratio (x) = -0.05379 0.10537
# Poissons Ratio (y) = -0.03177 0.37493
# Poissons Ratio (z) = 0.05458 0.32884
#
# Static dielectric constant tensor:
#      x y z
#    x 1.927930 0.000000 -0.031340 
#    y 0.000000 1.782980 0.000000 
#    z -0.031340 0.000000 1.808130 
# 
# From -- ./inp_files/204526.got.cif
#   From: 2010.05.17/outbox.cif.g08.bks.cpg/sg15_103_cif.got.tgz:204526.got - 2010.06.03 18:47:42.
