data_PCOD9257480
_publ_section_title
;
Structure prediction by ZEFSAII (Michael W. Deem and Ramdas Pophale) SiO2 
 PCOD9257480
Probable space group: C 2/C
;
_chemical_formula_sum "Si O2"
_cell_formula_units_Z 56
_cell_length_a 17.456406
_cell_length_b 18.837176
_cell_length_c 10.040349
_cell_angle_alpha 90.000000
_cell_angle_beta 125.730788
_cell_angle_gamma 90.000000
_cell_volume 2680.108350
_symmetry_space_group_name_H-M "C 2/C"
_symmetry_group_IT_number 15
_symmetry_cell_setting 'monoclinic'
loop_
_space_group_symop_operation_xyz
x,y,z
-x,y,1/2-z
-x,-y,-z
x,-y,1/2+z
1/2+x,1/2+y,z
1/2-x,1/2+y,1/2-z
1/2-x,1/2-y,-z
1/2+x,1/2-y,1/2+z
loop_
_atom_site_type_symbol
_atom_site_label
_atom_site_fract_x
_atom_site_fract_y
_atom_site_fract_z
Si Si1 0.225935 0.071847 0.754082
Si Si2 0.133161 0.797701 0.504863
Si Si3 0.662643 0.730582 0.734012
Si Si4 0.923683 0.436238 0.773836
Si Si5 0.568893 0.087729 0.645280
Si Si6 0.505070 0.759659 0.110854
Si Si7 0.210216 0.053713 0.035980
O O1 0.176841 0.148594 0.703416
O O2 0.338970 0.084487 0.855590
O O3 0.199845 0.016156 0.613505
O O4 0.203528 0.037607 0.873454
O O5 0.234210 0.764498 0.647988
O O6 0.117446 0.769895 0.337224
O O7 0.061336 0.777353 0.547845
O O8 0.140932 0.882621 0.502628
O O9 0.597828 0.768714 0.559360
O O10 0.916481 0.521411 0.742185
O O11 0.816140 0.412913 0.661016
O O12 0.000000 0.404302 0.750000
O O13 0.973313 0.426255 0.965972
O O14 0.558595 0.165907 0.691432
O O15 0.500000 0.722819 0.250000
#
# Coordination Sequence:
#
# PCOD9257480 Si02
#       7
#     8   8   8   8   8   8   8
#     4  10  20  39  60  88 122 160 202 250 306 363
#     4  10  22  43  63  91 121 165 219 253 303 371
#     4  10  22  42  66  88 122 169 211 258 304 367
#     4  10  18  31  55  84 120 162 198 234 298 375
#     4  10  20  34  51  84 127 158 193 242 304 373
#     4  12  25  40  61  91 126 161 205 262 319 363
#     4  10  21  36  60  89 122 161 202 255 307 361
#
# _framework density 20.894677999999999
#
# number of rings (size 3 to 8) (size 9 to 14) (size 15 to 20)
#    0.000    1.714    2.857    1.714    0.000    2.857 
#    5.143    0.714    0.000    0.000    0.000    0.000 
#    0.000    0.000    0.000    0.000    0.000    0.000 
#
# Total GULP energy -156277.217127 kJ/mol
# GULP energy per Si atom -5581.329183 kJ/mol
# Density = 2.084712 g / cm^3
# Si number density = 20.894678 Si / 1000 Ang^3
#
#
#
# Elastic Constant Matrix: (Units=GPa)
#
#
# Indices 1 2 3 4 5 6 
#
# 1 66.9040 16.9732 18.9884 0.0000 -25.0230 0.0000
# 2 16.9732 74.4979 18.0803 0.0000 -17.0351 0.0000
# 3 18.9884 18.0803 77.4474 0.0000 -13.8488 0.0000
# 4 0.0000 0.0000 0.0000 19.4702 0.0000 1.7893
# 5 -25.0230 -17.0351 -13.8488 0.0000 27.1598 0.0000
# 6 0.0000 0.0000 0.0000 1.7893 0.0000 21.2242
#
#
#
# Elastic Compliance Matrix: (Units=1/GPa)
#
#
# Indices 1 2 3 4 5 6 
#
# 1 0.023097 -0.000165 -0.002022 0.000000 0.020145 0.000000
# 2 -0.000165 0.015986 -0.002119 0.000000 0.008794 0.000000
# 3 -0.002022 -0.002119 0.014669 0.000000 0.004288 0.000000
# 4 0.000000 0.000000 0.000000 0.051761 0.000000 -0.004364
# 5 0.020145 0.008794 0.004288 0.000000 0.063082 0.000000
# 6 0.000000 0.000000 0.000000 -0.004364 0.000000 0.047484
#
#
# Mechanical properties :
#
#
# Convention : Reuss Voigt Hill
#
# Bulk Modulus (GPa) = 22.15321 36.32589 29.23955
# Shear Modulus (GPa) = 20.85607 24.55801 22.70704
#
# Velocity S-wave (km/s) = 3.16278 3.43202 3.30015
# Velocity P-wave (km/s) = 4.89519 5.75569 5.34279
#
# Compressibility (1/GPa) = 0.04514019
#
# Stress axis : x y z
#
# Youngs Moduli (GPa) = 43.29527 62.55481 68.17027
#
# Poissons Ratio (x) = 0.01032 0.13784
# Poissons Ratio (y) = 0.00715 0.14445
# Poissons Ratio (z) = 0.08755 0.13255
#
# Static dielectric constant tensor:
#      x y z
#    x 1.781790 0.000000 -0.017870 
#    y 0.000000 1.790610 0.000000 
#    z -0.017870 0.000000 1.752040 
# 
# From -- ./inp_files/50322.got.cif
#   From: 2010.05.17/outbox.cif.g08.bks.cpg/sg15_26_cif.got.tgz:50322.got - 2010.06.03 18:47:42.
