data_PCOD9257963
_publ_section_title
;
Structure prediction by ZEFSAII (Michael W. Deem and Ramdas Pophale) SiO2 
 PCOD9257963
Probable space group: C 2/C
;
_chemical_formula_sum "Si O2"
_cell_formula_units_Z 48
_cell_length_a 18.330200
_cell_length_b 6.847645
_cell_length_c 22.874503
_cell_angle_alpha 90.000000
_cell_angle_beta 141.590790
_cell_angle_gamma 90.000000
_cell_volume 1783.787473
_symmetry_space_group_name_H-M "C 2/C"
_symmetry_group_IT_number 15
_symmetry_cell_setting 'monoclinic'
loop_
_space_group_symop_operation_xyz
x,y,z
-x,y,1/2-z
-x,-y,-z
x,-y,1/2+z
1/2+x,1/2+y,z
1/2-x,1/2+y,1/2-z
1/2-x,1/2-y,-z
1/2+x,1/2-y,1/2+z
loop_
_atom_site_type_symbol
_atom_site_label
_atom_site_fract_x
_atom_site_fract_y
_atom_site_fract_z
Si Si1 0.785923 0.111237 0.209173
Si Si2 0.688379 0.468703 0.013217
Si Si3 0.781407 0.502312 0.946952
Si Si4 0.550623 0.405901 0.591235
Si Si5 0.953636 0.561432 0.393140
Si Si6 0.389882 0.008091 0.225735
O O1 0.793158 0.968604 0.158382
O O2 0.828829 0.041392 0.299669
O O3 0.862638 0.292770 0.235470
O O4 0.646989 0.156249 0.129894
O O5 0.706184 0.234900 0.036133
O O6 0.772040 0.559335 0.115653
O O7 0.728726 0.547772 0.976410
O O8 0.549453 0.480800 0.927920
O O9 0.907972 0.597529 0.015848
O O10 0.500000 0.500000 0.500000
O O11 0.555019 0.169624 0.594236
O O12 0.922530 0.611723 0.306584
O O13 0.500000 0.005438 0.250000
#
# Coordination Sequence:
#
# PCOD9257963 Si02
#       6
#     8   8   8   8   8   8
#     4  10  21  30  51  82 110 140 179 226 283 335
#     4   9  17  30  52  81 108 137 178 235 274 317
#     4   9  17  29  50  77 109 133 176 228 283 314
#     4  10  21  35  53  77 109 148 183 224 281 338
#     4  10  19  34  52  81 111 143 180 230 275 329
#     4  10  18  32  56  85 113 146 187 233 282 325
#
# _framework density 26.909037000000001
#
# number of rings (size 3 to 8) (size 9 to 14) (size 15 to 20)
#    0.000    2.333    1.667    1.500    7.000    1.333 
#    0.000    0.000    0.000    1.000    8.667    0.000 
#    0.000    0.000    0.000    0.000    0.000    0.000 
#
# Total GULP energy -134144.981624 kJ/mol
# GULP energy per Si atom -5589.374234 kJ/mol
# Density = 2.684779 g / cm^3
# Si number density = 26.909037 Si / 1000 Ang^3
#
#
#
# Elastic Constant Matrix: (Units=GPa)
#
#
# Indices 1 2 3 4 5 6 
#
# 1 118.5040 21.3303 51.0770 0.0000 -27.8550 -0.0001
# 2 21.3303 99.6809 -14.0989 0.0000 7.0538 -0.0014
# 3 51.0770 -14.0989 173.5239 0.0000 -17.4756 0.0004
# 4 0.0000 0.0000 0.0000 32.4183 0.0000 -1.8391
# 5 -27.8550 7.0538 -17.4756 0.0000 48.7804 -0.0002
# 6 -0.0001 -0.0014 0.0004 -1.8391 -0.0002 11.2711
#
#
#
# Elastic Compliance Matrix: (Units=1/GPa)
#
#
# Indices 1 2 3 4 5 6 
#
# 1 0.011852 -0.003416 -0.003148 0.000000 0.006134 0.000000
# 2 -0.003416 0.011203 0.001614 0.000000 -0.002992 0.000001
# 3 -0.003148 0.001614 0.006864 0.000000 0.000428 0.000000
# 4 0.000000 0.000000 0.000000 0.031135 0.000000 0.005080
# 5 0.006134 -0.002992 0.000428 0.000000 0.024589 0.000000
# 6 0.000000 0.000001 0.000000 0.005080 0.000000 0.089551
#
#
# Mechanical properties :
#
#
# Convention : Reuss Voigt Hill
#
# Bulk Modulus (GPa) = 49.95131 56.48063 53.21597
# Shear Modulus (GPa) = 26.07340 40.72066 33.39703
#
# Velocity S-wave (km/s) = 3.11617 3.89430 3.52676
# Velocity P-wave (km/s) = 5.61700 6.42307 6.03351
#
# Compressibility (1/GPa) = 0.02001950
#
# Stress axis : x y z
#
# Youngs Moduli (GPa) = 84.37273 89.26224 145.69003
#
# Poissons Ratio (x) = 0.30488 0.45870
# Poissons Ratio (y) = 0.28818 -0.23519
# Poissons Ratio (z) = 0.26565 -0.14410
#
# Static dielectric constant tensor:
#      x y z
#    x 2.047290 0.000000 -0.055220 
#    y 0.000000 2.285430 0.000000 
#    z -0.055220 0.000000 2.085880 
# 
# From -- ./inp_files/243475.got.cif
#   From: 2010.05.17/outbox.cif.g08.bks.cpg/sg15_122_cif.got.tgz:243475.got - 2010.06.03 18:47:42.
