data_PCOD9257019
_publ_section_title
;
Structure prediction by ZEFSAII (Michael W. Deem and Ramdas Pophale) SiO2 
 PCOD9257019
Probable space group: C 2/C
;
_chemical_formula_sum "Si O2"
_cell_formula_units_Z 52
_cell_length_a 13.261448
_cell_length_b 21.837292
_cell_length_c 13.579380
_cell_angle_alpha 90.000000
_cell_angle_beta 48.929008
_cell_angle_gamma 90.000000
_cell_volume 2964.702878
_symmetry_space_group_name_H-M "C 2/C"
_symmetry_group_IT_number 15
_symmetry_cell_setting 'monoclinic'
loop_
_space_group_symop_operation_xyz
x,y,z
-x,y,1/2-z
-x,-y,-z
x,-y,1/2+z
1/2+x,1/2+y,z
1/2-x,1/2+y,1/2-z
1/2-x,1/2-y,-z
1/2+x,1/2-y,1/2+z
loop_
_atom_site_type_symbol
_atom_site_label
_atom_site_fract_x
_atom_site_fract_y
_atom_site_fract_z
Si Si1 0.586129 0.583823 0.933673
Si Si2 0.860905 0.018016 0.799000
Si Si3 0.658015 0.685037 0.169080
Si Si4 0.000000 0.423062 0.250000
Si Si5 0.718862 0.013917 0.080544
Si Si6 0.712662 0.413078 0.789553
Si Si7 0.217072 0.327017 0.123380
O O1 0.601307 0.565065 0.810707
O O2 0.673827 0.534434 0.940244
O O3 0.648224 0.650453 0.911113
O O4 0.435730 0.581583 0.068075
O O5 0.000000 0.990822 0.750000
O O6 0.777880 0.964585 0.800640
O O7 0.781836 0.042846 0.943081
O O8 0.500000 0.670316 0.250000
O O9 0.713347 0.650160 0.229591
O O10 0.672243 0.758116 0.171245
O O11 0.746781 0.667225 0.016247
O O12 0.905639 0.470724 0.367918
O O13 0.895532 0.375446 0.269564
O O14 0.693168 0.064644 0.181402
#
# Coordination Sequence:
#
# PCOD9257019 Si02
#       7
#     8   8   8   4   8   8   8
#     4  10  18  30  51  77 103 127 172 221 253 298
#     4  11  17  29  50  79 102 127 167 213 262 297
#     4  11  20  33  56  78 103 136 171 214 262 307
#     4  10  20  36  50  70 110 146 164 202 260 324
#     4  10  20  32  49  74 109 136 167 209 258 315
#     4  11  18  30  51  82 102 130 172 215 257 303
#     4  10  21  35  50  77 106 135 171 212 262 307
#
# _framework density 17.5397
#
# number of rings (size 3 to 8) (size 9 to 14) (size 15 to 20)
#    0.000    1.538    5.385    3.231    0.000    0.000 
#    0.000   12.308    0.000    0.923    2.000    0.000 
#    0.000    0.000    0.000    0.000    0.000    0.000 
#
# Total GULP energy -144756.072055 kJ/mol
# GULP energy per Si atom -5567.541233 kJ/mol
# Density = 1.749978 g / cm^3
# Si number density = 17.539700 Si / 1000 Ang^3
#
#
#
# Elastic Constant Matrix: (Units=GPa)
#
#
# Indices 1 2 3 4 5 6 
#
# 1 28.7481 22.8557 26.9432 0.0000 8.3153 0.0000
# 2 22.8557 76.1635 38.8754 0.0000 8.8406 0.0000
# 3 26.9432 38.8754 82.6840 0.0000 24.6438 0.0000
# 4 0.0000 0.0000 0.0000 17.5980 0.0000 -1.6368
# 5 8.3153 8.8406 24.6438 0.0000 27.6400 0.0000
# 6 0.0000 0.0000 0.0000 -1.6368 0.0000 24.9137
#
#
#
# Elastic Compliance Matrix: (Units=1/GPa)
#
#
# Indices 1 2 3 4 5 6 
#
# 1 0.055108 -0.009799 -0.012725 0.000000 -0.002100 0.000000
# 2 -0.009799 0.019129 -0.006614 0.000000 0.002726 0.000000
# 3 -0.012725 -0.006614 0.023941 0.000000 -0.015402 0.000000
# 4 0.000000 0.000000 0.000000 0.057174 0.000000 0.003756
# 5 -0.002100 0.002726 -0.015402 0.000000 0.049672 0.000000
# 6 0.000000 0.000000 0.000000 0.003756 0.000000 0.040385
#
#
# Mechanical properties :
#
#
# Convention : Reuss Voigt Hill
#
# Bulk Modulus (GPa) = 25.05974 40.54936 32.80455
# Shear Modulus (GPa) = 15.77363 20.62508 18.19935
#
# Velocity S-wave (km/s) = 3.00210 3.43287 3.22469
# Velocity P-wave (km/s) = 5.13179 6.23551 5.71038
#
# Compressibility (1/GPa) = 0.03990465
#
# Stress axis : x y z
#
# Youngs Moduli (GPa) = 18.14610 52.27564 41.76993
#
# Poissons Ratio (x) = 0.51223 0.53151
# Poissons Ratio (y) = 0.17781 0.27625
# Poissons Ratio (z) = 0.23090 0.34573
#
# Static dielectric constant tensor:
#      x y z
#    x 1.641600 0.000000 -0.024860 
#    y 0.000000 1.613410 0.000000 
#    z -0.024860 0.000000 1.623310 
# 
# From -- ./inp_files/100620.got.cif
#   From: 2010.05.17/outbox.cif.g08.bks.cpg/sg15_51_cif.got.tgz:100620.got - 2010.06.03 18:47:42.
