data_PCOD9257806
_publ_section_title
;
Structure prediction by ZEFSAII (Michael W. Deem and Ramdas Pophale) SiO2 
 PCOD9257806
Probable space group: C 2/C
;
_chemical_formula_sum "Si O2"
_cell_formula_units_Z 52
_cell_length_a 13.894548
_cell_length_b 15.924984
_cell_length_c 15.328957
_cell_angle_alpha 90.000000
_cell_angle_beta 52.440352
_cell_angle_gamma 90.000000
_cell_volume 2688.780734
_symmetry_space_group_name_H-M "C 2/C"
_symmetry_group_IT_number 15
_symmetry_cell_setting 'monoclinic'
loop_
_space_group_symop_operation_xyz
x,y,z
-x,y,1/2-z
-x,-y,-z
x,-y,1/2+z
1/2+x,1/2+y,z
1/2-x,1/2+y,1/2-z
1/2-x,1/2-y,-z
1/2+x,1/2-y,1/2+z
loop_
_atom_site_type_symbol
_atom_site_label
_atom_site_fract_x
_atom_site_fract_y
_atom_site_fract_z
Si Si1 0.500000 0.761632 0.750000
Si Si2 0.847014 0.822805 0.930395
Si Si3 0.766630 0.824293 0.294157
Si Si4 0.845625 0.011624 0.934342
Si Si5 0.823356 0.663391 0.474941
Si Si6 0.374913 0.485205 0.205821
Si Si7 0.377297 0.327205 0.705113
O O1 0.605933 0.703336 0.731298
O O2 0.554101 0.820155 0.644378
O O3 0.808139 0.916966 0.979345
O O4 0.867515 0.828257 0.815077
O O5 0.981731 0.808290 0.895581
O O6 0.750000 0.750000 0.000000
O O7 0.672124 0.846552 0.423536
O O8 0.796257 0.905702 0.219906
O O9 0.712251 0.743778 0.278099
O O10 0.856665 0.014808 0.821909
O O11 0.982517 0.027652 0.891231
O O12 0.754487 0.084081 0.014101
O O13 0.750000 0.750000 0.500000
O O14 0.344629 0.578894 0.191278
#
# Coordination Sequence:
#
# PCOD9257806 Si02
#       7
#     4   8   8   8   8   8   8
#     4  10  20  32  50  76 108 134 160 208 260 304
#     4   9  18  35  54  73 100 134 172 215 256 292
#     4  10  18  32  54  77 103 135 170 207 253 304
#     4   8  14  29  53  73  93 131 175 208 245 299
#     4   9  17  30  49  74 101 130 164 203 253 303
#     4   8  14  29  52  74  97 130 171 209 246 293
#     4   9  19  33  53  78 100 130 176 215 246 299
#
# _framework density 19.339621000000001
#
# number of rings (size 3 to 8) (size 9 to 14) (size 15 to 20)
#    0.000    3.077    0.000    4.615    0.000    1.231 
#    0.000    6.154    0.000   15.692    0.000    0.000 
#    0.000    0.000    0.000    0.000    0.000    0.000 
#
# Total GULP energy -144866.352930 kJ/mol
# GULP energy per Si atom -5571.782805 kJ/mol
# Density = 1.929560 g / cm^3
# Si number density = 19.339621 Si / 1000 Ang^3
#
#
#
# Elastic Constant Matrix: (Units=GPa)
#
#
# Indices 1 2 3 4 5 6 
#
# 1 47.8004 47.9847 2.0675 0.0000 -6.9278 0.0000
# 2 47.9847 184.6883 42.0138 0.0000 -28.6230 0.0000
# 3 2.0675 42.0138 73.1802 0.0000 -17.5597 0.0000
# 4 0.0000 0.0000 0.0000 25.5287 0.0000 -6.8060
# 5 -6.9278 -28.6230 -17.5597 0.0000 14.8076 0.0000
# 6 0.0000 0.0000 0.0000 -6.8060 0.0000 28.6107
#
#
#
# Elastic Compliance Matrix: (Units=1/GPa)
#
#
# Indices 1 2 3 4 5 6 
#
# 1 0.029431 -0.008165 0.004714 0.000000 0.003578 0.000000
# 2 -0.008165 0.010070 -0.002511 0.000000 0.012668 0.000000
# 3 0.004714 -0.002511 0.020040 0.000000 0.021117 0.000000
# 4 0.000000 0.000000 0.000000 0.041824 0.000000 0.009949
# 5 0.003578 0.012668 0.021117 0.000000 0.118735 0.000000
# 6 0.000000 0.000000 0.000000 0.009949 0.000000 0.037319
#
#
# Mechanical properties :
#
#
# Convention : Reuss Voigt Hill
#
# Bulk Modulus (GPa) = 20.99993 54.42232 37.71113
# Shear Modulus (GPa) = 17.53063 28.02962 22.78012
#
# Velocity S-wave (km/s) = 3.01402 3.81115 3.43578
# Velocity P-wave (km/s) = 4.79526 6.89695 5.93979
#
# Compressibility (1/GPa) = 0.04761920
#
# Stress axis : x y z
#
# Youngs Moduli (GPa) = 33.97784 99.30140 49.89945
#
# Poissons Ratio (x) = 0.81075 -0.23525
# Poissons Ratio (y) = 0.27741 0.12530
# Poissons Ratio (z) = -0.16019 0.24935
#
# Static dielectric constant tensor:
#      x y z
#    x 1.701840 0.000000 0.041720 
#    y 0.000000 1.714030 0.000000 
#    z 0.041720 0.000000 1.716650 
# 
# From -- ./inp_files/205001.got.cif
#   From: 2010.05.17/outbox.cif.g08.bks.cpg/sg15_103_cif.got.tgz:205001.got - 2010.06.03 18:47:42.
