data_PCOD9257201
_publ_section_title
;
Structure prediction by ZEFSAII (Michael W. Deem and Ramdas Pophale) SiO2 
 PCOD9257201
Probable space group: C 2/C
;
_chemical_formula_sum "Si O2"
_cell_formula_units_Z 44
_cell_length_a 24.274069
_cell_length_b 19.030926
_cell_length_c 14.752081
_cell_angle_alpha 90.000000
_cell_angle_beta 16.647066
_cell_angle_gamma 90.000000
_cell_volume 1952.285209
_symmetry_space_group_name_H-M "C 2/C"
_symmetry_group_IT_number 15
_symmetry_cell_setting 'monoclinic'
loop_
_space_group_symop_operation_xyz
x,y,z
-x,y,1/2-z
-x,-y,-z
x,-y,1/2+z
1/2+x,1/2+y,z
1/2-x,1/2+y,1/2-z
1/2-x,1/2-y,-z
1/2+x,1/2-y,1/2+z
loop_
_atom_site_type_symbol
_atom_site_label
_atom_site_fract_x
_atom_site_fract_y
_atom_site_fract_z
Si Si1 0.228806 0.600703 0.564276
Si Si2 0.728904 0.532442 0.390171
Si Si3 0.500000 0.687606 0.250000
Si Si4 0.126339 0.680989 0.298654
Si Si5 0.356189 0.734667 0.098828
Si Si6 0.783777 0.407075 0.613342
O O1 0.186247 0.537054 0.698958
O O2 0.418368 0.639871 0.298562
O O3 0.271014 0.567884 0.399812
O O4 0.056344 0.657977 0.848850
O O5 0.778265 0.604528 0.365742
O O6 0.794814 0.541945 0.181807
O O7 0.500000 0.524599 0.750000
O O8 0.324577 0.731164 0.565060
O O9 0.281332 0.725708 0.113064
O O10 0.035940 0.721058 0.354937
O O11 0.358394 0.654949 0.132055
O O12 0.000000 0.380949 0.250000
#
# Coordination Sequence:
#
# PCOD9257201 Si02
#       6
#     8   8   4   8   8   8
#     4  11  20  38  62  91 127 162 207 257 314 367
#     4  11  24  42  58  93 130 173 205 248 314 379
#     4  10  18  30  60  96 126 150 200 268 314 362
#     4  10  21  36  65  91 129 158 207 263 320 364
#     4  10  18  35  59 101 122 155 203 266 321 360
#     4  11  21  37  65  92 121 160 206 263 310 359
#
# _framework density 22.537690999999999
#
# number of rings (size 3 to 8) (size 9 to 14) (size 15 to 20)
#    0.000    1.455    5.455    1.636    0.000    3.636 
#    0.000    3.636    0.000    0.000    0.000    0.000 
#    0.000    0.000    0.000    0.000    0.000    0.000 
#
# Total GULP energy -122719.841818 kJ/mol
# GULP energy per Si atom -5578.174628 kJ/mol
# Density = 2.248639 g / cm^3
# Si number density = 22.537691 Si / 1000 Ang^3
#
#
#
# Elastic Constant Matrix: (Units=GPa)
#
#
# Indices 1 2 3 4 5 6 
#
# 1 161.2654 69.5905 30.7775 -0.0047 -1.8224 0.0002
# 2 69.5905 67.2874 6.9873 -0.0025 0.4830 0.0117
# 3 30.7775 6.9873 70.9369 0.0043 -12.5842 0.0103
# 4 -0.0047 -0.0025 0.0043 8.7333 -0.0059 -3.4677
# 5 -1.8224 0.4830 -12.5842 -0.0059 33.2224 0.0001
# 6 0.0002 0.0117 0.0103 -3.4677 0.0001 28.9019
#
#
#
# Elastic Compliance Matrix: (Units=1/GPa)
#
#
# Indices 1 2 3 4 5 6 
#
# 1 0.012304 -0.012277 -0.004264 0.000008 -0.000762 0.000007
# 2 -0.012277 0.027287 0.002625 -0.000005 -0.000076 -0.000012
# 3 -0.004264 0.002625 0.016767 -0.000009 0.006079 -0.000008
# 4 0.000008 -0.000005 -0.000009 0.120233 0.000018 0.014426
# 5 -0.000762 -0.000076 0.006079 0.000018 0.032362 0.000000
# 6 0.000007 -0.000012 -0.000008 0.014426 0.000000 0.036331
#
#
# Mechanical properties :
#
#
# Convention : Reuss Voigt Hill
#
# Bulk Modulus (GPa) = 35.05546 57.13337 46.09442
# Shear Modulus (GPa) = 17.69143 26.98048 22.33595
#
# Velocity S-wave (km/s) = 2.80477 3.46371 3.15151
# Velocity P-wave (km/s) = 5.10656 6.43440 5.80855
#
# Compressibility (1/GPa) = 0.02852622
#
# Stress axis : x y z
#
# Youngs Moduli (GPa) = 81.27464 36.64806 59.64110
#
# Poissons Ratio (x) = 0.44992 0.25432
# Poissons Ratio (y) = 0.99779 -0.15658
# Poissons Ratio (z) = 0.34657 -0.09622
#
# Static dielectric constant tensor:
#      x y z
#    x 1.909020 0.000000 -0.047910 
#    y 0.000000 1.821130 0.000010 
#    z -0.047910 0.000010 1.875030 
# 
# From -- ./inp_files/174414.got.cif
#   From: 2010.05.17/outbox.cif.g08.bks.cpg/sg15_88_cif.got.tgz:174414.got - 2010.06.03 18:47:42.
