data_PCOD9257755
_publ_section_title
;
Structure prediction by ZEFSAII (Michael W. Deem and Ramdas Pophale) SiO2 
 PCOD9257755
Probable space group: C 2/C
;
_chemical_formula_sum "Si O2"
_cell_formula_units_Z 48
_cell_length_a 5.024691
_cell_length_b 29.597671
_cell_length_c 17.916988
_cell_angle_alpha 90.000000
_cell_angle_beta 84.440181
_cell_angle_gamma 90.000000
_cell_volume 2652.063876
_symmetry_space_group_name_H-M "C 2/C"
_symmetry_group_IT_number 15
_symmetry_cell_setting 'monoclinic'
loop_
_space_group_symop_operation_xyz
x,y,z
-x,y,1/2-z
-x,-y,-z
x,-y,1/2+z
1/2+x,1/2+y,z
1/2-x,1/2+y,1/2-z
1/2-x,1/2-y,-z
1/2+x,1/2-y,1/2+z
loop_
_atom_site_type_symbol
_atom_site_label
_atom_site_fract_x
_atom_site_fract_y
_atom_site_fract_z
Si Si1 0.961795 0.754308 0.601369
Si Si2 0.500000 0.201390 0.750000
Si Si3 0.294375 0.584812 0.896990
Si Si4 0.239500 0.603849 0.499365
Si Si5 0.230920 0.009769 0.052470
Si Si6 0.500000 0.639974 0.750000
Si Si7 0.002961 0.302438 0.955459
O O1 0.922752 0.732232 0.682193
O O2 0.918011 0.716070 0.539324
O O3 0.266079 0.770178 0.583176
O O4 0.757912 0.795056 0.588279
O O5 0.242373 0.170557 0.774564
O O6 0.489729 0.602351 0.958669
O O7 0.309953 0.530130 0.886854
O O8 0.376254 0.610303 0.819996
O O9 0.995210 0.593858 0.934111
O O10 0.264081 0.563592 0.437391
O O11 0.143129 0.649520 0.462844
O O12 0.500000 0.000000 0.000000
O O13 0.000000 0.000000 0.000000
#
# Coordination Sequence:
#
# PCOD9257755 Si02
#       7
#     8   4   8   8   8   4   8
#     4  10  21  34  50  72 102 132 169 217 263 302
#     4  12  24  38  52  75 106 143 172 210 272 330
#     4  10  19  31  48  77 107 133 164 206 255 309
#     4  10  18  32  53  74 101 132 172 213 253 304
#     4   8  16  29  47  71  99 128 158 202 251 292
#     4  12  22  32  52  75 104 139 170 202 256 326
#     4  10  19  33  52  75  98 131 174 218 254 296
#
# _framework density 18.09911
#
# number of rings (size 3 to 8) (size 9 to 14) (size 15 to 20)
#    0.000    2.000    0.000    5.000    0.000    2.667 
#    0.000    0.000    0.000    1.000    0.000   11.667 
#    0.000    0.000    0.000    0.000    0.000    0.000 
#
# Total GULP energy -133736.885693 kJ/mol
# GULP energy per Si atom -5572.370237 kJ/mol
# Density = 1.805792 g / cm^3
# Si number density = 18.099110 Si / 1000 Ang^3
#
#
#
# Elastic Constant Matrix: (Units=GPa)
#
#
# Indices 1 2 3 4 5 6 
#
# 1 86.1884 -8.4848 1.2141 0.0000 2.9285 0.0000
# 2 -8.4848 96.1635 27.2114 0.0000 5.9321 0.0000
# 3 1.2141 27.2114 61.3832 0.0000 -0.1089 0.0000
# 4 0.0000 0.0000 0.0000 11.5495 0.0000 -1.9532
# 5 2.9285 5.9321 -0.1089 0.0000 15.6676 0.0000
# 6 0.0000 0.0000 0.0000 -1.9532 0.0000 29.7372
#
#
#
# Elastic Compliance Matrix: (Units=1/GPa)
#
#
# Indices 1 2 3 4 5 6 
#
# 1 0.011854 0.001469 -0.000891 0.000000 -0.002778 0.000000
# 2 0.001469 0.012404 -0.005537 0.000000 -0.005010 0.000000
# 3 -0.000891 -0.005537 0.018767 0.000000 0.002393 0.000000
# 4 0.000000 0.000000 0.000000 0.087556 0.000000 0.005751
# 5 -0.002778 -0.005010 0.002393 0.000000 0.066259 0.000000
# 6 0.000000 0.000000 0.000000 0.005751 0.000000 0.034006
#
#
# Mechanical properties :
#
#
# Convention : Reuss Voigt Hill
#
# Bulk Modulus (GPa) = 30.20285 31.51293 30.85789
# Shear Modulus (GPa) = 19.85705 26.31049 23.08377
#
# Velocity S-wave (km/s) = 3.31589 3.81686 3.57516
# Velocity P-wave (km/s) = 5.60213 6.07237 5.84198
#
# Compressibility (1/GPa) = 0.03310945
#
# Stress axis : x y z
#
# Youngs Moduli (GPa) = 84.35913 80.61652 53.28369
#
# Poissons Ratio (x) = -0.11845 0.04746
# Poissons Ratio (y) = -0.12395 0.29502
# Poissons Ratio (z) = 0.07514 0.44636
#
# Static dielectric constant tensor:
#      x y z
#    x 1.627000 0.000000 0.010230 
#    y 0.000000 1.702700 0.000000 
#    z 0.010230 0.000000 1.581280 
# 
# From -- ./inp_files/185661.got.cif
#   From: 2010.05.17/outbox.cif.g08.bks.cpg/sg15_93_cif.got.tgz:185661.got - 2010.06.03 18:47:42.
