data_PCOD9257929
_publ_section_title
;
Structure prediction by ZEFSAII (Michael W. Deem and Ramdas Pophale) SiO2 
 PCOD9257929
Probable space group: C 2/C
;
_chemical_formula_sum "Si O2"
_cell_formula_units_Z 36
_cell_length_a 18.415332
_cell_length_b 7.499090
_cell_length_c 13.533435
_cell_angle_alpha 90.000000
_cell_angle_beta 141.244554
_cell_angle_gamma 90.000000
_cell_volume 1169.954108
_symmetry_space_group_name_H-M "C 2/C"
_symmetry_group_IT_number 15
_symmetry_cell_setting 'monoclinic'
loop_
_space_group_symop_operation_xyz
x,y,z
-x,y,1/2-z
-x,-y,-z
x,-y,1/2+z
1/2+x,1/2+y,z
1/2-x,1/2+y,1/2-z
1/2-x,1/2-y,-z
1/2+x,1/2-y,1/2+z
loop_
_atom_site_type_symbol
_atom_site_label
_atom_site_fract_x
_atom_site_fract_y
_atom_site_fract_z
Si Si1 0.500000 0.971367 0.750000
Si Si2 0.958179 0.194425 0.363109
Si Si3 0.233383 0.962296 0.963705
Si Si4 0.411928 0.910458 0.486996
Si Si5 0.320318 0.534704 0.375655
O O1 0.351385 0.967338 0.538485
O O2 0.511351 0.824911 0.667744
O O3 0.879426 0.047516 0.225270
O O4 0.887380 0.207864 0.396713
O O5 0.967566 0.358684 0.300665
O O6 0.083780 0.119306 0.521523
O O7 0.250000 0.750000 0.000000
O O8 0.212153 0.058884 0.045123
O O9 0.289929 0.992610 0.305663
O O10 0.500000 0.000000 0.500000
#
# Coordination Sequence:
#
# PCOD9257929 Si02
#       5
#     4   8   8   8   8
#     4   8  20  30  54  86 108 148 190 234 282 338
#     4   9  19  31  50  86 114 144 194 245 278 333
#     4  10  18  32  56  79 115 151 188 237 289 338
#     4   8  18  31  50  84 112 140 189 242 278 333
#     4   9  18  30  50  83 114 141 192 244 279 323
#
# _framework density 30.770437000000001
#
# number of rings (size 3 to 8) (size 9 to 14) (size 15 to 20)
#    2.667    0.444    0.000    1.333    3.111    0.000 
#    0.000    1.111    0.000    1.333    0.000    1.556 
#    0.000    0.222    0.000    0.000    0.000    0.000 
#
# Total GULP energy -100453.607825 kJ/mol
# GULP energy per Si atom -5580.755990 kJ/mol
# Density = 3.070040 g / cm^3
# Si number density = 30.770437 Si / 1000 Ang^3
#
#
#
# Elastic Constant Matrix: (Units=GPa)
#
#
# Indices 1 2 3 4 5 6 
#
# 1 297.8539 87.2329 172.3570 0.0000 -37.9969 0.0000
# 2 87.2329 186.6045 79.1887 0.0000 -2.8096 0.0000
# 3 172.3570 79.1887 322.3112 0.0000 -50.9828 0.0000
# 4 0.0000 0.0000 0.0000 33.2105 0.0000 12.3855
# 5 -37.9969 -2.8096 -50.9828 0.0000 100.6232 0.0000
# 6 0.0000 0.0000 0.0000 12.3855 0.0000 69.2706
#
#
#
# Elastic Compliance Matrix: (Units=1/GPa)
#
#
# Indices 1 2 3 4 5 6 
#
# 1 0.005217 -0.001445 -0.002315 0.000000 0.000757 0.000000
# 2 -0.001445 0.006420 -0.000938 0.000000 -0.000841 0.000000
# 3 -0.002315 -0.000938 0.004814 0.000000 0.001539 0.000000
# 4 0.000000 0.000000 0.000000 0.032262 0.000000 -0.005768
# 5 0.000757 -0.000841 0.001539 0.000000 0.010980 0.000000
# 6 0.000000 0.000000 0.000000 -0.005768 0.000000 0.015468
#
#
# Mechanical properties :
#
#
# Convention : Reuss Voigt Hill
#
# Bulk Modulus (GPa) = 141.73188 164.92519 153.32854
# Shear Modulus (GPa) = 57.53270 71.82027 64.67649
#
# Velocity S-wave (km/s) = 4.32874 4.83646 4.58963
# Velocity P-wave (km/s) = 8.43475 9.21430 8.83313
#
# Compressibility (1/GPa) = 0.00705558
#
# Stress axis : x y z
#
# Youngs Moduli (GPa) = 191.69624 155.77249 207.71403
#
# Poissons Ratio (x) = 0.22507 0.48084
# Poissons Ratio (y) = 0.27697 0.19477
# Poissons Ratio (z) = 0.44376 0.14607
#
# Static dielectric constant tensor:
#      x y z
#    x -2.835750 0.000000 9.568670 
#    y 0.000000 1.843410 0.000000 
#    z 9.568670 0.000000 -15.224130 
# 
# From -- ./inp_files/103172.got.cif
#   From: 2010.05.17/outbox.cif.g08.bks.cpg/sg15_52_cif.got.tgz:103172.got - 2010.06.03 18:47:42.
