data_PCOD9257772
_publ_section_title
;
Structure prediction by ZEFSAII (Michael W. Deem and Ramdas Pophale) SiO2 
 PCOD9257772
Probable space group: C 2/C
;
_chemical_formula_sum "Si O2"
_cell_formula_units_Z 56
_cell_length_a 19.628551
_cell_length_b 10.724886
_cell_length_c 13.580556
_cell_angle_alpha 90.000000
_cell_angle_beta 80.826132
_cell_angle_gamma 90.000000
_cell_volume 2822.328870
_symmetry_space_group_name_H-M "C 2/C"
_symmetry_group_IT_number 15
_symmetry_cell_setting 'monoclinic'
loop_
_space_group_symop_operation_xyz
x,y,z
-x,y,1/2-z
-x,-y,-z
x,-y,1/2+z
1/2+x,1/2+y,z
1/2-x,1/2+y,1/2-z
1/2-x,1/2-y,-z
1/2+x,1/2-y,1/2+z
loop_
_atom_site_type_symbol
_atom_site_label
_atom_site_fract_x
_atom_site_fract_y
_atom_site_fract_z
Si Si1 0.272285 0.784529 0.605918
Si Si2 0.847109 0.311858 0.245961
Si Si3 0.653060 0.678796 0.740635
Si Si4 0.000000 0.757028 0.250000
Si Si5 0.272570 0.934602 0.092309
Si Si6 0.820195 0.433332 0.878180
Si Si7 0.500000 0.173737 0.750000
Si Si8 0.030841 0.456445 0.593348
O O1 0.250000 0.750000 0.500000
O O2 0.204042 0.783088 0.689356
O O3 0.324282 0.689683 0.649874
O O4 0.300232 0.924628 0.597449
O O5 0.823687 0.342289 0.140195
O O6 0.828666 0.441040 0.311355
O O7 0.926353 0.268241 0.237119
O O8 0.571530 0.667811 0.739651
O O9 0.700815 0.584564 0.668207
O O10 0.675093 0.814930 0.693261
O O11 0.998232 0.661732 0.157201
O O12 0.262893 0.919497 0.976504
O O13 0.888801 0.428033 0.928848
O O14 0.520855 0.079118 0.660023
O O15 0.000000 0.500000 0.500000
#
# Coordination Sequence:
#
# PCOD9257772 Si02
#       8
#     8   8   8   4   8   8   4   8
#     4  11  22  36  57  81 108 149 188 233 277 330
#     4  10  20  34  52  81 110 144 174 232 278 332
#     4  10  22  37  56  82 112 148 187 231 279 335
#     4   9  20  36  53  78 116 148 189 225 276 336
#     4  11  21  35  56  80 111 143 191 225 275 333
#     4  10  18  32  53  79 111 136 177 228 278 326
#     4   9  18  30  47  74 112 134 171 215 280 326
#     4   9  17  26  49  78 105 140 168 219 280 325
#
# _framework density 19.84177
#
# number of rings (size 3 to 8) (size 9 to 14) (size 15 to 20)
#    0.000    2.000    2.857    2.143    2.000    0.000 
#    0.000    0.714    0.000    0.857    0.000    0.000 
#    0.000    0.000    0.000    0.000    0.000    0.000 
#
# Total GULP energy -155917.613301 kJ/mol
# GULP energy per Si atom -5568.486189 kJ/mol
# Density = 1.979661 g / cm^3
# Si number density = 19.841770 Si / 1000 Ang^3
#
#
#
# Elastic Constant Matrix: (Units=GPa)
#
#
# Indices 1 2 3 4 5 6 
#
# 1 110.0035 -7.3029 17.9965 0.0000 5.9017 0.0000
# 2 -7.3029 21.9050 4.4042 0.0000 0.6172 0.0000
# 3 17.9965 4.4042 98.8314 0.0000 16.1273 0.0000
# 4 0.0000 0.0000 0.0000 24.2321 0.0000 -6.6908
# 5 5.9017 0.6172 16.1273 0.0000 27.7118 0.0000
# 6 0.0000 0.0000 0.0000 -6.6908 0.0000 24.0286
#
#
#
# Elastic Compliance Matrix: (Units=1/GPa)
#
#
# Indices 1 2 3 4 5 6 
#
# 1 0.009675 0.003607 -0.001738 0.000000 -0.001129 0.000000
# 2 0.003607 0.047410 -0.002731 0.000000 -0.000235 0.000000
# 3 -0.001738 -0.002731 0.011586 0.000000 -0.006312 0.000000
# 4 0.000000 0.000000 0.000000 0.044705 0.000000 0.012448
# 5 -0.001129 -0.000235 -0.006312 0.000000 0.040005 0.000000
# 6 0.000000 0.000000 0.000000 0.012448 0.000000 0.045083
#
#
# Mechanical properties :
#
#
# Convention : Reuss Voigt Hill
#
# Bulk Modulus (GPa) = 14.93738 28.99283 21.96510
# Shear Modulus (GPa) = 22.47144 29.57063 26.02104
#
# Velocity S-wave (km/s) = 3.36896 3.86466 3.62529
# Velocity P-wave (km/s) = 4.76212 5.87859 5.34956
#
# Compressibility (1/GPa) = 0.06694617
#
# Stress axis : x y z
#
# Youngs Moduli (GPa) = 103.35893 21.09267 86.30768
#
# Poissons Ratio (x) = -0.07608 0.15002
# Poissons Ratio (y) = -0.37280 0.23572
# Poissons Ratio (z) = 0.17966 0.05761
#
# Static dielectric constant tensor:
#      x y z
#    x 2.616320 0.000000 0.095800 
#    y 0.000000 1.687180 0.000000 
#    z 0.095800 0.000000 1.781430 
# 
# From -- ./inp_files/111019.got.cif
#   From: 2010.05.17/outbox.cif.g08.bks.cpg/sg15_56_cif.got.tgz:111019.got - 2010.06.03 18:47:42.
