data_PCOD9257812
_publ_section_title
;
Structure prediction by ZEFSAII (Michael W. Deem and Ramdas Pophale) SiO2 
 PCOD9257812
Probable space group: C 2/C
;
_chemical_formula_sum "Si O2"
_cell_formula_units_Z 32
_cell_length_a 8.805189
_cell_length_b 10.859164
_cell_length_c 12.753410
_cell_angle_alpha 90.000000
_cell_angle_beta 99.963998
_cell_angle_gamma 90.000000
_cell_volume 1201.049439
_symmetry_space_group_name_H-M "C 2/C"
_symmetry_group_IT_number 15
_symmetry_cell_setting 'monoclinic'
loop_
_space_group_symop_operation_xyz
x,y,z
-x,y,1/2-z
-x,-y,-z
x,-y,1/2+z
1/2+x,1/2+y,z
1/2-x,1/2+y,1/2-z
1/2-x,1/2-y,-z
1/2+x,1/2-y,1/2+z
loop_
_atom_site_type_symbol
_atom_site_label
_atom_site_fract_x
_atom_site_fract_y
_atom_site_fract_z
Si Si1 0.446984 0.759009 0.404918
Si Si2 0.500000 0.500000 0.500000
Si Si3 0.247680 0.257153 0.685452
Si Si4 0.764259 0.493759 0.931170
Si Si5 0.000000 0.925505 0.250000
O O1 0.470550 0.654380 0.492695
O O2 0.338404 0.701171 0.301437
O O3 0.366689 0.886729 0.428846
O O4 0.612113 0.784734 0.371999
O O5 0.307968 0.479631 0.464502
O O6 0.170544 0.374249 0.618345
O O7 0.131232 0.158386 0.717051
O O8 0.585278 0.503221 0.856650
#
# Coordination Sequence:
#
# PCOD9257812 Si02
#       5
#     8   4   8   8   4
#     4   9  18  33  53  76 105 138 171 214 260 304
#     4  10  18  32  54  78 106 142 174 202 256 320
#     4   9  19  34  53  78  99 130 179 218 256 305
#     4  10  19  34  53  75 105 138 172 216 259 304
#     4  10  20  34  56  78 100 134 174 220 262 298
#
# _framework density 26.643367999999999
#
# number of rings (size 3 to 8) (size 9 to 14) (size 15 to 20)
#    0.000    2.500    0.000    3.750    0.000    4.000 
#    0.000    5.000    0.000   27.000    0.000    0.000 
#    0.000    0.000    0.000    0.000    0.000    0.000 
#
# Total GULP energy -89159.526003 kJ/mol
# GULP energy per Si atom -5572.470375 kJ/mol
# Density = 2.658273 g / cm^3
# Si number density = 26.643368 Si / 1000 Ang^3
#
#
#
# Elastic Constant Matrix: (Units=GPa)
#
#
# Indices 1 2 3 4 5 6 
#
# 1 90.6544 65.9679 35.3537 0.0000 -3.8367 0.0000
# 2 65.9679 149.1651 30.2744 0.0000 -1.7347 0.0000
# 3 35.3537 30.2744 69.6916 0.0000 3.2794 0.0000
# 4 0.0000 0.0000 0.0000 33.8980 0.0000 0.7691
# 5 -3.8367 -1.7347 3.2794 0.0000 32.6472 0.0000
# 6 0.0000 0.0000 0.0000 0.7691 0.0000 75.5754
#
#
#
# Elastic Compliance Matrix: (Units=1/GPa)
#
#
# Indices 1 2 3 4 5 6 
#
# 1 0.018758 -0.006922 -0.006627 0.000000 0.002502 0.000000
# 2 -0.006922 0.009923 -0.000790 0.000000 -0.000207 0.000000
# 3 -0.006627 -0.000790 0.018178 0.000000 -0.002647 0.000000
# 4 0.000000 0.000000 0.000000 0.029507 0.000000 -0.000300
# 5 0.002502 -0.000207 -0.002647 0.000000 0.031179 0.000000
# 6 0.000000 0.000000 0.000000 -0.000300 0.000000 0.013235
#
#
# Mechanical properties :
#
#
# Convention : Reuss Voigt Hill
#
# Bulk Modulus (GPa) = 54.99566 63.63369 59.31467
# Shear Modulus (GPa) = 32.15089 40.28512 36.21800
#
# Velocity S-wave (km/s) = 3.47755 3.89268 3.69095
# Velocity P-wave (km/s) = 6.06718 6.64374 6.36199
#
# Compressibility (1/GPa) = 0.01818325
#
# Stress axis : x y z
#
# Youngs Moduli (GPa) = 53.31122 100.77724 55.01138
#
# Poissons Ratio (x) = 0.69754 0.36454
# Poissons Ratio (y) = 0.36900 0.04344
# Poissons Ratio (z) = 0.35327 0.07957
#
# Static dielectric constant tensor:
#      x y z
#    x 1.749460 0.000000 0.754830 
#    y 0.000000 0.605830 0.000000 
#    z 0.754830 0.000000 1.016750 
# 
# From -- ./inp_files/229238.got.cif
#   From: 2010.05.17/outbox.cif.g08.bks.cpg/sg15_115_cif.got.tgz:229238.got - 2010.06.03 18:47:42.
