data_PCOD9257647
_publ_section_title
;
Structure prediction by ZEFSAII (Michael W. Deem and Ramdas Pophale) SiO2 
 PCOD9257647
Probable space group: C 2/C
;
_chemical_formula_sum "Si O2"
_cell_formula_units_Z 48
_cell_length_a 21.624944
_cell_length_b 11.281832
_cell_length_c 12.505514
_cell_angle_alpha 90.000000
_cell_angle_beta 58.285115
_cell_angle_gamma 90.000000
_cell_volume 2595.372002
_symmetry_space_group_name_H-M "C 2/C"
_symmetry_group_IT_number 15
_symmetry_cell_setting 'monoclinic'
loop_
_space_group_symop_operation_xyz
x,y,z
-x,y,1/2-z
-x,-y,-z
x,-y,1/2+z
1/2+x,1/2+y,z
1/2-x,1/2+y,1/2-z
1/2-x,1/2-y,-z
1/2+x,1/2-y,1/2+z
loop_
_atom_site_type_symbol
_atom_site_label
_atom_site_fract_x
_atom_site_fract_y
_atom_site_fract_z
Si Si1 0.747782 0.146371 0.306178
Si Si2 0.666384 0.713354 0.482821
Si Si3 0.062276 0.358527 0.459425
Si Si4 0.164500 0.354210 0.162943
Si Si5 0.585958 0.119998 0.516316
Si Si6 0.754262 0.947511 0.459097
O O1 0.781773 0.170730 0.160855
O O2 0.785747 0.241208 0.351806
O O3 0.660443 0.152252 0.386876
O O4 0.764126 0.017011 0.339733
O O5 0.589852 0.748625 0.503607
O O6 0.700355 0.836436 0.494331
O O7 0.672365 0.610476 0.563832
O O8 0.119273 0.380895 0.311007
O O9 0.067744 0.478681 0.524810
O O10 0.985000 0.330464 0.476984
O O11 0.106422 0.341339 0.118444
O O12 0.216850 0.459087 0.073718
#
# Coordination Sequence:
#
# PCOD9257647 Si02
#       6
#     8   8   8   8   8   8
#     4  10  20  34  55  79 105 139 178 216 262 315
#     4  10  20  33  54  79 106 139 175 224 258 317
#     4  10  19  31  51  79 109 137 164 216 274 313
#     4  10  19  33  54  79 104 140 178 214 257 319
#     4  10  18  32  50  78 111 131 169 218 267 317
#     4  10  19  33  52  78 108 133 179 220 261 302
#
# _framework density 18.494458999999999
#
# number of rings (size 3 to 8) (size 9 to 14) (size 15 to 20)
#    0.000    2.000    3.333    3.500    2.333    0.000 
#    0.000    0.000    0.000    4.000   17.333    0.000 
#    0.000    0.000    0.000    0.000    0.000    0.000 
#
# Total GULP energy -133726.214987 kJ/mol
# GULP energy per Si atom -5571.925624 kJ/mol
# Density = 1.845236 g / cm^3
# Si number density = 18.494459 Si / 1000 Ang^3
#
#
#
# Elastic Constant Matrix: (Units=GPa)
#
#
# Indices 1 2 3 4 5 6 
#
# 1 136.9015 42.2416 2.4144 0.0000 1.5080 0.0000
# 2 42.2416 61.2974 5.4260 0.0000 -1.1411 0.0000
# 3 2.4144 5.4260 11.6323 0.0000 -0.7755 0.0000
# 4 0.0000 0.0000 0.0000 18.4404 0.0000 9.1272
# 5 1.5080 -1.1411 -0.7755 0.0000 8.8231 0.0000
# 6 0.0000 0.0000 0.0000 9.1272 0.0000 39.0024
#
#
#
# Elastic Compliance Matrix: (Units=1/GPa)
#
#
# Indices 1 2 3 4 5 6 
#
# 1 0.009339 -0.006565 0.000967 0.000000 -0.002360 0.000000
# 2 -0.006565 0.021652 -0.008525 0.000000 0.003173 0.000000
# 3 0.000967 -0.008525 0.090187 0.000000 0.006659 0.000000
# 4 0.000000 0.000000 0.000000 0.061333 0.000000 -0.014353
# 5 -0.002360 0.003173 0.006659 0.000000 0.114738 0.000000
# 6 0.000000 0.000000 0.000000 -0.014353 0.000000 0.028998
#
#
# Mechanical properties :
#
#
# Convention : Reuss Voigt Hill
#
# Bulk Modulus (GPa) = 10.76078 34.44391 22.60234
# Shear Modulus (GPa) = 12.97108 23.90312 18.43710
#
# Velocity S-wave (km/s) = 2.65117 3.59896 3.16080
# Velocity P-wave (km/s) = 3.89906 5.99453 5.05653
#
# Compressibility (1/GPa) = 0.09293005
#
# Stress axis : x y z
#
# Youngs Moduli (GPa) = 107.07477 46.18501 11.08804
#
# Poissons Ratio (x) = 0.30322 -0.01072
# Poissons Ratio (y) = 0.70299 0.09453
# Poissons Ratio (z) = -0.10350 0.39375
#
# Static dielectric constant tensor:
#      x y z
#    x 1.688350 0.000000 0.033570 
#    y 0.000000 1.643820 0.000000 
#    z 0.033570 0.000000 1.659960 
# 
# From -- ./inp_files/166127.got.cif
#   From: 2010.05.17/outbox.cif.g08.bks.cpg/sg15_84_cif.got.tgz:166127.got - 2010.06.03 18:47:42.
