data_PCOD9257024
_publ_section_title
;
Structure prediction by ZEFSAII (Michael W. Deem and Ramdas Pophale) SiO2 
 PCOD9257024
Probable space group: C 2/C
;
_chemical_formula_sum "Si O2"
_cell_formula_units_Z 56
_cell_length_a 18.697123
_cell_length_b 9.128690
_cell_length_c 17.321278
_cell_angle_alpha 90.000000
_cell_angle_beta 84.824410
_cell_angle_gamma 90.000000
_cell_volume 2944.346406
_symmetry_space_group_name_H-M "C 2/C"
_symmetry_group_IT_number 15
_symmetry_cell_setting 'monoclinic'
loop_
_space_group_symop_operation_xyz
x,y,z
-x,y,1/2-z
-x,-y,-z
x,-y,1/2+z
1/2+x,1/2+y,z
1/2-x,1/2+y,1/2-z
1/2-x,1/2-y,-z
1/2+x,1/2-y,1/2+z
loop_
_atom_site_type_symbol
_atom_site_label
_atom_site_fract_x
_atom_site_fract_y
_atom_site_fract_z
Si Si1 0.218031 0.137364 0.384706
Si Si2 0.792340 0.199954 0.569011
Si Si3 0.766265 0.415989 0.708676
Si Si4 0.577603 0.165472 0.264079
Si Si5 0.585608 0.368621 0.983731
Si Si6 0.448808 0.683192 0.571876
Si Si7 0.836530 0.853503 0.369261
O O1 0.226709 0.127113 0.291763
O O2 0.144927 0.206438 0.424278
O O3 0.286593 0.224654 0.407507
O O4 0.215693 0.972054 0.415680
O O5 0.750000 0.250000 0.500000
O O6 0.767999 0.282228 0.648569
O O7 0.874819 0.239152 0.544030
O O8 0.851879 0.434794 0.722026
O O9 0.719354 0.542452 0.671647
O O10 0.500000 0.095220 0.250000
O O11 0.557189 0.264391 0.340040
O O12 0.608194 0.275401 0.195024
O O13 0.555740 0.506884 0.937977
O O14 0.519845 0.271054 0.019787
O O15 0.622802 0.421272 0.060970
#
# Coordination Sequence:
#
# PCOD9257024 Si02
#       7
#     8   8   8   8   8   8   8
#     4  10  20  34  53  82 113 146 185 233 285 348
#     4  10  20  37  60  82 115 150 196 239 288 347
#     4  10  20  34  58  85 110 147 191 238 286 342
#     4  10  19  35  56  81 113 152 195 235 292 358
#     4  10  18  30  51  78 114 135 183 237 279 324
#     4   9  18  32  51  78 106 146 183 233 278 336
#     4  11  20  33  57  85 107 145 190 237 286 342
#
# _framework density 19.019501999999999
#
# number of rings (size 3 to 8) (size 9 to 14) (size 15 to 20)
#    0.000    2.000    1.429    5.571    0.000    0.000 
#    0.000    0.000    6.286    2.571    7.429    0.000 
#    0.000    0.000    0.000    0.000    0.000    0.000 
#
# Total GULP energy -155890.767906 kJ/mol
# GULP energy per Si atom -5567.527425 kJ/mol
# Density = 1.897621 g / cm^3
# Si number density = 19.019502 Si / 1000 Ang^3
#
#
#
# Elastic Constant Matrix: (Units=GPa)
#
#
# Indices 1 2 3 4 5 6 
#
# 1 136.2736 21.8317 67.5008 0.0000 -22.9751 0.0000
# 2 21.8317 26.4640 7.0173 0.0000 -2.2972 0.0000
# 3 67.5008 7.0173 105.0610 0.0000 -20.4613 0.0000
# 4 0.0000 0.0000 0.0000 20.4654 0.0000 -0.5934
# 5 -22.9751 -2.2972 -20.4613 0.0000 43.0757 0.0000
# 6 0.0000 0.0000 0.0000 -0.5934 0.0000 20.3928
#
#
#
# Elastic Compliance Matrix: (Units=1/GPa)
#
#
# Indices 1 2 3 4 5 6 
#
# 1 0.012628 -0.008309 -0.006979 0.000000 0.002977 0.000000
# 2 -0.008309 0.043968 0.002198 0.000000 -0.001042 0.000000
# 3 -0.006979 0.002198 0.014494 0.000000 0.003280 0.000000
# 4 0.000000 0.000000 0.000000 0.048904 0.000000 0.001423
# 5 0.002977 -0.001042 0.003280 0.000000 0.026305 0.000000
# 6 0.000000 0.000000 0.000000 0.001423 0.000000 0.049078
#
#
# Mechanical properties :
#
#
# Convention : Reuss Voigt Hill
#
# Bulk Modulus (GPa) = 22.26553 51.16645 36.71599
# Shear Modulus (GPa) = 21.13934 28.21671 24.67803
#
# Velocity S-wave (km/s) = 3.33747 3.85589 3.60601
# Velocity P-wave (km/s) = 5.15594 6.83991 6.05673
#
# Compressibility (1/GPa) = 0.04491247
#
# Stress axis : x y z
#
# Youngs Moduli (GPa) = 79.18963 22.74378 68.99485
#
# Poissons Ratio (x) = 0.18897 0.48148
# Poissons Ratio (y) = 0.65796 -0.15168
# Poissons Ratio (z) = 0.55263 -0.05000
#
# Static dielectric constant tensor:
#      x y z
#    x 1.748020 0.000000 -0.003440 
#    y 0.000000 1.669710 0.000000 
#    z -0.003440 0.000000 1.667990 
# 
# From -- ./inp_files/213350.got.cif
#   From: 2010.05.17/outbox.cif.g08.bks.cpg/sg15_107_cif.got.tgz:213350.got - 2010.06.03 18:47:42.
