data_PCOD9257113
_publ_section_title
;
Structure prediction by ZEFSAII (Michael W. Deem and Ramdas Pophale) SiO2 
 PCOD9257113
Probable space group: C 2/C
;
_chemical_formula_sum "Si O2"
_cell_formula_units_Z 60
_cell_length_a 11.054628
_cell_length_b 11.915579
_cell_length_c 19.851785
_cell_angle_alpha 90.000000
_cell_angle_beta 81.704810
_cell_angle_gamma 90.000000
_cell_volume 2587.565074
_symmetry_space_group_name_H-M "C 2/C"
_symmetry_group_IT_number 15
_symmetry_cell_setting 'monoclinic'
loop_
_space_group_symop_operation_xyz
x,y,z
-x,y,1/2-z
-x,-y,-z
x,-y,1/2+z
1/2+x,1/2+y,z
1/2-x,1/2+y,1/2-z
1/2-x,1/2-y,-z
1/2+x,1/2-y,1/2+z
loop_
_atom_site_type_symbol
_atom_site_label
_atom_site_fract_x
_atom_site_fract_y
_atom_site_fract_z
Si Si1 0.387594 0.434338 0.043165
Si Si2 0.390938 0.822508 0.213830
Si Si3 0.793529 0.743429 0.586760
Si Si4 0.494404 0.285835 0.368958
Si Si5 0.308051 0.060137 0.486145
Si Si6 0.000000 0.032382 0.750000
Si Si7 0.271051 0.487064 0.198785
Si Si8 0.975336 0.452603 0.846169
O O1 0.441004 0.317006 0.065841
O O2 0.273396 0.448313 0.001408
O O3 0.330943 0.475788 0.119860
O O4 0.500000 0.500000 0.000000
O O5 0.500000 0.774648 0.250000
O O6 0.353190 0.745091 0.154789
O O7 0.277606 0.866787 0.267946
O O8 0.447546 0.938382 0.178376
O O9 0.649557 0.725943 0.607612
O O10 0.791219 0.851658 0.539200
O O11 0.846034 0.631727 0.547405
O O12 0.497091 0.385002 0.314302
O O13 0.541141 0.167002 0.337801
O O14 0.417789 0.039764 0.425808
O O15 0.128776 0.970875 0.755028
O O16 0.143981 0.550731 0.193292
#
# Coordination Sequence:
#
# PCOD9257113 Si02
#       8
#     8   8   8   8   8   4   8   8
#     4  10  18  33  55  82 107 141 184 242 286 321
#     4  10  20  36  57  81 119 156 186 233 286 347
#     4  10  18  34  58  83 111 148 193 236 286 344
#     4  10  19  31  57  83 106 148 190 232 283 342
#     4   9  19  34  57  86 110 144 196 241 280 342
#     4  10  18  30  54  80 108 142 190 236 282 326
#     4   9  19  33  51  82 113 142 192 230 283 337
#     4   9  20  35  55  81 113 150 188 229 281 347
#
# _framework density 23.187823000000002
#
# number of rings (size 3 to 8) (size 9 to 14) (size 15 to 20)
#    0.000    2.400    2.667    0.000    2.800    0.533 
#    0.000    0.000   23.467    8.800    0.000    0.000 
#    0.000    0.000    0.000    0.000    0.000    0.000 
#
# Total GULP energy -167121.231386 kJ/mol
# GULP energy per Si atom -5570.707713 kJ/mol
# Density = 2.313505 g / cm^3
# Si number density = 23.187823 Si / 1000 Ang^3
#
#
#
# Elastic Constant Matrix: (Units=GPa)
#
#
# Indices 1 2 3 4 5 6 
#
# 1 57.7709 17.5282 24.4700 0.0000 3.5513 0.0000
# 2 17.5282 43.4329 1.5845 0.0000 10.1169 0.0000
# 3 24.4700 1.5845 67.0097 0.0000 3.1875 0.0000
# 4 0.0000 0.0000 0.0000 35.5055 0.0000 4.7909
# 5 3.5513 10.1169 3.1875 0.0000 44.0882 0.0000
# 6 0.0000 0.0000 0.0000 4.7909 0.0000 23.2416
#
#
#
# Elastic Compliance Matrix: (Units=1/GPa)
#
#
# Indices 1 2 3 4 5 6 
#
# 1 0.023720 -0.009467 -0.008480 0.000000 0.000875 0.000000
# 2 -0.009467 0.028109 0.003074 0.000000 -0.005910 0.000000
# 3 -0.008480 0.003074 0.018010 0.000000 -0.001324 0.000000
# 4 0.000000 0.000000 0.000000 0.028970 0.000000 -0.005972
# 5 0.000875 -0.005910 -0.001324 0.000000 0.024063 0.000000
# 6 0.000000 0.000000 0.000000 -0.005972 0.000000 0.044257
#
#
# Mechanical properties :
#
#
# Convention : Reuss Voigt Hill
#
# Bulk Modulus (GPa) = 24.94207 28.37542 26.65874
# Shear Modulus (GPa) = 23.78224 28.87579 26.32902
#
# Velocity S-wave (km/s) = 3.20603 3.53271 3.37333
# Velocity P-wave (km/s) = 4.94820 5.37623 5.16665
#
# Compressibility (1/GPa) = 0.04009291
#
# Stress axis : x y z
#
# Youngs Moduli (GPa) = 42.15839 35.57563 55.52453
#
# Poissons Ratio (x) = 0.33680 0.47083
# Poissons Ratio (y) = 0.39912 -0.17066
# Poissons Ratio (z) = 0.35749 -0.10934
#
# Static dielectric constant tensor:
#      x y z
#    x 1.944920 0.000000 0.013750 
#    y 0.000000 2.022820 0.000000 
#    z 0.013750 0.000000 1.918460 
# 
# From -- ./inp_files/238383.got.cif
#   From: 2010.05.17/outbox.cif.g08.bks.cpg/sg15_120_cif.got.tgz:238383.got - 2010.06.03 18:47:42.
