data_PCOD9257591
_publ_section_title
;
Structure prediction by ZEFSAII (Michael W. Deem and Ramdas Pophale) SiO2 
 PCOD9257591
Probable space group: C 2/C
;
_chemical_formula_sum "Si O2"
_cell_formula_units_Z 64
_cell_length_a 13.290175
_cell_length_b 23.351234
_cell_length_c 17.720072
_cell_angle_alpha 90.000000
_cell_angle_beta 134.952562
_cell_angle_gamma 90.000000
_cell_volume 3891.798050
_symmetry_space_group_name_H-M "C 2/C"
_symmetry_group_IT_number 15
_symmetry_cell_setting 'monoclinic'
loop_
_space_group_symop_operation_xyz
x,y,z
-x,y,1/2-z
-x,-y,-z
x,-y,1/2+z
1/2+x,1/2+y,z
1/2-x,1/2+y,1/2-z
1/2-x,1/2-y,-z
1/2+x,1/2-y,1/2+z
loop_
_atom_site_type_symbol
_atom_site_label
_atom_site_fract_x
_atom_site_fract_y
_atom_site_fract_z
Si Si1 0.228380 0.907393 0.287170
Si Si2 0.982419 0.487729 0.400801
Si Si3 0.244876 0.977742 0.532824
Si Si4 0.716307 0.144478 0.524454
Si Si5 0.062931 0.310270 0.699380
Si Si6 0.957185 0.979180 0.808421
Si Si7 0.016226 0.183083 0.668063
Si Si8 0.776740 0.575054 0.216057
O O1 0.371693 0.935397 0.329936
O O2 0.274666 0.867543 0.381580
O O3 0.135805 0.963632 0.259496
O O4 0.113129 0.867049 0.184069
O O5 0.908435 0.543680 0.326346
O O6 0.000000 0.500000 0.500000
O O7 0.130363 0.481976 0.434561
O O8 0.263578 0.918458 0.498486
O O9 0.259423 0.958280 0.627369
O O10 0.093213 0.003324 0.429829
O O11 0.565345 0.169442 0.421893
O O12 0.848488 0.180598 0.559448
O O13 0.090058 0.244049 0.694522
O O14 0.185667 0.357934 0.767529
O O15 0.000000 0.309386 0.750000
O O16 0.000000 0.954808 0.750000
O O17 0.859103 0.937686 0.804944
O O18 0.000000 0.172053 0.750000
#
# Coordination Sequence:
#
# PCOD9257591 Si02
#       8
#     8   8   8   8   8   8   8   8
#     4  10  18  32  48  73  95 132 172 200 231 298
#     4  11  19  31  51  71  99 138 166 197 244 296
#     4  12  19  32  49  72 106 133 158 205 254 293
#     4  11  17  29  48  68 102 132 162 198 247 297
#     4  11  19  31  45  69 103 132 159 200 252 297
#     4  11  20  34  52  71  99 133 168 202 250 304
#     4   9  19  30  47  68  97 135 168 199 240 295
#     4  11  22  32  48  75 102 131 164 208 253 297
#
# _framework density 16.444839999999999
#
# number of rings (size 3 to 8) (size 9 to 14) (size 15 to 20)
#    0.000    1.250    6.250    2.250    0.000    0.000 
#    0.000    0.000    0.000    0.000    0.000    4.375 
#    0.000    0.000    0.000    0.000    0.000    0.000 
#
# Total GULP energy -178211.278247 kJ/mol
# GULP energy per Si atom -5569.102445 kJ/mol
# Density = 1.640741 g / cm^3
# Si number density = 16.444840 Si / 1000 Ang^3
#
#
#
# Elastic Constant Matrix: (Units=GPa)
#
#
# Indices 1 2 3 4 5 6 
#
# 1 76.9831 30.9835 25.2150 0.0000 14.0557 0.0000
# 2 30.9835 72.2636 -1.5878 0.0000 11.4518 0.0000
# 3 25.2150 -1.5878 49.9974 0.0004 9.8041 0.0004
# 4 0.0000 0.0000 0.0004 20.0652 0.0002 10.4562
# 5 14.0557 11.4518 9.8041 0.0002 20.7453 0.0002
# 6 0.0000 0.0000 0.0004 10.4562 0.0002 25.6791
#
#
#
# Elastic Compliance Matrix: (Units=1/GPa)
#
#
# Indices 1 2 3 4 5 6 
#
# 1 0.020259 -0.008149 -0.009551 0.000000 -0.004714 0.000000
# 2 -0.008149 0.018695 0.006221 0.000000 -0.007739 0.000000
# 3 -0.009551 0.006221 0.026914 0.000000 -0.009682 0.000000
# 4 0.000000 0.000000 0.000000 0.063261 0.000000 -0.025759
# 5 -0.004714 -0.007739 -0.009682 0.000000 0.060245 0.000000
# 6 0.000000 0.000000 0.000000 -0.025759 0.000000 0.049431
#
#
# Mechanical properties :
#
#
# Convention : Reuss Voigt Hill
#
# Bulk Modulus (GPa) = 23.30498 34.27394 28.78946
# Shear Modulus (GPa) = 18.11156 22.94016 20.52586
#
# Velocity S-wave (km/s) = 3.32226 3.73899 3.53677
# Velocity P-wave (km/s) = 5.37763 6.28706 5.85004
#
# Compressibility (1/GPa) = 0.04290928
#
# Stress axis : x y z
#
# Youngs Moduli (GPa) = 49.36154 53.48958 37.15512
#
# Poissons Ratio (x) = 0.43588 0.35489
# Poissons Ratio (y) = 0.40224 -0.23114
# Poissons Ratio (z) = 0.47147 -0.33276
#
# Static dielectric constant tensor:
#      x y z
#    x 1.579230 0.000000 0.009120 
#    y 0.000000 1.566100 0.000000 
#    z 0.009120 0.000000 1.656650 
# 
# From -- ./inp_files/124445.got.cif
#   From: 2010.05.17/outbox.cif.g08.bks.cpg/sg15_63_cif.got.tgz:124445.got - 2010.06.03 18:47:42.
