data_PCOD9257840
_publ_section_title
;
Structure prediction by ZEFSAII (Michael W. Deem and Ramdas Pophale) SiO2 
 PCOD9257840
Probable space group: C 2/C
;
_chemical_formula_sum "Si O2"
_cell_formula_units_Z 60
_cell_length_a 16.749129
_cell_length_b 7.773215
_cell_length_c 22.162812
_cell_angle_alpha 90.000000
_cell_angle_beta 93.871464
_cell_angle_gamma 90.000000
_cell_volume 2878.893443
_symmetry_space_group_name_H-M "C 2/C"
_symmetry_group_IT_number 15
_symmetry_cell_setting 'monoclinic'
loop_
_space_group_symop_operation_xyz
x,y,z
-x,y,1/2-z
-x,-y,-z
x,-y,1/2+z
1/2+x,1/2+y,z
1/2-x,1/2+y,1/2-z
1/2-x,1/2-y,-z
1/2+x,1/2-y,1/2+z
loop_
_atom_site_type_symbol
_atom_site_label
_atom_site_fract_x
_atom_site_fract_y
_atom_site_fract_z
Si Si1 0.074611 0.128833 0.166386
Si Si2 0.825208 0.453317 0.210883
Si Si3 0.142611 0.893234 0.406838
Si Si4 0.830317 0.852067 0.491855
Si Si5 0.726725 0.354977 0.601991
Si Si6 0.000000 0.601600 0.750000
Si Si7 0.176048 0.044558 0.281907
Si Si8 0.017160 0.122480 0.558403
O O1 0.151155 0.211328 0.136518
O O2 0.019278 0.272342 0.194133
O O3 0.114304 0.024271 0.223590
O O4 0.035908 0.999956 0.116582
O O5 0.787533 0.549027 0.151272
O O6 0.917391 0.497031 0.231327
O O7 0.763765 0.494771 0.262128
O O8 0.823519 0.246998 0.202141
O O9 0.223664 0.794830 0.426029
O O10 0.147451 0.933383 0.336596
O O11 0.065395 0.789012 0.426315
O O12 0.141454 0.072202 0.442867
O O13 0.750000 0.750000 0.500000
O O14 0.905467 0.770044 0.459365
O O15 0.807223 0.011126 0.447591
O O16 0.000000 0.000000 0.500000
#
# Coordination Sequence:
#
# PCOD9257840 Si02
#       8
#     8   8   8   8   8   4   8   8
#     4   9  18  33  53  77 109 145 179 212 265 330
#     4  10  20  35  54  80 111 142 180 221 267 320
#     4  11  20  35  57  81 107 141 180 223 270 318
#     4  10  21  38  58  79 105 142 182 222 268 323
#     4  10  21  38  55  78 109 144 181 221 267 325
#     4  10  18  32  54  82 108 140 176 226 272 306
#     4  10  19  33  56  80 107 145 181 218 266 322
#     4   9  19  34  54  80 108 139 179 221 266 323
#
# _framework density 20.841341
#
# number of rings (size 3 to 8) (size 9 to 14) (size 15 to 20)
#    0.000    2.133    0.000    5.200    0.000    1.067 
#    0.000    8.667    0.000    0.800    0.000    0.000 
#    0.000    0.000    0.000    0.000    0.000    0.000 
#
# Total GULP energy -167335.872797 kJ/mol
# GULP energy per Si atom -5577.862427 kJ/mol
# Density = 2.079390 g / cm^3
# Si number density = 20.841341 Si / 1000 Ang^3
#
#
#
# Elastic Constant Matrix: (Units=GPa)
#
#
# Indices 1 2 3 4 5 6 
#
# 1 121.3018 -2.6167 38.9332 0.0000 -30.2995 0.0000
# 2 -2.6167 14.4898 -1.4198 0.0000 -7.1954 0.0000
# 3 38.9332 -1.4198 103.2449 0.0000 -9.9733 0.0000
# 4 0.0000 0.0000 0.0000 17.8538 0.0000 -7.5703
# 5 -30.2995 -7.1954 -9.9733 0.0000 39.7774 0.0000
# 6 0.0000 0.0000 0.0000 -7.5703 0.0000 29.9813
#
#
#
# Elastic Compliance Matrix: (Units=1/GPa)
#
#
# Indices 1 2 3 4 5 6 
#
# 1 0.011816 0.006407 -0.003470 0.000000 0.009290 0.000000
# 2 0.006407 0.079897 0.000564 0.000000 0.019474 0.000000
# 3 -0.003470 0.000564 0.011024 0.000000 0.000222 0.000000
# 4 0.000000 0.000000 0.000000 0.062726 0.000000 0.015838
# 5 0.009290 0.019474 0.000222 0.000000 0.035795 0.000000
# 6 0.000000 0.000000 0.000000 0.015838 0.000000 0.037353
#
#
# Mechanical properties :
#
#
# Convention : Reuss Voigt Hill
#
# Bulk Modulus (GPa) = 9.11262 34.31444 21.71353
# Shear Modulus (GPa) = 18.64351 31.13183 24.88767
#
# Velocity S-wave (km/s) = 2.99414 3.86910 3.45940
# Velocity P-wave (km/s) = 4.04166 6.03824 5.13787
#
# Compressibility (1/GPa) = 0.10973798
#
# Stress axis : x y z
#
# Youngs Moduli (GPa) = 84.62781 12.51611 90.71417
#
# Poissons Ratio (x) = -0.08019 0.31482
# Poissons Ratio (y) = -0.54221 -0.05115
# Poissons Ratio (z) = 0.29370 -0.00706
#
# Static dielectric constant tensor:
#      x y z
#    x 1.841080 0.000000 -0.017520 
#    y 0.000000 1.737780 0.000000 
#    z -0.017520 0.000000 1.750040 
# 
# From -- ./inp_files/272714.got.cif
#   From: 2010.05.17/outbox.cif.g08.bks.cpg/sg15_137_cif.got.tgz:272714.got - 2010.06.03 18:47:42.
