data_PCOD9257675
_publ_section_title
;
Structure prediction by ZEFSAII (Michael W. Deem and Ramdas Pophale) SiO2 
 PCOD9257675
Probable space group: C 2/C
;
_chemical_formula_sum "Si O2"
_cell_formula_units_Z 40
_cell_length_a 22.171970
_cell_length_b 13.277743
_cell_length_c 5.422783
_cell_angle_alpha 90.000000
_cell_angle_beta 69.691372
_cell_angle_gamma 90.000000
_cell_volume 1497.193666
_symmetry_space_group_name_H-M "C 2/C"
_symmetry_group_IT_number 15
_symmetry_cell_setting 'monoclinic'
loop_
_space_group_symop_operation_xyz
x,y,z
-x,y,1/2-z
-x,-y,-z
x,-y,1/2+z
1/2+x,1/2+y,z
1/2-x,1/2+y,1/2-z
1/2-x,1/2-y,-z
1/2+x,1/2-y,1/2+z
loop_
_atom_site_type_symbol
_atom_site_label
_atom_site_fract_x
_atom_site_fract_y
_atom_site_fract_z
Si Si1 0.028942 0.385220 0.962656
Si Si2 0.251268 0.125262 0.771007
Si Si3 0.569275 0.619920 0.542827
Si Si4 0.118375 0.100244 0.967438
Si Si5 0.819886 0.654952 0.166095
O O1 0.105495 0.370821 0.881932
O O2 0.000000 0.343163 0.750000
O O3 0.000000 0.337262 0.250000
O O4 0.000000 0.500000 0.000000
O O5 0.189269 0.057245 0.911440
O O6 0.211991 0.232823 0.825450
O O7 0.283221 0.115511 0.460575
O O8 0.301268 0.112691 0.922330
O O9 0.500000 0.640155 0.750000
O O10 0.614687 0.652111 0.704850
O O11 0.575206 0.499295 0.499177
O O12 0.592398 0.659005 0.243882
#
# Coordination Sequence:
#
# PCOD9257675 Si02
#       5
#     8   8   8   8   8
#     4  10  21  40  62  87 118 154 195 244 301 363
#     4  10  21  37  60  84 111 151 192 238 293 346
#     4  10  19  33  50  71 111 149 174 222 278 325
#     4  10  18  32  51  77 105 137 189 229 269 339
#     4  10  21  40  60  81 115 151 188 240 295 348
#
# _framework density 26.716653000000001
#
# number of rings (size 3 to 8) (size 9 to 14) (size 15 to 20)
#    0.000    2.000    0.000    5.400    0.000    0.000 
#    0.000   28.000    0.000    0.000    0.000    0.000 
#    0.000    0.000    0.000    0.000    0.000    0.000 
#
# Total GULP energy -111712.422184 kJ/mol
# GULP energy per Si atom -5585.621109 kJ/mol
# Density = 2.665585 g / cm^3
# Si number density = 26.716653 Si / 1000 Ang^3
#
#
#
# Elastic Constant Matrix: (Units=GPa)
#
#
# Indices 1 2 3 4 5 6 
#
# 1 230.8960 51.4488 76.5503 0.0000 7.5417 0.0000
# 2 51.4488 103.8044 25.1496 0.0000 -2.5582 0.0000
# 3 76.5503 25.1496 218.9836 0.0000 19.0377 0.0000
# 4 0.0000 0.0000 0.0000 -28.3907 0.0000 -9.3112
# 5 7.5417 -2.5582 19.0377 0.0000 72.6007 0.0000
# 6 0.0000 0.0000 0.0000 -9.3112 0.0000 23.7743
#
#
#
# Elastic Compliance Matrix: (Units=1/GPa)
#
#
# Indices 1 2 3 4 5 6 
#
# 1 0.005377 -0.002283 -0.001598 0.000000 -0.000220 0.000000
# 2 -0.002283 0.010910 -0.000521 0.000000 0.000758 0.000000
# 3 -0.001598 -0.000521 0.005293 0.000000 -0.001240 0.000000
# 4 0.000000 0.000000 0.000000 -0.031214 0.000000 -0.012225
# 5 -0.000220 0.000758 -0.001240 0.000000 0.014149 0.000000
# 6 0.000000 0.000000 0.000000 -0.012225 0.000000 0.037274
#
#
# Mechanical properties :
#
#
# Convention : Reuss Voigt Hill
#
# Bulk Modulus (GPa) = 78.27573 95.55349 86.91461
# Shear Modulus (GPa) = 91.15481 40.29923 65.72702
#
# Velocity S-wave (km/s) = 5.84749 3.88802 4.96537
# Velocity P-wave (km/s) = 8.65754 7.48323 8.09172
#
# Compressibility (1/GPa) = 0.01277535
#
# Stress axis : x y z
#
# Youngs Moduli (GPa) = 185.98677 91.65959 188.93312
#
# Poissons Ratio (x) = 0.20927 0.30196
# Poissons Ratio (y) = 0.42462 0.09839
# Poissons Ratio (z) = 0.29725 0.04774
#
# Static dielectric constant tensor:
#      x y z
#    x 2.286510 0.000000 0.113820 
#    y 0.000000 1.656240 0.000000 
#    z 0.113820 0.000000 2.077410 
# 
# From -- ./inp_files/10513.got.cif
#   From: 2010.05.17/outbox.cif.g08.bks.cpg/sg15_6_cif.got.tgz:10513.got - 2010.06.03 18:47:42.
