data_PCOD9257502
_publ_section_title
;
Structure prediction by ZEFSAII (Michael W. Deem and Ramdas Pophale) SiO2 
 PCOD9257502
Probable space group: C 2/C
;
_chemical_formula_sum "Si O2"
_cell_formula_units_Z 56
_cell_length_a 14.318769
_cell_length_b 13.939527
_cell_length_c 31.793723
_cell_angle_alpha 90.000000
_cell_angle_beta 151.991594
_cell_angle_gamma 90.000000
_cell_volume 2980.054518
_symmetry_space_group_name_H-M "C 2/C"
_symmetry_group_IT_number 15
_symmetry_cell_setting 'monoclinic'
loop_
_space_group_symop_operation_xyz
x,y,z
-x,y,1/2-z
-x,-y,-z
x,-y,1/2+z
1/2+x,1/2+y,z
1/2-x,1/2+y,1/2-z
1/2-x,1/2-y,-z
1/2+x,1/2-y,1/2+z
loop_
_atom_site_type_symbol
_atom_site_label
_atom_site_fract_x
_atom_site_fract_y
_atom_site_fract_z
Si Si1 0.155079 0.382658 0.143040
Si Si2 0.500000 0.243801 0.250000
Si Si3 0.000000 0.750095 0.750000
Si Si4 0.806708 0.419283 0.877051
Si Si5 0.538340 0.793443 0.860623
Si Si6 0.216442 0.089582 0.435236
Si Si7 0.256866 0.892343 0.481498
Si Si8 0.905021 0.740407 0.801114
O O1 0.310648 0.311349 0.183531
O O2 0.232486 0.491526 0.169397
O O3 0.120379 0.344585 0.175944
O O4 0.939556 0.378614 0.035628
O O5 0.459705 0.191317 0.189107
O O6 0.186582 0.822151 0.822793
O O7 0.020846 0.698639 0.713999
O O8 0.735877 0.448692 0.895287
O O9 0.039465 0.398031 0.964600
O O10 0.619581 0.687609 0.905509
O O11 0.308964 0.793339 0.784100
O O12 0.671428 0.862038 0.943218
O O13 0.066111 0.178369 0.377785
O O14 0.163281 0.998037 0.442534
#
# Coordination Sequence:
#
# PCOD9257502 Si02
#       8
#     8   4   4   8   8   8   8   8
#     4  10  19  33  54  85 112 142 179 232 285 332
#     4  10  19  32  54  83 112 144 192 221 270 338
#     4  10  19  34  52  85 114 144 184 231 278 330
#     4  10  18  31  56  82 110 139 179 235 282 324
#     4  10  20  35  54  81 112 149 187 236 276 336
#     4  10  20  34  56  84 114 140 181 237 292 333
#     4  10  19  34  55  81 113 143 187 230 289 330
#     4  10  21  34  53  81 117 149 179 228 288 342
#
# _framework density 18.791604
#
# number of rings (size 3 to 8) (size 9 to 14) (size 15 to 20)
#    0.000    2.000    1.429    4.286    0.000    3.429 
#    0.000    0.000    0.000    6.857    0.000    0.000 
#    0.000    0.000    0.000    0.000    0.000    0.000 
#
# Total GULP energy -156068.396917 kJ/mol
# GULP energy per Si atom -5573.871318 kJ/mol
# Density = 1.874883 g / cm^3
# Si number density = 18.791604 Si / 1000 Ang^3
#
#
#
# Elastic Constant Matrix: (Units=GPa)
#
#
# Indices 1 2 3 4 5 6 
#
# 1 124.7241 32.1943 31.0337 0.0002 -27.4588 0.0001
# 2 32.1943 39.5336 16.9635 0.0004 -15.5797 0.0002
# 3 31.0337 16.9635 65.5729 -0.0016 -10.6771 -0.0006
# 4 0.0002 0.0004 -0.0016 16.9875 0.0004 -4.0307
# 5 -27.4588 -15.5797 -10.6771 0.0004 37.5352 0.0001
# 6 0.0001 0.0002 -0.0006 -4.0307 0.0001 26.1371
#
#
#
# Elastic Compliance Matrix: (Units=1/GPa)
#
#
# Indices 1 2 3 4 5 6 
#
# 1 0.011431 -0.006039 -0.003035 0.000000 0.004992 0.000000
# 2 -0.006039 0.035918 -0.004955 -0.000002 0.009081 -0.000001
# 3 -0.003035 -0.004955 0.018111 0.000002 0.000875 0.000001
# 4 0.000000 -0.000002 0.000002 0.061103 -0.000001 0.009423
# 5 0.004992 0.009081 0.000875 -0.000001 0.034312 0.000000
# 6 0.000000 -0.000001 0.000001 0.009423 0.000000 0.039713
#
#
# Mechanical properties :
#
#
# Convention : Reuss Voigt Hill
#
# Bulk Modulus (GPa) = 26.73683 43.35709 35.04696
# Shear Modulus (GPa) = 20.73730 26.10789 23.42260
#
# Velocity S-wave (km/s) = 3.32556 3.73143 3.53433
# Velocity P-wave (km/s) = 5.38561 6.45658 5.94526
#
# Compressibility (1/GPa) = 0.03740160
#
# Stress axis : x y z
#
# Youngs Moduli (GPa) = 87.48386 27.84138 55.21581
#
# Poissons Ratio (x) = 0.16814 0.16756
# Poissons Ratio (y) = 0.52833 0.27360
# Poissons Ratio (z) = 0.26548 0.13796
#
# Static dielectric constant tensor:
#      x y z
#    x 1.672860 0.000000 -0.049220 
#    y 0.000000 1.663840 0.000000 
#    z -0.049220 0.000000 1.738730 
# 
# From -- ./inp_files/153487.got.cif
#   From: 2010.05.17/outbox.cif.g08.bks.cpg/sg15_77_cif.got.tgz:153487.got - 2010.06.03 18:47:42.
