data_PCOD9257210
_publ_section_title
;
Structure prediction by ZEFSAII (Michael W. Deem and Ramdas Pophale) SiO2 
 PCOD9257210
Probable space group: C 2/C
;
_chemical_formula_sum "Si O2"
_cell_formula_units_Z 48
_cell_length_a 15.368535
_cell_length_b 17.836157
_cell_length_c 7.504277
_cell_angle_alpha 90.000000
_cell_angle_beta 104.650673
_cell_angle_gamma 90.000000
_cell_volume 1990.156547
_symmetry_space_group_name_H-M "C 2/C"
_symmetry_group_IT_number 15
_symmetry_cell_setting 'monoclinic'
loop_
_space_group_symop_operation_xyz
x,y,z
-x,y,1/2-z
-x,-y,-z
x,-y,1/2+z
1/2+x,1/2+y,z
1/2-x,1/2+y,1/2-z
1/2-x,1/2-y,-z
1/2+x,1/2-y,1/2+z
loop_
_atom_site_type_symbol
_atom_site_label
_atom_site_fract_x
_atom_site_fract_y
_atom_site_fract_z
Si Si1 0.950809 0.585548 0.561379
Si Si2 0.374161 0.759327 0.183475
Si Si3 0.244586 0.549972 0.087004
Si Si4 0.926172 0.308322 0.574114
Si Si5 0.231589 0.117947 0.031046
Si Si6 0.811952 0.170118 0.849749
O O1 0.908938 0.661879 0.623964
O O2 0.862747 0.549442 0.434119
O O3 0.000000 0.544423 0.750000
O O4 0.026501 0.614585 0.468860
O O5 0.418761 0.753980 0.399214
O O6 0.269466 0.769926 0.180389
O O7 0.383490 0.700756 0.028758
O O8 0.289087 0.595240 0.275438
O O9 0.264857 0.464073 0.058380
O O10 0.271830 0.595981 0.923854
O O11 0.826817 0.336336 0.581808
O O12 0.000000 0.278641 0.750000
O O13 0.170111 0.160444 0.850854
#
# Coordination Sequence:
#
# PCOD9257210 Si02
#       6
#     8   8   8   8   8   8
#     4   9  18  31  47  66  95 132 166 200 240 283
#     4   8  17  33  50  64  92 130 162 215 247 282
#     4  11  20  32  47  70 100 137 167 202 238 286
#     4  10  18  31  45  71 100 126 167 201 236 291
#     4  11  21  31  48  70 101 138 167 200 240 286
#     4   9  18  35  48  67  95 127 172 207 248 287
#
# _framework density 24.118707000000001
#
# number of rings (size 3 to 8) (size 9 to 14) (size 15 to 20)
#    0.000    2.333    3.333    1.000    0.000    1.333 
#    3.000    3.333    0.000    0.000    0.000    0.000 
#    0.000   17.333    0.000    0.000    0.000    0.000 
#
# Total GULP energy -133866.854139 kJ/mol
# GULP energy per Si atom -5577.785589 kJ/mol
# Density = 2.406381 g / cm^3
# Si number density = 24.118707 Si / 1000 Ang^3
#
#
#
# Elastic Constant Matrix: (Units=GPa)
#
#
# Indices 1 2 3 4 5 6 
#
# 1 37.0593 15.5390 13.4569 0.0000 -15.2766 0.0000
# 2 15.5390 76.8870 37.5815 0.0000 1.7499 0.0000
# 3 13.4569 37.5815 193.7240 0.0000 -5.5864 0.0000
# 4 0.0000 0.0000 0.0000 29.0843 0.0000 -7.8325
# 5 -15.2766 1.7499 -5.5864 0.0000 28.0885 0.0000
# 6 0.0000 0.0000 0.0000 -7.8325 0.0000 19.1097
#
#
#
# Elastic Compliance Matrix: (Units=1/GPa)
#
#
# Indices 1 2 3 4 5 6 
#
# 1 0.039716 -0.008274 -0.000519 0.000000 0.022013 0.000000
# 2 -0.008274 0.016152 -0.002733 0.000000 -0.006050 0.000000
# 3 -0.000519 -0.002733 0.005758 0.000000 0.001033 0.000000
# 4 0.000000 0.000000 0.000000 0.038649 0.000000 0.015841
# 5 0.022013 -0.006050 0.001033 0.000000 0.048156 0.000000
# 6 0.000000 0.000000 0.000000 0.015841 0.000000 0.058822
#
#
# Mechanical properties :
#
#
# Convention : Reuss Voigt Hill
#
# Bulk Modulus (GPa) = 25.92451 48.98056 37.45254
# Shear Modulus (GPa) = 20.56237 31.32935 25.94586
#
# Velocity S-wave (km/s) = 2.92301 3.60803 3.28343
# Velocity P-wave (km/s) = 4.70787 6.14079 5.47144
#
# Compressibility (1/GPa) = 0.03857353
#
# Stress axis : x y z
#
# Youngs Moduli (GPa) = 25.17903 61.91230 173.67038
#
# Poissons Ratio (x) = 0.51226 0.09012
# Poissons Ratio (y) = 0.20833 0.47466
# Poissons Ratio (z) = 0.01307 0.16921
#
# Static dielectric constant tensor:
#      x y z
#    x 1.939780 0.000000 -0.012650 
#    y 0.000000 1.963520 0.000000 
#    z -0.012650 0.000000 2.026600 
# 
# From -- ./inp_files/49431.got.cif
#   From: 2010.05.17/outbox.cif.g08.bks.cpg/sg15_25_cif.got.tgz:49431.got - 2010.06.03 18:47:42.
