data_PCOD9257844
_publ_section_title
;
Structure prediction by ZEFSAII (Michael W. Deem and Ramdas Pophale) SiO2 
 PCOD9257844
Probable space group: C 2/C
;
_chemical_formula_sum "Si O2"
_cell_formula_units_Z 64
_cell_length_a 9.915281
_cell_length_b 19.774501
_cell_length_c 26.357975
_cell_angle_alpha 90.000000
_cell_angle_beta 44.127295
_cell_angle_gamma 90.000000
_cell_volume 3598.245730
_symmetry_space_group_name_H-M "C 2/C"
_symmetry_group_IT_number 15
_symmetry_cell_setting 'monoclinic'
loop_
_space_group_symop_operation_xyz
x,y,z
-x,y,1/2-z
-x,-y,-z
x,-y,1/2+z
1/2+x,1/2+y,z
1/2-x,1/2+y,1/2-z
1/2-x,1/2-y,-z
1/2+x,1/2-y,1/2+z
loop_
_atom_site_type_symbol
_atom_site_label
_atom_site_fract_x
_atom_site_fract_y
_atom_site_fract_z
Si Si1 0.749067 0.784718 0.554715
Si Si2 0.316813 0.703234 0.528197
Si Si3 0.891420 0.943592 0.965477
Si Si4 0.223408 0.443018 0.582707
Si Si5 0.010562 0.242832 0.186373
Si Si6 0.091826 0.282170 0.780579
Si Si7 0.605915 0.583782 0.149196
Si Si8 0.696535 0.928662 0.798735
O O1 0.750000 0.750000 0.500000
O O2 0.716748 0.866205 0.563147
O O3 0.577120 0.755893 0.636611
O O4 0.963029 0.775965 0.519320
O O5 0.250000 0.750000 0.500000
O O6 0.318496 0.625320 0.511100
O O7 0.175444 0.714384 0.614039
O O8 0.807008 0.007489 0.017645
O O9 0.837061 0.940957 0.921441
O O10 0.124392 0.943201 0.911926
O O11 0.006663 0.465007 0.656013
O O12 0.067070 0.164668 0.159078
O O13 0.000000 0.250085 0.250000
O O14 0.794612 0.257624 0.223777
O O15 0.157334 0.353651 0.787209
O O16 0.000000 0.291715 0.750000
O O17 0.757062 0.572498 0.153768
O O18 0.399328 0.549742 0.219199
#
# Coordination Sequence:
#
# PCOD9257844 Si02
#       8
#     8   8   8   8   8   8   8   8
#     4  10  21  35  56  82 111 141 186 233 278 333
#     4  11  21  32  56  84 111 143 183 232 275 331
#     4  10  21  37  55  80 115 145 187 223 279 330
#     4   9  21  37  55  79 110 147 180 233 271 330
#     4  11  19  33  52  80 112 143 178 232 282 327
#     4  10  19  31  51  79 110 141 179 230 278 325
#     4  10  18  32  54  83 107 139 180 233 268 322
#     4   9  19  31  52  81 106 135 185 225 271 320
#
# _framework density 17.786445000000001
#
# number of rings (size 3 to 8) (size 9 to 14) (size 15 to 20)
#    0.000    2.000    3.750    1.500   10.500    0.500 
#    0.000    0.000   11.000    0.000    0.000    0.000 
#    0.000    0.000    0.000    0.000    0.000    0.000 
#
# Total GULP energy -178332.679349 kJ/mol
# GULP energy per Si atom -5572.896230 kJ/mol
# Density = 1.774596 g / cm^3
# Si number density = 17.786445 Si / 1000 Ang^3
#
#
#
# Elastic Constant Matrix: (Units=GPa)
#
#
# Indices 1 2 3 4 5 6 
#
# 1 65.0183 9.7535 7.9465 -0.0013 -5.4054 0.0010
# 2 9.7535 22.7401 -3.4852 -0.0006 -3.8023 0.0004
# 3 7.9465 -3.4852 55.2946 -0.0021 -8.6286 0.0007
# 4 -0.0013 -0.0006 -0.0021 14.8955 0.0019 0.1763
# 5 -5.4054 -3.8023 -8.6286 0.0019 41.2062 -0.0004
# 6 0.0010 0.0004 0.0007 0.1763 -0.0004 13.5109
#
#
#
# Elastic Compliance Matrix: (Units=1/GPa)
#
#
# Indices 1 2 3 4 5 6 
#
# 1 0.016925 -0.007524 -0.002759 0.000001 0.000948 -0.000001
# 2 -0.007524 0.048703 0.004857 0.000001 0.004524 -0.000001
# 3 -0.002759 0.004857 0.019436 0.000002 0.004156 -0.000001
# 4 0.000001 0.000001 0.000002 0.067145 -0.000002 -0.000876
# 5 0.000948 0.004524 0.004156 -0.000002 0.025680 0.000000
# 6 -0.000001 -0.000001 -0.000001 -0.000876 0.000000 0.074026
#
#
# Mechanical properties :
#
#
# Convention : Reuss Voigt Hill
#
# Bulk Modulus (GPa) = 13.47460 19.05365 16.26413
# Shear Modulus (GPa) = 17.39115 22.51175 19.95145
#
# Velocity S-wave (km/s) = 3.13033 3.56148 3.35285
# Velocity P-wave (km/s) = 4.54505 5.25813 4.91454
#
# Compressibility (1/GPa) = 0.07421368
#
# Stress axis : x y z
#
# Youngs Moduli (GPa) = 59.08462 20.53265 51.45073
#
# Poissons Ratio (x) = 0.15448 0.14193
# Poissons Ratio (y) = 0.44452 -0.24989
# Poissons Ratio (z) = 0.16299 -0.09973
#
# Static dielectric constant tensor:
#      x y z
#    x 1.629960 0.000000 -0.061910 
#    y 0.000000 1.588850 0.000000 
#    z -0.061910 0.000000 1.572920 
# 
# From -- ./inp_files/266081.got.cif
#   From: 2010.05.17/outbox.cif.g08.bks.cpg/sg15_134_cif.got.tgz:266081.got - 2010.06.03 18:47:42.
