data_PCOD9257015
_publ_section_title
;
Structure prediction by ZEFSAII (Michael W. Deem and Ramdas Pophale) SiO2 
 PCOD9257015
Probable space group: C 2/C
;
_chemical_formula_sum "Si O2"
_cell_formula_units_Z 56
_cell_length_a 23.212126
_cell_length_b 19.963738
_cell_length_c 5.543825
_cell_angle_alpha 90.000000
_cell_angle_beta 124.113684
_cell_angle_gamma 90.000000
_cell_volume 2126.953677
_symmetry_space_group_name_H-M "C 2/C"
_symmetry_group_IT_number 15
_symmetry_cell_setting 'monoclinic'
loop_
_space_group_symop_operation_xyz
x,y,z
-x,y,1/2-z
-x,-y,-z
x,-y,1/2+z
1/2+x,1/2+y,z
1/2-x,1/2+y,1/2-z
1/2-x,1/2-y,-z
1/2+x,1/2-y,1/2+z
loop_
_atom_site_type_symbol
_atom_site_label
_atom_site_fract_x
_atom_site_fract_y
_atom_site_fract_z
Si Si1 0.500000 0.295418 0.750000
Si Si2 0.853655 0.723137 0.875404
Si Si3 0.701280 0.633448 0.324638
Si Si4 0.242172 0.069170 0.920450
Si Si5 0.000000 0.798445 0.250000
Si Si6 0.598571 0.965815 0.645721
Si Si7 0.384024 0.819130 0.948472
Si Si8 0.101234 0.021136 0.099296
O O1 0.495619 0.335754 0.493393
O O2 0.434571 0.244740 0.596057
O O3 0.810272 0.787921 0.700658
O O4 0.852478 0.673338 0.643484
O O5 0.836486 0.697836 0.104257
O O6 0.933223 0.749424 0.087107
O O7 0.737498 0.607228 0.653590
O O8 0.625293 0.597954 0.154926
O O9 0.731058 0.612684 0.135097
O O10 0.176448 0.018804 0.766198
O O11 0.316763 0.034633 0.132097
O O12 0.580102 0.888375 0.547657
O O13 0.576255 0.992522 0.856085
O O14 0.068018 0.999137 0.270365
#
# Coordination Sequence:
#
# PCOD9257015 Si02
#       8
#     4   8   8   8   4   8   8   8
#     4   8  16  34  56  73 100 135 168 204 258 318
#     4  10  19  35  54  79 107 135 171 212 260 315
#     4  10  18  30  51  76 102 134 174 212 247 299
#     4  10  19  33  50  72 100 137 178 214 246 293
#     4   8  16  30  54  75  98 137 174 206 246 304
#     4  12  23  38  57  77 101 136 179 220 257 306
#     4  10  21  37  55  78 105 136 169 214 266 312
#     4   8  14  25  42  64  88 120 163 203 233 268
#
# _framework density 26.328734000000001
#
# number of rings (size 3 to 8) (size 9 to 14) (size 15 to 20)
#    0.000    2.286    0.000    5.143    0.000    0.000 
#    0.000    5.000    0.000    0.000    0.000    9.000 
#    0.000    0.000    0.000    0.000    0.000    0.000 
#
# Total GULP energy -156637.986897 kJ/mol
# GULP energy per Si atom -5594.213818 kJ/mol
# Density = 2.626881 g / cm^3
# Si number density = 26.328734 Si / 1000 Ang^3
#
#
#
# Elastic Constant Matrix: (Units=GPa)
#
#
# Indices 1 2 3 4 5 6 
#
# 1 98.8656 19.5976 70.8384 0.0000 -20.4128 0.0000
# 2 19.5976 82.6331 57.8977 0.0000 -5.6471 0.0000
# 3 70.8384 57.8977 242.1624 0.0000 -75.0532 0.0000
# 4 0.0000 0.0000 0.0000 33.7890 0.0000 -13.1084
# 5 -20.4128 -5.6471 -75.0532 0.0000 64.0611 0.0000
# 6 0.0000 0.0000 0.0000 -13.1084 0.0000 27.1016
#
#
#
# Elastic Compliance Matrix: (Units=1/GPa)
#
#
# Indices 1 2 3 4 5 6 
#
# 1 0.012819 -0.000433 -0.003756 0.000000 -0.000354 0.000000
# 2 -0.000433 0.015379 -0.004982 0.000000 -0.004619 0.000000
# 3 -0.003756 -0.004982 0.009283 0.000000 0.009240 0.000000
# 4 0.000000 0.000000 0.000000 0.036431 0.000000 0.017621
# 5 -0.000354 -0.004619 0.009240 0.000000 0.025915 0.000000
# 6 0.000000 0.000000 0.000000 0.017621 0.000000 0.045421
#
#
# Mechanical properties :
#
#
# Convention : Reuss Voigt Hill
#
# Bulk Modulus (GPa) = 52.24752 80.03650 66.14201
# Shear Modulus (GPa) = 29.41691 43.34550 36.38121
#
# Velocity S-wave (km/s) = 3.34622 4.06189 3.72130
# Velocity P-wave (km/s) = 5.90059 7.24317 6.60607
#
# Compressibility (1/GPa) = 0.01913967
#
# Stress axis : x y z
#
# Youngs Moduli (GPa) = 78.01118 65.02241 107.72313
#
# Poissons Ratio (x) = 0.02813 0.40462
# Poissons Ratio (y) = 0.03374 0.53668
# Poissons Ratio (z) = 0.29302 0.32394
#
# Static dielectric constant tensor:
#      x y z
#    x 2.173790 0.000000 -0.000890 
#    y 0.000000 2.022920 0.000000 
#    z -0.000890 0.000000 2.072400 
# 
# From -- ./inp_files/18489.got.cif
#   From: 2010.05.17/outbox.cif.g08.bks.cpg/sg15_10_cif.got.tgz:18489.got - 2010.06.03 18:47:42.
