data_PCOD9257457
_publ_section_title
;
Structure prediction by ZEFSAII (Michael W. Deem and Ramdas Pophale) SiO2 
 PCOD9257457
Probable space group: C 2/C
;
_chemical_formula_sum "Si O2"
_cell_formula_units_Z 48
_cell_length_a 16.795761
_cell_length_b 13.623985
_cell_length_c 9.635475
_cell_angle_alpha 90.000000
_cell_angle_beta 51.010090
_cell_angle_gamma 90.000000
_cell_volume 1713.726404
_symmetry_space_group_name_H-M "C 2/C"
_symmetry_group_IT_number 15
_symmetry_cell_setting 'monoclinic'
loop_
_space_group_symop_operation_xyz
x,y,z
-x,y,1/2-z
-x,-y,-z
x,-y,1/2+z
1/2+x,1/2+y,z
1/2-x,1/2+y,1/2-z
1/2-x,1/2-y,-z
1/2+x,1/2-y,1/2+z
loop_
_atom_site_type_symbol
_atom_site_label
_atom_site_fract_x
_atom_site_fract_y
_atom_site_fract_z
Si Si1 0.907792 0.602147 0.445166
Si Si2 0.766517 0.609656 0.846174
Si Si3 0.697333 0.573763 0.554569
Si Si4 0.084670 0.209110 0.865657
Si Si5 0.595639 0.132118 0.557672
Si Si6 0.054080 0.077238 0.340728
O O1 0.869297 0.623789 0.642340
O O2 0.802372 0.623673 0.481592
O O3 0.919707 0.484389 0.435244
O O4 0.000000 0.643824 0.250000
O O5 0.670452 0.661711 0.877926
O O6 0.804399 0.647225 0.955083
O O7 0.732535 0.493967 0.886844
O O8 0.614459 0.658167 0.685787
O O9 0.656424 0.481145 0.690434
O O10 0.096781 0.320386 0.904328
O O11 0.971791 0.173597 0.041410
O O12 0.500000 0.173677 0.750000
O O13 0.000000 0.086319 0.250000
O O14 0.000000 0.000000 0.500000
#
# Coordination Sequence:
#
# PCOD9257457 Si02
#       6
#     8   8   8   8   8   8
#     4   9  20  37  57  83 114 151 205 245 292 351
#     4  10  19  36  59  81 112 158 205 239 291 362
#     4   9  19  32  55  88 110 156 191 239 291 354
#     4  10  19  34  54  83 123 146 195 246 298 353
#     4  10  21  33  53  85 112 149 194 251 300 341
#     4  10  18  31  54  84 118 155 192 238 292 358
#
# _framework density 28.009138
#
# number of rings (size 3 to 8) (size 9 to 14) (size 15 to 20)
#    0.000    2.333    1.667    1.000    0.000    6.000 
#    0.000    0.833    0.000    0.000    0.000    8.167 
#    0.000    0.000    0.000    0.000    0.000    0.000 
#
# Total GULP energy -133714.909272 kJ/mol
# GULP energy per Si atom -5571.454553 kJ/mol
# Density = 2.794539 g / cm^3
# Si number density = 28.009138 Si / 1000 Ang^3
#
#
#
# Elastic Constant Matrix: (Units=GPa)
#
#
# Indices 1 2 3 4 5 6 
#
# 1 84.9019 -0.8424 34.3754 0.0000 16.2696 0.0000
# 2 -0.8424 92.5765 36.1768 0.0000 -5.8199 0.0000
# 3 34.3754 36.1768 197.7312 0.0000 -16.7323 0.0000
# 4 0.0000 0.0000 0.0000 18.2232 0.0000 -9.6571
# 5 16.2696 -5.8199 -16.7323 0.0000 47.9492 0.0000
# 6 0.0000 0.0000 0.0000 -9.6571 0.0000 24.0795
#
#
#
# Elastic Compliance Matrix: (Units=1/GPa)
#
#
# Indices 1 2 3 4 5 6 
#
# 1 0.014164 0.000990 -0.003132 0.000000 -0.005779 0.000000
# 2 0.000990 0.011725 -0.002293 0.000000 0.000287 0.000000
# 3 -0.003132 -0.002293 0.006273 0.000000 0.002974 0.000000
# 4 0.000000 0.000000 0.000000 0.069685 0.000000 0.027947
# 5 -0.005779 0.000287 0.002974 0.000000 0.023889 0.000000
# 6 0.000000 0.000000 0.000000 0.027947 0.000000 0.052737
#
#
# Mechanical properties :
#
#
# Convention : Reuss Voigt Hill
#
# Bulk Modulus (GPa) = 42.93611 57.18103 50.05857
# Shear Modulus (GPa) = 25.62678 38.41704 32.02191
#
# Velocity S-wave (km/s) = 3.02809 3.70752 3.38489
# Velocity P-wave (km/s) = 5.25246 6.22792 5.76087
#
# Compressibility (1/GPa) = 0.02329042
#
# Stress axis : x y z
#
# Youngs Moduli (GPa) = 70.60254 85.28803 159.41090
#
# Poissons Ratio (x) = -0.08441 0.49935
# Poissons Ratio (y) = -0.06987 0.36552
# Poissons Ratio (z) = 0.22116 0.19556
#
# Static dielectric constant tensor:
#      x y z
#    x 2.286410 0.000000 0.020500 
#    y 0.000000 2.186200 0.000000 
#    z 0.020500 0.000000 2.299400 
# 
# From -- ./inp_files/112928.got.cif
#   From: 2010.05.17/outbox.cif.g08.bks.cpg/sg15_57_cif.got.tgz:112928.got - 2010.06.03 18:47:42.
