data_PCOD9257075
_publ_section_title
;
Structure prediction by ZEFSAII (Michael W. Deem and Ramdas Pophale) SiO2 
 PCOD9257075
Probable space group: C 2/C
;
_chemical_formula_sum "Si O2"
_cell_formula_units_Z 40
_cell_length_a 28.789505
_cell_length_b 6.947850
_cell_length_c 9.052958
_cell_angle_alpha 90.000000
_cell_angle_beta 125.895889
_cell_angle_gamma 90.000000
_cell_volume 1466.915294
_symmetry_space_group_name_H-M "C 2/C"
_symmetry_group_IT_number 15
_symmetry_cell_setting 'monoclinic'
loop_
_space_group_symop_operation_xyz
x,y,z
-x,y,1/2-z
-x,-y,-z
x,-y,1/2+z
1/2+x,1/2+y,z
1/2-x,1/2+y,1/2-z
1/2-x,1/2-y,-z
1/2+x,1/2-y,1/2+z
loop_
_atom_site_type_symbol
_atom_site_label
_atom_site_fract_x
_atom_site_fract_y
_atom_site_fract_z
Si Si1 0.173642 0.394467 0.759532
Si Si2 0.373517 0.327371 0.874024
Si Si3 0.962906 0.250417 0.320462
Si Si4 0.566545 0.801083 0.729314
Si Si5 0.750751 0.584101 0.377928
O O1 0.149368 0.607735 0.679392
O O2 0.117044 0.282619 0.702372
O O3 0.212634 0.347492 0.692698
O O4 0.213839 0.414812 0.978336
O O5 0.408437 0.358657 0.787602
O O6 0.315647 0.449942 0.783626
O O7 0.414930 0.316004 0.092137
O O8 0.941225 0.469751 0.246505
O O9 0.000000 0.184039 0.250000
O O10 0.007668 0.252058 0.539419
O O11 0.750000 0.750000 0.500000
#
# Coordination Sequence:
#
# PCOD9257075 Si02
#       5
#     8   8   8   8   8
#     4  10  19  36  53  80 115 147 183 234 273 332
#     4  10  20  34  51  80 116 149 184 221 277 339
#     4  10  19  29  51  82 113 145 177 227 290 340
#     4  10  18  30  53  78 115 146 174 226 295 338
#     4  10  22  36  55  79 116 151 190 224 275 340
#
# _framework density 27.268101999999999
#
# number of rings (size 3 to 8) (size 9 to 14) (size 15 to 20)
#    0.000    2.000    2.000    4.200    5.600    0.800 
#    0.000    0.000    0.000    0.000    0.000    9.800 
#    0.000    0.000    0.000    0.000    0.000    0.000 
#
# Total GULP energy -112126.629690 kJ/mol
# GULP energy per Si atom -5606.331484 kJ/mol
# Density = 2.720604 g / cm^3
# Si number density = 27.268102 Si / 1000 Ang^3
#
#
#
# Elastic Constant Matrix: (Units=GPa)
#
#
# Indices 1 2 3 4 5 6 
#
# 1 299.3257 49.3652 56.7277 0.0000 -18.4775 0.0000
# 2 49.3652 73.7159 20.5795 0.0000 5.4225 0.0000
# 3 56.7277 20.5795 142.0152 0.0000 1.7673 0.0000
# 4 0.0000 0.0000 0.0000 18.7833 0.0000 -0.7560
# 5 -18.4775 5.4225 1.7673 0.0000 49.8136 0.0000
# 6 0.0000 0.0000 0.0000 -0.7560 0.0000 40.7870
#
#
#
# Elastic Compliance Matrix: (Units=1/GPa)
#
#
# Indices 1 2 3 4 5 6 
#
# 1 0.004119 -0.002531 -0.001302 0.000000 0.001850 0.000000
# 2 -0.002531 0.015801 -0.001246 0.000000 -0.002615 0.000000
# 3 -0.001302 -0.001246 0.007750 0.000000 -0.000622 0.000000
# 4 0.000000 0.000000 0.000000 0.053278 0.000000 0.000988
# 5 0.001850 -0.002615 -0.000622 0.000000 0.021068 0.000000
# 6 0.000000 0.000000 0.000000 0.000988 0.000000 0.024536
#
#
# Mechanical properties :
#
#
# Convention : Reuss Voigt Hill
#
# Bulk Modulus (GPa) = 57.10374 85.37798 71.24086
# Shear Modulus (GPa) = 35.07621 47.76907 41.42264
#
# Velocity S-wave (km/s) = 3.59046 4.19003 3.90178
# Velocity P-wave (km/s) = 6.17864 7.40182 6.81772
#
# Compressibility (1/GPa) = 0.01751199
#
# Stress axis : x y z
#
# Youngs Moduli (GPa) = 242.76912 63.28782 129.03656
#
# Poissons Ratio (x) = 0.16019 0.16796
# Poissons Ratio (y) = 0.61448 0.16079
# Poissons Ratio (z) = 0.31599 0.07886
#
# Static dielectric constant tensor:
#      x y z
#    x 2.076240 0.000000 0.036400 
#    y 0.000000 2.262750 0.000000 
#    z 0.036400 0.000000 2.096160 
# 
# From -- ./inp_files/54038.got.cif
#   From: 2010.05.17/outbox.cif.g08.bks.cpg/sg15_28_cif.got.tgz:54038.got - 2010.06.03 18:47:42.
