data_PCOD9257817
_publ_section_title
;
Structure prediction by ZEFSAII (Michael W. Deem and Ramdas Pophale) SiO2 
 PCOD9257817
Probable space group: C 2/C
;
_chemical_formula_sum "Si O2"
_cell_formula_units_Z 48
_cell_length_a 9.329327
_cell_length_b 14.653091
_cell_length_c 21.050763
_cell_angle_alpha 90.000000
_cell_angle_beta 46.824048
_cell_angle_gamma 90.000000
_cell_volume 2098.588763
_symmetry_space_group_name_H-M "C 2/C"
_symmetry_group_IT_number 15
_symmetry_cell_setting 'monoclinic'
loop_
_space_group_symop_operation_xyz
x,y,z
-x,y,1/2-z
-x,-y,-z
x,-y,1/2+z
1/2+x,1/2+y,z
1/2-x,1/2+y,1/2-z
1/2-x,1/2-y,-z
1/2+x,1/2-y,1/2+z
loop_
_atom_site_type_symbol
_atom_site_label
_atom_site_fract_x
_atom_site_fract_y
_atom_site_fract_z
Si Si1 0.762621 0.941441 0.821209
Si Si2 0.211975 0.946674 0.308093
Si Si3 0.693544 0.251614 0.279612
Si Si4 0.799097 0.944907 0.567644
Si Si5 0.730337 0.052697 0.949999
Si Si6 0.230495 0.742321 0.887412
O O1 0.711656 0.841148 0.812685
O O2 0.000000 0.943021 0.750000
O O3 0.714167 0.015098 0.781418
O O4 0.686948 0.972882 0.912996
O O5 0.259581 0.840053 0.298954
O O6 0.972030 0.947837 0.378694
O O7 0.285390 0.012415 0.342026
O O8 0.802601 0.252793 0.178273
O O9 0.464372 0.258904 0.330122
O O10 0.677883 0.957709 0.539809
O O11 0.842684 0.837500 0.561445
O O12 0.000000 0.000000 0.500000
O O13 0.661520 0.149279 0.941481
#
# Coordination Sequence:
#
# PCOD9257817 Si02
#       6
#     8   8   8   8   8   8
#     4  10  18  33  53  76 105 137 175 210 255 311
#     4   9  17  32  52  75 106 134 173 217 253 303
#     4  10  19  32  53  79 103 135 174 221 261 296
#     4  10  19  32  53  81 107 136 171 214 260 311
#     4   9  18  31  53  78 100 135 174 217 260 301
#     4  10  18  32  54  79 104 131 175 224 258 297
#
# _framework density 22.872515
#
# number of rings (size 3 to 8) (size 9 to 14) (size 15 to 20)
#    0.000    2.333    3.333    0.500    0.000    0.000 
#    0.000    3.333    0.000    0.000    0.000    0.000 
#    0.000    0.000    0.000    0.000    0.000    0.000 
#
# Total GULP energy -134116.942826 kJ/mol
# GULP energy per Si atom -5588.205951 kJ/mol
# Density = 2.282046 g / cm^3
# Si number density = 22.872515 Si / 1000 Ang^3
#
#
#
# Elastic Constant Matrix: (Units=GPa)
#
#
# Indices 1 2 3 4 5 6 
#
# 1 61.2128 44.8743 26.0360 0.0000 21.7353 0.0000
# 2 44.8743 190.8628 57.0642 0.0000 37.7923 0.0001
# 3 26.0360 57.0642 97.9414 0.0002 30.4780 -0.0003
# 4 0.0000 0.0000 0.0002 34.2698 -0.0001 1.4931
# 5 21.7353 37.7923 30.4780 -0.0001 43.4781 0.0002
# 6 0.0000 0.0001 -0.0003 1.4931 0.0002 25.1477
#
#
#
# Elastic Compliance Matrix: (Units=1/GPa)
#
#
# Indices 1 2 3 4 5 6 
#
# 1 0.021928 -0.003259 -0.001791 0.000000 -0.006874 0.000000
# 2 -0.003259 0.007343 -0.002472 0.000000 -0.003021 0.000000
# 3 -0.001791 -0.002472 0.014298 0.000000 -0.006979 0.000000
# 4 0.000000 0.000000 0.000000 0.029256 0.000000 -0.001737
# 5 -0.006874 -0.003021 -0.006979 0.000000 0.033954 0.000000
# 6 0.000000 0.000000 0.000000 -0.001737 0.000000 0.039868
#
#
# Mechanical properties :
#
#
# Convention : Reuss Voigt Hill
#
# Bulk Modulus (GPa) = 35.05730 67.32954 51.19342
# Shear Modulus (GPa) = 29.20559 35.38196 32.29378
#
# Velocity S-wave (km/s) = 3.57723 3.93736 3.76161
# Velocity P-wave (km/s) = 5.69409 7.08316 6.42627
#
# Compressibility (1/GPa) = 0.02852473
#
# Stress axis : x y z
#
# Youngs Moduli (GPa) = 45.60338 136.18964 69.93816
#
# Poissons Ratio (x) = 0.44384 0.12529
# Poissons Ratio (y) = 0.14862 0.17288
# Poissons Ratio (z) = 0.08170 0.33664
#
# Static dielectric constant tensor:
#      x y z
#    x 1.902800 0.000000 -0.034420 
#    y 0.000000 1.798270 0.000000 
#    z -0.034420 0.000000 1.912020 
# 
# From -- ./inp_files/196214.got.cif
#   From: 2010.05.17/outbox.cif.g08.bks.cpg/sg15_99_cif.got.tgz:196214.got - 2010.06.03 18:47:42.
