data_PCOD9257944
_publ_section_title
;
Structure prediction by ZEFSAII (Michael W. Deem and Ramdas Pophale) SiO2 
 PCOD9257944
Probable space group: C 2/C
;
_chemical_formula_sum "Si O2"
_cell_formula_units_Z 44
_cell_length_a 8.897023
_cell_length_b 13.479242
_cell_length_c 13.785564
_cell_angle_alpha 90.000000
_cell_angle_beta 71.823640
_cell_angle_gamma 90.000000
_cell_volume 1570.740436
_symmetry_space_group_name_H-M "C 2/C"
_symmetry_group_IT_number 15
_symmetry_cell_setting 'monoclinic'
loop_
_space_group_symop_operation_xyz
x,y,z
-x,y,1/2-z
-x,-y,-z
x,-y,1/2+z
1/2+x,1/2+y,z
1/2-x,1/2+y,1/2-z
1/2-x,1/2-y,-z
1/2+x,1/2-y,1/2+z
loop_
_atom_site_type_symbol
_atom_site_label
_atom_site_fract_x
_atom_site_fract_y
_atom_site_fract_z
Si Si1 0.173919 0.886358 0.996795
Si Si2 0.239377 0.251649 0.672766
Si Si3 0.974614 0.378297 0.390233
Si Si4 0.638180 0.371714 0.361584
Si Si5 0.000000 0.957323 0.750000
Si Si6 0.311711 0.057708 0.095946
O O1 0.200398 0.816868 0.086344
O O2 0.239783 0.988269 0.024773
O O3 0.985676 0.872475 0.025091
O O4 0.257230 0.857376 0.879768
O O5 0.415803 0.213567 0.658832
O O6 0.137160 0.221217 0.786311
O O7 0.817048 0.380866 0.359656
O O8 0.922119 0.368225 0.514284
O O9 0.080233 0.479672 0.365651
O O10 0.574791 0.466118 0.313345
O O11 0.843286 0.902218 0.819177
#
# Coordination Sequence:
#
# PCOD9257944 Si02
#       6
#     8   8   8   8   4   8
#     4   9  19  33  57  79 117 148 198 236 290 345
#     4  10  18  34  56  84 110 156 190 241 287 363
#     4  10  20  32  59  82 118 143 197 243 298 348
#     4  11  18  34  58  84 107 155 195 239 294 364
#     4  10  18  32  56  82 108 150 194 228 294 370
#     4   9  19  37  54  87 112 154 189 246 293 362
#
# _framework density 28.012267000000001
#
# number of rings (size 3 to 8) (size 9 to 14) (size 15 to 20)
#    0.000    2.182    5.455    0.545    0.000    3.636 
#    0.000    0.000    8.000    2.182    0.000    0.000 
#    0.000    0.000    0.000    0.000    0.000    0.000 
#
# Total GULP energy -123103.582999 kJ/mol
# GULP energy per Si atom -5595.617409 kJ/mol
# Density = 2.794851 g / cm^3
# Si number density = 28.012267 Si / 1000 Ang^3
#
#
#
# Elastic Constant Matrix: (Units=GPa)
#
#
# Indices 1 2 3 4 5 6 
#
# 1 171.4011 12.1806 2.6767 0.0000 3.3542 0.0000
# 2 12.1806 51.0652 20.1836 0.0000 10.5040 0.0000
# 3 2.6767 20.1836 116.1094 0.0000 -19.0100 0.0000
# 4 0.0000 0.0000 0.0000 41.7442 0.0000 3.6264
# 5 3.3542 10.5040 -19.0100 0.0000 54.5783 0.0000
# 6 0.0000 0.0000 0.0000 3.6264 0.0000 22.5231
#
#
#
# Elastic Compliance Matrix: (Units=1/GPa)
#
#
# Indices 1 2 3 4 5 6 
#
# 1 0.005936 -0.001448 0.000107 0.000000 -0.000049 0.000000
# 2 -0.001448 0.023157 -0.004992 0.000000 -0.006107 0.000000
# 3 0.000107 -0.004992 0.010217 0.000000 0.004513 0.000000
# 4 0.000000 0.000000 0.000000 0.024295 0.000000 -0.003912
# 5 -0.000049 -0.006107 0.004513 0.000000 0.021072 0.000000
# 6 0.000000 0.000000 0.000000 -0.003912 0.000000 0.045029
#
#
# Mechanical properties :
#
#
# Convention : Reuss Voigt Hill
#
# Bulk Modulus (GPa) = 37.53175 45.40637 41.46906
# Shear Modulus (GPa) = 33.05680 44.00477 38.53079
#
# Velocity S-wave (km/s) = 3.43896 3.96777 3.71279
# Velocity P-wave (km/s) = 5.40333 6.10210 5.76332
#
# Compressibility (1/GPa) = 0.02664411
#
# Stress axis : x y z
#
# Youngs Moduli (GPa) = 168.45018 43.18264 97.87886
#
# Poissons Ratio (x) = 0.06254 -0.01046
# Poissons Ratio (y) = 0.24395 0.48860
# Poissons Ratio (z) = -0.01801 0.21556
#
# Static dielectric constant tensor:
#      x y z
#    x 2.238830 0.000000 -0.035730 
#    y 0.000000 2.269770 0.000000 
#    z -0.035730 0.000000 2.266700 
# 
# From -- ./inp_files/135389.got.cif
#   From: 2010.05.17/outbox.cif.g08.bks.cpg/sg15_68_cif.got.tgz:135389.got - 2010.06.03 18:47:42.
