data_PCOD9257861
_publ_section_title
;
Structure prediction by ZEFSAII (Michael W. Deem and Ramdas Pophale) SiO2 
 PCOD9257861
Probable space group: C 2/C
;
_chemical_formula_sum "Si O2"
_cell_formula_units_Z 56
_cell_length_a 6.485494
_cell_length_b 25.931261
_cell_length_c 18.851992
_cell_angle_alpha 90.000000
_cell_angle_beta 112.360284
_cell_angle_gamma 90.000000
_cell_volume 2932.084239
_symmetry_space_group_name_H-M "C 2/C"
_symmetry_group_IT_number 15
_symmetry_cell_setting 'monoclinic'
loop_
_space_group_symop_operation_xyz
x,y,z
-x,y,1/2-z
-x,-y,-z
x,-y,1/2+z
1/2+x,1/2+y,z
1/2-x,1/2+y,1/2-z
1/2-x,1/2-y,-z
1/2+x,1/2-y,1/2+z
loop_
_atom_site_type_symbol
_atom_site_label
_atom_site_fract_x
_atom_site_fract_y
_atom_site_fract_z
Si Si1 0.751283 0.224292 0.306575
Si Si2 0.500000 0.360448 0.750000
Si Si3 0.519805 0.529822 0.927153
Si Si4 0.754990 0.366544 0.103352
Si Si5 0.910902 0.925119 0.609176
Si Si6 0.000000 0.692320 0.750000
Si Si7 0.851620 0.839808 0.955113
Si Si8 0.050462 0.600619 0.519646
O O1 0.500000 0.235203 0.250000
O O2 0.831236 0.175724 0.270125
O O3 0.793327 0.206407 0.393390
O O4 0.900057 0.271446 0.298604
O O5 0.377183 0.396099 0.677972
O O6 0.344127 0.576016 0.899919
O O7 0.496984 0.482484 0.870291
O O8 0.756143 0.558320 0.948541
O O9 0.500000 0.500000 0.000000
O O10 0.815892 0.341709 0.186092
O O11 0.972793 0.372746 0.082331
O O12 0.566689 0.334119 0.035148
O O13 0.673208 0.925498 0.539321
O O14 0.074627 0.889291 0.583210
O O15 0.645957 0.857025 0.977169
#
# Coordination Sequence:
#
# PCOD9257861 Si02
#       8
#     8   4   8   8   8   4   8   8
#     4  10  21  40  66  87 114 153 194 246 319 359
#     4   9  20  36  54  90 122 144 182 247 302 352
#     4  11  19  35  56  86 113 154 202 238 280 350
#     4  10  23  40  58  82 120 160 202 243 291 347
#     4  10  18  32  54  84 122 149 187 235 292 343
#     4  11  26  46  58  80 124 164 194 251 298 350
#     4   9  19  36  62  92 113 142 195 252 289 362
#     4  10  18  33  60  82 114 150 192 237 291 338
#
# _framework density 19.099041
#
# number of rings (size 3 to 8) (size 9 to 14) (size 15 to 20)
#    0.000    2.000    4.286    1.286    0.000    4.000 
#    2.571    1.429    1.571    0.000    0.000    0.000 
#    0.000    0.000    0.000    0.000    0.000    0.000 
#
# Total GULP energy -156112.829224 kJ/mol
# GULP energy per Si atom -5575.458187 kJ/mol
# Density = 1.905557 g / cm^3
# Si number density = 19.099041 Si / 1000 Ang^3
#
#
#
# Elastic Constant Matrix: (Units=GPa)
#
#
# Indices 1 2 3 4 5 6 
#
# 1 76.8805 20.9198 1.3496 0.0000 -3.4047 0.0000
# 2 20.9198 88.6714 42.7623 0.0000 3.3557 0.0000
# 3 1.3496 42.7623 68.0885 0.0000 3.1058 0.0000
# 4 0.0000 0.0000 0.0000 25.8412 0.0000 4.7282
# 5 -3.4047 3.3557 3.1058 0.0000 19.9304 0.0000
# 6 0.0000 0.0000 0.0000 4.7282 0.0000 -12.5110
#
#
#
# Elastic Compliance Matrix: (Units=1/GPa)
#
#
# Indices 1 2 3 4 5 6 
#
# 1 0.014377 -0.004733 0.002557 0.000000 0.002854 0.000000
# 2 -0.004733 0.017762 -0.010966 0.000000 -0.002090 0.000000
# 3 0.002557 -0.010966 0.021572 0.000000 -0.001078 0.000000
# 4 0.000000 0.000000 0.000000 0.036195 0.000000 0.013679
# 5 0.002854 -0.002090 -0.001078 0.000000 0.051182 0.000000
# 6 0.000000 0.000000 0.000000 0.013679 0.000000 -0.074760
#
#
# Mechanical properties :
#
#
# Convention : Reuss Voigt Hill
#
# Bulk Modulus (GPa) = 36.45986 40.41152 38.43569
# Shear Modulus (GPa) = 49.13817 17.89269 33.51543
#
# Velocity S-wave (km/s) = 5.07779 3.06410 4.19360
# Velocity P-wave (km/s) = 7.31505 5.80716 6.60428
#
# Compressibility (1/GPa) = 0.02742742
#
# Stress axis : x y z
#
# Youngs Moduli (GPa) = 69.55729 56.30079 46.35575
#
# Poissons Ratio (x) = 0.26648 -0.11855
# Poissons Ratio (y) = 0.32923 0.50833
# Poissons Ratio (z) = -0.17789 0.61739
#
# Static dielectric constant tensor:
#      x y z
#    x 1.679770 0.000000 -0.008770 
#    y 0.000000 1.675700 0.000000 
#    z -0.008770 0.000000 1.695590 
# 
# From -- ./inp_files/186593.got.cif
#   From: 2010.05.17/outbox.cif.g08.bks.cpg/sg15_94_cif.got.tgz:186593.got - 2010.06.03 18:47:42.
