data_PCOD9257965
_publ_section_title
;
Structure prediction by ZEFSAII (Michael W. Deem and Ramdas Pophale) SiO2 
 PCOD9257965
Probable space group: C 2/C
;
_chemical_formula_sum "Si O2"
_cell_formula_units_Z 56
_cell_length_a 12.673047
_cell_length_b 15.799368
_cell_length_c 16.748610
_cell_angle_alpha 90.000000
_cell_angle_beta 61.459791
_cell_angle_gamma 90.000000
_cell_volume 2945.997781
_symmetry_space_group_name_H-M "C 2/C"
_symmetry_group_IT_number 15
_symmetry_cell_setting 'monoclinic'
loop_
_space_group_symop_operation_xyz
x,y,z
-x,y,1/2-z
-x,-y,-z
x,-y,1/2+z
1/2+x,1/2+y,z
1/2-x,1/2+y,1/2-z
1/2-x,1/2-y,-z
1/2+x,1/2-y,1/2+z
loop_
_atom_site_type_symbol
_atom_site_label
_atom_site_fract_x
_atom_site_fract_y
_atom_site_fract_z
Si Si1 0.787229 0.166460 0.801939
Si Si2 0.594108 0.061968 0.510673
Si Si3 0.397818 0.818967 0.845542
Si Si4 0.966888 0.676696 0.672823
Si Si5 0.272069 0.424126 0.476867
Si Si6 0.371753 0.246998 0.008067
Si Si7 0.982288 0.840307 0.108525
O O1 0.815491 0.262483 0.816989
O O2 0.672803 0.163858 0.787668
O O3 0.759551 0.119016 0.894213
O O4 0.901686 0.131486 0.712724
O O5 0.533939 0.093149 0.615028
O O6 0.616853 0.151879 0.458784
O O7 0.500000 0.000000 0.500000
O O8 0.720031 0.017306 0.482969
O O9 0.500000 0.856450 0.750000
O O10 0.455500 0.747626 0.883658
O O11 0.318099 0.880614 0.927472
O O12 0.000000 0.696173 0.750000
O O13 0.017590 0.747804 0.594325
O O14 0.409709 0.404499 0.450125
O O15 0.250000 0.250000 0.000000
O O16 0.395839 0.316198 0.066516
#
# Coordination Sequence:
#
# PCOD9257965 Si02
#       7
#     8   8   8   8   8   8   8
#     4  10  18  32  56  85 115 154 200 242 295 358
#     4  10  21  36  58  86 113 159 192 244 306 357
#     4   9  18  29  51  87 118 145 192 251 300 344
#     4  10  20  34  58  82 112 154 201 237 291 365
#     4  11  18  34  56  87 120 150 196 249 310 346
#     4  10  21  38  59  83 117 160 199 239 297 360
#     4  10  19  32  58  86 112 155 202 244 288 355
#
# _framework density 19.008839999999999
#
# number of rings (size 3 to 8) (size 9 to 14) (size 15 to 20)
#    0.857    1.143    1.429    6.429    0.000    0.571 
#    0.000    0.714    0.000    5.143    0.000    0.000 
#    0.000    0.000    0.000    0.000    0.000    0.000 
#
# Total GULP energy -155914.868506 kJ/mol
# GULP energy per Si atom -5568.388161 kJ/mol
# Density = 1.896557 g / cm^3
# Si number density = 19.008840 Si / 1000 Ang^3
#
#
#
# Elastic Constant Matrix: (Units=GPa)
#
#
# Indices 1 2 3 4 5 6 
#
# 1 102.7319 16.2837 20.7564 0.0000 -5.5788 0.0000
# 2 16.2837 32.2941 18.7389 0.0000 -2.5619 0.0000
# 3 20.7564 18.7389 109.5404 0.0000 -9.2094 0.0000
# 4 0.0000 0.0000 0.0000 1.1504 0.0000 -3.0097
# 5 -5.5788 -2.5619 -9.2094 0.0000 30.3386 0.0000
# 6 0.0000 0.0000 0.0000 -3.0097 0.0000 25.5755
#
#
#
# Elastic Compliance Matrix: (Units=1/GPa)
#
#
# Indices 1 2 3 4 5 6 
#
# 1 0.010772 -0.004673 -0.001137 0.000000 0.001241 0.000000
# 2 -0.004673 0.036444 -0.005298 0.000000 0.000610 0.000000
# 3 -0.001137 -0.005298 0.010463 0.000000 0.002519 0.000000
# 4 0.000000 0.000000 0.000000 1.255861 0.000000 0.147789
# 5 0.001241 0.000610 0.002519 0.000000 0.034006 0.000000
# 6 0.000000 0.000000 0.000000 0.147789 0.000000 0.056492
#
#
# Mechanical properties :
#
#
# Convention : Reuss Voigt Hill
#
# Bulk Modulus (GPa) = 28.19887 39.56938 33.88413
# Shear Modulus (GPa) = 3.47687 23.99873 13.73780
#
# Velocity S-wave (km/s) = 1.35390 3.55703 2.69124
# Velocity P-wave (km/s) = 4.16063 6.14259 5.24606
#
# Compressibility (1/GPa) = 0.03546242
#
# Stress axis : x y z
#
# Youngs Moduli (GPa) = 92.83340 27.43925 95.57808
#
# Poissons Ratio (x) = 0.12823 0.10871
# Poissons Ratio (y) = 0.43382 0.50634
# Poissons Ratio (z) = 0.10559 0.14536
#
# Static dielectric constant tensor:
#      x y z
#    x 1.690540 0.000000 -0.010840 
#    y 0.000000 1.695510 0.000000 
#    z -0.010840 0.000000 1.673780 
# 
# From -- ./inp_files/199044.got.cif
#   From: 2010.05.17/outbox.cif.g08.bks.cpg/sg15_100_cif.got.tgz:199044.got - 2010.06.03 18:47:42.
