data_PCOD9257889
_publ_section_title
;
Structure prediction by ZEFSAII (Michael W. Deem and Ramdas Pophale) SiO2 
 PCOD9257889
Probable space group: C 2/C
;
_chemical_formula_sum "Si O2"
_cell_formula_units_Z 32
_cell_length_a 5.457379
_cell_length_b 33.797106
_cell_length_c 9.053715
_cell_angle_alpha 90.000000
_cell_angle_beta 53.278745
_cell_angle_gamma 90.000000
_cell_volume 1338.514788
_symmetry_space_group_name_H-M "C 2/C"
_symmetry_group_IT_number 15
_symmetry_cell_setting 'monoclinic'
loop_
_space_group_symop_operation_xyz
x,y,z
-x,y,1/2-z
-x,-y,-z
x,-y,1/2+z
1/2+x,1/2+y,z
1/2-x,1/2+y,1/2-z
1/2-x,1/2-y,-z
1/2+x,1/2-y,1/2+z
loop_
_atom_site_type_symbol
_atom_site_label
_atom_site_fract_x
_atom_site_fract_y
_atom_site_fract_z
Si Si1 0.769112 0.203139 0.470280
Si Si2 0.766556 0.668887 0.459276
Si Si3 0.570435 0.420562 0.951566
Si Si4 0.041094 0.453273 0.969616
O O1 0.750000 0.250000 0.500000
O O2 0.463425 0.178748 0.534546
O O3 0.000000 0.195024 0.250000
O O4 0.944856 0.190138 0.554842
O O5 0.673293 0.624614 0.440732
O O6 0.000000 0.684409 0.250000
O O7 0.222808 0.431363 0.035862
O O8 0.756697 0.439779 0.746157
O O9 0.702666 0.439843 0.050411
O O10 0.000000 0.500000 0.000000
#
# Coordination Sequence:
#
# PCOD9257889 Si02
#       4
#     8   8   8   8
#     4  10  21  34  55  87 111 142 182 229 280 330
#     4  10  18  32  55  80 107 136 181 233 264 326
#     4  10  19  32  51  78 105 134 189 219 265 324
#     4  10  19  30  49  78 107 135 167 229 279 308
#
# _framework density 23.907095000000002
#
# number of rings (size 3 to 8) (size 9 to 14) (size 15 to 20)
#    0.000    2.000    2.500    3.000    7.000    0.000 
#    0.000    0.000    0.000    0.000   65.000    0.000 
#    0.000    0.000    0.000    0.000    0.000    0.000 
#
# Total GULP energy -89070.303505 kJ/mol
# GULP energy per Si atom -5566.893969 kJ/mol
# Density = 2.385268 g / cm^3
# Si number density = 23.907095 Si / 1000 Ang^3
#
#
#
# Elastic Constant Matrix: (Units=GPa)
#
#
# Indices 1 2 3 4 5 6 
#
# 1 307.7923 82.5086 23.6489 0.0000 31.3074 0.0000
# 2 82.5086 136.3560 6.4709 0.0000 -4.8815 0.0000
# 3 23.6489 6.4709 106.6785 0.0000 -15.7303 0.0000
# 4 0.0000 0.0000 0.0000 12.8589 0.0000 5.1436
# 5 31.3074 -4.8815 -15.7303 0.0000 -23.2648 0.0000
# 6 0.0000 0.0000 0.0000 5.1436 0.0000 49.1209
#
#
#
# Elastic Compliance Matrix: (Units=1/GPa)
#
#
# Indices 1 2 3 4 5 6 
#
# 1 0.003248 -0.001801 0.000081 0.000000 0.004694 0.000000
# 2 -0.001801 0.008321 -0.000655 0.000000 -0.003727 0.000000
# 3 0.000081 -0.000655 0.008577 0.000000 -0.005552 0.000000
# 4 0.000000 0.000000 0.000000 0.081167 0.000000 -0.008499
# 5 0.004694 -0.003727 -0.005552 0.000000 -0.032131 0.000000
# 6 0.000000 0.000000 0.000000 -0.008499 0.000000 0.021248
#
#
# Mechanical properties :
#
#
# Convention : Reuss Voigt Hill
#
# Bulk Modulus (GPa) = 64.94964 86.23152 75.59058
# Shear Modulus (GPa) = 49.84418 36.95623 43.40020
#
# Velocity S-wave (km/s) = 4.57104 3.93597 4.26534
# Velocity P-wave (km/s) = 7.42197 7.53681 7.47961
#
# Compressibility (1/GPa) = 0.01539654
#
# Stress axis : x y z
#
# Youngs Moduli (GPa) = 307.87261 120.17318 116.59172
#
# Poissons Ratio (x) = 0.21646 -0.00948
# Poissons Ratio (y) = 0.55455 0.07637
# Poissons Ratio (z) = -0.02505 0.07872
#
# Static dielectric constant tensor:
#      x y z
#    x 2.024530 0.000000 0.021120 
#    y 0.000000 1.726380 0.000000 
#    z 0.021120 0.000000 1.919080 
# 
# From -- ./inp_files/19948.got.cif
#   From: 2010.05.17/outbox.cif.g08.bks.cpg/sg15_10_cif.got.tgz:19948.got - 2010.06.03 18:47:42.
