data_PCOD9257986
_publ_section_title
;
Structure prediction by ZEFSAII (Michael W. Deem and Ramdas Pophale) SiO2 
 PCOD9257986
Probable space group: C 2/C
;
_chemical_formula_sum "Si O2"
_cell_formula_units_Z 40
_cell_length_a 14.715655
_cell_length_b 12.444979
_cell_length_c 9.822643
_cell_angle_alpha 90.000000
_cell_angle_beta 108.158025
_cell_angle_gamma 90.000000
_cell_volume 1709.296614
_symmetry_space_group_name_H-M "C 2/C"
_symmetry_group_IT_number 15
_symmetry_cell_setting 'monoclinic'
loop_
_space_group_symop_operation_xyz
x,y,z
-x,y,1/2-z
-x,-y,-z
x,-y,1/2+z
1/2+x,1/2+y,z
1/2-x,1/2+y,1/2-z
1/2-x,1/2-y,-z
1/2+x,1/2-y,1/2+z
loop_
_atom_site_type_symbol
_atom_site_label
_atom_site_fract_x
_atom_site_fract_y
_atom_site_fract_z
Si Si1 0.985607 0.833434 0.587691
Si Si2 0.065819 0.466881 0.156055
Si Si3 0.242624 0.885642 0.333302
Si Si4 0.906923 0.292586 0.800359
Si Si5 0.151271 0.027291 0.051626
O O1 0.084514 0.874912 0.568369
O O2 0.000000 0.801887 0.750000
O O3 0.936288 0.746586 0.465693
O O4 0.917567 0.939150 0.552519
O O5 0.146052 0.382366 0.151325
O O6 0.113581 0.581436 0.215731
O O7 0.000000 0.433991 0.250000
O O8 0.000000 0.500000 0.000000
O O9 0.183226 0.776402 0.290431
O O10 0.226263 0.933847 0.474694
O O11 0.194682 0.966171 0.201086
O O12 0.000000 0.270289 0.750000
#
# Coordination Sequence:
#
# PCOD9257986 Si02
#       5
#     8   8   8   8   8
#     4  10  18  32  57 102 138 165 205 278 343 393
#     4  11  26  50  69  95 139 188 225 276 339 406
#     4  11  21  41  67  98 133 177 231 281 331 406
#     4  10  22  42  70 102 134 174 225 276 344 412
#     4  10  19  31  60  97 134 167 213 277 341 385
#
# _framework density 23.401437999999999
#
# number of rings (size 3 to 8) (size 9 to 14) (size 15 to 20)
#    0.000    1.600    4.000    1.200    0.000    0.800 
#    3.600   12.000    0.000    1.200    0.000    0.000 
#    0.000    0.000    0.000    0.000    0.000    0.000 
#
# Total GULP energy -112082.593405 kJ/mol
# GULP energy per Si atom -5604.129670 kJ/mol
# Density = 2.334818 g / cm^3
# Si number density = 23.401438 Si / 1000 Ang^3
#
#
#
# Elastic Constant Matrix: (Units=GPa)
#
#
# Indices 1 2 3 4 5 6 
#
# 1 144.0861 49.6043 31.6603 0.0000 -13.3418 0.0000
# 2 49.6043 122.2875 26.6073 0.0000 -3.2653 0.0000
# 3 31.6603 26.6073 131.2913 0.0000 -16.9193 0.0000
# 4 0.0000 0.0000 0.0000 9.6313 0.0000 11.5609
# 5 -13.3418 -3.2653 -16.9193 0.0000 42.8706 0.0000
# 6 0.0000 0.0000 0.0000 11.5609 0.0000 22.8103
#
#
#
# Elastic Compliance Matrix: (Units=1/GPa)
#
#
# Indices 1 2 3 4 5 6 
#
# 1 0.008449 -0.003124 -0.001155 0.000000 0.001936 0.000000
# 2 -0.003124 0.009710 -0.001311 0.000000 -0.000750 0.000000
# 3 -0.001155 -0.001311 0.008536 0.000000 0.002909 0.000000
# 4 0.000000 0.000000 0.000000 0.265118 0.000000 -0.134369
# 5 0.001936 -0.000750 0.002909 0.000000 0.025020 0.000000
# 6 0.000000 0.000000 0.000000 -0.134369 0.000000 0.111942
#
#
# Mechanical properties :
#
#
# Convention : Reuss Voigt Hill
#
# Bulk Modulus (GPa) = 64.45636 68.15654 66.30645
# Shear Modulus (GPa) = 11.23279 34.38197 22.80738
#
# Velocity S-wave (km/s) = 2.19328 3.83721 3.12527
# Velocity P-wave (km/s) = 5.83245 6.98716 6.43575
#
# Compressibility (1/GPa) = 0.01551437
#
# Stress axis : x y z
#
# Youngs Moduli (GPa) = 118.35940 102.98679 117.15401
#
# Poissons Ratio (x) = 0.32175 0.13529
# Poissons Ratio (y) = 0.36978 0.15360
# Poissons Ratio (z) = 0.13668 0.13503
#
# Static dielectric constant tensor:
#      x y z
#    x 1.859290 0.000000 0.032470 
#    y 0.000000 1.875030 0.000000 
#    z 0.032470 0.000000 1.845440 
# 
# From -- ./inp_files/38080.got.cif
#   From: 2010.05.17/outbox.cif.g08.bks.cpg/sg15_20_cif.got.tgz:38080.got - 2010.06.03 18:47:42.
