data_PCOD9257732
_publ_section_title
;
Structure prediction by ZEFSAII (Michael W. Deem and Ramdas Pophale) SiO2 
 PCOD9257732
Probable space group: C 2/C
;
_chemical_formula_sum "Si O2"
_cell_formula_units_Z 56
_cell_length_a 13.618500
_cell_length_b 13.981274
_cell_length_c 26.823127
_cell_angle_alpha 90.000000
_cell_angle_beta 40.270524
_cell_angle_gamma 90.000000
_cell_volume 3301.299958
_symmetry_space_group_name_H-M "C 2/C"
_symmetry_group_IT_number 15
_symmetry_cell_setting 'monoclinic'
loop_
_space_group_symop_operation_xyz
x,y,z
-x,y,1/2-z
-x,-y,-z
x,-y,1/2+z
1/2+x,1/2+y,z
1/2-x,1/2+y,1/2-z
1/2-x,1/2-y,-z
1/2+x,1/2-y,1/2+z
loop_
_atom_site_type_symbol
_atom_site_label
_atom_site_fract_x
_atom_site_fract_y
_atom_site_fract_z
Si Si1 0.727179 0.329247 0.069045
Si Si2 0.688184 0.039463 0.277151
Si Si3 0.155591 0.872182 0.987881
Si Si4 0.623292 0.736978 0.793004
Si Si5 0.322893 0.589612 0.643380
Si Si6 0.178458 0.917519 0.189629
Si Si7 0.899784 0.511649 0.333805
O O1 0.843981 0.241755 0.021422
O O2 0.559162 0.280101 0.138310
O O3 0.748212 0.395012 0.108818
O O4 0.722608 0.383077 0.017997
O O5 0.665739 0.152483 0.279852
O O6 0.801404 0.997430 0.191091
O O7 0.746573 0.001813 0.307410
O O8 0.524303 0.992734 0.327704
O O9 0.267690 0.921419 0.905628
O O10 0.985923 0.912339 0.054033
O O11 0.680160 0.682652 0.820519
O O12 0.686160 0.678311 0.721105
O O13 0.185612 0.577952 0.657893
O O14 0.000000 0.937921 0.250000
O O15 0.000000 0.557111 0.250000
#
# Coordination Sequence:
#
# PCOD9257732 Si02
#       7
#     8   8   8   8   8   8   8
#     4   9  18  30  54  79 106 136 174 221 269 304
#     4  10  19  34  55  80 104 138 180 216 260 318
#     4  10  18  32  52  81 111 132 174 227 267 308
#     4   9  17  33  55  79 107 137 179 219 255 314
#     4   9  20  32  51  84 107 136 173 223 267 306
#     4   9  19  33  53  80 107 136 180 220 260 316
#     4  10  20  32  54  79 103 137 178 216 266 317
#
# _framework density 16.963014999999999
#
# number of rings (size 3 to 8) (size 9 to 14) (size 15 to 20)
#    0.000    2.571    1.429    1.286    4.000    0.000 
#    0.000    4.286    0.000    0.857    0.000    0.000 
#    0.000    0.000    0.000    0.000    0.000    0.000 
#
# Total GULP energy -155978.690416 kJ/mol
# GULP energy per Si atom -5570.667515 kJ/mol
# Density = 1.692441 g / cm^3
# Si number density = 16.963015 Si / 1000 Ang^3
#
#
#
# Elastic Constant Matrix: (Units=GPa)
#
#
# Indices 1 2 3 4 5 6 
#
# 1 99.3434 39.0942 17.9839 0.0000 0.7303 0.0000
# 2 39.0942 69.2262 16.1100 0.0000 -7.0539 0.0000
# 3 17.9839 16.1100 83.0851 0.0000 -3.7917 0.0000
# 4 0.0000 0.0000 0.0000 15.6205 0.0000 -1.1758
# 5 0.7303 -7.0539 -3.7917 0.0000 19.4351 0.0000
# 6 0.0000 0.0000 0.0000 -1.1758 0.0000 19.4105
#
#
#
# Elastic Compliance Matrix: (Units=1/GPa)
#
#
# Indices 1 2 3 4 5 6 
#
# 1 0.013341 -0.007525 -0.001590 0.000000 -0.003543 0.000000
# 2 -0.007525 0.019862 -0.001897 0.000000 0.007122 0.000000
# 3 -0.001590 -0.001897 0.012834 0.000000 0.001875 0.000000
# 4 0.000000 0.000000 0.000000 0.064311 0.000000 0.003896
# 5 -0.003543 0.007122 0.001875 0.000000 0.054537 0.000000
# 6 0.000000 0.000000 0.000000 0.003896 0.000000 0.051754
#
#
# Mechanical properties :
#
#
# Convention : Reuss Voigt Hill
#
# Bulk Modulus (GPa) = 41.64693 44.22566 42.93629
# Shear Modulus (GPa) = 20.27001 22.79101 21.53051
#
# Velocity S-wave (km/s) = 3.46056 3.66945 3.56654
# Velocity P-wave (km/s) = 6.36963 6.63940 6.50591
#
# Compressibility (1/GPa) = 0.02401138
#
# Stress axis : x y z
#
# Youngs Moduli (GPa) = 74.95468 50.34660 77.92081
#
# Poissons Ratio (x) = 0.37887 0.12392
# Poissons Ratio (y) = 0.56405 0.14785
# Poissons Ratio (z) = 0.11920 0.09553
#
# Static dielectric constant tensor:
#      x y z
#    x 1.597630 0.000000 0.014590 
#    y 0.000000 1.559880 0.000000 
#    z 0.014590 0.000000 1.607260 
# 
# From -- ./inp_files/295899.got.cif
#   From: 2010.05.17/outbox.cif.g08.bks.cpg/sg15_148_cif.got.tgz:295899.got - 2010.06.03 18:47:42.
