data_PCOD9257149
_publ_section_title
;
Structure prediction by ZEFSAII (Michael W. Deem and Ramdas Pophale) SiO2 
 PCOD9257149
Probable space group: C 2/C
;
_chemical_formula_sum "Si O2"
_cell_formula_units_Z 52
_cell_length_a 9.899750
_cell_length_b 33.102462
_cell_length_c 9.617762
_cell_angle_alpha 90.000000
_cell_angle_beta 131.669035
_cell_angle_gamma 90.000000
_cell_volume 2354.386454
_symmetry_space_group_name_H-M "C 2/C"
_symmetry_group_IT_number 15
_symmetry_cell_setting 'monoclinic'
loop_
_space_group_symop_operation_xyz
x,y,z
-x,y,1/2-z
-x,-y,-z
x,-y,1/2+z
1/2+x,1/2+y,z
1/2-x,1/2+y,1/2-z
1/2-x,1/2-y,-z
1/2+x,1/2-y,1/2+z
loop_
_atom_site_type_symbol
_atom_site_label
_atom_site_fract_x
_atom_site_fract_y
_atom_site_fract_z
Si Si1 0.195868 0.205483 0.600952
Si Si2 0.618846 0.120890 0.140115
Si Si3 0.500000 0.057037 0.250000
Si Si4 0.575866 0.207406 0.017594
Si Si5 0.373646 0.509995 0.546318
Si Si6 0.190600 0.570007 0.930089
Si Si7 0.485510 0.623422 0.068680
O O1 0.259630 0.205348 0.482303
O O2 0.096258 0.246422 0.579527
O O3 0.071102 0.166651 0.527449
O O4 0.383905 0.202663 0.810992
O O5 0.484602 0.088665 0.112599
O O6 0.588828 0.168746 0.126296
O O7 0.814626 0.112345 0.340756
O O8 0.634242 0.107005 0.991178
O O9 0.686346 0.031791 0.374228
O O10 0.500000 0.530206 0.750000
O O11 0.500000 0.500000 0.500000
O O12 0.301765 0.467629 0.565873
O O13 0.000000 0.553569 0.750000
O O14 0.332105 0.591335 0.924136
O O15 0.500000 0.624284 0.250000
#
# Coordination Sequence:
#
# PCOD9257149 Si02
#       7
#     8   8   4   8   8   8   8
#     4  10  18  30  55  91 124 164 206 268 335 398
#     4  11  23  40  61  91 130 175 217 276 334 403
#     4  12  28  48  68  94 138 186 232 284 342 420
#     4  10  19  31  54  88 130 162 207 266 337 396
#     4  12  27  48  73 104 135 182 233 290 349 417
#     4  11  21  37  65  93 129 165 214 276 339 396
#     4  10  18  32  54  90 123 166 206 268 331 395
#
# _framework density 22.086434000000001
#
# number of rings (size 3 to 8) (size 9 to 14) (size 15 to 20)
#    0.000    1.231    3.846    5.077    4.308    1.231 
#    2.769    0.000    0.000    3.692    0.000    0.000 
#    0.000    0.000    0.000    0.000    0.000    0.000 
#
# Total GULP energy -144948.850561 kJ/mol
# GULP energy per Si atom -5574.955791 kJ/mol
# Density = 2.203616 g / cm^3
# Si number density = 22.086434 Si / 1000 Ang^3
#
#
#
# Elastic Constant Matrix: (Units=GPa)
#
#
# Indices 1 2 3 4 5 6 
#
# 1 54.3218 26.7542 29.3678 0.0000 17.1841 0.0000
# 2 26.7542 131.6732 19.8626 0.0000 17.9041 0.0000
# 3 29.3678 19.8626 76.5140 0.0000 27.1328 0.0000
# 4 0.0000 0.0000 0.0000 52.2544 0.0000 50.9535
# 5 17.1841 17.9041 27.1328 0.0000 26.0056 0.0000
# 6 0.0000 0.0000 0.0000 50.9535 0.0000 130.1066
#
#
#
# Elastic Compliance Matrix: (Units=1/GPa)
#
#
# Indices 1 2 3 4 5 6 
#
# 1 0.026004 -0.003191 -0.006092 0.000000 -0.008630 0.000000
# 2 -0.003191 0.008773 0.000542 0.000000 -0.004496 0.000000
# 3 -0.006092 0.000542 0.022177 0.000000 -0.019486 0.000000
# 4 0.000000 0.000000 0.000000 0.030960 0.000000 -0.012125
# 5 -0.008630 -0.004496 -0.019486 0.000000 0.067582 0.000000
# 6 0.000000 0.000000 0.000000 -0.012125 0.000000 0.012434
#
#
# Mechanical properties :
#
#
# Convention : Reuss Voigt Hill
#
# Bulk Modulus (GPa) = 25.33523 46.05315 35.69419
# Shear Modulus (GPa) = 25.18002 54.10828 39.64415
#
# Velocity S-wave (km/s) = 3.38015 4.95496 4.24129
# Velocity P-wave (km/s) = 5.17008 7.32339 6.33884
#
# Compressibility (1/GPa) = 0.03947073
#
# Stress axis : x y z
#
# Youngs Moduli (GPa) = 38.45542 113.99108 45.09165
#
# Poissons Ratio (x) = 0.36378 0.27471
# Poissons Ratio (y) = 0.12272 -0.02444
# Poissons Ratio (z) = 0.23428 -0.06179
#
# Static dielectric constant tensor:
#      x y z
#    x 0.912970 0.000000 0.635310 
#    y 0.000000 1.812060 0.000000 
#    z 0.635310 0.000000 1.424950 
# 
# From -- ./inp_files/92658.got.cif
#   From: 2010.05.17/outbox.cif.g08.bks.cpg/sg15_47_cif.got.tgz:92658.got - 2010.06.03 18:47:42.
