data_PCOD9257073
_publ_section_title
;
Structure prediction by ZEFSAII (Michael W. Deem and Ramdas Pophale) SiO2 
 PCOD9257073
Probable space group: C 2/C
;
_chemical_formula_sum "Si O2"
_cell_formula_units_Z 64
_cell_length_a 23.206240
_cell_length_b 17.101998
_cell_length_c 10.787865
_cell_angle_alpha 90.000000
_cell_angle_beta 128.288713
_cell_angle_gamma 90.000000
_cell_volume 3360.474503
_symmetry_space_group_name_H-M "C 2/C"
_symmetry_group_IT_number 15
_symmetry_cell_setting 'monoclinic'
loop_
_space_group_symop_operation_xyz
x,y,z
-x,y,1/2-z
-x,-y,-z
x,-y,1/2+z
1/2+x,1/2+y,z
1/2-x,1/2+y,1/2-z
1/2-x,1/2-y,-z
1/2+x,1/2-y,1/2+z
loop_
_atom_site_type_symbol
_atom_site_label
_atom_site_fract_x
_atom_site_fract_y
_atom_site_fract_z
Si Si1 0.076736 0.907331 0.628552
Si Si2 0.194451 0.711524 0.023940
Si Si3 0.587748 0.587371 0.627224
Si Si4 0.218251 0.902733 0.681170
Si Si5 0.186045 0.458423 0.097823
Si Si6 0.660434 0.623385 0.481255
Si Si7 0.771446 0.838151 0.068090
Si Si8 0.671375 0.932081 0.351000
O O1 0.132247 0.893827 0.589492
O O2 0.113994 0.866805 0.795163
O O3 0.994831 0.881219 0.490791
O O4 0.079600 0.999477 0.668818
O O5 0.238210 0.663072 0.184380
O O6 0.250000 0.750000 0.000000
O O7 0.162102 0.789191 0.040288
O O8 0.146403 0.649362 0.882242
O O9 0.617416 0.575324 0.526806
O O10 0.646084 0.641267 0.776802
O O11 0.238502 0.892477 0.566242
O O12 0.247114 0.983022 0.778810
O O13 0.217735 0.374341 0.100701
O O14 0.144598 0.450377 0.175189
O O15 0.155011 0.501519 0.932915
O O16 0.739895 0.585863 0.551495
O O17 0.750000 0.750000 0.000000
#
# Coordination Sequence:
#
# PCOD9257073 Si02
#       8
#     8   8   8   8   8   8   8   8
#     4  11  22  34  53  73 105 152 194 223 261 333
#     4   9  18  31  53  73  97 137 179 230 276 329
#     4  11  24  35  48  76 107 151 193 226 267 325
#     4  11  20  34  53  76 104 149 188 223 279 333
#     4  11  19  33  51  74 107 142 181 225 272 335
#     4  11  18  34  51  71 102 139 188 231 267 320
#     4  12  24  34  52  78 111 151 186 240 287 324
#     4  10  18  30  53  74 102 140 179 225 277 328
#
# _framework density 19.044930999999998
#
# number of rings (size 3 to 8) (size 9 to 14) (size 15 to 20)
#    0.000    1.250    7.500    1.125    3.500    0.500 
#    0.000    0.000    0.000    0.000    0.000    0.000 
#    0.000    4.000   31.000    1.875    0.000    0.000 
#
# Total GULP energy -178213.594646 kJ/mol
# GULP energy per Si atom -5569.174833 kJ/mol
# Density = 1.900158 g / cm^3
# Si number density = 19.044931 Si / 1000 Ang^3
#
#
#
# Elastic Constant Matrix: (Units=GPa)
#
#
# Indices 1 2 3 4 5 6 
#
# 1 27.7608 -0.4450 18.8127 0.0000 -18.1937 0.0000
# 2 -0.4450 91.9424 26.2516 0.0000 -3.0822 0.0000
# 3 18.8127 26.2516 60.1426 0.0000 -19.2035 0.0000
# 4 0.0000 0.0000 0.0000 31.7625 0.0000 -9.9110
# 5 -18.1937 -3.0822 -19.2035 0.0000 29.2236 0.0000
# 6 0.0000 0.0000 0.0000 -9.9110 0.0000 19.7691
#
#
#
# Elastic Compliance Matrix: (Units=1/GPa)
#
#
# Indices 1 2 3 4 5 6 
#
# 1 0.066616 0.004924 -0.012122 0.000000 0.034027 0.000000
# 2 0.004924 0.012980 -0.007327 0.000000 -0.000380 0.000000
# 3 -0.012122 -0.007327 0.026527 0.000000 0.009111 0.000000
# 4 0.000000 0.000000 0.000000 0.037322 0.000000 0.018711
# 5 0.034027 -0.000380 0.009111 0.000000 0.061350 0.000000
# 6 0.000000 0.000000 0.000000 0.018711 0.000000 0.059965
#
#
# Mechanical properties :
#
#
# Convention : Reuss Voigt Hill
#
# Bulk Modulus (GPa) = 12.97485 29.89825 21.43655
# Shear Modulus (GPa) = 15.64942 25.16613 20.40777
#
# Velocity S-wave (km/s) = 2.86966 3.63906 3.27702
# Velocity P-wave (km/s) = 4.21989 5.77840 5.05951
#
# Compressibility (1/GPa) = 0.07707218
#
# Stress axis : x y z
#
# Youngs Moduli (GPa) = 15.01132 77.04447 37.69812
#
# Poissons Ratio (x) = -0.37939 0.45699
# Poissons Ratio (y) = -0.07392 0.27622
# Poissons Ratio (z) = 0.18197 0.56451
#
# Static dielectric constant tensor:
#      x y z
#    x 1.682720 0.000000 -0.022490 
#    y 0.000000 1.770290 0.000000 
#    z -0.022490 0.000000 1.698980 
# 
# From -- ./inp_files/119260.got.cif
#   From: 2010.05.17/outbox.cif.g08.bks.cpg/sg15_60_cif.got.tgz:119260.got - 2010.06.03 18:47:42.
