data_PCOD9257085
_publ_section_title
;
Structure prediction by ZEFSAII (Michael W. Deem and Ramdas Pophale) SiO2 
 PCOD9257085
Probable space group: C 2/C
;
_chemical_formula_sum "Si O2"
_cell_formula_units_Z 28
_cell_length_a 9.907571
_cell_length_b 13.997315
_cell_length_c 14.661545
_cell_angle_alpha 90.000000
_cell_angle_beta 29.599849
_cell_angle_gamma 90.000000
_cell_volume 1004.304690
_symmetry_space_group_name_H-M "C 2/C"
_symmetry_group_IT_number 15
_symmetry_cell_setting 'monoclinic'
loop_
_space_group_symop_operation_xyz
x,y,z
-x,y,1/2-z
-x,-y,-z
x,-y,1/2+z
1/2+x,1/2+y,z
1/2-x,1/2+y,1/2-z
1/2-x,1/2-y,-z
1/2+x,1/2-y,1/2+z
loop_
_atom_site_type_symbol
_atom_site_label
_atom_site_fract_x
_atom_site_fract_y
_atom_site_fract_z
Si Si1 0.424446 0.534033 0.940754
Si Si2 0.500000 0.900187 0.250000
Si Si3 0.462414 0.708665 0.013472
Si Si4 0.740398 0.620896 0.179551
O O1 0.362111 0.646105 0.985765
O O2 0.669560 0.490878 0.736786
O O3 0.500000 0.500000 0.000000
O O4 0.151657 0.469929 0.088091
O O5 0.728937 0.832354 0.157164
O O6 0.485083 0.822532 0.006511
O O7 0.312083 0.669558 0.190968
O O8 0.500000 0.647904 0.250000
#
# Coordination Sequence:
#
# PCOD9257085 Si02
#       4
#     8   4   8   8
#     4   8  18  31  49  74 102 134 161 202 253 295
#     4   8  14  28  50  68  96 130 166 190 250 286
#     4  10  19  31  52  77 104 128 165 208 252 292
#     4  10  18  30  53  80  99 127 166 212 246 289
#
# _framework density 27.879985999999999
#
# number of rings (size 3 to 8) (size 9 to 14) (size 15 to 20)
#    0.000    3.429    1.429    0.857    4.000    0.000 
#    0.000    1.429   12.571   15.429   14.857    2.000 
#    0.000    0.000    0.000    0.000    0.000    0.000 
#
# Total GULP energy -78000.019105 kJ/mol
# GULP energy per Si atom -5571.429936 kJ/mol
# Density = 2.781653 g / cm^3
# Si number density = 27.879986 Si / 1000 Ang^3
#
#
#
# Elastic Constant Matrix: (Units=GPa)
#
#
# Indices 1 2 3 4 5 6 
#
# 1 57.7370 12.4730 1.5777 -0.0104 -12.7737 0.0036
# 2 12.4730 183.7760 28.5499 -0.0432 8.2110 0.0160
# 3 1.5777 28.5499 49.1673 -0.0740 2.2892 0.0242
# 4 -0.0104 -0.0432 -0.0740 39.7360 0.0254 -1.5707
# 5 -12.7737 8.2110 2.2892 0.0254 29.0399 -0.0098
# 6 0.0036 0.0160 0.0242 -1.5707 -0.0098 9.1851
#
#
#
# Elastic Compliance Matrix: (Units=1/GPa)
#
#
# Indices 1 2 3 4 5 6 
#
# 1 0.019727 -0.001741 -0.000049 -0.000003 0.009173 0.000005
# 2 -0.001741 0.006194 -0.003436 0.000001 -0.002246 -0.000003
# 3 -0.000049 -0.003436 0.022373 0.000037 -0.000814 -0.000047
# 4 -0.000003 0.000001 0.000037 0.025337 -0.000025 0.004333
# 5 0.009173 -0.002246 -0.000814 -0.000025 0.039170 0.000040
# 6 0.000005 -0.000003 -0.000047 0.004333 0.000040 0.109613
#
#
# Mechanical properties :
#
#
# Convention : Reuss Voigt Hill
#
# Bulk Modulus (GPa) = 26.42593 41.76460 34.09527
# Shear Modulus (GPa) = 20.36820 32.13084 26.24952
#
# Velocity S-wave (km/s) = 2.70583 3.39849 3.07175
# Velocity P-wave (km/s) = 4.38874 5.51473 4.98364
#
# Compressibility (1/GPa) = 0.03784161
#
# Stress axis : x y z
#
# Youngs Moduli (GPa) = 50.69213 161.45333 44.69578
#
# Poissons Ratio (x) = 0.28111 0.00219
# Poissons Ratio (y) = 0.08826 0.15358
# Poissons Ratio (z) = 0.00249 0.55476
#
# Static dielectric constant tensor:
#      x y z
#    x 2.249360 0.000000 -0.007610 
#    y 0.000000 2.413470 0.000010 
#    z -0.007610 0.000010 2.302030 
# 
# From -- ./inp_files/27352.got.cif
#   From: 2010.05.17/outbox.cif.g08.bks.cpg/sg15_14_cif.got.tgz:27352.got - 2010.06.03 18:47:42.
