data_PCOD9257787
_publ_section_title
;
Structure prediction by ZEFSAII (Michael W. Deem and Ramdas Pophale) SiO2 
 PCOD9257787
Probable space group: C 2/C
;
_chemical_formula_sum "Si O2"
_cell_formula_units_Z 44
_cell_length_a 16.861724
_cell_length_b 22.240641
_cell_length_c 5.574708
_cell_angle_alpha 90.000000
_cell_angle_beta 71.201365
_cell_angle_gamma 90.000000
_cell_volume 1979.083064
_symmetry_space_group_name_H-M "C 2/C"
_symmetry_group_IT_number 15
_symmetry_cell_setting 'monoclinic'
loop_
_space_group_symop_operation_xyz
x,y,z
-x,y,1/2-z
-x,-y,-z
x,-y,1/2+z
1/2+x,1/2+y,z
1/2-x,1/2+y,1/2-z
1/2-x,1/2-y,-z
1/2+x,1/2-y,1/2+z
loop_
_atom_site_type_symbol
_atom_site_label
_atom_site_fract_x
_atom_site_fract_y
_atom_site_fract_z
Si Si1 0.773212 0.848970 0.932148
Si Si2 0.000000 0.679447 0.750000
Si Si3 0.341478 0.233898 0.651568
Si Si4 0.618650 0.856470 0.756396
Si Si5 0.166608 0.979495 0.619625
Si Si6 0.359126 0.975016 0.995440
O O1 0.820177 0.803188 0.708358
O O2 0.691823 0.872681 0.870288
O O3 0.823645 0.908577 0.946404
O O4 0.736966 0.806511 0.178472
O O5 0.921108 0.718162 0.739522
O O6 0.034159 0.642668 0.490039
O O7 0.365047 0.209553 0.367051
O O8 0.628106 0.903953 0.534878
O O9 0.127599 0.010498 0.422004
O O10 0.260055 0.008470 0.571433
O O11 0.394531 0.999334 0.210372
#
# Coordination Sequence:
#
# PCOD9257787 Si02
#       6
#     8   4   8   8   8   8
#     4  10  20  33  58  87 109 145 192 239 289 341
#     4  10  24  38  52  78 110 156 194 236 284 340
#     4  10  21  37  55  81 112 147 195 239 290 337
#     4  11  20  36  58  76 116 151 190 238 285 334
#     4  10  18  32  53  84 120 146 179 231 291 345
#     4  10  19  32  55  80 114 152 187 234 280 337
#
# _framework density 22.232517999999999
#
# number of rings (size 3 to 8) (size 9 to 14) (size 15 to 20)
#    0.000    1.818    3.636    3.273    2.545    0.000 
#    0.000    0.909    0.000    0.000    0.000    1.273 
#    0.000    0.000    0.000    0.000    0.000    0.000 
#
# Total GULP energy -122881.147899 kJ/mol
# GULP energy per Si atom -5585.506723 kJ/mol
# Density = 2.218192 g / cm^3
# Si number density = 22.232518 Si / 1000 Ang^3
#
#
#
# Elastic Constant Matrix: (Units=GPa)
#
#
# Indices 1 2 3 4 5 6 
#
# 1 9.1129 -3.9301 -3.2927 0.0000 5.4274 0.0000
# 2 -3.9301 95.9356 14.5991 0.0000 -14.4442 0.0000
# 3 -3.2927 14.5991 125.4472 0.0000 0.1096 0.0000
# 4 0.0000 0.0000 0.0000 30.6861 0.0000 4.7617
# 5 5.4274 -14.4442 0.1096 0.0000 21.5515 0.0000
# 6 0.0000 0.0000 0.0000 4.7617 0.0000 7.1784
#
#
#
# Elastic Compliance Matrix: (Units=1/GPa)
#
#
# Indices 1 2 3 4 5 6 
#
# 1 0.130581 -0.000148 0.003474 0.000000 -0.033002 0.000000
# 2 -0.000148 0.011829 -0.001387 0.000000 0.007972 0.000000
# 3 0.003474 -0.001387 0.008226 0.000000 -0.001847 0.000000
# 4 0.000000 0.000000 0.000000 0.036327 0.000000 -0.024097
# 5 -0.033002 0.007972 -0.001847 0.000000 0.060064 0.000000
# 6 0.000000 0.000000 0.000000 -0.024097 0.000000 0.155291
#
#
# Mechanical properties :
#
#
# Convention : Reuss Voigt Hill
#
# Bulk Modulus (GPa) = 6.47197 27.24979 16.86088
# Shear Modulus (GPa) = 11.11244 26.75783 18.93513
#
# Velocity S-wave (km/s) = 2.23811 3.47298 2.92153
# Velocity P-wave (km/s) = 3.09777 5.32592 4.35670
#
# Compressibility (1/GPa) = 0.15451243
#
# Stress axis : x y z
#
# Youngs Moduli (GPa) = 7.65807 84.53751 121.56965
#
# Poissons Ratio (x) = 0.01250 -0.42228
# Poissons Ratio (y) = 0.00113 0.16867
# Poissons Ratio (z) = -0.02660 0.11729
#
# Static dielectric constant tensor:
#      x y z
#    x 1.812840 0.000000 -0.009430 
#    y 0.000000 1.830010 0.000000 
#    z -0.009430 0.000000 1.929110 
# 
# From -- ./inp_files/10551.got.cif
#   From: 2010.05.17/outbox.cif.g08.bks.cpg/sg15_6_cif.got.tgz:10551.got - 2010.06.03 18:47:42.
