data_PCOD9257273
_publ_section_title
;
Structure prediction by ZEFSAII (Michael W. Deem and Ramdas Pophale) SiO2 
 PCOD9257273
Probable space group: C 2/C
;
_chemical_formula_sum "Si O2"
_cell_formula_units_Z 48
_cell_length_a 23.642853
_cell_length_b 6.995976
_cell_length_c 10.258950
_cell_angle_alpha 90.000000
_cell_angle_beta 100.753176
_cell_angle_gamma 90.000000
_cell_volume 1667.082788
_symmetry_space_group_name_H-M "C 2/C"
_symmetry_group_IT_number 15
_symmetry_cell_setting 'monoclinic'
loop_
_space_group_symop_operation_xyz
x,y,z
-x,y,1/2-z
-x,-y,-z
x,-y,1/2+z
1/2+x,1/2+y,z
1/2-x,1/2+y,1/2-z
1/2-x,1/2-y,-z
1/2+x,1/2-y,1/2+z
loop_
_atom_site_type_symbol
_atom_site_label
_atom_site_fract_x
_atom_site_fract_y
_atom_site_fract_z
Si Si1 0.040834 0.751060 0.443663
Si Si2 0.377170 0.775112 0.290211
Si Si3 0.745457 0.330222 0.232200
Si Si4 0.956363 0.294249 0.110393
Si Si5 0.625960 0.189760 0.291161
Si Si6 0.777945 0.542251 0.994525
O O1 0.085201 0.807504 0.577418
O O2 0.039776 0.522067 0.413074
O O3 0.072032 0.810326 0.321916
O O4 0.979807 0.795831 0.486437
O O5 0.310193 0.743506 0.283566
O O6 0.397060 0.727232 0.151072
O O7 0.390358 0.005681 0.301353
O O8 0.748737 0.409649 0.088233
O O9 0.820798 0.798048 0.252466
O O10 0.763874 0.517412 0.341586
O O11 0.000000 0.257115 0.250000
O O12 0.657879 0.085700 0.429385
O O13 0.750000 0.750000 0.000000
#
# Coordination Sequence:
#
# PCOD9257273 Si02
#       6
#     8   8   8   8   8   8
#     4   9  14  25  43  62  94 131 163 204 256 308
#     4   9  16  26  42  65  98 132 166 204 255 307
#     4  10  18  31  50  68 101 141 172 215 255 303
#     4   8  15  24  39  62  88 131 158 200 260 312
#     4   9  17  28  44  67  95 134 171 205 255 305
#     4   9  18  32  48  68  97 134 172 208 257 304
#
# _framework density 28.792812999999999
#
# number of rings (size 3 to 8) (size 9 to 14) (size 15 to 20)
#    0.000    3.000    1.667    0.000    0.000    0.000 
#    0.000    7.500    0.000    0.000    0.000    0.000 
#    0.000   12.000  139.667  339.000    0.000    0.500 
#
# Total GULP energy -133815.211116 kJ/mol
# GULP energy per Si atom -5575.633796 kJ/mol
# Density = 2.872728 g / cm^3
# Si number density = 28.792813 Si / 1000 Ang^3
#
#
#
# Elastic Constant Matrix: (Units=GPa)
#
#
# Indices 1 2 3 4 5 6 
#
# 1 148.8546 13.7797 61.5338 0.0000 -67.3069 0.0000
# 2 13.7797 38.6224 -26.2174 0.0000 -8.2759 0.0000
# 3 61.5338 -26.2174 131.8741 0.0000 -33.6921 0.0000
# 4 0.0000 0.0000 0.0000 8.7754 0.0000 14.2634
# 5 -67.3069 -8.2759 -33.6921 0.0000 76.6313 0.0000
# 6 0.0000 0.0000 0.0000 14.2634 0.0000 27.4400
#
#
#
# Elastic Compliance Matrix: (Units=1/GPa)
#
#
# Indices 1 2 3 4 5 6 
#
# 1 0.013534 -0.006587 -0.005373 0.000000 0.008814 0.000000
# 2 -0.006587 0.036414 0.011085 0.000000 0.003020 0.000000
# 3 -0.005373 0.011085 0.012836 0.000000 0.002121 0.000000
# 4 0.000000 0.000000 0.000000 0.734613 0.000000 -0.381854
# 5 0.008814 0.003020 0.002121 0.000000 0.022049 0.000000
# 6 0.000000 0.000000 0.000000 -0.381854 0.000000 0.234932
#
#
# Mechanical properties :
#
#
# Convention : Reuss Voigt Hill
#
# Bulk Modulus (GPa) = 16.38491 46.39369 31.38930
# Shear Modulus (GPa) = 4.64480 40.58634 22.61557
#
# Velocity S-wave (km/s) = 1.27149 3.75854 2.80564
# Velocity P-wave (km/s) = 2.80331 5.91468 4.62828
#
# Compressibility (1/GPa) = 0.06103176
#
# Stress axis : x y z
#
# Youngs Moduli (GPa) = 73.88780 27.46231 77.90739
#
# Poissons Ratio (x) = 0.18091 0.41860
# Poissons Ratio (y) = 0.48673 -0.86357
# Poissons Ratio (z) = 0.39700 -0.30441
#
# Static dielectric constant tensor:
#      x y z
#    x 2.153020 0.000000 -0.232300 
#    y 0.000000 4.656250 0.000000 
#    z -0.232300 0.000000 1.885780 
# 
# From -- ./inp_files/116980.got.cif
#   From: 2010.05.17/outbox.cif.g08.bks.cpg/sg15_59_cif.got.tgz:116980.got - 2010.06.03 18:47:42.
