data_PCOD9257667
_publ_section_title
;
Structure prediction by ZEFSAII (Michael W. Deem and Ramdas Pophale) SiO2 
 PCOD9257667
Probable space group: C 2/C
;
_chemical_formula_sum "Si O2"
_cell_formula_units_Z 56
_cell_length_a 16.414077
_cell_length_b 18.887083
_cell_length_c 14.278822
_cell_angle_alpha 90.000000
_cell_angle_beta 146.298704
_cell_angle_gamma 90.000000
_cell_volume 2456.177185
_symmetry_space_group_name_H-M "C 2/C"
_symmetry_group_IT_number 15
_symmetry_cell_setting 'monoclinic'
loop_
_space_group_symop_operation_xyz
x,y,z
-x,y,1/2-z
-x,-y,-z
x,-y,1/2+z
1/2+x,1/2+y,z
1/2-x,1/2+y,1/2-z
1/2-x,1/2-y,-z
1/2+x,1/2-y,1/2+z
loop_
_atom_site_type_symbol
_atom_site_label
_atom_site_fract_x
_atom_site_fract_y
_atom_site_fract_z
Si Si1 0.297391 0.360739 0.125759
Si Si2 0.223748 0.800467 0.580931
Si Si3 0.450809 0.834693 0.047504
Si Si4 0.485480 0.115714 0.364527
Si Si5 0.119857 0.188465 0.195323
Si Si6 0.084218 0.074449 0.573296
Si Si7 0.093521 0.470986 0.179739
O O1 0.227364 0.283554 0.079559
O O2 0.353762 0.345502 0.074807
O O3 0.395292 0.387836 0.305419
O O4 0.147507 0.405877 0.988299
O O5 0.394170 0.821774 0.730216
O O6 0.167008 0.814126 0.630635
O O7 0.482415 0.856521 0.968978
O O8 0.276928 0.822730 0.895754
O O9 0.542588 0.762447 0.149889
O O10 0.507963 0.907246 0.148274
O O11 0.387225 0.046175 0.252414
O O12 0.000822 0.125446 0.081135
O O13 0.249015 0.058955 0.697647
O O14 0.000000 0.000000 0.500000
O O15 0.000000 0.500000 0.000000
#
# Coordination Sequence:
#
# PCOD9257667 Si02
#       7
#     8   8   8   8   8   8   8
#     4  11  21  33  52  72 112 147 192 231 269 331
#     4  10  21  34  49  78 105 151 188 227 272 332
#     4  10  18  32  51  73 101 139 183 231 282 329
#     4  10  18  33  52  71 101 142 187 233 281 330
#     4  11  21  33  51  75 108 142 185 229 277 336
#     4  12  22  34  50  76 103 147 188 234 283 336
#     4  10  18  34  52  69  97 138 186 237 288 323
#
# _framework density 22.799658000000001
#
# number of rings (size 3 to 8) (size 9 to 14) (size 15 to 20)
#    0.000    1.429    4.286    5.571    0.000    0.571 
#    0.000    0.000    0.000    0.000    0.000    0.000 
#    0.000    1.143    6.571    1.000    0.000    1.286 
#
# Total GULP energy -156012.808986 kJ/mol
# GULP energy per Si atom -5571.886035 kJ/mol
# Density = 2.274777 g / cm^3
# Si number density = 22.799658 Si / 1000 Ang^3
#
#
#
# Elastic Constant Matrix: (Units=GPa)
#
#
# Indices 1 2 3 4 5 6 
#
# 1 24.7643 -5.9833 9.5384 0.0000 0.3688 0.0000
# 2 -5.9833 120.4264 42.1923 0.0000 15.8792 0.0000
# 3 9.5384 42.1923 124.9209 0.0000 27.0409 0.0000
# 4 0.0000 0.0000 0.0000 40.6898 0.0000 5.6522
# 5 0.3688 15.8792 27.0409 0.0000 25.6608 0.0000
# 6 0.0000 0.0000 0.0000 5.6522 0.0000 10.1973
#
#
#
# Elastic Compliance Matrix: (Units=1/GPa)
#
#
# Indices 1 2 3 4 5 6 
#
# 1 0.043151 0.003584 -0.005041 0.000000 0.002474 0.000000
# 2 0.003584 0.009924 -0.002960 0.000000 -0.003073 0.000000
# 3 -0.005041 -0.002960 0.011631 0.000000 -0.010352 0.000000
# 4 0.000000 0.000000 0.000000 0.026626 0.000000 -0.014759
# 5 0.002474 -0.003073 -0.010352 0.000000 0.051745 0.000000
# 6 0.000000 0.000000 0.000000 -0.014759 0.000000 0.106245
#
#
# Mechanical properties :
#
#
# Convention : Reuss Voigt Hill
#
# Bulk Modulus (GPa) = 17.89822 40.17849 29.03836
# Shear Modulus (GPa) = 18.06482 30.26721 24.16601
#
# Velocity S-wave (km/s) = 2.81789 3.64748 3.25919
# Velocity P-wave (km/s) = 4.29588 5.94975 5.18913
#
# Compressibility (1/GPa) = 0.05587148
#
# Stress axis : x y z
#
# Youngs Moduli (GPa) = 23.17428 100.76280 85.97993
#
# Poissons Ratio (x) = -0.36111 0.43341
# Poissons Ratio (y) = -0.08305 0.25453
# Poissons Ratio (z) = 0.11682 0.29829
#
# Static dielectric constant tensor:
#      x y z
#    x 2.031990 0.000000 -0.051240 
#    y 0.000000 1.975900 0.000000 
#    z -0.051240 0.000000 1.911810 
# 
# From -- ./inp_files/56159.got.cif
#   From: 2010.05.17/outbox.cif.g08.bks.cpg/sg15_29_cif.got.tgz:56159.got - 2010.06.03 18:47:42.
