data_PCOD9257345
_publ_section_title
;
Structure prediction by ZEFSAII (Michael W. Deem and Ramdas Pophale) SiO2 
 PCOD9257345
Probable space group: C 2/C
;
_chemical_formula_sum "Si O2"
_cell_formula_units_Z 48
_cell_length_a 21.273500
_cell_length_b 8.937589
_cell_length_c 30.147068
_cell_angle_alpha 90.000000
_cell_angle_beta 152.748386
_cell_angle_gamma 90.000000
_cell_volume 2624.666107
_symmetry_space_group_name_H-M "C 2/C"
_symmetry_group_IT_number 15
_symmetry_cell_setting 'monoclinic'
loop_
_space_group_symop_operation_xyz
x,y,z
-x,y,1/2-z
-x,-y,-z
x,-y,1/2+z
1/2+x,1/2+y,z
1/2-x,1/2+y,1/2-z
1/2-x,1/2-y,-z
1/2+x,1/2-y,1/2+z
loop_
_atom_site_type_symbol
_atom_site_label
_atom_site_fract_x
_atom_site_fract_y
_atom_site_fract_z
Si Si1 0.529438 0.806919 0.476602
Si Si2 0.837892 0.954770 0.402391
Si Si3 0.172990 0.918211 0.697437
Si Si4 0.373950 0.195097 0.202769
Si Si5 0.422671 0.723720 0.834214
Si Si6 0.124248 0.366303 0.026490
O O1 0.656948 0.709773 0.574512
O O2 0.443385 0.702258 0.389151
O O3 0.434243 0.832880 0.460497
O O4 0.576654 0.964710 0.487092
O O5 0.790776 0.980922 0.322943
O O6 0.741582 0.064682 0.369608
O O7 0.000000 0.000000 0.500000
O O8 0.308011 0.820288 0.789385
O O9 0.118979 0.048551 0.695286
O O10 0.500000 0.163545 0.250000
O O11 0.423907 0.217416 0.284701
O O12 0.286140 0.338270 0.131416
O O13 0.557057 0.756576 0.947742
#
# Coordination Sequence:
#
# PCOD9257345 Si02
#       6
#     8   8   8   8   8   8
#     4  10  18  33  59  87 118 144 185 248 301 333
#     4   9  15  34  57  80 108 147 190 238 281 333
#     4  10  18  31  51  90 116 143 193 253 290 334
#     4  11  24  40  57  84 121 160 197 234 296 358
#     4  11  21  33  60  85 118 151 195 248 292 346
#     4  11  20  35  56  87 117 149 189 240 293 347
#
# _framework density 18.288041
#
# number of rings (size 3 to 8) (size 9 to 14) (size 15 to 20)
#    0.000    1.667    6.667    2.000    2.333    0.667 
#    0.000    0.833    0.000    2.000    0.000    0.000 
#    0.000    0.000    0.000    0.000    0.000    0.000 
#
# Total GULP energy -133660.431860 kJ/mol
# GULP energy per Si atom -5569.184661 kJ/mol
# Density = 1.824642 g / cm^3
# Si number density = 18.288041 Si / 1000 Ang^3
#
#
#
# Elastic Constant Matrix: (Units=GPa)
#
#
# Indices 1 2 3 4 5 6 
#
# 1 74.1909 32.2627 33.0155 0.0000 15.3124 0.0000
# 2 32.2627 87.6692 14.0143 -0.0003 10.1664 0.0000
# 3 33.0155 14.0143 67.1376 -0.0013 4.4495 -0.0004
# 4 0.0000 -0.0003 -0.0013 30.8093 -0.0002 -3.2213
# 5 15.3124 10.1664 4.4495 -0.0002 19.3937 -0.0001
# 6 0.0000 0.0000 -0.0004 -3.2213 -0.0001 13.2728
#
#
#
# Elastic Compliance Matrix: (Units=1/GPa)
#
#
# Indices 1 2 3 4 5 6 
#
# 1 0.022508 -0.005334 -0.009101 -0.000001 -0.012887 -0.000001
# 2 -0.005334 0.013721 -0.000044 0.000000 -0.002971 0.000000
# 3 -0.009101 -0.000044 0.019194 0.000001 0.002805 0.000001
# 4 -0.000001 0.000000 0.000001 0.033303 0.000001 0.008082
# 5 -0.012887 -0.002971 0.002805 0.000001 0.062652 0.000001
# 6 -0.000001 0.000000 0.000001 0.008082 0.000001 0.077303
#
#
# Mechanical properties :
#
#
# Convention : Reuss Voigt Hill
#
# Bulk Modulus (GPa) = 37.78653 43.06472 40.42563
# Shear Modulus (GPa) = 18.76448 22.67552 20.72000
#
# Velocity S-wave (km/s) = 3.20668 3.52506 3.36963
# Velocity P-wave (km/s) = 5.86661 6.33776 6.10673
#
# Compressibility (1/GPa) = 0.02646446
#
# Stress axis : x y z
#
# Youngs Moduli (GPa) = 44.42846 72.88098 52.10060
#
# Poissons Ratio (x) = 0.38873 0.47417
# Poissons Ratio (y) = 0.23697 0.00231
# Poissons Ratio (z) = 0.40435 0.00323
#
# Static dielectric constant tensor:
#      x y z
#    x 1.607640 0.000000 -0.016860 
#    y 0.000000 1.727330 0.000000 
#    z -0.016860 0.000000 1.700880 
# 
# From -- ./inp_files/317308.got.cif
#   From: 2010.05.17/outbox.cif.g08.bks.cpg/sg15_159_cif.got.tgz:317308.got - 2010.06.03 18:47:42.
