data_PCOD9257770
_publ_section_title
;
Structure prediction by ZEFSAII (Michael W. Deem and Ramdas Pophale) SiO2 
 PCOD9257770
Probable space group: C 2/C
;
_chemical_formula_sum "Si O2"
_cell_formula_units_Z 48
_cell_length_a 5.988550
_cell_length_b 18.650805
_cell_length_c 21.131586
_cell_angle_alpha 90.000000
_cell_angle_beta 85.533668
_cell_angle_gamma 90.000000
_cell_volume 2353.046510
_symmetry_space_group_name_H-M "C 2/C"
_symmetry_group_IT_number 15
_symmetry_cell_setting 'monoclinic'
loop_
_space_group_symop_operation_xyz
x,y,z
-x,y,1/2-z
-x,-y,-z
x,-y,1/2+z
1/2+x,1/2+y,z
1/2-x,1/2+y,1/2-z
1/2-x,1/2-y,-z
1/2+x,1/2-y,1/2+z
loop_
_atom_site_type_symbol
_atom_site_label
_atom_site_fract_x
_atom_site_fract_y
_atom_site_fract_z
Si Si1 0.408274 0.484468 0.594776
Si Si2 0.322785 0.150574 0.453056
Si Si3 0.036112 0.200130 0.580533
Si Si4 0.249659 0.478379 0.737992
Si Si5 0.157445 0.390204 0.044728
Si Si6 0.244920 0.423742 0.355657
O O1 0.341655 0.405134 0.576491
O O2 0.278931 0.496951 0.664076
O O3 0.321746 0.542038 0.545827
O O4 0.657382 0.508441 0.607059
O O5 0.194421 0.178338 0.518200
O O6 0.405532 0.217250 0.409191
O O7 0.538099 0.113219 0.479911
O O8 0.090483 0.143906 0.635303
O O9 0.790930 0.182074 0.559227
O O10 0.500000 0.445149 0.750000
O O11 0.233412 0.547280 0.784865
O O12 0.000000 0.442373 0.750000
O O13 0.979694 0.401153 0.104610
#
# Coordination Sequence:
#
# PCOD9257770 Si02
#       6
#     8   8   8   8   8   8
#     4  10  20  32  54  83 111 144 193 254 297 354
#     4  10  20  34  51  80 117 151 190 235 303 358
#     4   9  20  35  52  76 115 156 190 236 291 372
#     4  10  19  36  59  84 112 145 192 249 298 347
#     4  10  18  32  53  79 109 146 191 236 293 355
#     4   9  19  34  55  80 107 147 195 243 296 351
#
# _framework density 20.399084999999999
#
# number of rings (size 3 to 8) (size 9 to 14) (size 15 to 20)
#    0.000    2.333    1.667    1.000    0.000    7.333 
#    0.000    0.000    0.000    8.000    0.000    0.000 
#    0.000    0.000    0.000    0.000    0.000    0.000 
#
# Total GULP energy -133665.598416 kJ/mol
# GULP energy per Si atom -5569.399934 kJ/mol
# Density = 2.035266 g / cm^3
# Si number density = 20.399085 Si / 1000 Ang^3
#
#
#
# Elastic Constant Matrix: (Units=GPa)
#
#
# Indices 1 2 3 4 5 6 
#
# 1 90.3795 13.9315 -4.7870 0.0000 0.6931 0.0000
# 2 13.9315 98.1942 27.4977 0.0000 9.4250 0.0000
# 3 -4.7870 27.4977 54.6730 0.0000 10.2894 0.0000
# 4 0.0000 0.0000 0.0000 10.0069 0.0000 -4.4271
# 5 0.6931 9.4250 10.2894 0.0000 25.9560 0.0000
# 6 0.0000 0.0000 0.0000 -4.4271 0.0000 24.3984
#
#
#
# Elastic Compliance Matrix: (Units=1/GPa)
#
#
# Indices 1 2 3 4 5 6 
#
# 1 0.011525 -0.002213 0.002192 0.000000 -0.000373 0.000000
# 2 -0.002213 0.012385 -0.006038 0.000000 -0.002045 0.000000
# 3 0.002192 -0.006038 0.022820 0.000000 -0.006912 0.000000
# 4 0.000000 0.000000 0.000000 0.108653 0.000000 0.019715
# 5 -0.000373 -0.002045 -0.006912 0.000000 0.042019 0.000000
# 6 0.000000 0.000000 0.000000 0.019715 0.000000 0.044564
#
#
# Mechanical properties :
#
#
# Convention : Reuss Voigt Hill
#
# Bulk Modulus (GPa) = 28.89153 35.17014 32.03083
# Shear Modulus (GPa) = 18.82386 25.84589 22.33487
#
# Velocity S-wave (km/s) = 3.04102 3.56337 3.31251
# Velocity P-wave (km/s) = 5.15018 5.84882 5.51058
#
# Compressibility (1/GPa) = 0.03461222
#
# Stress axis : x y z
#
# Youngs Moduli (GPa) = 86.77096 80.74290 43.82076
#
# Poissons Ratio (x) = 0.17870 -0.09607
# Poissons Ratio (y) = 0.19204 0.26459
# Poissons Ratio (z) = -0.19024 0.48753
#
# Static dielectric constant tensor:
#      x y z
#    x 1.849290 0.000000 0.016610 
#    y 0.000000 1.739570 0.000000 
#    z 0.016610 0.000000 1.714300 
# 
# From -- ./inp_files/227340.got.cif
#   From: 2010.05.17/outbox.cif.g08.bks.cpg/sg15_114_cif.got.tgz:227340.got - 2010.06.03 18:47:42.
