data_PCOD9257561
_publ_section_title
;
Structure prediction by ZEFSAII (Michael W. Deem and Ramdas Pophale) SiO2 
 PCOD9257561
Probable space group: C 2/C
;
_chemical_formula_sum "Si O2"
_cell_formula_units_Z 64
_cell_length_a 12.536291
_cell_length_b 16.576045
_cell_length_c 13.407817
_cell_angle_alpha 90.000000
_cell_angle_beta 106.337562
_cell_angle_gamma 90.000000
_cell_volume 2673.670214
_symmetry_space_group_name_H-M "C 2/C"
_symmetry_group_IT_number 15
_symmetry_cell_setting 'monoclinic'
loop_
_space_group_symop_operation_xyz
x,y,z
-x,y,1/2-z
-x,-y,-z
x,-y,1/2+z
1/2+x,1/2+y,z
1/2-x,1/2+y,1/2-z
1/2-x,1/2-y,-z
1/2+x,1/2-y,1/2+z
loop_
_atom_site_type_symbol
_atom_site_label
_atom_site_fract_x
_atom_site_fract_y
_atom_site_fract_z
Si Si1 0.374839 0.749308 0.317813
Si Si2 0.661881 0.029782 0.463921
Si Si3 0.382360 0.894347 0.179541
Si Si4 0.305578 0.353627 0.113499
Si Si5 0.453729 0.125964 0.351976
Si Si6 0.272079 0.577201 0.282524
Si Si7 0.996526 0.207073 0.966013
Si Si8 0.134480 0.921183 0.178748
O O1 0.386130 0.803290 0.221582
O O2 0.291042 0.796552 0.370495
O O3 0.320475 0.665187 0.278834
O O4 0.482565 0.732309 0.414536
O O5 0.747136 0.062107 0.568026
O O6 0.545501 0.076717 0.438577
O O7 0.721054 0.066871 0.380112
O O8 0.637220 0.935619 0.433468
O O9 0.500000 0.929839 0.250000
O O10 0.268495 0.920883 0.202145
O O11 0.382816 0.314621 0.049755
O O12 0.384928 0.371813 0.226826
O O13 0.500000 0.133644 0.250000
O O14 0.337993 0.077635 0.315948
O O15 0.445776 0.215743 0.395327
O O16 0.377036 0.515928 0.307205
O O17 0.923292 0.126959 0.925658
#
# Coordination Sequence:
#
# PCOD9257561 Si02
#       8
#     8   8   8   8   8   8   8   8
#     4  11  22  38  65  92 127 166 214 259 318 388
#     4  10  18  35  63  90 123 158 200 265 329 370
#     4  10  22  44  62  82 123 172 211 267 313 368
#     4  11  20  38  62 100 129 155 205 270 331 384
#     4  10  18  31  60  89 118 159 204 256 327 369
#     4  10  20  38  56  85 127 167 206 257 314 383
#     4  12  21  37  63 100 130 158 205 272 327 385
#     4  10  23  38  62  91 126 166 208 260 329 381
#
# _framework density 23.937134
#
# number of rings (size 3 to 8) (size 9 to 14) (size 15 to 20)
#    0.000    1.500    2.500    6.375    0.000    0.500 
#    2.250    3.750    0.000    0.000    0.000    0.000 
#    0.000    0.000    0.000    0.000    0.000    0.000 
#
# Total GULP energy -178441.178055 kJ/mol
# GULP energy per Si atom -5576.286814 kJ/mol
# Density = 2.388265 g / cm^3
# Si number density = 23.937134 Si / 1000 Ang^3
#
#
#
# Elastic Constant Matrix: (Units=GPa)
#
#
# Indices 1 2 3 4 5 6 
#
# 1 68.4769 36.3512 25.0928 0.0000 8.4189 0.0000
# 2 36.3512 141.0110 25.6073 0.0000 8.4165 0.0000
# 3 25.0928 25.6073 45.1982 0.0000 16.5083 0.0000
# 4 0.0000 0.0000 0.0000 23.0840 0.0000 0.6327
# 5 8.4189 8.4165 16.5083 0.0000 29.2328 0.0000
# 6 0.0000 0.0000 0.0000 0.6327 0.0000 21.6512
#
#
#
# Elastic Compliance Matrix: (Units=1/GPa)
#
#
# Indices 1 2 3 4 5 6 
#
# 1 0.019740 -0.003450 -0.009185 0.000000 0.000495 0.000000
# 2 -0.003450 0.008510 -0.002991 0.000000 0.000233 0.000000
# 3 -0.009185 -0.002991 0.034820 0.000000 -0.016157 0.000000
# 4 0.000000 0.000000 0.000000 0.043355 0.000000 -0.001267
# 5 0.000495 0.000233 -0.016157 0.000000 0.043123 0.000000
# 6 0.000000 0.000000 0.000000 -0.001267 0.000000 0.046224
#
#
# Mechanical properties :
#
#
# Convention : Reuss Voigt Hill
#
# Bulk Modulus (GPa) = 31.42955 47.64320 39.53637
# Shear Modulus (GPa) = 21.04105 25.96925 23.50515
#
# Velocity S-wave (km/s) = 2.96803 3.29735 3.13701
# Velocity P-wave (km/s) = 4.99041 5.86884 5.44736
#
# Compressibility (1/GPa) = 0.03181719
#
# Stress axis : x y z
#
# Youngs Moduli (GPa) = 50.65848 117.50351 28.71910
#
# Poissons Ratio (x) = 0.40542 0.26379
# Poissons Ratio (y) = 0.17479 0.08590
# Poissons Ratio (z) = 0.46531 0.35145
#
# Static dielectric constant tensor:
#      x y z
#    x 1.894880 0.000000 -0.047990 
#    y 0.000000 2.011590 0.000000 
#    z -0.047990 0.000000 1.890770 
# 
# From -- ./inp_files/155222.got.cif
#   From: 2010.05.17/outbox.cif.g08.bks.cpg/sg15_78_cif.got.tgz:155222.got - 2010.06.03 18:47:42.
