data_PCOD9257384
_publ_section_title
;
Structure prediction by ZEFSAII (Michael W. Deem and Ramdas Pophale) SiO2 
 PCOD9257384
Probable space group: C 2/C
;
_chemical_formula_sum "Si O2"
_cell_formula_units_Z 48
_cell_length_a 25.080699
_cell_length_b 12.132851
_cell_length_c 8.236477
_cell_angle_alpha 90.000000
_cell_angle_beta 104.646112
_cell_angle_gamma 90.000000
_cell_volume 2424.921326
_symmetry_space_group_name_H-M "C 2/C"
_symmetry_group_IT_number 15
_symmetry_cell_setting 'monoclinic'
loop_
_space_group_symop_operation_xyz
x,y,z
-x,y,1/2-z
-x,-y,-z
x,-y,1/2+z
1/2+x,1/2+y,z
1/2-x,1/2+y,1/2-z
1/2-x,1/2-y,-z
1/2+x,1/2-y,1/2+z
loop_
_atom_site_type_symbol
_atom_site_label
_atom_site_fract_x
_atom_site_fract_y
_atom_site_fract_z
Si Si1 0.296306 0.519278 0.405542
Si Si2 0.840130 0.170349 0.731934
Si Si3 0.441158 0.832688 0.766924
Si Si4 0.320940 0.081047 0.725770
Si Si5 0.759200 0.783272 0.694811
Si Si6 0.900159 0.458949 0.024400
O O1 0.319981 0.597871 0.563312
O O2 0.334414 0.417443 0.377121
O O3 0.234005 0.475177 0.389107
O O4 0.286337 0.599694 0.243507
O O5 0.896741 0.234338 0.742538
O O6 0.796432 0.265233 0.747327
O O7 0.500000 0.792729 0.750000
O O8 0.424011 0.933172 0.632412
O O9 0.441862 0.890327 0.945676
O O10 0.299847 0.190075 0.796373
O O11 0.367304 0.112421 0.630744
O O12 0.351758 0.000447 0.869735
O O13 0.750000 0.750000 0.500000
#
# Coordination Sequence:
#
# PCOD9257384 Si02
#       6
#     8   8   8   8   8   8
#     4  11  21  35  55  85 123 158 189 228 287 357
#     4  11  23  37  57  84 118 159 198 239 284 343
#     4  11  23  41  60  82 110 149 199 251 293 333
#     4  10  18  31  52  83 114 142 175 221 284 356
#     4  11  19  31  53  84 118 153 185 226 284 356
#     4  10  20  35  58  84 110 139 179 237 299 349
#
# _framework density 19.794457999999999
#
# number of rings (size 3 to 8) (size 9 to 14) (size 15 to 20)
#    0.000    1.333    0.000   10.000    0.000    0.000 
#    0.000    0.833    0.000    0.000    0.000    0.000 
#    0.000    0.000    0.000    0.000    0.000    0.000 
#
# Total GULP energy -133958.635039 kJ/mol
# GULP energy per Si atom -5581.609793 kJ/mol
# Density = 1.974941 g / cm^3
# Si number density = 19.794458 Si / 1000 Ang^3
#
#
#
# Elastic Constant Matrix: (Units=GPa)
#
#
# Indices 1 2 3 4 5 6 
#
# 1 147.8486 44.0051 18.0767 0.0000 -26.0774 0.0000
# 2 44.0051 95.6164 8.2344 0.0000 -8.4420 0.0000
# 3 18.0767 8.2344 57.0194 0.0000 -15.5629 0.0000
# 4 0.0000 0.0000 0.0000 33.7998 0.0000 -0.7663
# 5 -26.0774 -8.4420 -15.5629 0.0000 17.2184 0.0000
# 6 0.0000 0.0000 0.0000 -0.7663 0.0000 29.9394
#
#
#
# Elastic Compliance Matrix: (Units=1/GPa)
#
#
# Indices 1 2 3 4 5 6 
#
# 1 0.010315 -0.003529 0.001369 0.000000 0.015130 0.000000
# 2 -0.003529 0.012140 -0.000622 0.000000 0.000045 0.000000
# 3 0.001369 -0.000622 0.023465 0.000000 0.022977 0.000000
# 4 0.000000 0.000000 0.000000 0.029603 0.000000 0.000758
# 5 0.015130 0.000045 0.022977 0.000000 0.101781 0.000000
# 6 0.000000 0.000000 0.000000 0.000758 0.000000 0.033420
#
#
# Mechanical properties :
#
#
# Convention : Reuss Voigt Hill
#
# Bulk Modulus (GPa) = 24.77982 49.01297 36.89639
# Shear Modulus (GPa) = 21.76350 31.53607 26.64979
#
# Velocity S-wave (km/s) = 3.31943 3.99579 3.67321
# Velocity P-wave (km/s) = 5.21893 6.78993 6.05559
#
# Compressibility (1/GPa) = 0.04035542
#
# Stress axis : x y z
#
# Youngs Moduli (GPa) = 96.94304 82.37012 42.61642
#
# Poissons Ratio (x) = 0.29072 -0.05834
# Poissons Ratio (y) = 0.34216 0.02651
# Poissons Ratio (z) = -0.13271 0.05124
#
# Static dielectric constant tensor:
#      x y z
#    x 1.687670 0.000000 -0.028650 
#    y 0.000000 1.747740 0.000000 
#    z -0.028650 0.000000 1.794140 
# 
# From -- ./inp_files/60626.got.cif
#   From: 2010.05.17/outbox.cif.g08.bks.cpg/sg15_31_cif.got.tgz:60626.got - 2010.06.03 18:47:42.
