data_PCOD9257950
_publ_section_title
;
Structure prediction by ZEFSAII (Michael W. Deem and Ramdas Pophale) SiO2 
 PCOD9257950
Probable space group: C 2/C
;
_chemical_formula_sum "Si O2"
_cell_formula_units_Z 56
_cell_length_a 13.579680
_cell_length_b 9.551760
_cell_length_c 30.118800
_cell_angle_alpha 90.000000
_cell_angle_beta 40.163892
_cell_angle_gamma 90.000000
_cell_volume 2519.731702
_symmetry_space_group_name_H-M "C 2/C"
_symmetry_group_IT_number 15
_symmetry_cell_setting 'monoclinic'
loop_
_space_group_symop_operation_xyz
x,y,z
-x,y,1/2-z
-x,-y,-z
x,-y,1/2+z
1/2+x,1/2+y,z
1/2-x,1/2+y,1/2-z
1/2-x,1/2-y,-z
1/2+x,1/2-y,1/2+z
loop_
_atom_site_type_symbol
_atom_site_label
_atom_site_fract_x
_atom_site_fract_y
_atom_site_fract_z
Si Si1 0.466588 0.183880 0.711709
Si Si2 0.068865 0.263659 0.561620
Si Si3 0.922924 0.379552 0.850612
Si Si4 0.582090 0.256003 0.871432
Si Si5 0.351305 0.453488 0.175133
Si Si6 0.386162 0.615211 0.754211
Si Si7 0.943507 0.161277 0.027088
O O1 0.500000 0.241694 0.750000
O O2 0.495145 0.240583 0.650832
O O3 0.285345 0.155596 0.776769
O O4 0.544320 0.029313 0.682167
O O5 0.250000 0.250000 0.500000
O O6 0.033774 0.379074 0.611469
O O7 0.013705 0.259896 0.529761
O O8 0.998582 0.120769 0.605094
O O9 0.743023 0.343051 0.908536
O O10 0.028391 0.257539 0.792784
O O11 0.674795 0.402977 0.839850
O O12 0.716162 0.143216 0.829125
O O13 0.493798 0.272955 0.948382
O O14 0.375779 0.490156 0.217541
O O15 0.500000 0.555839 0.750000
O O16 0.000000 0.000000 0.000000
#
# Coordination Sequence:
#
# PCOD9257950 Si02
#       7
#     8   8   8   8   8   8   8
#     4  11  23  37  59  85 117 152 182 240 301 342
#     4   9  20  35  59  86 111 150 196 237 271 331
#     4  10  19  36  58  82 110 146 191 231 287 334
#     4  11  21  35  55  88 114 143 192 232 286 349
#     4  10  20  35  58  83 112 146 193 235 287 341
#     4  10  18  32  56  83 107 139 183 247 287 326
#     4  11  20  34  60  82 111 149 194 234 272 339
#
# _framework density 22.224587
#
# number of rings (size 3 to 8) (size 9 to 14) (size 15 to 20)
#    0.000    1.714    4.286    1.286    0.000    0.571 
#    0.000    1.429    0.000    0.000    0.000    0.000 
#    0.000    0.000    0.000    0.000    0.000    0.000 
#
# Total GULP energy -155873.368522 kJ/mol
# GULP energy per Si atom -5566.906019 kJ/mol
# Density = 2.217400 g / cm^3
# Si number density = 22.224587 Si / 1000 Ang^3
#
#
#
# Elastic Constant Matrix: (Units=GPa)
#
#
# Indices 1 2 3 4 5 6 
#
# 1 124.1355 3.0548 32.2024 0.0000 57.3267 0.0003
# 2 3.0548 42.1996 14.2168 0.0000 12.5003 0.0003
# 3 32.2024 14.2168 64.8139 0.0000 34.7913 0.0001
# 4 0.0000 0.0000 0.0000 25.2735 0.0000 2.7788
# 5 57.3267 12.5003 34.7913 0.0000 62.1165 0.0001
# 6 0.0003 0.0003 0.0001 2.7788 0.0001 113.2681
#
#
#
# Elastic Compliance Matrix: (Units=1/GPa)
#
#
# Indices 1 2 3 4 5 6 
#
# 1 0.014418 0.003179 -0.000536 0.000000 -0.013646 0.000000
# 2 0.003179 0.026651 -0.004249 0.000000 -0.005917 0.000000
# 3 -0.000536 -0.004249 0.022739 0.000000 -0.011387 0.000000
# 4 0.000000 0.000000 0.000000 0.039674 0.000000 -0.000973
# 5 -0.013646 -0.005917 -0.011387 0.000000 0.036261 0.000000
# 6 0.000000 0.000000 0.000000 -0.000973 0.000000 0.008852
#
#
# Mechanical properties :
#
#
# Convention : Reuss Voigt Hill
#
# Bulk Modulus (GPa) = 16.50244 36.67744 26.58994
# Shear Modulus (GPa) = 29.06856 52.24330 40.65593
#
# Velocity S-wave (km/s) = 3.62048 4.85366 4.28170
# Velocity P-wave (km/s) = 4.99185 6.92457 6.03607
#
# Compressibility (1/GPa) = 0.06059710
#
# Stress axis : x y z
#
# Youngs Moduli (GPa) = 69.35561 37.52196 43.97692
#
# Poissons Ratio (x) = -0.11929 0.02357
# Poissons Ratio (y) = -0.22049 0.18686
# Poissons Ratio (z) = 0.03717 0.15943
#
# Static dielectric constant tensor:
#      x y z
#    x 3.346440 0.000000 0.668000 
#    y 0.000000 1.806580 0.000000 
#    z 0.668000 0.000000 2.106220 
# 
# From -- ./inp_files/237144.got.cif
#   From: 2010.05.17/outbox.cif.g08.bks.cpg/sg15_119_cif.got.tgz:237144.got - 2010.06.03 18:47:42.
