data_PCOD9257621
_publ_section_title
;
Structure prediction by ZEFSAII (Michael W. Deem and Ramdas Pophale) SiO2 
 PCOD9257621
Probable space group: C 2/C
;
_chemical_formula_sum "Si O2"
_cell_formula_units_Z 36
_cell_length_a 15.895372
_cell_length_b 19.041384
_cell_length_c 5.014036
_cell_angle_alpha 90.000000
_cell_angle_beta 67.949325
_cell_angle_gamma 90.000000
_cell_volume 1406.588712
_symmetry_space_group_name_H-M "C 2/C"
_symmetry_group_IT_number 15
_symmetry_cell_setting 'monoclinic'
loop_
_space_group_symop_operation_xyz
x,y,z
-x,y,1/2-z
-x,-y,-z
x,-y,1/2+z
1/2+x,1/2+y,z
1/2-x,1/2+y,1/2-z
1/2-x,1/2-y,-z
1/2+x,1/2-y,1/2+z
loop_
_atom_site_type_symbol
_atom_site_label
_atom_site_fract_x
_atom_site_fract_y
_atom_site_fract_z
Si Si1 0.697525 0.588983 0.405128
Si Si2 0.000000 0.079515 0.750000
Si Si3 0.814720 0.395775 0.239724
Si Si4 0.500000 0.949063 0.250000
Si Si5 0.831260 0.757855 0.694994
Si Si6 0.000000 0.176609 0.250000
O O1 0.600045 0.549640 0.550774
O O2 0.772167 0.563603 0.533097
O O3 0.678355 0.673397 0.478292
O O4 0.736641 0.594839 0.058560
O O5 0.977360 0.126226 0.520889
O O6 0.906054 0.409458 0.302237
O O7 0.838220 0.320251 0.075588
O O8 0.500000 0.000000 0.500000
O O9 0.918752 0.774843 0.761719
O O10 0.750000 0.750000 0.000000
#
# Coordination Sequence:
#
# PCOD9257621 Si02
#       6
#     8   4   8   4   8   4
#     4  10  20  34  57  90 125 159 192 235 304 391
#     4  10  18  32  49  80 122 156 183 218 274 364
#     4  11  22  38  60  86 114 158 207 257 315 361
#     4  12  27  48  67  88 118 162 225 284 311 342
#     4   9  18  32  51  82 122 157 194 240 291 373
#     4  10  19  28  44  70 112 166 194 218 273 340
#
# _framework density 25.593837000000001
#
# number of rings (size 3 to 8) (size 9 to 14) (size 15 to 20)
#    0.000    1.778    0.000    6.667    0.000    5.333 
#    0.000    5.556    0.000    0.000    0.000   15.556 
#    0.000    0.000    0.000    0.000    0.000    0.000 
#
# Total GULP energy -100383.079070 kJ/mol
# GULP energy per Si atom -5576.837726 kJ/mol
# Density = 2.553558 g / cm^3
# Si number density = 25.593837 Si / 1000 Ang^3
#
#
#
# Elastic Constant Matrix: (Units=GPa)
#
#
# Indices 1 2 3 4 5 6 
#
# 1 215.3155 13.7096 14.3310 0.0000 -3.5935 0.0000
# 2 13.7096 77.3292 3.0817 0.0000 2.1110 0.0000
# 3 14.3310 3.0817 104.3652 0.0000 9.6903 0.0000
# 4 0.0000 0.0000 0.0000 27.4557 0.0000 23.0034
# 5 -3.5935 2.1110 9.6903 0.0000 54.2836 0.0000
# 6 0.0000 0.0000 0.0000 23.0034 0.0000 20.9505
#
#
#
# Elastic Compliance Matrix: (Units=1/GPa)
#
#
# Indices 1 2 3 4 5 6 
#
# 1 0.004750 -0.000828 -0.000671 0.000000 0.000466 0.000000
# 2 -0.000828 0.013102 -0.000224 0.000000 -0.000524 0.000000
# 3 -0.000671 -0.000224 0.009847 0.000000 -0.001794 0.000000
# 4 0.000000 0.000000 0.000000 0.454930 0.000000 -0.499510
# 5 0.000466 -0.000524 -0.001794 0.000000 0.018793 0.000000
# 6 0.000000 0.000000 0.000000 -0.499510 0.000000 0.596189
#
#
# Mechanical properties :
#
#
# Convention : Reuss Voigt Hill
#
# Bulk Modulus (GPa) = 41.23504 51.02829 46.13167
# Shear Modulus (GPa) = 4.50799 44.93046 24.71922
#
# Velocity S-wave (km/s) = 1.32860 4.19444 3.11115
# Velocity P-wave (km/s) = 4.30115 6.59081 5.56501
#
# Compressibility (1/GPa) = 0.02425122
#
# Stress axis : x y z
#
# Youngs Moduli (GPa) = 210.54767 76.32547 101.55334
#
# Poissons Ratio (x) = 0.06320 0.06815
# Poissons Ratio (y) = 0.17434 0.02280
# Poissons Ratio (z) = 0.14129 0.01713
#
# Static dielectric constant tensor:
#      x y z
#    x 2.250020 0.000000 -0.052940 
#    y 0.000000 2.313100 0.000000 
#    z -0.052940 0.000000 1.991620 
# 
# From -- ./inp_files/7228.got.cif
#   From: 2010.05.17/outbox.cif.g08.bks.cpg/sg15_4_cif.got.tgz:7228.got - 2010.06.03 18:47:42.
