data_PCOD9257601
_publ_section_title
;
Structure prediction by ZEFSAII (Michael W. Deem and Ramdas Pophale) SiO2 
 PCOD9257601
Probable space group: C 2/C
;
_chemical_formula_sum "Si O2"
_cell_formula_units_Z 60
_cell_length_a 17.297706
_cell_length_b 16.927997
_cell_length_c 23.197196
_cell_angle_alpha 90.000000
_cell_angle_beta 23.243252
_cell_angle_gamma 90.000000
_cell_volume 2680.562172
_symmetry_space_group_name_H-M "C 2/C"
_symmetry_group_IT_number 15
_symmetry_cell_setting 'monoclinic'
loop_
_space_group_symop_operation_xyz
x,y,z
-x,y,1/2-z
-x,-y,-z
x,-y,1/2+z
1/2+x,1/2+y,z
1/2-x,1/2+y,1/2-z
1/2-x,1/2-y,-z
1/2+x,1/2-y,1/2+z
loop_
_atom_site_type_symbol
_atom_site_label
_atom_site_fract_x
_atom_site_fract_y
_atom_site_fract_z
Si Si1 0.117159 0.006903 0.998858
Si Si2 0.841075 0.765818 0.557568
Si Si3 0.322720 0.319336 0.027074
Si Si4 0.128037 0.655411 0.300071
Si Si5 0.288671 0.980200 0.253636
Si Si6 0.015910 0.326904 0.337589
Si Si7 0.000000 0.847075 0.250000
Si Si8 0.728976 0.112559 0.034076
O O1 0.278358 0.971843 0.930986
O O2 0.068241 0.097308 0.044529
O O3 0.210089 0.001859 0.872084
O O4 0.912073 0.959914 0.142358
O O5 0.813684 0.810237 0.637238
O O6 0.659716 0.705361 0.674323
O O7 0.806942 0.827544 0.528972
O O8 0.036958 0.716652 0.408365
O O9 0.163136 0.332778 0.085173
O O10 0.202381 0.309406 0.168832
O O11 0.455355 0.245452 0.919559
O O12 0.136858 0.565838 0.318011
O O13 0.967468 0.646529 0.358465
O O14 0.434622 0.906771 0.160810
O O15 0.120477 0.895161 0.121122
#
# Coordination Sequence:
#
# PCOD9257601 Si02
#       8
#     8   8   8   8   8   8   4   8
#     4  10  21  36  55  83 115 146 191 231 279 336
#     4  11  18  32  52  82 116 144 179 227 265 333
#     4   9  18  36  60  88 104 141 187 245 281 331
#     4  11  20  33  57  84 116 149 189 226 278 328
#     4  10  21  37  55  83 113 151 192 229 275 344
#     4   9  18  36  63  83 109 138 192 238 289 321
#     4  10  18  32  48  86 114 144 180 220 276 336
#     4  11  19  32  57  78 115 148 182 230 273 325
#
# _framework density 22.383365000000001
#
# number of rings (size 3 to 8) (size 9 to 14) (size 15 to 20)
#    0.000    1.867    4.000    1.600    0.000    1.067 
#    2.400    5.333    0.000    4.000    0.000    0.000 
#    0.000    0.000    0.000    0.000    0.000    0.000 
#
# Total GULP energy -167613.102960 kJ/mol
# GULP energy per Si atom -5587.103432 kJ/mol
# Density = 2.233242 g / cm^3
# Si number density = 22.383365 Si / 1000 Ang^3
#
#
#
# Elastic Constant Matrix: (Units=GPa)
#
#
# Indices 1 2 3 4 5 6 
#
# 1 57.0579 25.2720 24.6621 0.0059 -6.9981 -0.0128
# 2 25.2720 116.0939 44.8882 -0.0232 -7.5814 -0.0122
# 3 24.6621 44.8882 82.9601 -0.0591 -0.8102 0.0262
# 4 0.0059 -0.0232 -0.0591 29.9310 0.0091 -4.1652
# 5 -6.9981 -7.5814 -0.8102 0.0091 17.5060 -0.0015
# 6 -0.0128 -0.0122 0.0262 -4.1652 -0.0015 20.3792
#
#
#
# Elastic Compliance Matrix: (Units=1/GPa)
#
#
# Indices 1 2 3 4 5 6 
#
# 1 0.021659 -0.002234 -0.005157 -0.000016 0.007452 0.000016
# 2 -0.002234 0.011480 -0.005510 -0.000001 0.003824 0.000013
# 3 -0.005157 -0.005510 0.016533 0.000027 -0.003683 -0.000022
# 4 -0.000016 -0.000001 0.000027 0.034388 -0.000023 0.007028
# 5 0.007452 0.003824 -0.003683 -0.000023 0.061588 0.000011
# 6 0.000016 0.000013 -0.000022 0.007028 0.000011 0.050506
#
#
# Mechanical properties :
#
#
# Convention : Reuss Voigt Hill
#
# Bulk Modulus (GPa) = 41.89597 49.52853 45.71225
# Shear Modulus (GPa) = 21.74739 24.31589 23.03164
#
# Velocity S-wave (km/s) = 3.12041 3.29954 3.21122
# Velocity P-wave (km/s) = 5.63389 6.05734 5.84945
#
# Compressibility (1/GPa) = 0.02386865
#
# Stress axis : x y z
#
# Youngs Moduli (GPa) = 46.17115 87.10534 60.48650
#
# Poissons Ratio (x) = 0.19461 0.31193
# Poissons Ratio (y) = 0.10315 0.33330
# Poissons Ratio (z) = 0.23810 0.47998
#
# Static dielectric constant tensor:
#      x y z
#    x 1.834830 -0.000010 -0.061990 
#    y -0.000010 1.851690 0.000050 
#    z -0.061990 0.000050 1.843160 
# 
# From -- ./inp_files/301193.got.cif
#   From: 2010.05.17/outbox.cif.g08.bks.cpg/sg15_151_cif.got.tgz:301193.got - 2010.06.03 18:47:42.
