data_PCOD9257966
_publ_section_title
;
Structure prediction by ZEFSAII (Michael W. Deem and Ramdas Pophale) SiO2 
 PCOD9257966
Probable space group: C 2/C
;
_chemical_formula_sum "Si O2"
_cell_formula_units_Z 40
_cell_length_a 21.343455
_cell_length_b 13.932414
_cell_length_c 9.084351
_cell_angle_alpha 90.000000
_cell_angle_beta 132.712941
_cell_angle_gamma 90.000000
_cell_volume 1984.866655
_symmetry_space_group_name_H-M "C 2/C"
_symmetry_group_IT_number 15
_symmetry_cell_setting 'monoclinic'
loop_
_space_group_symop_operation_xyz
x,y,z
-x,y,1/2-z
-x,-y,-z
x,-y,1/2+z
1/2+x,1/2+y,z
1/2-x,1/2+y,1/2-z
1/2-x,1/2-y,-z
1/2+x,1/2-y,1/2+z
loop_
_atom_site_type_symbol
_atom_site_label
_atom_site_fract_x
_atom_site_fract_y
_atom_site_fract_z
Si Si1 0.463233 0.290210 0.034212
Si Si2 0.449738 0.576990 0.019457
Si Si3 0.194893 0.467947 0.875777
Si Si4 0.917131 0.423092 0.539158
Si Si5 0.693708 0.430751 0.714914
O O1 0.500000 0.323108 0.250000
O O2 0.445215 0.178174 0.016305
O O3 0.535520 0.321348 0.034059
O O4 0.375997 0.348646 0.866666
O O5 0.500000 0.579458 0.250000
O O6 0.500000 0.500000 0.000000
O O7 0.356571 0.532315 0.885205
O O8 0.149934 0.408058 0.933894
O O9 0.125305 0.513636 0.655007
O O10 0.257993 0.414486 0.862771
O O11 0.244821 0.550408 0.048273
O O12 0.000000 0.468208 0.750000
#
# Coordination Sequence:
#
# PCOD9257966 Si02
#       5
#     8   8   8   8   8
#     4  10  20  35  56  83 116 149 185 231 275 333
#     4  10  18  32  56  85 120 152 176 216 274 341
#     4  10  21  36  58  78 107 151 183 233 284 328
#     4  10  22  40  57  76 105 147 197 236 276 333
#     4  10  18  33  56  86 114 141 182 223 287 344
#
# _framework density 20.152488000000002
#
# number of rings (size 3 to 8) (size 9 to 14) (size 15 to 20)
#    0.000    2.000    0.000    6.600    0.000    1.600 
#    0.000   11.000    0.000    0.000    0.000    0.000 
#    0.000    0.000    0.000    0.000    0.000    0.000 
#
# Total GULP energy -111549.452462 kJ/mol
# GULP energy per Si atom -5577.472623 kJ/mol
# Density = 2.010662 g / cm^3
# Si number density = 20.152488 Si / 1000 Ang^3
#
#
#
# Elastic Constant Matrix: (Units=GPa)
#
#
# Indices 1 2 3 4 5 6 
#
# 1 65.4471 3.2423 -4.9668 0.0000 -12.1056 0.0000
# 2 3.2423 44.5919 6.4658 0.0000 -0.8028 0.0000
# 3 -4.9668 6.4658 116.0787 0.0000 -5.4013 0.0000
# 4 0.0000 0.0000 0.0000 136.1233 0.0000 -64.3368
# 5 -12.1056 -0.8028 -5.4013 0.0000 36.1782 0.0000
# 6 0.0000 0.0000 0.0000 -64.3368 0.0000 60.1292
#
#
#
# Elastic Compliance Matrix: (Units=1/GPa)
#
#
# Indices 1 2 3 4 5 6 
#
# 1 0.016462 -0.001246 0.001036 0.000000 0.005635 0.000000
# 2 -0.001246 0.022706 -0.001323 0.000000 -0.000111 0.000000
# 3 0.001036 -0.001323 0.008809 0.000000 0.001632 0.000000
# 4 0.000000 0.000000 0.000000 0.014862 0.000000 0.015902
# 5 0.005635 -0.000111 0.001632 0.000000 0.029768 0.000000
# 6 0.000000 0.000000 0.000000 0.015902 0.000000 0.033646
#
#
# Mechanical properties :
#
#
# Convention : Reuss Voigt Hill
#
# Bulk Modulus (GPa) = 22.26617 26.17782 24.22200
# Shear Modulus (GPa) = 34.65255 61.24455 47.94855
#
# Velocity S-wave (km/s) = 4.15120 5.51874 4.88309
# Velocity P-wave (km/s) = 5.83519 7.32303 6.62104
#
# Compressibility (1/GPa) = 0.04491119
#
# Stress axis : x y z
#
# Youngs Moduli (GPa) = 60.74513 44.04111 113.52232
#
# Poissons Ratio (x) = 0.05486 -0.11761
# Poissons Ratio (y) = 0.07567 0.15021
# Poissons Ratio (z) = -0.06293 0.05828
#
# Static dielectric constant tensor:
#      x y z
#    x 1.771960 0.000000 0.027560 
#    y 0.000000 1.721270 0.000000 
#    z 0.027560 0.000000 1.712750 
# 
# From -- ./inp_files/37858.got.cif
#   From: 2010.05.17/outbox.cif.g08.bks.cpg/sg15_19_cif.got.tgz:37858.got - 2010.06.03 18:47:42.
