data_PCOD9257400
_publ_section_title
;
Structure prediction by ZEFSAII (Michael W. Deem and Ramdas Pophale) SiO2 
 PCOD9257400
Probable space group: C 2/C
;
_chemical_formula_sum "Si O2"
_cell_formula_units_Z 52
_cell_length_a 14.770475
_cell_length_b 20.577534
_cell_length_c 10.809736
_cell_angle_alpha 90.000000
_cell_angle_beta 55.116957
_cell_angle_gamma 90.000000
_cell_volume 2695.173928
_symmetry_space_group_name_H-M "C 2/C"
_symmetry_group_IT_number 15
_symmetry_cell_setting 'monoclinic'
loop_
_space_group_symop_operation_xyz
x,y,z
-x,y,1/2-z
-x,-y,-z
x,-y,1/2+z
1/2+x,1/2+y,z
1/2-x,1/2+y,1/2-z
1/2-x,1/2-y,-z
1/2+x,1/2-y,1/2+z
loop_
_atom_site_type_symbol
_atom_site_label
_atom_site_fract_x
_atom_site_fract_y
_atom_site_fract_z
Si Si1 0.112535 0.782022 0.446672
Si Si2 0.117057 0.455891 0.767190
Si Si3 0.335228 0.187243 0.296519
Si Si4 0.608773 0.273996 0.021731
Si Si5 0.172322 0.651423 0.801123
Si Si6 0.637422 0.979866 0.487404
Si Si7 0.000000 0.706341 0.750000
O O1 0.159039 0.717486 0.343156
O O2 0.208488 0.835334 0.355089
O O3 0.002650 0.799459 0.453165
O O4 0.074187 0.755366 0.609123
O O5 0.102669 0.380016 0.751388
O O6 0.178843 0.483336 0.597023
O O7 0.172239 0.467285 0.857907
O O8 0.994334 0.484018 0.883026
O O9 0.385630 0.241917 0.347315
O O10 0.209386 0.175816 0.435593
O O11 0.647323 0.212564 0.909364
O O12 0.162713 0.587571 0.894173
O O13 0.077119 0.659925 0.772988
#
# Coordination Sequence:
#
# PCOD9257400 Si02
#       7
#     8   8   8   8   8   8   4
#     4  10  20  31  51  77 109 139 173 217 273 328
#     4  10  20  34  52  75 111 143 181 226 269 325
#     4  10  18  31  53  77 106 135 174 227 272 318
#     4   9  18  31  52  82 103 132 173 223 281 315
#     4  10  19  34  52  76 105 140 178 218 264 329
#     4  10  21  34  53  77 106 145 183 223 271 326
#     4  10  20  32  48  74 112 142 172 212 270 330
#
# _framework density 19.293745000000001
#
# number of rings (size 3 to 8) (size 9 to 14) (size 15 to 20)
#    0.000    2.154    1.538    2.769    2.154    3.692 
#    0.000    0.000    0.000    0.923    0.000    0.000 
#    0.000    0.000    0.000    0.000    0.000    0.000 
#
# Total GULP energy -144734.687589 kJ/mol
# GULP energy per Si atom -5566.718753 kJ/mol
# Density = 1.924983 g / cm^3
# Si number density = 19.293745 Si / 1000 Ang^3
#
#
#
# Elastic Constant Matrix: (Units=GPa)
#
#
# Indices 1 2 3 4 5 6 
#
# 1 49.4856 13.7164 33.0947 0.0000 -0.6012 0.0000
# 2 13.7164 29.8151 27.9225 0.0000 7.4868 0.0000
# 3 33.0947 27.9225 130.6450 0.0000 25.0779 0.0000
# 4 0.0000 0.0000 0.0000 22.4317 0.0000 1.3724
# 5 -0.6012 7.4868 25.0779 0.0000 38.7850 0.0000
# 6 0.0000 0.0000 0.0000 1.3724 0.0000 10.5165
#
#
#
# Elastic Compliance Matrix: (Units=1/GPa)
#
#
# Indices 1 2 3 4 5 6 
#
# 1 0.026620 -0.007946 -0.006187 0.000000 0.005947 0.000000
# 2 -0.007946 0.044541 -0.006659 0.000000 -0.004415 0.000000
# 3 -0.006187 -0.006659 0.011892 0.000000 -0.006500 0.000000
# 4 0.000000 0.000000 0.000000 0.044939 0.000000 -0.005864
# 5 0.005947 -0.004415 -0.006500 0.000000 0.030930 0.000000
# 6 0.000000 0.000000 0.000000 -0.005864 0.000000 0.095854
#
#
# Mechanical properties :
#
#
# Convention : Reuss Voigt Hill
#
# Bulk Modulus (GPa) = 24.11388 39.93477 32.02432
# Shear Modulus (GPa) = 16.11952 23.36077 19.74014
#
# Velocity S-wave (km/s) = 2.89360 3.48342 3.20212
# Velocity P-wave (km/s) = 4.86717 6.07636 5.50507
#
# Compressibility (1/GPa) = 0.04146990
#
# Stress axis : x y z
#
# Youngs Moduli (GPa) = 37.56578 22.45133 84.08687
#
# Poissons Ratio (x) = 0.17839 0.52021
# Poissons Ratio (y) = 0.29849 0.55996
# Poissons Ratio (z) = 0.23240 0.14951
#
# Static dielectric constant tensor:
#      x y z
#    x 1.784000 0.000000 0.021800 
#    y 0.000000 1.675860 0.000000 
#    z 0.021800 0.000000 1.767170 
# 
# From -- ./inp_files/99713.got.cif
#   From: 2010.05.17/outbox.cif.g08.bks.cpg/sg15_50_cif.got.tgz:99713.got - 2010.06.03 18:47:42.
