data_PCOD9257178
_publ_section_title
;
Structure prediction by ZEFSAII (Michael W. Deem and Ramdas Pophale) SiO2 
 PCOD9257178
Probable space group: C 2/C
;
_chemical_formula_sum "Si O2"
_cell_formula_units_Z 40
_cell_length_a 7.908111
_cell_length_b 18.757066
_cell_length_c 13.995490
_cell_angle_alpha 90.000000
_cell_angle_beta 76.804230
_cell_angle_gamma 90.000000
_cell_volume 2021.177452
_symmetry_space_group_name_H-M "C 2/C"
_symmetry_group_IT_number 15
_symmetry_cell_setting 'monoclinic'
loop_
_space_group_symop_operation_xyz
x,y,z
-x,y,1/2-z
-x,-y,-z
x,-y,1/2+z
1/2+x,1/2+y,z
1/2-x,1/2+y,1/2-z
1/2-x,1/2-y,-z
1/2+x,1/2-y,1/2+z
loop_
_atom_site_type_symbol
_atom_site_label
_atom_site_fract_x
_atom_site_fract_y
_atom_site_fract_z
Si Si1 0.379479 0.589145 0.964880
Si Si2 0.327748 0.325096 0.960261
Si Si3 0.143334 0.998183 0.842773
Si Si4 0.497089 0.919855 0.961361
Si Si5 0.500000 0.976922 0.750000
Si Si6 0.500000 0.367244 0.750000
O O1 0.476699 0.549762 0.864597
O O2 0.519075 0.644228 0.991200
O O3 0.345829 0.527657 0.048996
O O4 0.182720 0.616357 0.978781
O O5 0.405266 0.322937 0.843326
O O6 0.167975 0.380239 0.975953
O O7 0.250000 0.250000 0.000000
O O8 0.327943 0.025217 0.782872
O O9 0.120164 0.924116 0.789716
O O10 0.504208 0.928602 0.845096
O O11 0.500000 0.000000 0.000000
#
# Coordination Sequence:
#
# PCOD9257178 Si02
#       6
#     8   8   8   8   4   4
#     4   9  20  35  56  89 124 150 197 259 315 376
#     4  11  23  40  62  88 126 172 212 260 323 388
#     4   9  16  31  55  87 112 145 196 259 301 357
#     4  11  21  38  64  94 122 159 205 266 320 373
#     4  10  18  30  57  91 114 154 204 246 308 384
#     4  10  18  36  61  81 114 160 210 250 312 378
#
# _framework density 19.790444999999998
#
# number of rings (size 3 to 8) (size 9 to 14) (size 15 to 20)
#    0.000    2.000    2.000    4.800    0.000    0.800 
#    0.000    4.000    0.000    0.000    0.000    0.000 
#    0.000    0.000    0.000    0.000    0.000    0.000 
#
# Total GULP energy -111429.832625 kJ/mol
# GULP energy per Si atom -5571.491631 kJ/mol
# Density = 1.974540 g / cm^3
# Si number density = 19.790445 Si / 1000 Ang^3
#
#
#
# Elastic Constant Matrix: (Units=GPa)
#
#
# Indices 1 2 3 4 5 6 
#
# 1 125.1475 38.3978 44.0040 0.0000 -34.2033 0.0000
# 2 38.3978 89.4335 52.2927 0.0000 -9.4101 0.0000
# 3 44.0040 52.2927 114.8547 0.0000 -31.2739 0.0000
# 4 0.0000 0.0000 0.0000 25.4496 0.0000 -8.7811
# 5 -34.2033 -9.4101 -31.2739 0.0000 44.2720 0.0000
# 6 0.0000 0.0000 0.0000 -8.7811 0.0000 16.1657
#
#
#
# Elastic Compliance Matrix: (Units=1/GPa)
#
#
# Indices 1 2 3 4 5 6 
#
# 1 0.011435 -0.003760 -0.000596 0.000000 0.007614 0.000000
# 2 -0.003760 0.016627 -0.007377 0.000000 -0.004582 0.000000
# 3 -0.000596 -0.007377 0.014538 0.000000 0.008241 0.000000
# 4 0.000000 0.000000 0.000000 0.048356 0.000000 0.026267
# 5 0.007614 -0.004582 0.008241 0.000000 0.033318 0.000000
# 6 0.000000 0.000000 0.000000 0.026267 0.000000 0.076127
#
#
# Mechanical properties :
#
#
# Convention : Reuss Voigt Hill
#
# Bulk Modulus (GPa) = 52.26456 66.53608 59.40032
# Shear Modulus (GPa) = 21.71596 30.16021 25.93809
#
# Velocity S-wave (km/s) = 3.31614 3.90805 3.62420
# Velocity P-wave (km/s) = 6.41317 7.35235 6.89876
#
# Compressibility (1/GPa) = 0.01913342
#
# Stress axis : x y z
#
# Youngs Moduli (GPa) = 87.45373 60.14194 68.78590
#
# Poissons Ratio (x) = 0.22613 0.04099
# Poissons Ratio (y) = 0.32881 0.50747
# Poissons Ratio (z) = 0.05211 0.44370
#
# Static dielectric constant tensor:
#      x y z
#    x 1.921450 0.000000 0.009020 
#    y 0.000000 1.652180 0.000000 
#    z 0.009020 0.000000 1.749070 
# 
# From -- ./inp_files/133854.got.cif
#   From: 2010.05.17/outbox.cif.g08.bks.cpg/sg15_67_cif.got.tgz:133854.got - 2010.06.03 18:47:42.
