data_PCOD9257124
_publ_section_title
;
Structure prediction by ZEFSAII (Michael W. Deem and Ramdas Pophale) SiO2 
 PCOD9257124
Probable space group: C 2/C
;
_chemical_formula_sum "Si O2"
_cell_formula_units_Z 36
_cell_length_a 11.831019
_cell_length_b 8.628456
_cell_length_c 16.302225
_cell_angle_alpha 90.000000
_cell_angle_beta 116.379374
_cell_angle_gamma 90.000000
_cell_volume 1490.898143
_symmetry_space_group_name_H-M "C 2/C"
_symmetry_group_IT_number 15
_symmetry_cell_setting 'monoclinic'
loop_
_space_group_symop_operation_xyz
x,y,z
-x,y,1/2-z
-x,-y,-z
x,-y,1/2+z
1/2+x,1/2+y,z
1/2-x,1/2+y,1/2-z
1/2-x,1/2-y,-z
1/2+x,1/2-y,1/2+z
loop_
_atom_site_type_symbol
_atom_site_label
_atom_site_fract_x
_atom_site_fract_y
_atom_site_fract_z
Si Si1 0.393934 0.668739 0.646701
Si Si2 0.500000 0.858858 0.250000
Si Si3 0.574174 0.635521 0.569034
Si Si4 0.220747 0.426308 0.778526
Si Si5 0.711681 0.341462 0.884443
O O1 0.500000 0.627515 0.750000
O O2 0.473379 0.724449 0.593567
O O3 0.306484 0.795516 0.662005
O O4 0.316989 0.515292 0.596352
O O5 0.404327 0.970042 0.266652
O O6 0.417419 0.755839 0.161601
O O7 0.500000 0.500000 0.500000
O O8 0.669110 0.538969 0.657136
O O9 0.666241 0.745668 0.545392
O O10 0.254588 0.359829 0.701659
#
# Coordination Sequence:
#
# PCOD9257124 Si02
#       5
#     8   4   8   8   8
#     4  12  20  37  62  88 114 153 201 242 284 348
#     4  10  18  30  54  86 112 142 192 240 280 332
#     4  11  25  40  57  89 127 153 189 247 300 342
#     4  11  20  36  61  87 113 154 200 239 285 349
#     4  11  20  36  61  87 113 154 200 239 285 349
#
# _framework density 24.146519999999999
#
# number of rings (size 3 to 8) (size 9 to 14) (size 15 to 20)
#    0.000    0.889    6.667    1.333    0.000    1.778 
#    0.000    1.111    0.000    0.000    0.000    0.000 
#    0.000    0.000    0.000    0.000    0.000    0.000 
#
# Total GULP energy -100755.624769 kJ/mol
# GULP energy per Si atom -5597.534709 kJ/mol
# Density = 2.409156 g / cm^3
# Si number density = 24.146520 Si / 1000 Ang^3
#
#
#
# Elastic Constant Matrix: (Units=GPa)
#
#
# Indices 1 2 3 4 5 6 
#
# 1 93.8078 26.9468 21.5748 0.0000 1.9906 0.0000
# 2 26.9468 104.7779 -0.8862 0.0000 9.4043 0.0000
# 3 21.5748 -0.8862 39.4963 0.0000 7.0010 0.0000
# 4 0.0000 0.0000 0.0000 14.5619 0.0000 5.2361
# 5 1.9906 9.4043 7.0010 0.0000 17.4125 0.0000
# 6 0.0000 0.0000 0.0000 5.2361 0.0000 55.7171
#
#
#
# Elastic Compliance Matrix: (Units=1/GPa)
#
#
# Indices 1 2 3 4 5 6 
#
# 1 0.013585 -0.003909 -0.008191 0.000000 0.003851 0.000000
# 2 -0.003909 0.011215 0.003641 0.000000 -0.007074 0.000000
# 3 -0.008191 0.003641 0.032364 0.000000 -0.014042 0.000000
# 4 0.000000 0.000000 0.000000 0.071074 0.000000 -0.006679
# 5 0.003851 -0.007074 -0.014042 0.000000 0.066456 0.000000
# 6 0.000000 0.000000 0.000000 -0.006679 0.000000 0.018576
#
#
# Mechanical properties :
#
#
# Convention : Reuss Voigt Hill
#
# Bulk Modulus (GPa) = 24.84742 37.03916 30.94329
# Shear Modulus (GPa) = 20.52513 30.23474 25.37993
#
# Velocity S-wave (km/s) = 2.91868 3.54239 3.24555
# Velocity P-wave (km/s) = 4.65520 5.66604 5.18531
#
# Compressibility (1/GPa) = 0.04024562
#
# Stress axis : x y z
#
# Youngs Moduli (GPa) = 73.61015 89.16640 30.89843
#
# Poissons Ratio (x) = 0.34853 0.25310
# Poissons Ratio (y) = 0.28773 -0.11249
# Poissons Ratio (z) = 0.60296 -0.32463
#
# Static dielectric constant tensor:
#      x y z
#    x 1.961600 0.000000 -0.010550 
#    y 0.000000 1.936660 0.000000 
#    z -0.010550 0.000000 1.962000 
# 
# From -- ./inp_files/102451.got.cif
#   From: 2010.05.17/outbox.cif.g08.bks.cpg/sg15_52_cif.got.tgz:102451.got - 2010.06.03 18:47:42.
