data_PCOD9257118
_publ_section_title
;
Structure prediction by ZEFSAII (Michael W. Deem and Ramdas Pophale) SiO2 
 PCOD9257118
Probable space group: C 2/C
;
_chemical_formula_sum "Si O2"
_cell_formula_units_Z 64
_cell_length_a 16.867789
_cell_length_b 20.481852
_cell_length_c 14.384634
_cell_angle_alpha 90.000000
_cell_angle_beta 138.702120
_cell_angle_gamma 90.000000
_cell_volume 3279.842135
_symmetry_space_group_name_H-M "C 2/C"
_symmetry_group_IT_number 15
_symmetry_cell_setting 'monoclinic'
loop_
_space_group_symop_operation_xyz
x,y,z
-x,y,1/2-z
-x,-y,-z
x,-y,1/2+z
1/2+x,1/2+y,z
1/2-x,1/2+y,1/2-z
1/2-x,1/2-y,-z
1/2+x,1/2-y,1/2+z
loop_
_atom_site_type_symbol
_atom_site_label
_atom_site_fract_x
_atom_site_fract_y
_atom_site_fract_z
Si Si1 0.280275 0.567060 0.413887
Si Si2 0.190213 0.828237 0.071964
Si Si3 0.657782 0.946879 0.204353
Si Si4 0.735980 0.038430 0.568957
Si Si5 0.558169 0.365712 0.579825
Si Si6 0.579976 0.089127 0.912551
Si Si7 0.011340 0.017501 0.160452
Si Si8 0.717069 0.688350 0.382606
O O1 0.200394 0.519266 0.277416
O O2 0.220157 0.580828 0.461267
O O3 0.348417 0.626619 0.422736
O O4 0.390929 0.522272 0.542910
O O5 0.265240 0.891813 0.171120
O O6 0.269678 0.762639 0.141113
O O7 0.162490 0.826122 0.936663
O O8 0.068385 0.827210 0.026696
O O9 0.675795 0.937947 0.110599
O O10 0.518228 0.934542 0.100803
O O11 0.872893 0.027773 0.723690
O O12 0.679296 0.967887 0.492412
O O13 0.522605 0.438537 0.580002
O O14 0.636993 0.344476 0.735669
O O15 0.500000 0.096550 0.750000
O O16 0.651422 0.154914 0.997930
O O17 0.000000 0.053671 0.250000
#
# Coordination Sequence:
#
# PCOD9257118 Si02
#       8
#     8   8   8   8   8   8   8   8
#     4  11  21  35  59  90 118 147 190 244 293 356
#     4  11  24  37  61  85 117 154 194 245 291 344
#     4  12  22  37  58  86 123 157 192 238 299 355
#     4  11  22  37  55  87 119 154 188 236 295 353
#     4  12  21  36  60  86 115 152 190 238 295 343
#     4  12  22  37  58  82 125 161 195 232 290 362
#     4  10  18  30  54  83 116 143 177 225 290 339
#     4  11  24  40  56  86 117 155 198 239 287 350
#
# _framework density 19.513134999999998
#
# number of rings (size 3 to 8) (size 9 to 14) (size 15 to 20)
#    0.000    0.750    6.250    2.625    1.750    0.000 
#    0.000    0.000    0.000    0.750    3.250    0.000 
#    0.000    0.000    0.000    0.000    0.000    0.000 
#
# Total GULP energy -178334.523150 kJ/mol
# GULP energy per Si atom -5572.953848 kJ/mol
# Density = 1.946872 g / cm^3
# Si number density = 19.513135 Si / 1000 Ang^3
#
#
#
# Elastic Constant Matrix: (Units=GPa)
#
#
# Indices 1 2 3 4 5 6 
#
# 1 115.5885 4.7183 -0.2362 0.0000 -14.2081 0.0000
# 2 4.7183 39.9910 3.0623 0.0000 0.3803 0.0000
# 3 -0.2362 3.0623 41.6396 0.0000 2.8852 0.0000
# 4 0.0000 0.0000 0.0000 -486.6169 0.0000 -519.2859
# 5 -14.2081 0.3803 2.8852 0.0000 17.6713 0.0000
# 6 0.0000 0.0000 0.0000 -519.2859 0.0000 -512.4304
#
#
#
# Elastic Compliance Matrix: (Units=1/GPa)
#
#
# Indices 1 2 3 4 5 6 
#
# 1 0.009665 -0.001184 -0.000403 0.000000 0.007862 0.000000
# 2 -0.001184 0.025293 -0.001783 0.000000 -0.001205 0.000000
# 3 -0.000403 -0.001783 0.024441 0.000000 -0.004276 0.000000
# 4 0.000000 0.000000 0.000000 0.025242 0.000000 -0.025580
# 5 0.007862 -0.001205 -0.004276 0.000000 0.063635 0.000000
# 6 0.000000 0.000000 0.000000 -0.025580 0.000000 0.023971
#
#
# Mechanical properties :
#
#
# Convention : Reuss Voigt Hill
#
# Bulk Modulus (GPa) = 18.99029 23.58976 21.29003
# Shear Modulus (GPa) = 25.44002 -183.63024 -79.09511
#
# Velocity S-wave (km/s) = 3.61465 -9.71135 -6.37356
# Velocity P-wave (km/s) = 5.21288 10.65981 6.57486
#
# Compressibility (1/GPa) = 0.05265850
#
# Stress axis : x y z
#
# Youngs Moduli (GPa) = 103.46239 39.53602 40.91529
#
# Poissons Ratio (x) = 0.04682 0.01648
# Poissons Ratio (y) = 0.12253 0.07297
# Poissons Ratio (z) = 0.04168 0.07051
#
# Static dielectric constant tensor:
#      x y z
#    x 1.854590 0.000000 -0.010830 
#    y 0.000000 1.720940 0.000000 
#    z -0.010830 0.000000 1.677130 
# 
# From -- ./inp_files/163304.got.cif
#   From: 2010.05.17/outbox.cif.g08.bks.cpg/sg15_82_cif.got.tgz:163304.got - 2010.06.03 18:47:42.
