data_PCOD9257438
_publ_section_title
;
Structure prediction by ZEFSAII (Michael W. Deem and Ramdas Pophale) SiO2 
 PCOD9257438
Probable space group: C 2/C
;
_chemical_formula_sum "Si O2"
_cell_formula_units_Z 60
_cell_length_a 31.265944
_cell_length_b 12.490141
_cell_length_c 14.013861
_cell_angle_alpha 90.000000
_cell_angle_beta 149.622225
_cell_angle_gamma 90.000000
_cell_volume 2767.508239
_symmetry_space_group_name_H-M "C 2/C"
_symmetry_group_IT_number 15
_symmetry_cell_setting 'monoclinic'
loop_
_space_group_symop_operation_xyz
x,y,z
-x,y,1/2-z
-x,-y,-z
x,-y,1/2+z
1/2+x,1/2+y,z
1/2-x,1/2+y,1/2-z
1/2-x,1/2-y,-z
1/2+x,1/2-y,1/2+z
loop_
_atom_site_type_symbol
_atom_site_label
_atom_site_fract_x
_atom_site_fract_y
_atom_site_fract_z
Si Si1 0.184917 0.150118 0.371181
Si Si2 0.674962 0.552780 0.564766
Si Si3 0.700763 0.025393 0.464762
Si Si4 0.021976 0.453194 0.147507
Si Si5 0.491719 0.297653 0.918031
Si Si6 0.838373 0.451590 0.827737
Si Si7 0.176719 0.795487 0.246428
Si Si8 0.500000 0.546008 0.250000
O O1 0.250000 0.250000 0.500000
O O2 0.178384 0.101863 0.465485
O O3 0.086071 0.175973 0.161203
O O4 0.224653 0.061404 0.377896
O O5 0.765261 0.498437 0.752289
O O6 0.666003 0.644871 0.625084
O O7 0.589261 0.484657 0.416011
O O8 0.675235 0.003783 0.305434
O O9 0.743229 0.142466 0.555002
O O10 0.612509 0.003421 0.347666
O O11 0.027292 0.324009 0.151442
O O12 0.000000 0.500000 0.000000
O O13 0.935842 0.472039 0.040912
O O14 0.493007 0.377452 0.829679
O O15 0.589641 0.304995 0.140454
O O16 0.818564 0.327129 0.773870
#
# Coordination Sequence:
#
# PCOD9257438 Si02
#       8
#     8   8   8   8   8   8   8   4
#     4  10  18  31  54  79 105 131 175 221 261 306
#     4   9  19  34  53  74 102 135 170 213 267 304
#     4  10  19  32  52  78 103 137 173 215 262 313
#     4   9  17  31  50  72 101 135 171 212 260 306
#     4   9  17  32  50  76 101 134 173 213 262 310
#     4   9  19  35  54  71 103 142 172 213 262 317
#     4  10  20  34  53  77 105 137 177 215 262 323
#     4   8  16  32  54  72  94 132 172 212 252 318
#
# _framework density 21.680152
#
# number of rings (size 3 to 8) (size 9 to 14) (size 15 to 20)
#    0.000    2.667    1.333    0.400    0.000    1.600 
#    4.800    0.000    2.933    0.000    0.000    0.000 
#    0.000    0.000    0.000    0.000    0.000    0.000 
#
# Total GULP energy -167005.259267 kJ/mol
# GULP energy per Si atom -5566.841976 kJ/mol
# Density = 2.163081 g / cm^3
# Si number density = 21.680152 Si / 1000 Ang^3
#
#
#
# Elastic Constant Matrix: (Units=GPa)
#
#
# Indices 1 2 3 4 5 6 
#
# 1 97.4528 22.2462 52.7235 0.0000 48.5227 0.0000
# 2 22.2462 49.0398 35.2383 0.0000 42.7775 0.0000
# 3 52.7235 35.2383 144.3864 0.0000 69.8248 0.0000
# 4 0.0000 0.0000 0.0000 26.7684 0.0000 5.0053
# 5 48.5227 42.7775 69.8248 0.0000 63.5537 0.0000
# 6 0.0000 0.0000 0.0000 5.0053 0.0000 5.3994
#
#
#
# Elastic Compliance Matrix: (Units=1/GPa)
#
#
# Indices 1 2 3 4 5 6 
#
# 1 0.018407 0.010634 0.002008 0.000000 -0.023418 0.000000
# 2 0.010634 0.061080 0.010707 0.000000 -0.060995 0.000000
# 3 0.002008 0.010707 0.016655 0.000000 -0.027038 0.000000
# 4 0.000000 0.000000 0.000000 0.045191 0.000000 -0.041893
# 5 -0.023418 -0.060995 -0.027038 0.000000 0.104376 0.000000
# 6 0.000000 0.000000 0.000000 -0.041893 0.000000 0.224043
#
#
# Mechanical properties :
#
#
# Convention : Reuss Voigt Hill
#
# Bulk Modulus (GPa) = 7.00079 56.81056 31.90567
# Shear Modulus (GPa) = 10.62320 31.18903 20.90611
#
# Velocity S-wave (km/s) = 2.21599 3.79700 3.10868
# Velocity P-wave (km/s) = 3.12787 6.74417 5.25678
#
# Compressibility (1/GPa) = 0.14284112
#
# Stress axis : x y z
#
# Youngs Moduli (GPa) = 54.32571 16.37192 60.04089
#
# Poissons Ratio (x) = -0.17410 -0.12055
# Poissons Ratio (y) = -0.57772 -0.64286
# Poissons Ratio (z) = -0.10907 -0.17529
#
# Static dielectric constant tensor:
#      x y z
#    x 1.878890 0.000000 -0.066200 
#    y 0.000000 1.725280 0.000000 
#    z -0.066200 0.000000 2.119920 
# 
# From -- ./inp_files/182337.got.cif
#   From: 2010.05.17/outbox.cif.g08.bks.cpg/sg15_92_cif.got.tgz:182337.got - 2010.06.03 18:47:42.
