data_PCOD9257961
_publ_section_title
;
Structure prediction by ZEFSAII (Michael W. Deem and Ramdas Pophale) SiO2 
 PCOD9257961
Probable space group: C 2/C
;
_chemical_formula_sum "Si O2"
_cell_formula_units_Z 32
_cell_length_a 6.952096
_cell_length_b 20.385631
_cell_length_c 15.377192
_cell_angle_alpha 90.000000
_cell_angle_beta 147.529774
_cell_angle_gamma 90.000000
_cell_volume 1169.981584
_symmetry_space_group_name_H-M "C 2/C"
_symmetry_group_IT_number 15
_symmetry_cell_setting 'monoclinic'
loop_
_space_group_symop_operation_xyz
x,y,z
-x,y,1/2-z
-x,-y,-z
x,-y,1/2+z
1/2+x,1/2+y,z
1/2-x,1/2+y,1/2-z
1/2-x,1/2-y,-z
1/2+x,1/2-y,1/2+z
loop_
_atom_site_type_symbol
_atom_site_label
_atom_site_fract_x
_atom_site_fract_y
_atom_site_fract_z
Si Si1 0.659404 0.403869 0.002828
Si Si2 0.643605 0.263377 0.059176
Si Si3 0.836451 0.525397 0.309422
Si Si4 0.320278 0.867079 0.441438
O O1 0.581265 0.342857 0.036629
O O2 0.964598 0.457805 0.138194
O O3 0.814123 0.373509 0.973179
O O4 0.327643 0.443382 0.839335
O O5 0.000000 0.251631 0.250000
O O6 0.750000 0.250000 0.000000
O O7 0.340120 0.210407 0.969892
O O8 0.500000 0.515839 0.250000
O O9 0.118184 0.575350 0.464198
O O10 0.000000 0.875101 0.250000
#
# Coordination Sequence:
#
# PCOD9257961 Si02
#       4
#     8   8   8   8
#     4  10  19  33  54  83 114 149 191 244 290 339
#     4  10  21  39  59  83 118 157 193 239 293 347
#     4  10  18  32  56  85 114 151 197 240 285 347
#     4  10  18  32  56  85 112 149 199 245 283 339
#
# _framework density 27.350859
#
# number of rings (size 3 to 8) (size 9 to 14) (size 15 to 20)
#    0.000    2.000    0.000    9.000    0.000    0.000 
#    0.000   15.000    0.000    0.000    0.000    0.000 
#    0.000    0.000    0.000    0.000    0.000    0.000 
#
# Total GULP energy -89407.039805 kJ/mol
# GULP energy per Si atom -5587.939988 kJ/mol
# Density = 2.728861 g / cm^3
# Si number density = 27.350859 Si / 1000 Ang^3
#
#
#
# Elastic Constant Matrix: (Units=GPa)
#
#
# Indices 1 2 3 4 5 6 
#
# 1 68.5156 52.3755 19.3858 0.0007 6.2924 0.0004
# 2 52.3755 272.9811 98.4661 -0.0009 0.2773 -0.0007
# 3 19.3858 98.4661 187.4304 0.0067 -17.5750 0.0030
# 4 0.0007 -0.0009 0.0067 47.0456 0.0002 6.5598
# 5 6.2924 0.2773 -17.5750 0.0002 36.5383 0.0017
# 6 0.0004 -0.0007 0.0030 6.5598 0.0017 60.5770
#
#
#
# Elastic Compliance Matrix: (Units=1/GPa)
#
#
# Indices 1 2 3 4 5 6 
#
# 1 0.017447 -0.003190 -0.000427 0.000000 -0.003186 0.000000
# 2 -0.003190 0.005157 -0.002441 0.000000 -0.000664 0.000000
# 3 -0.000427 -0.002441 0.006986 -0.000001 0.003452 0.000000
# 4 0.000000 0.000000 -0.000001 0.021582 0.000000 -0.002337
# 5 -0.003186 -0.000664 0.003452 0.000000 0.029583 -0.000001
# 6 0.000000 0.000000 0.000000 -0.002337 -0.000001 0.016761
#
#
# Mechanical properties :
#
#
# Convention : Reuss Voigt Hill
#
# Bulk Modulus (GPa) = 57.23418 96.59797 76.91607
# Shear Modulus (GPa) = 43.30612 52.74552 48.02582
#
# Velocity S-wave (km/s) = 3.98346 4.39621 4.19491
# Velocity P-wave (km/s) = 6.49065 7.82072 7.18652
#
# Compressibility (1/GPa) = 0.01747208
#
# Stress axis : x y z
#
# Youngs Moduli (GPa) = 57.31512 193.92592 143.14806
#
# Poissons Ratio (x) = 0.61865 0.06118
# Poissons Ratio (y) = 0.18284 0.34947
# Poissons Ratio (z) = 0.02450 0.47344
#
# Static dielectric constant tensor:
#      x y z
#    x 2.188880 0.000000 0.049200 
#    y 0.000000 2.298290 0.000000 
#    z 0.049200 0.000000 2.070050 
# 
# From -- ./inp_files/27892.got.cif
#   From: 2010.05.17/outbox.cif.g08.bks.cpg/sg15_14_cif.got.tgz:27892.got - 2010.06.03 18:47:42.
