data_PCOD9257839
_publ_section_title
;
Structure prediction by ZEFSAII (Michael W. Deem and Ramdas Pophale) SiO2 
 PCOD9257839
Probable space group: C 2/C
;
_chemical_formula_sum "Si O2"
_cell_formula_units_Z 64
_cell_length_a 12.323857
_cell_length_b 22.682073
_cell_length_c 14.537025
_cell_angle_alpha 90.000000
_cell_angle_beta 114.504007
_cell_angle_gamma 90.000000
_cell_volume 3697.549504
_symmetry_space_group_name_H-M "C 2/C"
_symmetry_group_IT_number 15
_symmetry_cell_setting 'monoclinic'
loop_
_space_group_symop_operation_xyz
x,y,z
-x,y,1/2-z
-x,-y,-z
x,-y,1/2+z
1/2+x,1/2+y,z
1/2-x,1/2+y,1/2-z
1/2-x,1/2-y,-z
1/2+x,1/2-y,1/2+z
loop_
_atom_site_type_symbol
_atom_site_label
_atom_site_fract_x
_atom_site_fract_y
_atom_site_fract_z
Si Si1 0.694741 0.898862 0.973533
Si Si2 0.323518 0.875629 0.234970
Si Si3 0.486694 0.905597 0.046994
Si Si4 0.076759 0.280362 0.865413
Si Si5 0.135485 0.151542 0.825197
Si Si6 0.878087 0.257353 0.153532
Si Si7 0.119926 0.491589 0.349672
Si Si8 0.124062 0.288811 0.554596
O O1 0.660549 0.834619 0.922077
O O2 0.695111 0.950316 0.898404
O O3 0.586293 0.915890 0.004561
O O4 0.811665 0.889878 0.076416
O O5 0.438757 0.877780 0.341891
O O6 0.215535 0.858749 0.263411
O O7 0.343435 0.824169 0.169047
O O8 0.315479 0.939458 0.184587
O O9 0.421441 0.960758 0.069512
O O10 0.397952 0.857454 0.974604
O O11 0.141929 0.219488 0.862012
O O12 0.000000 0.298720 0.750000
O O13 0.979643 0.269607 0.911794
O O14 0.000000 0.140283 0.750000
O O15 0.758365 0.221437 0.136544
O O16 0.000000 0.241764 0.250000
O O17 0.892399 0.255054 0.048391
O O18 0.000000 0.507003 0.250000
#
# Coordination Sequence:
#
# PCOD9257839 Si02
#       8
#     8   8   8   8   8   8   8   8
#     4  10  20  32  55  82 108 138 175 225 279 315
#     4  10  18  33  57  78 104 142 182 229 264 321
#     4   9  17  33  52  81 107 138 175 218 271 331
#     4  10  20  37  53  79 113 141 181 225 270 327
#     4  10  21  37  55  75 106 149 189 216 260 330
#     4  11  18  31  52  81 114 140 182 228 272 317
#     4  10  18  32  54  82 107 131 174 227 279 325
#     4  10  20  31  53  81 106 146 182 223 273 319
#
# _framework density 17.308759999999999
#
# number of rings (size 3 to 8) (size 9 to 14) (size 15 to 20)
#    0.000    2.000    2.500    3.000    0.000    0.000 
#    2.250    0.625    0.000    0.750    0.000    0.000 
#    0.000    0.000    0.000    0.000    0.000    0.000 
#
# Total GULP energy -178426.351835 kJ/mol
# GULP energy per Si atom -5575.823495 kJ/mol
# Density = 1.726936 g / cm^3
# Si number density = 17.308760 Si / 1000 Ang^3
#
#
#
# Elastic Constant Matrix: (Units=GPa)
#
#
# Indices 1 2 3 4 5 6 
#
# 1 75.1899 63.9623 40.4741 0.0000 10.0415 0.0000
# 2 63.9623 97.0434 49.9453 0.0000 9.7832 0.0000
# 3 40.4741 49.9453 72.8559 0.0000 2.4422 0.0000
# 4 0.0000 0.0000 0.0000 22.9285 0.0000 0.8097
# 5 10.0415 9.7832 2.4422 0.0000 26.3888 0.0000
# 6 0.0000 0.0000 0.0000 0.8097 0.0000 16.1227
#
#
#
# Elastic Compliance Matrix: (Units=1/GPa)
#
#
# Indices 1 2 3 4 5 6 
#
# 1 0.032067 -0.017834 -0.005418 0.000000 -0.005089 0.000000
# 2 -0.017834 0.026501 -0.008183 0.000000 -0.002281 0.000000
# 3 -0.005418 -0.008183 0.022244 0.000000 0.003037 0.000000
# 4 0.000000 0.000000 0.000000 0.043691 0.000000 -0.002194
# 5 -0.005089 -0.002281 0.003037 0.000000 0.040396 0.000000
# 6 0.000000 0.000000 0.000000 -0.002194 0.000000 0.062135
#
#
# Mechanical properties :
#
#
# Convention : Reuss Voigt Hill
#
# Bulk Modulus (GPa) = 55.73854 61.53917 58.63885
# Shear Modulus (GPa) = 16.89851 19.13517 18.01684
#
# Velocity S-wave (km/s) = 3.12797 3.32854 3.22981
# Velocity P-wave (km/s) = 6.73186 7.09952 6.91814
#
# Compressibility (1/GPa) = 0.01794091
#
# Stress axis : x y z
#
# Youngs Moduli (GPa) = 31.18512 37.73438 44.95655
#
# Poissons Ratio (x) = 0.67296 0.24356
# Poissons Ratio (y) = 0.55616 0.36790
# Poissons Ratio (z) = 0.16895 0.30880
#
# Static dielectric constant tensor:
#      x y z
#    x 1.608400 0.000000 -0.027370 
#    y 0.000000 1.600570 0.000000 
#    z -0.027370 0.000000 1.612370 
# 
# From -- ./inp_files/147163.got.cif
#   From: 2010.05.17/outbox.cif.g08.bks.cpg/sg15_74_cif.got.tgz:147163.got - 2010.06.03 18:47:42.
