data_PCOD9257468
_publ_section_title
;
Structure prediction by ZEFSAII (Michael W. Deem and Ramdas Pophale) SiO2 
 PCOD9257468
Probable space group: C 2/C
;
_chemical_formula_sum "Si O2"
_cell_formula_units_Z 64
_cell_length_a 28.862958
_cell_length_b 9.638078
_cell_length_c 19.683606
_cell_angle_alpha 90.000000
_cell_angle_beta 47.443292
_cell_angle_gamma 90.000000
_cell_volume 4033.411713
_symmetry_space_group_name_H-M "C 2/C"
_symmetry_group_IT_number 15
_symmetry_cell_setting 'monoclinic'
loop_
_space_group_symop_operation_xyz
x,y,z
-x,y,1/2-z
-x,-y,-z
x,-y,1/2+z
1/2+x,1/2+y,z
1/2-x,1/2+y,1/2-z
1/2-x,1/2-y,-z
1/2+x,1/2-y,1/2+z
loop_
_atom_site_type_symbol
_atom_site_label
_atom_site_fract_x
_atom_site_fract_y
_atom_site_fract_z
Si Si1 0.750225 0.756566 0.622484
Si Si2 0.824960 0.501817 0.004612
Si Si3 0.156164 0.161627 0.827786
Si Si4 0.653677 0.645690 0.362953
Si Si5 0.327141 0.989649 0.348068
Si Si6 0.071454 0.588013 0.360373
Si Si7 0.428469 0.101867 0.506483
Si Si8 0.253222 0.255713 0.846882
O O1 0.790080 0.646832 0.540975
O O2 0.705933 0.665910 0.716365
O O3 0.793868 0.847533 0.629669
O O4 0.710856 0.865820 0.618903
O O5 0.883139 0.476477 0.998136
O O6 0.777008 0.618590 0.080270
O O7 0.844548 0.538034 0.908710
O O8 0.104360 0.272272 0.855741
O O9 0.196701 0.207372 0.853193
O O10 0.131360 0.008834 0.868664
O O11 0.601139 0.751053 0.442027
O O12 0.690434 0.698233 0.259453
O O13 0.282675 0.867306 0.362949
O O14 0.386287 0.017692 0.239959
O O15 0.071132 0.486176 0.424919
O O16 0.999712 0.614111 0.409896
#
# Coordination Sequence:
#
# PCOD9257468 Si02
#       8
#     8   8   8   8   8   8   8   8
#     4   9  19  30  50  80 108 136 168 212 270 320
#     4  11  21  34  53  79 109 139 171 216 267 317
#     4  10  18  31  55  78 106 137 170 221 266 311
#     4  10  18  31  55  78 106 137 170 221 266 311
#     4  11  21  34  53  79 109 139 171 216 267 317
#     4  10  21  37  55  77 103 138 183 218 252 308
#     4  10  21  37  55  77 103 138 183 218 252 308
#     4  11  19  32  50  84 108 136 172 212 272 326
#
# _framework density 15.867459
#
# number of rings (size 3 to 8) (size 9 to 14) (size 15 to 20)
#    0.000    1.750    5.000    0.750    0.000    1.000 
#    0.000    0.000    0.000    0.000    0.000    0.000 
#    0.000    0.000    0.000    0.000    0.000    0.000 
#
# Total GULP energy -178302.939101 kJ/mol
# GULP energy per Si atom -5571.966847 kJ/mol
# Density = 1.583134 g / cm^3
# Si number density = 15.867459 Si / 1000 Ang^3
#
#
#
# Elastic Constant Matrix: (Units=GPa)
#
#
# Indices 1 2 3 4 5 6 
#
# 1 23.1184 7.5433 34.3622 -0.0254 -4.4380 0.0238
# 2 7.5433 69.0918 22.6449 -0.0044 -3.3112 0.0041
# 3 34.3622 22.6449 67.0329 -0.0077 -3.2340 0.0065
# 4 -0.0254 -0.0044 -0.0077 14.9473 -0.0063 -0.7893
# 5 -4.4380 -3.3112 -3.2340 -0.0063 29.8054 0.0048
# 6 0.0238 0.0041 0.0065 -0.7893 0.0048 17.7900
#
#
#
# Elastic Compliance Matrix: (Units=1/GPa)
#
#
# Indices 1 2 3 4 5 6 
#
# 1 0.202221 0.014101 -0.107459 0.000288 0.020017 -0.000227
# 2 0.014101 0.017303 -0.012948 0.000023 0.002617 -0.000018
# 3 -0.107459 -0.012948 0.073923 -0.000146 -0.009418 0.000116
# 4 0.000288 0.000023 -0.000146 0.067059 0.000043 0.002975
# 5 0.020017 0.002617 -0.009418 0.000043 0.035800 -0.000032
# 6 -0.000227 -0.000018 0.000116 0.002975 -0.000032 0.056344
#
#
# Mechanical properties :
#
#
# Convention : Reuss Voigt Hill
#
# Bulk Modulus (GPa) = 12.37086 32.03821 22.20453
# Shear Modulus (GPa) = 7.22328 18.82140 13.02234
#
# Velocity S-wave (km/s) = 2.13592 3.44781 2.86789
# Velocity P-wave (km/s) = 3.72775 6.00706 4.99905
#
# Compressibility (1/GPa) = 0.08083512
#
# Stress axis : x y z
#
# Youngs Moduli (GPa) = 4.94510 57.79359 13.52758
#
# Poissons Ratio (x) = -0.81497 1.45367
# Poissons Ratio (y) = -0.06973 0.17515
# Poissons Ratio (z) = 0.53140 0.74829
#
# Static dielectric constant tensor:
#      x y z
#    x 1.519730 0.000000 -0.003140 
#    y 0.000000 1.528420 0.000000 
#    z -0.003140 0.000000 1.521540 
# 
# From -- ./inp_files/257004.got.cif
#   From: 2010.05.17/outbox.cif.g08.bks.cpg/sg15_129_cif.got.tgz:257004.got - 2010.06.03 18:47:42.
