data_PCOD9257047
_publ_section_title
;
Structure prediction by ZEFSAII (Michael W. Deem and Ramdas Pophale) SiO2 
 PCOD9257047
Probable space group: C 2/C
;
_chemical_formula_sum "Si O2"
_cell_formula_units_Z 56
_cell_length_a 20.794198
_cell_length_b 25.389305
_cell_length_c 7.820299
_cell_angle_alpha 90.000000
_cell_angle_beta 55.002509
_cell_angle_gamma 90.000000
_cell_volume 3382.160251
_symmetry_space_group_name_H-M "C 2/C"
_symmetry_group_IT_number 15
_symmetry_cell_setting 'monoclinic'
loop_
_space_group_symop_operation_xyz
x,y,z
-x,y,1/2-z
-x,-y,-z
x,-y,1/2+z
1/2+x,1/2+y,z
1/2-x,1/2+y,1/2-z
1/2-x,1/2-y,-z
1/2+x,1/2-y,1/2+z
loop_
_atom_site_type_symbol
_atom_site_label
_atom_site_fract_x
_atom_site_fract_y
_atom_site_fract_z
Si Si1 0.025065 0.235203 0.412076
Si Si2 0.516824 0.618176 0.426408
Si Si3 0.181265 0.706395 0.606169
Si Si4 0.915694 0.976854 0.477279
Si Si5 0.356234 0.774044 0.716133
Si Si6 0.253602 0.828919 0.159208
Si Si7 0.356131 0.421913 0.263887
O O1 0.048767 0.175637 0.425015
O O2 0.101880 0.270203 0.307667
O O3 0.000000 0.232264 0.250000
O O4 0.946965 0.259663 0.613728
O O5 0.500000 0.616587 0.250000
O O6 0.566163 0.567316 0.407319
O O7 0.433781 0.614287 0.649076
O O8 0.250000 0.750000 0.500000
O O9 0.159303 0.695698 0.441406
O O10 0.214328 0.666114 0.696060
O O11 0.852670 0.951021 0.448735
O O12 0.000000 0.983788 0.250000
O O13 0.882006 0.031532 0.595820
O O14 0.312266 0.717654 0.754639
O O15 0.318130 0.807332 0.927260
O O16 0.215289 0.884371 0.168773
#
# Coordination Sequence:
#
# PCOD9257047 Si02
#       7
#     8   8   8   8   8   8   8
#     4   9  17  31  52  75 106 142 178 205 255 319
#     4  10  18  30  52  73  98 143 177 212 251 306
#     4   9  19  33  47  75 105 137 171 212 258 310
#     4  10  21  34  48  68 102 133 184 229 251 304
#     4   9  18  35  49  75 105 136 178 219 245 320
#     4  10  20  33  52  70 107 139 174 217 266 300
#     4  11  20  36  46  72  99 139 179 219 264 304
#
# _framework density 16.557465000000001
#
# number of rings (size 3 to 8) (size 9 to 14) (size 15 to 20)
#    0.000    2.286    1.429    3.000    2.000    4.000 
#    5.143    0.000    0.000    0.000    0.000    0.000 
#    0.000    4.571    0.000    0.000    0.000    0.000 
#
# Total GULP energy -155963.685251 kJ/mol
# GULP energy per Si atom -5570.131616 kJ/mol
# Density = 1.651978 g / cm^3
# Si number density = 16.557465 Si / 1000 Ang^3
#
#
#
# Elastic Constant Matrix: (Units=GPa)
#
#
# Indices 1 2 3 4 5 6 
#
# 1 64.3642 41.4406 27.6967 0.0000 0.4871 0.0000
# 2 41.4406 73.5778 22.1394 0.0000 2.0375 0.0000
# 3 27.6967 22.1394 56.6559 0.0000 -6.1218 0.0000
# 4 0.0000 0.0000 0.0000 7.5657 0.0000 -5.9726
# 5 0.4871 2.0375 -6.1218 0.0000 28.5704 0.0000
# 6 0.0000 0.0000 0.0000 -5.9726 0.0000 19.7985
#
#
#
# Elastic Compliance Matrix: (Units=1/GPa)
#
#
# Indices 1 2 3 4 5 6 
#
# 1 0.027536 -0.012891 -0.008574 0.000000 -0.001387 0.000000
# 2 -0.012891 0.021605 -0.002338 0.000000 -0.001822 0.000000
# 3 -0.008574 -0.002338 0.023329 0.000000 0.005312 0.000000
# 4 0.000000 0.000000 0.000000 0.173492 0.000000 0.052337
# 5 -0.001387 -0.001822 0.005312 0.000000 0.036293 0.000000
# 6 0.000000 0.000000 0.000000 0.052337 0.000000 0.066297
#
#
# Mechanical properties :
#
#
# Convention : Reuss Voigt Hill
#
# Bulk Modulus (GPa) = 40.21565 41.90571 41.06068
# Shear Modulus (GPa) = 12.36256 18.07498 15.21877
#
# Velocity S-wave (km/s) = 2.73545 3.30760 3.03504
# Velocity P-wave (km/s) = 5.85817 6.32069 6.09382
#
# Compressibility (1/GPa) = 0.02486594
#
# Stress axis : x y z
#
# Youngs Moduli (GPa) = 36.31584 46.28498 42.86445
#
# Poissons Ratio (x) = 0.59665 0.36752
# Poissons Ratio (y) = 0.46814 0.10021
# Poissons Ratio (z) = 0.31137 0.10821
#
# Static dielectric constant tensor:
#      x y z
#    x 1.615990 0.000000 0.064330 
#    y 0.000000 1.548720 0.000000 
#    z 0.064330 0.000000 1.623860 
# 
# From -- ./inp_files/57772.got.cif
#   From: 2010.05.17/outbox.cif.g08.bks.cpg/sg15_29_cif.got.tgz:57772.got - 2010.06.03 18:47:42.
