data_PCOD9257415
_publ_section_title
;
Structure prediction by ZEFSAII (Michael W. Deem and Ramdas Pophale) SiO2 
 PCOD9257415
Probable space group: C 2/C
;
_chemical_formula_sum "Si O2"
_cell_formula_units_Z 52
_cell_length_a 14.909536
_cell_length_b 18.689881
_cell_length_c 13.791524
_cell_angle_alpha 90.000000
_cell_angle_beta 35.590821
_cell_angle_gamma 90.000000
_cell_volume 2236.662527
_symmetry_space_group_name_H-M "C 2/C"
_symmetry_group_IT_number 15
_symmetry_cell_setting 'monoclinic'
loop_
_space_group_symop_operation_xyz
x,y,z
-x,y,1/2-z
-x,-y,-z
x,-y,1/2+z
1/2+x,1/2+y,z
1/2-x,1/2+y,1/2-z
1/2-x,1/2-y,-z
1/2+x,1/2-y,1/2+z
loop_
_atom_site_type_symbol
_atom_site_label
_atom_site_fract_x
_atom_site_fract_y
_atom_site_fract_z
Si Si1 0.344998 0.536774 0.246783
Si Si2 0.162324 0.775920 0.479645
Si Si3 0.376853 0.851265 0.935567
Si Si4 0.884298 0.348728 0.629095
Si Si5 0.141938 0.184997 0.507258
Si Si6 0.119154 0.106010 0.882890
Si Si7 0.000000 0.122316 0.250000
O O1 0.208854 0.581477 0.318928
O O2 0.319809 0.454631 0.243505
O O3 0.363571 0.568482 0.339171
O O4 0.508960 0.560532 0.053828
O O5 0.250000 0.750000 0.500000
O O6 0.116288 0.708285 0.456707
O O7 0.225332 0.838887 0.351957
O O8 0.017437 0.820421 0.648023
O O9 0.500000 0.881301 0.750000
O O10 0.449240 0.868839 0.975478
O O11 0.208209 0.862567 0.037930
O O12 0.387347 0.764613 0.930608
O O13 0.780722 0.314356 0.806708
O O14 0.994968 0.154770 0.581063
#
# Coordination Sequence:
#
# PCOD9257415 Si02
#       7
#     8   8   8   8   8   8   4
#     4   9  18  33  51  77 112 151 195 236 297 349
#     4  11  20  32  55  88 118 153 196 244 295 346
#     4   9  17  29  49  78 115 143 186 241 295 353
#     4  10  18  31  53  82 116 157 190 245 301 347
#     4   9  17  31  49  80 116 145 190 239 295 351
#     4   9  18  33  52  76 113 151 190 243 293 349
#     4  10  20  34  52  84 118 152 200 244 298 348
#
# _framework density 23.248926000000001
#
# number of rings (size 3 to 8) (size 9 to 14) (size 15 to 20)
#    0.000    2.462    3.077    0.000    0.000    0.000 
#    1.385    0.000    0.000    0.000   18.000    3.231 
#    0.000    0.000    0.000    0.000    0.000    0.000 
#
# Total GULP energy -144805.180992 kJ/mol
# GULP energy per Si atom -5569.430038 kJ/mol
# Density = 2.319601 g / cm^3
# Si number density = 23.248926 Si / 1000 Ang^3
#
#
#
# Elastic Constant Matrix: (Units=GPa)
#
#
# Indices 1 2 3 4 5 6 
#
# 1 171.8603 47.6320 15.7993 -0.0017 10.7809 0.0018
# 2 47.6320 89.9819 22.8584 -0.0014 -1.9067 0.0017
# 3 15.7993 22.8584 50.5104 -0.0013 14.8530 0.0023
# 4 -0.0017 -0.0014 -0.0013 24.9119 0.0015 4.7863
# 5 10.7809 -1.9067 14.8530 0.0015 23.3764 -0.0019
# 6 0.0018 0.0017 0.0023 4.7863 -0.0019 27.8564
#
#
#
# Elastic Compliance Matrix: (Units=1/GPa)
#
#
# Indices 1 2 3 4 5 6 
#
# 1 0.007132 -0.004075 0.000834 0.000001 -0.004152 -0.000001
# 2 -0.004075 0.015535 -0.008216 0.000000 0.008367 0.000001
# 3 0.000834 -0.008216 0.028980 0.000003 -0.019468 -0.000004
# 4 0.000001 0.000000 0.000003 0.041512 -0.000005 -0.007133
# 5 -0.004152 0.008367 -0.019468 -0.000005 0.057745 0.000006
# 6 -0.000001 0.000001 -0.000004 -0.007133 0.000006 0.037124
#
#
# Mechanical properties :
#
#
# Convention : Reuss Voigt Hill
#
# Bulk Modulus (GPa) = 34.80334 53.88134 44.34234
# Shear Modulus (GPa) = 22.67376 30.29980 26.48678
#
# Velocity S-wave (km/s) = 3.12630 3.61401 3.37897
# Velocity P-wave (km/s) = 5.29472 6.37502 5.85982
#
# Compressibility (1/GPa) = 0.02873288
#
# Stress axis : x y z
#
# Youngs Moduli (GPa) = 140.21560 64.37088 34.50665
#
# Poissons Ratio (x) = 0.26232 -0.02879
# Poissons Ratio (y) = 0.57140 0.28351
# Poissons Ratio (z) = -0.11697 0.52887
#
# Static dielectric constant tensor:
#      x y z
#    x 1.950640 0.000000 0.084530 
#    y 0.000000 1.849840 0.000000 
#    z 0.084530 0.000000 2.106910 
# 
# From -- ./inp_files/154739.got.cif
#   From: 2010.05.17/outbox.cif.g08.bks.cpg/sg15_78_cif.got.tgz:154739.got - 2010.06.03 18:47:42.
