data_PCOD9257891
_publ_section_title
;
Structure prediction by ZEFSAII (Michael W. Deem and Ramdas Pophale) SiO2 
 PCOD9257891
Probable space group: C 2/C
;
_chemical_formula_sum "Si O2"
_cell_formula_units_Z 64
_cell_length_a 10.998960
_cell_length_b 17.540057
_cell_length_c 17.717454
_cell_angle_alpha 90.000000
_cell_angle_beta 61.556945
_cell_angle_gamma 90.000000
_cell_volume 3005.498554
_symmetry_space_group_name_H-M "C 2/C"
_symmetry_group_IT_number 15
_symmetry_cell_setting 'monoclinic'
loop_
_space_group_symop_operation_xyz
x,y,z
-x,y,1/2-z
-x,-y,-z
x,-y,1/2+z
1/2+x,1/2+y,z
1/2-x,1/2+y,1/2-z
1/2-x,1/2-y,-z
1/2+x,1/2-y,1/2+z
loop_
_atom_site_type_symbol
_atom_site_label
_atom_site_fract_x
_atom_site_fract_y
_atom_site_fract_z
Si Si1 0.637670 0.445916 0.849980
Si Si2 0.770620 0.670350 0.190254
Si Si3 0.321508 0.567130 0.402842
Si Si4 0.271609 0.049213 0.702268
Si Si5 0.665850 0.283384 0.210028
Si Si6 0.952276 0.685500 0.470215
Si Si7 0.541722 0.938193 0.052204
Si Si8 0.308285 0.670716 0.045195
O O1 0.708207 0.384585 0.772232
O O2 0.475374 0.448696 0.882364
O O3 0.708882 0.523202 0.800748
O O4 0.658657 0.408656 0.925198
O O5 0.692165 0.649271 0.135986
O O6 0.775135 0.752219 0.227659
O O7 0.932128 0.657416 0.122867
O O8 0.279740 0.508801 0.348253
O O9 0.207170 0.561196 0.502397
O O10 0.213133 0.129987 0.693458
O O11 0.438752 0.046219 0.651378
O O12 0.500000 0.277610 0.250000
O O13 0.731876 0.228240 0.126880
O O14 0.802401 0.657801 0.487649
O O15 0.937003 0.777091 0.480587
O O16 0.996796 0.644616 0.533625
O O17 0.500000 0.000000 0.000000
#
# Coordination Sequence:
#
# PCOD9257891 Si02
#       8
#     8   8   8   8   8   8   8   8
#     4  10  20  35  55  83 112 149 192 226 282 343
#     4   9  18  30  53  77 108 143 183 232 274 328
#     4   9  18  35  54  78 108 147 187 224 279 342
#     4  10  18  32  55  81 106 141 191 234 276 334
#     4  11  18  29  50  85 110 136 186 239 283 326
#     4  10  18  36  54  83 113 141 191 232 284 333
#     4   9  18  32  57  83 105 146 187 232 275 333
#     4  10  21  33  55  83 115 146 183 239 288 334
#
# _framework density 21.294305000000001
#
# number of rings (size 3 to 8) (size 9 to 14) (size 15 to 20)
#    0.000    2.250    2.500    3.000    0.000    0.000 
#    0.000    2.500    2.750    8.250   22.750    3.500 
#    0.000    0.000    0.000    0.000    0.000    0.000 
#
# Total GULP energy -178332.239843 kJ/mol
# GULP energy per Si atom -5572.882495 kJ/mol
# Density = 2.124584 g / cm^3
# Si number density = 21.294305 Si / 1000 Ang^3
#
#
#
# Elastic Constant Matrix: (Units=GPa)
#
#
# Indices 1 2 3 4 5 6 
#
# 1 15.1726 24.3789 37.6292 0.0000 -7.5967 0.0000
# 2 24.3789 58.6049 20.5088 0.0000 -4.2565 0.0000
# 3 37.6292 20.5088 58.1101 0.0000 -23.0863 0.0000
# 4 0.0000 0.0000 0.0000 28.4602 0.0000 -4.4651
# 5 -7.5967 -4.2565 -23.0863 0.0000 23.5101 0.0000
# 6 0.0000 0.0000 0.0000 -4.4651 0.0000 12.9051
#
#
#
# Elastic Compliance Matrix: (Units=1/GPa)
#
#
# Indices 1 2 3 4 5 6 
#
# 1 -0.068437 0.012383 0.052554 0.000000 0.031735 0.000000
# 2 0.012383 0.017636 -0.018667 0.000000 -0.011136 0.000000
# 3 0.052554 -0.018667 -0.007921 0.000000 0.005824 0.000000
# 4 0.000000 0.000000 0.000000 0.037154 0.000000 0.012855
# 5 0.031735 -0.011136 0.005824 0.000000 0.056492 0.000000
# 6 0.000000 0.000000 0.000000 0.012855 0.000000 0.081937
#
#
# Mechanical properties :
#
#
# Convention : Reuss Voigt Hill
#
# Bulk Modulus (GPa) = 29.57044 32.99127 31.28086
# Shear Modulus (GPa) = 140.48150 16.26645 78.37398
#
# Velocity S-wave (km/s) = 8.13109 2.76685 6.07331
# Velocity P-wave (km/s) = 10.10295 5.07286 7.99385
#
# Compressibility (1/GPa) = 0.03381755
#
# Stress axis : x y z
#
# Youngs Moduli (GPa) = -14.61188 56.70197 -126.24568
#
# Poissons Ratio (x) = -0.70212 6.63476
# Poissons Ratio (y) = 0.18093 -2.35663
# Poissons Ratio (z) = 0.76792 1.05846
#
# Static dielectric constant tensor:
#      x y z
#    x 1.744410 0.000000 0.009170 
#    y 0.000000 1.849940 0.000000 
#    z 0.009170 0.000000 1.854280 
# 
# From -- ./inp_files/239803.got.cif
#   From: 2010.05.17/outbox.cif.g08.bks.cpg/sg15_120_cif.got.tgz:239803.got - 2010.06.03 18:47:42.
