data_PCOD9257771
_publ_section_title
;
Structure prediction by ZEFSAII (Michael W. Deem and Ramdas Pophale) SiO2 
 PCOD9257771
Probable space group: C 2/C
;
_chemical_formula_sum "Si O2"
_cell_formula_units_Z 60
_cell_length_a 24.932325
_cell_length_b 7.817095
_cell_length_c 13.920213
_cell_angle_alpha 90.000000
_cell_angle_beta 76.698112
_cell_angle_gamma 90.000000
_cell_volume 2640.239589
_symmetry_space_group_name_H-M "C 2/C"
_symmetry_group_IT_number 15
_symmetry_cell_setting 'monoclinic'
loop_
_space_group_symop_operation_xyz
x,y,z
-x,y,1/2-z
-x,-y,-z
x,-y,1/2+z
1/2+x,1/2+y,z
1/2-x,1/2+y,1/2-z
1/2-x,1/2-y,-z
1/2+x,1/2-y,1/2+z
loop_
_atom_site_type_symbol
_atom_site_label
_atom_site_fract_x
_atom_site_fract_y
_atom_site_fract_z
Si Si1 0.500000 0.799641 0.250000
Si Si2 0.411776 0.509225 0.296940
Si Si3 0.134702 0.220568 0.836718
Si Si4 0.694537 0.551379 0.421177
Si Si5 0.400157 0.219871 0.441846
Si Si6 0.570168 0.066776 0.882861
Si Si7 0.689686 0.072654 0.142601
Si Si8 0.829338 0.772903 0.759662
O O1 0.452410 0.665341 0.297140
O O2 0.480239 0.914366 0.169343
O O3 0.404332 0.427445 0.193467
O O4 0.427603 0.350504 0.356619
O O5 0.351149 0.595431 0.331103
O O6 0.096718 0.380098 0.880171
O O7 0.173729 0.290955 0.733230
O O8 0.169531 0.135873 0.908245
O O9 0.648009 0.663377 0.491571
O O10 0.754298 0.586295 0.441214
O O11 0.702253 0.628092 0.309972
O O12 0.438410 0.144774 0.508476
O O13 0.365807 0.076042 0.398517
O O14 0.617513 0.185516 0.813994
O O15 0.700155 0.888588 0.185090
#
# Coordination Sequence:
#
# PCOD9257771 Si02
#       8
#     4   8   8   8   8   8   8   8
#     4  10  20  38  64  78  98 140 192 222 266 350
#     4   9  19  36  57  80 103 139 176 227 280 324
#     4   9  19  35  56  78 113 147 181 222 266 313
#     4  10  18  32  53  80 108 149 188 217 256 323
#     4  10  21  34  51  79 119 141 170 230 285 308
#     4   9  19  36  54  78 104 138 174 226 277 317
#     4  10  18  32  53  79 109 149 187 218 258 322
#     4   8  17  33  52  72 105 140 180 219 260 311
#
# _framework density 22.725211000000002
#
# number of rings (size 3 to 8) (size 9 to 14) (size 15 to 20)
#    0.000    2.667    0.000    2.000    0.000    2.133 
#    0.000    5.333    0.000   14.400    0.000    0.000 
#    0.000    0.000    0.000    0.000    0.000    0.000 
#
# Total GULP energy -167201.515387 kJ/mol
# GULP energy per Si atom -5573.383846 kJ/mol
# Density = 2.267349 g / cm^3
# Si number density = 22.725211 Si / 1000 Ang^3
#
#
#
# Elastic Constant Matrix: (Units=GPa)
#
#
# Indices 1 2 3 4 5 6 
#
# 1 27.6127 2.1072 -5.1670 0.0000 8.9515 0.0000
# 2 2.1072 107.5134 0.4136 0.0000 5.0229 0.0000
# 3 -5.1670 0.4136 29.6178 0.0000 7.8355 0.0000
# 4 0.0000 0.0000 0.0000 15.4505 0.0000 9.7638
# 5 8.9515 5.0229 7.8355 0.0000 15.0868 0.0000
# 6 0.0000 0.0000 0.0000 9.7638 0.0000 24.8160
#
#
#
# Elastic Compliance Matrix: (Units=1/GPa)
#
#
# Indices 1 2 3 4 5 6 
#
# 1 0.054048 0.000878 0.020842 0.000000 -0.043185 0.000000
# 2 0.000878 0.009479 0.001152 0.000000 -0.004275 0.000000
# 3 0.020842 0.001152 0.047248 0.000000 -0.037288 0.000000
# 4 0.000000 0.000000 0.000000 0.086140 0.000000 -0.033892
# 5 -0.043185 -0.004275 -0.037288 0.000000 0.112696 0.000000
# 6 0.000000 0.000000 0.000000 -0.033892 0.000000 0.053631
#
#
# Mechanical properties :
#
#
# Convention : Reuss Voigt Hill
#
# Bulk Modulus (GPa) = 6.38903 17.71683 12.05293
# Shear Modulus (GPa) = 13.52549 22.23001 17.87775
#
# Velocity S-wave (km/s) = 2.44227 3.13103 2.80785
# Velocity P-wave (km/s) = 3.28183 4.56992 3.97835
#
# Compressibility (1/GPa) = 0.15651826
#
# Stress axis : x y z
#
# Youngs Moduli (GPa) = 18.50209 105.49348 21.16485
#
# Poissons Ratio (x) = -0.09263 -0.44111
# Poissons Ratio (y) = -0.01625 -0.02438
# Poissons Ratio (z) = -0.38561 -0.12151
#
# Static dielectric constant tensor:
#      x y z
#    x 1.939950 0.000000 0.004060 
#    y 0.000000 1.867220 0.000000 
#    z 0.004060 0.000000 1.874350 
# 
# From -- ./inp_files/176202.got.cif
#   From: 2010.05.17/outbox.cif.g08.bks.cpg/sg15_89_cif.got.tgz:176202.got - 2010.06.03 18:47:42.
