data_PCOD9257377
_publ_section_title
;
Structure prediction by ZEFSAII (Michael W. Deem and Ramdas Pophale) SiO2 
 PCOD9257377
Probable space group: C 2/C
;
_chemical_formula_sum "Si O2"
_cell_formula_units_Z 56
_cell_length_a 12.831217
_cell_length_b 12.554087
_cell_length_c 15.760377
_cell_angle_alpha 90.000000
_cell_angle_beta 69.307116
_cell_angle_gamma 90.000000
_cell_volume 2374.968050
_symmetry_space_group_name_H-M "C 2/C"
_symmetry_group_IT_number 15
_symmetry_cell_setting 'monoclinic'
loop_
_space_group_symop_operation_xyz
x,y,z
-x,y,1/2-z
-x,-y,-z
x,-y,1/2+z
1/2+x,1/2+y,z
1/2-x,1/2+y,1/2-z
1/2-x,1/2-y,-z
1/2+x,1/2-y,1/2+z
loop_
_atom_site_type_symbol
_atom_site_label
_atom_site_fract_x
_atom_site_fract_y
_atom_site_fract_z
Si Si1 0.898908 0.748151 0.713723
Si Si2 0.915796 0.584373 0.059663
Si Si3 0.059993 0.101518 0.813112
Si Si4 0.162246 0.672273 0.257528
Si Si5 0.266467 0.623902 0.501011
Si Si6 0.698269 0.037841 0.694941
Si Si7 0.003715 0.821570 0.510611
O O1 0.778887 0.799174 0.769992
O O2 0.874897 0.620218 0.726558
O O3 0.921992 0.795530 0.612690
O O4 0.000000 0.770998 0.750000
O O5 0.792800 0.564122 0.058219
O O6 0.091768 0.404728 0.838533
O O7 0.951195 0.703017 0.022123
O O8 0.000000 0.500000 0.000000
O O9 0.103408 0.215836 0.764134
O O10 0.174357 0.043509 0.806934
O O11 0.000000 0.048350 0.750000
O O12 0.989183 0.127767 0.919826
O O13 0.177458 0.586850 0.179772
O O14 0.250000 0.750000 0.500000
O O15 0.199113 0.593532 0.603988
O O16 0.396789 0.608036 0.477830
#
# Coordination Sequence:
#
# PCOD9257377 Si02
#       7
#     8   8   8   8   8   8   8
#     4  11  20  35  59  84 112 149 189 238 290 347
#     4  10  18  31  52  80 110 142 184 234 284 339
#     4   9  20  39  57  73 109 153 186 232 290 346
#     4  10  22  36  52  84 117 140 184 242 288 341
#     4   9  17  34  54  76 108 146 185 232 280 333
#     4  10  21  36  55  82 112 144 189 237 287 343
#     4   9  18  33  54  77 104 146 191 225 280 347
#
# _framework density 23.579263000000001
#
# number of rings (size 3 to 8) (size 9 to 14) (size 15 to 20)
#    0.000    2.286    0.000    6.000    0.000    3.429 
#    0.000    7.143    0.000    0.000    0.000    0.000 
#    0.000    0.000    0.000    0.000    0.000    0.000 
#
# Total GULP energy -156008.151297 kJ/mol
# GULP energy per Si atom -5571.719689 kJ/mol
# Density = 2.352560 g / cm^3
# Si number density = 23.579263 Si / 1000 Ang^3
#
#
#
# Elastic Constant Matrix: (Units=GPa)
#
#
# Indices 1 2 3 4 5 6 
#
# 1 53.9803 0.8502 -1.4067 0.0000 2.6939 0.0000
# 2 0.8502 89.9945 -6.1125 0.0000 -3.9622 0.0000
# 3 -1.4067 -6.1125 45.7855 0.0000 -3.2928 0.0000
# 4 0.0000 0.0000 0.0000 -13.9575 0.0000 22.4757
# 5 2.6939 -3.9622 -3.2928 0.0000 21.8037 0.0000
# 6 0.0000 0.0000 0.0000 22.4757 0.0000 -7.8347
#
#
#
# Elastic Compliance Matrix: (Units=1/GPa)
#
#
# Indices 1 2 3 4 5 6 
#
# 1 0.018653 -0.000252 0.000375 0.000000 -0.002294 0.000000
# 2 -0.000252 0.011331 0.001673 0.000000 0.002343 0.000000
# 3 0.000375 0.001673 0.022337 0.000000 0.003631 0.000000
# 4 0.000000 0.000000 0.000000 0.019794 0.000000 0.056785
# 5 -0.002294 0.002343 0.003631 0.000000 0.047121 0.000000
# 6 0.000000 0.000000 0.000000 0.056785 0.000000 0.035264
#
#
# Mechanical properties :
#
#
# Convention : Reuss Voigt Hill
#
# Bulk Modulus (GPa) = 17.88464 19.60249 18.74356
# Shear Modulus (GPa) = 29.49049 13.09761 21.29405
#
# Velocity S-wave (km/s) = 3.54035 2.35940 3.00840
# Velocity P-wave (km/s) = 4.93087 3.96911 4.47590
#
# Compressibility (1/GPa) = 0.05591391
#
# Stress axis : x y z
#
# Youngs Moduli (GPa) = 53.60930 88.25363 44.76868
#
# Poissons Ratio (x) = 0.02222 -0.01677
# Poissons Ratio (y) = 0.01350 -0.07492
# Poissons Ratio (z) = -0.02008 -0.14769
#
# Static dielectric constant tensor:
#      x y z
#    x 1.970660 0.000000 0.039760 
#    y 0.000000 1.981850 0.000000 
#    z 0.039760 0.000000 3.343550 
# 
# From -- ./inp_files/198221.got.cif
#   From: 2010.05.17/outbox.cif.g08.bks.cpg/sg15_100_cif.got.tgz:198221.got - 2010.06.03 18:47:42.
