data_PCOD9257720
_publ_section_title
;
Structure prediction by ZEFSAII (Michael W. Deem and Ramdas Pophale) SiO2 
 PCOD9257720
Probable space group: C 2/C
;
_chemical_formula_sum "Si O2"
_cell_formula_units_Z 60
_cell_length_a 20.366231
_cell_length_b 16.239764
_cell_length_c 17.942305
_cell_angle_alpha 90.000000
_cell_angle_beta 32.437347
_cell_angle_gamma 90.000000
_cell_volume 3183.015779
_symmetry_space_group_name_H-M "C 2/C"
_symmetry_group_IT_number 15
_symmetry_cell_setting 'monoclinic'
loop_
_space_group_symop_operation_xyz
x,y,z
-x,y,1/2-z
-x,-y,-z
x,-y,1/2+z
1/2+x,1/2+y,z
1/2-x,1/2+y,1/2-z
1/2-x,1/2-y,-z
1/2+x,1/2-y,1/2+z
loop_
_atom_site_type_symbol
_atom_site_label
_atom_site_fract_x
_atom_site_fract_y
_atom_site_fract_z
Si Si1 0.388070 0.537447 0.413963
Si Si2 0.114610 0.519491 0.693945
Si Si3 0.469039 0.263792 0.029398
Si Si4 0.657561 0.723981 0.996454
Si Si5 0.585767 0.196755 0.776646
Si Si6 0.907421 0.876870 0.479150
Si Si7 0.000000 0.227167 0.750000
Si Si8 0.127844 0.341562 0.744325
O O1 0.500000 0.524195 0.250000
O O2 0.247379 0.515464 0.525536
O O3 0.383070 0.633622 0.438458
O O4 0.409358 0.474185 0.461791
O O5 0.116828 0.600655 0.743023
O O6 0.094875 0.435373 0.757414
O O7 0.000000 0.529269 0.750000
O O8 0.357073 0.276292 0.079802
O O9 0.506879 0.345687 0.036762
O O10 0.442094 0.197085 0.118716
O O11 0.572060 0.232291 0.873085
O O12 0.800482 0.740689 0.873952
O O13 0.551339 0.786762 0.123106
O O14 0.771154 0.844467 0.624962
O O15 0.944561 0.831313 0.366690
O O16 0.905153 0.286101 0.796508
#
# Coordination Sequence:
#
# PCOD9257720 Si02
#       8
#     8   8   8   8   8   8   4   8
#     4  10  21  38  57  84 114 145 185 230 279 328
#     4  10  21  38  57  84 114 145 185 230 279 328
#     4   9  20  35  57  78 111 144 188 220 275 320
#     4   9  20  38  58  80 112 147 188 230 272 329
#     4   9  20  38  58  80 112 147 188 230 272 329
#     4  10  19  33  55  81 113 145 179 226 277 332
#     4  10  18  32  52  78 112 144 180 220 276 328
#     4  10  19  33  55  81 113 145 179 226 277 332
#
# _framework density 18.850048999999999
#
# number of rings (size 3 to 8) (size 9 to 14) (size 15 to 20)
#    0.800    1.600    1.333    1.200    0.000    2.667 
#    0.000    4.000    0.000    0.000    0.000    0.000 
#    0.000    0.000    0.000    0.000    0.000    0.000 
#
# Total GULP energy -167009.388589 kJ/mol
# GULP energy per Si atom -5566.979620 kJ/mol
# Density = 1.880715 g / cm^3
# Si number density = 18.850049 Si / 1000 Ang^3
#
#
#
# Elastic Constant Matrix: (Units=GPa)
#
#
# Indices 1 2 3 4 5 6 
#
# 1 47.9724 -9.6106 16.0782 -0.0001 -2.1273 0.0000
# 2 -9.6106 65.8135 17.8640 0.0000 -3.3833 0.0000
# 3 16.0782 17.8640 107.6607 -0.0001 -5.1730 0.0001
# 4 -0.0001 0.0000 -0.0001 20.7811 0.0001 -2.5420
# 5 -2.1273 -3.3833 -5.1730 0.0001 26.6364 -0.0001
# 6 0.0000 0.0000 0.0001 -2.5420 -0.0001 17.6690
#
#
#
# Elastic Compliance Matrix: (Units=1/GPa)
#
#
# Indices 1 2 3 4 5 6 
#
# 1 0.023233 0.004604 -0.004155 0.000000 0.001633 0.000000
# 2 0.004604 0.016885 -0.003400 0.000000 0.001852 0.000000
# 3 -0.004155 -0.003400 0.010535 0.000000 0.001282 0.000000
# 4 0.000000 0.000000 0.000000 0.048983 0.000000 0.007047
# 5 0.001633 0.001852 0.001282 0.000000 0.038157 0.000000
# 6 0.000000 0.000000 0.000000 0.007047 0.000000 0.057610
#
#
# Mechanical properties :
#
#
# Convention : Reuss Voigt Hill
#
# Bulk Modulus (GPa) = 22.34611 30.01219 26.17915
# Shear Modulus (GPa) = 23.12442 26.15829 24.64135
#
# Velocity S-wave (km/s) = 3.50631 3.72923 3.61949
# Velocity P-wave (km/s) = 5.31720 5.87358 5.60231
#
# Compressibility (1/GPa) = 0.04475052
#
# Stress axis : x y z
#
# Youngs Moduli (GPa) = 43.04258 59.22408 94.92345
#
# Poissons Ratio (x) = -0.27269 0.39442
# Poissons Ratio (y) = -0.19819 0.32277
# Poissons Ratio (z) = 0.17885 0.20138
#
# Static dielectric constant tensor:
#      x y z
#    x 1.664640 0.000000 -0.028470 
#    y 0.000000 1.631530 0.000000 
#    z -0.028470 0.000000 1.664340 
# 
# From -- ./inp_files/255652.got.cif
#   From: 2010.05.17/outbox.cif.g08.bks.cpg/sg15_128_cif.got.tgz:255652.got - 2010.06.03 18:47:42.
