data_PCOD9257711
_publ_section_title
;
Structure prediction by ZEFSAII (Michael W. Deem and Ramdas Pophale) SiO2 
 PCOD9257711
Probable space group: C 2/C
;
_chemical_formula_sum "Si O2"
_cell_formula_units_Z 60
_cell_length_a 27.266037
_cell_length_b 8.109627
_cell_length_c 12.338290
_cell_angle_alpha 90.000000
_cell_angle_beta 110.019191
_cell_angle_gamma 90.000000
_cell_volume 2563.366573
_symmetry_space_group_name_H-M "C 2/C"
_symmetry_group_IT_number 15
_symmetry_cell_setting 'monoclinic'
loop_
_space_group_symop_operation_xyz
x,y,z
-x,y,1/2-z
-x,-y,-z
x,-y,1/2+z
1/2+x,1/2+y,z
1/2-x,1/2+y,1/2-z
1/2-x,1/2-y,-z
1/2+x,1/2-y,1/2+z
loop_
_atom_site_type_symbol
_atom_site_label
_atom_site_fract_x
_atom_site_fract_y
_atom_site_fract_z
Si Si1 0.847344 0.291838 0.250728
Si Si2 0.168530 0.041537 0.885821
Si Si3 0.942662 0.391504 0.169876
Si Si4 0.368767 0.020659 0.956799
Si Si5 0.903620 0.766827 0.319471
Si Si6 0.273098 0.067629 0.538243
Si Si7 0.071072 0.047270 0.455450
Si Si8 0.000000 0.185600 0.750000
O O1 0.831341 0.112327 0.198080
O O2 0.900906 0.343605 0.230670
O O3 0.856687 0.313744 0.383942
O O4 0.801899 0.416696 0.175518
O O5 0.225415 0.055606 0.981351
O O6 0.127442 0.989632 0.946566
O O7 0.143097 0.187994 0.798044
O O8 0.946566 0.226581 0.100300
O O9 0.000000 0.428720 0.250000
O O10 0.916868 0.529548 0.074763
O O11 0.384273 0.880718 0.881126
O O12 0.319052 0.964040 0.987528
O O13 0.920291 0.922528 0.409577
O O14 0.954680 0.728889 0.286891
O O15 0.250000 0.250000 0.500000
O O16 0.031369 0.923141 0.365080
#
# Coordination Sequence:
#
# PCOD9257711 Si02
#       8
#     8   8   8   8   8   8   8   4
#     4   9  19  36  53  78 109 139 181 225 262 323
#     4   9  19  34  57  83 102 141 187 227 266 326
#     4   9  17  33  56  74 100 145 186 215 255 333
#     4  10  21  35  54  82 112 142 176 228 282 318
#     4  10  20  34  53  81 111 140 184 227 277 330
#     4   9  18  36  60  79 105 148 188 219 263 334
#     4   9  17  32  54  78 104 137 185 225 266 323
#     4  10  18  32  52  76 108 146 178 234 280 312
#
# _framework density 23.406717
#
# number of rings (size 3 to 8) (size 9 to 14) (size 15 to 20)
#    0.000    2.667    0.667    2.800    0.000    3.733 
#    1.200    6.000    0.000    0.000    0.000    0.000 
#    0.000    0.000    0.000    0.000    0.000    0.000 
#
# Total GULP energy -167670.371521 kJ/mol
# GULP energy per Si atom -5589.012384 kJ/mol
# Density = 2.335344 g / cm^3
# Si number density = 23.406717 Si / 1000 Ang^3
#
#
#
# Elastic Constant Matrix: (Units=GPa)
#
#
# Indices 1 2 3 4 5 6 
#
# 1 115.1837 17.1724 45.2555 0.0000 40.1149 0.0000
# 2 17.1724 48.0546 17.0769 0.0000 6.7496 0.0000
# 3 45.2555 17.0769 62.4037 0.0000 22.6609 0.0000
# 4 0.0000 0.0000 0.0000 41.4627 0.0000 -2.8842
# 5 40.1149 6.7496 22.6609 0.0000 41.1228 0.0000
# 6 0.0000 0.0000 0.0000 -2.8842 0.0000 15.3437
#
#
#
# Elastic Compliance Matrix: (Units=1/GPa)
#
#
# Indices 1 2 3 4 5 6 
#
# 1 0.015415 -0.001561 -0.006731 0.000000 -0.011072 0.000000
# 2 -0.001561 0.023214 -0.005488 0.000000 0.000737 0.000000
# 3 -0.006731 -0.005488 0.024624 0.000000 -0.006102 0.000000
# 4 0.000000 0.000000 0.000000 0.024438 0.000000 0.004594
# 5 -0.011072 0.000737 -0.006102 0.000000 0.038359 0.000000
# 6 0.000000 0.000000 0.000000 0.004594 0.000000 0.066037
#
#
# Mechanical properties :
#
#
# Convention : Reuss Voigt Hill
#
# Bulk Modulus (GPa) = 28.01750 42.73905 35.37828
# Shear Modulus (GPa) = 21.59393 29.32830 25.46111
#
# Velocity S-wave (km/s) = 3.04065 3.54360 3.30171
# Velocity P-wave (km/s) = 4.93186 5.91960 5.44816
#
# Compressibility (1/GPa) = 0.03569198
#
# Stress axis : x y z
#
# Youngs Moduli (GPa) = 64.87057 43.07685 40.61078
#
# Poissons Ratio (x) = 0.06726 0.27337
# Poissons Ratio (y) = 0.10129 0.22287
# Poissons Ratio (z) = 0.43667 0.23640
#
# Static dielectric constant tensor:
#      x y z
#    x 1.825270 0.000000 0.027120 
#    y 0.000000 2.005760 0.000000 
#    z 0.027120 0.000000 1.899510 
# 
# From -- ./inp_files/122467.got.cif
#   From: 2010.05.17/outbox.cif.g08.bks.cpg/sg15_62_cif.got.tgz:122467.got - 2010.06.03 18:47:42.
