data_PCOD9257662
_publ_section_title
;
Structure prediction by ZEFSAII (Michael W. Deem and Ramdas Pophale) SiO2 
 PCOD9257662
Probable space group: C 2/C
;
_chemical_formula_sum "Si O2"
_cell_formula_units_Z 60
_cell_length_a 20.147271
_cell_length_b 23.814715
_cell_length_c 5.980278
_cell_angle_alpha 90.000000
_cell_angle_beta 55.061169
_cell_angle_gamma 90.000000
_cell_volume 2352.186721
_symmetry_space_group_name_H-M "C 2/C"
_symmetry_group_IT_number 15
_symmetry_cell_setting 'monoclinic'
loop_
_space_group_symop_operation_xyz
x,y,z
-x,y,1/2-z
-x,-y,-z
x,-y,1/2+z
1/2+x,1/2+y,z
1/2-x,1/2+y,1/2-z
1/2-x,1/2-y,-z
1/2+x,1/2-y,1/2+z
loop_
_atom_site_type_symbol
_atom_site_label
_atom_site_fract_x
_atom_site_fract_y
_atom_site_fract_z
Si Si1 0.246693 0.645175 0.398576
Si Si2 0.500000 0.130181 0.750000
Si Si3 0.858693 0.129340 0.576196
Si Si4 0.100482 0.677940 0.907923
Si Si5 0.747599 0.454898 0.931635
Si Si6 0.837912 0.225939 0.906809
Si Si7 0.407144 0.522036 0.308593
Si Si8 0.083413 0.563999 0.213607
O O1 0.280736 0.642480 0.579645
O O2 0.165947 0.681100 0.581829
O O3 0.230034 0.585151 0.320993
O O4 0.312682 0.679624 0.136768
O O5 0.521040 0.170780 0.915353
O O6 0.558808 0.087294 0.505173
O O7 0.915832 0.089385 0.317005
O O8 0.821033 0.086740 0.829613
O O9 0.884020 0.188609 0.631980
O O10 0.113429 0.726157 0.060136
O O11 0.107453 0.617379 0.014591
O O12 0.689974 0.507756 0.996807
O O13 0.830632 0.467248 0.908117
O O14 0.750000 0.250000 0.000000
O O15 0.433423 0.503523 0.004060
O O16 0.000000 0.541301 0.250000
#
# Coordination Sequence:
#
# PCOD9257662 Si02
#       8
#     8   4   8   8   8   8   8   8
#     4  11  18  31  51  75 101 131 171 217 270 320
#     4  10  22  32  50  68 104 138 182 230 268 316
#     4  10  20  32  46  76  99 130 170 215 268 327
#     4  11  20  33  49  74 101 139 178 221 270 326
#     4  10  18  32  51  70  97 132 176 221 267 324
#     4  11  22  30  49  77 104 132 170 220 272 332
#     4  10  20  33  53  75  99 137 177 216 270 333
#     4  10  20  33  49  73  95 132 183 230 268 311
#
# _framework density 25.508178000000001
#
# number of rings (size 3 to 8) (size 9 to 14) (size 15 to 20)
#    0.000    1.600    5.333    1.200    0.000    0.000 
#    0.000    0.000    0.000    3.200    1.733    0.000 
#    0.000    0.000    0.000   10.800    1.067   23.200 
#
# Total GULP energy -167209.291929 kJ/mol
# GULP energy per Si atom -5573.643064 kJ/mol
# Density = 2.545012 g / cm^3
# Si number density = 25.508178 Si / 1000 Ang^3
#
#
#
# Elastic Constant Matrix: (Units=GPa)
#
#
# Indices 1 2 3 4 5 6 
#
# 1 113.3676 36.4113 22.4338 0.0000 20.5223 0.0000
# 2 36.4113 113.8580 27.4552 0.0000 25.3427 0.0000
# 3 22.4338 27.4552 99.2515 0.0000 5.0928 0.0000
# 4 0.0000 0.0000 0.0000 -10.9429 0.0000 32.8094
# 5 20.5223 25.3427 5.0928 0.0000 26.7890 0.0000
# 6 0.0000 0.0000 0.0000 32.8094 0.0000 25.9869
#
#
#
# Elastic Compliance Matrix: (Units=1/GPa)
#
#
# Indices 1 2 3 4 5 6 
#
# 1 0.010842 -0.001630 -0.001669 0.000000 -0.006446 0.000000
# 2 -0.001630 0.012056 -0.002469 0.000000 -0.009687 0.000000
# 3 -0.001669 -0.002469 0.011058 0.000000 0.001512 0.000000
# 4 0.000000 0.000000 0.000000 -0.019096 0.000000 0.024110
# 5 -0.006446 -0.009687 0.001512 0.000000 0.051143 0.000000
# 6 0.000000 0.000000 0.000000 0.024110 0.000000 0.008041
#
#
# Mechanical properties :
#
#
# Convention : Reuss Voigt Hill
#
# Bulk Modulus (GPa) = 44.60499 55.45309 50.02904
# Shear Modulus (GPa) = 53.73292 24.37839 39.05565
#
# Velocity S-wave (km/s) = 4.59464 3.09481 3.91718
# Velocity P-wave (km/s) = 6.75811 5.87852 6.33360
#
# Compressibility (1/GPa) = 0.02241902
#
# Stress axis : x y z
#
# Youngs Moduli (GPa) = 92.23804 82.94879 90.43124
#
# Poissons Ratio (x) = 0.13519 0.15092
# Poissons Ratio (y) = 0.15033 0.22331
# Poissons Ratio (z) = 0.15394 0.20484
#
# Static dielectric constant tensor:
#      x y z
#    x 2.163750 0.000000 -0.043960 
#    y 0.000000 2.020440 0.000000 
#    z -0.043960 0.000000 2.159740 
# 
# From -- ./inp_files/16353.got.cif
#   From: 2010.05.17/outbox.cif.g08.bks.cpg/sg15_9_cif.got.tgz:16353.got - 2010.06.03 18:47:42.
