data_PCOD9257423
_publ_section_title
;
Structure prediction by ZEFSAII (Michael W. Deem and Ramdas Pophale) SiO2 
 PCOD9257423
Probable space group: C 2/C
;
_chemical_formula_sum "Si O2"
_cell_formula_units_Z 48
_cell_length_a 11.421196
_cell_length_b 11.830974
_cell_length_c 17.097538
_cell_angle_alpha 90.000000
_cell_angle_beta 60.542776
_cell_angle_gamma 90.000000
_cell_volume 2011.618970
_symmetry_space_group_name_H-M "C 2/C"
_symmetry_group_IT_number 15
_symmetry_cell_setting 'monoclinic'
loop_
_space_group_symop_operation_xyz
x,y,z
-x,y,1/2-z
-x,-y,-z
x,-y,1/2+z
1/2+x,1/2+y,z
1/2-x,1/2+y,1/2-z
1/2-x,1/2-y,-z
1/2+x,1/2-y,1/2+z
loop_
_atom_site_type_symbol
_atom_site_label
_atom_site_fract_x
_atom_site_fract_y
_atom_site_fract_z
Si Si1 0.488498 0.045309 0.663191
Si Si2 0.376986 0.260162 0.858047
Si Si3 0.049867 0.119034 0.646066
Si Si4 0.515990 0.588481 0.425836
Si Si5 0.221845 0.718301 0.845912
Si Si6 0.112444 0.313262 0.851750
O O1 0.500000 0.008324 0.750000
O O2 0.615989 0.129045 0.618288
O O3 0.366569 0.130314 0.677475
O O4 0.463326 0.932384 0.622728
O O5 0.500000 0.272740 0.750000
O O6 0.403246 0.329387 0.928175
O O7 0.238697 0.301325 0.867000
O O8 0.207131 0.145414 0.609105
O O9 0.000000 0.137886 0.750000
O O10 0.992367 0.211807 0.605740
O O11 0.981365 0.000622 0.646903
O O12 0.500000 0.500000 0.500000
O O13 0.634096 0.676255 0.403564
O O14 0.320811 0.785343 0.754364
#
# Coordination Sequence:
#
# PCOD9257423 Si02
#       6
#     8   8   8   8   8   8
#     4  10  18  31  53  84 119 148 185 248 309 347
#     4  10  19  38  58  85 116 152 198 253 299 351
#     4  10  23  37  58  94 118 149 204 261 299 363
#     4  11  23  38  61  85 120 167 203 244 304 368
#     4  10  21  36  58  88 121 155 199 254 304 358
#     4  11  20  34  61  90 116 151 198 255 315 352
#
# _framework density 23.861377000000001
#
# number of rings (size 3 to 8) (size 9 to 14) (size 15 to 20)
#    0.000    1.667    5.000    3.000    4.667    2.000 
#    0.000    0.833    0.000    5.000    0.000    0.000 
#    0.000    0.000    0.000    0.000    0.000    0.000 
#
# Total GULP energy -133642.582879 kJ/mol
# GULP energy per Si atom -5568.440953 kJ/mol
# Density = 2.380707 g / cm^3
# Si number density = 23.861377 Si / 1000 Ang^3
#
#
#
# Elastic Constant Matrix: (Units=GPa)
#
#
# Indices 1 2 3 4 5 6 
#
# 1 64.4845 -0.9763 11.2368 0.0000 0.5917 0.0000
# 2 -0.9763 125.9585 -3.2284 0.0000 -10.6792 0.0000
# 3 11.2368 -3.2284 43.9267 0.0000 -1.4812 0.0000
# 4 0.0000 0.0000 0.0000 14.8853 0.0000 7.9983
# 5 0.5917 -10.6792 -1.4812 0.0000 6.2478 0.0000
# 6 0.0000 0.0000 0.0000 7.9983 0.0000 -74.2868
#
#
#
# Elastic Compliance Matrix: (Units=1/GPa)
#
#
# Indices 1 2 3 4 5 6 
#
# 1 0.016277 -0.000234 -0.004281 0.000000 -0.002957 0.000000
# 2 -0.000234 0.009354 0.001298 0.000000 0.016319 0.000000
# 3 -0.004281 0.001298 0.024238 0.000000 0.008370 0.000000
# 4 0.000000 0.000000 0.000000 0.063506 0.000000 0.006838
# 5 -0.002957 0.016319 0.008370 0.000000 0.190214 0.000000
# 6 0.000000 0.000000 0.000000 0.006838 0.000000 -0.012725
#
#
# Mechanical properties :
#
#
# Convention : Reuss Voigt Hill
#
# Bulk Modulus (GPa) = 23.02319 27.60378 25.31348
# Shear Modulus (GPa) = 16.03708 4.52508 10.28108
#
# Velocity S-wave (km/s) = 2.59529 1.37859 2.07799
# Velocity P-wave (km/s) = 4.31861 3.75866 4.04833
#
# Compressibility (1/GPa) = 0.04343447
#
# Stress axis : x y z
#
# Youngs Moduli (GPa) = 61.43588 106.90475 41.25779
#
# Poissons Ratio (x) = 0.02504 0.17661
# Poissons Ratio (y) = 0.01439 -0.05354
# Poissons Ratio (z) = 0.26299 -0.13873
#
# Static dielectric constant tensor:
#      x y z
#    x 2.049800 0.000000 -0.112430 
#    y 0.000000 1.982610 0.000000 
#    z -0.112430 0.000000 2.055110 
# 
# From -- ./inp_files/236514.got.cif
#   From: 2010.05.17/outbox.cif.g08.bks.cpg/sg15_119_cif.got.tgz:236514.got - 2010.06.03 18:47:42.
