data_PCOD9257478
_publ_section_title
;
Structure prediction by ZEFSAII (Michael W. Deem and Ramdas Pophale) SiO2 
 PCOD9257478
Probable space group: C 2/C
;
_chemical_formula_sum "Si O2"
_cell_formula_units_Z 64
_cell_length_a 9.519790
_cell_length_b 18.359906
_cell_length_c 21.616501
_cell_angle_alpha 90.000000
_cell_angle_beta 66.030816
_cell_angle_gamma 90.000000
_cell_volume 3452.369755
_symmetry_space_group_name_H-M "C 2/C"
_symmetry_group_IT_number 15
_symmetry_cell_setting 'monoclinic'
loop_
_space_group_symop_operation_xyz
x,y,z
-x,y,1/2-z
-x,-y,-z
x,-y,1/2+z
1/2+x,1/2+y,z
1/2-x,1/2+y,1/2-z
1/2-x,1/2-y,-z
1/2+x,1/2-y,1/2+z
loop_
_atom_site_type_symbol
_atom_site_label
_atom_site_fract_x
_atom_site_fract_y
_atom_site_fract_z
Si Si1 0.884095 0.449241 0.717561
Si Si2 0.676213 0.185385 0.716012
Si Si3 0.188483 0.345114 0.073151
Si Si4 0.362549 0.324090 0.926924
Si Si5 0.321722 0.585229 0.788295
Si Si6 0.394559 0.077925 0.569565
Si Si7 0.074316 0.592821 0.423449
Si Si8 0.112947 0.846244 0.780277
O O1 0.783318 0.517187 0.712990
O O2 0.959416 0.413049 0.643026
O O3 0.764574 0.391074 0.764982
O O4 0.000000 0.471229 0.750000
O O5 0.500000 0.157820 0.750000
O O6 0.729777 0.163291 0.637715
O O7 0.780587 0.148906 0.748461
O O8 0.659639 0.270164 0.738432
O O9 0.133811 0.263126 0.066478
O O10 0.046158 0.399273 0.083362
O O11 0.328030 0.359089 0.000332
O O12 0.215347 0.352962 0.913406
O O13 0.513392 0.340324 0.860216
O O14 0.500000 0.568213 0.750000
O O15 0.256169 0.605162 0.867832
O O16 0.434654 0.109571 0.494937
O O17 0.378509 0.990372 0.567007
O O18 0.000000 0.883388 0.750000
#
# Coordination Sequence:
#
# PCOD9257478 Si02
#       8
#     8   8   8   8   8   8   8   8
#     4  11  23  36  56  81 109 147 188 231 280 333
#     4  11  19  35  57  83 113 142 183 236 275 326
#     4  10  18  31  55  84 111 146 187 227 277 335
#     4  10  18  31  55  84 111 146 187 227 277 335
#     4  11  23  36  56  81 109 147 188 231 280 333
#     4   9  18  32  52  77 108 144 181 223 279 340
#     4   9  18  32  52  77 108 144 181 223 279 340
#     4  11  19  35  57  83 113 142 183 236 275 326
#
# _framework density 18.537991999999999
#
# number of rings (size 3 to 8) (size 9 to 14) (size 15 to 20)
#    0.000    1.750    5.000    0.750    3.500    0.500 
#    0.000    1.250    0.000    1.500    0.000    8.750 
#    0.000    0.000    0.000    0.000    0.000    0.000 
#
# Total GULP energy -178213.182903 kJ/mol
# GULP energy per Si atom -5569.161966 kJ/mol
# Density = 1.849580 g / cm^3
# Si number density = 18.537992 Si / 1000 Ang^3
#
#
#
# Elastic Constant Matrix: (Units=GPa)
#
#
# Indices 1 2 3 4 5 6 
#
# 1 61.9825 21.0807 29.9504 0.0000 -6.9699 0.0000
# 2 21.0807 52.0235 1.7202 0.0000 -5.7476 0.0000
# 3 29.9504 1.7202 164.5179 0.0000 -15.9564 0.0000
# 4 0.0000 0.0000 0.0000 12.5260 0.0000 3.8619
# 5 -6.9699 -5.7476 -15.9564 0.0000 14.0719 0.0000
# 6 0.0000 0.0000 0.0000 3.8619 0.0000 24.0840
#
#
#
# Elastic Compliance Matrix: (Units=1/GPa)
#
#
# Indices 1 2 3 4 5 6 
#
# 1 0.020853 -0.007983 -0.003401 0.000000 0.003211 0.000000
# 2 -0.007983 0.023250 0.001964 0.000000 0.007769 0.000000
# 3 -0.003401 0.001964 0.007406 0.000000 0.007515 0.000000
# 4 0.000000 0.000000 0.000000 0.083986 0.000000 -0.013467
# 5 0.003211 0.007769 0.007515 0.000000 0.084349 0.000000
# 6 0.000000 0.000000 0.000000 -0.013467 0.000000 0.043681
#
#
# Mechanical properties :
#
#
# Convention : Reuss Voigt Hill
#
# Bulk Modulus (GPa) = 30.61062 42.66960 36.64011
# Shear Modulus (GPa) = 17.05001 25.18791 21.11896
#
# Velocity S-wave (km/s) = 3.03600 3.69008 3.37890
# Velocity P-wave (km/s) = 5.37010 6.42051 5.91865
#
# Compressibility (1/GPa) = 0.03266840
#
# Stress axis : x y z
#
# Youngs Moduli (GPa) = 47.95412 43.01038 135.02710
#
# Poissons Ratio (x) = 0.34334 0.45928
# Poissons Ratio (y) = 0.38281 -0.26515
# Poissons Ratio (z) = 0.16311 -0.08446
#
# Static dielectric constant tensor:
#      x y z
#    x 1.601580 0.000000 -0.000480 
#    y 0.000000 1.664670 0.000000 
#    z -0.000480 0.000000 1.744650 
# 
# From -- ./inp_files/233820.got.cif
#   From: 2010.05.17/outbox.cif.g08.bks.cpg/sg15_117_cif.got.tgz:233820.got - 2010.06.03 18:47:42.
