data_PCOD9257616
_publ_section_title
;
Structure prediction by ZEFSAII (Michael W. Deem and Ramdas Pophale) SiO2 
 PCOD9257616
Probable space group: C 2/C
;
_chemical_formula_sum "Si O2"
_cell_formula_units_Z 40
_cell_length_a 22.464488
_cell_length_b 13.432253
_cell_length_c 5.349299
_cell_angle_alpha 90.000000
_cell_angle_beta 90.249057
_cell_angle_gamma 90.000000
_cell_volume 1614.128696
_symmetry_space_group_name_H-M "C 2/C"
_symmetry_group_IT_number 15
_symmetry_cell_setting 'monoclinic'
loop_
_space_group_symop_operation_xyz
x,y,z
-x,y,1/2-z
-x,-y,-z
x,-y,1/2+z
1/2+x,1/2+y,z
1/2-x,1/2+y,1/2-z
1/2-x,1/2-y,-z
1/2+x,1/2-y,1/2+z
loop_
_atom_site_type_symbol
_atom_site_label
_atom_site_fract_x
_atom_site_fract_y
_atom_site_fract_z
Si Si1 0.435111 0.934263 0.211452
Si Si2 0.112450 0.903036 0.671462
Si Si3 0.739217 0.619497 0.257801
Si Si4 0.933968 0.122075 0.826679
Si Si5 0.193055 0.346841 0.242550
O O1 0.500000 0.884365 0.250000
O O2 0.376507 0.868932 0.245578
O O3 0.433060 0.016724 0.434866
O O4 0.178264 0.941698 0.735990
O O5 0.108917 0.849584 0.403935
O O6 0.071973 0.001939 0.642860
O O7 0.086828 0.841997 0.904001
O O8 0.775003 0.606974 0.513413
O O9 0.711152 0.731116 0.253698
O O10 0.780295 0.612260 0.015877
O O11 0.000000 0.150435 0.750000
#
# Coordination Sequence:
#
# PCOD9257616 Si02
#       5
#     8   8   8   8   8
#     4  10  21  40  62  87 117 149 194 249 294 345
#     4  10  18  32  49  75 101 146 183 220 259 320
#     4  10  21  37  59  80 119 149 181 232 282 345
#     4  10  19  33  50  71 111 149 176 222 267 302
#     4  10  21  40  58  83 112 151 182 227 298 342
#
# _framework density 24.781172000000002
#
# number of rings (size 3 to 8) (size 9 to 14) (size 15 to 20)
#    0.000    2.000    0.000    5.400    0.000    0.000 
#   21.600    3.000    0.000    2.400    0.000    0.000 
#    0.000    0.000    0.000    0.000    0.000    0.000 
#
# Total GULP energy -111911.702391 kJ/mol
# GULP energy per Si atom -5595.585120 kJ/mol
# Density = 2.472477 g / cm^3
# Si number density = 24.781172 Si / 1000 Ang^3
#
#
#
# Elastic Constant Matrix: (Units=GPa)
#
#
# Indices 1 2 3 4 5 6 
#
# 1 164.1000 28.8333 -0.1551 0.0000 -9.4489 0.0000
# 2 28.8333 54.2274 10.7927 0.0000 -1.8051 0.0000
# 3 -0.1551 10.7927 117.3200 0.0000 8.8746 0.0000
# 4 0.0000 0.0000 0.0000 -55.4215 0.0000 5.1097
# 5 -9.4489 -1.8051 8.8746 0.0000 48.0356 0.0000
# 6 0.0000 0.0000 0.0000 5.1097 0.0000 23.4538
#
#
#
# Elastic Compliance Matrix: (Units=1/GPa)
#
#
# Indices 1 2 3 4 5 6 
#
# 1 0.006798 -0.003627 0.000255 0.000000 0.001154 0.000000
# 2 -0.003627 0.020771 -0.001948 0.000000 0.000427 0.000000
# 3 0.000255 -0.001948 0.008828 0.000000 -0.001654 0.000000
# 4 0.000000 0.000000 0.000000 -0.017688 0.000000 0.003854
# 5 0.001154 0.000427 -0.001654 0.000000 0.021366 0.000000
# 6 0.000000 0.000000 0.000000 0.003854 0.000000 0.041797
#
#
# Mechanical properties :
#
#
# Convention : Reuss Voigt Hill
#
# Bulk Modulus (GPa) = 38.82218 46.06548 42.44383
# Shear Modulus (GPa) = 49.45694 22.95868 36.20781
#
# Velocity S-wave (km/s) = 4.47222 3.04708 3.82658
# Velocity P-wave (km/s) = 6.50905 5.56856 6.05709
#
# Compressibility (1/GPa) = 0.02575847
#
# Stress axis : x y z
#
# Youngs Moduli (GPa) = 147.10691 48.14359 113.27155
#
# Poissons Ratio (x) = 0.17461 -0.02893
# Poissons Ratio (y) = 0.53354 0.22064
# Poissons Ratio (z) = -0.03757 0.09378
#
# Static dielectric constant tensor:
#      x y z
#    x 1.933930 0.000000 0.019860 
#    y 0.000000 2.039010 0.000000 
#    z 0.019860 0.000000 2.006740 
# 
# From -- ./inp_files/9823.got.cif
#   From: 2010.05.17/outbox.cif.g08.bks.cpg/sg15_5_cif.got.tgz:9823.got - 2010.06.03 18:47:42.
