data_PCOD9257525
_publ_section_title
;
Structure prediction by ZEFSAII (Michael W. Deem and Ramdas Pophale) SiO2 
 PCOD9257525
Probable space group: C 2/C
;
_chemical_formula_sum "Si O2"
_cell_formula_units_Z 40
_cell_length_a 18.379296
_cell_length_b 19.280200
_cell_length_c 5.368151
_cell_angle_alpha 90.000000
_cell_angle_beta 95.356396
_cell_angle_gamma 90.000000
_cell_volume 1893.932699
_symmetry_space_group_name_H-M "C 2/C"
_symmetry_group_IT_number 15
_symmetry_cell_setting 'monoclinic'
loop_
_space_group_symop_operation_xyz
x,y,z
-x,y,1/2-z
-x,-y,-z
x,-y,1/2+z
1/2+x,1/2+y,z
1/2-x,1/2+y,1/2-z
1/2-x,1/2-y,-z
1/2+x,1/2-y,1/2+z
loop_
_atom_site_type_symbol
_atom_site_label
_atom_site_fract_x
_atom_site_fract_y
_atom_site_fract_z
Si Si1 0.116241 0.814472 0.815760
Si Si2 0.761758 0.473479 0.437557
Si Si3 0.734803 0.822832 0.858606
Si Si4 0.596127 0.470141 0.859674
Si Si5 0.918326 0.268704 0.703729
O O1 0.204855 0.821832 0.839819
O O2 0.086964 0.891728 0.770488
O O3 0.093052 0.767412 0.571370
O O4 0.090405 0.785719 0.072036
O O5 0.799350 0.505561 0.693043
O O6 0.750700 0.391532 0.473714
O O7 0.682724 0.511465 0.403945
O O8 0.649091 0.820939 0.771356
O O9 0.750000 0.750000 0.000000
O O10 0.568470 0.518332 0.628748
O O11 0.000000 0.297820 0.750000
#
# Coordination Sequence:
#
# PCOD9257525 Si02
#       5
#     8   8   8   8   8
#     4  11  21  38  64  89 115 156 209 249 293 357
#     4  10  20  33  56  90 127 146 187 253 317 340
#     4  10  22  37  64  98 115 156 212 256 292 360
#     4  10  18  31  57  87 119 146 187 248 307 338
#     4  11  25  41  59  85 129 163 197 249 308 356
#
# _framework density 21.120075
#
# number of rings (size 3 to 8) (size 9 to 14) (size 15 to 20)
#    0.000    1.600    4.000    2.400    8.400    3.200 
#    0.000    0.000    0.000   13.200    0.000    0.000 
#    0.000    0.000    0.000    0.000    0.000    0.000 
#
# Total GULP energy -111605.717981 kJ/mol
# GULP energy per Si atom -5580.285899 kJ/mol
# Density = 2.107200 g / cm^3
# Si number density = 21.120075 Si / 1000 Ang^3
#
#
#
# Elastic Constant Matrix: (Units=GPa)
#
#
# Indices 1 2 3 4 5 6 
#
# 1 119.8854 -7.6716 -4.5755 0.0000 3.8337 0.0000
# 2 -7.6716 60.6495 -10.3842 0.0000 3.9063 0.0000
# 3 -4.5755 -10.3842 114.2133 0.0000 -4.4135 0.0000
# 4 0.0000 0.0000 0.0000 21.5619 0.0000 4.6758
# 5 3.8337 3.9063 -4.4135 0.0000 16.7142 0.0000
# 6 0.0000 0.0000 0.0000 4.6758 0.0000 -20.9221
#
#
#
# Elastic Compliance Matrix: (Units=1/GPa)
#
#
# Indices 1 2 3 4 5 6 
#
# 1 0.008506 0.001279 0.000374 0.000000 -0.002151 0.000000
# 2 0.001279 0.017152 0.001459 0.000000 -0.003916 0.000000
# 3 0.000374 0.001459 0.008978 0.000000 0.001944 0.000000
# 4 0.000000 0.000000 0.000000 0.044234 0.000000 0.009886
# 5 -0.002151 -0.003916 0.001944 0.000000 0.061751 0.000000
# 6 0.000000 0.000000 0.000000 0.009886 0.000000 -0.045587
#
#
# Mechanical properties :
#
#
# Convention : Reuss Voigt Hill
#
# Bulk Modulus (GPa) = 24.47384 27.72062 26.09723
# Shear Modulus (GPa) = 48.81308 24.62945 36.72126
#
# Velocity S-wave (km/s) = 4.81273 3.41862 4.17428
# Velocity P-wave (km/s) = 6.51891 5.36063 5.96794
#
# Compressibility (1/GPa) = 0.04085996
#
# Stress axis : x y z
#
# Youngs Moduli (GPa) = 117.56168 58.30219 111.37934
#
# Poissons Ratio (x) = -0.07454 -0.04164
# Poissons Ratio (y) = -0.15030 -0.16254
# Poissons Ratio (z) = -0.04395 -0.08508
#
# Static dielectric constant tensor:
#      x y z
#    x 1.708960 0.000000 0.056030 
#    y 0.000000 1.733910 0.000000 
#    z 0.056030 0.000000 1.853210 
# 
# From -- ./inp_files/9793.got.cif
#   From: 2010.05.17/outbox.cif.g08.bks.cpg/sg15_5_cif.got.tgz:9793.got - 2010.06.03 18:47:42.
