data_PCOD9257544
_publ_section_title
;
Structure prediction by ZEFSAII (Michael W. Deem and Ramdas Pophale) SiO2 
 PCOD9257544
Probable space group: C 2/C
;
_chemical_formula_sum "Si O2"
_cell_formula_units_Z 60
_cell_length_a 8.368663
_cell_length_b 19.847409
_cell_length_c 22.918594
_cell_angle_alpha 90.000000
_cell_angle_beta 131.931538
_cell_angle_gamma 90.000000
_cell_volume 2831.965880
_symmetry_space_group_name_H-M "C 2/C"
_symmetry_group_IT_number 15
_symmetry_cell_setting 'monoclinic'
loop_
_space_group_symop_operation_xyz
x,y,z
-x,y,1/2-z
-x,-y,-z
x,-y,1/2+z
1/2+x,1/2+y,z
1/2-x,1/2+y,1/2-z
1/2-x,1/2-y,-z
1/2+x,1/2-y,1/2+z
loop_
_atom_site_type_symbol
_atom_site_label
_atom_site_fract_x
_atom_site_fract_y
_atom_site_fract_z
Si Si1 0.301602 0.683184 0.380921
Si Si2 0.405425 0.518412 0.830446
Si Si3 0.284454 0.193620 0.271253
Si Si4 0.108021 0.837678 0.211905
Si Si5 0.308324 0.460007 0.923070
Si Si6 0.135178 0.445775 0.998827
Si Si7 0.807388 0.298789 0.460253
Si Si8 0.000000 0.086904 0.250000
O O1 0.320897 0.675477 0.316706
O O2 0.382125 0.616837 0.432417
O O3 0.402034 0.750292 0.433233
O O4 0.042976 0.686894 0.329338
O O5 0.312802 0.586239 0.778111
O O6 0.259936 0.488790 0.847249
O O7 0.625293 0.540032 0.917282
O O8 0.464717 0.462704 0.796436
O O9 0.240254 0.273921 0.264408
O O10 0.195619 0.141005 0.296350
O O11 0.000000 0.830988 0.250000
O O12 0.915912 0.825182 0.120091
O O13 0.500000 0.500000 0.000000
O O14 0.125251 0.459902 0.927246
O O15 0.073601 0.367769 0.994810
O O16 0.000000 0.500000 0.000000
O O17 0.750000 0.250000 0.500000
#
# Coordination Sequence:
#
# PCOD9257544 Si02
#       8
#     8   8   8   8   8   8   8   4
#     4  10  18  36  59  81 108 154 201 228 291 357
#     4  10  22  36  58  81 114 159 191 240 293 361
#     4  10  21  35  59  83 115 147 192 252 287 350
#     4  10  18  36  57  80 110 156 200 233 282 363
#     4  10  20  37  56  80 120 153 192 242 297 349
#     4  10  22  36  57  86 114 147 194 247 296 341
#     4  10  18  31  58  87 104 146 199 238 273 349
#     4  12  22  34  58  90 114 144 196 246 304 332
#
# _framework density 21.186695
#
# number of rings (size 3 to 8) (size 9 to 14) (size 15 to 20)
#    0.000    1.867    6.000    0.000    1.867    0.000 
#    0.000    1.333    2.933    1.600    0.000    0.000 
#    0.000    0.000    0.000    0.000    0.000    0.000 
#
# Total GULP energy -167157.746835 kJ/mol
# GULP energy per Si atom -5571.924895 kJ/mol
# Density = 2.113847 g / cm^3
# Si number density = 21.186695 Si / 1000 Ang^3
#
#
#
# Elastic Constant Matrix: (Units=GPa)
#
#
# Indices 1 2 3 4 5 6 
#
# 1 46.3093 63.6720 34.0865 0.0000 -28.1519 0.0000
# 2 63.6720 213.8947 41.2747 0.0000 -34.0579 0.0000
# 3 34.0865 41.2747 65.0796 0.0000 -32.7114 0.0000
# 4 0.0000 0.0000 0.0000 37.8972 0.0000 -7.5614
# 5 -28.1519 -34.0579 -32.7114 0.0000 27.6879 0.0000
# 6 0.0000 0.0000 0.0000 -7.5614 0.0000 18.4412
#
#
#
# Elastic Compliance Matrix: (Units=1/GPa)
#
#
# Indices 1 2 3 4 5 6 
#
# 1 0.078336 -0.013216 -0.001932 0.000000 0.061110 0.000000
# 2 -0.013216 0.008045 0.000098 0.000000 -0.003426 0.000000
# 3 -0.001932 0.000098 0.037888 0.000000 0.042917 0.000000
# 4 0.000000 0.000000 0.000000 0.028738 0.000000 0.011784
# 5 0.061110 -0.003426 0.042917 0.000000 0.144741 0.000000
# 6 0.000000 0.000000 0.000000 0.011784 0.000000 0.059058
#
#
# Mechanical properties :
#
#
# Convention : Reuss Voigt Hill
#
# Bulk Modulus (GPa) = 10.61925 67.03887 38.82906
# Shear Modulus (GPa) = 11.95326 29.22195 20.58761
#
# Velocity S-wave (km/s) = 2.37784 3.71787 3.12063
# Velocity P-wave (km/s) = 3.54428 7.08101 5.59923
#
# Compressibility (1/GPa) = 0.09416857
#
# Stress axis : x y z
#
# Youngs Moduli (GPa) = 12.76547 124.30252 26.39387
#
# Poissons Ratio (x) = 1.64276 0.05099
# Poissons Ratio (y) = 0.16871 -0.00258
# Poissons Ratio (z) = 0.02466 -0.01214
#
# Static dielectric constant tensor:
#      x y z
#    x 1.832200 0.000000 -0.014170 
#    y 0.000000 1.845680 0.000000 
#    z -0.014170 0.000000 1.787420 
# 
# From -- ./inp_files/265562.got.cif
#   From: 2010.05.17/outbox.cif.g08.bks.cpg/sg15_133_cif.got.tgz:265562.got - 2010.06.03 18:47:42.
