data_PCOD9257757
_publ_section_title
;
Structure prediction by ZEFSAII (Michael W. Deem and Ramdas Pophale) SiO2 
 PCOD9257757
Probable space group: C 2/C
;
_chemical_formula_sum "Si O2"
_cell_formula_units_Z 64
_cell_length_a 21.164957
_cell_length_b 24.021276
_cell_length_c 17.758848
_cell_angle_alpha 90.000000
_cell_angle_beta 160.202318
_cell_angle_gamma 90.000000
_cell_volume 3058.040723
_symmetry_space_group_name_H-M "C 2/C"
_symmetry_group_IT_number 15
_symmetry_cell_setting 'monoclinic'
loop_
_space_group_symop_operation_xyz
x,y,z
-x,y,1/2-z
-x,-y,-z
x,-y,1/2+z
1/2+x,1/2+y,z
1/2-x,1/2+y,1/2-z
1/2-x,1/2-y,-z
1/2+x,1/2-y,1/2+z
loop_
_atom_site_type_symbol
_atom_site_label
_atom_site_fract_x
_atom_site_fract_y
_atom_site_fract_z
Si Si1 0.461250 0.809872 0.617477
Si Si2 0.168964 0.090125 0.133983
Si Si3 0.379746 0.317800 0.038892
Si Si4 0.562373 0.973569 0.664653
Si Si5 0.305912 0.533669 0.569775
Si Si6 0.205093 0.100728 0.452276
Si Si7 0.436302 0.100009 0.559638
Si Si8 0.220345 0.088957 0.796629
O O1 0.500000 0.816553 0.750000
O O2 0.418211 0.744998 0.555609
O O3 0.298952 0.849835 0.405171
O O4 0.660125 0.822980 0.805391
O O5 0.263643 0.038550 0.195867
O O6 0.326446 0.117842 0.362110
O O7 0.083646 0.134291 0.979760
O O8 0.978735 0.077992 0.965937
O O9 0.500000 0.324381 0.250000
O O10 0.388948 0.938721 0.439574
O O11 0.484898 0.034683 0.596897
O O12 0.636332 0.947706 0.826335
O O13 0.500000 0.551851 0.750000
O O14 0.301223 0.466846 0.557169
O O15 0.288780 0.554423 0.635020
O O16 0.293952 0.111587 0.469359
O O17 0.362147 0.121410 0.687574
O O18 0.000000 0.119247 0.250000
#
# Coordination Sequence:
#
# PCOD9257757 Si02
#       8
#     8   8   8   8   8   8   8   8
#     4  11  21  37  58  80 110 154 207 247 277 328
#     4  12  25  36  52  81 119 152 194 245 280 341
#     4  11  23  39  56  82 114 157 203 241 284 332
#     4  11  21  35  51  76 112 151 195 238 278 336
#     4  10  18  32  53  75 103 147 195 236 274 318
#     4   9  19  38  62  78 105 145 190 241 287 352
#     4  10  22  38  56  83 112 150 194 236 296 338
#     4  12  22  33  53  80 112 152 194 239 279 324
#
# _framework density 20.928432999999998
#
# number of rings (size 3 to 8) (size 9 to 14) (size 15 to 20)
#    0.000    1.250    3.750    4.500    1.750    1.500 
#    0.000    0.000    0.000    0.000    0.000    0.000 
#    0.000   16.000    0.000    0.000    0.250    0.000 
#
# Total GULP energy -178536.825508 kJ/mol
# GULP energy per Si atom -5579.275797 kJ/mol
# Density = 2.088080 g / cm^3
# Si number density = 20.928433 Si / 1000 Ang^3
#
#
#
# Elastic Constant Matrix: (Units=GPa)
#
#
# Indices 1 2 3 4 5 6 
#
# 1 34.4204 -4.3242 47.1830 -0.0001 7.6977 -0.0001
# 2 -4.3242 34.2304 5.9708 -0.0001 -1.4511 0.0000
# 3 47.1830 5.9708 141.6407 0.0004 17.1278 0.0001
# 4 -0.0001 -0.0001 0.0004 16.9806 0.0000 -1.6429
# 5 7.6977 -1.4511 17.1278 0.0000 44.7582 0.0000
# 6 -0.0001 0.0000 0.0001 -1.6429 0.0000 8.4551
#
#
#
# Elastic Compliance Matrix: (Units=1/GPa)
#
#
# Indices 1 2 3 4 5 6 
#
# 1 0.057239 0.010498 -0.019251 0.000001 -0.002137 0.000001
# 2 0.010498 0.031452 -0.004957 0.000000 0.001111 0.000000
# 3 -0.019251 -0.004957 0.013946 0.000000 -0.002187 0.000000
# 4 0.000001 0.000000 0.000000 0.060019 0.000000 0.011662
# 5 -0.002137 0.001111 -0.002187 0.000000 0.023583 0.000000
# 6 0.000001 0.000000 0.000000 0.011662 0.000000 0.120538
#
#
# Mechanical properties :
#
#
# Convention : Reuss Voigt Hill
#
# Bulk Modulus (GPa) = 13.29506 34.21673 23.75590
# Shear Modulus (GPa) = 13.91713 24.80292 19.36003
#
# Velocity S-wave (km/s) = 2.58153 3.44631 3.04478
# Velocity P-wave (km/s) = 3.90540 5.67635 4.87202
#
# Compressibility (1/GPa) = 0.07521590
#
# Stress axis : x y z
#
# Youngs Moduli (GPa) = 17.47070 31.79473 71.70271
#
# Poissons Ratio (x) = -0.33379 1.38037
# Poissons Ratio (y) = -0.18341 0.35545
# Poissons Ratio (z) = 0.33633 0.15762
#
# Static dielectric constant tensor:
#      x y z
#    x 2.027870 0.000000 0.227860 
#    y 0.000000 1.772860 0.000000 
#    z 0.227860 0.000000 1.998080 
# 
# From -- ./inp_files/217205.got.cif
#   From: 2010.05.17/outbox.cif.g08.bks.cpg/sg15_109_cif.got.tgz:217205.got - 2010.06.03 18:47:42.
