data_PCOD9257960
_publ_section_title
;
Structure prediction by ZEFSAII (Michael W. Deem and Ramdas Pophale) SiO2 
 PCOD9257960
Probable space group: C 2/C
;
_chemical_formula_sum "Si O2"
_cell_formula_units_Z 56
_cell_length_a 11.099802
_cell_length_b 32.636841
_cell_length_c 9.740207
_cell_angle_alpha 90.000000
_cell_angle_beta 62.003126
_cell_angle_gamma 90.000000
_cell_volume 3115.581088
_symmetry_space_group_name_H-M "C 2/C"
_symmetry_group_IT_number 15
_symmetry_cell_setting 'monoclinic'
loop_
_space_group_symop_operation_xyz
x,y,z
-x,y,1/2-z
-x,-y,-z
x,-y,1/2+z
1/2+x,1/2+y,z
1/2-x,1/2+y,1/2-z
1/2-x,1/2-y,-z
1/2+x,1/2-y,1/2+z
loop_
_atom_site_type_symbol
_atom_site_label
_atom_site_fract_x
_atom_site_fract_y
_atom_site_fract_z
Si Si1 0.000000 0.270162 0.750000
Si Si2 0.604249 0.001987 0.320143
Si Si3 0.619027 0.912895 0.297759
Si Si4 0.223776 0.324805 0.794611
Si Si5 0.746089 0.831287 0.115913
Si Si6 0.483535 0.715575 0.012568
Si Si7 0.500000 0.225754 0.750000
Si Si8 0.588086 0.090705 0.338970
O O1 0.105460 0.297896 0.782414
O O2 0.061703 0.240495 0.598589
O O3 0.500000 0.003519 0.250000
O O4 0.667310 0.047095 0.303171
O O5 0.500000 0.000000 0.500000
O O6 0.683189 0.958700 0.274866
O O7 0.500000 0.916148 0.250000
O O8 0.715300 0.876549 0.191863
O O9 0.528105 0.903801 0.481328
O O10 0.361720 0.308241 0.652669
O O11 0.190546 0.371802 0.781564
O O12 0.234310 0.325486 0.955931
O O13 0.623878 0.802418 0.233784
O O14 0.891052 0.814403 0.087197
O O15 0.539873 0.746604 0.099156
O O16 0.500000 0.091087 0.250000
#
# Coordination Sequence:
#
# PCOD9257960 Si02
#       8
#     4   8   8   8   8   8   4   8
#     4  12  26  42  58  83 110 149 200 240 288 336
#     4   8  16  29  49  81 117 141 175 226 281 326
#     4  10  18  32  56  85 111 147 188 229 274 337
#     4  12  22  39  59  86 114 148 191 241 284 337
#     4  12  22  38  62  85 112 149 197 236 279 340
#     4  12  26  40  57  82 116 152 189 238 292 337
#     4  12  20  38  60  77 110 149 194 234 280 330
#     4  10  19  33  55  85 117 147 178 235 288 327
#
# _framework density 17.974177000000001
#
# number of rings (size 3 to 8) (size 9 to 14) (size 15 to 20)
#    0.000    1.143    5.714    1.714    0.000    1.143 
#    0.000    0.000    0.000    0.857    0.000    0.000 
#    0.000    0.000    0.000    0.000    0.000    0.000 
#
# Total GULP energy -155912.542661 kJ/mol
# GULP energy per Si atom -5568.305095 kJ/mol
# Density = 1.793327 g / cm^3
# Si number density = 17.974177 Si / 1000 Ang^3
#
#
#
# Elastic Constant Matrix: (Units=GPa)
#
#
# Indices 1 2 3 4 5 6 
#
# 1 47.5337 36.9846 13.7394 0.0000 -8.4835 0.0000
# 2 36.9846 173.5358 41.9351 0.0000 -16.2111 0.0000
# 3 13.7394 41.9351 100.1870 0.0000 16.9358 0.0000
# 4 0.0000 0.0000 0.0000 29.3728 0.0000 2.9901
# 5 -8.4835 -16.2111 16.9358 0.0000 29.5545 0.0000
# 6 0.0000 0.0000 0.0000 2.9901 0.0000 -0.0463
#
#
#
# Elastic Compliance Matrix: (Units=1/GPa)
#
#
# Indices 1 2 3 4 5 6 
#
# 1 0.026475 -0.004255 -0.003034 0.000000 0.007004 0.000000
# 2 -0.004255 0.008056 -0.003686 0.000000 0.005310 0.000000
# 3 -0.003034 -0.003686 0.013762 0.000000 -0.010779 0.000000
# 4 0.000000 0.000000 0.000000 0.004492 0.000000 0.290313
# 5 0.007004 0.005310 -0.010779 0.000000 0.044936 0.000000
# 6 0.000000 0.000000 0.000000 0.290313 0.000000 -2.851861
#
#
# Mechanical properties :
#
#
# Convention : Reuss Voigt Hill
#
# Bulk Modulus (GPa) = 37.95915 56.28609 47.12262
# Shear Modulus (GPa) = -1.83593 27.01603 12.59005
#
# Velocity S-wave (km/s) = -1.01175 3.88112 2.64948
# Velocity P-wave (km/s) = 4.44969 7.17406 5.96937
#
# Compressibility (1/GPa) = 0.02634411
#
# Stress axis : x y z
#
# Youngs Moduli (GPa) = 37.77081 124.12893 72.66197
#
# Poissons Ratio (x) = 0.52819 0.22043
# Poissons Ratio (y) = 0.16072 0.26784
# Poissons Ratio (z) = 0.11458 0.45755
#
# Static dielectric constant tensor:
#      x y z
#    x 1.570990 0.000000 0.014080 
#    y 0.000000 1.713790 0.000000 
#    z 0.014080 0.000000 1.632710 
# 
# From -- ./inp_files/35182.got.cif
#   From: 2010.05.17/outbox.cif.g08.bks.cpg/sg15_18_cif.got.tgz:35182.got - 2010.06.03 18:47:42.
