data_PCOD9257107
_publ_section_title
;
Structure prediction by ZEFSAII (Michael W. Deem and Ramdas Pophale) SiO2 
 PCOD9257107
Probable space group: C 2/C
;
_chemical_formula_sum "Si O2"
_cell_formula_units_Z 64
_cell_length_a 24.715741
_cell_length_b 7.429127
_cell_length_c 18.857404
_cell_angle_alpha 90.000000
_cell_angle_beta 111.079215
_cell_angle_gamma 90.000000
_cell_volume 3230.829933
_symmetry_space_group_name_H-M "C 2/C"
_symmetry_group_IT_number 15
_symmetry_cell_setting 'monoclinic'
loop_
_space_group_symop_operation_xyz
x,y,z
-x,y,1/2-z
-x,-y,-z
x,-y,1/2+z
1/2+x,1/2+y,z
1/2-x,1/2+y,1/2-z
1/2-x,1/2-y,-z
1/2+x,1/2-y,1/2+z
loop_
_atom_site_type_symbol
_atom_site_label
_atom_site_fract_x
_atom_site_fract_y
_atom_site_fract_z
Si Si1 0.686000 0.727918 0.239099
Si Si2 0.481347 0.695116 0.816895
Si Si3 0.502133 0.837705 0.444354
Si Si4 0.315367 0.306024 0.295869
Si Si5 0.876629 0.456548 0.722840
Si Si6 0.580875 0.596984 0.575431
Si Si7 0.877502 0.286211 0.422375
Si Si8 0.586302 0.070987 0.414210
O O1 0.677982 0.512709 0.228202
O O2 0.750982 0.773229 0.293074
O O3 0.677057 0.803184 0.154384
O O4 0.639986 0.839935 0.263810
O O5 0.500000 0.612738 0.750000
O O6 0.437668 0.862849 0.777014
O O7 0.449606 0.575639 0.861369
O O8 0.539187 0.770971 0.880598
O O9 0.533144 0.677849 0.500980
O O10 0.434236 0.820061 0.399602
O O11 0.500000 0.000000 0.500000
O O12 0.544919 0.896664 0.402660
O O13 0.329277 0.168370 0.239362
O O14 0.365134 0.274089 0.378632
O O15 0.875924 0.439381 0.637954
O O16 0.610616 0.423239 0.555846
O O17 0.880759 0.396106 0.496354
#
# Coordination Sequence:
#
# PCOD9257107 Si02
#       8
#     8   8   8   8   8   8   8   8
#     4  11  21  38  62  84 104 148 198 235 281 334
#     4   9  17  31  53  79 113 150 180 226 285 332
#     4  10  18  30  54  79 110 148 183 214 277 340
#     4  10  22  37  62  82 106 146 197 237 278 331
#     4  10  21  38  58  80 118 146 185 240 280 331
#     4  10  19  34  53  84 112 146 191 232 273 341
#     4  10  21  33  56  84 114 147 189 231 281 336
#     4  10  20  34  53  84 114 151 180 223 290 334
#
# _framework density 19.809152000000001
#
# number of rings (size 3 to 8) (size 9 to 14) (size 15 to 20)
#    0.000    2.000    3.750    1.125    5.250    0.000 
#    2.250    3.125    0.000    3.750    0.000    0.000 
#    0.000    0.000    0.000    0.000    0.000    0.000 
#
# Total GULP energy -178244.526353 kJ/mol
# GULP energy per Si atom -5570.141449 kJ/mol
# Density = 1.976407 g / cm^3
# Si number density = 19.809152 Si / 1000 Ang^3
#
#
#
# Elastic Constant Matrix: (Units=GPa)
#
#
# Indices 1 2 3 4 5 6 
#
# 1 41.9772 -7.6615 10.1349 0.0000 4.0804 0.0000
# 2 -7.6615 44.8493 -1.2397 0.0000 -8.4204 0.0000
# 3 10.1349 -1.2397 62.3810 0.0000 -6.5020 0.0000
# 4 0.0000 0.0000 0.0000 18.0505 0.0000 -0.7757
# 5 4.0804 -8.4204 -6.5020 0.0000 25.1686 0.0000
# 6 0.0000 0.0000 0.0000 -0.7757 0.0000 24.2999
#
#
#
# Elastic Compliance Matrix: (Units=1/GPa)
#
#
# Indices 1 2 3 4 5 6 
#
# 1 0.025984 0.003519 -0.004592 0.000000 -0.004221 0.000000
# 2 0.003519 0.024377 0.000723 0.000000 0.007772 0.000000
# 3 -0.004592 0.000723 0.017361 0.000000 0.005471 0.000000
# 4 0.000000 0.000000 0.000000 0.055476 0.000000 0.001771
# 5 -0.004221 0.007772 0.005471 0.000000 0.044430 0.000000
# 6 0.000000 0.000000 0.000000 0.001771 0.000000 0.041209
#
#
# Mechanical properties :
#
#
# Convention : Reuss Voigt Hill
#
# Bulk Modulus (GPa) = 14.92027 16.85277 15.88652
# Shear Modulus (GPa) = 21.56312 23.36872 22.46592
#
# Velocity S-wave (km/s) = 3.30289 3.43839 3.37132
# Velocity P-wave (km/s) = 4.70040 4.92843 4.81577
#
# Compressibility (1/GPa) = 0.06702292
#
# Stress axis : x y z
#
# Youngs Moduli (GPa) = 38.48565 41.02197 57.59985
#
# Poissons Ratio (x) = -0.14437 0.26447
# Poissons Ratio (y) = -0.13544 -0.04163
# Poissons Ratio (z) = 0.17671 -0.02965
#
# Static dielectric constant tensor:
#      x y z
#    x 1.717280 0.000000 0.020810 
#    y 0.000000 1.781740 0.000000 
#    z 0.020810 0.000000 1.704330 
# 
# From -- ./inp_files/218280.got.cif
#   From: 2010.05.17/outbox.cif.g08.bks.cpg/sg15_110_cif.got.tgz:218280.got - 2010.06.03 18:47:42.
