data_PCOD9257240
_publ_section_title
;
Structure prediction by ZEFSAII (Michael W. Deem and Ramdas Pophale) SiO2 
 PCOD9257240
Probable space group: C 2/C
;
_chemical_formula_sum "Si O2"
_cell_formula_units_Z 48
_cell_length_a 9.667653
_cell_length_b 15.314945
_cell_length_c 13.557662
_cell_angle_alpha 90.000000
_cell_angle_beta 58.518162
_cell_angle_gamma 90.000000
_cell_volume 1711.872503
_symmetry_space_group_name_H-M "C 2/C"
_symmetry_group_IT_number 15
_symmetry_cell_setting 'monoclinic'
loop_
_space_group_symop_operation_xyz
x,y,z
-x,y,1/2-z
-x,-y,-z
x,-y,1/2+z
1/2+x,1/2+y,z
1/2-x,1/2+y,1/2-z
1/2-x,1/2-y,-z
1/2+x,1/2-y,1/2+z
loop_
_atom_site_type_symbol
_atom_site_label
_atom_site_fract_x
_atom_site_fract_y
_atom_site_fract_z
Si Si1 0.275840 0.388071 0.740851
Si Si2 0.202036 0.819544 0.267630
Si Si3 0.844562 0.159516 0.942167
Si Si4 0.949431 0.331586 0.400865
Si Si5 0.117326 0.125062 0.077172
Si Si6 0.533213 0.923330 0.563328
O O1 0.231826 0.285067 0.746906
O O2 0.331827 0.406691 0.832835
O O3 0.438175 0.410572 0.620013
O O4 0.100637 0.430988 0.802472
O O5 0.164914 0.853484 0.171899
O O6 0.384673 0.853703 0.217863
O O7 0.037744 0.837634 0.390526
O O8 0.716545 0.089015 0.030959
O O9 0.750000 0.250000 0.000000
O O10 0.911462 0.229551 0.398188
O O11 0.779464 0.382187 0.452277
O O12 0.991427 0.343286 0.502528
O O13 0.500000 0.000000 0.500000
#
# Coordination Sequence:
#
# PCOD9257240 Si02
#       6
#     8   8   8   8   8   8
#     4   9  15  27  45  73  95 124 167 209 259 300
#     4   9  17  28  48  73  98 121 169 221 254 295
#     4  10  18  31  48  73  98 131 174 219 255 299
#     4   8  15  28  42  67  98 122 163 210 258 296
#     4   8  14  25  46  68  94 119 166 217 250 285
#     4  10  19  30  46  72 106 133 162 209 268 319
#
# _framework density 28.039470000000001
#
# number of rings (size 3 to 8) (size 9 to 14) (size 15 to 20)
#    0.000    3.000    1.667    0.000    0.000    0.000 
#    0.000   13.333    0.000    0.000   26.000    1.167 
#    0.000    0.167    0.000    0.000    0.000    0.000 
#
# Total GULP energy -133985.890022 kJ/mol
# GULP energy per Si atom -5582.745418 kJ/mol
# Density = 2.797565 g / cm^3
# Si number density = 28.039470 Si / 1000 Ang^3
#
#
#
# Elastic Constant Matrix: (Units=GPa)
#
#
# Indices 1 2 3 4 5 6 
#
# 1 173.6917 15.7699 85.7175 0.0000 -65.5506 0.0000
# 2 15.7699 65.9522 17.1847 0.0000 -15.4083 0.0000
# 3 85.7175 17.1847 300.6825 0.0000 -94.0903 0.0000
# 4 0.0000 0.0000 0.0000 7.2993 0.0000 8.2088
# 5 -65.5506 -15.4083 -94.0903 0.0000 87.9213 0.0000
# 6 0.0000 0.0000 0.0000 8.2088 0.0000 15.0533
#
#
#
# Elastic Compliance Matrix: (Units=1/GPa)
#
#
# Indices 1 2 3 4 5 6 
#
# 1 0.008109 -0.000542 -0.000629 0.000000 0.005277 0.000000
# 2 -0.000542 0.015847 -0.000013 0.000000 0.002359 0.000000
# 3 -0.000629 -0.000013 0.005049 0.000000 0.004932 0.000000
# 4 0.000000 0.000000 0.000000 0.354233 0.000000 -0.193168
# 5 0.005277 0.002359 0.004932 0.000000 0.021000 0.000000
# 6 0.000000 0.000000 0.000000 -0.193168 0.000000 0.171767
#
#
# Mechanical properties :
#
#
# Convention : Reuss Voigt Hill
#
# Bulk Modulus (GPa) = 37.54305 86.40783 61.97544
# Shear Modulus (GPa) = 8.51424 50.16508 29.33966
#
# Velocity S-wave (km/s) = 1.74445 4.23435 3.23827
# Velocity P-wave (km/s) = 4.18042 7.40201 6.01106
#
# Compressibility (1/GPa) = 0.02663609
#
# Stress axis : x y z
#
# Youngs Moduli (GPa) = 123.32537 63.10486 198.04841
#
# Poissons Ratio (x) = 0.03420 0.12463
# Poissons Ratio (y) = 0.06685 0.00255
# Poissons Ratio (z) = 0.07761 0.00081
#
# Static dielectric constant tensor:
#      x y z
#    x 1.916970 0.000000 -0.224450 
#    y 0.000000 2.188050 0.000000 
#    z -0.224450 0.000000 2.118730 
# 
# From -- ./inp_files/239447.got.cif
#   From: 2010.05.17/outbox.cif.g08.bks.cpg/sg15_120_cif.got.tgz:239447.got - 2010.06.03 18:47:42.
