data_PCOD9257283
_publ_section_title
;
Structure prediction by ZEFSAII (Michael W. Deem and Ramdas Pophale) SiO2 
 PCOD9257283
Probable space group: C 2/C
;
_chemical_formula_sum "Si O2"
_cell_formula_units_Z 56
_cell_length_a 33.357209
_cell_length_b 17.939887
_cell_length_c 8.962290
_cell_angle_alpha 90.000000
_cell_angle_beta 32.388201
_cell_angle_gamma 90.000000
_cell_volume 2872.842854
_symmetry_space_group_name_H-M "C 2/C"
_symmetry_group_IT_number 15
_symmetry_cell_setting 'monoclinic'
loop_
_space_group_symop_operation_xyz
x,y,z
-x,y,1/2-z
-x,-y,-z
x,-y,1/2+z
1/2+x,1/2+y,z
1/2-x,1/2+y,1/2-z
1/2-x,1/2-y,-z
1/2+x,1/2-y,1/2+z
loop_
_atom_site_type_symbol
_atom_site_label
_atom_site_fract_x
_atom_site_fract_y
_atom_site_fract_z
Si Si1 0.309722 0.099148 0.483712
Si Si2 0.799184 0.684522 0.984831
Si Si3 0.424097 0.448025 0.403416
Si Si4 0.875274 0.083218 0.731662
Si Si5 0.799518 0.451988 0.680553
Si Si6 0.306891 0.653985 0.443460
Si Si7 0.183321 0.760805 0.087588
O O1 0.314629 0.064662 0.304614
O O2 0.349720 0.179628 0.344979
O O3 0.328624 0.031821 0.535343
O O4 0.225058 0.122449 0.800856
O O5 0.830060 0.614455 0.978773
O O6 0.768658 0.661732 0.919746
O O7 0.725278 0.709445 0.308847
O O8 0.841969 0.763262 0.846027
O O9 0.500000 0.429059 0.250000
O O10 0.404975 0.533383 0.503367
O O11 0.423256 0.431068 0.230611
O O12 0.359835 0.400360 0.687104
O O13 0.869903 0.170366 0.706592
O O14 0.791454 0.054246 0.040793
O O15 0.250000 0.750000 0.000000
#
# Coordination Sequence:
#
# PCOD9257283 Si02
#       7
#     8   8   8   8   8   8   8
#     4  11  20  29  50  77 105 137 168 212 274 336
#     4   9  18  30  50  73 101 135 173 217 285 320
#     4  12  24  38  53  74 106 154 200 224 255 306
#     4  11  22  37  51  71 106 144 189 230 262 311
#     4  11  18  31  49  75 106 136 170 209 275 334
#     4  10  19  32  49  73 101 138 180 228 262 319
#     4  10  18  31  50  75 100 135 177 219 279 331
#
# _framework density 19.492887
#
# number of rings (size 3 to 8) (size 9 to 14) (size 15 to 20)
#    0.000    1.429    7.143    2.143    0.000    0.000 
#    0.000    0.000    0.000    0.000    0.000    0.000 
#    0.000    2.286    0.000    0.000    0.000    0.000 
#
# Total GULP energy -156064.393696 kJ/mol
# GULP energy per Si atom -5573.728346 kJ/mol
# Density = 1.944852 g / cm^3
# Si number density = 19.492887 Si / 1000 Ang^3
#
#
#
# Elastic Constant Matrix: (Units=GPa)
#
#
# Indices 1 2 3 4 5 6 
#
# 1 68.0080 39.1322 14.6447 0.0000 19.9116 0.0000
# 2 39.1322 192.4317 25.8086 0.0000 20.4931 0.0000
# 3 14.6447 25.8086 15.3781 0.0000 11.6632 0.0000
# 4 0.0000 0.0000 0.0000 9.9646 0.0000 12.6978
# 5 19.9116 20.4931 11.6632 0.0000 19.7263 0.0000
# 6 0.0000 0.0000 0.0000 12.6978 0.0000 29.0024
#
#
#
# Elastic Compliance Matrix: (Units=1/GPa)
#
#
# Indices 1 2 3 4 5 6 
#
# 1 0.021902 -0.002030 -0.004139 0.000000 -0.017552 0.000000
# 2 -0.002030 0.006898 -0.010447 0.000000 0.001060 0.000000
# 3 -0.004139 -0.010447 0.136158 0.000000 -0.065472 0.000000
# 4 0.000000 0.000000 0.000000 0.227000 0.000000 -0.099385
# 5 -0.017552 0.001060 -0.065472 0.000000 0.106020 0.000000
# 6 0.000000 0.000000 0.000000 -0.099385 0.000000 0.077992
#
#
# Mechanical properties :
#
#
# Convention : Reuss Voigt Hill
#
# Bulk Modulus (GPa) = 7.59152 48.33208 27.96180
# Shear Modulus (GPa) = 7.65567 24.82083 16.23825
#
# Velocity S-wave (km/s) = 1.98392 3.57224 2.88936
# Velocity P-wave (km/s) = 3.02504 6.47017 5.05045
#
# Compressibility (1/GPa) = 0.13172596
#
# Stress axis : x y z
#
# Youngs Moduli (GPa) = 45.65724 144.97666 7.34440
#
# Poissons Ratio (x) = 0.29424 0.03040
# Poissons Ratio (y) = 0.09266 0.07673
# Poissons Ratio (z) = 0.18900 1.51458
#
# Static dielectric constant tensor:
#      x y z
#    x 1.730720 0.000000 0.030490 
#    y 0.000000 1.808100 0.000000 
#    z 0.030490 0.000000 1.661290 
# 
# From -- ./inp_files/70470.got.cif
#   From: 2010.05.17/outbox.cif.g08.bks.cpg/sg15_36_cif.got.tgz:70470.got - 2010.06.03 18:47:42.
