data_PCOD9257650
_publ_section_title
;
Structure prediction by ZEFSAII (Michael W. Deem and Ramdas Pophale) SiO2 
 PCOD9257650
Probable space group: C 2/C
;
_chemical_formula_sum "Si O2"
_cell_formula_units_Z 56
_cell_length_a 9.415350
_cell_length_b 12.417336
_cell_length_c 19.672125
_cell_angle_alpha 90.000000
_cell_angle_beta 123.490882
_cell_angle_gamma 90.000000
_cell_volume 1918.087893
_symmetry_space_group_name_H-M "C 2/C"
_symmetry_group_IT_number 15
_symmetry_cell_setting 'monoclinic'
loop_
_space_group_symop_operation_xyz
x,y,z
-x,y,1/2-z
-x,-y,-z
x,-y,1/2+z
1/2+x,1/2+y,z
1/2-x,1/2+y,1/2-z
1/2-x,1/2-y,-z
1/2+x,1/2-y,1/2+z
loop_
_atom_site_type_symbol
_atom_site_label
_atom_site_fract_x
_atom_site_fract_y
_atom_site_fract_z
Si Si1 0.500000 0.654068 0.250000
Si Si2 0.500000 0.702892 0.750000
Si Si3 0.834518 0.431466 0.005415
Si Si4 0.105918 0.199013 0.629325
Si Si5 0.761859 0.010884 0.655993
Si Si6 0.298201 0.972863 0.707927
Si Si7 0.360118 0.595193 0.463560
Si Si8 0.586035 0.259442 0.890448
O O1 0.577062 0.564282 0.321268
O O2 0.560736 0.731218 0.205251
O O3 0.552168 0.747995 0.688692
O O4 0.341284 0.627032 0.685459
O O5 0.859274 0.476874 0.936363
O O6 0.663857 0.350622 0.960692
O O7 0.794996 0.535347 0.039662
O O8 0.953736 0.347826 0.076850
O O9 0.253645 0.250926 0.621517
O O10 0.943134 0.184043 0.535472
O O11 0.189386 0.081495 0.665399
O O12 0.715185 0.959539 0.715102
O O13 0.500000 0.985493 0.750000
O O14 0.213874 0.887476 0.632254
O O15 0.500000 0.500000 0.500000
#
# Coordination Sequence:
#
# PCOD9257650 Si02
#       8
#     4   4   8   8   8   8   8   8
#     4   9  20  32  54  82 108 143 192 234 280 341
#     4   9  16  30  56  78 106 141 196 234 276 337
#     4  10  18  32  50  80 108 143 189 234 275 346
#     4  10  19  32  56  82 113 149 188 241 289 343
#     4   9  18  33  55  77 107 146 193 233 279 343
#     4  10  21  33  53  80 113 145 183 237 296 339
#     4  10  18  32  54  79 113 146 188 236 288 348
#     4  10  20  29  53  81 116 142 183 237 290 335
#
# _framework density 29.195741999999999
#
# number of rings (size 3 to 8) (size 9 to 14) (size 15 to 20)
#    0.000    2.286    4.286    0.000    7.000    0.000 
#    0.000    0.714    9.429    0.000    0.000    5.000 
#    0.000    0.000    0.000    0.000    0.000    0.000 
#
# Total GULP energy -156196.117676 kJ/mol
# GULP energy per Si atom -5578.432774 kJ/mol
# Density = 2.912929 g / cm^3
# Si number density = 29.195742 Si / 1000 Ang^3
#
#
#
# Elastic Constant Matrix: (Units=GPa)
#
#
# Indices 1 2 3 4 5 6 
#
# 1 126.2779 19.5840 66.5384 0.0000 -24.9770 0.0000
# 2 19.5840 78.9939 19.7825 0.0000 -17.3921 0.0000
# 3 66.5384 19.7825 200.7465 0.0000 -26.2649 0.0000
# 4 0.0000 0.0000 0.0000 39.7627 0.0000 -7.9547
# 5 -24.9770 -17.3921 -26.2649 0.0000 72.7224 0.0000
# 6 0.0000 0.0000 0.0000 -7.9547 0.0000 39.1343
#
#
#
# Elastic Compliance Matrix: (Units=1/GPa)
#
#
# Indices 1 2 3 4 5 6 
#
# 1 0.010084 -0.001304 -0.002941 0.000000 0.002090 0.000000
# 2 -0.001304 0.013704 -0.000575 0.000000 0.002622 0.000000
# 3 -0.002941 -0.000575 0.006153 0.000000 0.001075 0.000000
# 4 0.000000 0.000000 0.000000 0.026215 0.000000 0.005329
# 5 0.002090 0.002622 0.001075 0.000000 0.015484 0.000000
# 6 0.000000 0.000000 0.000000 0.005329 0.000000 0.026636
#
#
# Mechanical properties :
#
#
# Convention : Reuss Voigt Hill
#
# Bulk Modulus (GPa) = 49.25554 68.64758 58.95156
# Shear Modulus (GPa) = 43.59864 50.33143 46.96504
#
# Velocity S-wave (km/s) = 3.86854 4.15653 4.01512
# Velocity P-wave (km/s) = 6.07138 6.82639 6.45992
#
# Compressibility (1/GPa) = 0.02030228
#
# Stress axis : x y z
#
# Youngs Moduli (GPa) = 99.16763 72.97294 162.51223
#
# Poissons Ratio (x) = 0.09512 0.47787
# Poissons Ratio (y) = 0.12927 0.09350
# Poissons Ratio (z) = 0.29160 0.04198
#
# Static dielectric constant tensor:
#      x y z
#    x 0.771180 0.000000 -1.510200 
#    y 0.000000 2.431130 0.000000 
#    z -1.510200 0.000000 0.856390 
# 
# From -- ./inp_files/239639.got.cif
#   From: 2010.05.17/outbox.cif.g08.bks.cpg/sg15_120_cif.got.tgz:239639.got - 2010.06.03 18:47:42.
