data_PCOD9257247
_publ_section_title
;
Structure prediction by ZEFSAII (Michael W. Deem and Ramdas Pophale) SiO2 
 PCOD9257247
Probable space group: C 2/C
;
_chemical_formula_sum "Si O2"
_cell_formula_units_Z 56
_cell_length_a 18.186440
_cell_length_b 5.961426
_cell_length_c 21.405036
_cell_angle_alpha 90.000000
_cell_angle_beta 111.031135
_cell_angle_gamma 90.000000
_cell_volume 2166.081966
_symmetry_space_group_name_H-M "C 2/C"
_symmetry_group_IT_number 15
_symmetry_cell_setting 'monoclinic'
loop_
_space_group_symop_operation_xyz
x,y,z
-x,y,1/2-z
-x,-y,-z
x,-y,1/2+z
1/2+x,1/2+y,z
1/2-x,1/2+y,1/2-z
1/2-x,1/2-y,-z
1/2+x,1/2-y,1/2+z
loop_
_atom_site_type_symbol
_atom_site_label
_atom_site_fract_x
_atom_site_fract_y
_atom_site_fract_z
Si Si1 0.621360 0.515229 0.544950
Si Si2 0.901773 0.633800 0.563109
Si Si3 0.828921 0.512335 0.275473
Si Si4 0.011574 0.234641 0.918134
Si Si5 0.410069 0.516856 0.664326
Si Si6 0.642376 0.484148 0.717501
Si Si7 0.705101 0.121231 0.376369
O O1 0.630024 0.742033 0.507496
O O2 0.556005 0.572903 0.576735
O O3 0.585076 0.344475 0.484023
O O4 0.702992 0.430247 0.596756
O O5 0.981675 0.499616 0.571045
O O6 0.832992 0.490958 0.574456
O O7 0.922273 0.806091 0.624301
O O8 0.736058 0.515386 0.263529
O O9 0.864865 0.275347 0.309366
O O10 0.830871 0.525802 0.199808
O O11 0.863358 0.752900 0.308140
O O12 0.033822 0.196448 0.852517
O O13 0.413003 0.478603 0.738291
O O14 0.322285 0.621461 0.628247
#
# Coordination Sequence:
#
# PCOD9257247 Si02
#       7
#     8   8   8   8   8   8   8
#     4  10  20  33  47  67 100 133 174 210 259 309
#     4  10  18  31  49  69  96 130 169 212 260 305
#     4   9  17  29  49  76 106 130 163 209 265 312
#     4   9  20  34  47  66  95 137 176 208 252 317
#     4   9  18  31  49  71  99 126 167 213 258 316
#     4   9  16  30  50  75 104 133 161 209 262 314
#     4  10  19  30  47  74 101 127 166 218 266 305
#
# _framework density 25.853131000000001
#
# number of rings (size 3 to 8) (size 9 to 14) (size 15 to 20)
#    0.000    2.571    1.429    0.857    0.000    6.286 
#    0.000    0.000    0.000    0.857    0.000    0.000 
#    0.000    0.000    0.000    0.000    0.000    0.000 
#
# Total GULP energy -156294.004289 kJ/mol
# GULP energy per Si atom -5581.928725 kJ/mol
# Density = 2.579429 g / cm^3
# Si number density = 25.853131 Si / 1000 Ang^3
#
#
#
# Elastic Constant Matrix: (Units=GPa)
#
#
# Indices 1 2 3 4 5 6 
#
# 1 99.8608 33.4965 8.9239 0.0000 -14.4161 0.0000
# 2 33.4965 166.4313 28.3381 0.0000 6.4076 -0.0001
# 3 8.9239 28.3381 46.2566 0.0000 -3.5899 0.0000
# 4 0.0000 0.0000 0.0000 15.7523 0.0000 -14.5033
# 5 -14.4161 6.4076 -3.5899 0.0000 47.2525 0.0000
# 6 0.0000 -0.0001 0.0000 -14.5033 0.0000 40.1445
#
#
#
# Elastic Compliance Matrix: (Units=1/GPa)
#
#
# Indices 1 2 3 4 5 6 
#
# 1 0.011389 -0.002359 -0.000461 0.000000 0.003759 0.000000
# 2 -0.002359 0.007268 -0.004155 0.000000 -0.002021 0.000000
# 3 -0.000461 -0.004155 0.024429 0.000000 0.002279 0.000000
# 4 0.000000 0.000000 0.000000 0.095124 0.000000 0.034366
# 5 0.003759 -0.002021 0.002279 0.000000 0.022757 0.000000
# 6 0.000000 0.000000 0.000000 0.034366 0.000000 0.037326
#
#
# Mechanical properties :
#
#
# Convention : Reuss Voigt Hill
#
# Bulk Modulus (GPa) = 34.31771 50.45174 42.38473
# Shear Modulus (GPa) = 22.52719 36.74920 29.63820
#
# Velocity S-wave (km/s) = 2.95507 3.77432 3.38954
# Velocity P-wave (km/s) = 4.99461 6.20895 5.63459
#
# Compressibility (1/GPa) = 0.02913947
#
# Stress axis : x y z
#
# Youngs Moduli (GPa) = 87.80453 137.58235 40.93415
#
# Poissons Ratio (x) = 0.32449 0.01885
# Poissons Ratio (y) = 0.20709 0.17007
# Poissons Ratio (z) = 0.04044 0.57160
#
# Static dielectric constant tensor:
#      x y z
#    x 2.072380 0.000000 0.014960 
#    y 0.000000 2.132940 0.000000 
#    z 0.014960 0.000000 2.064230 
# 
# From -- ./inp_files/278987.got.cif
#   From: 2010.05.17/outbox.cif.g08.bks.cpg/sg15_140_cif.got.tgz:278987.got - 2010.06.03 18:47:42.
