data_PCOD9257267
_publ_section_title
;
Structure prediction by ZEFSAII (Michael W. Deem and Ramdas Pophale) SiO2 
 PCOD9257267
Probable space group: C 2/C
;
_chemical_formula_sum "Si O2"
_cell_formula_units_Z 56
_cell_length_a 21.627955
_cell_length_b 7.857628
_cell_length_c 14.292073
_cell_angle_alpha 90.000000
_cell_angle_beta 118.065627
_cell_angle_gamma 90.000000
_cell_volume 2143.246944
_symmetry_space_group_name_H-M "C 2/C"
_symmetry_group_IT_number 15
_symmetry_cell_setting 'monoclinic'
loop_
_space_group_symop_operation_xyz
x,y,z
-x,y,1/2-z
-x,-y,-z
x,-y,1/2+z
1/2+x,1/2+y,z
1/2-x,1/2+y,1/2-z
1/2-x,1/2-y,-z
1/2+x,1/2-y,1/2+z
loop_
_atom_site_type_symbol
_atom_site_label
_atom_site_fract_x
_atom_site_fract_y
_atom_site_fract_z
Si Si1 0.575895 0.205051 0.812870
Si Si2 0.728145 0.721019 0.375729
Si Si3 0.665390 0.498364 0.091473
Si Si4 0.200636 0.114826 0.913488
Si Si5 0.066931 0.711052 0.025158
Si Si6 0.903716 0.338064 0.445081
Si Si7 0.924346 0.681148 0.183472
O O1 0.500000 0.290207 0.750000
O O2 0.644233 0.272040 0.811087
O O3 0.588494 0.201604 0.932074
O O4 0.569961 0.009901 0.774413
O O5 0.750000 0.750000 0.500000
O O6 0.767627 0.871898 0.349098
O O7 0.742015 0.518361 0.377947
O O8 0.664213 0.523493 0.977194
O O9 0.601079 0.385758 0.082498
O O10 0.653624 0.691713 0.118856
O O11 0.139508 0.216045 0.818465
O O12 0.250000 0.250000 0.000000
O O13 0.983053 0.713808 0.972145
O O14 0.099170 0.535490 0.088569
O O15 0.908196 0.337421 0.561755
O O16 0.000000 0.764444 0.250000
#
# Coordination Sequence:
#
# PCOD9257267 Si02
#       7
#     8   8   8   8   8   8   8
#     4  10  19  33  52  80 110 138 171 225 281 319
#     4  10  18  31  49  79 105 136 179 226 265 324
#     4  10  19  31  52  76 107 138 179 219 267 311
#     4  10  19  29  49  77 107 137 170 222 272 313
#     4  10  18  35  52  80 110 139 185 216 263 332
#     4   9  20  32  53  80 107 146 175 224 265 316
#     4   9  18  32  50  78 107 133 172 219 270 318
#
# _framework density 26.128579999999999
#
# number of rings (size 3 to 8) (size 9 to 14) (size 15 to 20)
#    0.000    2.286    2.857    2.143    4.000    0.571 
#    0.000    0.000    0.000    0.000   22.286    0.000 
#    0.000    0.000    0.000    0.000    0.000    0.000 
#
# Total GULP energy -156273.006204 kJ/mol
# GULP energy per Si atom -5581.178793 kJ/mol
# Density = 2.606911 g / cm^3
# Si number density = 26.128580 Si / 1000 Ang^3
#
#
#
# Elastic Constant Matrix: (Units=GPa)
#
#
# Indices 1 2 3 4 5 6 
#
# 1 77.7811 31.0910 23.9911 0.0000 12.3203 0.0000
# 2 31.0910 166.4572 18.3768 0.0000 23.7262 0.0000
# 3 23.9911 18.3768 58.0489 0.0000 -2.7870 0.0000
# 4 0.0000 0.0000 0.0000 11.4614 0.0000 20.4885
# 5 12.3203 23.7262 -2.7870 0.0000 58.2727 0.0000
# 6 0.0000 0.0000 0.0000 20.4885 0.0000 41.0273
#
#
#
# Elastic Compliance Matrix: (Units=1/GPa)
#
#
# Indices 1 2 3 4 5 6 
#
# 1 0.015965 -0.001891 -0.006139 0.000000 -0.002899 0.000000
# 2 -0.001891 0.006881 -0.001516 0.000000 -0.002474 0.000000
# 3 -0.006139 -0.001516 0.020382 0.000000 0.002890 0.000000
# 4 0.000000 0.000000 0.000000 0.813184 0.000000 -0.406094
# 5 -0.002899 -0.002474 0.002890 0.000000 0.018919 0.000000
# 6 0.000000 0.000000 0.000000 -0.406094 0.000000 0.227172
#
#
# Mechanical properties :
#
#
# Convention : Reuss Voigt Hill
#
# Bulk Modulus (GPa) = 41.42898 49.91167 45.67033
# Shear Modulus (GPa) = 4.42619 37.40748 20.91684
#
# Velocity S-wave (km/s) = 1.30295 3.78785 2.83244
# Velocity P-wave (km/s) = 4.26073 6.18661 5.31168
#
# Compressibility (1/GPa) = 0.02413769
#
# Stress axis : x y z
#
# Youngs Moduli (GPa) = 62.63628 145.33325 49.06174
#
# Poissons Ratio (x) = 0.27483 0.30118
# Poissons Ratio (y) = 0.11845 0.07435
# Poissons Ratio (z) = 0.38451 0.22025
#
# Static dielectric constant tensor:
#      x y z
#    x 2.082940 0.000000 0.001650 
#    y 0.000000 2.166350 0.000000 
#    z 0.001650 0.000000 2.079040 
# 
# From -- ./inp_files/251640.got.cif
#   From: 2010.05.17/outbox.cif.g08.bks.cpg/sg15_126_cif.got.tgz:251640.got - 2010.06.03 18:47:42.
