data_PCOD9257265
_publ_section_title
;
Structure prediction by ZEFSAII (Michael W. Deem and Ramdas Pophale) SiO2 
 PCOD9257265
Probable space group: C 2/C
;
_chemical_formula_sum "Si O2"
_cell_formula_units_Z 44
_cell_length_a 14.384574
_cell_length_b 12.831239
_cell_length_c 22.387111
_cell_angle_alpha 90.000000
_cell_angle_beta 155.474057
_cell_angle_gamma 90.000000
_cell_volume 1715.227965
_symmetry_space_group_name_H-M "C 2/C"
_symmetry_group_IT_number 15
_symmetry_cell_setting 'monoclinic'
loop_
_space_group_symop_operation_xyz
x,y,z
-x,y,1/2-z
-x,-y,-z
x,-y,1/2+z
1/2+x,1/2+y,z
1/2-x,1/2+y,1/2-z
1/2-x,1/2-y,-z
1/2+x,1/2-y,1/2+z
loop_
_atom_site_type_symbol
_atom_site_label
_atom_site_fract_x
_atom_site_fract_y
_atom_site_fract_z
Si Si1 0.652382 0.625752 0.679270
Si Si2 0.373644 0.144475 0.487704
Si Si3 0.500000 0.084587 0.250000
Si Si4 0.864347 0.375617 0.847076
Si Si5 0.066101 0.865619 0.566628
Si Si6 0.236501 0.017614 0.983930
O O1 0.895779 0.605665 0.847606
O O2 0.670046 0.413378 0.688008
O O3 0.595481 0.586715 0.578747
O O4 0.474083 0.587478 0.623101
O O5 0.328609 0.102016 0.395465
O O6 0.423280 0.266401 0.506712
O O7 0.198274 0.095242 0.431563
O O8 0.699692 0.150653 0.334576
O O9 0.376541 0.015104 0.127898
O O10 0.867521 0.250871 0.839724
O O11 0.105857 0.417364 0.968650
#
# Coordination Sequence:
#
# PCOD9257265 Si02
#       6
#     8   8   4   8   8   8
#     4   9  18  32  52  77 105 144 182 215 266 330
#     4  10  19  29  50  82 109 137 177 227 273 312
#     4   8  16  32  52  72 102 140 174 216 264 316
#     4   9  17  31  50  77 110 138 172 223 276 324
#     4   8  16  32  52  76 105 138 177 218 265 326
#     4  10  18  31  49  77 112 140 174 229 273 310
#
# _framework density 25.652566
#
# number of rings (size 3 to 8) (size 9 to 14) (size 15 to 20)
#    0.000    2.909    0.000    1.091    0.000    5.091 
#    0.000    8.182    0.000    4.364    0.000   45.818 
#    0.000    0.000    0.000    0.000    0.000    0.000 
#
# Total GULP energy -122961.598272 kJ/mol
# GULP energy per Si atom -5589.163558 kJ/mol
# Density = 2.559418 g / cm^3
# Si number density = 25.652566 Si / 1000 Ang^3
#
#
#
# Elastic Constant Matrix: (Units=GPa)
#
#
# Indices 1 2 3 4 5 6 
#
# 1 125.2826 50.5542 57.0367 0.0023 -20.4078 0.0005
# 2 50.5542 90.0329 35.6430 -0.0024 -10.9938 0.0014
# 3 57.0367 35.6430 140.0875 -0.0129 -22.1417 0.0036
# 4 0.0023 -0.0024 -0.0129 38.4942 0.0020 -15.9437
# 5 -20.4078 -10.9938 -22.1417 0.0020 38.2566 0.0019
# 6 0.0005 0.0014 0.0036 -15.9437 0.0019 53.5888
#
#
#
# Elastic Compliance Matrix: (Units=1/GPa)
#
#
# Indices 1 2 3 4 5 6 
#
# 1 0.011953 -0.005114 -0.003071 -0.000002 0.003129 -0.000001
# 2 -0.005114 0.014666 -0.001557 0.000001 0.000586 0.000000
# 3 -0.003071 -0.001557 0.009307 0.000003 0.003301 0.000000
# 4 -0.000002 0.000001 0.000003 0.029629 -0.000001 0.008815
# 5 0.003129 0.000586 0.003301 -0.000001 0.029887 -0.000002
# 6 -0.000001 0.000000 0.000000 0.008815 -0.000002 0.021283
#
#
# Mechanical properties :
#
#
# Convention : Reuss Voigt Hill
#
# Bulk Modulus (GPa) = 60.81775 71.31896 66.06835
# Shear Modulus (GPa) = 35.28802 40.21253 37.75027
#
# Velocity S-wave (km/s) = 3.71295 3.96357 3.84030
# Velocity P-wave (km/s) = 6.49161 6.98632 6.74351
#
# Compressibility (1/GPa) = 0.01644257
#
# Stress axis : x y z
#
# Youngs Moduli (GPa) = 83.65751 68.18260 107.45055
#
# Poissons Ratio (x) = 0.34869 0.32999
# Poissons Ratio (y) = 0.42783 0.16729
# Poissons Ratio (z) = 0.25692 0.10615
#
# Static dielectric constant tensor:
#      x y z
#    x 1.971680 0.000000 0.004480 
#    y 0.000000 2.162430 0.000000 
#    z 0.004480 0.000000 2.004160 
# 
# From -- ./inp_files/168414.got.cif
#   From: 2010.05.17/outbox.cif.g08.bks.cpg/sg15_85_cif.got.tgz:168414.got - 2010.06.03 18:47:42.
