data_PCOD9257182
_publ_section_title
;
Structure prediction by ZEFSAII (Michael W. Deem and Ramdas Pophale) SiO2 
 PCOD9257182
Probable space group: C 2/C
;
_chemical_formula_sum "Si O2"
_cell_formula_units_Z 48
_cell_length_a 25.369925
_cell_length_b 12.575287
_cell_length_c 18.512583
_cell_angle_alpha 90.000000
_cell_angle_beta 160.386466
_cell_angle_gamma 90.000000
_cell_volume 1982.539839
_symmetry_space_group_name_H-M "C 2/C"
_symmetry_group_IT_number 15
_symmetry_cell_setting 'monoclinic'
loop_
_space_group_symop_operation_xyz
x,y,z
-x,y,1/2-z
-x,-y,-z
x,-y,1/2+z
1/2+x,1/2+y,z
1/2-x,1/2+y,1/2-z
1/2-x,1/2-y,-z
1/2+x,1/2-y,1/2+z
loop_
_atom_site_type_symbol
_atom_site_label
_atom_site_fract_x
_atom_site_fract_y
_atom_site_fract_z
Si Si1 0.360133 0.024357 0.260776
Si Si2 0.436086 0.124843 0.095187
Si Si3 0.290639 0.439870 0.664368
Si Si4 0.210259 0.209254 0.694975
Si Si5 0.906079 0.970590 0.974359
Si Si6 0.623996 0.209147 0.737531
O O1 0.210304 0.064891 0.112698
O O2 0.320338 0.909935 0.171559
O O3 0.500000 0.000000 0.500000
O O4 0.431661 0.102448 0.293973
O O5 0.500000 0.174514 0.250000
O O6 0.299471 0.196602 0.884813
O O7 0.365509 0.007712 0.024158
O O8 0.360755 0.426520 0.836906
O O9 0.294001 0.321556 0.632825
O O10 0.407676 0.523295 0.775212
O O11 0.132121 0.094943 0.582374
O O12 0.339785 0.214177 0.800664
O O13 0.063332 0.286134 0.493235
#
# Coordination Sequence:
#
# PCOD9257182 Si02
#       6
#     8   8   8   8   8   8
#     4  11  18  34  54  81 103 135 177 216 260 302
#     4  11  22  37  52  73 113 149 169 202 267 328
#     4   9  16  31  52  81 103 130 171 218 264 295
#     4   9  18  31  50  81 105 133 169 217 262 301
#     4   8  16  29  52  78 104 128 172 222 254 301
#     4  10  18  30  58  83 101 123 179 233 251 291
#
# _framework density 24.211368
#
# number of rings (size 3 to 8) (size 9 to 14) (size 15 to 20)
#    0.000    2.333    5.000    2.000    0.000    0.000 
#    0.000    2.500    0.000    0.000    0.000    0.000 
#    0.000    0.000    0.000    0.000    0.000    0.000 
#
# Total GULP energy -133811.233511 kJ/mol
# GULP energy per Si atom -5575.468063 kJ/mol
# Density = 2.415626 g / cm^3
# Si number density = 24.211368 Si / 1000 Ang^3
#
#
#
# Elastic Constant Matrix: (Units=GPa)
#
#
# Indices 1 2 3 4 5 6 
#
# 1 89.8896 -13.5347 41.1248 0.0000 33.2129 0.0000
# 2 -13.5347 78.6745 -9.2947 0.0000 14.0262 0.0000
# 3 41.1248 -9.2947 29.1635 0.0000 23.2012 0.0000
# 4 0.0000 0.0000 0.0000 11.8341 0.0000 4.1929
# 5 33.2129 14.0262 23.2012 0.0000 43.0993 0.0000
# 6 0.0000 0.0000 0.0000 4.1929 0.0000 17.1762
#
#
#
# Elastic Compliance Matrix: (Units=1/GPa)
#
#
# Indices 1 2 3 4 5 6 
#
# 1 0.031373 0.000472 -0.043261 0.000000 -0.001041 0.000000
# 2 0.000472 0.017523 0.017045 0.000000 -0.015242 0.000000
# 3 -0.043261 0.017045 0.137507 0.000000 -0.046232 0.000000
# 4 0.000000 0.000000 0.000000 0.092502 0.000000 -0.022581
# 5 -0.001041 -0.015242 -0.046232 0.000000 0.053853 0.000000
# 6 0.000000 0.000000 0.000000 -0.022581 0.000000 0.063732
#
#
# Mechanical properties :
#
#
# Convention : Reuss Voigt Hill
#
# Bulk Modulus (GPa) = 7.41209 26.03537 16.72373
# Shear Modulus (GPa) = 10.14301 26.38407 18.26354
#
# Velocity S-wave (km/s) = 2.04901 3.30470 2.74950
# Velocity P-wave (km/s) = 2.94381 5.03370 4.12335
#
# Compressibility (1/GPa) = 0.13491464
#
# Stress axis : x y z
#
# Youngs Moduli (GPa) = 31.87468 57.06816 7.27233
#
# Poissons Ratio (x) = -0.02693 0.31461
# Poissons Ratio (y) = -0.01504 -0.12396
# Poissons Ratio (z) = 1.37895 -0.97274
#
# Static dielectric constant tensor:
#      x y z
#    x 1.947440 0.000000 0.013980 
#    y 0.000000 2.092890 0.000000 
#    z 0.013980 0.000000 2.005130 
# 
# From -- ./inp_files/248950.got.cif
#   From: 2010.05.17/outbox.cif.g08.bks.cpg/sg15_125_cif.got.tgz:248950.got - 2010.06.03 18:47:42.
