data_PCOD9257837
_publ_section_title
;
Structure prediction by ZEFSAII (Michael W. Deem and Ramdas Pophale) SiO2 
 PCOD9257837
Probable space group: C 2/C
;
_chemical_formula_sum "Si O2"
_cell_formula_units_Z 64
_cell_length_a 27.811678
_cell_length_b 19.752413
_cell_length_c 11.946733
_cell_angle_alpha 90.000000
_cell_angle_beta 146.926052
_cell_angle_gamma 90.000000
_cell_volume 3581.518293
_symmetry_space_group_name_H-M "C 2/C"
_symmetry_group_IT_number 15
_symmetry_cell_setting 'monoclinic'
loop_
_space_group_symop_operation_xyz
x,y,z
-x,y,1/2-z
-x,-y,-z
x,-y,1/2+z
1/2+x,1/2+y,z
1/2-x,1/2+y,1/2-z
1/2-x,1/2-y,-z
1/2+x,1/2-y,1/2+z
loop_
_atom_site_type_symbol
_atom_site_label
_atom_site_fract_x
_atom_site_fract_y
_atom_site_fract_z
Si Si1 0.312607 0.376097 0.291409
Si Si2 0.104385 0.007461 0.951065
Si Si3 0.949431 0.240519 0.038357
Si Si4 0.231034 0.268730 0.269348
Si Si5 0.722038 0.586803 0.363536
Si Si6 0.184613 0.646422 0.156351
Si Si7 0.625367 0.279418 0.760816
Si Si8 0.734863 0.457859 0.519842
O O1 0.367033 0.429791 0.471561
O O2 0.374930 0.315188 0.373348
O O3 0.238528 0.338936 0.220046
O O4 0.276320 0.414789 0.113906
O O5 0.143963 0.032905 0.911098
O O6 0.000000 0.014939 0.750000
O O7 0.155146 0.048821 0.147614
O O8 0.000000 0.220663 0.250000
O O9 0.023972 0.233594 0.089718
O O10 0.901586 0.312144 0.972025
O O11 0.238835 0.205098 0.199780
O O12 0.318478 0.261158 0.518571
O O13 0.153777 0.263303 0.207805
O O14 0.801595 0.615360 0.441461
O O15 0.663802 0.646141 0.305720
O O16 0.757914 0.533422 0.523805
O O17 0.203398 0.584837 0.276998
#
# Coordination Sequence:
#
# PCOD9257837 Si02
#       8
#     8   8   8   8   8   8   8   8
#     4  10  20  32  52  78 106 139 178 214 260 319
#     4  10  21  32  46  78 113 139 170 216 260 316
#     4  11  20  32  54  82 106 133 174 234 262 301
#     4   9  18  32  52  76 104 134 173 224 256 314
#     4   9  20  34  53  75 107 142 179 210 255 327
#     4   9  19  37  51  77 108 134 180 216 265 314
#     4  10  18  32  54  81  99 135 176 217 273 296
#     4  10  21  34  53  74 105 153 172 207 263 322
#
# _framework density 17.869516000000001
#
# number of rings (size 3 to 8) (size 9 to 14) (size 15 to 20)
#    0.000    2.250    2.500    1.125    3.500    3.000 
#    0.000    0.000    0.000    0.750    0.000    0.000 
#    0.000    0.000    0.000    0.000    0.000    0.000 
#
# Total GULP energy -178161.471582 kJ/mol
# GULP energy per Si atom -5567.545987 kJ/mol
# Density = 1.782884 g / cm^3
# Si number density = 17.869516 Si / 1000 Ang^3
#
#
#
# Elastic Constant Matrix: (Units=GPa)
#
#
# Indices 1 2 3 4 5 6 
#
# 1 126.0213 60.0460 17.6001 0.0000 8.0347 0.0000
# 2 60.0460 106.3512 19.9647 0.0000 1.0469 0.0000
# 3 17.6001 19.9647 8.7259 0.0000 -2.8206 0.0000
# 4 0.0000 0.0000 0.0000 20.3115 0.0000 -10.7463
# 5 8.0347 1.0469 -2.8206 0.0000 21.8994 0.0000
# 6 0.0000 0.0000 0.0000 -10.7463 0.0000 33.7430
#
#
#
# Elastic Compliance Matrix: (Units=1/GPa)
#
#
# Indices 1 2 3 4 5 6 
#
# 1 0.012864 -0.003299 -0.020737 0.000000 -0.007233 0.000000
# 2 -0.003299 0.018090 -0.036127 0.000000 -0.004307 0.000000
# 3 -0.020737 -0.036127 0.252618 0.000000 0.041872 0.000000
# 4 0.000000 0.000000 0.000000 0.059210 0.000000 0.018857
# 5 -0.007233 -0.004307 0.041872 0.000000 0.053916 0.000000
# 6 0.000000 0.000000 0.000000 0.018857 0.000000 0.035641
#
#
# Mechanical properties :
#
#
# Convention : Reuss Voigt Hill
#
# Bulk Modulus (GPa) = 6.12570 48.48000 27.30285
# Shear Modulus (GPa) = 8.23614 24.75662 16.49638
#
# Velocity S-wave (km/s) = 2.14920 3.72615 3.04165
# Velocity P-wave (km/s) = 3.09745 6.76026 5.25811
#
# Compressibility (1/GPa) = 0.16324664
#
# Stress axis : x y z
#
# Youngs Moduli (GPa) = 77.73367 55.27965 3.95855
#
# Poissons Ratio (x) = 0.18238 0.08209
# Poissons Ratio (y) = 0.25647 0.14301
# Poissons Ratio (z) = 1.61194 1.99707
#
# Static dielectric constant tensor:
#      x y z
#    x 1.646800 0.000000 -0.016840 
#    y 0.000000 1.663640 0.000000 
#    z -0.016840 0.000000 1.585190 
# 
# From -- ./inp_files/124084.got.cif
#   From: 2010.05.17/outbox.cif.g08.bks.cpg/sg15_63_cif.got.tgz:124084.got - 2010.06.03 18:47:42.
