data_PCOD9257115
_publ_section_title
;
Structure prediction by ZEFSAII (Michael W. Deem and Ramdas Pophale) SiO2 
 PCOD9257115
Probable space group: C 2/C
;
_chemical_formula_sum "Si O2"
_cell_formula_units_Z 40
_cell_length_a 12.948220
_cell_length_b 25.396541
_cell_length_c 8.756282
_cell_angle_alpha 90.000000
_cell_angle_beta 128.935485
_cell_angle_gamma 90.000000
_cell_volume 2239.765316
_symmetry_space_group_name_H-M "C 2/C"
_symmetry_group_IT_number 15
_symmetry_cell_setting 'monoclinic'
loop_
_space_group_symop_operation_xyz
x,y,z
-x,y,1/2-z
-x,-y,-z
x,-y,1/2+z
1/2+x,1/2+y,z
1/2-x,1/2+y,1/2-z
1/2-x,1/2-y,-z
1/2+x,1/2-y,1/2+z
loop_
_atom_site_type_symbol
_atom_site_label
_atom_site_fract_x
_atom_site_fract_y
_atom_site_fract_z
Si Si1 0.536664 0.621200 0.609033
Si Si2 0.856473 0.025083 0.920311
Si Si3 0.203595 0.069701 0.300514
Si Si4 0.357910 0.830117 0.040850
Si Si5 0.608938 0.283047 0.989661
O O1 0.500000 0.615564 0.750000
O O2 0.653670 0.579696 0.680782
O O3 0.419017 0.601746 0.387574
O O4 0.565104 0.680387 0.587171
O O5 0.760385 0.978089 0.779539
O O6 0.840266 0.041784 0.080990
O O7 0.000000 0.000000 0.000000
O O8 0.311476 0.114655 0.429330
O O9 0.500000 0.837234 0.250000
O O10 0.370521 0.777853 0.947626
O O11 0.243163 0.809904 0.050206
O O12 0.500000 0.284836 0.750000
#
# Coordination Sequence:
#
# PCOD9257115 Si02
#       5
#     8   8   8   8   8
#     4  11  19  32  57  91 117 141 187 247 291 327
#     4  10  18  30  54  83 112 141 184 237 284 323
#     4  11  20  36  55  87 116 146 188 246 285 336
#     4  10  21  35  62  85 113 154 196 229 287 349
#     4  10  18  37  63  86 111 150 197 242 277 336
#
# _framework density 17.859013000000001
#
# number of rings (size 3 to 8) (size 9 to 14) (size 15 to 20)
#    0.000    1.600    4.000    4.800    0.000    0.000 
#    0.000    2.000    0.000    0.000    0.000    0.000 
#    0.000    0.000    0.000    0.000    0.000    0.000 
#
# Total GULP energy -111340.480978 kJ/mol
# GULP energy per Si atom -5567.024049 kJ/mol
# Density = 1.781837 g / cm^3
# Si number density = 17.859013 Si / 1000 Ang^3
#
#
#
# Elastic Constant Matrix: (Units=GPa)
#
#
# Indices 1 2 3 4 5 6 
#
# 1 42.8158 33.2030 44.8903 0.0000 -5.6471 0.0000
# 2 33.2030 164.8928 66.0295 0.0000 -10.1449 0.0000
# 3 44.8903 66.0295 73.5475 0.0000 -4.8607 0.0000
# 4 0.0000 0.0000 0.0000 33.2277 0.0000 -2.3503
# 5 -5.6471 -10.1449 -4.8607 0.0000 37.6656 0.0000
# 6 0.0000 0.0000 0.0000 -2.3503 0.0000 37.1060
#
#
#
# Elastic Compliance Matrix: (Units=1/GPa)
#
#
# Indices 1 2 3 4 5 6 
#
# 1 0.068096 0.004886 -0.045576 0.000000 0.005644 0.000000
# 2 0.004886 0.009900 -0.011746 0.000000 0.001883 0.000000
# 3 -0.045576 -0.011746 0.051740 0.000000 -0.003320 0.000000
# 4 0.000000 0.000000 0.000000 0.030231 0.000000 0.001915
# 5 0.005644 0.001883 -0.003320 0.000000 0.027474 0.000000
# 6 0.000000 0.000000 0.000000 0.001915 0.000000 0.027071
#
#
# Mechanical properties :
#
#
# Convention : Reuss Voigt Hill
#
# Bulk Modulus (GPa) = 40.21907 63.27797 51.74852
# Shear Modulus (GPa) = 15.25910 30.74208 23.00059
#
# Velocity S-wave (km/s) = 2.92622 4.15345 3.59262
# Velocity P-wave (km/s) = 5.82977 7.64921 6.80061
#
# Compressibility (1/GPa) = 0.02486383
#
# Stress axis : x y z
#
# Youngs Moduli (GPa) = 14.68512 101.00982 19.32728
#
# Poissons Ratio (x) = -0.49352 0.88087
# Poissons Ratio (y) = -0.07175 0.22701
# Poissons Ratio (z) = 0.66930 1.18643
#
# Static dielectric constant tensor:
#      x y z
#    x 1.625660 0.000000 0.034850 
#    y 0.000000 1.690440 0.000000 
#    z 0.034850 0.000000 1.645010 
# 
# From -- ./inp_files/33180.got.cif
#   From: 2010.05.17/outbox.cif.g08.bks.cpg/sg15_17_cif.got.tgz:33180.got - 2010.06.03 18:47:42.
