data_PCOD9257635
_publ_section_title
;
Structure prediction by ZEFSAII (Michael W. Deem and Ramdas Pophale) SiO2 
 PCOD9257635
Probable space group: C 2/C
;
_chemical_formula_sum "Si O2"
_cell_formula_units_Z 44
_cell_length_a 7.285383
_cell_length_b 18.828232
_cell_length_c 13.010992
_cell_angle_alpha 90.000000
_cell_angle_beta 60.384004
_cell_angle_gamma 90.000000
_cell_volume 1551.566850
_symmetry_space_group_name_H-M "C 2/C"
_symmetry_group_IT_number 15
_symmetry_cell_setting 'monoclinic'
loop_
_space_group_symop_operation_xyz
x,y,z
-x,y,1/2-z
-x,-y,-z
x,-y,1/2+z
1/2+x,1/2+y,z
1/2-x,1/2+y,1/2-z
1/2-x,1/2-y,-z
1/2+x,1/2-y,1/2+z
loop_
_atom_site_type_symbol
_atom_site_label
_atom_site_fract_x
_atom_site_fract_y
_atom_site_fract_z
Si Si1 0.245115 0.967986 0.970001
Si Si2 0.290447 0.788965 0.734934
Si Si3 0.468189 0.180134 0.594598
Si Si4 0.786225 0.589809 0.103556
Si Si5 0.456638 0.658476 0.883342
Si Si6 0.000000 0.557919 0.750000
O O1 0.313328 0.009360 0.847667
O O2 0.475348 0.938227 0.939720
O O3 0.179103 0.024927 0.076199
O O4 0.074889 0.905163 0.027502
O O5 0.500000 0.797598 0.750000
O O6 0.079297 0.752794 0.836246
O O7 0.225425 0.867938 0.721282
O O8 0.382091 0.722593 0.639897
O O9 0.681097 0.155761 0.483277
O O10 0.283243 0.185058 0.561000
O O11 0.428216 0.112251 0.681043
O O12 0.500000 0.637342 0.750000
#
# Coordination Sequence:
#
# PCOD9257635 Si02
#       6
#     8   8   8   8   8   4
#     4   9  18  30  49  73 101 133 162 201 248 302
#     4   9  18  31  52  75  95 128 167 208 245 291
#     4   8  17  32  49  67  98 133 159 197 251 294
#     4   9  17  32  49  71 101 130 162 207 251 282
#     4   8  16  33  52  70 100 135 158 203 260 289
#     4  10  18  32  50  72  98 136 164 194 242 306
#
# _framework density 28.358431
#
# number of rings (size 3 to 8) (size 9 to 14) (size 15 to 20)
#    0.000    3.636    0.000    1.091    1.273    6.545 
#    0.000    7.273    6.000    0.000    0.000    0.000 
#    0.000    0.000    0.000    0.000    0.000    0.000 
#
# Total GULP energy -122705.706054 kJ/mol
# GULP energy per Si atom -5577.532093 kJ/mol
# Density = 2.829389 g / cm^3
# Si number density = 28.358431 Si / 1000 Ang^3
#
#
#
# Elastic Constant Matrix: (Units=GPa)
#
#
# Indices 1 2 3 4 5 6 
#
# 1 96.5798 32.2641 6.0415 0.0000 -7.9034 0.0000
# 2 32.2641 155.1672 58.5447 0.0000 -12.9194 0.0000
# 3 6.0415 58.5447 64.2942 0.0000 -6.0739 0.0000
# 4 0.0000 0.0000 0.0000 68.7244 0.0000 -11.0648
# 5 -7.9034 -12.9194 -6.0739 0.0000 20.1687 0.0000
# 6 0.0000 0.0000 0.0000 -11.0648 0.0000 20.8833
#
#
#
# Elastic Compliance Matrix: (Units=1/GPa)
#
#
# Indices 1 2 3 4 5 6 
#
# 1 0.011434 -0.002770 0.001753 0.000000 0.003235 0.000000
# 2 -0.002770 0.010765 -0.009256 0.000000 0.003023 0.000000
# 3 0.001753 -0.009256 0.024005 0.000000 0.001987 0.000000
# 4 0.000000 0.000000 0.000000 0.015908 0.000000 0.008429
# 5 0.003235 0.003023 0.001987 0.000000 0.053384 0.000000
# 6 0.000000 0.000000 0.000000 0.008429 0.000000 0.052351
#
#
# Mechanical properties :
#
#
# Convention : Reuss Voigt Hill
#
# Bulk Modulus (GPa) = 38.97353 56.63801 47.80577
# Shear Modulus (GPa) = 25.38780 36.56800 30.97790
#
# Velocity S-wave (km/s) = 2.99531 3.59485 3.30869
# Velocity P-wave (km/s) = 5.07302 6.10296 5.61167
#
# Compressibility (1/GPa) = 0.02565844
#
# Stress axis : x y z
#
# Youngs Moduli (GPa) = 87.45517 92.89716 41.65815
#
# Poissons Ratio (x) = 0.25730 -0.07303
# Poissons Ratio (y) = 0.24223 0.38559
# Poissons Ratio (z) = -0.15332 0.85987
#
# Static dielectric constant tensor:
#      x y z
#    x 2.221600 0.000000 -0.006670 
#    y 0.000000 2.234220 0.000000 
#    z -0.006670 0.000000 2.570340 
# 
# From -- ./inp_files/143030.got.cif
#   From: 2010.05.17/outbox.cif.g08.bks.cpg/sg15_72_cif.got.tgz:143030.got - 2010.06.03 18:47:42.
