data_PCOD9257095
_publ_section_title
;
Structure prediction by ZEFSAII (Michael W. Deem and Ramdas Pophale) SiO2 
 PCOD9257095
Probable space group: C 2/C
;
_chemical_formula_sum "Si O2"
_cell_formula_units_Z 48
_cell_length_a 17.517076
_cell_length_b 8.427625
_cell_length_c 22.366294
_cell_angle_alpha 90.000000
_cell_angle_beta 141.742045
_cell_angle_gamma 90.000000
_cell_volume 2044.531859
_symmetry_space_group_name_H-M "C 2/C"
_symmetry_group_IT_number 15
_symmetry_cell_setting 'monoclinic'
loop_
_space_group_symop_operation_xyz
x,y,z
-x,y,1/2-z
-x,-y,-z
x,-y,1/2+z
1/2+x,1/2+y,z
1/2-x,1/2+y,1/2-z
1/2-x,1/2-y,-z
1/2+x,1/2-y,1/2+z
loop_
_atom_site_type_symbol
_atom_site_label
_atom_site_fract_x
_atom_site_fract_y
_atom_site_fract_z
Si Si1 0.302754 0.271401 0.150969
Si Si2 0.960257 0.843027 0.440762
Si Si3 0.946651 0.878066 0.127854
Si Si4 0.679806 0.068308 0.119957
Si Si5 0.195919 0.516118 0.763428
Si Si6 0.051374 0.789761 0.718925
O O1 0.340133 0.309147 0.105379
O O2 0.426813 0.320938 0.263383
O O3 0.193943 0.389223 0.105329
O O4 0.286864 0.094334 0.167414
O O5 0.049156 0.823114 0.438089
O O6 0.929643 0.689822 0.463270
O O7 0.824826 0.894370 0.333622
O O8 0.000000 0.000000 0.500000
O O9 0.963611 0.070236 0.140392
O O10 0.674357 0.071910 0.188418
O O11 0.812775 0.139339 0.184092
O O12 0.082892 0.637726 0.699411
O O13 0.000000 0.733103 0.750000
#
# Coordination Sequence:
#
# PCOD9257095 Si02
#       6
#     8   8   8   8   8   8
#     4  10  18  33  58  84 107 142 193 236 272 317
#     4  11  23  38  56  83 119 152 183 233 290 337
#     4  10  18  35  54  80 115 145 178 233 285 327
#     4  10  18  35  56  82 111 144 190 231 272 333
#     4  11  20  32  59  87 109 145 195 232 273 331
#     4  10  18  30  53  85 110 135 185 239 272 322
#
# _framework density 23.477256000000001
#
# number of rings (size 3 to 8) (size 9 to 14) (size 15 to 20)
#    0.000    1.667    8.333    1.000    2.333    0.000 
#    0.000    2.500    0.000    0.000    0.000    0.000 
#    0.000    0.000    0.000    0.000    0.000    0.000 
#
# Total GULP energy -133910.530066 kJ/mol
# GULP energy per Si atom -5579.605419 kJ/mol
# Density = 2.342382 g / cm^3
# Si number density = 23.477256 Si / 1000 Ang^3
#
#
#
# Elastic Constant Matrix: (Units=GPa)
#
#
# Indices 1 2 3 4 5 6 
#
# 1 169.3260 53.0595 31.7590 0.0000 -12.2923 0.0000
# 2 53.0595 109.3947 29.9212 0.0000 -3.5903 0.0000
# 3 31.7590 29.9212 41.2260 0.0000 -10.8502 0.0000
# 4 0.0000 0.0000 0.0000 28.0212 0.0000 2.7928
# 5 -12.2923 -3.5903 -10.8502 0.0000 25.3563 0.0000
# 6 0.0000 0.0000 0.0000 2.7928 0.0000 45.3822
#
#
#
# Elastic Compliance Matrix: (Units=1/GPa)
#
#
# Indices 1 2 3 4 5 6 
#
# 1 0.007503 -0.002657 -0.003373 0.000000 0.001818 0.000000
# 2 -0.002657 0.012453 -0.007738 0.000000 -0.002836 0.000000
# 3 -0.003373 -0.007738 0.035782 0.000000 0.012581 0.000000
# 4 0.000000 0.000000 0.000000 0.035908 0.000000 -0.002210
# 5 0.001818 -0.002836 0.012581 0.000000 0.045301 0.000000
# 6 0.000000 0.000000 0.000000 -0.002210 0.000000 0.022171
#
#
# Mechanical properties :
#
#
# Convention : Reuss Voigt Hill
#
# Bulk Modulus (GPa) = 35.45813 61.04736 48.25275
# Shear Modulus (GPa) = 25.50298 33.43239 29.46769
#
# Velocity S-wave (km/s) = 3.29946 3.77773 3.54667
# Velocity P-wave (km/s) = 5.44529 6.71473 6.11305
#
# Compressibility (1/GPa) = 0.02820228
#
# Stress axis : x y z
#
# Youngs Moduli (GPa) = 133.28062 80.30025 27.94664
#
# Poissons Ratio (x) = 0.21334 0.09427
# Poissons Ratio (y) = 0.35410 0.21625
# Poissons Ratio (z) = 0.44960 0.62137
#
# Static dielectric constant tensor:
#      x y z
#    x 1.856070 0.000000 0.010660 
#    y 0.000000 2.099800 0.000000 
#    z 0.010660 0.000000 1.946620 
# 
# From -- ./inp_files/159696.got.cif
#   From: 2010.05.17/outbox.cif.g08.bks.cpg/sg15_80_cif.got.tgz:159696.got - 2010.06.03 18:47:42.
