data_PCOD9257134
_publ_section_title
;
Structure prediction by ZEFSAII (Michael W. Deem and Ramdas Pophale) SiO2 
 PCOD9257134
Probable space group: C 2/C
;
_chemical_formula_sum "Si O2"
_cell_formula_units_Z 48
_cell_length_a 15.419542
_cell_length_b 9.119642
_cell_length_c 15.066019
_cell_angle_alpha 90.000000
_cell_angle_beta 117.713935
_cell_angle_gamma 90.000000
_cell_volume 1875.550210
_symmetry_space_group_name_H-M "C 2/C"
_symmetry_group_IT_number 15
_symmetry_cell_setting 'monoclinic'
loop_
_space_group_symop_operation_xyz
x,y,z
-x,y,1/2-z
-x,-y,-z
x,-y,1/2+z
1/2+x,1/2+y,z
1/2-x,1/2+y,1/2-z
1/2-x,1/2-y,-z
1/2+x,1/2-y,1/2+z
loop_
_atom_site_type_symbol
_atom_site_label
_atom_site_fract_x
_atom_site_fract_y
_atom_site_fract_z
Si Si1 0.537067 0.104410 0.170779
Si Si2 0.112110 0.931348 0.813926
Si Si3 0.621399 0.313484 0.097535
Si Si4 0.755479 0.173889 0.281932
Si Si5 0.311766 0.562886 0.481799
Si Si6 0.123324 0.629960 0.930357
O O1 0.500000 0.143055 0.250000
O O2 0.527664 0.244947 0.101709
O O3 0.653671 0.080148 0.231585
O O4 0.476089 0.963351 0.112651
O O5 0.163702 0.893747 0.745213
O O6 0.113525 0.774861 0.866476
O O7 0.000000 0.973003 0.750000
O O8 0.156999 0.055051 0.900948
O O9 0.708692 0.315775 0.211072
O O10 0.613821 0.459359 0.038145
O O11 0.650817 0.188717 0.040381
O O12 0.792261 0.190815 0.400811
O O13 0.209207 0.473480 0.436744
#
# Coordination Sequence:
#
# PCOD9257134 Si02
#       6
#     8   8   8   8   8   8
#     4  10  18  30  54  90 117 148 187 245 296 353
#     4  11  23  37  58  85 119 157 210 241 284 359
#     4   9  19  32  52  90 122 146 188 251 297 340
#     4  10  21  35  57  87 123 154 195 245 294 350
#     4  11  19  37  61  83 121 161 190 248 304 338
#     4  11  16  34  61  89 114 147 200 256 299 339
#
# _framework density 25.592490000000002
#
# number of rings (size 3 to 8) (size 9 to 14) (size 15 to 20)
#    1.000    0.667    5.000    2.000    0.000    0.667 
#    0.000    0.833    0.000    1.000    0.000    0.000 
#    0.000    0.000    0.000    0.000    0.000    0.000 
#
# Total GULP energy -134026.828858 kJ/mol
# GULP energy per Si atom -5584.451202 kJ/mol
# Density = 2.553424 g / cm^3
# Si number density = 25.592490 Si / 1000 Ang^3
#
#
#
# Elastic Constant Matrix: (Units=GPa)
#
#
# Indices 1 2 3 4 5 6 
#
# 1 102.4112 31.9602 12.2125 0.0000 11.8248 0.0000
# 2 31.9602 53.3765 3.3409 0.0000 -8.4816 0.0000
# 3 12.2125 3.3409 66.2848 0.0000 4.3593 0.0000
# 4 0.0000 0.0000 0.0000 23.4938 0.0000 -3.4383
# 5 11.8248 -8.4816 4.3593 0.0000 37.1789 0.0000
# 6 0.0000 0.0000 0.0000 -3.4383 0.0000 34.2321
#
#
#
# Elastic Compliance Matrix: (Units=1/GPa)
#
#
# Indices 1 2 3 4 5 6 
#
# 1 0.013451 -0.008925 -0.001626 0.000000 -0.006124 0.000000
# 2 -0.008925 0.025470 -0.000210 0.000000 0.008674 0.000000
# 3 -0.001626 -0.000210 0.015485 0.000000 -0.001346 0.000000
# 4 0.000000 0.000000 0.000000 0.043199 0.000000 0.004339
# 5 -0.006124 0.008674 -0.001346 0.000000 0.030981 0.000000
# 6 0.000000 0.000000 0.000000 0.004339 0.000000 0.029648
#
#
# Mechanical properties :
#
#
# Convention : Reuss Voigt Hill
#
# Bulk Modulus (GPa) = 30.40905 35.23328 32.82117
# Shear Modulus (GPa) = 26.21673 30.61825 28.41749
#
# Velocity S-wave (km/s) = 3.20408 3.46262 3.33586
# Velocity P-wave (km/s) = 5.05925 5.45740 5.26209
#
# Compressibility (1/GPa) = 0.03288494
#
# Stress axis : x y z
#
# Youngs Moduli (GPa) = 74.34490 39.26129 64.57838
#
# Poissons Ratio (x) = 0.35042 0.10498
# Poissons Ratio (y) = 0.66354 0.01355
# Poissons Ratio (z) = 0.12086 0.00824
#
# Static dielectric constant tensor:
#      x y z
#    x 2.011330 0.000000 0.002110 
#    y 0.000000 2.044480 0.000000 
#    z 0.002110 0.000000 2.057530 
# 
# From -- ./inp_files/152212.got.cif
#   From: 2010.05.17/outbox.cif.g08.bks.cpg/sg15_77_cif.got.tgz:152212.got - 2010.06.03 18:47:42.
