data_PCOD9257249
_publ_section_title
;
Structure prediction by ZEFSAII (Michael W. Deem and Ramdas Pophale) SiO2 
 PCOD9257249
Probable space group: C 2/C
;
_chemical_formula_sum "Si O2"
_cell_formula_units_Z 48
_cell_length_a 11.730856
_cell_length_b 24.301493
_cell_length_c 12.988659
_cell_angle_alpha 90.000000
_cell_angle_beta 44.846885
_cell_angle_gamma 90.000000
_cell_volume 2611.248950
_symmetry_space_group_name_H-M "C 2/C"
_symmetry_group_IT_number 15
_symmetry_cell_setting 'monoclinic'
loop_
_space_group_symop_operation_xyz
x,y,z
-x,y,1/2-z
-x,-y,-z
x,-y,1/2+z
1/2+x,1/2+y,z
1/2-x,1/2+y,1/2-z
1/2-x,1/2-y,-z
1/2+x,1/2-y,1/2+z
loop_
_atom_site_type_symbol
_atom_site_label
_atom_site_fract_x
_atom_site_fract_y
_atom_site_fract_z
Si Si1 0.755285 0.486760 0.103120
Si Si2 0.745667 0.360834 0.906823
Si Si3 0.579269 0.922749 0.886872
Si Si4 0.491019 0.455090 0.415878
Si Si5 0.878173 0.249962 0.733542
Si Si6 0.387031 0.176144 0.538676
O O1 0.783485 0.545975 0.136836
O O2 0.663502 0.451390 0.249231
O O3 0.638203 0.481290 0.081382
O O4 0.931423 0.464256 0.962247
O O5 0.855257 0.399378 0.762896
O O6 0.767031 0.301561 0.840362
O O7 0.578827 0.394438 0.015646
O O8 0.808147 0.348730 0.982867
O O9 0.502117 0.872769 0.001055
O O10 0.500000 0.500000 0.500000
O O11 0.756291 0.199406 0.799715
O O12 0.000000 0.236927 0.750000
O O13 0.993726 0.274116 0.571741
#
# Coordination Sequence:
#
# PCOD9257249 Si02
#       6
#     8   8   8   8   8   8
#     4  10  22  33  50  77 100 139 184 210 250 317
#     4  10  18  31  49  70 105 144 165 209 268 308
#     4  10  19  34  49  71 105 139 175 206 259 311
#     4  11  21  35  51  75 107 138 177 221 257 303
#     4   9  18  29  45  74 101 137 173 206 263 327
#     4  10  19  31  50  74 106 142 170 217 269 321
#
# _framework density 18.382010000000001
#
# number of rings (size 3 to 8) (size 9 to 14) (size 15 to 20)
#    0.000    2.000    3.333    3.500    0.000    2.667 
#    0.000    0.000    0.000    0.000    0.000    1.167 
#    0.000    0.000    0.000    0.500    0.000    0.000 
#
# Total GULP energy -133666.728524 kJ/mol
# GULP energy per Si atom -5569.447022 kJ/mol
# Density = 1.834017 g / cm^3
# Si number density = 18.382010 Si / 1000 Ang^3
#
#
#
# Elastic Constant Matrix: (Units=GPa)
#
#
# Indices 1 2 3 4 5 6 
#
# 1 24.6557 12.1749 17.4499 0.0000 -8.6172 0.0000
# 2 12.1749 53.4668 33.0812 0.0000 -17.0079 0.0000
# 3 17.4499 33.0812 53.5431 0.0000 -12.2035 0.0000
# 4 0.0000 0.0000 0.0000 35.7993 0.0000 -20.8553
# 5 -8.6172 -17.0079 -12.2035 0.0000 21.7013 0.0000
# 6 0.0000 0.0000 0.0000 -20.8553 0.0000 31.8716
#
#
#
# Elastic Compliance Matrix: (Units=1/GPa)
#
#
# Indices 1 2 3 4 5 6 
#
# 1 0.056179 0.001844 -0.016097 0.000000 0.014700 0.000000
# 2 0.001844 0.035409 -0.018336 0.000000 0.018172 0.000000
# 3 -0.016097 -0.018336 0.035006 0.000000 -0.001077 0.000000
# 4 0.000000 0.000000 0.000000 0.045142 0.000000 0.029539
# 5 0.014700 0.018172 -0.001077 0.000000 0.065553 0.000000
# 6 0.000000 0.000000 0.000000 0.029539 0.000000 0.050705
#
#
# Mechanical properties :
#
#
# Convention : Reuss Voigt Hill
#
# Bulk Modulus (GPa) = 16.28301 28.56415 22.42358
# Shear Modulus (GPa) = 13.38169 22.47174 17.92672
#
# Velocity S-wave (km/s) = 2.70103 3.50020 3.12626
# Velocity P-wave (km/s) = 4.31333 5.64873 5.02558
#
# Compressibility (1/GPa) = 0.06141371
#
# Stress axis : x y z
#
# Youngs Moduli (GPa) = 17.80028 28.24142 28.56638
#
# Poissons Ratio (x) = -0.05207 0.45985
# Poissons Ratio (y) = -0.03282 0.52380
# Poissons Ratio (z) = 0.28654 0.51784
#
# Static dielectric constant tensor:
#      x y z
#    x 1.623430 0.000000 -0.032880 
#    y 0.000000 1.685820 0.000000 
#    z -0.032880 0.000000 1.686880 
# 
# From -- ./inp_files/90625.got.cif
#   From: 2010.05.17/outbox.cif.g08.bks.cpg/sg15_46_cif.got.tgz:90625.got - 2010.06.03 18:47:42.
