data_PCOD9257767
_publ_section_title
;
Structure prediction by ZEFSAII (Michael W. Deem and Ramdas Pophale) SiO2 
 PCOD9257767
Probable space group: C 2/C
;
_chemical_formula_sum "Si O2"
_cell_formula_units_Z 48
_cell_length_a 22.231796
_cell_length_b 7.073341
_cell_length_c 15.566611
_cell_angle_alpha 90.000000
_cell_angle_beta 57.423060
_cell_angle_gamma 90.000000
_cell_volume 2062.767697
_symmetry_space_group_name_H-M "C 2/C"
_symmetry_group_IT_number 15
_symmetry_cell_setting 'monoclinic'
loop_
_space_group_symop_operation_xyz
x,y,z
-x,y,1/2-z
-x,-y,-z
x,-y,1/2+z
1/2+x,1/2+y,z
1/2-x,1/2+y,1/2-z
1/2-x,1/2-y,-z
1/2+x,1/2-y,1/2+z
loop_
_atom_site_type_symbol
_atom_site_label
_atom_site_fract_x
_atom_site_fract_y
_atom_site_fract_z
Si Si1 0.062069 0.235951 0.420549
Si Si2 0.680444 0.694596 0.998862
Si Si3 0.674218 0.239598 0.975996
Si Si4 0.921313 0.177711 0.281502
Si Si5 0.597068 0.720126 0.900161
Si Si6 0.337182 0.287385 0.326706
O O1 0.115232 0.312520 0.451906
O O2 0.075916 0.285886 0.310589
O O3 0.981070 0.284418 0.508794
O O4 0.080256 0.008214 0.408536
O O5 0.679724 0.467761 0.984545
O O6 0.660329 0.762702 0.919124
O O7 0.750000 0.750000 0.000000
O O8 0.615495 0.766359 0.107651
O O9 0.752328 0.180786 0.883807
O O10 0.656219 0.178913 0.087490
O O11 0.000000 0.120690 0.250000
O O12 0.874612 0.990091 0.305475
O O13 0.625034 0.792753 0.786963
#
# Coordination Sequence:
#
# PCOD9257767 Si02
#       6
#     8   8   8   8   8   8
#     4   9  17  29  50  74 105 127 165 221 250 295
#     4  10  20  32  51  76 106 138 171 208 254 312
#     4   9  19  34  47  75 105 133 169 210 262 301
#     4  10  18  32  53  79 102 130 174 219 258 296
#     4   9  17  29  47  77 100 127 170 208 257 295
#     4   9  19  30  50  73 103 132 164 214 261 300
#
# _framework density 23.269704999999998
#
# number of rings (size 3 to 8) (size 9 to 14) (size 15 to 20)
#    0.000    2.667    1.667    0.000    9.333    0.000 
#    0.000    0.000    0.000    1.000    0.000   11.667 
#    0.000    0.000    0.000    0.000    0.000    0.000 
#
# Total GULP energy -133860.315743 kJ/mol
# GULP energy per Si atom -5577.513156 kJ/mol
# Density = 2.321674 g / cm^3
# Si number density = 23.269705 Si / 1000 Ang^3
#
#
#
# Elastic Constant Matrix: (Units=GPa)
#
#
# Indices 1 2 3 4 5 6 
#
# 1 150.7413 20.1144 72.0350 -0.0002 3.5227 0.0000
# 2 20.1144 82.6233 14.0007 -0.0002 -2.0277 -0.0001
# 3 72.0350 14.0007 181.4561 0.0000 2.8162 0.0000
# 4 -0.0002 -0.0002 0.0000 -6.0360 0.0000 -4.4463
# 5 3.5227 -2.0277 2.8162 0.0000 38.4678 0.0000
# 6 0.0000 -0.0001 0.0000 -4.4463 0.0000 12.7012
#
#
#
# Elastic Compliance Matrix: (Units=1/GPa)
#
#
# Indices 1 2 3 4 5 6 
#
# 1 0.008379 -0.001513 -0.003200 0.000000 -0.000613 0.000000
# 2 -0.001513 0.012556 -0.000381 0.000000 0.000828 0.000000
# 3 -0.003200 -0.000381 0.006814 0.000000 -0.000226 0.000000
# 4 0.000000 0.000000 0.000000 -0.131709 0.000000 -0.046107
# 5 -0.000613 0.000828 -0.000226 0.000000 0.026112 0.000000
# 6 0.000000 0.000000 0.000000 -0.046107 0.000000 0.062592
#
#
# Mechanical properties :
#
#
# Convention : Reuss Voigt Hill
#
# Bulk Modulus (GPa) = 56.94167 69.68010 63.31088
# Shear Modulus (GPa) = 6348.36074 29.60464 3188.98269
#
# Velocity S-wave (km/s) = 52.28851 3.57072 37.05967
# Velocity P-wave (km/s) = 60.58031 6.85635 43.11023
#
# Compressibility (1/GPa) = 0.01756183
#
# Stress axis : x y z
#
# Youngs Moduli (GPa) = 119.34093 79.64128 146.74954
#
# Poissons Ratio (x) = 0.12047 0.46963
# Poissons Ratio (y) = 0.18053 0.05593
# Poissons Ratio (z) = 0.38192 0.03036
#
# Static dielectric constant tensor:
#      x y z
#    x 1.885270 0.000000 0.026680 
#    y 0.000000 1.970410 0.000000 
#    z 0.026680 0.000000 1.893590 
# 
# From -- ./inp_files/166872.got.cif
#   From: 2010.05.17/outbox.cif.g08.bks.cpg/sg15_84_cif.got.tgz:166872.got - 2010.06.03 18:47:42.
