data_PCOD9257492
_publ_section_title
;
Structure prediction by ZEFSAII (Michael W. Deem and Ramdas Pophale) SiO2 
 PCOD9257492
Probable space group: C 2/C
;
_chemical_formula_sum "Si O2"
_cell_formula_units_Z 48
_cell_length_a 26.308693
_cell_length_b 12.923807
_cell_length_c 14.146447
_cell_angle_alpha 90.000000
_cell_angle_beta 31.128026
_cell_angle_gamma 90.000000
_cell_volume 2486.494044
_symmetry_space_group_name_H-M "C 2/C"
_symmetry_group_IT_number 15
_symmetry_cell_setting 'monoclinic'
loop_
_space_group_symop_operation_xyz
x,y,z
-x,y,1/2-z
-x,-y,-z
x,-y,1/2+z
1/2+x,1/2+y,z
1/2-x,1/2+y,1/2-z
1/2-x,1/2-y,-z
1/2+x,1/2-y,1/2+z
loop_
_atom_site_type_symbol
_atom_site_label
_atom_site_fract_x
_atom_site_fract_y
_atom_site_fract_z
Si Si1 0.737023 0.874001 0.023084
Si Si2 0.612296 0.019645 0.557308
Si Si3 0.939366 0.955657 0.442693
Si Si4 0.046992 0.866803 0.890898
Si Si5 0.572053 0.235546 0.545105
Si Si6 0.760453 0.909587 0.199028
O O1 0.846655 0.903683 0.814656
O O2 0.750000 0.750000 0.000000
O O3 0.660761 0.927516 0.073299
O O4 0.717499 0.901514 0.162522
O O5 0.500000 0.985979 0.750000
O O6 0.606024 0.117647 0.495926
O O7 0.679928 0.929690 0.407228
O O8 0.948858 0.864002 0.502633
O O9 0.000000 0.946447 0.250000
O O10 0.829855 0.988904 0.591559
O O11 0.977570 0.049945 0.448371
O O12 0.000323 0.761516 0.926052
O O13 0.500000 0.255956 0.750000
O O14 0.666737 0.311095 0.401556
#
# Coordination Sequence:
#
# PCOD9257492 Si02
#       6
#     8   8   8   8   8   8
#     4  12  20  36  63  87 111 161 208 243 299 360
#     4  11  24  39  57  89 125 163 204 253 299 354
#     4  10  18  31  55  93 118 136 188 255 312 349
#     4  10  18  31  58  88 111 149 189 250 304 349
#     4  10  18  37  61  91 120 151 204 260 296 354
#     4  11  20  34  62  90 121 154 207 252 295 361
#
# _framework density 19.304288
#
# number of rings (size 3 to 8) (size 9 to 14) (size 15 to 20)
#    0.000    1.333    6.667    2.000    0.000    0.667 
#    0.000    0.000    0.000   11.000    0.000    0.000 
#    0.000    0.000    0.000    0.000    0.000    0.000 
#
# Total GULP energy -133742.065545 kJ/mol
# GULP energy per Si atom -5572.586064 kJ/mol
# Density = 1.926035 g / cm^3
# Si number density = 19.304288 Si / 1000 Ang^3
#
#
#
# Elastic Constant Matrix: (Units=GPa)
#
#
# Indices 1 2 3 4 5 6 
#
# 1 87.4723 10.2504 14.6148 0.0000 9.1588 0.0000
# 2 10.2504 30.9258 20.6645 0.0000 4.5959 0.0000
# 3 14.6148 20.6645 99.3064 0.0000 -6.7241 0.0000
# 4 0.0000 0.0000 0.0000 18.8028 0.0000 3.0091
# 5 9.1588 4.5959 -6.7241 0.0000 34.0799 0.0000
# 6 0.0000 0.0000 0.0000 3.0091 0.0000 13.9691
#
#
#
# Elastic Compliance Matrix: (Units=1/GPa)
#
#
# Indices 1 2 3 4 5 6 
#
# 1 0.012328 -0.002605 -0.001493 0.000000 -0.003256 0.000000
# 2 -0.002605 0.039679 -0.008299 0.000000 -0.006288 0.000000
# 3 -0.001493 -0.008299 0.012284 0.000000 0.003944 0.000000
# 4 0.000000 0.000000 0.000000 0.055082 0.000000 -0.011865
# 5 -0.003256 -0.006288 0.003944 0.000000 0.031844 0.000000
# 6 0.000000 0.000000 0.000000 -0.011865 0.000000 0.074142
#
#
# Mechanical properties :
#
#
# Convention : Reuss Voigt Hill
#
# Bulk Modulus (GPa) = 25.31844 34.30711 29.81278
# Shear Modulus (GPa) = 18.98846 24.84868 21.91857
#
# Velocity S-wave (km/s) = 3.13970 3.59166 3.37326
# Velocity P-wave (km/s) = 5.12714 5.91696 5.53615
#
# Compressibility (1/GPa) = 0.03949690
#
# Stress axis : x y z
#
# Youngs Moduli (GPa) = 81.11761 25.20239 81.40982
#
# Poissons Ratio (x) = 0.06564 0.12152
# Poissons Ratio (y) = 0.21129 0.67563
# Poissons Ratio (z) = 0.12109 0.20916
#
# Static dielectric constant tensor:
#      x y z
#    x 1.725510 0.000000 -0.024090 
#    y 0.000000 1.755110 0.000000 
#    z -0.024090 0.000000 1.758010 
# 
# From -- ./inp_files/153609.got.cif
#   From: 2010.05.17/outbox.cif.g08.bks.cpg/sg15_77_cif.got.tgz:153609.got - 2010.06.03 18:47:42.
