data_PCOD9257359
_publ_section_title
;
Structure prediction by ZEFSAII (Michael W. Deem and Ramdas Pophale) SiO2 
 PCOD9257359
Probable space group: C 2/C
;
_chemical_formula_sum "Si O2"
_cell_formula_units_Z 56
_cell_length_a 17.813827
_cell_length_b 23.732214
_cell_length_c 8.499759
_cell_angle_alpha 90.000000
_cell_angle_beta 126.305689
_cell_angle_gamma 90.000000
_cell_volume 2895.788342
_symmetry_space_group_name_H-M "C 2/C"
_symmetry_group_IT_number 15
_symmetry_cell_setting 'monoclinic'
loop_
_space_group_symop_operation_xyz
x,y,z
-x,y,1/2-z
-x,-y,-z
x,-y,1/2+z
1/2+x,1/2+y,z
1/2-x,1/2+y,1/2-z
1/2-x,1/2-y,-z
1/2+x,1/2-y,1/2+z
loop_
_atom_site_type_symbol
_atom_site_label
_atom_site_fract_x
_atom_site_fract_y
_atom_site_fract_z
Si Si1 0.219619 0.338171 0.037434
Si Si2 0.547552 0.946395 0.140494
Si Si3 0.142356 0.712383 0.995673
Si Si4 0.721847 0.115461 0.882906
Si Si5 0.094711 0.168234 0.280065
Si Si6 0.166237 0.213876 0.069003
Si Si7 0.544920 0.155124 0.147442
O O1 0.312922 0.323187 0.058700
O O2 0.146211 0.367608 0.828871
O O3 0.237307 0.369604 0.220261
O O4 0.169744 0.278405 0.017481
O O5 0.500000 0.938882 0.250000
O O6 0.658745 0.940815 0.307702
O O7 0.519894 0.894692 0.993382
O O8 0.500000 0.000000 0.000000
O O9 0.238917 0.712139 0.210103
O O10 0.063524 0.696317 0.024429
O O11 0.156965 0.664172 0.882967
O O12 0.125893 0.773485 0.904056
O O13 0.821755 0.122996 0.091711
O O14 0.089611 0.187951 0.090697
O O15 0.000000 0.150718 0.250000
O O16 0.500000 0.178895 0.250000
#
# Coordination Sequence:
#
# PCOD9257359 Si02
#       7
#     8   8   8   8   8   8   8
#     4  10  18  31  52  76 112 159 193 242 290 336
#     4  12  26  43  62  88 118 146 197 251 317 369
#     4  10  19  33  50  79 117 164 198 234 287 348
#     4  11  20  39  56  77 116 161 190 251 298 349
#     4  11  22  33  53  82 118 164 213 234 282 356
#     4   9  18  33  47  74 117 156 208 238 276 336
#     4  11  22  32  52  83 114 156 194 243 299 356
#
# _framework density 19.338431
#
# number of rings (size 3 to 8) (size 9 to 14) (size 15 to 20)
#    0.000    1.429    5.714    1.286    4.000    0.000 
#    0.000    0.714    0.000    0.000    0.000    1.000 
#    0.000    0.000    0.000    0.000    0.000    0.000 
#
# Total GULP energy -156127.404499 kJ/mol
# GULP energy per Si atom -5575.978732 kJ/mol
# Density = 1.929442 g / cm^3
# Si number density = 19.338431 Si / 1000 Ang^3
#
#
#
# Elastic Constant Matrix: (Units=GPa)
#
#
# Indices 1 2 3 4 5 6 
#
# 1 133.0021 21.6823 22.5326 0.0000 -17.9336 0.0000
# 2 21.6823 30.9489 13.1580 0.0000 7.1480 0.0000
# 3 22.5326 13.1580 46.1100 0.0000 -11.2955 0.0000
# 4 0.0000 0.0000 0.0000 19.9759 0.0000 6.7748
# 5 -17.9336 7.1480 -11.2955 0.0000 39.7205 0.0000
# 6 0.0000 0.0000 0.0000 6.7748 0.0000 10.2995
#
#
#
# Elastic Compliance Matrix: (Units=1/GPa)
#
#
# Indices 1 2 3 4 5 6 
#
# 1 0.009675 -0.007465 -0.001288 0.000000 0.005345 0.000000
# 2 -0.007465 0.046940 -0.013589 0.000000 -0.015682 0.000000
# 3 -0.001288 -0.013589 0.028647 0.000000 0.010010 0.000000
# 4 0.000000 0.000000 0.000000 0.064434 0.000000 -0.042383
# 5 0.005345 -0.015682 0.010010 0.000000 0.033258 0.000000
# 6 0.000000 0.000000 0.000000 -0.042383 0.000000 0.124971
#
#
# Mechanical properties :
#
#
# Convention : Reuss Voigt Hill
#
# Bulk Modulus (GPa) = 24.64378 36.08966 30.36672
# Shear Modulus (GPa) = 13.65621 24.17838 18.91729
#
# Velocity S-wave (km/s) = 2.66027 3.53976 3.13105
# Velocity P-wave (km/s) = 4.71244 5.95056 5.36732
#
# Compressibility (1/GPa) = 0.04057819
#
# Stress axis : x y z
#
# Youngs Moduli (GPa) = 103.36436 21.30379 34.90813
#
# Poissons Ratio (x) = 0.15902 0.04497
# Poissons Ratio (y) = 0.77157 0.47436
# Poissons Ratio (z) = 0.13315 0.28949
#
# Static dielectric constant tensor:
#      x y z
#    x 1.768630 0.000000 0.009930 
#    y 0.000000 1.690090 0.000000 
#    z 0.009930 0.000000 1.749020 
# 
# From -- ./inp_files/51321.got.cif
#   From: 2010.05.17/outbox.cif.g08.bks.cpg/sg15_26_cif.got.tgz:51321.got - 2010.06.03 18:47:42.
