data_PCOD9257147
_publ_section_title
;
Structure prediction by ZEFSAII (Michael W. Deem and Ramdas Pophale) SiO2 
 PCOD9257147
Probable space group: C 2/C
;
_chemical_formula_sum "Si O2"
_cell_formula_units_Z 60
_cell_length_a 17.525418
_cell_length_b 9.477896
_cell_length_c 22.496613
_cell_angle_alpha 90.000000
_cell_angle_beta 38.142259
_cell_angle_gamma 90.000000
_cell_volume 2307.895194
_symmetry_space_group_name_H-M "C 2/C"
_symmetry_group_IT_number 15
_symmetry_cell_setting 'monoclinic'
loop_
_space_group_symop_operation_xyz
x,y,z
-x,y,1/2-z
-x,-y,-z
x,-y,1/2+z
1/2+x,1/2+y,z
1/2-x,1/2+y,1/2-z
1/2-x,1/2-y,-z
1/2+x,1/2-y,1/2+z
loop_
_atom_site_type_symbol
_atom_site_label
_atom_site_fract_x
_atom_site_fract_y
_atom_site_fract_z
Si Si1 0.040516 0.658882 0.382091
Si Si2 0.017329 0.355878 0.099393
Si Si3 0.121786 0.181531 0.133291
Si Si4 0.991831 0.936833 0.363966
Si Si5 0.000000 0.237234 0.750000
Si Si6 0.260273 0.217991 0.829017
Si Si7 0.435337 0.614859 0.080421
Si Si8 0.198376 0.400412 0.668543
O O1 0.978271 0.509174 0.433342
O O2 0.152520 0.718503 0.353738
O O3 0.099863 0.613252 0.282281
O O4 0.955186 0.796414 0.422737
O O5 0.882396 0.311673 0.211924
O O6 0.025277 0.238660 0.043618
O O7 0.112251 0.315646 0.094317
O O8 0.220093 0.183112 0.125514
O O9 0.000000 0.188518 0.250000
O O10 0.109826 0.045514 0.097942
O O11 0.047705 0.869583 0.270863
O O12 0.087755 0.024429 0.345160
O O13 0.880854 0.335477 0.836384
O O14 0.254786 0.060952 0.862192
O O15 0.317208 0.678624 0.120954
O O16 0.500000 0.500000 0.000000
#
# Coordination Sequence:
#
# PCOD9257147 Si02
#       8
#     8   8   8   8   4   8   8   8
#     4  10  19  32  58  84 118 138 188 259 299 335
#     4   9  20  33  52  83 113 152 192 231 296 349
#     4   9  18  29  48  78 119 144 174 222 299 355
#     4  10  20  36  55  89 112 153 190 239 299 341
#     4  10  22  34  62  90 124 140 184 264 312 336
#     4  10  18  30  55  86 120 143 177 249 304 345
#     4  11  22  40  60  81 122 167 201 230 277 363
#     4  10  21  34  55  91 119 150 187 239 309 345
#
# _framework density 25.997714999999999
#
# number of rings (size 3 to 8) (size 9 to 14) (size 15 to 20)
#    0.000    2.133    3.333    0.000    6.533    1.067 
#    0.000    1.333    0.000    3.200    0.000    0.000 
#    0.000    0.000    0.000    0.000    0.000    0.000 
#
# Total GULP energy -167265.440603 kJ/mol
# GULP energy per Si atom -5575.514687 kJ/mol
# Density = 2.593854 g / cm^3
# Si number density = 25.997715 Si / 1000 Ang^3
#
#
#
# Elastic Constant Matrix: (Units=GPa)
#
#
# Indices 1 2 3 4 5 6 
#
# 1 173.3422 67.5914 20.4284 0.0000 -7.4377 0.0000
# 2 67.5914 179.4497 4.8354 0.0000 5.1446 0.0000
# 3 20.4284 4.8354 41.2749 0.0000 -0.9345 0.0000
# 4 0.0000 0.0000 0.0000 26.7474 0.0000 3.9089
# 5 -7.4377 5.1446 -0.9345 0.0000 26.1080 0.0000
# 6 0.0000 0.0000 0.0000 3.9089 0.0000 36.3346
#
#
#
# Elastic Compliance Matrix: (Units=1/GPa)
#
#
# Indices 1 2 3 4 5 6 
#
# 1 0.007330 -0.002745 -0.003249 0.000000 0.002513 0.000000
# 2 -0.002745 0.006652 0.000533 0.000000 -0.002074 0.000000
# 3 -0.003249 0.000533 0.025771 0.000000 -0.000108 0.000000
# 4 0.000000 0.000000 0.000000 0.037984 0.000000 -0.004086
# 5 0.002513 -0.002074 -0.000108 0.000000 0.039423 0.000000
# 6 0.000000 0.000000 0.000000 -0.004086 0.000000 0.027962
#
#
# Mechanical properties :
#
#
# Convention : Reuss Voigt Hill
#
# Bulk Modulus (GPa) = 34.68779 64.41972 49.55376
# Shear Modulus (GPa) = 30.18297 37.91875 34.05086
#
# Velocity S-wave (km/s) = 3.41102 3.82323 3.62299
# Velocity P-wave (km/s) = 5.37448 6.65749 6.05009
#
# Compressibility (1/GPa) = 0.02882859
#
# Stress axis : x y z
#
# Youngs Moduli (GPa) = 136.42070 150.33502 38.80298
#
# Poissons Ratio (x) = 0.41274 0.12609
# Poissons Ratio (y) = 0.37454 -0.02067
# Poissons Ratio (z) = 0.44330 -0.08007
#
# Static dielectric constant tensor:
#      x y z
#    x 2.115710 0.000000 0.043620 
#    y 0.000000 2.139780 0.000000 
#    z 0.043620 0.000000 2.185620 
# 
# From -- ./inp_files/298372.got.cif
#   From: 2010.05.17/outbox.cif.g08.bks.cpg/sg15_150_cif.got.tgz:298372.got - 2010.06.03 18:47:42.
