data_PCOD9257962
_publ_section_title
;
Structure prediction by ZEFSAII (Michael W. Deem and Ramdas Pophale) SiO2 
 PCOD9257962
Probable space group: C 2/C
;
_chemical_formula_sum "Si O2"
_cell_formula_units_Z 60
_cell_length_a 23.408656
_cell_length_b 12.880527
_cell_length_c 14.155201
_cell_angle_alpha 90.000000
_cell_angle_beta 44.469880
_cell_angle_gamma 90.000000
_cell_volume 2989.892027
_symmetry_space_group_name_H-M "C 2/C"
_symmetry_group_IT_number 15
_symmetry_cell_setting 'monoclinic'
loop_
_space_group_symop_operation_xyz
x,y,z
-x,y,1/2-z
-x,-y,-z
x,-y,1/2+z
1/2+x,1/2+y,z
1/2-x,1/2+y,1/2-z
1/2-x,1/2-y,-z
1/2+x,1/2-y,1/2+z
loop_
_atom_site_type_symbol
_atom_site_label
_atom_site_fract_x
_atom_site_fract_y
_atom_site_fract_z
Si Si1 0.000000 0.196115 0.250000
Si Si2 0.588970 0.075687 0.106406
Si Si3 0.471778 0.825989 0.010152
Si Si4 0.848520 0.640834 0.273924
Si Si5 0.675264 0.906168 0.215563
Si Si6 0.654847 0.152877 0.536186
Si Si7 0.800714 0.206632 0.688034
Si Si8 0.480270 0.609319 0.474785
O O1 0.923449 0.272791 0.355271
O O2 0.007378 0.124444 0.334033
O O3 0.500000 0.044553 0.250000
O O4 0.572366 0.140845 0.033154
O O5 0.629468 0.143435 0.141702
O O6 0.633623 0.966610 0.037659
O O7 0.566215 0.858372 0.886520
O O8 0.420692 0.881620 0.153286
O O9 0.474321 0.703428 0.024800
O O10 0.810476 0.528217 0.305199
O O11 0.796985 0.734573 0.292071
O O12 0.698329 0.855820 0.087309
O O13 0.725933 0.861524 0.242334
O O14 0.696118 0.204681 0.396972
O O15 0.883869 0.138738 0.590400
O O16 0.500000 0.500000 0.500000
#
# Coordination Sequence:
#
# PCOD9257962 Si02
#       8
#     4   8   8   8   8   8   8   8
#     4  10  18  36  58  84 102 146 194 244 264 334
#     4   9  17  31  58  88 114 137 181 237 295 335
#     4  10  19  35  59  86 109 140 188 236 288 336
#     4   9  20  35  54  82 113 146 184 230 281 338
#     4  11  20  33  56  83 113 148 181 231 297 337
#     4  10  18  32  56  85 113 142 186 233 290 337
#     4  10  22  36  54  80 119 145 190 238 278 334
#     4  10  22  40  57  80 111 154 200 231 273 334
#
# _framework density 20.067615
#
# number of rings (size 3 to 8) (size 9 to 14) (size 15 to 20)
#    0.000    2.133    2.000    1.600    0.000    1.067 
#    6.000    0.667    2.933    0.000    0.000    0.000 
#    0.000    0.000    0.000    0.000    0.000    0.000 
#
# Total GULP energy -167400.891255 kJ/mol
# GULP energy per Si atom -5580.029708 kJ/mol
# Density = 2.002194 g / cm^3
# Si number density = 20.067615 Si / 1000 Ang^3
#
#
#
# Elastic Constant Matrix: (Units=GPa)
#
#
# Indices 1 2 3 4 5 6 
#
# 1 95.3688 46.5890 6.7398 0.0000 18.5174 0.0000
# 2 46.5890 97.3617 12.3738 0.0000 20.3455 0.0000
# 3 6.7398 12.3738 31.0918 0.0000 13.8348 0.0000
# 4 0.0000 0.0000 0.0000 11.8401 0.0000 4.2023
# 5 18.5174 20.3455 13.8348 0.0000 20.3459 0.0000
# 6 0.0000 0.0000 0.0000 4.2023 0.0000 25.2737
#
#
#
# Elastic Compliance Matrix: (Units=1/GPa)
#
#
# Indices 1 2 3 4 5 6 
#
# 1 0.014930 -0.005373 0.003667 0.000000 -0.010710 0.000000
# 2 -0.005373 0.014934 -0.000444 0.000000 -0.009742 0.000000
# 3 0.003667 -0.000444 0.047076 0.000000 -0.034904 0.000000
# 4 0.000000 0.000000 0.000000 0.089755 0.000000 -0.014924
# 5 -0.010710 -0.009742 -0.034904 0.000000 0.092373 0.000000
# 6 0.000000 0.000000 0.000000 -0.014924 0.000000 0.042048
#
#
# Mechanical properties :
#
#
# Convention : Reuss Voigt Hill
#
# Bulk Modulus (GPa) = 13.76620 39.46971 26.61795
# Shear Modulus (GPa) = 15.16856 22.03326 18.60091
#
# Velocity S-wave (km/s) = 2.75230 3.31713 3.04783
# Velocity P-wave (km/s) = 4.12007 5.86363 5.06740
#
# Compressibility (1/GPa) = 0.07264170
#
# Stress axis : x y z
#
# Youngs Moduli (GPa) = 66.97700 66.96112 21.24245
#
# Poissons Ratio (x) = 0.35975 -0.07790
# Poissons Ratio (y) = 0.35983 0.00943
# Poissons Ratio (z) = -0.24561 0.02972
#
# Static dielectric constant tensor:
#      x y z
#    x 1.735150 0.000000 -0.006940 
#    y 0.000000 1.672840 0.000000 
#    z -0.006940 0.000000 1.748540 
# 
# From -- ./inp_files/173141.got.cif
#   From: 2010.05.17/outbox.cif.g08.bks.cpg/sg15_87_cif.got.tgz:173141.got - 2010.06.03 18:47:42.
