data_PCOD9257096
_publ_section_title
;
Structure prediction by ZEFSAII (Michael W. Deem and Ramdas Pophale) SiO2 
 PCOD9257096
Probable space group: C 2/C
;
_chemical_formula_sum "Si O2"
_cell_formula_units_Z 48
_cell_length_a 18.506513
_cell_length_b 5.094871
_cell_length_c 22.135549
_cell_angle_alpha 90.000000
_cell_angle_beta 123.533211
_cell_angle_gamma 90.000000
_cell_volume 1739.754433
_symmetry_space_group_name_H-M "C 2/C"
_symmetry_group_IT_number 15
_symmetry_cell_setting 'monoclinic'
loop_
_space_group_symop_operation_xyz
x,y,z
-x,y,1/2-z
-x,-y,-z
x,-y,1/2+z
1/2+x,1/2+y,z
1/2-x,1/2+y,1/2-z
1/2-x,1/2-y,-z
1/2+x,1/2-y,1/2+z
loop_
_atom_site_type_symbol
_atom_site_label
_atom_site_fract_x
_atom_site_fract_y
_atom_site_fract_z
Si Si1 0.475881 0.437358 0.168541
Si Si2 0.149665 0.913792 0.977774
Si Si3 0.581957 0.892854 0.003949
Si Si4 0.714057 0.014312 0.357938
Si Si5 0.083495 0.433251 0.209810
Si Si6 0.214370 0.507846 0.664147
O O1 0.500000 0.438797 0.250000
O O2 0.375792 0.501598 0.102478
O O3 0.514837 0.160662 0.164814
O O4 0.536410 0.666641 0.170434
O O5 0.125936 0.614711 0.981764
O O6 0.078492 0.104356 0.975453
O O7 0.241174 0.992390 0.053854
O O8 0.647239 0.858744 0.088645
O O9 0.500000 0.000000 0.000000
O O10 0.615935 0.925342 0.294964
O O11 0.709078 0.296745 0.320431
O O12 0.770284 0.789474 0.349354
O O13 0.168736 0.466959 0.207277
#
# Coordination Sequence:
#
# PCOD9257096 Si02
#       6
#     8   8   8   8   8   8
#     4  12  26  43  60  82 112 155 207 252 284 322
#     4  10  21  37  56  80 115 148 186 240 285 332
#     4  10  18  30  53  85 116 149 183 221 281 351
#     4  10  21  37  60  92 123 150 182 227 291 363
#     4  12  23  40  62  87 118 156 192 236 289 343
#     4  10  19  33  58  92 124 150 180 224 286 361
#
# _framework density 27.590101000000001
#
# number of rings (size 3 to 8) (size 9 to 14) (size 15 to 20)
#    0.000    1.333    0.000    7.000    0.000    2.667 
#    0.000    1.667    0.000    0.000    0.000    0.000 
#    0.000    0.000    0.000    0.000    0.000    0.000 
#
# Total GULP energy -133993.504494 kJ/mol
# GULP energy per Si atom -5583.062687 kJ/mol
# Density = 2.752730 g / cm^3
# Si number density = 27.590101 Si / 1000 Ang^3
#
#
#
# Elastic Constant Matrix: (Units=GPa)
#
#
# Indices 1 2 3 4 5 6 
#
# 1 86.6122 46.7286 15.8630 0.0000 -14.8002 0.0002
# 2 46.7286 147.7953 27.8813 -0.0001 -13.8575 0.0001
# 3 15.8630 27.8813 186.0708 -0.0004 6.0364 0.0000
# 4 0.0000 -0.0001 -0.0004 45.5733 -0.0001 8.2915
# 5 -14.8002 -13.8575 6.0364 -0.0001 36.3127 -0.0002
# 6 0.0002 0.0001 0.0000 8.2915 -0.0002 20.7398
#
#
#
# Elastic Compliance Matrix: (Units=1/GPa)
#
#
# Indices 1 2 3 4 5 6 
#
# 1 0.014659 -0.004058 -0.000789 0.000000 0.004557 0.000000
# 2 -0.004058 0.008392 -0.000967 0.000000 0.001709 0.000000
# 3 -0.000789 -0.000967 0.005639 0.000000 -0.001628 0.000000
# 4 0.000000 0.000000 0.000000 0.023664 0.000000 -0.009461
# 5 0.004557 0.001709 -0.001628 0.000000 0.030319 0.000000
# 6 0.000000 0.000000 0.000000 -0.009461 0.000000 0.051999
#
#
# Mechanical properties :
#
#
# Convention : Reuss Voigt Hill
#
# Bulk Modulus (GPa) = 58.61555 66.82489 62.72022
# Shear Modulus (GPa) = 32.89748 42.52554 37.71151
#
# Velocity S-wave (km/s) = 3.45681 3.93024 3.70110
# Velocity P-wave (km/s) = 6.10115 6.69843 6.40675
#
# Compressibility (1/GPa) = 0.01706032
#
# Stress axis : x y z
#
# Youngs Moduli (GPa) = 68.21950 119.16216 177.32693
#
# Poissons Ratio (x) = 0.48361 0.13998
# Poissons Ratio (y) = 0.27686 0.17146
# Poissons Ratio (z) = 0.05385 0.11522
#
# Static dielectric constant tensor:
#      x y z
#    x 1.817500 0.000000 -0.038440 
#    y 0.000000 1.788960 0.000000 
#    z -0.038440 0.000000 2.388060 
# 
# From -- ./inp_files/281063.got.cif
#   From: 2010.05.17/outbox.cif.g08.bks.cpg/sg15_141_cif.got.tgz:281063.got - 2010.06.03 18:47:42.
