data_PCOD9257532
_publ_section_title
;
Structure prediction by ZEFSAII (Michael W. Deem and Ramdas Pophale) SiO2 
 PCOD9257532
Probable space group: C 2/C
;
_chemical_formula_sum "Si O2"
_cell_formula_units_Z 56
_cell_length_a 29.381072
_cell_length_b 9.137094
_cell_length_c 11.932668
_cell_angle_alpha 90.000000
_cell_angle_beta 63.779404
_cell_angle_gamma 90.000000
_cell_volume 2873.782878
_symmetry_space_group_name_H-M "C 2/C"
_symmetry_group_IT_number 15
_symmetry_cell_setting 'monoclinic'
loop_
_space_group_symop_operation_xyz
x,y,z
-x,y,1/2-z
-x,-y,-z
x,-y,1/2+z
1/2+x,1/2+y,z
1/2-x,1/2+y,1/2-z
1/2-x,1/2-y,-z
1/2+x,1/2-y,1/2+z
loop_
_atom_site_type_symbol
_atom_site_label
_atom_site_fract_x
_atom_site_fract_y
_atom_site_fract_z
Si Si1 0.488621 0.275726 0.601046
Si Si2 0.870821 0.972410 0.322827
Si Si3 0.477080 0.377321 0.156801
Si Si4 0.585025 0.755566 0.136078
Si Si5 0.291413 0.695018 0.295831
Si Si6 0.311552 0.090961 0.975072
Si Si7 0.699931 0.243085 0.978266
O O1 0.495988 0.273340 0.461856
O O2 0.490067 0.450619 0.625298
O O3 0.437936 0.214701 0.714092
O O4 0.538252 0.213313 0.606568
O O5 0.915762 0.881098 0.214412
O O6 0.836732 0.866425 0.433199
O O7 0.900012 0.084777 0.373244
O O8 0.834654 0.074792 0.283932
O O9 0.500000 0.335069 0.250000
O O10 0.635915 0.835264 0.047281
O O11 0.300566 0.839005 0.363736
O O12 0.236891 0.633444 0.395918
O O13 0.291749 0.730254 0.163574
O O14 0.319763 0.919207 0.975781
O O15 0.750000 0.250000 0.000000
#
# Coordination Sequence:
#
# PCOD9257532 Si02
#       7
#     8   8   8   8   8   8   8
#     4   9  17  32  57  87 118 161 203 259 304 374
#     4  10  21  38  61  96 122 166 203 265 317 374
#     4  10  18  31  57  93 125 148 210 261 308 365
#     4   9  18  37  61  87 120 163 211 249 320 369
#     4  10  24  43  63  88 130 166 214 257 315 379
#     4  10  23  42  63  91 123 171 209 259 315 388
#     4  12  26  40  64  93 130 162 214 267 317 374
#
# _framework density 19.486509999999999
#
# number of rings (size 3 to 8) (size 9 to 14) (size 15 to 20)
#    0.000    2.000    4.286    0.000    4.000    3.429 
#    0.000    0.000    3.143    0.857    0.000    0.000 
#    0.000    0.000    0.000    0.000    0.000    0.000 
#
# Total GULP energy -156046.107345 kJ/mol
# GULP energy per Si atom -5573.075262 kJ/mol
# Density = 1.944216 g / cm^3
# Si number density = 19.486510 Si / 1000 Ang^3
#
#
#
# Elastic Constant Matrix: (Units=GPa)
#
#
# Indices 1 2 3 4 5 6 
#
# 1 88.3649 14.4107 55.0065 0.0000 -13.5280 0.0000
# 2 14.4107 56.7305 28.7942 0.0000 3.7209 0.0000
# 3 55.0065 28.7942 111.7180 0.0000 19.3165 0.0000
# 4 0.0000 0.0000 0.0000 10.3663 0.0000 0.5873
# 5 -13.5280 3.7209 19.3165 0.0000 34.4964 0.0000
# 6 0.0000 0.0000 0.0000 0.5873 0.0000 4.3526
#
#
#
# Elastic Compliance Matrix: (Units=1/GPa)
#
#
# Indices 1 2 3 4 5 6 
#
# 1 0.022606 0.000320 -0.014106 0.000000 0.016729 0.000000
# 2 0.000320 0.020306 -0.005574 0.000000 0.001056 0.000000
# 3 -0.014106 -0.005574 0.020135 0.000000 -0.016205 0.000000
# 4 0.000000 0.000000 0.000000 0.097209 0.000000 -0.013116
# 5 0.016729 0.001056 -0.016205 0.000000 0.044509 0.000000
# 6 0.000000 0.000000 0.000000 -0.013116 0.000000 0.231516
#
#
# Mechanical properties :
#
#
# Convention : Reuss Voigt Hill
#
# Bulk Modulus (GPa) = 41.10536 50.35958 45.73247
# Shear Modulus (GPa) = 10.34962 20.41654 15.38308
#
# Velocity S-wave (km/s) = 2.30710 3.24037 2.81271
# Velocity P-wave (km/s) = 5.31385 6.31660 5.83680
#
# Compressibility (1/GPa) = 0.02432773
#
# Stress axis : x y z
#
# Youngs Moduli (GPa) = 44.23528 49.24734 49.66529
#
# Poissons Ratio (x) = -0.01575 0.70056
# Poissons Ratio (y) = -0.01414 0.27682
# Poissons Ratio (z) = 0.62397 0.27449
#
# Static dielectric constant tensor:
#      x y z
#    x 1.702350 0.000000 -0.013300 
#    y 0.000000 1.639260 0.000000 
#    z -0.013300 0.000000 1.721310 
# 
# From -- ./inp_files/125848.got.cif
#   From: 2010.05.17/outbox.cif.g08.bks.cpg/sg15_63_cif.got.tgz:125848.got - 2010.06.03 18:47:42.
