data_PCOD9257935
_publ_section_title
;
Structure prediction by ZEFSAII (Michael W. Deem and Ramdas Pophale) SiO2 
 PCOD9257935
Probable space group: C 2/C
;
_chemical_formula_sum "Si O2"
_cell_formula_units_Z 48
_cell_length_a 8.767237
_cell_length_b 22.392973
_cell_length_c 12.529070
_cell_angle_alpha 90.000000
_cell_angle_beta 61.598930
_cell_angle_gamma 90.000000
_cell_volume 2163.705534
_symmetry_space_group_name_H-M "C 2/C"
_symmetry_group_IT_number 15
_symmetry_cell_setting 'monoclinic'
loop_
_space_group_symop_operation_xyz
x,y,z
-x,y,1/2-z
-x,-y,-z
x,-y,1/2+z
1/2+x,1/2+y,z
1/2-x,1/2+y,1/2-z
1/2-x,1/2-y,-z
1/2+x,1/2-y,1/2+z
loop_
_atom_site_type_symbol
_atom_site_label
_atom_site_fract_x
_atom_site_fract_y
_atom_site_fract_z
Si Si1 0.000000 0.406608 0.750000
Si Si2 0.593353 0.439974 0.428050
Si Si3 0.500000 0.427249 0.750000
Si Si4 0.810363 0.496494 0.166319
Si Si5 0.451085 0.238498 0.895095
Si Si6 0.553253 0.896854 0.107771
Si Si7 0.357941 0.352502 0.594395
O O1 0.919086 0.452575 0.691493
O O2 0.845327 0.365096 0.843079
O O3 0.500000 0.500000 0.500000
O O4 0.693485 0.459511 0.289519
O O5 0.744082 0.410843 0.450809
O O6 0.449854 0.388521 0.468252
O O7 0.342839 0.469207 0.842073
O O8 0.424699 0.386914 0.679899
O O9 0.947074 0.447470 0.080123
O O10 0.500000 0.243499 0.750000
O O11 0.483741 0.169930 0.916384
O O12 0.572921 0.285849 0.914780
O O13 0.250000 0.250000 0.000000
O O14 0.500000 0.900432 0.250000
#
# Coordination Sequence:
#
# PCOD9257935 Si02
#       7
#     4   8   4   8   8   8   8
#     4  10  18  32  56  80 116 154 192 238 304 370
#     4  11  16  29  57  80 112 149 198 228 294 367
#     4  10  20  32  54  84 120 144 190 260 290 344
#     4  10  18  34  55  82 114 152 193 242 297 357
#     4  11  22  38  63  89 118 157 203 250 289 352
#     4   9  18  32  53  83 107 150 194 232 284 354
#     4  11  21  35  57  87 115 154 199 244 301 351
#
# _framework density 22.184163999999999
#
# number of rings (size 3 to 8) (size 9 to 14) (size 15 to 20)
#    0.000    1.667    8.333    0.000    0.000    0.000 
#    0.000    1.667   11.000    1.000    0.000    0.000 
#    0.000    0.000    0.000    0.000    0.000    0.000 
#
# Total GULP energy -133889.050841 kJ/mol
# GULP energy per Si atom -5578.710452 kJ/mol
# Density = 2.213367 g / cm^3
# Si number density = 22.184164 Si / 1000 Ang^3
#
#
#
# Elastic Constant Matrix: (Units=GPa)
#
#
# Indices 1 2 3 4 5 6 
#
# 1 77.6515 44.4279 33.4676 0.0000 -36.9814 0.0000
# 2 44.4279 165.9015 28.8714 0.0000 -20.7225 0.0000
# 3 33.4676 28.8714 99.8359 0.0000 -28.0172 0.0000
# 4 0.0000 0.0000 0.0000 74.0940 0.0000 -173.4956
# 5 -36.9814 -20.7225 -28.0172 0.0000 45.0035 0.0000
# 6 0.0000 0.0000 0.0000 -173.4956 0.0000 632.1657
#
#
#
# Elastic Compliance Matrix: (Units=1/GPa)
#
#
# Indices 1 2 3 4 5 6 
#
# 1 0.023959 -0.003967 -0.002268 0.000000 0.016450 0.000000
# 2 -0.003967 0.007181 -0.000889 0.000000 -0.000506 0.000000
# 3 -0.002268 -0.000889 0.012597 0.000000 0.005569 0.000000
# 4 0.000000 0.000000 0.000000 0.037766 0.000000 0.010365
# 5 0.016450 -0.000506 0.005569 0.000000 0.038972 0.000000
# 6 0.000000 0.000000 0.000000 0.010365 0.000000 0.004426
#
#
# Mechanical properties :
#
#
# Convention : Reuss Voigt Hill
#
# Bulk Modulus (GPa) = 33.91074 61.88028 47.89551
# Shear Modulus (GPa) = 33.56148 166.02743 99.79445
#
# Velocity S-wave (km/s) = 3.89377 8.66043 6.71433
# Velocity P-wave (km/s) = 5.96108 11.31187 9.04137
#
# Compressibility (1/GPa) = 0.02948918
#
# Stress axis : x y z
#
# Youngs Moduli (GPa) = 41.73710 139.24773 79.38551
#
# Poissons Ratio (x) = 0.55237 0.18007
# Poissons Ratio (y) = 0.16556 0.07058
# Poissons Ratio (z) = 0.09467 0.12381
#
# Static dielectric constant tensor:
#      x y z
#    x 1.889220 0.000000 -0.024880 
#    y 0.000000 1.800750 0.000000 
#    z -0.024880 0.000000 1.917000 
# 
# From -- ./inp_files/192862.got.cif
#   From: 2010.05.17/outbox.cif.g08.bks.cpg/sg15_97_cif.got.tgz:192862.got - 2010.06.03 18:47:42.
