data_PCOD9257222
_publ_section_title
;
Structure prediction by ZEFSAII (Michael W. Deem and Ramdas Pophale) SiO2 
 PCOD9257222
Probable space group: C 2/C
;
_chemical_formula_sum "Si O2"
_cell_formula_units_Z 56
_cell_length_a 16.330109
_cell_length_b 27.649018
_cell_length_c 7.766779
_cell_angle_alpha 90.000000
_cell_angle_beta 127.943926
_cell_angle_gamma 90.000000
_cell_volume 2765.499756
_symmetry_space_group_name_H-M "C 2/C"
_symmetry_group_IT_number 15
_symmetry_cell_setting 'monoclinic'
loop_
_space_group_symop_operation_xyz
x,y,z
-x,y,1/2-z
-x,-y,-z
x,-y,1/2+z
1/2+x,1/2+y,z
1/2-x,1/2+y,1/2-z
1/2-x,1/2-y,-z
1/2+x,1/2-y,1/2+z
loop_
_atom_site_type_symbol
_atom_site_label
_atom_site_fract_x
_atom_site_fract_y
_atom_site_fract_z
Si Si1 0.200684 0.149498 0.076926
Si Si2 0.000000 0.126663 0.250000
Si Si3 0.822873 0.806579 0.620501
Si Si4 0.000000 0.216475 0.750000
Si Si5 0.698551 0.146372 0.665548
Si Si6 0.681267 0.440749 0.127839
Si Si7 0.875810 0.047226 0.561984
Si Si8 0.548632 0.216910 0.626945
O O1 0.274617 0.148263 0.003424
O O2 0.160253 0.095803 0.081167
O O3 0.101456 0.182400 0.895039
O O4 0.245444 0.174084 0.307816
O O5 0.068752 0.162707 0.224198
O O6 0.082022 0.090861 0.443339
O O7 0.781999 0.821226 0.380309
O O8 0.855443 0.751949 0.694590
O O9 0.009757 0.250710 0.593106
O O10 0.718602 0.092932 0.771871
O O11 0.590818 0.170080 0.581626
O O12 0.674076 0.444010 0.320377
O O13 0.666602 0.495430 0.049754
O O14 0.000000 0.045067 0.750000
O O15 0.500000 0.206018 0.750000
#
# Coordination Sequence:
#
# PCOD9257222 Si02
#       8
#     8   4   8   4   8   8   8   8
#     4  10  21  34  53  81 114 150 175 222 261 322
#     4  10  18  31  46  80 110 148 181 210 244 322
#     4  10  20  33  56  76 112 147 182 213 268 320
#     4  10  22  35  58  84 112 142 193 214 264 330
#     4  10  23  37  50  79 114 142 186 229 268 319
#     4  10  22  30  48  75 112 142 180 216 253 318
#     4  11  19  30  49  76 110 147 180 203 258 317
#     4  11  22  38  58  78 103 145 186 235 279 319
#
# _framework density 20.249504999999999
#
# number of rings (size 3 to 8) (size 9 to 14) (size 15 to 20)
#    0.000    1.714    2.143    2.571   12.000    3.429 
#    0.000    0.000    0.000    0.000    0.000    4.000 
#    0.000    0.000    0.000    0.000    0.000    0.000 
#
# Total GULP energy -156018.291889 kJ/mol
# GULP energy per Si atom -5572.081853 kJ/mol
# Density = 2.020342 g / cm^3
# Si number density = 20.249505 Si / 1000 Ang^3
#
#
#
# Elastic Constant Matrix: (Units=GPa)
#
#
# Indices 1 2 3 4 5 6 
#
# 1 69.1078 41.7192 4.7087 0.0000 -21.4069 0.0000
# 2 41.7192 114.4584 -7.2959 0.0000 2.5081 0.0000
# 3 4.7087 -7.2959 17.4276 0.0000 -8.9105 0.0000
# 4 0.0000 0.0000 0.0000 24.9577 0.0000 -10.1868
# 5 -21.4069 2.5081 -8.9105 0.0000 20.7001 0.0000
# 6 0.0000 0.0000 0.0000 -10.1868 0.0000 27.8541
#
#
#
# Elastic Compliance Matrix: (Units=1/GPa)
#
#
# Indices 1 2 3 4 5 6 
#
# 1 0.033970 -0.012894 0.005364 0.000000 0.039001 0.000000
# 2 -0.012894 0.013878 0.002072 0.000000 -0.014124 0.000000
# 3 0.005364 0.002072 0.076299 0.000000 0.038140 0.000000
# 4 0.000000 0.000000 0.000000 0.047098 0.000000 0.017225
# 5 0.039001 -0.014124 0.038140 0.000000 0.106771 0.000000
# 6 0.000000 0.000000 0.000000 0.017225 0.000000 0.042201
#
#
# Mechanical properties :
#
#
# Convention : Reuss Voigt Hill
#
# Bulk Modulus (GPa) = 8.83145 31.02866 19.93005
# Shear Modulus (GPa) = 13.55470 25.49316 19.52393
#
# Velocity S-wave (km/s) = 2.59005 3.55202 3.10847
# Velocity P-wave (km/s) = 3.64901 5.67265 4.76939
#
# Compressibility (1/GPa) = 0.11323175
#
# Stress axis : x y z
#
# Youngs Moduli (GPa) = 29.43793 72.05482 13.10637
#
# Poissons Ratio (x) = 0.92910 -0.07031
# Poissons Ratio (y) = 0.37958 -0.02716
# Poissons Ratio (z) = -0.15792 -0.14933
#
# Static dielectric constant tensor:
#      x y z
#    x 1.752550 0.000000 0.004020 
#    y 0.000000 4.655360 0.000000 
#    z 0.004020 0.000000 1.762310 
# 
# From -- ./inp_files/44338.got.cif
#   From: 2010.05.17/outbox.cif.g08.bks.cpg/sg15_23_cif.got.tgz:44338.got - 2010.06.03 18:47:42.
