data_PCOD9257381
_publ_section_title
;
Structure prediction by ZEFSAII (Michael W. Deem and Ramdas Pophale) SiO2 
 PCOD9257381
Probable space group: C 2/C
;
_chemical_formula_sum "Si O2"
_cell_formula_units_Z 60
_cell_length_a 20.459125
_cell_length_b 13.864735
_cell_length_c 12.125383
_cell_angle_alpha 90.000000
_cell_angle_beta 63.582017
_cell_angle_gamma 90.000000
_cell_volume 3080.311802
_symmetry_space_group_name_H-M "C 2/C"
_symmetry_group_IT_number 15
_symmetry_cell_setting 'monoclinic'
loop_
_space_group_symop_operation_xyz
x,y,z
-x,y,1/2-z
-x,-y,-z
x,-y,1/2+z
1/2+x,1/2+y,z
1/2-x,1/2+y,1/2-z
1/2-x,1/2-y,-z
1/2+x,1/2-y,1/2+z
loop_
_atom_site_type_symbol
_atom_site_label
_atom_site_fract_x
_atom_site_fract_y
_atom_site_fract_z
Si Si1 0.273494 0.632063 0.641254
Si Si2 0.327635 0.705653 0.186195
Si Si3 0.636755 0.359525 0.214345
Si Si4 0.000000 0.266386 0.750000
Si Si5 0.396460 0.870331 0.994072
Si Si6 0.827909 0.526543 0.171430
Si Si7 0.294983 0.163159 0.373331
Si Si8 0.687436 0.565671 0.127426
O O1 0.232529 0.731821 0.700589
O O2 0.340314 0.623296 0.676444
O O3 0.214354 0.550318 0.718534
O O4 0.300014 0.616693 0.498090
O O5 0.285063 0.650444 0.119121
O O6 0.357764 0.630127 0.251290
O O7 0.380164 0.782762 0.090378
O O8 0.560823 0.305912 0.253184
O O9 0.693136 0.277809 0.129705
O O10 0.650459 0.460999 0.144942
O O11 0.037336 0.335274 0.631031
O O12 0.327062 0.878082 0.961948
O O13 0.393863 0.969951 0.063481
O O14 0.844709 0.616349 0.237947
O O15 0.766688 0.554180 0.127025
#
# Coordination Sequence:
#
# PCOD9257381 Si02
#       8
#     8   8   8   4   8   8   8   8
#     4   9  17  31  50  77 108 130 156 206 265 313
#     4   9  18  30  51  80 106 132 163 204 258 313
#     4   9  20  34  49  72 100 137 178 209 245 293
#     4  10  22  38  52  66  98 144 184 222 242 276
#     4  10  19  34  51  71  99 136 175 210 248 297
#     4   9  18  29  50  80 102 123 160 207 264 321
#     4   9  17  31  51  76 102 127 158 211 267 310
#     4  10  18  31  52  81 109 132 159 203 261 317
#
# _framework density 19.478546999999999
#
# number of rings (size 3 to 8) (size 9 to 14) (size 15 to 20)
#    0.000    2.667    0.000    2.400    0.000    8.533 
#    0.000    5.333    0.000    0.000    0.000    0.000 
#    0.000    0.000    0.000    0.000    0.000    0.000 
#
# Total GULP energy -167203.929909 kJ/mol
# GULP energy per Si atom -5573.464330 kJ/mol
# Density = 1.943421 g / cm^3
# Si number density = 19.478547 Si / 1000 Ang^3
#
#
#
# Elastic Constant Matrix: (Units=GPa)
#
#
# Indices 1 2 3 4 5 6 
#
# 1 29.0866 -2.6223 14.8210 0.0000 -2.6001 0.0000
# 2 -2.6223 84.5680 40.4165 0.0000 -0.5170 0.0000
# 3 14.8210 40.4165 112.1456 0.0000 7.8394 0.0000
# 4 0.0000 0.0000 0.0000 33.1873 0.0000 6.2090
# 5 -2.6001 -0.5170 7.8394 0.0000 28.7243 0.0000
# 6 0.0000 0.0000 0.0000 6.2090 0.0000 15.1999
#
#
#
# Elastic Compliance Matrix: (Units=1/GPa)
#
#
# Indices 1 2 3 4 5 6 
#
# 1 0.038992 0.004703 -0.007239 0.000000 0.005590 0.000000
# 2 0.004703 0.014934 -0.006170 0.000000 0.002378 0.000000
# 3 -0.007239 -0.006170 0.012387 0.000000 -0.004147 0.000000
# 4 0.000000 0.000000 0.000000 0.032625 0.000000 -0.013327
# 5 0.005590 0.002378 -0.004147 0.000000 0.036494 0.000000
# 6 0.000000 0.000000 0.000000 -0.013327 0.000000 0.071234
#
#
# Mechanical properties :
#
#
# Convention : Reuss Voigt Hill
#
# Bulk Modulus (GPa) = 20.44925 36.78118 28.61521
# Shear Modulus (GPa) = 20.80051 26.96795 23.88423
#
# Velocity S-wave (km/s) = 3.27137 3.72492 3.50549
# Velocity P-wave (km/s) = 4.97898 6.11751 5.57737
#
# Compressibility (1/GPa) = 0.04890155
#
# Stress axis : x y z
#
# Youngs Moduli (GPa) = 25.64614 66.96207 80.72931
#
# Poissons Ratio (x) = -0.31491 0.58438
# Poissons Ratio (y) = -0.12061 0.49808
# Poissons Ratio (z) = 0.18565 0.41314
#
# Static dielectric constant tensor:
#      x y z
#    x 1.674690 0.000000 0.003060 
#    y 0.000000 1.739240 0.000000 
#    z 0.003060 0.000000 1.726720 
# 
# From -- ./inp_files/112692.got.cif
#   From: 2010.05.17/outbox.cif.g08.bks.cpg/sg15_57_cif.got.tgz:112692.got - 2010.06.03 18:47:42.
