data_PCOD9257446
_publ_section_title
;
Structure prediction by ZEFSAII (Michael W. Deem and Ramdas Pophale) SiO2 
 PCOD9257446
Probable space group: C 2/C
;
_chemical_formula_sum "Si O2"
_cell_formula_units_Z 40
_cell_length_a 18.312606
_cell_length_b 6.299952
_cell_length_c 22.668577
_cell_angle_alpha 90.000000
_cell_angle_beta 58.476133
_cell_angle_gamma 90.000000
_cell_volume 2229.289777
_symmetry_space_group_name_H-M "C 2/C"
_symmetry_group_IT_number 15
_symmetry_cell_setting 'monoclinic'
loop_
_space_group_symop_operation_xyz
x,y,z
-x,y,1/2-z
-x,-y,-z
x,-y,1/2+z
1/2+x,1/2+y,z
1/2-x,1/2+y,1/2-z
1/2-x,1/2-y,-z
1/2+x,1/2-y,1/2+z
loop_
_atom_site_type_symbol
_atom_site_label
_atom_site_fract_x
_atom_site_fract_y
_atom_site_fract_z
Si Si1 0.296664 0.319592 0.420007
Si Si2 0.367630 0.028219 0.044275
Si Si3 0.542986 0.947189 0.668765
Si Si4 0.989731 0.772398 0.073453
Si Si5 0.421601 0.336147 0.921288
O O1 0.250000 0.250000 0.500000
O O2 0.223009 0.413988 0.409362
O O3 0.358004 0.132423 0.370891
O O4 0.359697 0.506274 0.413247
O O5 0.404406 0.173589 0.081226
O O6 0.367957 0.186893 0.988133
O O7 0.435369 0.845879 0.995834
O O8 0.500000 0.927584 0.750000
O O9 0.498388 0.804628 0.637236
O O10 0.536533 0.181845 0.644194
O O11 0.011791 0.022091 0.068422
#
# Coordination Sequence:
#
# PCOD9257446 Si02
#       5
#     8   8   8   8   8
#     4  11  19  34  57  85 110 142 187 240 282 334
#     4  10  18  31  54  87 113 136 175 238 288 331
#     4  10  22  37  55  78 111 153 195 232 281 349
#     4   9  19  33  54  82 113 141 179 228 284 340
#     4  10  18  31  54  82 111 144 185 226 287 344
#
# _framework density 17.942934000000001
#
# number of rings (size 3 to 8) (size 9 to 14) (size 15 to 20)
#    0.000    2.000    6.000    1.200    0.000    3.200 
#    0.000    0.000    4.400    0.000    0.000    0.000 
#    0.000    0.000    0.000    0.000    0.000    0.000 
#
# Total GULP energy -111436.735174 kJ/mol
# GULP energy per Si atom -5571.836759 kJ/mol
# Density = 1.790210 g / cm^3
# Si number density = 17.942934 Si / 1000 Ang^3
#
#
#
# Elastic Constant Matrix: (Units=GPa)
#
#
# Indices 1 2 3 4 5 6 
#
# 1 103.3834 28.1715 25.8664 0.0045 -0.2929 0.0143
# 2 28.1715 94.4815 27.1689 0.0230 -5.8583 0.0156
# 3 25.8664 27.1689 91.8459 0.0022 0.9191 0.0026
# 4 0.0045 0.0230 0.0022 7.6179 0.0017 2.5829
# 5 -0.2929 -5.8583 0.9191 0.0017 15.0640 0.0021
# 6 0.0143 0.0156 0.0026 2.5829 0.0021 40.9381
#
#
#
# Elastic Compliance Matrix: (Units=1/GPa)
#
#
# Indices 1 2 3 4 5 6 
#
# 1 0.010968 -0.002652 -0.002298 0.000003 -0.000678 -0.000003
# 2 -0.002652 0.012553 -0.003017 -0.000036 0.005014 -0.000002
# 3 -0.002298 -0.003017 0.012447 0.000007 -0.001977 0.000001
# 4 0.000003 -0.000036 0.000007 0.134139 -0.000028 -0.008463
# 5 -0.000678 0.005014 -0.001977 -0.000028 0.068441 -0.000003
# 6 -0.000003 -0.000002 0.000001 -0.008463 -0.000003 0.024961
#
#
# Mechanical properties :
#
#
# Convention : Reuss Voigt Hill
#
# Bulk Modulus (GPa) = 49.90994 50.23605 50.07300
# Shear Modulus (GPa) = 17.47514 26.62428 22.04971
#
# Velocity S-wave (km/s) = 3.12417 3.85623 3.50934
# Velocity P-wave (km/s) = 6.39455 6.91996 6.66243
#
# Compressibility (1/GPa) = 0.02003609
#
# Stress axis : x y z
#
# Youngs Moduli (GPa) = 91.17191 79.66137 80.34002
#
# Poissons Ratio (x) = 0.21124 0.18461
# Poissons Ratio (y) = 0.24176 0.24236
# Poissons Ratio (z) = 0.20950 0.24032
#
# Static dielectric constant tensor:
#      x y z
#    x 1.672750 0.000000 0.002920 
#    y 0.000000 1.689870 0.000000 
#    z 0.002920 0.000000 1.584820 
# 
# From -- ./inp_files/208091.got.cif
#   From: 2010.05.17/outbox.cif.g08.bks.cpg/sg15_105_cif.got.tgz:208091.got - 2010.06.03 18:47:42.
