data_PCOD9257690
_publ_section_title
;
Structure prediction by ZEFSAII (Michael W. Deem and Ramdas Pophale) SiO2 
 PCOD9257690
Probable space group: C 2/C
;
_chemical_formula_sum "Si O2"
_cell_formula_units_Z 60
_cell_length_a 29.179528
_cell_length_b 19.144348
_cell_length_c 5.101936
_cell_angle_alpha 90.000000
_cell_angle_beta 100.220262
_cell_angle_gamma 90.000000
_cell_volume 2804.836883
_symmetry_space_group_name_H-M "C 2/C"
_symmetry_group_IT_number 15
_symmetry_cell_setting 'monoclinic'
loop_
_space_group_symop_operation_xyz
x,y,z
-x,y,1/2-z
-x,-y,-z
x,-y,1/2+z
1/2+x,1/2+y,z
1/2-x,1/2+y,1/2-z
1/2-x,1/2-y,-z
1/2+x,1/2-y,1/2+z
loop_
_atom_site_type_symbol
_atom_site_label
_atom_site_fract_x
_atom_site_fract_y
_atom_site_fract_z
Si Si1 0.397776 0.955970 0.892072
Si Si2 0.851015 0.199883 0.723860
Si Si3 0.785991 0.455406 0.761410
Si Si4 0.500000 0.188630 0.750000
Si Si5 0.248734 0.829612 0.390751
Si Si6 0.073376 0.346417 0.964814
Si Si7 0.951971 0.794266 0.313821
Si Si8 0.161492 0.293799 0.294531
O O1 0.341958 0.946009 0.817708
O O2 0.421416 0.887376 0.798785
O O3 0.409928 0.985415 0.186809
O O4 0.804662 0.156187 0.742901
O O5 0.902733 0.167002 0.809880
O O6 0.843421 0.230437 0.422489
O O7 0.847869 0.264383 0.926851
O O8 0.773624 0.484766 0.034247
O O9 0.763936 0.384926 0.624969
O O10 0.471863 0.138379 0.914350
O O11 0.466462 0.243893 0.567130
O O12 0.250000 0.750000 0.500000
O O13 0.287923 0.827093 0.203711
O O14 0.122009 0.348769 0.169066
O O15 0.063840 0.264430 0.908130
O O16 0.000000 0.827915 0.250000
#
# Coordination Sequence:
#
# PCOD9257690 Si02
#       8
#     8   8   8   4   8   8   8   8
#     4  10  22  36  53  73  97 137 185 231 268 319
#     4  10  20  32  50  80 110 137 175 221 276 330
#     4  10  22  39  57  80 114 157 191 223 275 342
#     4  10  18  32  52  68  94 138 174 222 284 340
#     4  10  21  37  58  89 117 149 186 238 284 331
#     4  10  19  33  51  70  97 130 185 220 276 325
#     4   9  19  32  51  74 101 141 173 218 281 343
#     4  10  19  32  50  77 108 138 169 226 273 328
#
# _framework density 21.39162
#
# number of rings (size 3 to 8) (size 9 to 14) (size 15 to 20)
#    0.000    2.133    2.667    0.400    1.867    4.267 
#    0.000    0.667    0.000    0.000    0.000    0.000 
#    0.000    1.067    0.000    0.000    0.000    0.000 
#
# Total GULP energy -167437.286396 kJ/mol
# GULP energy per Si atom -5581.242880 kJ/mol
# Density = 2.134293 g / cm^3
# Si number density = 21.391620 Si / 1000 Ang^3
#
#
#
# Elastic Constant Matrix: (Units=GPa)
#
#
# Indices 1 2 3 4 5 6 
#
# 1 133.0316 -9.0978 3.7034 0.0000 12.1579 0.0000
# 2 -9.0978 29.3595 1.1590 0.0000 2.0875 0.0000
# 3 3.7034 1.1590 58.5102 0.0000 -0.4019 0.0000
# 4 0.0000 0.0000 0.0000 20.8545 0.0000 9.7888
# 5 12.1579 2.0875 -0.4019 0.0000 21.9035 0.0000
# 6 0.0000 0.0000 0.0000 9.7888 0.0000 15.7780
#
#
#
# Elastic Compliance Matrix: (Units=1/GPa)
#
#
# Indices 1 2 3 4 5 6 
#
# 1 0.008173 0.002900 -0.000608 0.000000 -0.004824 0.000000
# 2 0.002900 0.035351 -0.000918 0.000000 -0.004995 0.000000
# 3 -0.000608 -0.000918 0.017153 0.000000 0.000740 0.000000
# 4 0.000000 0.000000 0.000000 0.067652 0.000000 -0.041972
# 5 -0.004824 -0.004995 0.000740 0.000000 0.048822 0.000000
# 6 0.000000 0.000000 0.000000 -0.041972 0.000000 0.089419
#
#
# Mechanical properties :
#
#
# Convention : Reuss Voigt Hill
#
# Bulk Modulus (GPa) = 15.76697 23.60341 19.68519
# Shear Modulus (GPa) = 17.54605 26.71631 22.13118
#
# Velocity S-wave (km/s) = 2.86707 3.53783 3.21997
# Velocity P-wave (km/s) = 4.28331 5.26747 4.80068
#
# Compressibility (1/GPa) = 0.06342371
#
# Stress axis : x y z
#
# Youngs Moduli (GPa) = 122.35236 28.28813 58.29962
#
# Poissons Ratio (x) = -0.08203 0.03544
# Poissons Ratio (y) = -0.35478 0.05353
# Poissons Ratio (z) = 0.07438 0.02597
#
# Static dielectric constant tensor:
#      x y z
#    x 1.940880 0.000000 -0.026170 
#    y 0.000000 1.789110 0.000000 
#    z -0.026170 0.000000 1.855860 
# 
# From -- ./inp_files/17463.got.cif
#   From: 2010.05.17/outbox.cif.g08.bks.cpg/sg15_9_cif.got.tgz:17463.got - 2010.06.03 18:47:42.
