data_PCOD9257759
_publ_section_title
;
Structure prediction by ZEFSAII (Michael W. Deem and Ramdas Pophale) SiO2 
 PCOD9257759
Probable space group: C 2/C
;
_chemical_formula_sum "Si O2"
_cell_formula_units_Z 48
_cell_length_a 11.309670
_cell_length_b 16.059980
_cell_length_c 13.803548
_cell_angle_alpha 90.000000
_cell_angle_beta 72.967275
_cell_angle_gamma 90.000000
_cell_volume 2397.209909
_symmetry_space_group_name_H-M "C 2/C"
_symmetry_group_IT_number 15
_symmetry_cell_setting 'monoclinic'
loop_
_space_group_symop_operation_xyz
x,y,z
-x,y,1/2-z
-x,-y,-z
x,-y,1/2+z
1/2+x,1/2+y,z
1/2-x,1/2+y,1/2-z
1/2-x,1/2-y,-z
1/2+x,1/2-y,1/2+z
loop_
_atom_site_type_symbol
_atom_site_label
_atom_site_fract_x
_atom_site_fract_y
_atom_site_fract_z
Si Si1 0.028925 0.188121 0.907190
Si Si2 0.558013 0.137001 0.501719
Si Si3 0.256934 0.581366 0.587117
Si Si4 0.896585 0.323707 0.209653
Si Si5 0.087470 0.428948 0.642369
Si Si6 0.165016 0.241885 0.674713
O O1 0.100479 0.108094 0.932252
O O2 0.098359 0.215681 0.790969
O O3 0.888118 0.185708 0.901119
O O4 0.046562 0.266287 0.974333
O O5 0.697081 0.118911 0.503202
O O6 0.473834 0.120792 0.616197
O O7 0.500698 0.083230 0.429349
O O8 0.187419 0.625275 0.695048
O O9 0.206207 0.487505 0.599625
O O10 0.807968 0.269191 0.164152
O O11 0.000000 0.278048 0.250000
O O12 0.132255 0.336352 0.658743
O O13 0.000000 0.459927 0.750000
#
# Coordination Sequence:
#
# PCOD9257759 Si02
#       6
#     8   8   8   8   8   8
#     4   9  17  32  51  77  98 141 177 209 255 319
#     4  10  18  32  53  77 100 138 180 217 261 308
#     4  10  20  31  50  78 110 128 169 226 268 302
#     4   9  19  34  54  77 103 134 175 219 257 308
#     4  11  19  32  51  79 107 137 175 223 267 302
#     4   9  17  34  55  72 103 142 178 210 258 321
#
# _framework density 20.023278000000001
#
# number of rings (size 3 to 8) (size 9 to 14) (size 15 to 20)
#    0.000    2.333    3.333    2.500    0.000    2.667 
#    0.000    0.000    7.333    2.000    0.000    0.000 
#    0.000    4.000    0.000    0.000    0.000    0.000 
#
# Total GULP energy -133683.997295 kJ/mol
# GULP energy per Si atom -5570.166554 kJ/mol
# Density = 1.997770 g / cm^3
# Si number density = 20.023278 Si / 1000 Ang^3
#
#
#
# Elastic Constant Matrix: (Units=GPa)
#
#
# Indices 1 2 3 4 5 6 
#
# 1 137.7863 45.7440 31.3143 0.0000 41.9830 0.0000
# 2 45.7440 55.5543 15.5539 0.0000 20.4021 0.0000
# 3 31.3143 15.5539 59.4809 0.0000 30.5252 0.0000
# 4 0.0000 0.0000 0.0000 16.1448 0.0000 5.0724
# 5 41.9830 20.4021 30.5252 0.0000 30.4475 0.0000
# 6 0.0000 0.0000 0.0000 5.0724 0.0000 32.2781
#
#
#
# Elastic Compliance Matrix: (Units=1/GPa)
#
#
# Indices 1 2 3 4 5 6 
#
# 1 0.014325 -0.005508 0.004411 0.000000 -0.020484 0.000000
# 2 -0.005508 0.026477 0.002438 0.000000 -0.012591 0.000000
# 3 0.004411 0.002438 0.036688 0.000000 -0.044497 0.000000
# 4 0.000000 0.000000 0.000000 0.065157 0.000000 -0.010239
# 5 -0.020484 -0.012591 -0.044497 0.000000 0.114135 0.000000
# 6 0.000000 0.000000 0.000000 -0.010239 0.000000 0.032590
#
#
# Mechanical properties :
#
#
# Convention : Reuss Voigt Hill
#
# Bulk Modulus (GPa) = 12.47328 48.67178 30.57253
# Shear Modulus (GPa) = 15.95334 26.45469 21.20402
#
# Velocity S-wave (km/s) = 2.82572 3.63877 3.25771
# Velocity P-wave (km/s) = 4.10964 6.48186 5.42696
#
# Compressibility (1/GPa) = 0.08017139
#
# Stress axis : x y z
#
# Youngs Moduli (GPa) = 69.80798 37.76853 27.25677
#
# Poissons Ratio (x) = 0.20802 -0.12022
# Poissons Ratio (y) = 0.38449 -0.06644
# Poissons Ratio (z) = -0.30791 -0.09206
#
# Static dielectric constant tensor:
#      x y z
#    x 1.834390 0.000000 -0.015870 
#    y 0.000000 1.710550 0.000000 
#    z -0.015870 0.000000 1.735280 
# 
# From -- ./inp_files/143543.got.cif
#   From: 2010.05.17/outbox.cif.g08.bks.cpg/sg15_72_cif.got.tgz:143543.got - 2010.06.03 18:47:42.
