data_PCOD9257177
_publ_section_title
;
Structure prediction by ZEFSAII (Michael W. Deem and Ramdas Pophale) SiO2 
 PCOD9257177
Probable space group: C 2/C
;
_chemical_formula_sum "Si O2"
_cell_formula_units_Z 48
_cell_length_a 28.972999
_cell_length_b 9.630570
_cell_length_c 11.607878
_cell_angle_alpha 90.000000
_cell_angle_beta 143.250833
_cell_angle_gamma 90.000000
_cell_volume 1937.879116
_symmetry_space_group_name_H-M "C 2/C"
_symmetry_group_IT_number 15
_symmetry_cell_setting 'monoclinic'
loop_
_space_group_symop_operation_xyz
x,y,z
-x,y,1/2-z
-x,-y,-z
x,-y,1/2+z
1/2+x,1/2+y,z
1/2-x,1/2+y,1/2-z
1/2-x,1/2-y,-z
1/2+x,1/2-y,1/2+z
loop_
_atom_site_type_symbol
_atom_site_label
_atom_site_fract_x
_atom_site_fract_y
_atom_site_fract_z
Si Si1 0.420305 0.506504 0.995634
Si Si2 0.483366 0.223597 0.348663
Si Si3 0.677125 0.672011 0.023296
Si Si4 0.730371 0.507188 0.449042
Si Si5 0.476105 0.215872 0.816170
Si Si6 0.701737 0.773663 0.547190
O O1 0.373641 0.450582 0.015929
O O2 0.349773 0.531121 0.769715
O O3 0.472208 0.373542 0.064590
O O4 0.474154 0.641045 0.091079
O O5 0.500000 0.172297 0.250000
O O6 0.513262 0.162009 0.531119
O O7 0.390640 0.237779 0.168137
O O8 0.740509 0.611289 0.062332
O O9 0.729775 0.744904 0.223925
O O10 0.716251 0.650098 0.487478
O O11 0.790398 0.564305 0.476744
O O12 0.500000 0.130001 0.750000
O O13 0.387604 0.244563 0.608863
#
# Coordination Sequence:
#
# PCOD9257177 Si02
#       6
#     8   8   8   8   8   8
#     4  10  18  30  57  90 124 156 198 254 316 365
#     4  10  19  31  54  87 125 157 198 248 307 367
#     4  10  20  35  56  90 127 161 199 260 319 372
#     4  10  18  35  57  85 129 161 203 253 325 373
#     4  12  21  34  58  90 124 164 207 255 310 371
#     4  10  22  34  57  91 126 165 203 262 320 374
#
# _framework density 24.769345999999999
#
# number of rings (size 3 to 8) (size 9 to 14) (size 15 to 20)
#    0.000    1.667    3.333    4.000    2.333    0.000 
#    0.000    0.833    0.000    1.000    0.000    0.000 
#    0.000    0.000    0.000    0.000    0.000    0.000 
#
# Total GULP energy -133698.310098 kJ/mol
# GULP energy per Si atom -5570.762921 kJ/mol
# Density = 2.471297 g / cm^3
# Si number density = 24.769346 Si / 1000 Ang^3
#
#
#
# Elastic Constant Matrix: (Units=GPa)
#
#
# Indices 1 2 3 4 5 6 
#
# 1 -259.4511 278.6254 611.2972 0.0000 -320.5352 0.0000
# 2 278.6254 -124.2176 -431.5542 0.0000 252.5940 0.0000
# 3 611.2972 -431.5542 -881.4895 0.0000 542.1219 0.0000
# 4 0.0000 0.0000 0.0000 20.6672 0.0000 -4.4132
# 5 -320.5352 252.5940 542.1219 0.0000 -243.7030 0.0000
# 6 0.0000 0.0000 0.0000 -4.4132 0.0000 63.4671
#
#
#
# Elastic Compliance Matrix: (Units=1/GPa)
#
#
# Indices 1 2 3 4 5 6 
#
# 1 0.007792 0.001164 0.001976 0.000000 -0.004647 0.000000
# 2 0.001164 0.011907 -0.004418 0.000000 0.000982 0.000000
# 3 0.001976 -0.004418 0.005476 0.000000 0.005004 0.000000
# 4 0.000000 0.000000 0.000000 0.049115 0.000000 0.003415
# 5 -0.004647 0.000982 0.005004 0.000000 0.014159 0.000000
# 6 0.000000 0.000000 0.000000 0.003415 0.000000 0.015994
#
#
# Mechanical properties :
#
#
# Convention : Reuss Voigt Hill
#
# Bulk Modulus (GPa) = 44.21207 -38.71348 2.74929
# Shear Modulus (GPa) = 43.65313 -146.81551 -51.58119
#
# Velocity S-wave (km/s) = 4.20263 -7.70725 -4.56835
# Velocity P-wave (km/s) = 6.43722 9.73991 5.16856
#
# Compressibility (1/GPa) = 0.02261826
#
# Stress axis : x y z
#
# Youngs Moduli (GPa) = 128.33593 83.98444 182.60595
#
# Poissons Ratio (x) = -0.09777 -0.36075
# Poissons Ratio (y) = -0.14940 0.80679
# Poissons Ratio (z) = -0.25354 0.37106
#
# Static dielectric constant tensor:
#      x y z
#    x 2.167750 0.000000 -0.069850 
#    y 0.000000 2.000780 0.000000 
#    z -0.069850 0.000000 1.900750 
# 
# From -- ./inp_files/126913.got.cif
#   From: 2010.05.17/outbox.cif.g08.bks.cpg/sg15_64_cif.got.tgz:126913.got - 2010.06.03 18:47:42.
