data_PCOD9257138
_publ_section_title
;
Structure prediction by ZEFSAII (Michael W. Deem and Ramdas Pophale) SiO2 
 PCOD9257138
Probable space group: C 2/C
;
_chemical_formula_sum "Si O2"
_cell_formula_units_Z 44
_cell_length_a 18.395474
_cell_length_b 9.136884
_cell_length_c 13.349720
_cell_angle_alpha 90.000000
_cell_angle_beta 137.272935
_cell_angle_gamma 90.000000
_cell_volume 1522.423301
_symmetry_space_group_name_H-M "C 2/C"
_symmetry_group_IT_number 15
_symmetry_cell_setting 'monoclinic'
loop_
_space_group_symop_operation_xyz
x,y,z
-x,y,1/2-z
-x,-y,-z
x,-y,1/2+z
1/2+x,1/2+y,z
1/2-x,1/2+y,1/2-z
1/2-x,1/2-y,-z
1/2+x,1/2-y,1/2+z
loop_
_atom_site_type_symbol
_atom_site_label
_atom_site_fract_x
_atom_site_fract_y
_atom_site_fract_z
Si Si1 0.500000 0.646486 0.250000
Si Si2 0.397129 0.412499 0.038318
Si Si3 0.214392 0.828921 0.179430
Si Si4 0.144241 0.164605 0.803417
Si Si5 0.071310 0.400247 0.191338
Si Si6 0.658329 0.048825 0.998517
O O1 0.403516 0.539675 0.129656
O O2 0.528691 0.742096 0.184576
O O3 0.354981 0.292495 0.077181
O O4 0.520416 0.369169 0.145400
O O5 0.345363 0.513392 0.900366
O O6 0.339961 0.866236 0.300488
O O7 0.191131 0.712117 0.067369
O O8 0.178394 0.736059 0.241881
O O9 0.238823 0.048630 0.877380
O O10 0.367696 0.043655 0.646912
O O11 0.958644 0.484933 0.069389
#
# Coordination Sequence:
#
# PCOD9257138 Si02
#       6
#     4   8   8   8   8   8
#     4   8  14  28  50  74  98 130 156 224 276 298
#     4  10  18  34  49  79 114 129 180 221 269 316
#     4  12  19  32  57  80 111 144 173 224 278 312
#     4  10  22  32  53  83 111 141 176 225 266 325
#     4  10  18  30  55  79 107 139 164 231 280 309
#     4  10  20  34  53  83 111 134 182 221 276 319
#
# _framework density 28.901288999999998
#
# number of rings (size 3 to 8) (size 9 to 14) (size 15 to 20)
#    0.000    2.182    5.455    3.273    0.000    0.727 
#    0.000    0.000    0.000    1.091    0.000    0.000 
#    0.000    0.000    0.000    0.000    0.000    0.000 
#
# Total GULP energy -122621.852647 kJ/mol
# GULP energy per Si atom -5573.720575 kJ/mol
# Density = 2.883551 g / cm^3
# Si number density = 28.901289 Si / 1000 Ang^3
#
#
#
# Elastic Constant Matrix: (Units=GPa)
#
#
# Indices 1 2 3 4 5 6 
#
# 1 217.6409 -1.8769 51.4852 0.0000 40.2732 0.0000
# 2 -1.8769 69.8814 32.7063 0.0000 6.4797 0.0000
# 3 51.4852 32.7063 131.8056 0.0000 12.7785 0.0000
# 4 0.0000 0.0000 0.0000 35.7424 0.0000 3.8300
# 5 40.2732 6.4797 12.7785 0.0000 51.7152 0.0000
# 6 0.0000 0.0000 0.0000 3.8300 0.0000 7.4606
#
#
#
# Elastic Compliance Matrix: (Units=1/GPa)
#
#
# Indices 1 2 3 4 5 6 
#
# 1 0.005946 0.001639 -0.002316 0.000000 -0.004263 0.000000
# 2 0.001639 0.016699 -0.004567 0.000000 -0.002240 0.000000
# 3 -0.002316 -0.004567 0.009625 0.000000 -0.000003 0.000000
# 4 0.000000 0.000000 0.000000 0.029607 0.000000 -0.015199
# 5 -0.004263 -0.002240 -0.000003 0.000000 0.022938 0.000000
# 6 0.000000 0.000000 0.000000 -0.015199 0.000000 0.141840
#
#
# Mechanical properties :
#
#
# Convention : Reuss Voigt Hill
#
# Bulk Modulus (GPa) = 45.90884 64.88413 55.39649
# Shear Modulus (GPa) = 20.45807 41.45120 30.95464
#
# Velocity S-wave (km/s) = 2.66345 3.79124 3.27624
# Velocity P-wave (km/s) = 5.03764 6.45474 5.78971
#
# Compressibility (1/GPa) = 0.02178230
#
# Stress axis : x y z
#
# Youngs Moduli (GPa) = 168.19274 59.88376 103.89679
#
# Poissons Ratio (x) = -0.09814 0.24060
# Poissons Ratio (y) = -0.27564 0.47446
# Poissons Ratio (z) = 0.38949 0.27347
#
# Static dielectric constant tensor:
#      x y z
#    x 2.514200 0.000000 -0.184860 
#    y 0.000000 2.535300 0.000000 
#    z -0.184860 0.000000 2.381410 
# 
# From -- ./inp_files/211005.got.cif
#   From: 2010.05.17/outbox.cif.g08.bks.cpg/sg15_106_cif.got.tgz:211005.got - 2010.06.03 18:47:42.
