data_PCOD9257189
_publ_section_title
;
Structure prediction by ZEFSAII (Michael W. Deem and Ramdas Pophale) SiO2 
 PCOD9257189
Probable space group: C 2/C
;
_chemical_formula_sum "Si O2"
_cell_formula_units_Z 36
_cell_length_a 21.948157
_cell_length_b 14.007496
_cell_length_c 9.070510
_cell_angle_alpha 90.000000
_cell_angle_beta 33.740032
_cell_angle_gamma 90.000000
_cell_volume 1548.874184
_symmetry_space_group_name_H-M "C 2/C"
_symmetry_group_IT_number 15
_symmetry_cell_setting 'monoclinic'
loop_
_space_group_symop_operation_xyz
x,y,z
-x,y,1/2-z
-x,-y,-z
x,-y,1/2+z
1/2+x,1/2+y,z
1/2-x,1/2+y,1/2-z
1/2-x,1/2-y,-z
1/2+x,1/2-y,1/2+z
loop_
_atom_site_type_symbol
_atom_site_label
_atom_site_fract_x
_atom_site_fract_y
_atom_site_fract_z
Si Si1 0.134254 0.913737 0.244472
Si Si2 0.000000 0.960694 0.250000
Si Si3 0.284156 0.078571 0.809066
Si Si4 0.864747 0.233297 0.531662
Si Si5 0.616435 0.936793 0.094722
O O1 0.165957 0.814345 0.251897
O O2 0.056246 0.897551 0.261449
O O3 0.075058 0.969041 0.500326
O O4 0.215656 0.992334 0.017506
O O5 0.380241 0.087299 0.738010
O O6 0.327596 0.035525 0.568149
O O7 0.203095 0.167859 0.948584
O O8 0.828001 0.342313 0.586786
O O9 0.000000 0.230356 0.250000
O O10 0.500000 0.940676 0.250000
#
# Coordination Sequence:
#
# PCOD9257189 Si02
#       5
#     8   4   8   8   8
#     4  11  18  34  60  92 129 162 201 253 317 374
#     4  10  18  30  58  94 132 164 188 250 336 374
#     4  12  22  43  66  94 127 172 212 262 319 379
#     4  11  22  40  68  98 128 162 211 263 325 380
#     4  11  26  44  67  88 128 175 219 260 314 377
#
# _framework density 23.242687
#
# number of rings (size 3 to 8) (size 9 to 14) (size 15 to 20)
#    0.000    0.889    5.556    2.667    0.000    0.889 
#    0.000    0.000    2.444    0.000    0.000    0.000 
#    0.000    0.000    0.000    0.000    0.000    0.000 
#
# Total GULP energy -100391.411744 kJ/mol
# GULP energy per Si atom -5577.300652 kJ/mol
# Density = 2.318979 g / cm^3
# Si number density = 23.242687 Si / 1000 Ang^3
#
#
#
# Elastic Constant Matrix: (Units=GPa)
#
#
# Indices 1 2 3 4 5 6 
#
# 1 154.8250 6.8490 12.9391 0.0000 10.0278 0.0000
# 2 6.8490 86.3558 9.8247 0.0000 -2.6034 0.0000
# 3 12.9391 9.8247 34.9689 0.0000 2.1365 0.0000
# 4 0.0000 0.0000 0.0000 22.3911 0.0000 -18.5159
# 5 10.0278 -2.6034 2.1365 0.0000 33.4119 0.0000
# 6 0.0000 0.0000 0.0000 -18.5159 0.0000 -41.6323
#
#
#
# Elastic Compliance Matrix: (Units=1/GPa)
#
#
# Indices 1 2 3 4 5 6 
#
# 1 0.006790 -0.000334 -0.002301 0.000000 -0.001917 0.000000
# 2 -0.000334 0.012023 -0.003331 0.000000 0.001250 0.000000
# 3 -0.002301 -0.003331 0.030477 0.000000 -0.001518 0.000000
# 4 0.000000 0.000000 0.000000 0.032652 0.000000 -0.014522
# 5 -0.001917 0.001250 -0.001518 0.000000 0.030699 0.000000
# 6 0.000000 0.000000 0.000000 -0.014522 0.000000 -0.017561
#
#
# Mechanical properties :
#
#
# Convention : Reuss Voigt Hill
#
# Bulk Modulus (GPa) = 26.76858 37.26393 32.01625
# Shear Modulus (GPa) = 41.85311 19.26993 30.56152
#
# Velocity S-wave (km/s) = 4.24807 2.88249 3.63007
# Velocity P-wave (km/s) = 5.96686 5.21015 5.60130
#
# Compressibility (1/GPa) = 0.03735723
#
# Stress axis : x y z
#
# Youngs Moduli (GPa) = 147.27137 83.17300 32.81180
#
# Poissons Ratio (x) = 0.02782 0.07551
# Poissons Ratio (y) = 0.04926 0.10928
# Poissons Ratio (z) = 0.33893 0.27701
#
# Static dielectric constant tensor:
#      x y z
#    x 2.022510 0.000000 -0.053260 
#    y 0.000000 1.881440 0.000000 
#    z -0.053260 0.000000 1.927290 
# 
# From -- ./inp_files/37587.got.cif
#   From: 2010.05.17/outbox.cif.g08.bks.cpg/sg15_19_cif.got.tgz:37587.got - 2010.06.03 18:47:42.
