data_PCOD9257050
_publ_section_title
;
Structure prediction by ZEFSAII (Michael W. Deem and Ramdas Pophale) SiO2 
 PCOD9257050
Probable space group: C 2/C
;
_chemical_formula_sum "Si O2"
_cell_formula_units_Z 60
_cell_length_a 5.229339
_cell_length_b 27.615280
_cell_length_c 16.819010
_cell_angle_alpha 90.000000
_cell_angle_beta 91.531624
_cell_angle_gamma 90.000000
_cell_volume 2427.959767
_symmetry_space_group_name_H-M "C 2/C"
_symmetry_group_IT_number 15
_symmetry_cell_setting 'monoclinic'
loop_
_space_group_symop_operation_xyz
x,y,z
-x,y,1/2-z
-x,-y,-z
x,-y,1/2+z
1/2+x,1/2+y,z
1/2-x,1/2+y,1/2-z
1/2-x,1/2-y,-z
1/2+x,1/2-y,1/2+z
loop_
_atom_site_type_symbol
_atom_site_label
_atom_site_fract_x
_atom_site_fract_y
_atom_site_fract_z
Si Si1 0.263138 0.865884 0.482969
Si Si2 0.103050 0.604290 0.677167
Si Si3 0.758746 0.222040 0.301604
Si Si4 0.445959 0.221270 0.444836
Si Si5 0.348511 0.942511 0.933467
Si Si6 0.000000 0.028650 0.750000
Si Si7 0.581028 0.356174 0.877257
Si Si8 0.731988 0.973457 0.401443
O O1 0.227355 0.873103 0.389866
O O2 0.414593 0.816859 0.498042
O O3 0.429474 0.908575 0.525634
O O4 0.011062 0.861612 0.532556
O O5 0.268412 0.562264 0.718840
O O6 0.000000 0.635468 0.750000
O O7 0.870445 0.578459 0.629689
O O8 0.500000 0.226344 0.250000
O O9 0.667445 0.242784 0.387864
O O10 0.000000 0.240900 0.250000
O O11 0.848782 0.166161 0.324046
O O12 0.250000 0.250000 0.500000
O O13 0.279965 0.187584 0.383741
O O14 0.210471 0.908440 0.867013
O O15 0.495348 0.989546 0.903720
O O16 0.182312 0.961587 0.007627
O O17 0.911214 0.005495 0.833019
#
# Coordination Sequence:
#
# PCOD9257050 Si02
#       8
#     8   8   8   8   8   4   8   8
#     4   9  19  34  60  91 116 160 217 263 326 394
#     4   9  18  33  55  78 118 167 210 266 330 391
#     4  11  22  42  71  99 134 178 222 265 336 404
#     4  10  22  41  71  99 127 170 217 273 328 400
#     4   9  18  34  56  87 117 163 218 274 316 392
#     4  10  18  30  52  76 116 170 214 268 340 386
#     4  10  20  37  65  89 130 167 221 264 332 393
#     4   9  18  32  55  81 119 160 221 270 333 382
#
# _framework density 24.712107
#
# number of rings (size 3 to 8) (size 9 to 14) (size 15 to 20)
#    0.000    2.400    1.333    0.800    0.000    4.267 
#    0.000    4.000   49.867    0.000    0.000    0.000 
#    0.000    0.000    0.000    4.667    0.000    0.000 
#
# Total GULP energy -167182.808168 kJ/mol
# GULP energy per Si atom -5572.760272 kJ/mol
# Density = 2.465586 g / cm^3
# Si number density = 24.712107 Si / 1000 Ang^3
#
#
#
# Elastic Constant Matrix: (Units=GPa)
#
#
# Indices 1 2 3 4 5 6 
#
# 1 87.0245 16.9013 17.0401 0.0000 -13.9832 0.0000
# 2 16.9013 55.5434 10.6278 0.0000 -2.8964 0.0000
# 3 17.0401 10.6278 97.0177 0.0000 -53.0450 0.0000
# 4 0.0000 0.0000 0.0000 10.8606 0.0000 -6.8657
# 5 -13.9832 -2.8964 -53.0450 0.0000 55.6708 0.0000
# 6 0.0000 0.0000 0.0000 -6.8657 0.0000 34.6446
#
#
#
# Elastic Compliance Matrix: (Units=1/GPa)
#
#
# Indices 1 2 3 4 5 6 
#
# 1 0.012699 -0.003652 -0.000397 0.000000 0.002621 0.000000
# 2 -0.003652 0.019548 -0.003017 0.000000 -0.002775 0.000000
# 3 -0.000397 -0.003017 0.022060 0.000000 0.020762 0.000000
# 4 0.000000 0.000000 0.000000 0.105263 0.000000 0.020861
# 5 0.002621 -0.002775 0.020762 0.000000 0.038260 0.000000
# 6 0.000000 0.000000 0.000000 0.020861 0.000000 0.032999
#
#
# Mechanical properties :
#
#
# Convention : Reuss Voigt Hill
#
# Bulk Modulus (GPa) = 24.89166 36.52490 30.70828
# Shear Modulus (GPa) = 19.35348 33.23631 26.29490
#
# Velocity S-wave (km/s) = 2.80153 3.67132 3.26552
# Velocity P-wave (km/s) = 4.53424 5.72571 5.16445
#
# Compressibility (1/GPa) = 0.04017410
#
# Stress axis : x y z
#
# Youngs Moduli (GPa) = 78.74541 51.15697 45.33164
#
# Poissons Ratio (x) = 0.18680 0.01801
# Poissons Ratio (y) = 0.28754 0.13678
# Poissons Ratio (z) = 0.03129 0.15436
#
# Static dielectric constant tensor:
#      x y z
#    x 2.197520 0.000000 0.038150 
#    y 0.000000 2.000690 0.000000 
#    z 0.038150 0.000000 2.109420 
# 
# From -- ./inp_files/186526.got.cif
#   From: 2010.05.17/outbox.cif.g08.bks.cpg/sg15_94_cif.got.tgz:186526.got - 2010.06.03 18:47:42.
