data_PCOD9257091
_publ_section_title
;
Structure prediction by ZEFSAII (Michael W. Deem and Ramdas Pophale) SiO2 
 PCOD9257091
Probable space group: C 2/C
;
_chemical_formula_sum "Si O2"
_cell_formula_units_Z 64
_cell_length_a 33.602959
_cell_length_b 13.470450
_cell_length_c 13.615260
_cell_angle_alpha 90.000000
_cell_angle_beta 144.563222
_cell_angle_gamma 90.000000
_cell_volume 3573.279462
_symmetry_space_group_name_H-M "C 2/C"
_symmetry_group_IT_number 15
_symmetry_cell_setting 'monoclinic'
loop_
_space_group_symop_operation_xyz
x,y,z
-x,y,1/2-z
-x,-y,-z
x,-y,1/2+z
1/2+x,1/2+y,z
1/2-x,1/2+y,1/2-z
1/2-x,1/2-y,-z
1/2+x,1/2-y,1/2+z
loop_
_atom_site_type_symbol
_atom_site_label
_atom_site_fract_x
_atom_site_fract_y
_atom_site_fract_z
Si Si1 0.638367 0.151411 0.660726
Si Si2 0.267309 0.990806 0.027994
Si Si3 0.061412 0.882969 0.165057
Si Si4 0.332505 0.865872 0.505249
Si Si5 0.160656 0.114085 0.179479
Si Si6 0.989221 0.306865 0.843005
Si Si7 0.291845 0.354090 0.940122
Si Si8 0.033860 0.029935 0.417129
O O1 0.683818 0.094736 0.831136
O O2 0.664615 0.119138 0.605757
O O3 0.646226 0.271222 0.677408
O O4 0.556712 0.130453 0.505217
O O5 0.301548 0.046087 0.005333
O O6 0.198407 0.940744 0.845501
O O7 0.254907 0.074482 0.087311
O O8 0.013760 0.790645 0.096786
O O9 0.133080 0.869146 0.362330
O O10 0.027632 0.979218 0.146019
O O11 0.067048 0.893234 0.059685
O O12 0.412833 0.851667 0.696375
O O13 0.287121 0.766102 0.434135
O O14 0.205399 0.115945 0.169056
O O15 0.091249 0.054185 0.013850
O O16 0.000000 0.277866 0.750000
O O17 0.000000 0.069353 0.250000
#
# Coordination Sequence:
#
# PCOD9257091 Si02
#       8
#     8   8   8   8   8   8   8   8
#     4  10  21  37  58  79 107 143 184 231 277 324
#     4  12  22  36  53  82 116 144 184 226 273 332
#     4  10  18  30  53  83 104 139 182 225 269 320
#     4   9  21  37  58  82 104 142 191 227 274 324
#     4  11  21  35  53  81 115 146 181 222 279 330
#     4   9  17  35  61  81 106 140 190 233 267 319
#     4  10  20  35  57  78 109 150 180 226 269 329
#     4  11  19  30  52  81 113 140 180 229 272 315
#
# _framework density 17.910717999999999
#
# number of rings (size 3 to 8) (size 9 to 14) (size 15 to 20)
#    0.000    1.750    3.750    2.625    0.000    0.500 
#    0.000    0.000    0.000    3.000    0.000    0.000 
#    0.000    0.000    0.000    0.000    0.000    0.000 
#
# Total GULP energy -178326.208639 kJ/mol
# GULP energy per Si atom -5572.694020 kJ/mol
# Density = 1.786995 g / cm^3
# Si number density = 17.910718 Si / 1000 Ang^3
#
#
#
# Elastic Constant Matrix: (Units=GPa)
#
#
# Indices 1 2 3 4 5 6 
#
# 1 38.3313 21.6730 5.0236 0.0000 -0.6436 0.0000
# 2 21.6730 43.5982 19.9019 0.0000 -2.1881 0.0000
# 3 5.0236 19.9019 66.7260 0.0000 -13.7022 0.0000
# 4 0.0000 0.0000 0.0000 22.9250 0.0000 -1.5531
# 5 -0.6436 -2.1881 -13.7022 0.0000 21.9433 0.0000
# 6 0.0000 0.0000 0.0000 -1.5531 0.0000 12.6272
#
#
#
# Elastic Compliance Matrix: (Units=1/GPa)
#
#
# Indices 1 2 3 4 5 6 
#
# 1 0.036866 -0.019810 0.003383 0.000000 0.001219 0.000000
# 2 -0.019810 0.037330 -0.010321 0.000000 -0.003303 0.000000
# 3 0.003383 -0.010321 0.020211 0.000000 0.011691 0.000000
# 4 0.000000 0.000000 0.000000 0.043987 0.000000 0.005410
# 5 0.001219 -0.003303 0.011691 0.000000 0.052578 0.000000
# 6 0.000000 0.000000 0.000000 0.005410 0.000000 0.079860
#
#
# Mechanical properties :
#
#
# Convention : Reuss Voigt Hill
#
# Bulk Modulus (GPa) = 24.44280 26.87250 25.65765
# Shear Modulus (GPa) = 14.79447 18.30289 16.54868
#
# Velocity S-wave (km/s) = 2.87716 3.20018 3.04296
# Velocity P-wave (km/s) = 4.97132 5.35640 5.16745
#
# Compressibility (1/GPa) = 0.04091184
#
# Stress axis : x y z
#
# Youngs Moduli (GPa) = 27.12527 26.78819 49.47801
#
# Poissons Ratio (x) = 0.53066 -0.16739
# Poissons Ratio (y) = 0.53734 0.51067
# Poissons Ratio (z) = -0.09177 0.27648
#
# Static dielectric constant tensor:
#      x y z
#    x 1.630150 0.000000 -0.000130 
#    y 0.000000 1.626990 0.000000 
#    z -0.000130 0.000000 1.620740 
# 
# From -- ./inp_files/126898.got.cif
#   From: 2010.05.17/outbox.cif.g08.bks.cpg/sg15_64_cif.got.tgz:126898.got - 2010.06.03 18:47:42.
