data_PCOD9257383
_publ_section_title
;
Structure prediction by ZEFSAII (Michael W. Deem and Ramdas Pophale) SiO2 
 PCOD9257383
Probable space group: C 2/C
;
_chemical_formula_sum "Si O2"
_cell_formula_units_Z 56
_cell_length_a 11.743658
_cell_length_b 20.684469
_cell_length_c 23.548258
_cell_angle_alpha 90.000000
_cell_angle_beta 145.862073
_cell_angle_gamma 90.000000
_cell_volume 3210.067498
_symmetry_space_group_name_H-M "C 2/C"
_symmetry_group_IT_number 15
_symmetry_cell_setting 'monoclinic'
loop_
_space_group_symop_operation_xyz
x,y,z
-x,y,1/2-z
-x,-y,-z
x,-y,1/2+z
1/2+x,1/2+y,z
1/2-x,1/2+y,1/2-z
1/2-x,1/2-y,-z
1/2+x,1/2-y,1/2+z
loop_
_atom_site_type_symbol
_atom_site_label
_atom_site_fract_x
_atom_site_fract_y
_atom_site_fract_z
Si Si1 0.179942 0.281392 0.104707
Si Si2 0.733157 0.448947 0.243600
Si Si3 0.500000 0.823413 0.750000
Si Si4 0.493612 0.057894 0.310618
Si Si5 0.036600 0.064700 0.978336
Si Si6 0.667561 0.703509 0.589835
Si Si7 0.000000 0.890307 0.250000
Si Si8 0.082574 0.687660 0.694704
O O1 0.329391 0.221841 0.154933
O O2 0.321259 0.343877 0.151193
O O3 0.127373 0.284947 0.150446
O O4 0.980081 0.262715 0.987328
O O5 0.575848 0.447794 0.127037
O O6 0.607670 0.433030 0.247508
O O7 0.889701 0.389824 0.298747
O O8 0.856941 0.515043 0.294095
O O9 0.592981 0.872032 0.741868
O O10 0.500000 0.024396 0.250000
O O11 0.720605 0.069168 0.425552
O O12 0.944333 0.133237 0.962288
O O13 0.000000 0.000000 0.000000
O O14 0.753440 0.708269 0.689640
O O15 0.861859 0.703569 0.628329
#
# Coordination Sequence:
#
# PCOD9257383 Si02
#       8
#     8   8   4   8   8   8   4   8
#     4  10  18  36  52  76 114 138 185 214 267 328
#     4  10  20  36  54  76 112 140 183 220 259 337
#     4   9  18  32  50  82 106 131 164 230 282 307
#     4  10  18  31  52  83 106 128 168 228 278 304
#     4  11  18  30  54  87 107 134 173 229 282 313
#     4  10  18  32  53  81 111 138 184 218 276 319
#     4   9  22  40  54  72 106 161 180 208 264 329
#     4   9  20  31  52  81 106 149 174 222 262 321
#
# _framework density 17.445115999999999
#
# number of rings (size 3 to 8) (size 9 to 14) (size 15 to 20)
#    0.429    1.714    2.857    1.286    2.000    0.000 
#    2.571    3.571    0.000    1.714    0.000    0.000 
#    0.000    0.000    0.000    0.000    0.000    0.000 
#
# Total GULP energy -155899.181423 kJ/mol
# GULP energy per Si atom -5567.827908 kJ/mol
# Density = 1.740541 g / cm^3
# Si number density = 17.445116 Si / 1000 Ang^3
#
#
#
# Elastic Constant Matrix: (Units=GPa)
#
#
# Indices 1 2 3 4 5 6 
#
# 1 61.9631 39.3465 20.1730 0.0001 13.0940 0.0000
# 2 39.3465 69.7567 23.5444 0.0000 -0.4906 -0.0001
# 3 20.1730 23.5444 77.6388 -0.0002 15.8131 -0.0001
# 4 0.0001 0.0000 -0.0002 19.6535 0.0002 5.0385
# 5 13.0940 -0.4906 15.8131 0.0002 18.2598 0.0000
# 6 0.0000 -0.0001 -0.0001 5.0385 0.0000 18.7664
#
#
#
# Elastic Compliance Matrix: (Units=1/GPa)
#
#
# Indices 1 2 3 4 5 6 
#
# 1 0.033828 -0.020259 0.002921 0.000000 -0.027331 0.000000
# 2 -0.020259 0.028591 -0.007919 0.000000 0.022153 0.000000
# 3 0.002921 -0.007919 0.018203 0.000000 -0.018071 0.000000
# 4 0.000000 0.000000 0.000000 0.054643 -0.000001 -0.014671
# 5 -0.027331 0.022153 -0.018071 -0.000001 0.090609 0.000000
# 6 0.000000 0.000000 0.000000 -0.014671 0.000000 0.057226
#
#
# Mechanical properties :
#
#
# Convention : Reuss Voigt Hill
#
# Bulk Modulus (GPa) = 33.21270 41.72073 37.46671
# Shear Modulus (GPa) = 14.54976 19.75558 17.15267
#
# Velocity S-wave (km/s) = 2.89109 3.36883 3.13906
# Velocity P-wave (km/s) = 5.49766 6.25295 5.88743
#
# Compressibility (1/GPa) = 0.03010897
#
# Stress axis : x y z
#
# Youngs Moduli (GPa) = 29.56174 34.97612 54.93515
#
# Poissons Ratio (x) = 0.70857 -0.16045
# Poissons Ratio (y) = 0.59888 0.43501
# Poissons Ratio (z) = -0.08634 0.27696
#
# Static dielectric constant tensor:
#      x y z
#    x 1.594030 0.000000 0.003540 
#    y 0.000000 1.603560 0.000000 
#    z 0.003540 0.000000 1.621430 
# 
# From -- ./inp_files/270988.got.cif
#   From: 2010.05.17/outbox.cif.g08.bks.cpg/sg15_136_cif.got.tgz:270988.got - 2010.06.03 18:47:42.
