data_PCOD9257943
_publ_section_title
;
Structure prediction by ZEFSAII (Michael W. Deem and Ramdas Pophale) SiO2 
 PCOD9257943
Probable space group: C 2/C
;
_chemical_formula_sum "Si O2"
_cell_formula_units_Z 64
_cell_length_a 23.453745
_cell_length_b 19.868019
_cell_length_c 9.241930
_cell_angle_alpha 90.000000
_cell_angle_beta 42.249578
_cell_angle_gamma 90.000000
_cell_volume 2895.557439
_symmetry_space_group_name_H-M "C 2/C"
_symmetry_group_IT_number 15
_symmetry_cell_setting 'monoclinic'
loop_
_space_group_symop_operation_xyz
x,y,z
-x,y,1/2-z
-x,-y,-z
x,-y,1/2+z
1/2+x,1/2+y,z
1/2-x,1/2+y,1/2-z
1/2-x,1/2-y,-z
1/2+x,1/2-y,1/2+z
loop_
_atom_site_type_symbol
_atom_site_label
_atom_site_fract_x
_atom_site_fract_y
_atom_site_fract_z
Si Si1 0.750790 0.274878 0.160705
Si Si2 0.841533 0.237677 0.255876
Si Si3 0.915405 0.302140 0.487725
Si Si4 0.526958 0.887860 0.859411
Si Si5 0.868487 0.618086 0.816436
Si Si6 0.666386 0.410001 0.698686
Si Si7 0.791863 0.572205 0.529466
Si Si8 0.804902 0.020352 0.066933
O O1 0.820639 0.236942 0.125220
O O2 0.658066 0.252448 0.388508
O O3 0.750000 0.250000 0.000000
O O4 0.770183 0.353573 0.129478
O O5 0.750000 0.250000 0.500000
O O6 0.884455 0.307537 0.215673
O O7 0.871739 0.164497 0.247435
O O8 0.935172 0.328087 0.610839
O O9 0.885727 0.368141 0.452723
O O10 0.000000 0.278038 0.250000
O O11 0.500000 0.865449 0.750000
O O12 0.608564 0.934879 0.683518
O O13 0.445522 0.919868 0.093739
O O14 0.770457 0.597196 0.984873
O O15 0.641706 0.464831 0.624376
O O16 0.650175 0.435330 0.893273
O O17 0.741876 0.561459 0.472485
O O18 0.760726 0.520730 0.709269
#
# Coordination Sequence:
#
# PCOD9257943 Si02
#       8
#     8   8   8   8   8   8   8   8
#     4  12  20  33  59  89 111 142 190 239 308 342
#     4  10  18  32  56  82 106 142 186 236 300 350
#     4  10  21  35  52  83 119 144 176 227 295 368
#     4  11  21  36  53  79 116 149 185 235 292 332
#     4  10  20  35  56  79 110 151 188 231 299 347
#     4  10  18  34  50  74 109 143 192 234 274 328
#     4  11  22  38  56  79 117 152 193 243 273 332
#     4  10  22  35  51  76 112 153 200 234 263 328
#
# _framework density 22.102823999999998
#
# number of rings (size 3 to 8) (size 9 to 14) (size 15 to 20)
#    0.000    1.500    3.750    4.500    0.000    0.000 
#    0.000    6.875    0.000    0.000    0.000    0.875 
#    0.000    0.000    0.000    0.000    0.000    0.000 
#
# Total GULP energy -178605.259758 kJ/mol
# GULP energy per Si atom -5581.414367 kJ/mol
# Density = 2.205252 g / cm^3
# Si number density = 22.102824 Si / 1000 Ang^3
#
#
#
# Elastic Constant Matrix: (Units=GPa)
#
#
# Indices 1 2 3 4 5 6 
#
# 1 49.4564 1.4024 13.8258 0.0000 31.6434 0.0000
# 2 1.4024 70.8834 9.9824 0.0000 17.3948 0.0000
# 3 13.8258 9.9824 63.2472 0.0000 26.6115 0.0000
# 4 0.0000 0.0000 0.0000 27.2310 0.0000 9.5484
# 5 31.6434 17.3948 26.6115 0.0000 42.3708 0.0000
# 6 0.0000 0.0000 0.0000 9.5484 0.0000 21.5863
#
#
#
# Elastic Compliance Matrix: (Units=1/GPa)
#
#
# Indices 1 2 3 4 5 6 
#
# 1 0.043695 0.008030 0.005842 0.000000 -0.039598 0.000000
# 2 0.008030 0.017169 0.001391 0.000000 -0.013919 0.000000
# 3 0.005842 0.001391 0.022277 0.000000 -0.018926 0.000000
# 4 0.000000 0.000000 0.000000 0.043464 0.000000 -0.019226
# 5 -0.039598 -0.013919 -0.018926 0.000000 0.070775 0.000000
# 6 0.000000 0.000000 0.000000 -0.019226 0.000000 0.054830
#
#
# Mechanical properties :
#
#
# Convention : Reuss Voigt Hill
#
# Bulk Modulus (GPa) = 8.79756 26.00092 17.39924
# Shear Modulus (GPa) = 19.26251 28.79606 24.02928
#
# Velocity S-wave (km/s) = 2.95531 3.61338 3.30079
# Velocity P-wave (km/s) = 3.95400 5.40350 4.73455
#
# Compressibility (1/GPa) = 0.11366794
#
# Stress axis : x y z
#
# Youngs Moduli (GPa) = 22.88605 58.24572 44.88855
#
# Poissons Ratio (x) = -0.46772 -0.26224
# Poissons Ratio (y) = -0.18378 -0.06246
# Poissons Ratio (z) = -0.13370 -0.08105
#
# Static dielectric constant tensor:
#      x y z
#    x 1.845020 0.000000 0.009600 
#    y 0.000000 1.909890 0.000000 
#    z 0.009600 0.000000 1.884760 
# 
# From -- ./inp_files/67427.got.cif
#   From: 2010.05.17/outbox.cif.g08.bks.cpg/sg15_34_cif.got.tgz:67427.got - 2010.06.03 18:47:42.
