data_PCOD9257206
_publ_section_title
;
Structure prediction by ZEFSAII (Michael W. Deem and Ramdas Pophale) SiO2 
 PCOD9257206
Probable space group: C 2/C
;
_chemical_formula_sum "Si O2"
_cell_formula_units_Z 56
_cell_length_a 27.907750
_cell_length_b 7.279123
_cell_length_c 11.485958
_cell_angle_alpha 90.000000
_cell_angle_beta 61.763831
_cell_angle_gamma 90.000000
_cell_volume 2055.651381
_symmetry_space_group_name_H-M "C 2/C"
_symmetry_group_IT_number 15
_symmetry_cell_setting 'monoclinic'
loop_
_space_group_symop_operation_xyz
x,y,z
-x,y,1/2-z
-x,-y,-z
x,-y,1/2+z
1/2+x,1/2+y,z
1/2-x,1/2+y,1/2-z
1/2-x,1/2-y,-z
1/2+x,1/2-y,1/2+z
loop_
_atom_site_type_symbol
_atom_site_label
_atom_site_fract_x
_atom_site_fract_y
_atom_site_fract_z
Si Si1 0.860936 0.152154 0.406241
Si Si2 0.613438 0.755598 0.681933
Si Si3 0.698084 0.291199 0.740080
Si Si4 0.001483 0.082664 0.888049
Si Si5 0.531316 0.806885 0.332196
Si Si6 0.681667 0.283079 0.308942
Si Si7 0.092999 0.366428 0.472551
O O1 0.810766 0.227355 0.387728
O O2 0.914075 0.210529 0.275011
O O3 0.858867 0.236018 0.536316
O O4 0.860790 0.929624 0.406320
O O5 0.559393 0.690404 0.812010
O O6 0.658621 0.816780 0.722641
O O7 0.600539 0.910892 0.600835
O O8 0.681418 0.501224 0.781801
O O9 0.757927 0.264573 0.720609
O O10 0.653208 0.168034 0.856620
O O11 0.000000 0.029898 0.750000
O O12 0.999607 0.865642 0.935670
O O13 0.943188 0.183323 0.963627
O O14 0.500000 0.872990 0.250000
O O15 0.554571 0.939564 0.409781
#
# Coordination Sequence:
#
# PCOD9257206 Si02
#       7
#     8   8   8   8   8   8   8
#     4   9  18  33  49  71 105 136 173 214 261 313
#     4  10  19  29  48  75 102 139 167 216 272 309
#     4  10  22  36  53  76 101 147 174 223 260 303
#     4   9  16  25  42  68 104 134 160 199 263 324
#     4   9  17  24  45  71 101 140 163 200 264 323
#     4  11  21  36  54  73 108 137 185 217 260 310
#     4  10  18  31  43  71 110 133 168 209 264 322
#
# _framework density 27.241973999999999
#
# number of rings (size 3 to 8) (size 9 to 14) (size 15 to 20)
#    0.000    2.286    1.429    5.143    4.000    0.571 
#    0.000    0.000    0.000    0.000    0.000    1.000 
#    0.000    0.000    0.000    0.000    0.000    0.000 
#
# Total GULP energy -156366.691887 kJ/mol
# GULP energy per Si atom -5584.524710 kJ/mol
# Density = 2.717997 g / cm^3
# Si number density = 27.241974 Si / 1000 Ang^3
#
#
#
# Elastic Constant Matrix: (Units=GPa)
#
#
# Indices 1 2 3 4 5 6 
#
# 1 215.4752 17.0501 39.1275 0.0000 30.7892 0.0000
# 2 17.0501 79.8152 16.7791 0.0000 5.4559 0.0000
# 3 39.1275 16.7791 95.1417 0.0000 15.0487 0.0000
# 4 0.0000 0.0000 0.0000********** 0.0000**********
# 5 30.7892 5.4559 15.0487 0.0000 59.5266 0.0000
# 6 0.0000 0.0000 0.0000********** 0.0000**********
#
#
#
# Elastic Compliance Matrix: (Units=1/GPa)
#
#
# Indices 1 2 3 4 5 6 
#
# 1 0.005326 -0.000621 -0.001723 0.000000 -0.002262 0.000000
# 2 -0.000621 0.013107 -0.001997 0.000000 -0.000375 0.000000
# 3 -0.001723 -0.001997 0.011876 0.000000 -0.001928 0.000000
# 4 0.000000 0.000000 0.000000 0.011639 0.000000 -0.012646
# 5 -0.002262 -0.000375 -0.001928 0.000000 0.018491 0.000000
# 6 0.000000 0.000000 0.000000 -0.012646 0.000000 0.013676
#
#
# Mechanical properties :
#
#
# Convention : Reuss Voigt Hill
#
# Bulk Modulus (GPa) = 46.23635 59.59396 52.91515
# Shear Modulus (GPa) = 55.55112 -6864.82491 -3404.63690
#
# Velocity S-wave (km/s) = 4.52062 -50.25350 -35.39053
# Velocity P-wave (km/s) = 6.65262 57.83854 40.62659
#
# Compressibility (1/GPa) = 0.02162801
#
# Stress axis : x y z
#
# Youngs Moduli (GPa) = 187.75136 76.29505 84.20059
#
# Poissons Ratio (x) = 0.04737 0.14508
# Poissons Ratio (y) = 0.11657 0.16813
# Poissons Ratio (z) = 0.32351 0.15235
#
# Static dielectric constant tensor:
#      x y z
#    x 2.236600 0.000000 0.260740 
#    y 0.000000 2.176390 0.000000 
#    z 0.260740 0.000000 2.354310 
# 
# From -- ./inp_files/117497.got.cif
#   From: 2010.05.17/outbox.cif.g08.bks.cpg/sg15_59_cif.got.tgz:117497.got - 2010.06.03 18:47:42.
