data_PCOD9257726
_publ_section_title
;
Structure prediction by ZEFSAII (Michael W. Deem and Ramdas Pophale) SiO2 
 PCOD9257726
Probable space group: C 2/C
;
_chemical_formula_sum "Si O2"
_cell_formula_units_Z 52
_cell_length_a 22.866339
_cell_length_b 23.093120
_cell_length_c 5.432020
_cell_angle_alpha 90.000000
_cell_angle_beta 116.353013
_cell_angle_gamma 90.000000
_cell_volume 2570.309975
_symmetry_space_group_name_H-M "C 2/C"
_symmetry_group_IT_number 15
_symmetry_cell_setting 'monoclinic'
loop_
_space_group_symop_operation_xyz
x,y,z
-x,y,1/2-z
-x,-y,-z
x,-y,1/2+z
1/2+x,1/2+y,z
1/2-x,1/2+y,1/2-z
1/2-x,1/2-y,-z
1/2+x,1/2-y,1/2+z
loop_
_atom_site_type_symbol
_atom_site_label
_atom_site_fract_x
_atom_site_fract_y
_atom_site_fract_z
Si Si1 0.164345 0.517904 0.210752
Si Si2 0.500000 0.040104 0.750000
Si Si3 0.652709 0.221069 0.963522
Si Si4 0.678479 0.139737 0.404038
Si Si5 0.717496 0.339753 0.027598
Si Si6 0.937655 0.363746 0.448816
Si Si7 0.809770 0.029665 0.061011
O O1 0.129837 0.505463 0.405544
O O2 0.179707 0.585503 0.224083
O O3 0.232280 0.484211 0.381528
O O4 0.550979 0.090113 0.747556
O O5 0.500000 0.000000 0.500000
O O6 0.718851 0.187113 0.993561
O O7 0.587072 0.196182 0.719312
O O8 0.652798 0.199566 0.244561
O O9 0.665850 0.288062 0.944515
O O10 0.750140 0.147712 0.646227
O O11 0.626145 0.121419 0.510904
O O12 0.688298 0.401313 0.890950
O O13 0.000000 0.361739 0.750000
O O14 0.835556 0.994034 0.345871
#
# Coordination Sequence:
#
# PCOD9257726 Si02
#       7
#     8   4   8   8   8   8   8
#     4  10  19  31  50  77 110 148 191 234 286 348
#     4  12  26  48  70  92 118 160 214 282 324 364
#     4  10  22  37  58  82 117 162 203 257 309 364
#     4  11  21  35  59  83 115 160 200 257 304 368
#     4  10  20  35  54  87 121 156 204 247 308 373
#     4  11  25  45  60  85 119 157 211 266 314 362
#     4  10  18  32  52  79 115 158 186 235 285 355
#
# _framework density 20.231023
#
# number of rings (size 3 to 8) (size 9 to 14) (size 15 to 20)
#    0.000    1.538    3.846    3.231    2.154    1.231 
#    0.000    0.000    0.000    0.000    0.000    0.000 
#    0.000    1.231    0.000    0.000    0.000    0.000 
#
# Total GULP energy -144838.542035 kJ/mol
# GULP energy per Si atom -5570.713155 kJ/mol
# Density = 2.018498 g / cm^3
# Si number density = 20.231023 Si / 1000 Ang^3
#
#
#
# Elastic Constant Matrix: (Units=GPa)
#
#
# Indices 1 2 3 4 5 6 
#
# 1 39.4327 41.3979 27.1963 0.0000 -7.8017 0.0000
# 2 41.3979 165.2391 23.5735 0.0000 -0.3723 0.0000
# 3 27.1963 23.5735 64.9760 0.0000 -12.3904 0.0000
# 4 0.0000 0.0000 0.0000 19.8483 0.0000 1.8746
# 5 -7.8017 -0.3723 -12.3904 0.0000 30.8936 0.0000
# 6 0.0000 0.0000 0.0000 1.8746 0.0000 28.4411
#
#
#
# Elastic Compliance Matrix: (Units=1/GPa)
#
#
# Indices 1 2 3 4 5 6 
#
# 1 0.046978 -0.009603 -0.015093 0.000000 0.005694 0.000000
# 2 -0.009603 0.008370 0.000585 0.000000 -0.002090 0.000000
# 3 -0.015093 0.000585 0.022490 0.000000 0.005216 0.000000
# 4 0.000000 0.000000 0.000000 0.050698 0.000000 -0.003342
# 5 0.005694 -0.002090 0.005216 0.000000 0.035874 0.000000
# 6 0.000000 0.000000 0.000000 -0.003342 0.000000 0.035381
#
#
# Mechanical properties :
#
#
# Convention : Reuss Voigt Hill
#
# Bulk Modulus (GPa) = 33.76794 50.44258 42.10526
# Shear Modulus (GPa) = 19.38849 27.66862 23.52856
#
# Velocity S-wave (km/s) = 3.09909 3.70216 3.41397
# Velocity P-wave (km/s) = 5.43445 6.57739 6.03305
#
# Compressibility (1/GPa) = 0.02961389
#
# Stress axis : x y z
#
# Youngs Moduli (GPa) = 21.28664 119.47833 44.46399
#
# Poissons Ratio (x) = 1.14741 0.67109
# Poissons Ratio (y) = 0.20443 -0.02599
# Poissons Ratio (z) = 0.32128 -0.06984
#
# Static dielectric constant tensor:
#      x y z
#    x 1.811430 0.000000 -0.109820 
#    y 0.000000 1.748250 0.000000 
#    z -0.109820 0.000000 1.869180 
# 
# From -- ./inp_files/15889.got.cif
#   From: 2010.05.17/outbox.cif.g08.bks.cpg/sg15_8_cif.got.tgz:15889.got - 2010.06.03 18:47:42.
