data_PCOD9257260
_publ_section_title
;
Structure prediction by ZEFSAII (Michael W. Deem and Ramdas Pophale) SiO2 
 PCOD9257260
Probable space group: C 2/C
;
_chemical_formula_sum "Si O2"
_cell_formula_units_Z 40
_cell_length_a 22.035132
_cell_length_b 14.459630
_cell_length_c 14.566484
_cell_angle_alpha 90.000000
_cell_angle_beta 23.460373
_cell_angle_gamma 90.000000
_cell_volume 1847.718482
_symmetry_space_group_name_H-M "C 2/C"
_symmetry_group_IT_number 15
_symmetry_cell_setting 'monoclinic'
loop_
_space_group_symop_operation_xyz
x,y,z
-x,y,1/2-z
-x,-y,-z
x,-y,1/2+z
1/2+x,1/2+y,z
1/2-x,1/2+y,1/2-z
1/2-x,1/2-y,-z
1/2+x,1/2-y,1/2+z
loop_
_atom_site_type_symbol
_atom_site_label
_atom_site_fract_x
_atom_site_fract_y
_atom_site_fract_z
Si Si1 0.034118 0.381299 0.052791
Si Si2 0.145974 0.069591 0.367707
Si Si3 0.318053 0.460339 0.360659
Si Si4 0.000000 0.233271 0.250000
Si Si5 0.237945 0.077494 0.879586
Si Si6 0.500000 0.958086 0.750000
O O1 0.973311 0.298353 0.199556
O O2 0.024028 0.472479 0.130860
O O3 0.917507 0.399192 0.132316
O O4 0.214731 0.368714 0.788383
O O5 0.974197 0.096133 0.632022
O O6 0.161808 0.048156 0.237509
O O7 0.176644 0.970669 0.373742
O O8 0.298072 0.504040 0.488897
O O9 0.161242 0.410730 0.547782
O O10 0.856837 0.168473 0.467743
#
# Coordination Sequence:
#
# PCOD9257260 Si02
#       6
#     8   8   8   4   8   4
#     4   9  19  30  47  74 111 140 174 218 267 318
#     4  10  18  31  49  75 109 147 180 220 266 319
#     4   9  17  30  49  73 108 135 182 224 261 312
#     4  11  20  34  52  82 114 147 170 219 286 324
#     4  11  19  34  53  79 112 147 178 217 274 327
#     4   7  14  28  44  66  96 135 164 213 262 300
#
# _framework density 21.648319000000001
#
# number of rings (size 3 to 8) (size 9 to 14) (size 15 to 20)
#    0.000    2.400    2.000    2.400    0.000    0.000 
#    0.000    0.000    0.000    0.000    0.000    1.400 
#   36.000    0.800    0.000    0.000    0.000    0.000 
#
# Total GULP energy -111530.077265 kJ/mol
# GULP energy per Si atom -5576.503863 kJ/mol
# Density = 2.159905 g / cm^3
# Si number density = 21.648319 Si / 1000 Ang^3
#
#
#
# Elastic Constant Matrix: (Units=GPa)
#
#
# Indices 1 2 3 4 5 6 
#
# 1 61.8287 7.3072 18.6285 0.0000 -13.9164 0.0000
# 2 7.3072 28.6855 10.4035 -0.0004 2.1901 0.0000
# 3 18.6285 10.4035 115.1018 -0.0005 -32.7673 0.0001
# 4 0.0000 -0.0004 -0.0005 30.7118 0.0001 8.3880
# 5 -13.9164 2.1901 -32.7673 0.0001 40.7130 0.0000
# 6 0.0000 0.0000 0.0001 8.3880 0.0000 3.9100
#
#
#
# Elastic Compliance Matrix: (Units=1/GPa)
#
#
# Indices 1 2 3 4 5 6 
#
# 1 0.018312 -0.004791 -0.000876 0.000000 0.005812 0.000001
# 2 -0.004791 0.038429 -0.004868 0.000001 -0.007623 -0.000004
# 3 -0.000876 -0.004868 0.012011 0.000000 0.009629 -0.000001
# 4 0.000000 0.000001 0.000000 0.078635 0.000000 -0.168694
# 5 0.005812 -0.007623 0.009629 0.000000 0.034709 0.000001
# 6 0.000001 -0.000004 -0.000001 -0.168694 0.000001 0.617654
#
#
# Mechanical properties :
#
#
# Convention : Reuss Voigt Hill
#
# Bulk Modulus (GPa) = 20.97231 30.92158 25.94695
# Shear Modulus (GPa) = 5.97577 26.35207 16.16392
#
# Velocity S-wave (km/s) = 1.66324 3.49274 2.73547
# Velocity P-wave (km/s) = 3.66023 5.52994 4.68922
#
# Compressibility (1/GPa) = 0.04768191
#
# Stress axis : x y z
#
# Youngs Moduli (GPa) = 54.60894 26.02229 83.25671
#
# Poissons Ratio (x) = 0.12466 0.07294
# Poissons Ratio (y) = 0.26161 0.40530
# Poissons Ratio (z) = 0.04785 0.12668
#
# Static dielectric constant tensor:
#      x y z
#    x 1.792600 0.000000 -0.034440 
#    y 0.000000 1.735730 0.000000 
#    z -0.034440 0.000000 1.933060 
# 
# From -- ./inp_files/95296.got.cif
#   From: 2010.05.17/outbox.cif.g08.bks.cpg/sg15_48_cif.got.tgz:95296.got - 2010.06.03 18:47:42.
