data_PCOD9257084
_publ_section_title
;
Structure prediction by ZEFSAII (Michael W. Deem and Ramdas Pophale) SiO2 
 PCOD9257084
Probable space group: C 2/C
;
_chemical_formula_sum "Si O2"
_cell_formula_units_Z 36
_cell_length_a 12.855440
_cell_length_b 8.636249
_cell_length_c 13.154821
_cell_angle_alpha 90.000000
_cell_angle_beta 61.895206
_cell_angle_gamma 90.000000
_cell_volume 1288.275325
_symmetry_space_group_name_H-M "C 2/C"
_symmetry_group_IT_number 15
_symmetry_cell_setting 'monoclinic'
loop_
_space_group_symop_operation_xyz
x,y,z
-x,y,1/2-z
-x,-y,-z
x,-y,1/2+z
1/2+x,1/2+y,z
1/2-x,1/2+y,1/2-z
1/2-x,1/2-y,-z
1/2+x,1/2-y,1/2+z
loop_
_atom_site_type_symbol
_atom_site_label
_atom_site_fract_x
_atom_site_fract_y
_atom_site_fract_z
Si Si1 0.115792 0.706821 0.452072
Si Si2 0.500000 0.492951 0.250000
Si Si3 0.364628 0.101589 0.274596
Si Si4 0.416964 0.780404 0.188976
Si Si5 0.793724 0.980691 0.482629
O O1 0.138263 0.707195 0.322918
O O2 0.152058 0.867485 0.487219
O O3 0.190682 0.565403 0.465698
O O4 0.982592 0.688851 0.553195
O O5 0.586874 0.596897 0.285645
O O6 0.402646 0.415953 0.366872
O O7 0.500000 0.109460 0.250000
O O8 0.267446 0.127684 0.405908
O O9 0.335802 0.927409 0.246206
O O10 0.500000 0.807000 0.250000
#
# Coordination Sequence:
#
# PCOD9257084 Si02
#       5
#     8   4   8   8   8
#     4  10  18  30  53  80 115 140 176 229 268 323
#     4   8  16  30  52  76 106 144 180 220 244 330
#     4  11  19  30  52  90 112 130 178 235 282 306
#     4   8  13  26  46  79 103 122 173 226 260 291
#     4  10  18  34  52  82 110 142 188 215 271 327
#
# _framework density 27.944337000000001
#
# number of rings (size 3 to 8) (size 9 to 14) (size 15 to 20)
#    0.667    1.778    4.444    2.000    0.000    0.000 
#    0.000    1.111    0.000    1.333    2.889    0.000 
#    0.000    0.000    0.000    0.000    0.000    0.000 
#
# Total GULP energy -100485.282116 kJ/mol
# GULP energy per Si atom -5582.515673 kJ/mol
# Density = 2.788073 g / cm^3
# Si number density = 27.944337 Si / 1000 Ang^3
#
#
#
# Elastic Constant Matrix: (Units=GPa)
#
#
# Indices 1 2 3 4 5 6 
#
# 1 75.3212 42.5430 51.2450 0.0000 -8.4815 0.0000
# 2 42.5430 80.8543 48.0930 0.0000 -13.2717 0.0000
# 3 51.2450 48.0930 269.8430 0.0000 -43.2451 0.0000
# 4 0.0000 0.0000 0.0000 33.4404 0.0000 -12.4552
# 5 -8.4815 -13.2717 -43.2451 0.0000 54.4847 0.0000
# 6 0.0000 0.0000 0.0000 -12.4552 0.0000 40.7896
#
#
#
# Elastic Compliance Matrix: (Units=1/GPa)
#
#
# Indices 1 2 3 4 5 6 
#
# 1 0.019986 -0.009313 -0.002292 0.000000 -0.000977 0.000000
# 2 -0.009313 0.018300 -0.001158 0.000000 0.002089 0.000000
# 3 -0.002292 -0.001158 0.004864 0.000000 0.003222 0.000000
# 4 0.000000 0.000000 0.000000 0.033741 0.000000 0.010303
# 5 -0.000977 0.002089 0.003222 0.000000 0.021268 0.000000
# 6 0.000000 0.000000 0.000000 0.010303 0.000000 0.027662
#
#
# Mechanical properties :
#
#
# Convention : Reuss Voigt Hill
#
# Bulk Modulus (GPa) = 56.74358 78.86449 67.80403
# Shear Modulus (GPa) = 31.80216 44.68545 38.24381
#
# Velocity S-wave (km/s) = 3.37717 4.00320 3.70343
# Velocity P-wave (km/s) = 5.96297 7.04633 6.52716
#
# Compressibility (1/GPa) = 0.01762314
#
# Stress axis : x y z
#
# Youngs Moduli (GPa) = 50.03457 54.64525 205.59738
#
# Poissons Ratio (x) = 0.50891 0.47127
# Poissons Ratio (y) = 0.46597 0.23812
# Poissons Ratio (z) = 0.11469 0.06329
#
# Static dielectric constant tensor:
#      x y z
#    x 2.326210 0.000000 -0.057180 
#    y 0.000000 2.353000 0.000000 
#    z -0.057180 0.000000 2.148800 
# 
# From -- ./inp_files/158655.got.cif
#   From: 2010.05.17/outbox.cif.g08.bks.cpg/sg15_80_cif.got.tgz:158655.got - 2010.06.03 18:47:42.
