data_PCOD9257184
_publ_section_title
;
Structure prediction by ZEFSAII (Michael W. Deem and Ramdas Pophale) SiO2 
 PCOD9257184
Probable space group: C 2/C
;
_chemical_formula_sum "Si O2"
_cell_formula_units_Z 60
_cell_length_a 26.987967
_cell_length_b 15.940065
_cell_length_c 14.871684
_cell_angle_alpha 90.000000
_cell_angle_beta 152.304466
_cell_angle_gamma 90.000000
_cell_volume 2973.454703
_symmetry_space_group_name_H-M "C 2/C"
_symmetry_group_IT_number 15
_symmetry_cell_setting 'monoclinic'
loop_
_space_group_symop_operation_xyz
x,y,z
-x,y,1/2-z
-x,-y,-z
x,-y,1/2+z
1/2+x,1/2+y,z
1/2-x,1/2+y,1/2-z
1/2-x,1/2-y,-z
1/2+x,1/2-y,1/2+z
loop_
_atom_site_type_symbol
_atom_site_label
_atom_site_fract_x
_atom_site_fract_y
_atom_site_fract_z
Si Si1 0.590965 0.009447 0.074728
Si Si2 0.582933 0.305155 0.448877
Si Si3 0.500000 0.997787 0.750000
Si Si4 0.740725 0.056132 0.601939
Si Si5 0.099886 0.114927 0.344270
Si Si6 0.301226 0.428549 0.999188
Si Si7 0.221828 0.655885 0.742424
Si Si8 0.919194 0.922072 0.885581
O O1 0.636406 0.916144 0.129754
O O2 0.687928 0.061243 0.269190
O O3 0.542410 0.045640 0.905210
O O4 0.500000 0.000000 0.000000
O O5 0.500000 0.256865 0.250000
O O6 0.634804 0.363801 0.456914
O O7 0.663768 0.239986 0.621778
O O8 0.549149 0.366220 0.477311
O O9 0.389014 0.952147 0.603676
O O10 0.778903 0.090581 0.567404
O O11 0.776234 0.114979 0.741320
O O12 0.803070 0.966916 0.713636
O O13 0.196421 0.165601 0.544670
O O14 0.080999 0.129872 0.208110
O O15 0.000000 0.124581 0.250000
O O16 0.138762 0.017847 0.409659
O O17 0.000000 0.000000 0.000000
#
# Coordination Sequence:
#
# PCOD9257184 Si02
#       8
#     8   8   4   8   8   8   8   8
#     4  10  19  36  59  84 118 158 207 247 299 369
#     4  12  25  39  60  92 130 161 202 258 317 371
#     4  10  18  30  58  84 116 152 200 250 298 352
#     4  10  20  36  62  89 119 157 206 250 308 366
#     4  10  20  40  68  88 122 161 211 260 306 369
#     4  10  20  37  61  93 117 157 210 261 299 366
#     4  10  24  38  58  91 126 167 199 250 319 373
#     4  11  22  40  69  94 119 161 213 262 309 365
#
# _framework density 20.178549
#
# number of rings (size 3 to 8) (size 9 to 14) (size 15 to 20)
#    0.000    1.600    1.333    6.000    3.733    1.067 
#    0.000    2.667    5.867    0.000    0.000    0.000 
#    0.000    0.000    0.000    0.000    0.000    0.000 
#
# Total GULP energy -167334.664502 kJ/mol
# GULP energy per Si atom -5577.822150 kJ/mol
# Density = 2.013262 g / cm^3
# Si number density = 20.178549 Si / 1000 Ang^3
#
#
#
# Elastic Constant Matrix: (Units=GPa)
#
#
# Indices 1 2 3 4 5 6 
#
# 1 135.0438 21.9550 47.8080 0.0000 -28.9219 0.0000
# 2 21.9550 26.5944 14.0434 0.0000 -13.0291 0.0000
# 3 47.8080 14.0434 104.6476 0.0000 -23.5122 0.0000
# 4 0.0000 0.0000 0.0000 13.9009 0.0000 0.7343
# 5 -28.9219 -13.0291 -23.5122 0.0000 42.9225 0.0000
# 6 0.0000 0.0000 0.0000 0.7343 0.0000 -1.7409
#
#
#
# Elastic Compliance Matrix: (Units=1/GPa)
#
#
# Indices 1 2 3 4 5 6 
#
# 1 0.010083 -0.004909 -0.003143 0.000000 0.003582 0.000000
# 2 -0.004909 0.047599 -0.001872 0.000000 0.010115 0.000000
# 3 -0.003143 -0.001872 0.012133 0.000000 0.003960 0.000000
# 4 0.000000 0.000000 0.000000 0.070370 0.000000 0.029682
# 5 0.003582 0.010115 0.003960 0.000000 0.030951 0.000000
# 6 0.000000 0.000000 0.000000 0.029682 0.000000 -0.561906
#
#
# Mechanical properties :
#
#
# Convention : Reuss Voigt Hill
#
# Bulk Modulus (GPa) = 20.01357 48.21095 34.11226
# Shear Modulus (GPa) = -14.11368 23.18179 4.53405
#
# Velocity S-wave (km/s) = -2.64756 3.39312 1.50061
# Velocity P-wave (km/s) = 0.77049 6.26858 4.46591
#
# Compressibility (1/GPa) = 0.04996609
#
# Stress axis : x y z
#
# Youngs Moduli (GPa) = 99.17739 21.00884 82.42249
#
# Poissons Ratio (x) = 0.10314 0.25903
# Poissons Ratio (y) = 0.48691 0.15431
# Poissons Ratio (z) = 0.31168 0.03933
#
# Static dielectric constant tensor:
#      x y z
#    x 1.736750 0.000000 0.025690 
#    y 0.000000 1.676820 0.000000 
#    z 0.025690 0.000000 1.952730 
# 
# From -- ./inp_files/178563.got.cif
#   From: 2010.05.17/outbox.cif.g08.bks.cpg/sg15_90_cif.got.tgz:178563.got - 2010.06.03 18:47:42.
