data_PCOD9257351
_publ_section_title
;
Structure prediction by ZEFSAII (Michael W. Deem and Ramdas Pophale) SiO2 
 PCOD9257351
Probable space group: C 2/C
;
_chemical_formula_sum "Si O2"
_cell_formula_units_Z 48
_cell_length_a 18.775434
_cell_length_b 7.212935
_cell_length_c 15.243416
_cell_angle_alpha 90.000000
_cell_angle_beta 77.338010
_cell_angle_gamma 90.000000
_cell_volume 2014.149884
_symmetry_space_group_name_H-M "C 2/C"
_symmetry_group_IT_number 15
_symmetry_cell_setting 'monoclinic'
loop_
_space_group_symop_operation_xyz
x,y,z
-x,y,1/2-z
-x,-y,-z
x,-y,1/2+z
1/2+x,1/2+y,z
1/2-x,1/2+y,1/2-z
1/2-x,1/2-y,-z
1/2+x,1/2-y,1/2+z
loop_
_atom_site_type_symbol
_atom_site_label
_atom_site_fract_x
_atom_site_fract_y
_atom_site_fract_z
Si Si1 0.675197 0.285110 0.078412
Si Si2 0.070211 0.869399 0.968637
Si Si3 0.918660 0.735161 0.234890
Si Si4 0.929360 0.187102 0.217452
Si Si5 0.848999 0.238962 0.572250
Si Si6 0.678731 0.725413 0.112367
O O1 0.648893 0.196917 0.178649
O O2 0.675908 0.503958 0.098905
O O3 0.750000 0.250000 0.000000
O O4 0.602503 0.255343 0.039299
O O5 0.061876 0.753345 0.884107
O O6 0.131305 0.022512 0.933328
O O7 0.000000 0.000000 0.000000
O O8 0.893907 0.677181 0.142258
O O9 0.000000 0.679810 0.250000
O O10 0.925100 0.961697 0.224469
O O11 0.863139 0.270768 0.288168
O O12 0.000000 0.242984 0.250000
O O13 0.762659 0.237227 0.605416
O O14 0.856198 0.307751 0.468367
#
# Coordination Sequence:
#
# PCOD9257351 Si02
#       6
#     8   8   8   8   8   8
#     4  10  20  31  48  77 106 127 165 215 261 304
#     4  10  18  31  52  75 100 132 172 214 256 303
#     4   9  17  30  49  70  96 132 169 205 250 304
#     4   9  16  27  47  73  99 125 163 208 249 295
#     4   9  17  30  50  71  98 131 171 207 249 305
#     4   9  18  31  47  73 102 133 165 206 258 308
#
# _framework density 23.831394
#
# number of rings (size 3 to 8) (size 9 to 14) (size 15 to 20)
#    0.000    2.667    0.000    5.000    2.333    0.000 
#    0.000    0.000    0.000    4.000    0.000   11.667 
#    0.000    0.000    0.000    0.000    0.000    0.000 
#
# Total GULP energy -133658.932695 kJ/mol
# GULP energy per Si atom -5569.122196 kJ/mol
# Density = 2.377715 g / cm^3
# Si number density = 23.831394 Si / 1000 Ang^3
#
#
#
# Elastic Constant Matrix: (Units=GPa)
#
#
# Indices 1 2 3 4 5 6 
#
# 1 88.5160 17.1157 58.3510 0.0000 18.9533 0.0000
# 2 17.1157 65.0990 12.3935 0.0000 1.3789 0.0000
# 3 58.3510 12.3935 140.3975 0.0000 12.4220 0.0000
# 4 0.0000 0.0000 0.0000 5.7868 0.0000 -14.9970
# 5 18.9533 1.3789 12.4220 0.0000 46.7216 0.0000
# 6 0.0000 0.0000 0.0000 -14.9970 0.0000 4.7169
#
#
#
# Elastic Compliance Matrix: (Units=1/GPa)
#
#
# Indices 1 2 3 4 5 6 
#
# 1 0.017274 -0.003206 -0.006436 0.000000 -0.005202 0.000000
# 2 -0.003206 0.016219 -0.000176 0.000000 0.000869 0.000000
# 3 -0.006436 -0.000176 0.009812 0.000000 0.000007 0.000000
# 4 0.000000 0.000000 0.000000 -0.023869 0.000000 -0.075890
# 5 -0.005202 0.000869 0.000007 0.000000 0.023486 0.000000
# 6 0.000000 0.000000 0.000000 -0.075890 0.000000 -0.029283
#
#
# Mechanical properties :
#
#
# Convention : Reuss Voigt Hill
#
# Bulk Modulus (GPa) = 42.24918 52.19253 47.22086
# Shear Modulus (GPa) = 121.46255 25.18856 73.32555
#
# Velocity S-wave (km/s) = 7.14689 3.25460 5.55295
# Velocity P-wave (km/s) = 9.26666 6.00596 7.80841
#
# Compressibility (1/GPa) = 0.02366910
#
# Stress axis : x y z
#
# Youngs Moduli (GPa) = 57.89118 61.65495 101.91181
#
# Poissons Ratio (x) = 0.19767 0.65590
# Poissons Ratio (y) = 0.18561 0.01795
# Poissons Ratio (z) = 0.37259 0.01086
#
# Static dielectric constant tensor:
#      x y z
#    x 35.111220 0.000000 -80.685000 
#    y 0.000000 1.915080 0.000000 
#    z -80.685000 0.000000 199.294540 
# 
# From -- ./inp_files/159739.got.cif
#   From: 2010.05.17/outbox.cif.g08.bks.cpg/sg15_80_cif.got.tgz:159739.got - 2010.06.03 18:47:42.
