data_PCOD9257230
_publ_section_title
;
Structure prediction by ZEFSAII (Michael W. Deem and Ramdas Pophale) SiO2 
 PCOD9257230
Probable space group: C 2/C
;
_chemical_formula_sum "Si O2"
_cell_formula_units_Z 64
_cell_length_a 11.056816
_cell_length_b 14.006197
_cell_length_c 22.536685
_cell_angle_alpha 90.000000
_cell_angle_beta 120.427389
_cell_angle_gamma 90.000000
_cell_volume 3009.431525
_symmetry_space_group_name_H-M "C 2/C"
_symmetry_group_IT_number 15
_symmetry_cell_setting 'monoclinic'
loop_
_space_group_symop_operation_xyz
x,y,z
-x,y,1/2-z
-x,-y,-z
x,-y,1/2+z
1/2+x,1/2+y,z
1/2-x,1/2+y,1/2-z
1/2-x,1/2-y,-z
1/2+x,1/2-y,1/2+z
loop_
_atom_site_type_symbol
_atom_site_label
_atom_site_fract_x
_atom_site_fract_y
_atom_site_fract_z
Si Si1 0.925824 0.981742 0.176999
Si Si2 0.490235 0.887195 0.981277
Si Si3 0.716277 0.138298 0.168836
Si Si4 0.573204 0.802751 0.327411
Si Si5 0.222960 0.604121 0.971908
Si Si6 0.708622 0.608269 0.966155
Si Si7 0.866846 0.145473 0.320829
Si Si8 0.535840 0.608809 0.029417
O O1 0.789841 0.039827 0.165183
O O2 0.000000 0.930220 0.250000
O O3 0.032569 0.063842 0.182163
O O4 0.888112 0.916750 0.113181
O O5 0.372945 0.854051 0.999247
O O6 0.431001 0.864579 0.901135
O O7 0.648141 0.849973 0.023995
O O8 0.500000 0.000000 0.000000
O O9 0.812692 0.224552 0.167075
O O10 0.732179 0.145065 0.243960
O O11 0.500000 0.844337 0.250000
O O12 0.648212 0.874348 0.391061
O O13 0.451957 0.743735 0.331735
O O14 0.240840 0.491721 0.990672
O O15 0.381502 0.644003 0.010380
O O16 0.610919 0.654314 0.991498
O O17 0.862670 0.119555 0.388804
O O18 0.500000 0.500000 0.000000
#
# Coordination Sequence:
#
# PCOD9257230 Si02
#       8
#     8   8   8   8   8   8   8   8
#     4   9  14  26  46  68  92 127 169 198 234 290
#     4  10  18  31  47  74 103 133 167 206 250 303
#     4   9  16  29  49  71  94 127 170 211 249 296
#     4   9  19  33  52  78 102 126 174 224 255 293
#     4  10  18  32  51  74  99 132 161 212 259 287
#     4  10  19  33  47  74 112 134 163 205 250 312
#     4   9  16  29  49  71  94 127 170 211 249 296
#     4  10  18  31  47  74 103 133 167 206 250 303
#
# _framework density 21.266473999999999
#
# number of rings (size 3 to 8) (size 9 to 14) (size 15 to 20)
#    0.000    2.500    5.000    2.250    0.000    2.000 
#    0.000    6.875    0.000    3.000    0.000    1.750 
#    0.000    0.000    0.000    0.000    0.000    0.000 
#
# Total GULP energy -178343.651689 kJ/mol
# GULP energy per Si atom -5573.239115 kJ/mol
# Density = 2.121807 g / cm^3
# Si number density = 21.266474 Si / 1000 Ang^3
#
#
#
# Elastic Constant Matrix: (Units=GPa)
#
#
# Indices 1 2 3 4 5 6 
#
# 1 97.6776 -4.5454 8.5869 0.0000 -6.8867 0.0000
# 2 -4.5454 69.1214 23.1709 0.0000 -6.7487 0.0000
# 3 8.5869 23.1709 189.6769 0.0000 -20.5328 0.0000
# 4 0.0000 0.0000 0.0000 15.9677 0.0000 -0.6713
# 5 -6.8867 -6.7487 -20.5328 0.0000 28.7430 0.0000
# 6 0.0000 0.0000 0.0000 -0.6713 0.0000 -21.3628
#
#
#
# Elastic Compliance Matrix: (Units=1/GPa)
#
#
# Indices 1 2 3 4 5 6 
#
# 1 0.010493 0.001047 -0.000330 0.000000 0.002525 0.000000
# 2 0.001047 0.015345 -0.001631 0.000000 0.002689 0.000000
# 3 -0.000330 -0.001631 0.005892 0.000000 0.003747 0.000000
# 4 0.000000 0.000000 0.000000 0.062544 0.000000 -0.001965
# 5 0.002525 0.002689 0.003747 0.000000 0.038704 0.000000
# 6 0.000000 0.000000 0.000000 -0.001965 0.000000 -0.046749
#
#
# Mechanical properties :
#
#
# Convention : Reuss Voigt Hill
#
# Bulk Modulus (GPa) = 33.44074 45.65563 39.54819
# Shear Modulus (GPa) = 51.00746 26.62048 38.81397
#
# Velocity S-wave (km/s) = 4.90275 3.54186 4.27678
# Velocity P-wave (km/s) = 6.91434 6.18396 6.55932
#
# Compressibility (1/GPa) = 0.02990364
#
# Stress axis : x y z
#
# Youngs Moduli (GPa) = 95.29749 65.16610 169.72451
#
# Poissons Ratio (x) = -0.06823 0.05595
# Poissons Ratio (y) = -0.09978 0.27681
# Poissons Ratio (z) = 0.03142 0.10628
#
# Static dielectric constant tensor:
#      x y z
#    x 2.028740 0.000000 0.062620 
#    y 0.000000 1.815740 0.000000 
#    z 0.062620 0.000000 1.819500 
# 
# From -- ./inp_files/239847.got.cif
#   From: 2010.05.17/outbox.cif.g08.bks.cpg/sg15_120_cif.got.tgz:239847.got - 2010.06.03 18:47:42.
