data_PCOD9257679
_publ_section_title
;
Structure prediction by ZEFSAII (Michael W. Deem and Ramdas Pophale) SiO2 
 PCOD9257679
Probable space group: C 2/C
;
_chemical_formula_sum "Si O2"
_cell_formula_units_Z 60
_cell_length_a 14.486789
_cell_length_b 18.735160
_cell_length_c 15.726799
_cell_angle_alpha 90.000000
_cell_angle_beta 52.947445
_cell_angle_gamma 90.000000
_cell_volume 3406.575521
_symmetry_space_group_name_H-M "C 2/C"
_symmetry_group_IT_number 15
_symmetry_cell_setting 'monoclinic'
loop_
_space_group_symop_operation_xyz
x,y,z
-x,y,1/2-z
-x,-y,-z
x,-y,1/2+z
1/2+x,1/2+y,z
1/2-x,1/2+y,1/2-z
1/2-x,1/2-y,-z
1/2+x,1/2-y,1/2+z
loop_
_atom_site_type_symbol
_atom_site_label
_atom_site_fract_x
_atom_site_fract_y
_atom_site_fract_z
Si Si1 0.062135 0.722056 0.628224
Si Si2 0.876110 0.191042 0.139617
Si Si3 0.901537 0.736461 0.457955
Si Si4 0.812063 0.831732 0.361841
Si Si5 0.831335 0.238740 0.670275
Si Si6 0.482147 0.545678 0.424692
Si Si7 0.500000 0.548144 0.750000
Si Si8 0.291872 0.345396 0.013477
O O1 0.158918 0.662066 0.558957
O O2 0.135615 0.795747 0.591726
O O3 0.000000 0.705653 0.750000
O O4 0.961450 0.743509 0.619055
O O5 0.763140 0.200342 0.259547
O O6 0.939308 0.116560 0.116051
O O7 0.856858 0.203870 0.050563
O O8 0.875305 0.768559 0.379994
O O9 0.818313 0.670289 0.528052
O O10 0.038474 0.731651 0.395967
O O11 0.812991 0.813103 0.261490
O O12 0.889379 0.901581 0.328964
O O13 0.808877 0.195695 0.595259
O O14 0.500000 0.500000 0.500000
O O15 0.515185 0.499709 0.324740
O O16 0.352339 0.578271 0.487766
#
# Coordination Sequence:
#
# PCOD9257679 Si02
#       8
#     8   8   8   8   8   8   4   8
#     4  10  18  32  51  78 110 133 169 234 269 320
#     4  10  21  32  56  86 108 139 181 217 286 319
#     4  10  18  35  55  83 108 132 170 246 278 310
#     4  10  21  33  55  80 107 137 185 218 280 318
#     4  11  17  33  57  84 108 132 171 242 280 317
#     4  11  23  37  52  77 115 150 184 218 258 335
#     4  12  22  36  56  74 112 152 182 214 254 338
#     4  10  21  31  53  79 113 139 178 219 280 317
#
# _framework density 17.612995999999999
#
# number of rings (size 3 to 8) (size 9 to 14) (size 15 to 20)
#    0.000    1.600    5.333    1.600    3.733    0.000 
#    0.000    0.000    0.000    2.400    0.000    0.000 
#    0.000    0.000    0.000    0.000    0.000    0.000 
#
# Total GULP energy -167132.158465 kJ/mol
# GULP energy per Si atom -5571.071949 kJ/mol
# Density = 1.757291 g / cm^3
# Si number density = 17.612996 Si / 1000 Ang^3
#
#
#
# Elastic Constant Matrix: (Units=GPa)
#
#
# Indices 1 2 3 4 5 6 
#
# 1 76.2449 28.1374 25.1750 0.0000 -13.0321 0.0000
# 2 28.1374 68.6374 24.3576 0.0000 -5.1341 0.0000
# 3 25.1750 24.3576 77.9211 0.0000 -20.5617 0.0000
# 4 0.0000 0.0000 0.0000 23.6181 0.0000 -4.4434
# 5 -13.0321 -5.1341 -20.5617 0.0000 34.9866 0.0000
# 6 0.0000 0.0000 0.0000 -4.4434 0.0000 23.0622
#
#
#
# Elastic Compliance Matrix: (Units=1/GPa)
#
#
# Indices 1 2 3 4 5 6 
#
# 1 0.016721 -0.005635 -0.002622 0.000000 0.003860 0.000000
# 2 -0.005635 0.018302 -0.004433 0.000000 -0.002019 0.000000
# 3 -0.002622 -0.004433 0.017323 0.000000 0.008554 0.000000
# 4 0.000000 0.000000 0.000000 0.043933 0.000000 0.008465
# 5 0.003860 -0.002019 0.008554 0.000000 0.034751 0.000000
# 6 0.000000 0.000000 0.000000 0.008465 0.000000 0.044992
#
#
# Mechanical properties :
#
#
# Convention : Reuss Voigt Hill
#
# Bulk Modulus (GPa) = 37.08457 42.01594 39.55026
# Shear Modulus (GPa) = 23.76527 26.00895 24.88711
#
# Velocity S-wave (km/s) = 3.67727 3.84694 3.76306
# Velocity P-wave (km/s) = 6.25545 6.60597 6.43310
#
# Compressibility (1/GPa) = 0.02696539
#
# Stress axis : x y z
#
# Youngs Moduli (GPa) = 59.80543 54.63992 57.72508
#
# Poissons Ratio (x) = 0.30792 0.15135
# Poissons Ratio (y) = 0.33703 0.25589
# Poissons Ratio (z) = 0.15681 0.24222
#
# Static dielectric constant tensor:
#      x y z
#    x 1.695530 0.000000 -0.013380 
#    y 0.000000 1.565150 0.000000 
#    z -0.013380 0.000000 1.640590 
# 
# From -- ./inp_files/206130.got.cif
#   From: 2010.05.17/outbox.cif.g08.bks.cpg/sg15_104_cif.got.tgz:206130.got - 2010.06.03 18:47:42.
