data_PCOD9257065
_publ_section_title
;
Structure prediction by ZEFSAII (Michael W. Deem and Ramdas Pophale) SiO2 
 PCOD9257065
Probable space group: C 2/C
;
_chemical_formula_sum "Si O2"
_cell_formula_units_Z 40
_cell_length_a 15.919208
_cell_length_b 11.532407
_cell_length_c 12.649333
_cell_angle_alpha 90.000000
_cell_angle_beta 143.991201
_cell_angle_gamma 90.000000
_cell_volume 1365.273035
_symmetry_space_group_name_H-M "C 2/C"
_symmetry_group_IT_number 15
_symmetry_cell_setting 'monoclinic'
loop_
_space_group_symop_operation_xyz
x,y,z
-x,y,1/2-z
-x,-y,-z
x,-y,1/2+z
1/2+x,1/2+y,z
1/2-x,1/2+y,1/2-z
1/2-x,1/2-y,-z
1/2+x,1/2-y,1/2+z
loop_
_atom_site_type_symbol
_atom_site_label
_atom_site_fract_x
_atom_site_fract_y
_atom_site_fract_z
Si Si1 0.345978 0.164828 0.333637
Si Si2 0.878800 0.416302 0.451687
Si Si3 0.636500 0.552888 0.840039
Si Si4 0.640838 0.116700 0.822291
Si Si5 0.066696 0.835914 0.643812
O O1 0.355992 0.055847 0.425982
O O2 0.175847 0.173033 0.155429
O O3 0.418275 0.276893 0.461273
O O4 0.460622 0.127698 0.360993
O O5 0.752535 0.370730 0.396600
O O6 0.865070 0.397585 0.311712
O O7 0.500000 0.615284 0.750000
O O8 0.561009 0.465395 0.679485
O O9 0.732129 0.468647 0.011982
O O10 0.500000 0.087927 0.750000
O O11 0.635360 0.258237 0.809085
#
# Coordination Sequence:
#
# PCOD9257065 Si02
#       5
#     8   8   8   8   8
#     4   9  17  33  53  75 111 149 173 213 265 332
#     4   9  20  36  51  77 116 153 187 210 267 343
#     4  11  21  33  53  83 113 143 182 232 276 320
#     4  11  20  33  56  82 114 152 177 215 277 341
#     4  10  18  30  52  85 117 138 170 221 288 342
#
# _framework density 29.298166999999999
#
# number of rings (size 3 to 8) (size 9 to 14) (size 15 to 20)
#    0.000    2.000    0.000    8.400    0.000    0.800 
#    0.000    2.000    0.000    3.600    0.000  119.000 
#    0.000    0.000    0.000    0.000    0.000    0.000 
#
# Total GULP energy -111644.523775 kJ/mol
# GULP energy per Si atom -5582.226189 kJ/mol
# Density = 2.923148 g / cm^3
# Si number density = 29.298167 Si / 1000 Ang^3
#
#
#
# Elastic Constant Matrix: (Units=GPa)
#
#
# Indices 1 2 3 4 5 6 
#
# 1 190.6485 12.3187 67.7166 0.0000 73.4054 0.0000
# 2 12.3187 35.5265 10.7722 0.0000 -3.8590 0.0000
# 3 67.7166 10.7722 92.0350 0.0000 33.4838 0.0000
# 4 0.0000 0.0000 0.0000 38.7142 0.0000 6.3156
# 5 73.4054 -3.8590 33.4838 0.0000 77.4751 0.0000
# 6 0.0000 0.0000 0.0000 6.3156 0.0000 43.5581
#
#
#
# Elastic Compliance Matrix: (Units=1/GPa)
#
#
# Indices 1 2 3 4 5 6 
#
# 1 0.009874 -0.003022 -0.004097 0.000000 -0.007735 0.000000
# 2 -0.003022 0.030920 -0.003557 0.000000 0.005940 0.000000
# 3 -0.004097 -0.003557 0.015364 0.000000 -0.002935 0.000000
# 4 0.000000 0.000000 0.000000 0.026456 0.000000 -0.003836
# 5 -0.007735 0.005940 -0.002935 0.000000 0.021801 0.000000
# 6 0.000000 0.000000 0.000000 -0.003836 0.000000 0.023514
#
#
# Mechanical properties :
#
#
# Convention : Reuss Voigt Hill
#
# Bulk Modulus (GPa) = 28.73037 55.53614 42.13325
# Shear Modulus (GPa) = 31.07860 47.10964 39.09412
#
# Velocity S-wave (km/s) = 3.26048 4.01426 3.65684
# Velocity P-wave (km/s) = 4.89916 6.36258 5.67821
#
# Compressibility (1/GPa) = 0.03480637
#
# Stress axis : x y z
#
# Youngs Moduli (GPa) = 101.27564 32.34198 65.08591
#
# Poissons Ratio (x) = 0.09773 0.26667
# Poissons Ratio (y) = 0.30602 0.23150
# Poissons Ratio (z) = 0.41495 0.11504
#
# Static dielectric constant tensor:
#      x y z
#    x 2.337020 0.000000 0.000680 
#    y 0.000000 2.523500 0.000000 
#    z 0.000680 0.000000 2.395380 
# 
# From -- ./inp_files/112537.got.cif
#   From: 2010.05.17/outbox.cif.g08.bks.cpg/sg15_57_cif.got.tgz:112537.got - 2010.06.03 18:47:42.
