data_PCOD9257101
_publ_section_title
;
Structure prediction by ZEFSAII (Michael W. Deem and Ramdas Pophale) SiO2 
 PCOD9257101
Probable space group: C 2/C
;
_chemical_formula_sum "Si O2"
_cell_formula_units_Z 52
_cell_length_a 28.287724
_cell_length_b 18.317506
_cell_length_c 5.770102
_cell_angle_alpha 90.000000
_cell_angle_beta 79.011084
_cell_angle_gamma 90.000000
_cell_volume 2935.017789
_symmetry_space_group_name_H-M "C 2/C"
_symmetry_group_IT_number 15
_symmetry_cell_setting 'monoclinic'
loop_
_space_group_symop_operation_xyz
x,y,z
-x,y,1/2-z
-x,-y,-z
x,-y,1/2+z
1/2+x,1/2+y,z
1/2-x,1/2+y,1/2-z
1/2-x,1/2-y,-z
1/2+x,1/2-y,1/2+z
loop_
_atom_site_type_symbol
_atom_site_label
_atom_site_fract_x
_atom_site_fract_y
_atom_site_fract_z
Si Si1 0.262612 0.688845 0.173637
Si Si2 0.589867 0.822090 0.902709
Si Si3 0.359850 0.077659 0.528057
Si Si4 0.175306 0.291681 0.107236
Si Si5 0.743795 0.033000 0.992819
Si Si6 0.546302 0.930784 0.324505
Si Si7 0.000000 0.324472 0.750000
O O1 0.219998 0.685727 0.403171
O O2 0.308980 0.721734 0.258963
O O3 0.263184 0.613125 0.037900
O O4 0.250000 0.750000 0.000000
O O5 0.618144 0.871463 0.692301
O O6 0.544669 0.783244 0.823598
O O7 0.629083 0.774074 0.995039
O O8 0.567188 0.877896 0.108409
O O9 0.337947 0.137043 0.728583
O O10 0.314958 0.033257 0.468097
O O11 0.405692 0.035353 0.601035
O O12 0.757907 0.988609 0.214947
O O13 0.500000 0.971506 0.250000
O O14 0.524052 0.877092 0.537203
#
# Coordination Sequence:
#
# PCOD9257101 Si02
#       7
#     8   8   8   8   8   8   4
#     4  11  21  35  55  74 100 137 178 224 261 325
#     4   9  15  26  46  70  97 129 168 216 262 318
#     4  10  18  32  49  73  97 134 176 221 267 316
#     4  10  18  30  54  74  99 129 182 218 264 310
#     4  12  26  39  54  78 108 140 176 227 281 319
#     4   8  15  25  45  68  95 126 170 216 269 310
#     4   8  14  24  38  72  98 126 160 208 274 312
#
# _framework density 17.717099999999999
#
# number of rings (size 3 to 8) (size 9 to 14) (size 15 to 20)
#    0.000    2.154    3.077    0.923    4.308    0.000 
#    0.000    0.000    0.000    0.923    0.000    0.000 
#    0.000    0.000    0.000    1.385    0.154   10.154 
#
# Total GULP energy -145016.387361 kJ/mol
# GULP energy per Si atom -5577.553360 kJ/mol
# Density = 1.767677 g / cm^3
# Si number density = 17.717100 Si / 1000 Ang^3
#
#
#
# Elastic Constant Matrix: (Units=GPa)
#
#
# Indices 1 2 3 4 5 6 
#
# 1 116.4176 37.7858 26.8464 0.0000 40.9446 0.0000
# 2 37.7858 65.4777 28.7655 0.0000 18.7432 0.0000
# 3 26.8464 28.7655 110.9541 0.0000 6.3193 0.0000
# 4 0.0000 0.0000 0.0000 27.2537 0.0000 12.2250
# 5 40.9446 18.7432 6.3193 0.0000 45.7645 0.0000
# 6 0.0000 0.0000 0.0000 12.2250 0.0000 20.2355
#
#
#
# Elastic Compliance Matrix: (Units=1/GPa)
#
#
# Indices 1 2 3 4 5 6 
#
# 1 0.014133 -0.004378 -0.001680 0.000000 -0.010620 0.000000
# 2 -0.004378 0.020745 -0.004090 0.000000 -0.004015 0.000000
# 3 -0.001680 -0.004090 0.010380 0.000000 0.001745 0.000000
# 4 0.000000 0.000000 0.000000 0.050332 0.000000 -0.030407
# 5 -0.010620 -0.004015 0.001745 0.000000 0.032755 0.000000
# 6 0.000000 0.000000 0.000000 -0.030407 0.000000 0.067788
#
#
# Mechanical properties :
#
#
# Convention : Reuss Voigt Hill
#
# Bulk Modulus (GPa) = 40.06085 53.29387 46.67736
# Shear Modulus (GPa) = 22.24686 31.94752 27.09719
#
# Velocity S-wave (km/s) = 3.54739 4.25102 3.91504
# Velocity P-wave (km/s) = 6.28006 7.36483 6.84397
#
# Compressibility (1/GPa) = 0.02496203
#
# Stress axis : x y z
#
# Youngs Moduli (GPa) = 70.75602 48.20449 96.33697
#
# Poissons Ratio (x) = 0.21104 0.16182
# Poissons Ratio (y) = 0.30977 0.39405
# Poissons Ratio (z) = 0.11885 0.19717
#
# Static dielectric constant tensor:
#      x y z
#    x 1.688300 0.000000 0.048360 
#    y 0.000000 1.567700 0.000000 
#    z 0.048360 0.000000 1.698370 
# 
# From -- ./inp_files/18302.got.cif
#   From: 2010.05.17/outbox.cif.g08.bks.cpg/sg15_10_cif.got.tgz:18302.got - 2010.06.03 18:47:42.
