data_PCOD9257007
_publ_section_title
;
Structure prediction by ZEFSAII (Michael W. Deem and Ramdas Pophale) SiO2 
 PCOD9257007
Probable space group: C 2/C
;
_chemical_formula_sum "Si O2"
_cell_formula_units_Z 48
_cell_length_a 11.130397
_cell_length_b 40.999033
_cell_length_c 5.525584
_cell_angle_alpha 90.000000
_cell_angle_beta 124.649879
_cell_angle_gamma 90.000000
_cell_volume 2074.307723
_symmetry_space_group_name_H-M "C 2/C"
_symmetry_group_IT_number 15
_symmetry_cell_setting 'monoclinic'
loop_
_space_group_symop_operation_xyz
x,y,z
-x,y,1/2-z
-x,-y,-z
x,-y,1/2+z
1/2+x,1/2+y,z
1/2-x,1/2+y,1/2-z
1/2-x,1/2-y,-z
1/2+x,1/2-y,1/2+z
loop_
_atom_site_type_symbol
_atom_site_label
_atom_site_fract_x
_atom_site_fract_y
_atom_site_fract_z
Si Si1 0.323462 0.785037 0.552155
Si Si2 0.694653 0.412706 0.575990
Si Si3 0.175897 0.321366 0.444763
Si Si4 0.509777 0.937504 0.010844
Si Si5 0.209778 0.891267 0.092984
Si Si6 0.332940 0.488241 0.061542
O O1 0.500000 0.782299 0.750000
O O2 0.250000 0.750000 0.500000
O O3 0.283135 0.799116 0.240737
O O4 0.282997 0.807140 0.742506
O O5 0.651264 0.389956 0.301392
O O6 0.660638 0.449599 0.460947
O O7 0.630206 0.406171 0.766859
O O8 0.870591 0.412988 0.825731
O O9 0.241878 0.356324 0.452346
O O10 0.000000 0.324419 0.250000
O O11 0.500000 0.956177 0.250000
O O12 0.653406 0.915605 0.200770
O O13 0.500000 0.956608 0.750000
O O14 0.500000 0.501740 0.250000
O O15 0.265178 0.497417 0.240324
#
# Coordination Sequence:
#
# PCOD9257007 Si02
#       6
#     8   8   8   8   8   8
#     4  10  21  36  56  80 110 148 191 232 272 318
#     4  10  18  30  51  73  99 130 158 202 262 312
#     4  10  19  32  54  83 108 137 182 226 261 316
#     4   8  15  25  42  67  96 124 147 176 233 300
#     4  10  18  30  51  79 107 131 161 205 259 315
#     4  10  21  37  55  72  91 125 177 226 259 299
#
# _framework density 23.140253000000001
#
# number of rings (size 3 to 8) (size 9 to 14) (size 15 to 20)
#    0.000    2.333    0.000    4.000    0.000    4.667 
#    0.000    0.000    0.000   33.000    0.000    0.000 
#    0.000    0.000    0.000    0.000    0.000    0.000 
#
# Total GULP energy -133881.640124 kJ/mol
# GULP energy per Si atom -5578.401672 kJ/mol
# Density = 2.308759 g / cm^3
# Si number density = 23.140253 Si / 1000 Ang^3
#
#
#
# Elastic Constant Matrix: (Units=GPa)
#
#
# Indices 1 2 3 4 5 6 
#
# 1 81.4164 29.8939 72.1283 0.0000 -39.4712 0.0000
# 2 29.8939 113.1511 47.4560 0.0000 -34.7735 0.0000
# 3 72.1283 47.4560 201.2580 0.0000 -73.8010 0.0000
# 4 0.0000 0.0000 0.0000 50.9330 0.0000 6.7228
# 5 -39.4712 -34.7735 -73.8010 0.0000 63.1871 0.0000
# 6 0.0000 0.0000 0.0000 6.7228 0.0000 48.3129
#
#
#
# Elastic Compliance Matrix: (Units=1/GPa)
#
#
# Indices 1 2 3 4 5 6 
#
# 1 0.019840 -0.001404 -0.004404 0.000000 0.006477 0.000000
# 2 -0.001404 0.010782 -0.000324 0.000000 0.004679 0.000000
# 3 -0.004404 -0.000324 0.009707 0.000000 0.008408 0.000000
# 4 0.000000 0.000000 0.000000 0.020001 0.000000 -0.002783
# 5 0.006477 0.004679 0.008408 0.000000 0.032267 0.000000
# 6 0.000000 0.000000 0.000000 -0.002783 0.000000 0.021086
#
#
# Mechanical properties :
#
#
# Convention : Reuss Voigt Hill
#
# Bulk Modulus (GPa) = 35.63160 77.19799 56.41480
# Shear Modulus (GPa) = 36.95471 48.90976 42.93224
#
# Velocity S-wave (km/s) = 4.00057 4.60240 4.31200
# Velocity P-wave (km/s) = 6.06390 7.85342 7.01595
#
# Compressibility (1/GPa) = 0.02806497
#
# Stress axis : x y z
#
# Youngs Moduli (GPa) = 50.40370 92.74502 103.02267
#
# Poissons Ratio (x) = 0.13021 0.45374
# Poissons Ratio (y) = 0.07077 0.03333
# Poissons Ratio (z) = 0.22199 0.03000
#
# Static dielectric constant tensor:
#      x y z
#    x 1.979130 0.000000 -0.015640 
#    y 0.000000 1.793660 0.000000 
#    z -0.015640 0.000000 1.921330 
# 
# From -- ./inp_files/9162.got.cif
#   From: 2010.05.17/outbox.cif.g08.bks.cpg/sg15_5_cif.got.tgz:9162.got - 2010.06.03 18:47:42.
