data_PCOD9257710
_publ_section_title
;
Structure prediction by ZEFSAII (Michael W. Deem and Ramdas Pophale) SiO2 
 PCOD9257710
Probable space group: C 2/C
;
_chemical_formula_sum "Si O2"
_cell_formula_units_Z 48
_cell_length_a 13.762127
_cell_length_b 17.889289
_cell_length_c 10.509342
_cell_angle_alpha 90.000000
_cell_angle_beta 89.485037
_cell_angle_gamma 90.000000
_cell_volume 2587.239453
_symmetry_space_group_name_H-M "C 2/C"
_symmetry_group_IT_number 15
_symmetry_cell_setting 'monoclinic'
loop_
_space_group_symop_operation_xyz
x,y,z
-x,y,1/2-z
-x,-y,-z
x,-y,1/2+z
1/2+x,1/2+y,z
1/2-x,1/2+y,1/2-z
1/2-x,1/2-y,-z
1/2+x,1/2-y,1/2+z
loop_
_atom_site_type_symbol
_atom_site_label
_atom_site_fract_x
_atom_site_fract_y
_atom_site_fract_z
Si Si1 0.108804 0.359246 0.258221
Si Si2 0.112271 0.795044 0.107192
Si Si3 0.607301 0.009133 0.939310
Si Si4 0.205732 0.651767 0.013742
Si Si5 0.384615 0.700868 0.601573
Si Si6 0.294994 0.855150 0.518173
O O1 0.102235 0.445293 0.306965
O O2 0.165336 0.322608 0.374498
O O3 0.160488 0.351449 0.124560
O O4 0.000000 0.329622 0.250000
O O5 0.179599 0.839827 0.006853
O O6 0.122717 0.825156 0.251296
O O7 0.999124 0.794499 0.072272
O O8 0.155056 0.710559 0.106486
O O9 0.667361 0.067717 0.026959
O O10 0.663486 0.931666 0.926012
O O11 0.500000 0.000000 0.000000
O O12 0.336466 0.783056 0.589952
O O13 0.320276 0.651678 0.505201
#
# Coordination Sequence:
#
# PCOD9257710 Si02
#       6
#     8   8   8   8   8   8
#     4  10  18  32  52  76 107 136 168 213 271 311
#     4  10  18  37  53  80 105 143 178 212 263 320
#     4  10  19  31  49  78 103 136 167 218 263 309
#     4   9  20  33  55  78 107 139 176 219 262 313
#     4  10  21  33  56  76 110 142 175 217 262 315
#     4  11  20  36  50  81 107 137 177 219 265 314
#
# _framework density 18.552593000000002
#
# number of rings (size 3 to 8) (size 9 to 14) (size 15 to 20)
#    1.000    1.000    3.333    2.000    0.000    1.333 
#    3.000    0.833    0.000    0.000    0.000    0.000 
#    0.000    0.000    0.000    0.000    0.000    0.000 
#
# Total GULP energy -133612.812964 kJ/mol
# GULP energy per Si atom -5567.200540 kJ/mol
# Density = 1.851037 g / cm^3
# Si number density = 18.552593 Si / 1000 Ang^3
#
#
#
# Elastic Constant Matrix: (Units=GPa)
#
#
# Indices 1 2 3 4 5 6 
#
# 1 155.8058 26.2047 8.6917 0.0000 2.9137 0.0000
# 2 26.2047 67.4167 -11.1653 0.0000 1.5756 0.0000
# 3 8.6917 -11.1653 45.3082 0.0000 0.5376 0.0000
# 4 0.0000 0.0000 0.0000 23.4651 0.0000 3.7237
# 5 2.9137 1.5756 0.5376 0.0000 24.4484 0.0000
# 6 0.0000 0.0000 0.0000 3.7237 0.0000 24.6449
#
#
#
# Elastic Compliance Matrix: (Units=1/GPa)
#
#
# Indices 1 2 3 4 5 6 
#
# 1 0.007065 -0.003081 -0.002108 0.000000 -0.000597 0.000000
# 2 -0.003081 0.016837 0.004750 0.000000 -0.000822 0.000000
# 3 -0.002108 0.004750 0.023653 0.000000 -0.000575 0.000000
# 4 0.000000 0.000000 0.000000 0.043663 0.000000 -0.006597
# 5 -0.000597 -0.000822 -0.000575 0.000000 0.041039 0.000000
# 6 0.000000 0.000000 0.000000 -0.006597 0.000000 0.041573
#
#
# Mechanical properties :
#
#
# Convention : Reuss Voigt Hill
#
# Bulk Modulus (GPa) = 21.42398 35.11032 28.26715
# Shear Modulus (GPa) = 26.27882 30.83166 28.55524
#
# Velocity S-wave (km/s) = 3.76766 4.08100 3.92746
# Velocity P-wave (km/s) = 5.52266 6.41654 5.98631
#
# Compressibility (1/GPa) = 0.04667667
#
# Stress axis : x y z
#
# Youngs Moduli (GPa) = 141.53815 59.39399 42.27840
#
# Poissons Ratio (x) = 0.18301 0.08911
# Poissons Ratio (y) = 0.43613 -0.20082
# Poissons Ratio (z) = 0.29831 -0.28212
#
# Static dielectric constant tensor:
#      x y z
#    x 1.669840 0.000000 0.011150 
#    y 0.000000 1.647800 0.000000 
#    z 0.011150 0.000000 1.667200 
# 
# From -- ./inp_files/88474.got.cif
#   From: 2010.05.17/outbox.cif.g08.bks.cpg/sg15_45_cif.got.tgz:88474.got - 2010.06.03 18:47:42.
