data_PCOD9257191
_publ_section_title
;
Structure prediction by ZEFSAII (Michael W. Deem and Ramdas Pophale) SiO2 
 PCOD9257191
Probable space group: C 2/C
;
_chemical_formula_sum "Si O2"
_cell_formula_units_Z 48
_cell_length_a 19.938232
_cell_length_b 13.069872
_cell_length_c 14.057671
_cell_angle_alpha 90.000000
_cell_angle_beta 149.218688
_cell_angle_gamma 90.000000
_cell_volume 1874.735316
_symmetry_space_group_name_H-M "C 2/C"
_symmetry_group_IT_number 15
_symmetry_cell_setting 'monoclinic'
loop_
_space_group_symop_operation_xyz
x,y,z
-x,y,1/2-z
-x,-y,-z
x,-y,1/2+z
1/2+x,1/2+y,z
1/2-x,1/2+y,1/2-z
1/2-x,1/2-y,-z
1/2+x,1/2-y,1/2+z
loop_
_atom_site_type_symbol
_atom_site_label
_atom_site_fract_x
_atom_site_fract_y
_atom_site_fract_z
Si Si1 0.166890 0.640552 0.670612
Si Si2 0.134669 0.554497 0.853221
Si Si3 0.342391 0.167768 0.061390
Si Si4 0.801730 0.128983 0.213339
Si Si5 0.449334 0.371346 0.579318
Si Si6 0.444677 0.143284 0.487512
O O1 0.205421 0.649073 0.605143
O O2 0.171962 0.759733 0.713021
O O3 0.000610 0.633180 0.451076
O O4 0.303120 0.591403 0.882018
O O5 0.185403 0.441323 0.922309
O O6 0.084476 0.592216 0.690738
O O7 0.000000 0.556904 0.750000
O O8 0.230109 0.631555 0.023272
O O9 0.500000 0.191555 0.250000
O O10 0.250000 0.250000 0.000000
O O11 0.940490 0.080728 0.355798
O O12 0.686002 0.085543 0.140987
O O13 0.500000 0.379163 0.750000
O O14 0.443666 0.250986 0.540490
#
# Coordination Sequence:
#
# PCOD9257191 Si02
#       6
#     8   8   8   8   8   8
#     4  10  21  37  60  93 127 162 207 250 314 369
#     4   9  18  39  61  94 121 159 204 264 308 365
#     4  11  27  47  66  83 123 172 219 255 300 373
#     4   9  18  32  61  88 125 152 200 250 311 360
#     4  10  18  30  58  98 133 159 188 252 323 378
#     4   9  17  32  60  89 122 153 200 254 311 358
#
# _framework density 25.603615000000001
#
# number of rings (size 3 to 8) (size 9 to 14) (size 15 to 20)
#    0.000    2.333    0.000    3.500    7.000    4.667 
#    3.000    5.833    0.000    0.000    0.000    0.000 
#    0.000    0.000    0.000    0.000    0.000    0.000 
#
# Total GULP energy -133606.438487 kJ/mol
# GULP energy per Si atom -5566.934937 kJ/mol
# Density = 2.554534 g / cm^3
# Si number density = 25.603615 Si / 1000 Ang^3
#
#
#
# Elastic Constant Matrix: (Units=GPa)
#
#
# Indices 1 2 3 4 5 6 
#
# 1 159.8199 14.6265 81.8958 0.0000 54.1907 0.0000
# 2 14.6265 77.9339 42.1628 0.0000 -14.6533 0.0000
# 3 81.8958 42.1628 134.2569 0.0000 22.0872 0.0000
# 4 0.0000 0.0000 0.0000 24.7517 0.0000 19.6844
# 5 54.1907 -14.6533 22.0872 0.0000 74.3846 0.0000
# 6 0.0000 0.0000 0.0000 19.6844 0.0000 -14.7419
#
#
#
# Elastic Compliance Matrix: (Units=1/GPa)
#
#
# Indices 1 2 3 4 5 6 
#
# 1 0.011574 -0.000265 -0.005868 0.000000 -0.006742 0.000000
# 2 -0.000265 0.017216 -0.006134 0.000000 0.005406 0.000000
# 3 -0.005868 -0.006134 0.013089 0.000000 -0.000820 0.000000
# 4 0.000000 0.000000 0.000000 0.019594 0.000000 0.026163
# 5 -0.006742 0.005406 -0.000820 0.000000 0.019664 0.000000
# 6 0.000000 0.000000 0.000000 0.026163 0.000000 -0.032899
#
#
# Mechanical properties :
#
#
# Convention : Reuss Voigt Hill
#
# Bulk Modulus (GPa) = 57.65385 72.15342 64.90364
# Shear Modulus (GPa) = 63.64967 32.43392 48.04179
#
# Velocity S-wave (km/s) = 4.99135 3.56303 4.33641
# Velocity P-wave (km/s) = 7.46893 6.72079 7.10472
#
# Compressibility (1/GPa) = 0.01734490
#
# Stress axis : x y z
#
# Youngs Moduli (GPa) = 86.40010 58.08424 76.40008
#
# Poissons Ratio (x) = 0.01542 0.44828
# Poissons Ratio (y) = 0.02293 0.46866
# Poissons Ratio (z) = 0.50696 0.35630
#
# Static dielectric constant tensor:
#      x y z
#    x -3.611190 0.000000 1.376470 
#    y 0.000000 1.950890 0.000000 
#    z 1.376470 0.000000 1.790230 
# 
# From -- ./inp_files/168895.got.cif
#   From: 2010.05.17/outbox.cif.g08.bks.cpg/sg15_85_cif.got.tgz:168895.got - 2010.06.03 18:47:42.
