data_PCOD9257237
_publ_section_title
;
Structure prediction by ZEFSAII (Michael W. Deem and Ramdas Pophale) SiO2 
 PCOD9257237
Probable space group: C 2/C
;
_chemical_formula_sum "Si O2"
_cell_formula_units_Z 64
_cell_length_a 21.405661
_cell_length_b 15.687817
_cell_length_c 10.455574
_cell_angle_alpha 90.000000
_cell_angle_beta 91.105508
_cell_angle_gamma 90.000000
_cell_volume 3510.412818
_symmetry_space_group_name_H-M "C 2/C"
_symmetry_group_IT_number 15
_symmetry_cell_setting 'monoclinic'
loop_
_space_group_symop_operation_xyz
x,y,z
-x,y,1/2-z
-x,-y,-z
x,-y,1/2+z
1/2+x,1/2+y,z
1/2-x,1/2+y,1/2-z
1/2-x,1/2-y,-z
1/2+x,1/2-y,1/2+z
loop_
_atom_site_type_symbol
_atom_site_label
_atom_site_fract_x
_atom_site_fract_y
_atom_site_fract_z
Si Si1 0.197469 0.681920 0.037585
Si Si2 0.601813 0.384266 0.307693
Si Si3 0.110286 0.828638 0.014308
Si Si4 0.483451 0.401953 0.972584
Si Si5 0.763702 0.137666 0.585682
Si Si6 0.278988 0.462788 0.486624
Si Si7 0.134752 0.064859 0.208788
Si Si8 0.262649 0.302413 0.798340
O O1 0.134108 0.731894 0.004872
O O2 0.211035 0.673222 0.190448
O O3 0.250000 0.750000 0.000000
O O4 0.217795 0.595383 0.967994
O O5 0.599297 0.348790 0.164623
O O6 0.543536 0.366040 0.395222
O O7 0.662971 0.348274 0.381397
O O8 0.610628 0.487279 0.297081
O O9 0.165536 0.895557 0.980960
O O10 0.046644 0.852614 0.939580
O O11 0.500000 0.500000 0.000000
O O12 0.426155 0.406161 0.872318
O O13 0.730765 0.200186 0.685212
O O14 0.745898 0.166425 0.441377
O O15 0.759307 0.035213 0.588021
O O16 0.312546 0.514791 0.374657
O O17 0.173221 0.151149 0.237753
#
# Coordination Sequence:
#
# PCOD9257237 Si02
#       8
#     8   8   8   8   8   8   8   8
#     4  10  20  34  51  72 101 138 175 219 262 301
#     4  11  18  32  46  68 104 138 171 211 248 313
#     4  10  20  31  48  72 101 141 174 209 260 315
#     4  12  20  32  46  73 105 142 176 200 255 324
#     4  10  18  31  48  71 101 134 169 212 268 311
#     4   9  17  33  49  70  99 133 171 214 251 310
#     4  10  21  32  50  76 105 140 175 210 266 315
#     4  10  19  31  48  72 102 132 168 222 263 314
#
# _framework density 18.231473999999999
#
# number of rings (size 3 to 8) (size 9 to 14) (size 15 to 20)
#    0.000    1.750    6.250    1.125    0.000    0.000 
#    0.000    0.000    0.000    0.000    0.000    0.875 
#    0.000    0.000    0.750    0.000    0.000    1.000 
#
# Total GULP energy -178180.092908 kJ/mol
# GULP energy per Si atom -5568.127903 kJ/mol
# Density = 1.818998 g / cm^3
# Si number density = 18.231474 Si / 1000 Ang^3
#
#
#
# Elastic Constant Matrix: (Units=GPa)
#
#
# Indices 1 2 3 4 5 6 
#
# 1 82.5502 55.1837 15.3102 0.0000 6.7473 0.0000
# 2 55.1837 86.4391 10.0359 0.0000 2.9333 0.0000
# 3 15.3102 10.0359 60.5944 0.0000 5.1189 0.0000
# 4 0.0000 0.0000 0.0000 22.7161 0.0000 1.3085
# 5 6.7473 2.9333 5.1189 0.0000 17.8991 0.0000
# 6 0.0000 0.0000 0.0000 1.3085 0.0000 34.6658
#
#
#
# Elastic Compliance Matrix: (Units=1/GPa)
#
#
# Indices 1 2 3 4 5 6 
#
# 1 0.022226 -0.013672 -0.002903 0.000000 -0.005307 0.000000
# 2 -0.013672 0.020241 -0.000054 0.000000 0.001852 0.000000
# 3 -0.002903 -0.000054 0.017577 0.000000 -0.003924 0.000000
# 4 0.000000 0.000000 0.000000 0.044118 0.000000 -0.001665
# 5 -0.005307 0.001852 -0.003924 0.000000 0.058688 0.000000
# 6 0.000000 0.000000 0.000000 -0.001665 0.000000 0.028910
#
#
# Mechanical properties :
#
#
# Convention : Reuss Voigt Hill
#
# Bulk Modulus (GPa) = 37.33447 43.40481 40.36964
# Shear Modulus (GPa) = 21.37253 24.99313 23.18283
#
# Velocity S-wave (km/s) = 3.42758 3.70655 3.56979
# Velocity P-wave (km/s) = 6.01556 6.49441 6.25956
#
# Compressibility (1/GPa) = 0.02678490
#
# Stress axis : x y z
#
# Youngs Moduli (GPa) = 44.99335 49.40571 56.89221
#
# Poissons Ratio (x) = 0.67547 0.16515
# Poissons Ratio (y) = 0.61514 0.00309
# Poissons Ratio (z) = 0.13061 0.00269
#
# Static dielectric constant tensor:
#      x y z
#    x 1.654240 0.000000 -0.012790 
#    y 0.000000 1.691240 0.000000 
#    z -0.012790 0.000000 1.780170 
# 
# From -- ./inp_files/113239.got.cif
#   From: 2010.05.17/outbox.cif.g08.bks.cpg/sg15_57_cif.got.tgz:113239.got - 2010.06.03 18:47:42.
