data_PCOD9257479
_publ_section_title
;
Structure prediction by ZEFSAII (Michael W. Deem and Ramdas Pophale) SiO2 
 PCOD9257479
Probable space group: C 2/C
;
_chemical_formula_sum "Si O2"
_cell_formula_units_Z 44
_cell_length_a 17.777609
_cell_length_b 9.867756
_cell_length_c 11.647660
_cell_angle_alpha 90.000000
_cell_angle_beta 130.388053
_cell_angle_gamma 90.000000
_cell_volume 1556.321242
_symmetry_space_group_name_H-M "C 2/C"
_symmetry_group_IT_number 15
_symmetry_cell_setting 'monoclinic'
loop_
_space_group_symop_operation_xyz
x,y,z
-x,y,1/2-z
-x,-y,-z
x,-y,1/2+z
1/2+x,1/2+y,z
1/2-x,1/2+y,1/2-z
1/2-x,1/2-y,-z
1/2+x,1/2-y,1/2+z
loop_
_atom_site_type_symbol
_atom_site_label
_atom_site_fract_x
_atom_site_fract_y
_atom_site_fract_z
Si Si1 0.768391 0.448323 0.972376
Si Si2 0.171189 0.720535 0.746705
Si Si3 0.089250 0.958002 0.008601
Si Si4 0.690400 0.303931 0.308530
Si Si5 0.036562 0.344275 0.409595
Si Si6 0.500000 0.330958 0.250000
O O1 0.680749 0.354429 0.836020
O O2 0.749446 0.607453 0.959544
O O3 0.788752 0.390022 0.119968
O O4 0.861306 0.424125 0.978254
O O5 0.227618 0.769976 0.687628
O O6 0.061208 0.666122 0.609652
O O7 0.069715 0.811118 0.934871
O O8 0.072935 0.070782 0.894791
O O9 0.167920 0.917198 0.185155
O O10 0.000000 0.000000 0.000000
O O11 0.582358 0.257503 0.248410
O O12 0.000000 0.393082 0.250000
#
# Coordination Sequence:
#
# PCOD9257479 Si02
#       6
#     8   8   8   8   8   4
#     4  10  21  36  57  88 120 146 195 240 283 345
#     4  10  20  36  59  85 116 152 192 238 288 337
#     4  10  18  31  55  84 111 146 190 241 289 327
#     4  11  21  33  56  85 118 153 187 240 291 339
#     4  10  19  34  58  85 114 148 191 242 283 334
#     4  10  20  32  52  84 116 142 194 238 282 336
#
# _framework density 28.271798
#
# number of rings (size 3 to 8) (size 9 to 14) (size 15 to 20)
#    0.000    1.818    2.727    3.273    2.545    0.727 
#    0.000    0.000    0.000   17.455    2.364    0.000 
#    0.000    0.000    0.000    0.000    0.000    0.000 
#
# Total GULP energy -122526.137828 kJ/mol
# GULP energy per Si atom -5569.369901 kJ/mol
# Density = 2.820745 g / cm^3
# Si number density = 28.271798 Si / 1000 Ang^3
#
#
#
# Elastic Constant Matrix: (Units=GPa)
#
#
# Indices 1 2 3 4 5 6 
#
# 1 246.1273 10.3285 -4.8955 0.0000 -20.0566 0.0000
# 2 10.3285 31.5646 -11.8863 0.0000 -2.3967 0.0000
# 3 -4.8955 -11.8863 52.7699 0.0000 4.3793 0.0000
# 4 0.0000 0.0000 0.0000 30.4818 0.0000 -4.2093
# 5 -20.0566 -2.3967 4.3793 0.0000 33.6748 0.0000
# 6 0.0000 0.0000 0.0000 -4.2093 0.0000 23.5279
#
#
#
# Elastic Compliance Matrix: (Units=1/GPa)
#
#
# Indices 1 2 3 4 5 6 
#
# 1 0.004317 -0.001257 -0.000090 0.000000 0.002493 0.000000
# 2 -0.001257 0.035055 0.007718 0.000000 0.000743 0.000000
# 3 -0.000090 0.007718 0.020864 0.000000 -0.002217 0.000000
# 4 0.000000 0.000000 0.000000 0.033637 0.000000 0.006018
# 5 0.002493 0.000743 -0.002217 0.000000 0.031522 0.000000
# 6 0.000000 0.000000 0.000000 0.006018 0.000000 0.043579
#
#
# Mechanical properties :
#
#
# Convention : Reuss Voigt Hill
#
# Bulk Modulus (GPa) = 13.70255 35.28389 24.49322
# Shear Modulus (GPa) = 27.69172 39.99791 33.84481
#
# Velocity S-wave (km/s) = 3.13306 3.76541 3.46370
# Velocity P-wave (km/s) = 4.23620 5.60462 4.96775
#
# Compressibility (1/GPa) = 0.07297913
#
# Stress axis : x y z
#
# Youngs Moduli (GPa) = 231.63739 28.52648 47.92867
#
# Poissons Ratio (x) = 0.03586 0.00429
# Poissons Ratio (y) = 0.29118 -0.36991
# Poissons Ratio (z) = 0.02075 -0.22016
#
# Static dielectric constant tensor:
#      x y z
#    x 2.439830 0.000000 0.046360 
#    y 0.000000 2.230240 0.000000 
#    z 0.046360 0.000000 2.455180 
# 
# From -- ./inp_files/104376.got.cif
#   From: 2010.05.17/outbox.cif.g08.bks.cpg/sg15_53_cif.got.tgz:104376.got - 2010.06.03 18:47:42.
