data_PCOD9257736
_publ_section_title
;
Structure prediction by ZEFSAII (Michael W. Deem and Ramdas Pophale) SiO2 
 PCOD9257736
Probable space group: C 2/C
;
_chemical_formula_sum "Si O2"
_cell_formula_units_Z 48
_cell_length_a 13.460926
_cell_length_b 12.611737
_cell_length_c 15.976398
_cell_angle_alpha 90.000000
_cell_angle_beta 128.942885
_cell_angle_gamma 90.000000
_cell_volume 2109.509696
_symmetry_space_group_name_H-M "C 2/C"
_symmetry_group_IT_number 15
_symmetry_cell_setting 'monoclinic'
loop_
_space_group_symop_operation_xyz
x,y,z
-x,y,1/2-z
-x,-y,-z
x,-y,1/2+z
1/2+x,1/2+y,z
1/2-x,1/2+y,1/2-z
1/2-x,1/2-y,-z
1/2+x,1/2-y,1/2+z
loop_
_atom_site_type_symbol
_atom_site_label
_atom_site_fract_x
_atom_site_fract_y
_atom_site_fract_z
Si Si1 0.231606 0.393195 0.761532
Si Si2 0.602477 0.262915 0.520196
Si Si3 0.546153 0.954712 0.933788
Si Si4 0.798016 0.277015 0.160317
Si Si5 0.542734 0.179141 0.894738
Si Si6 0.587414 0.573508 0.602816
O O1 0.286434 0.327092 0.871241
O O2 0.082650 0.423256 0.684814
O O3 0.249178 0.320131 0.689472
O O4 0.323461 0.495123 0.796701
O O5 0.631309 0.150905 0.490427
O O6 0.506083 0.224576 0.543596
O O7 0.514075 0.340033 0.416479
O O8 0.604702 0.062302 0.928005
O O9 0.500000 0.000000 0.000000
O O10 0.863983 0.246318 0.108618
O O11 0.688627 0.363468 0.100473
O O12 0.911951 0.328674 0.274121
O O13 0.500000 0.500000 0.500000
#
# Coordination Sequence:
#
# PCOD9257736 Si02
#       6
#     8   8   8   8   8   8
#     4  10  19  33  52  77 113 142 188 233 266 334
#     4   9  19  32  52  81 109 146 188 226 272 331
#     4  10  18  32  52  82 109 146 188 221 271 336
#     4  10  18  33  54  81 110 148 174 237 290 319
#     4   9  19  32  52  84 116 137 181 233 289 324
#     4  10  19  32  52  78 105 147 192 225 277 334
#
# _framework density 22.754103000000001
#
# number of rings (size 3 to 8) (size 9 to 14) (size 15 to 20)
#    0.000    2.333    3.333    0.000    0.000    0.667 
#    0.000    0.000    0.000    4.000    4.333   18.667 
#    0.000    0.000    0.000    0.000    0.000    0.000 
#
# Total GULP energy -133716.073301 kJ/mol
# GULP energy per Si atom -5571.503054 kJ/mol
# Density = 2.270231 g / cm^3
# Si number density = 22.754103 Si / 1000 Ang^3
#
#
#
# Elastic Constant Matrix: (Units=GPa)
#
#
# Indices 1 2 3 4 5 6 
#
# 1 29.0592 -2.6795 4.2877 0.0000 -0.2929 0.0000
# 2 -2.6795 78.8517 28.6897 0.0000 1.0206 0.0000
# 3 4.2877 28.6897 104.0927 0.0000 22.5116 0.0000
# 4 0.0000 0.0000 0.0000 40.8313 0.0000 9.2698
# 5 -0.2929 1.0206 22.5116 0.0000 15.3231 0.0000
# 6 0.0000 0.0000 0.0000 9.2698 0.0000 10.8068
#
#
#
# Elastic Compliance Matrix: (Units=1/GPa)
#
#
# Indices 1 2 3 4 5 6 
#
# 1 0.035151 0.002296 -0.003214 0.000000 0.005241 0.000000
# 2 0.002296 0.014775 -0.005809 0.000000 0.007594 0.000000
# 3 -0.003214 -0.005809 0.016518 0.000000 -0.023942 0.000000
# 4 0.000000 0.000000 0.000000 0.030414 0.000000 -0.026088
# 5 0.005241 0.007594 -0.023942 0.000000 0.100029 0.000000
# 6 0.000000 0.000000 0.000000 -0.026088 0.000000 0.114912
#
#
# Mechanical properties :
#
#
# Convention : Reuss Voigt Hill
#
# Bulk Modulus (GPa) = 18.87149 30.28883 24.58016
# Shear Modulus (GPa) = 14.58076 25.50595 20.04336
#
# Velocity S-wave (km/s) = 2.53414 3.35167 2.97116
# Velocity P-wave (km/s) = 4.10782 5.32152 4.75356
#
# Compressibility (1/GPa) = 0.05299000
#
# Stress axis : x y z
#
# Youngs Moduli (GPa) = 28.44841 67.67975 60.53961
#
# Poissons Ratio (x) = -0.15540 0.19459
# Poissons Ratio (y) = -0.06532 0.35170
# Poissons Ratio (z) = 0.09144 0.39318
#
# Static dielectric constant tensor:
#      x y z
#    x 1.822050 0.000000 -0.021500 
#    y 0.000000 1.939700 0.000000 
#    z -0.021500 0.000000 1.909190 
# 
# From -- ./inp_files/243265.got.cif
#   From: 2010.05.17/outbox.cif.g08.bks.cpg/sg15_122_cif.got.tgz:243265.got - 2010.06.03 18:47:42.
