data_PCOD9257361
_publ_section_title
;
Structure prediction by ZEFSAII (Michael W. Deem and Ramdas Pophale) SiO2 
 PCOD9257361
Probable space group: C 2/C
;
_chemical_formula_sum "Si O2"
_cell_formula_units_Z 32
_cell_length_a 17.869787
_cell_length_b 5.073793
_cell_length_c 13.419508
_cell_angle_alpha 90.000000
_cell_angle_beta 114.103108
_cell_angle_gamma 90.000000
_cell_volume 1110.631707
_symmetry_space_group_name_H-M "C 2/C"
_symmetry_group_IT_number 15
_symmetry_cell_setting 'monoclinic'
loop_
_space_group_symop_operation_xyz
x,y,z
-x,y,1/2-z
-x,-y,-z
x,-y,1/2+z
1/2+x,1/2+y,z
1/2-x,1/2+y,1/2-z
1/2-x,1/2-y,-z
1/2+x,1/2-y,1/2+z
loop_
_atom_site_type_symbol
_atom_site_label
_atom_site_fract_x
_atom_site_fract_y
_atom_site_fract_z
Si Si1 0.822014 0.214050 0.166823
Si Si2 0.173054 0.112469 0.091331
Si Si3 0.406986 0.797148 0.711473
Si Si4 0.411158 0.126985 0.447586
O O1 0.818436 0.162256 0.284344
O O2 0.746361 0.410853 0.103539
O O3 0.896814 0.401118 0.171738
O O4 0.841480 0.919876 0.138621
O O5 0.152915 0.408820 0.045853
O O6 0.095989 0.926784 0.021209
O O7 0.500000 0.705013 0.750000
O O8 0.390936 0.834228 0.820011
O O9 0.500000 0.000000 0.500000
#
# Coordination Sequence:
#
# PCOD9257361 Si02
#       4
#     8   8   8   8
#     4  10  18  31  52  77 101 129 173 221 256 292
#     4  10  18  31  52  77 101 129 173 221 255 290
#     4  10  20  33  52  76 104 136 169 211 260 308
#     4  10  20  33  52  76 104 136 169 211 258 306
#
# _framework density 28.812429999999999
#
# number of rings (size 3 to 8) (size 9 to 14) (size 15 to 20)
#    0.000    2.000    0.000    7.500    0.000    0.000 
#    0.000    0.000    0.000    9.000    0.000    0.000 
#    0.000   18.000    0.000    0.000    0.000    0.000 
#
# Total GULP energy -89431.285011 kJ/mol
# GULP energy per Si atom -5589.455313 kJ/mol
# Density = 2.874685 g / cm^3
# Si number density = 28.812430 Si / 1000 Ang^3
#
#
#
# Elastic Constant Matrix: (Units=GPa)
#
#
# Indices 1 2 3 4 5 6 
#
# 1 118.8772 71.8152 32.7705 0.0000 26.5286 0.0000
# 2 71.8152 251.6329 49.4180 0.0000 15.4750 0.0000
# 3 32.7705 49.4180 80.4999 0.0000 -3.8216 0.0000
# 4 0.0000 0.0000 0.0000 55.5419 0.0000 6.3633
# 5 26.5286 15.4750 -3.8216 0.0000 63.6174 0.0000
# 6 0.0000 0.0000 0.0000 6.3633 0.0000 48.2996
#
#
#
# Elastic Compliance Matrix: (Units=1/GPa)
#
#
# Indices 1 2 3 4 5 6 
#
# 1 0.011872 -0.002405 -0.003574 0.000000 -0.004581 0.000000
# 2 -0.002405 0.005110 -0.002176 0.000000 -0.000371 0.000000
# 3 -0.003574 -0.002176 0.015353 0.000000 0.002942 0.000000
# 4 0.000000 0.000000 0.000000 0.018280 0.000000 -0.002408
# 5 -0.004581 -0.000371 0.002942 0.000000 0.017896 0.000000
# 6 0.000000 0.000000 0.000000 -0.002408 0.000000 0.021021
#
#
# Mechanical properties :
#
#
# Convention : Reuss Voigt Hill
#
# Bulk Modulus (GPa) = 62.39954 84.33527 73.36741
# Shear Modulus (GPa) = 44.97001 53.29220 49.13110
#
# Velocity S-wave (km/s) = 3.95496 4.30539 4.13389
# Velocity P-wave (km/s) = 6.52379 7.35182 6.95014
#
# Compressibility (1/GPa) = 0.01602576
#
# Stress axis : x y z
#
# Youngs Moduli (GPa) = 84.23025 195.67618 65.13422
#
# Poissons Ratio (x) = 0.47053 0.23281
# Poissons Ratio (y) = 0.20254 0.14173
# Poissons Ratio (z) = 0.30106 0.42579
#
# Static dielectric constant tensor:
#      x y z
#    x 2.346330 0.000000 -0.020960 
#    y 0.000000 2.143800 0.000000 
#    z -0.020960 0.000000 2.336540 
# 
# From -- ./inp_files/207769.got.cif
#   From: 2010.05.17/outbox.cif.g08.bks.cpg/sg15_104_cif.got.tgz:207769.got - 2010.06.03 18:47:42.
