data_PCOD9257476
_publ_section_title
;
Structure prediction by ZEFSAII (Michael W. Deem and Ramdas Pophale) SiO2 
 PCOD9257476
Probable space group: C 2/C
;
_chemical_formula_sum "Si O2"
_cell_formula_units_Z 56
_cell_length_a 16.378227
_cell_length_b 21.588581
_cell_length_c 14.899075
_cell_angle_alpha 90.000000
_cell_angle_beta 40.229890
_cell_angle_gamma 90.000000
_cell_volume 3402.405143
_symmetry_space_group_name_H-M "C 2/C"
_symmetry_group_IT_number 15
_symmetry_cell_setting 'monoclinic'
loop_
_space_group_symop_operation_xyz
x,y,z
-x,y,1/2-z
-x,-y,-z
x,-y,1/2+z
1/2+x,1/2+y,z
1/2-x,1/2+y,1/2-z
1/2-x,1/2-y,-z
1/2+x,1/2-y,1/2+z
loop_
_atom_site_type_symbol
_atom_site_label
_atom_site_fract_x
_atom_site_fract_y
_atom_site_fract_z
Si Si1 0.300883 0.479240 0.871419
Si Si2 0.500000 0.382661 0.750000
Si Si3 0.500000 0.416769 0.250000
Si Si4 0.789647 0.988760 0.184244
Si Si5 0.002422 0.203625 0.089583
Si Si6 0.271333 0.224685 0.881070
Si Si7 0.469758 0.599032 0.975933
Si Si8 0.643310 0.916799 0.161610
O O1 0.407996 0.426766 0.771655
O O2 0.377697 0.538832 0.841291
O O3 0.244415 0.493785 0.822038
O O4 0.214037 0.449665 0.019408
O O5 0.446160 0.339223 0.871828
O O6 0.516143 0.383828 0.140852
O O7 0.681186 0.959363 0.214410
O O8 0.902787 0.938097 0.101106
O O9 0.857448 0.048982 0.084090
O O10 0.887130 0.241965 0.230607
O O11 0.955409 0.158763 0.050343
O O12 0.133829 0.236155 0.950269
O O13 0.310744 0.152635 0.854660
O O14 0.250000 0.250000 0.000000
O O15 0.500000 0.913529 0.250000
#
# Coordination Sequence:
#
# PCOD9257476 Si02
#       8
#     8   4   4   8   8   8   8   8
#     4  10  18  31  55  83 111 141 180 227 284 333
#     4  11  16  30  56  82 108 144 176 235 270 326
#     4   9  18  30  60  86 104 128 184 243 282 324
#     4  10  19  33  55  85 109 143 188 231 288 337
#     4  12  21  35  58  82 119 150 190 236 280 338
#     4  12  23  37  53  82 116 160 193 226 278 336
#     4  10  18  34  58  86 107 137 189 247 282 327
#     4  12  23  36  51  79 125 155 182 226 278 348
#
# _framework density 16.458945
#
# number of rings (size 3 to 8) (size 9 to 14) (size 15 to 20)
#    0.000    1.143    7.143    0.857    0.000    0.571 
#    0.000    0.000    0.000    0.857    0.000    0.000 
#    0.000    0.000    0.000    0.000    0.000    0.000 
#
# Total GULP energy -155959.400134 kJ/mol
# GULP energy per Si atom -5569.978576 kJ/mol
# Density = 1.642148 g / cm^3
# Si number density = 16.458945 Si / 1000 Ang^3
#
#
#
# Elastic Constant Matrix: (Units=GPa)
#
#
# Indices 1 2 3 4 5 6 
#
# 1 96.7768 47.1909 54.4531 -0.0001 12.2457 0.0001
# 2 47.1909 71.5733 52.2620 -0.0001 8.8419 0.0001
# 3 54.4531 52.2620 85.7120 -0.0002 5.4485 0.0001
# 4 -0.0001 -0.0001 -0.0002 20.9942 0.0001 12.2591
# 5 12.2457 8.8419 5.4485 0.0001 35.4189 -0.0001
# 6 0.0001 0.0001 0.0001 12.2591 -0.0001 13.0777
#
#
#
# Elastic Compliance Matrix: (Units=1/GPa)
#
#
# Indices 1 2 3 4 5 6 
#
# 1 0.017892 -0.005807 -0.007599 0.000000 -0.003567 0.000000
# 2 -0.005807 0.027633 -0.012975 0.000000 -0.002894 0.000000
# 3 -0.007599 -0.012975 0.024271 0.000000 0.002133 0.000000
# 4 0.000000 0.000000 0.000000 0.105236 0.000000 -0.098648
# 5 -0.003567 -0.002894 0.002133 0.000000 0.029861 0.000001
# 6 0.000000 0.000000 0.000000 -0.098648 0.000001 0.168939
#
#
# Mechanical properties :
#
#
# Convention : Reuss Voigt Hill
#
# Bulk Modulus (GPa) = 58.71368 62.43044 60.57206
# Shear Modulus (GPa) = 11.56677 20.57526 16.07102
#
# Velocity S-wave (km/s) = 2.65385 3.53951 3.12818
# Velocity P-wave (km/s) = 6.71869 7.39713 7.06606
#
# Compressibility (1/GPa) = 0.01703180
#
# Stress axis : x y z
#
# Youngs Moduli (GPa) = 55.89079 36.18899 41.20200
#
# Poissons Ratio (x) = 0.21016 0.31310
# Poissons Ratio (y) = 0.32458 0.53461
# Poissons Ratio (z) = 0.42472 0.46956
#
# Static dielectric constant tensor:
#      x y z
#    x 1.259000 0.000000 0.197450 
#    y 0.000000 1.558430 0.000000 
#    z 0.197450 0.000000 1.471000 
# 
# From -- ./inp_files/98432.got.cif
#   From: 2010.05.17/outbox.cif.g08.bks.cpg/sg15_50_cif.got.tgz:98432.got - 2010.06.03 18:47:42.
