data_PCOD9257391
_publ_section_title
;
Structure prediction by ZEFSAII (Michael W. Deem and Ramdas Pophale) SiO2 
 PCOD9257391
Probable space group: C 2/C
;
_chemical_formula_sum "Si O2"
_cell_formula_units_Z 60
_cell_length_a 13.383868
_cell_length_b 13.090379
_cell_length_c 16.256247
_cell_angle_alpha 90.000000
_cell_angle_beta 76.927962
_cell_angle_gamma 90.000000
_cell_volume 2774.288764
_symmetry_space_group_name_H-M "C 2/C"
_symmetry_group_IT_number 15
_symmetry_cell_setting 'monoclinic'
loop_
_space_group_symop_operation_xyz
x,y,z
-x,y,1/2-z
-x,-y,-z
x,-y,1/2+z
1/2+x,1/2+y,z
1/2-x,1/2+y,1/2-z
1/2-x,1/2-y,-z
1/2+x,1/2-y,1/2+z
loop_
_atom_site_type_symbol
_atom_site_label
_atom_site_fract_x
_atom_site_fract_y
_atom_site_fract_z
Si Si1 0.150457 0.304402 0.862752
Si Si2 0.831945 0.634390 0.846258
Si Si3 0.811832 0.956176 0.006222
Si Si4 0.500000 0.247348 0.250000
Si Si5 0.239295 0.513275 0.267621
Si Si6 0.918205 0.933842 0.626597
Si Si7 0.601153 0.427684 0.148170
Si Si8 0.437584 0.264514 0.949032
O O1 0.238908 0.216094 0.846192
O O2 0.199176 0.417051 0.848758
O O3 0.086489 0.306641 0.788568
O O4 0.084310 0.287289 0.958408
O O5 0.793634 0.562892 0.928801
O O6 0.839097 0.557487 0.768269
O O7 0.925049 0.695235 0.870089
O O8 0.892130 0.979779 0.064431
O O9 0.827991 0.050400 0.943159
O O10 0.846620 0.849533 0.960176
O O11 0.548413 0.320378 0.170909
O O12 0.312024 0.582193 0.194760
O O13 0.325960 0.439374 0.287635
O O14 0.013054 0.984759 0.658381
O O15 0.959757 0.830941 0.577719
#
# Coordination Sequence:
#
# PCOD9257391 Si02
#       8
#     8   8   8   4   8   8   8   8
#     4  11  21  35  56  86 114 151 187 237 283 340
#     4  10  19  35  52  85 114 150 192 233 282 348
#     4   9  17  28  51  83 119 144 178 227 296 340
#     4  12  20  32  54  82 120 140 194 224 286 342
#     4  11  21  33  54  82 123 143 185 240 293 322
#     4  10  18  31  52  87 120 147 178 237 292 346
#     4  11  16  30  51  83 113 148 172 231 287 340
#     4  10  18  32  57  84 117 148 192 234 280 343
#
# _framework density 21.627165000000002
#
# number of rings (size 3 to 8) (size 9 to 14) (size 15 to 20)
#    0.000    1.600    2.667    8.000    0.000    0.000 
#    0.000    0.000    2.933    8.000    0.000    0.000 
#    0.000    0.000    0.000    0.000    0.000    0.000 
#
# Total GULP energy -167126.323339 kJ/mol
# GULP energy per Si atom -5570.877445 kJ/mol
# Density = 2.157794 g / cm^3
# Si number density = 21.627165 Si / 1000 Ang^3
#
#
#
# Elastic Constant Matrix: (Units=GPa)
#
#
# Indices 1 2 3 4 5 6 
#
# 1 27.9920 17.3803 6.9490 0.0000 12.1502 0.0000
# 2 17.3803 50.8618 19.1798 0.0000 5.7498 0.0000
# 3 6.9490 19.1798 62.6368 0.0000 19.8741 0.0000
# 4 0.0000 0.0000 0.0000 56.2188 0.0000 3.6282
# 5 12.1502 5.7498 19.8741 0.0000 15.9729 0.0000
# 6 0.0000 0.0000 0.0000 3.6282 0.0000 29.0183
#
#
#
# Elastic Compliance Matrix: (Units=1/GPa)
#
#
# Indices 1 2 3 4 5 6 
#
# 1 0.086356 -0.029948 0.028109 0.000000 -0.089882 0.000000
# 2 -0.029948 0.032619 -0.016801 0.000000 0.031943 0.000000
# 3 0.028109 -0.016801 0.037766 0.000000 -0.062324 0.000000
# 4 0.000000 0.000000 0.000000 0.017932 0.000000 -0.002242
# 5 -0.089882 0.031943 -0.062324 0.000000 0.197024 0.000000
# 6 0.000000 0.000000 0.000000 -0.002242 0.000000 0.034741
#
#
# Mechanical properties :
#
#
# Convention : Reuss Voigt Hill
#
# Bulk Modulus (GPa) = 8.37096 25.38987 16.88042
# Shear Modulus (GPa) = 10.34041 26.77411 18.55726
#
# Velocity S-wave (km/s) = 2.18897 3.52232 2.93243
# Velocity P-wave (km/s) = 3.20434 5.32049 4.39177
#
# Compressibility (1/GPa) = 0.11946054
#
# Stress axis : x y z
#
# Youngs Moduli (GPa) = 11.58002 30.65665 26.47876
#
# Poissons Ratio (x) = 0.91810 -0.74429
# Poissons Ratio (y) = 0.34680 0.44487
# Poissons Ratio (z) = -0.32550 0.51507
#
# Static dielectric constant tensor:
#      x y z
#    x 1.812340 0.000000 -0.002380 
#    y 0.000000 1.766690 0.000000 
#    z -0.002380 0.000000 1.890120 
# 
# From -- ./inp_files/204056.got.cif
#   From: 2010.05.17/outbox.cif.g08.bks.cpg/sg15_103_cif.got.tgz:204056.got - 2010.06.03 18:47:42.
