data_PCOD9257224
_publ_section_title
;
Structure prediction by ZEFSAII (Michael W. Deem and Ramdas Pophale) SiO2 
 PCOD9257224
Probable space group: C 2/C
;
_chemical_formula_sum "Si O2"
_cell_formula_units_Z 48
_cell_length_a 23.592756
_cell_length_b 20.100794
_cell_length_c 8.386329
_cell_angle_alpha 90.000000
_cell_angle_beta 142.425374
_cell_angle_gamma 90.000000
_cell_volume 2425.197413
_symmetry_space_group_name_H-M "C 2/C"
_symmetry_group_IT_number 15
_symmetry_cell_setting 'monoclinic'
loop_
_space_group_symop_operation_xyz
x,y,z
-x,y,1/2-z
-x,-y,-z
x,-y,1/2+z
1/2+x,1/2+y,z
1/2-x,1/2+y,1/2-z
1/2-x,1/2-y,-z
1/2+x,1/2-y,1/2+z
loop_
_atom_site_type_symbol
_atom_site_label
_atom_site_fract_x
_atom_site_fract_y
_atom_site_fract_z
Si Si1 0.847505 0.716120 0.780215
Si Si2 0.244722 0.436382 0.900796
Si Si3 0.778677 0.583386 0.516415
Si Si4 0.108199 0.836481 0.793007
Si Si5 0.260063 0.809742 0.399551
Si Si6 0.033884 0.929871 0.141700
O O1 0.750000 0.750000 0.500000
O O2 0.850429 0.639830 0.733798
O O3 0.915590 0.767879 0.851427
O O4 0.838019 0.713590 0.947627
O O5 0.218964 0.510337 0.901657
O O6 0.216316 0.378689 0.960462
O O7 0.355807 0.429847 0.127669
O O8 0.208668 0.423485 0.643284
O O9 0.679690 0.616674 0.348647
O O10 0.013646 0.876851 0.581270
O O11 0.166700 0.822105 0.084175
O O12 0.250000 0.750000 0.500000
O O13 0.000000 0.920344 0.250000
O O14 0.000000 0.000000 0.000000
#
# Coordination Sequence:
#
# PCOD9257224 Si02
#       6
#     8   8   8   8   8   8
#     4   8  17  32  50  64  90 126 179 222 267 279
#     4  12  20  31  48  72 103 135 177 204 269 305
#     4  10  18  31  47  69  96 133 173 221 249 314
#     4  10  19  34  48  68  97 137 179 214 257 304
#     4  10  20  32  51  68  93 129 175 230 268 311
#     4  12  24  33  48  69 110 150 181 207 242 319
#
# _framework density 19.792202
#
# number of rings (size 3 to 8) (size 9 to 14) (size 15 to 20)
#    0.000    2.000    3.333    5.000    2.333    0.000 
#    0.000    0.000    0.000    0.000    0.000    0.000 
#    0.000    1.333    1.000    1.667    0.000   10.500 
#
# Total GULP energy -133812.612206 kJ/mol
# GULP energy per Si atom -5575.525509 kJ/mol
# Density = 1.974715 g / cm^3
# Si number density = 19.792202 Si / 1000 Ang^3
#
#
#
# Elastic Constant Matrix: (Units=GPa)
#
#
# Indices 1 2 3 4 5 6 
#
# 1 37.0228 40.0188 28.0988 0.0000 -31.3053 0.0000
# 2 40.0188 183.6525 46.8975 0.0000 -30.2030 0.0000
# 3 28.0988 46.8975 66.1064 0.0000 -38.3799 0.0000
# 4 0.0000 0.0000 0.0000 31.5252 0.0000 -12.5133
# 5 -31.3053 -30.2030 -38.3799 0.0000 37.1295 0.0000
# 6 0.0000 0.0000 0.0000 -12.5133 0.0000 39.2986
#
#
#
# Elastic Compliance Matrix: (Units=1/GPa)
#
#
# Indices 1 2 3 4 5 6 
#
# 1 0.125101 -0.014266 0.028626 0.000000 0.123463 0.000000
# 2 -0.014266 0.008303 -0.007224 0.000000 -0.012741 0.000000
# 3 0.028626 -0.007224 0.046729 0.000000 0.066561 0.000000
# 4 0.000000 0.000000 0.000000 0.036310 0.000000 0.011562
# 5 0.123463 -0.012741 0.066561 0.000000 0.189468 0.000000
# 6 0.000000 0.000000 0.000000 0.011562 0.000000 0.029128
#
#
# Mechanical properties :
#
#
# Convention : Reuss Voigt Hill
#
# Bulk Modulus (GPa) = 5.14389 57.42354 31.28372
# Shear Modulus (GPa) = 10.29721 33.04175 21.66948
#
# Velocity S-wave (km/s) = 2.28341 4.09030 3.31244
# Velocity P-wave (km/s) = 3.09136 7.16824 5.51997
#
# Compressibility (1/GPa) = 0.19440524
#
# Stress axis : x y z
#
# Youngs Moduli (GPa) = 7.99351 120.43933 21.40019
#
# Poissons Ratio (x) = 1.71814 -0.61259
# Poissons Ratio (y) = 0.11403 0.15459
# Poissons Ratio (z) = -0.22882 0.87002
#
# Static dielectric constant tensor:
#      x y z
#    x 1.769020 0.000000 0.016770 
#    y 0.000000 1.749080 0.000000 
#    z 0.016770 0.000000 1.701660 
# 
# From -- ./inp_files/66768.got.cif
#   From: 2010.05.17/outbox.cif.g08.bks.cpg/sg15_34_cif.got.tgz:66768.got - 2010.06.03 18:47:42.
