data_PCOD9257436
_publ_section_title
;
Structure prediction by ZEFSAII (Michael W. Deem and Ramdas Pophale) SiO2 
 PCOD9257436
Probable space group: C 2/C
;
_chemical_formula_sum "Si O2"
_cell_formula_units_Z 64
_cell_length_a 16.237424
_cell_length_b 26.209016
_cell_length_c 10.691534
_cell_angle_alpha 90.000000
_cell_angle_beta 49.683934
_cell_angle_gamma 90.000000
_cell_volume 3469.287380
_symmetry_space_group_name_H-M "C 2/C"
_symmetry_group_IT_number 15
_symmetry_cell_setting 'monoclinic'
loop_
_space_group_symop_operation_xyz
x,y,z
-x,y,1/2-z
-x,-y,-z
x,-y,1/2+z
1/2+x,1/2+y,z
1/2-x,1/2+y,1/2-z
1/2-x,1/2-y,-z
1/2+x,1/2-y,1/2+z
loop_
_atom_site_type_symbol
_atom_site_label
_atom_site_fract_x
_atom_site_fract_y
_atom_site_fract_z
Si Si1 0.681119 0.228512 0.308448
Si Si2 0.925373 0.500163 0.199022
Si Si3 0.059971 0.699404 0.893693
Si Si4 0.889541 0.192831 0.226138
Si Si5 0.875855 0.165456 0.520952
Si Si6 0.185237 0.597299 0.781417
Si Si7 0.371120 0.211667 0.397811
Si Si8 0.370916 0.901591 0.876400
O O1 0.567435 0.200124 0.450754
O O2 0.781465 0.193971 0.251110
O O3 0.677287 0.280705 0.389808
O O4 0.678196 0.245112 0.165122
O O5 0.845220 0.452716 0.265194
O O6 0.859632 0.552956 0.288046
O O7 0.000000 0.494947 0.250000
O O8 0.000000 0.500000 0.000000
O O9 0.083356 0.746730 0.779225
O O10 0.104385 0.643505 0.819669
O O11 0.125717 0.714314 0.955771
O O12 0.873403 0.165016 0.373183
O O13 0.999079 0.169766 0.059390
O O14 0.804336 0.120000 0.645172
O O15 0.164545 0.584789 0.948006
O O16 0.500000 0.216821 0.250000
O O17 0.327878 0.155462 0.399987
O O18 0.500000 0.893460 0.750000
#
# Coordination Sequence:
#
# PCOD9257436 Si02
#       8
#     8   8   8   8   8   8   8   8
#     4  10  18  31  54  77 111 155 199 231 281 341
#     4  11  21  36  58  88 125 148 180 240 305 374
#     4   9  19  32  52  80 115 155 185 235 291 343
#     4  10  20  37  50  74 116 157 204 244 266 328
#     4  10  22  36  52  75 115 163 195 240 294 324
#     4  11  20  36  57  81 116 155 187 225 305 363
#     4   8  16  30  51  77 109 149 185 221 286 347
#     4   9  17  35  54  77 118 147 172 229 299 347
#
# _framework density 18.447593000000001
#
# number of rings (size 3 to 8) (size 9 to 14) (size 15 to 20)
#    0.000    2.250    3.750    1.125    0.000    1.500 
#    2.250    0.000    0.000    0.000    0.000    7.875 
#    0.000    0.000    0.000    0.000    0.000    0.000 
#
# Total GULP energy -178160.988992 kJ/mol
# GULP energy per Si atom -5567.530906 kJ/mol
# Density = 1.840561 g / cm^3
# Si number density = 18.447593 Si / 1000 Ang^3
#
#
#
# Elastic Constant Matrix: (Units=GPa)
#
#
# Indices 1 2 3 4 5 6 
#
# 1 101.6001 12.4799 29.4881 0.0000 -17.2635 0.0000
# 2 12.4799 63.5480 14.1159 0.0000 -2.2661 0.0000
# 3 29.4881 14.1159 92.3113 0.0000 -4.8452 0.0000
# 4 0.0000 0.0000 0.0000 8.3701 0.0000 10.3531
# 5 -17.2635 -2.2661 -4.8452 0.0000 28.9139 0.0000
# 6 0.0000 0.0000 0.0000 10.3531 0.0000 16.6503
#
#
#
# Elastic Compliance Matrix: (Units=1/GPa)
#
#
# Indices 1 2 3 4 5 6 
#
# 1 0.012087 -0.001407 -0.003302 0.000000 0.006553 0.000000
# 2 -0.001407 0.016475 -0.002064 0.000000 0.000105 0.000000
# 3 -0.003302 -0.002064 0.012199 0.000000 -0.000089 0.000000
# 4 0.000000 0.000000 0.000000 0.517424 0.000000 -0.321732
# 5 0.006553 0.000105 -0.000089 0.000000 0.038491 0.000000
# 6 0.000000 0.000000 0.000000 -0.321732 0.000000 0.260110
#
#
# Mechanical properties :
#
#
# Convention : Reuss Voigt Hill
#
# Bulk Modulus (GPa) = 36.74513 41.06968 38.90741
# Shear Modulus (GPa) = 5.68567 24.21190 14.94878
#
# Velocity S-wave (km/s) = 1.75749 3.62673 2.84973
# Velocity P-wave (km/s) = 4.90716 6.31259 5.65372
#
# Compressibility (1/GPa) = 0.02721449
#
# Stress axis : x y z
#
# Youngs Moduli (GPa) = 82.73228 60.69916 81.97568
#
# Poissons Ratio (x) = 0.08538 0.27069
# Poissons Ratio (y) = 0.11637 0.16923
# Poissons Ratio (z) = 0.27319 0.12531
#
# Static dielectric constant tensor:
#      x y z
#    x 1.686840 0.000000 -0.024550 
#    y 0.000000 1.683270 0.000000 
#    z -0.024550 0.000000 1.753580 
# 
# From -- ./inp_files/108219.got.cif
#   From: 2010.05.17/outbox.cif.g08.bks.cpg/sg15_55_cif.got.tgz:108219.got - 2010.06.03 18:47:42.
