data_PCOD9257274
_publ_section_title
;
Structure prediction by ZEFSAII (Michael W. Deem and Ramdas Pophale) SiO2 
 PCOD9257274
Probable space group: C 2/C
;
_chemical_formula_sum "Si O2"
_cell_formula_units_Z 40
_cell_length_a 20.697445
_cell_length_b 7.404619
_cell_length_c 14.531887
_cell_angle_alpha 90.000000
_cell_angle_beta 50.206929
_cell_angle_gamma 90.000000
_cell_volume 1711.223514
_symmetry_space_group_name_H-M "C 2/C"
_symmetry_group_IT_number 15
_symmetry_cell_setting 'monoclinic'
loop_
_space_group_symop_operation_xyz
x,y,z
-x,y,1/2-z
-x,-y,-z
x,-y,1/2+z
1/2+x,1/2+y,z
1/2-x,1/2+y,1/2-z
1/2-x,1/2-y,-z
1/2+x,1/2-y,1/2+z
loop_
_atom_site_type_symbol
_atom_site_label
_atom_site_fract_x
_atom_site_fract_y
_atom_site_fract_z
Si Si1 0.703240 0.573789 0.170247
Si Si2 0.717602 0.163798 0.227258
Si Si3 0.654181 0.543239 0.531513
Si Si4 0.421412 0.847833 0.774224
Si Si5 0.518953 0.518077 0.375624
O O1 0.710509 0.368507 0.200412
O O2 0.770852 0.667989 0.173830
O O3 0.711841 0.559485 0.053028
O O4 0.605339 0.624736 0.278409
O O5 0.640075 0.065557 0.245715
O O6 0.800724 0.082696 0.104856
O O7 0.632728 0.738737 0.598901
O O8 0.568063 0.432989 0.595074
O O9 0.500000 0.948873 0.750000
O O10 0.464049 0.682145 0.679852
O O11 0.500000 0.500000 0.500000
#
# Coordination Sequence:
#
# PCOD9257274 Si02
#       5
#     8   8   8   8   8
#     4  10  19  30  49  75  96 126 159 196 240 283
#     4  10  18  31  50  69  97 124 159 202 235 281
#     4   9  16  29  49  71  92 125 162 196 231 280
#     4   8  16  27  45  68  92 122 166 192 228 282
#     4   9  14  26  48  72  92 118 159 202 233 265
#
# _framework density 23.375088000000002
#
# number of rings (size 3 to 8) (size 9 to 14) (size 15 to 20)
#    0.000    3.200    2.000    4.200    0.000    0.000 
#    0.000    1.000    0.000   21.600    0.000    0.000 
#    0.000    0.000    0.000    0.000    0.000    0.000 
#
# Total GULP energy -111401.156556 kJ/mol
# GULP energy per Si atom -5570.057828 kJ/mol
# Density = 2.332188 g / cm^3
# Si number density = 23.375088 Si / 1000 Ang^3
#
#
#
# Elastic Constant Matrix: (Units=GPa)
#
#
# Indices 1 2 3 4 5 6 
#
# 1 173.0289 11.6324 -3.1062 -0.0015 7.3939 0.0011
# 2 11.6324 37.1807 1.3117 -0.0026 -6.4277 0.0021
# 3 -3.1062 1.3117 51.6776 -0.0014 11.4063 0.0014
# 4 -0.0015 -0.0026 -0.0014 5.6152 0.0010 7.9472
# 5 7.3939 -6.4277 11.4063 0.0010 38.7369 -0.0008
# 6 0.0011 0.0021 0.0014 7.9472 -0.0008 23.8859
#
#
#
# Elastic Compliance Matrix: (Units=1/GPa)
#
#
# Indices 1 2 3 4 5 6 
#
# 1 0.006018 -0.002214 0.000805 0.000003 -0.001753 -0.000001
# 2 -0.002214 0.028669 -0.002143 0.000027 0.005811 -0.000011
# 3 0.000805 -0.002143 0.020926 0.000014 -0.006671 -0.000006
# 4 0.000003 0.000027 0.000014 0.336584 -0.000011 -0.111986
# 5 -0.001753 0.005811 -0.006671 -0.000011 0.029078 0.000005
# 6 -0.000001 -0.000011 -0.000006 -0.111986 0.000005 0.079125
#
#
# Mechanical properties :
#
#
# Convention : Reuss Voigt Hill
#
# Bulk Modulus (GPa) = 20.61562 31.28478 25.95020
# Shear Modulus (GPa) = 9.54793 30.45089 19.99941
#
# Velocity S-wave (km/s) = 2.02325 3.61322 2.92821
# Velocity P-wave (km/s) = 3.78109 5.55158 4.74956
#
# Compressibility (1/GPa) = 0.04850691
#
# Stress axis : x y z
#
# Youngs Moduli (GPa) = 166.17957 34.88140 47.78750
#
# Poissons Ratio (x) = 0.07723 -0.03846
# Poissons Ratio (y) = 0.36794 0.10242
# Poissons Ratio (z) = -0.13374 0.07476
#
# Static dielectric constant tensor:
#      x y z
#    x 2.074760 0.000000 -0.031240 
#    y 0.000000 1.930160 0.000000 
#    z -0.031240 0.000000 1.874160 
# 
# From -- ./inp_files/159928.got.cif
#   From: 2010.05.17/outbox.cif.g08.bks.cpg/sg15_80_cif.got.tgz:159928.got - 2010.06.03 18:47:42.
