data_PCOD9257700
_publ_section_title
;
Structure prediction by ZEFSAII (Michael W. Deem and Ramdas Pophale) SiO2 
 PCOD9257700
Probable space group: C 2/C
;
_chemical_formula_sum "Si O2"
_cell_formula_units_Z 48
_cell_length_a 14.324326
_cell_length_b 22.888399
_cell_length_c 9.999494
_cell_angle_alpha 90.000000
_cell_angle_beta 112.480786
_cell_angle_gamma 90.000000
_cell_volume 3029.306937
_symmetry_space_group_name_H-M "C 2/C"
_symmetry_group_IT_number 15
_symmetry_cell_setting 'monoclinic'
loop_
_space_group_symop_operation_xyz
x,y,z
-x,y,1/2-z
-x,-y,-z
x,-y,1/2+z
1/2+x,1/2+y,z
1/2-x,1/2+y,1/2-z
1/2-x,1/2-y,-z
1/2+x,1/2-y,1/2+z
loop_
_atom_site_type_symbol
_atom_site_label
_atom_site_fract_x
_atom_site_fract_y
_atom_site_fract_z
Si Si1 0.380883 0.440599 0.347468
Si Si2 0.187629 0.175435 0.061201
Si Si3 0.115955 0.239120 0.284074
Si Si4 0.377014 0.550336 0.532946
Si Si5 0.692880 0.315817 0.091125
Si Si6 0.386791 0.245807 0.213291
O O1 0.354665 0.492567 0.435476
O O2 0.503115 0.435885 0.415865
O O3 0.354033 0.454945 0.178541
O O4 0.331484 0.380182 0.369370
O O5 0.128962 0.206707 0.150040
O O6 0.302357 0.197961 0.133557
O O7 0.179381 0.106341 0.057272
O O8 0.138346 0.199802 0.898089
O O9 0.191132 0.294803 0.328904
O O10 0.157787 0.195139 0.420754
O O11 0.000000 0.253346 0.250000
O O12 0.630368 0.269795 0.147583
O O13 0.500000 0.225936 0.250000
#
# Coordination Sequence:
#
# PCOD9257700 Si02
#       6
#     8   8   8   8   8   8
#     4  10  20  33  50  70  99 131 162 202 244 291
#     4  10  20  31  51  76  99 131 165 199 248 294
#     4  10  20  32  50  75 102 132 164 198 244 296
#     4  10  20  33  49  72  98 130 164 199 246 292
#     4  10  20  33  49  74 103 132 161 201 248 287
#     4  10  18  32  52  75 100 128 162 205 247 293
#
# _framework density 15.845208
#
# number of rings (size 3 to 8) (size 9 to 14) (size 15 to 20)
#    0.000    2.000    1.667    3.000    2.333    0.000 
#    0.000    0.000    0.000    1.000    0.000    2.333 
#    0.000    0.000    0.000    0.000    0.000    0.000 
#
# Total GULP energy -133890.852098 kJ/mol
# GULP energy per Si atom -5578.785504 kJ/mol
# Density = 1.580914 g / cm^3
# Si number density = 15.845208 Si / 1000 Ang^3
#
#
#
# Elastic Constant Matrix: (Units=GPa)
#
#
# Indices 1 2 3 4 5 6 
#
# 1 99.2924 36.4850 19.3710 0.0000 0.8247 0.0000
# 2 36.4850 105.0025 30.9053 0.0000 -2.7328 0.0000
# 3 19.3710 30.9053 41.8054 0.0000 -8.5864 0.0000
# 4 0.0000 0.0000 0.0000 14.5908 0.0000 -7.0765
# 5 0.8247 -2.7328 -8.5864 0.0000 17.6934 0.0000
# 6 0.0000 0.0000 0.0000 -7.0765 0.0000 20.1116
#
#
#
# Elastic Compliance Matrix: (Units=1/GPa)
#
#
# Indices 1 2 3 4 5 6 
#
# 1 0.011989 -0.003107 -0.003857 0.000000 -0.002910 0.000000
# 2 -0.003107 0.013100 -0.008663 0.000000 -0.002036 0.000000
# 3 -0.003857 -0.008663 0.035402 0.000000 0.016022 0.000000
# 4 0.000000 0.000000 0.000000 0.082639 0.000000 0.029077
# 5 -0.002910 -0.002036 0.016022 0.000000 0.064115 0.000000
# 6 0.000000 0.000000 0.000000 0.029077 0.000000 0.059954
#
#
# Mechanical properties :
#
#
# Convention : Reuss Voigt Hill
#
# Bulk Modulus (GPa) = 34.20046 46.62479 40.41262
# Shear Modulus (GPa) = 16.22338 21.10178 18.66258
#
# Velocity S-wave (km/s) = 3.20326 3.65327 3.43564
# Velocity P-wave (km/s) = 5.94240 6.87635 6.42637
#
# Compressibility (1/GPa) = 0.02923937
#
# Stress axis : x y z
#
# Youngs Moduli (GPa) = 83.40766 76.33717 28.24673
#
# Poissons Ratio (x) = 0.23715 0.10893
# Poissons Ratio (y) = 0.25911 0.24470
# Poissons Ratio (z) = 0.32166 0.66130
#
# Static dielectric constant tensor:
#      x y z
#    x 1.527960 0.000000 -0.009730 
#    y 0.000000 1.498440 0.000000 
#    z -0.009730 0.000000 1.537860 
# 
# From -- ./inp_files/31901.got.cif
#   From: 2010.05.17/outbox.cif.g08.bks.cpg/sg15_16_cif.got.tgz:31901.got - 2010.06.03 18:47:42.
