data_PCOD9257060
_publ_section_title
;
Structure prediction by ZEFSAII (Michael W. Deem and Ramdas Pophale) SiO2 
 PCOD9257060
Probable space group: C 2/C
;
_chemical_formula_sum "Si O2"
_cell_formula_units_Z 56
_cell_length_a 10.381278
_cell_length_b 18.906179
_cell_length_c 12.325046
_cell_angle_alpha 90.000000
_cell_angle_beta 105.709133
_cell_angle_gamma 90.000000
_cell_volume 2328.685929
_symmetry_space_group_name_H-M "C 2/C"
_symmetry_group_IT_number 15
_symmetry_cell_setting 'monoclinic'
loop_
_space_group_symop_operation_xyz
x,y,z
-x,y,1/2-z
-x,-y,-z
x,-y,1/2+z
1/2+x,1/2+y,z
1/2-x,1/2+y,1/2-z
1/2-x,1/2-y,-z
1/2+x,1/2-y,1/2+z
loop_
_atom_site_type_symbol
_atom_site_label
_atom_site_fract_x
_atom_site_fract_y
_atom_site_fract_z
Si Si1 0.377643 0.215338 0.927415
Si Si2 0.500000 0.284299 0.750000
Si Si3 0.850747 0.420421 0.740120
Si Si4 0.873812 0.119975 0.885444
Si Si5 0.832928 0.914501 0.608410
Si Si6 0.000000 0.973512 0.250000
Si Si7 0.418282 0.764800 0.831615
Si Si8 0.690752 0.632644 0.012350
O O1 0.442535 0.232382 0.827812
O O2 0.302346 0.289702 0.931125
O O3 0.490753 0.212764 0.046260
O O4 0.282030 0.148565 0.927935
O O5 0.395776 0.340254 0.668815
O O6 0.779181 0.443135 0.834536
O O7 0.866541 0.337027 0.771100
O O8 0.756386 0.421826 0.612057
O O9 0.000000 0.448035 0.750000
O O10 0.828676 0.200094 0.850790
O O11 0.885176 0.072244 0.781761
O O12 0.033609 0.122356 0.955018
O O13 0.797430 0.094298 0.974863
O O14 0.946430 0.973874 0.645458
O O15 0.500000 0.731143 0.750000
#
# Coordination Sequence:
#
# PCOD9257060 Si02
#       8
#     8   4   8   8   8   4   8   8
#     4  10  18  30  52  81 118 158 187 230 298 364
#     4  11  18  34  52  82 118 156 191 246 288 345
#     4  11  21  36  59  87 122 158 197 241 301 369
#     4  11  22  38  63  88 118 154 201 260 304 350
#     4  11  22  38  57  87 115 153 206 250 297 354
#     4  11  24  42  64  86 118 152 207 262 306 341
#     4  10  18  33  54  88 123 153 191 235 295 363
#     4  10  18  32  56  81 115 157 195 234 301 362
#
# _framework density 24.047899000000001
#
# number of rings (size 3 to 8) (size 9 to 14) (size 15 to 20)
#    0.000    1.429    7.857    1.286    0.000    0.571 
#    0.000    0.000    0.000    3.429    0.000    0.000 
#    0.000    0.000    0.000    0.000    0.000    0.000 
#
# Total GULP energy -156286.044447 kJ/mol
# GULP energy per Si atom -5581.644445 kJ/mol
# Density = 2.399316 g / cm^3
# Si number density = 24.047899 Si / 1000 Ang^3
#
#
#
# Elastic Constant Matrix: (Units=GPa)
#
#
# Indices 1 2 3 4 5 6 
#
# 1 75.4745 4.8060 38.6907 0.0000 -16.1308 0.0000
# 2 4.8060 38.6878 21.5484 0.0000 -6.3836 0.0000
# 3 38.6907 21.5484 126.7482 0.0000 -23.1668 0.0000
# 4 0.0000 0.0000 0.0000 18.2916 0.0000 -0.7573
# 5 -16.1308 -6.3836 -23.1668 0.0000 50.0221 0.0000
# 6 0.0000 0.0000 0.0000 -0.7573 0.0000 12.4604
#
#
#
# Elastic Compliance Matrix: (Units=1/GPa)
#
#
# Indices 1 2 3 4 5 6 
#
# 1 0.016201 0.001047 -0.004527 0.000000 0.003261 0.000000
# 2 0.001047 0.028726 -0.004885 0.000000 0.001741 0.000000
# 3 -0.004527 -0.004885 0.010620 0.000000 0.002835 0.000000
# 4 0.000000 0.000000 0.000000 0.054808 0.000000 0.003331
# 5 0.003261 0.001741 0.002835 0.000000 0.022578 0.000000
# 6 0.000000 0.000000 0.000000 0.003331 0.000000 0.080457
#
#
# Mechanical properties :
#
#
# Convention : Reuss Voigt Hill
#
# Bulk Modulus (GPa) = 25.76215 41.22230 33.49222
# Shear Modulus (GPa) = 20.57111 27.87917 24.22514
#
# Velocity S-wave (km/s) = 2.92793 3.40857 3.17735
# Velocity P-wave (km/s) = 4.70813 5.71578 5.23625
#
# Compressibility (1/GPa) = 0.03881664
#
# Stress axis : x y z
#
# Youngs Moduli (GPa) = 61.72576 34.81161 94.15836
#
# Poissons Ratio (x) = -0.03646 0.42629
# Poissons Ratio (y) = -0.06464 0.45998
# Poissons Ratio (z) = 0.27945 0.17006
#
# Static dielectric constant tensor:
#      x y z
#    x 2.052860 0.000000 -0.041350 
#    y 0.000000 1.903520 0.000000 
#    z -0.041350 0.000000 1.995630 
# 
# From -- ./inp_files/89007.got.cif
#   From: 2010.05.17/outbox.cif.g08.bks.cpg/sg15_45_cif.got.tgz:89007.got - 2010.06.03 18:47:42.
