data_PCOD9257656
_publ_section_title
;
Structure prediction by ZEFSAII (Michael W. Deem and Ramdas Pophale) SiO2 
 PCOD9257656
Probable space group: C 2/C
;
_chemical_formula_sum "Si O2"
_cell_formula_units_Z 48
_cell_length_a 29.092049
_cell_length_b 15.214059
_cell_length_c 8.634109
_cell_angle_alpha 90.000000
_cell_angle_beta 137.481389
_cell_angle_gamma 90.000000
_cell_volume 2582.701288
_symmetry_space_group_name_H-M "C 2/C"
_symmetry_group_IT_number 15
_symmetry_cell_setting 'monoclinic'
loop_
_space_group_symop_operation_xyz
x,y,z
-x,y,1/2-z
-x,-y,-z
x,-y,1/2+z
1/2+x,1/2+y,z
1/2-x,1/2+y,1/2-z
1/2-x,1/2-y,-z
1/2+x,1/2-y,1/2+z
loop_
_atom_site_type_symbol
_atom_site_label
_atom_site_fract_x
_atom_site_fract_y
_atom_site_fract_z
Si Si1 0.797773 0.558114 0.761060
Si Si2 0.670799 0.239273 0.759004
Si Si3 0.141032 0.094380 0.345409
Si Si4 0.075220 0.940292 0.003622
Si Si5 0.799602 0.380186 0.622046
Si Si6 0.845036 0.199532 0.632843
O O1 0.839945 0.634846 0.779048
O O2 0.719201 0.565876 0.508959
O O3 0.822321 0.460282 0.786515
O O4 0.796521 0.582570 0.939193
O O5 0.632790 0.303210 0.783111
O O6 0.658771 0.278263 0.557925
O O7 0.750000 0.250000 0.000000
O O8 0.125102 0.076190 0.483473
O O9 0.092416 0.033270 0.123040
O O10 0.000000 0.936229 0.750000
O O11 0.093475 0.864458 0.171784
O O12 0.844413 0.291781 0.724021
O O13 0.725182 0.348979 0.494120
#
# Coordination Sequence:
#
# PCOD9257656 Si02
#       6
#     8   8   8   8   8   8
#     4  10  18  32  50  83 105 143 166 217 283 334
#     4   9  21  32  53  79 110 138 179 221 286 334
#     4  11  20  35  50  76 108 144 186 227 260 324
#     4  12  24  37  54  76 108 157 196 223 265 313
#     4  10  20  30  54  76 111 138 176 216 288 328
#     4  10  20  36  49  78 110 146 178 231 267 332
#
# _framework density 18.585193
#
# number of rings (size 3 to 8) (size 9 to 14) (size 15 to 20)
#    0.000    1.667    3.333    1.500    7.000    0.000 
#    0.000    0.000    0.000    0.000    0.000   11.667 
#    0.000    0.000    0.000    0.000    0.000    0.000 
#
# Total GULP energy -133930.642468 kJ/mol
# GULP energy per Si atom -5580.443436 kJ/mol
# Density = 1.854289 g / cm^3
# Si number density = 18.585193 Si / 1000 Ang^3
#
#
#
# Elastic Constant Matrix: (Units=GPa)
#
#
# Indices 1 2 3 4 5 6 
#
# 1 7.3609 8.3822 -2.7130 0.0000 -8.3401 0.0000
# 2 8.3822 116.4116 16.0420 0.0000 -3.3030 0.0000
# 3 -2.7130 16.0420 67.6008 0.0000 4.0760 0.0000
# 4 0.0000 0.0000 0.0000 28.1288 0.0000 -12.1437
# 5 -8.3401 -3.3030 4.0760 0.0000 17.9888 0.0000
# 6 0.0000 0.0000 0.0000 -12.1437 0.0000 20.0365
#
#
#
# Elastic Compliance Matrix: (Units=1/GPa)
#
#
# Indices 1 2 3 4 5 6 
#
# 1 0.329202 -0.020825 0.009308 0.000000 0.146694 0.000000
# 2 -0.020825 0.010280 -0.002846 0.000000 -0.007122 0.000000
# 3 0.009308 -0.002846 0.015829 0.000000 0.000206 0.000000
# 4 0.000000 0.000000 0.000000 0.048149 0.000000 0.029182
# 5 0.146694 -0.007122 0.000206 0.000000 0.122246 0.000000
# 6 0.000000 0.000000 0.000000 0.029182 0.000000 0.067596
#
#
# Mechanical properties :
#
#
# Convention : Reuss Voigt Hill
#
# Bulk Modulus (GPa) = 3.06197 26.08840 14.57519
# Shear Modulus (GPa) = 6.84099 24.54163 15.69131
#
# Velocity S-wave (km/s) = 1.92064 3.63780 2.90882
# Velocity P-wave (km/s) = 2.56312 5.63138 4.37505
#
# Compressibility (1/GPa) = 0.32658751
#
# Stress axis : x y z
#
# Youngs Moduli (GPa) = 3.03765 97.27885 63.17457
#
# Poissons Ratio (x) = 2.02579 -0.58806
# Poissons Ratio (y) = 0.06326 0.17978
# Poissons Ratio (z) = -0.02828 0.27683
#
# Static dielectric constant tensor:
#      x y z
#    x 1.656150 0.000000 -0.025560 
#    y 0.000000 1.685660 0.000000 
#    z -0.025560 0.000000 1.632500 
# 
# From -- ./inp_files/55428.got.cif
#   From: 2010.05.17/outbox.cif.g08.bks.cpg/sg15_28_cif.got.tgz:55428.got - 2010.06.03 18:47:42.
