data_PCOD9257712
_publ_section_title
;
Structure prediction by ZEFSAII (Michael W. Deem and Ramdas Pophale) SiO2 
 PCOD9257712
Probable space group: C 2/C
;
_chemical_formula_sum "Si O2"
_cell_formula_units_Z 48
_cell_length_a 25.858923
_cell_length_b 12.161430
_cell_length_c 30.397651
_cell_angle_alpha 90.000000
_cell_angle_beta 18.019635
_cell_angle_gamma 90.000000
_cell_volume 2957.162927
_symmetry_space_group_name_H-M "C 2/C"
_symmetry_group_IT_number 15
_symmetry_cell_setting 'monoclinic'
loop_
_space_group_symop_operation_xyz
x,y,z
-x,y,1/2-z
-x,-y,-z
x,-y,1/2+z
1/2+x,1/2+y,z
1/2-x,1/2+y,1/2-z
1/2-x,1/2-y,-z
1/2+x,1/2-y,1/2+z
loop_
_atom_site_type_symbol
_atom_site_label
_atom_site_fract_x
_atom_site_fract_y
_atom_site_fract_z
Si Si1 0.251228 0.131286 0.022474
Si Si2 0.432065 0.602417 0.236914
Si Si3 0.535293 0.591327 0.008002
Si Si4 0.040101 0.339132 0.435629
Si Si5 0.416061 0.842026 0.205181
Si Si6 0.727978 0.510371 0.209485
O O1 0.163004 0.134472 0.141449
O O2 0.120646 0.067641 0.097003
O O3 0.250000 0.250000 0.000000
O O4 0.441792 0.100867 0.879572
O O5 0.423912 0.714031 0.214111
O O6 0.336446 0.507297 0.288268
O O7 0.730802 0.609484 0.860685
O O8 0.500000 0.500000 0.000000
O O9 0.470823 0.710920 0.045057
O O10 0.426289 0.554190 0.137534
O O11 0.041834 0.349916 0.380947
O O12 0.198613 0.400762 0.328203
O O13 0.879318 0.401464 0.585652
#
# Coordination Sequence:
#
# PCOD9257712 Si02
#       6
#     8   8   8   8   8   8
#     4   9  19  30  49  77 108 145 181 218 275 331
#     4  10  18  32  52  76 110 146 183 215 275 332
#     4  12  22  34  53  81 112 143 181 228 274 321
#     4  11  21  36  53  77 109 147 183 218 271 334
#     4  11  18  33  51  76 112 140 175 225 268 324
#     4  11  22  34  54  75 109 148 181 219 274 327
#
# _framework density 16.231774000000001
#
# number of rings (size 3 to 8) (size 9 to 14) (size 15 to 20)
#    0.000    1.333    6.667    0.000    2.333    0.000 
#    0.000    0.000    0.000    0.000    0.000    1.167 
#    0.000    0.000    0.000    0.000    0.000    0.000 
#
# Total GULP energy -133670.321604 kJ/mol
# GULP energy per Si atom -5569.596734 kJ/mol
# Density = 1.619483 g / cm^3
# Si number density = 16.231774 Si / 1000 Ang^3
#
#
#
# Elastic Constant Matrix: (Units=GPa)
#
#
# Indices 1 2 3 4 5 6 
#
# 1 111.7100 41.6233 43.2324 -0.0004 -25.5454 -0.0003
# 2 41.6233 62.0995 32.2239 0.0062 -16.9323 -0.0022
# 3 43.2324 32.2239 106.6189 -0.0087 -19.1643 -0.0034
# 4 -0.0004 0.0062 -0.0087 16.2755 -0.0001 -2.4716
# 5 -25.5454 -16.9323 -19.1643 -0.0001 40.1733 0.0007
# 6 -0.0003 -0.0022 -0.0034 -2.4716 0.0007 25.2079
#
#
#
# Elastic Compliance Matrix: (Units=1/GPa)
#
#
# Indices 1 2 3 4 5 6 
#
# 1 0.013401 -0.006338 -0.002698 0.000001 0.004563 -0.000001
# 2 -0.006338 0.023413 -0.003781 -0.000011 0.004034 0.000000
# 3 -0.002698 -0.003781 0.012055 0.000008 0.002441 0.000002
# 4 0.000001 -0.000011 0.000008 0.062371 0.000000 0.006115
# 5 0.004563 0.004034 0.002441 0.000000 0.030659 0.000000
# 6 -0.000001 0.000000 0.000002 0.006115 0.000000 0.040270
#
#
# Mechanical properties :
#
#
# Convention : Reuss Voigt Hill
#
# Bulk Modulus (GPa) = 43.03941 57.17641 50.10791
# Shear Modulus (GPa) = 23.19669 27.22125 25.20897
#
# Velocity S-wave (km/s) = 3.78443 4.09960 3.94517
# Velocity P-wave (km/s) = 6.75788 7.59674 7.18956
#
# Compressibility (1/GPa) = 0.02323452
#
# Stress axis : x y z
#
# Youngs Moduli (GPa) = 74.62178 42.71044 82.95386
#
# Poissons Ratio (x) = 0.27070 0.22382
# Poissons Ratio (y) = 0.47295 0.31367
# Poissons Ratio (z) = 0.20134 0.16150
#
# Static dielectric constant tensor:
#      x y z
#    x 1.609230 0.000000 -0.010480 
#    y 0.000000 1.525710 0.000000 
#    z -0.010480 0.000000 1.608820 
# 
# From -- ./inp_files/302203.got.cif
#   From: 2010.05.17/outbox.cif.g08.bks.cpg/sg15_152_cif.got.tgz:302203.got - 2010.06.03 18:47:42.
