data_PCOD9257004
_publ_section_title
;
Structure prediction by ZEFSAII (Michael W. Deem and Ramdas Pophale) SiO2 
 PCOD9257004
Probable space group: C 2/C
;
_chemical_formula_sum "Si O2"
_cell_formula_units_Z 48
_cell_length_a 10.459111
_cell_length_b 21.442168
_cell_length_c 12.282714
_cell_angle_alpha 90.000000
_cell_angle_beta 68.399909
_cell_angle_gamma 90.000000
_cell_volume 2561.156350
_symmetry_space_group_name_H-M "C 2/C"
_symmetry_group_IT_number 15
_symmetry_cell_setting 'monoclinic'
loop_
_space_group_symop_operation_xyz
x,y,z
-x,y,1/2-z
-x,-y,-z
x,-y,1/2+z
1/2+x,1/2+y,z
1/2-x,1/2+y,1/2-z
1/2-x,1/2-y,-z
1/2+x,1/2-y,1/2+z
loop_
_atom_site_type_symbol
_atom_site_label
_atom_site_fract_x
_atom_site_fract_y
_atom_site_fract_z
Si Si1 0.921372 0.254623 0.156809
Si Si2 0.329122 0.316083 0.985513
Si Si3 0.632473 0.084440 0.630875
Si Si4 0.276991 0.842573 0.708325
Si Si5 0.343649 0.053821 0.346884
Si Si6 0.539177 0.128521 0.004817
O O1 0.777929 0.220863 0.222360
O O2 0.000000 0.262250 0.250000
O O3 0.910321 0.318646 0.094181
O O4 0.014466 0.206158 0.056944
O O5 0.244504 0.359793 0.094848
O O6 0.250000 0.250000 0.000000
O O7 0.310369 0.349591 0.874799
O O8 0.500000 0.093640 0.750000
O O9 0.560553 0.084109 0.534637
O O10 0.700435 0.017782 0.632429
O O11 0.261928 0.901291 0.791719
O O12 0.435633 0.838530 0.622532
O O13 0.500000 0.050755 0.250000
O O14 0.354547 0.088054 0.459983
#
# Coordination Sequence:
#
# PCOD9257004 Si02
#       6
#     8   8   8   8   8   8
#     4  10  19  30  50  75  97 124 167 207 246 288
#     4  10  18  32  51  75  98 123 166 210 246 286
#     4  10  19  30  52  76  99 123 165 207 244 283
#     4   9  19  32  49  69 104 130 159 198 252 293
#     4   9  19  34  46  71 102 136 159 194 248 302
#     4  10  18  30  51  73 100 127 164 204 245 291
#
# _framework density 18.741533
#
# number of rings (size 3 to 8) (size 9 to 14) (size 15 to 20)
#    0.000    2.333    3.333    1.000    2.333    2.000 
#    0.000    0.833    0.000    0.000    0.000    0.000 
#    0.000    0.000    0.000    0.000    0.000    0.000 
#
# Total GULP energy -133626.601312 kJ/mol
# GULP energy per Si atom -5567.775055 kJ/mol
# Density = 1.869888 g / cm^3
# Si number density = 18.741533 Si / 1000 Ang^3
#
#
#
# Elastic Constant Matrix: (Units=GPa)
#
#
# Indices 1 2 3 4 5 6 
#
# 1 6.1777 15.2203 9.2366 0.0000 0.3700 0.0000
# 2 15.2203 141.4618 51.4275 0.0000 4.5247 0.0000
# 3 9.2366 51.4275 72.8207 0.0000 -3.6498 0.0000
# 4 0.0000 0.0000 0.0000 24.5794 0.0000 8.9506
# 5 0.3700 4.5247 -3.6498 0.0000 18.7182 0.0000
# 6 0.0000 0.0000 0.0000 8.9506 0.0000 7.0993
#
#
#
# Elastic Compliance Matrix: (Units=1/GPa)
#
#
# Indices 1 2 3 4 5 6 
#
# 1 0.233460 -0.019097 -0.016284 0.000000 -0.003174 0.000000
# 2 -0.019097 0.011326 -0.005751 0.000000 -0.003482 0.000000
# 3 -0.016284 -0.005751 0.020142 0.000000 0.005639 0.000000
# 4 0.000000 0.000000 0.000000 0.075218 0.000000 -0.094834
# 5 -0.003174 -0.003482 0.005639 0.000000 0.055428 0.000000
# 6 0.000000 0.000000 0.000000 -0.094834 0.000000 0.260424
#
#
# Mechanical properties :
#
#
# Convention : Reuss Voigt Hill
#
# Bulk Modulus (GPa) = 5.47456 41.35876 23.41666
# Shear Modulus (GPa) = 6.25665 19.71777 12.98721
#
# Velocity S-wave (km/s) = 1.82911 3.24711 2.63528
# Velocity P-wave (km/s) = 2.71814 6.01450 4.66704
#
# Compressibility (1/GPa) = 0.18266323
#
# Stress axis : x y z
#
# Youngs Moduli (GPa) = 4.28339 88.29451 49.64802
#
# Poissons Ratio (x) = 1.68616 0.80849
# Poissons Ratio (y) = 0.08180 0.28551
# Poissons Ratio (z) = 0.06975 0.50776
#
# Static dielectric constant tensor:
#      x y z
#    x 1.660740 0.000000 -0.009890 
#    y 0.000000 1.678180 0.000000 
#    z -0.009890 0.000000 1.752090 
# 
# From -- ./inp_files/88364.got.cif
#   From: 2010.05.17/outbox.cif.g08.bks.cpg/sg15_45_cif.got.tgz:88364.got - 2010.06.03 18:47:42.
