data_PCOD9257713
_publ_section_title
;
Structure prediction by ZEFSAII (Michael W. Deem and Ramdas Pophale) SiO2 
 PCOD9257713
Probable space group: C 2/C
;
_chemical_formula_sum "Si O2"
_cell_formula_units_Z 44
_cell_length_a 20.878456
_cell_length_b 12.893969
_cell_length_c 17.407307
_cell_angle_alpha 90.000000
_cell_angle_beta 157.805855
_cell_angle_gamma 90.000000
_cell_volume 1770.176863
_symmetry_space_group_name_H-M "C 2/C"
_symmetry_group_IT_number 15
_symmetry_cell_setting 'monoclinic'
loop_
_space_group_symop_operation_xyz
x,y,z
-x,y,1/2-z
-x,-y,-z
x,-y,1/2+z
1/2+x,1/2+y,z
1/2-x,1/2+y,1/2-z
1/2-x,1/2-y,-z
1/2+x,1/2-y,1/2+z
loop_
_atom_site_type_symbol
_atom_site_label
_atom_site_fract_x
_atom_site_fract_y
_atom_site_fract_z
Si Si1 0.861160 0.296196 0.736854
Si Si2 0.508819 0.397017 0.349612
Si Si3 0.145978 0.626151 0.665228
Si Si4 0.375631 0.066893 0.473791
Si Si5 0.488647 0.410880 0.921933
Si Si6 0.500000 0.929405 0.750000
O O1 0.904294 0.354529 0.704510
O O2 0.860984 0.173039 0.722798
O O3 0.842909 0.157528 0.886998
O O4 0.013738 0.313980 0.965100
O O5 0.500000 0.381085 0.250000
O O6 0.946373 0.616717 0.854909
O O7 0.502476 0.516875 0.362316
O O8 0.152093 0.515478 0.626662
O O9 0.311795 0.346915 0.926502
O O10 0.201560 0.132559 0.284753
O O11 0.398526 0.005325 0.579231
O O12 0.500000 0.500000 0.000000
#
# Coordination Sequence:
#
# PCOD9257713 Si02
#       6
#     8   8   8   8   8   4
#     4  11  23  35  51  76 118 151 178 218 276 334
#     4  12  24  35  52  84 116 149 178 219 276 338
#     4   9  19  36  51  72 103 145 191 228 258 312
#     4   9  17  31  53  73 100 142 183 225 263 310
#     4  10  20  34  56  73 102 147 190 226 259 316
#     4  10  18  32  52  76 114 150 172 222 276 330
#
# _framework density 24.856273000000002
#
# number of rings (size 3 to 8) (size 9 to 14) (size 15 to 20)
#    0.000    1.818    0.909    6.000    7.636    0.000 
#    0.000    0.000    0.000    0.000    0.000    0.000 
#    2.727   16.727    2.545    0.000    0.000    0.000 
#
# Total GULP energy -123008.539905 kJ/mol
# GULP energy per Si atom -5591.297268 kJ/mol
# Density = 2.479970 g / cm^3
# Si number density = 24.856273 Si / 1000 Ang^3
#
#
#
# Elastic Constant Matrix: (Units=GPa)
#
#
# Indices 1 2 3 4 5 6 
#
# 1 115.9604 38.8591 68.8976 0.0010 26.8138 0.0009
# 2 38.8591 55.0574 38.2924 0.0012 4.5199 0.0012
# 3 68.8976 38.2924 146.2088 0.0003 29.7091 0.0003
# 4 0.0010 0.0012 0.0003 11.7870 0.0004 11.4335
# 5 26.8138 4.5199 29.7091 0.0004 47.1209 0.0004
# 6 0.0009 0.0012 0.0003 11.4335 0.0004 37.1662
#
#
#
# Elastic Compliance Matrix: (Units=1/GPa)
#
#
# Indices 1 2 3 4 5 6 
#
# 1 0.014524 -0.007083 -0.003954 0.000000 -0.005092 0.000000
# 2 -0.007083 0.025790 -0.004282 -0.000002 0.004256 0.000000
# 3 -0.003954 -0.004282 0.010648 0.000001 -0.004052 0.000000
# 4 0.000000 -0.000002 0.000001 0.120924 -0.000001 -0.037200
# 5 -0.005092 0.004256 -0.004052 -0.000001 0.026266 0.000000
# 6 0.000000 0.000000 0.000000 -0.037200 0.000000 0.038350
#
#
# Mechanical properties :
#
#
# Convention : Reuss Voigt Hill
#
# Bulk Modulus (GPa) = 49.20200 67.70274 58.45237
# Shear Modulus (GPa) = 18.25380 30.62667 24.44024
#
# Velocity S-wave (km/s) = 2.71287 3.51401 3.13910
# Velocity P-wave (km/s) = 5.44523 6.61522 6.05853
#
# Compressibility (1/GPa) = 0.02032438
#
# Stress axis : x y z
#
# Youngs Moduli (GPa) = 68.85109 38.77426 93.91585
#
# Poissons Ratio (x) = 0.27462 0.37139
# Poissons Ratio (y) = 0.48765 0.40213
# Poissons Ratio (z) = 0.27227 0.16603
#
# Static dielectric constant tensor:
#      x y z
#    x 2.106790 0.000000 0.003530 
#    y 0.000000 2.066510 0.000000 
#    z 0.003530 0.000000 2.024700 
# 
# From -- ./inp_files/259189.got.cif
#   From: 2010.05.17/outbox.cif.g08.bks.cpg/sg15_130_cif.got.tgz:259189.got - 2010.06.03 18:47:42.
