data_PCOD9257244
_publ_section_title
;
Structure prediction by ZEFSAII (Michael W. Deem and Ramdas Pophale) SiO2 
 PCOD9257244
Probable space group: C 2/C
;
_chemical_formula_sum "Si O2"
_cell_formula_units_Z 40
_cell_length_a 21.587523
_cell_length_b 5.723634
_cell_length_c 13.002153
_cell_angle_alpha 90.000000
_cell_angle_beta 62.493560
_cell_angle_gamma 90.000000
_cell_volume 1424.929736
_symmetry_space_group_name_H-M "C 2/C"
_symmetry_group_IT_number 15
_symmetry_cell_setting 'monoclinic'
loop_
_space_group_symop_operation_xyz
x,y,z
-x,y,1/2-z
-x,-y,-z
x,-y,1/2+z
1/2+x,1/2+y,z
1/2-x,1/2+y,1/2-z
1/2-x,1/2-y,-z
1/2+x,1/2-y,1/2+z
loop_
_atom_site_type_symbol
_atom_site_label
_atom_site_fract_x
_atom_site_fract_y
_atom_site_fract_z
Si Si1 0.103357 0.279916 0.765922
Si Si2 0.429182 0.305364 0.738567
Si Si3 0.721289 0.246621 0.355947
Si Si4 0.965124 0.272361 0.980368
Si Si5 0.193167 0.253366 0.412046
O O1 0.106980 0.548362 0.724230
O O2 0.151752 0.268846 0.833138
O O3 0.117317 0.032894 0.697871
O O4 0.020466 0.243989 0.848047
O O5 0.500000 0.289408 0.750000
O O6 0.451109 0.351320 0.601197
O O7 0.785348 0.250755 0.226191
O O8 0.717565 0.491383 0.418098
O O9 0.723057 0.006961 0.417816
O O10 0.887478 0.278740 0.999244
O O11 0.000000 0.500000 0.000000
#
# Coordination Sequence:
#
# PCOD9257244 Si02
#       5
#     8   8   8   8   8
#     4  11  20  35  56  78 103 135 176 220 254 305
#     4  11  22  34  50  78 109 139 170 211 263 312
#     4  10  18  31  48  78 105 132 169 212 264 300
#     4  10  19  34  56  81 105 133 174 221 261 299
#     4  10  19  29  49  78 107 131 164 219 260 305
#
# _framework density 28.071559000000001
#
# number of rings (size 3 to 8) (size 9 to 14) (size 15 to 20)
#    0.000    1.600    6.000    1.200    0.000    0.000 
#    0.000    0.000    0.000    0.000    0.000   29.400 
#    0.000    0.000    0.000    0.000    0.000    0.000 
#
# Total GULP energy -111395.638427 kJ/mol
# GULP energy per Si atom -5569.781921 kJ/mol
# Density = 2.800767 g / cm^3
# Si number density = 28.071559 Si / 1000 Ang^3
#
#
#
# Elastic Constant Matrix: (Units=GPa)
#
#
# Indices 1 2 3 4 5 6 
#
# 1 152.7847 38.7336 55.3708 -0.0001 2.8772 0.0001
# 2 38.7336 385.6894 37.1440 0.0004 -21.2774 -0.0005
# 3 55.3708 37.1440 120.1219 -0.0001 -40.9348 0.0000
# 4 -0.0001 0.0004 -0.0001 -24.7716 -0.0001 -3.7740
# 5 2.8772 -21.2774 -40.9348 -0.0001 91.2583 0.0000
# 6 0.0001 -0.0005 0.0000 -3.7740 0.0000 3.4005
#
#
#
# Elastic Compliance Matrix: (Units=1/GPa)
#
#
# Indices 1 2 3 4 5 6 
#
# 1 0.008361 -0.000538 -0.004510 0.000000 -0.002412 0.000000
# 2 -0.000538 0.002714 -0.000436 0.000000 0.000454 0.000000
# 3 -0.004510 -0.000436 0.012456 0.000000 0.005628 0.000000
# 4 0.000000 0.000000 0.000000 -0.034530 0.000000 -0.038322
# 5 -0.002412 0.000454 0.005628 0.000000 0.013664 0.000000
# 6 0.000000 0.000000 0.000000 -0.038322 0.000000 0.251541
#
#
# Mechanical properties :
#
#
# Convention : Reuss Voigt Hill
#
# Bulk Modulus (GPa) = 79.59946 102.34363 90.97154
# Shear Modulus (GPa) = 18.56228 49.13395 33.84812
#
# Velocity S-wave (km/s) = 2.57427 4.18821 3.47620
# Velocity P-wave (km/s) = 6.10354 7.74115 6.97060
#
# Compressibility (1/GPa) = 0.01256290
#
# Stress axis : x y z
#
# Youngs Moduli (GPa) = 119.59628 368.47357 80.27989
#
# Poissons Ratio (x) = 0.19841 0.36204
# Poissons Ratio (y) = 0.06440 0.03502
# Poissons Ratio (z) = 0.53935 0.16075
#
# Static dielectric constant tensor:
#      x y z
#    x 2.171280 0.000000 -0.020060 
#    y 0.000000 2.307540 0.000000 
#    z -0.020060 0.000000 2.409400 
# 
# From -- ./inp_files/217417.got.cif
#   From: 2010.05.17/outbox.cif.g08.bks.cpg/sg15_109_cif.got.tgz:217417.got - 2010.06.03 18:47:42.
