data_PCOD9257416
_publ_section_title
;
Structure prediction by ZEFSAII (Michael W. Deem and Ramdas Pophale) SiO2 
 PCOD9257416
Probable space group: C 2/C
;
_chemical_formula_sum "Si O2"
_cell_formula_units_Z 56
_cell_length_a 16.751213
_cell_length_b 20.344491
_cell_length_c 8.623914
_cell_angle_alpha 90.000000
_cell_angle_beta 110.501161
_cell_angle_gamma 90.000000
_cell_volume 2752.845526
_symmetry_space_group_name_H-M "C 2/C"
_symmetry_group_IT_number 15
_symmetry_cell_setting 'monoclinic'
loop_
_space_group_symop_operation_xyz
x,y,z
-x,y,1/2-z
-x,-y,-z
x,-y,1/2+z
1/2+x,1/2+y,z
1/2-x,1/2+y,1/2-z
1/2-x,1/2-y,-z
1/2+x,1/2-y,1/2+z
loop_
_atom_site_type_symbol
_atom_site_label
_atom_site_fract_x
_atom_site_fract_y
_atom_site_fract_z
Si Si1 0.903022 0.413286 0.669620
Si Si2 0.765184 0.317327 0.419398
Si Si3 0.337012 0.967037 0.954462
Si Si4 0.916269 0.130613 0.608036
Si Si5 0.727588 0.626503 0.579446
Si Si6 0.092485 0.875355 0.738708
Si Si7 0.846427 0.022684 0.739538
O O1 0.842121 0.359235 0.546797
O O2 0.903032 0.480639 0.568398
O O3 0.000000 0.389462 0.750000
O O4 0.864537 0.434495 0.811064
O O5 0.750000 0.250000 0.500000
O O6 0.675025 0.350943 0.389871
O O7 0.764607 0.322792 0.231303
O O8 0.306614 0.911750 0.055141
O O9 0.251243 0.010601 0.876864
O O10 0.916674 0.156628 0.434847
O O11 0.907891 0.053753 0.650934
O O12 0.000000 0.156150 0.750000
O O13 0.665853 0.652528 0.401144
O O14 0.665898 0.571266 0.621452
O O15 0.000000 0.875115 0.750000
O O16 0.120027 0.949475 0.711281
#
# Coordination Sequence:
#
# PCOD9257416 Si02
#       7
#     8   8   8   8   8   8   8
#     4  12  23  39  64  95 126 169 211 266 331 395
#     4  11  24  45  63  84 121 166 218 268 315 380
#     4  11  19  37  61  94 134 156 200 266 329 393
#     4  11  22  37  58  84 118 161 205 249 310 370
#     4  10  20  34  60  87 122 166 207 252 320 380
#     4  11  20  30  50  88 123 156 196 243 299 373
#     4  10  18  31  53  82 128 163 192 237 304 372
#
# _framework density 20.342586000000001
#
# number of rings (size 3 to 8) (size 9 to 14) (size 15 to 20)
#    0.000    1.143    4.286    6.000    0.000    2.286 
#    0.000    2.857    0.000    0.000    0.000    3.000 
#    0.000    0.000    0.000    0.000    0.000    0.000 
#
# Total GULP energy -155980.109470 kJ/mol
# GULP energy per Si atom -5570.718195 kJ/mol
# Density = 2.029629 g / cm^3
# Si number density = 20.342586 Si / 1000 Ang^3
#
#
#
# Elastic Constant Matrix: (Units=GPa)
#
#
# Indices 1 2 3 4 5 6 
#
# 1 76.2422 9.4883 45.4106 0.0000 16.4680 0.0000
# 2 9.4883 47.1409 45.3514 0.0000 10.1877 0.0000
# 3 45.4106 45.3514 163.3708 0.0000 2.8077 0.0000
# 4 0.0000 0.0000 0.0000 20.8545 0.0000 1.5790
# 5 16.4680 10.1877 2.8077 0.0000 43.5398 0.0000
# 6 0.0000 0.0000 0.0000 1.5790 0.0000 9.2957
#
#
#
# Elastic Compliance Matrix: (Units=1/GPa)
#
#
# Indices 1 2 3 4 5 6 
#
# 1 0.017650 0.003534 -0.005765 0.000000 -0.007131 0.000000
# 2 0.003534 0.031462 -0.009577 0.000000 -0.008081 0.000000
# 3 -0.005765 -0.009577 0.010317 0.000000 0.003756 0.000000
# 4 0.000000 0.000000 0.000000 0.048576 0.000000 -0.008251
# 5 -0.007131 -0.008081 0.003756 0.000000 0.027313 0.000000
# 6 0.000000 0.000000 0.000000 -0.008251 0.000000 0.108978
#
#
# Mechanical properties :
#
#
# Convention : Reuss Voigt Hill
#
# Bulk Modulus (GPa) = 27.92195 54.13938 41.03066
# Shear Modulus (GPa) = 17.86678 27.17158 22.51918
#
# Velocity S-wave (km/s) = 2.96682 3.65869 3.33077
# Velocity P-wave (km/s) = 5.04893 6.67230 5.91656
#
# Compressibility (1/GPa) = 0.03581412
#
# Stress axis : x y z
#
# Youngs Moduli (GPa) = 56.65741 31.78476 96.92339
#
# Poissons Ratio (x) = -0.11234 0.55872
# Poissons Ratio (y) = -0.20025 0.92826
# Poissons Ratio (z) = 0.32660 0.30441
#
# Static dielectric constant tensor:
#      x y z
#    x 1.738070 0.000000 -0.167200 
#    y 0.000000 1.936450 0.000000 
#    z -0.167200 0.000000 1.834130 
# 
# From -- ./inp_files/50344.got.cif
#   From: 2010.05.17/outbox.cif.g08.bks.cpg/sg15_26_cif.got.tgz:50344.got - 2010.06.03 18:47:42.
