data_PCOD9257867
_publ_section_title
;
Structure prediction by ZEFSAII (Michael W. Deem and Ramdas Pophale) SiO2 
 PCOD9257867
Probable space group: C 2/C
;
_chemical_formula_sum "Si O2"
_cell_formula_units_Z 64
_cell_length_a 24.059131
_cell_length_b 7.795830
_cell_length_c 13.335139
_cell_angle_alpha 90.000000
_cell_angle_beta 77.490594
_cell_angle_gamma 90.000000
_cell_volume 2441.774449
_symmetry_space_group_name_H-M "C 2/C"
_symmetry_group_IT_number 15
_symmetry_cell_setting 'monoclinic'
loop_
_space_group_symop_operation_xyz
x,y,z
-x,y,1/2-z
-x,-y,-z
x,-y,1/2+z
1/2+x,1/2+y,z
1/2-x,1/2+y,1/2-z
1/2-x,1/2-y,-z
1/2+x,1/2-y,1/2+z
loop_
_atom_site_type_symbol
_atom_site_label
_atom_site_fract_x
_atom_site_fract_y
_atom_site_fract_z
Si Si1 0.501681 0.350508 0.364068
Si Si2 0.310117 0.414216 0.028700
Si Si3 0.789067 0.583268 0.324296
Si Si4 0.340697 0.621034 0.291951
Si Si5 0.609589 0.752398 0.476616
Si Si6 0.788576 0.378342 0.143543
Si Si7 0.543027 0.733414 0.305668
Si Si8 0.625953 0.259807 0.325783
O O1 0.500000 0.301780 0.250000
O O2 0.441853 0.288130 0.429574
O O3 0.512705 0.557560 0.359720
O O4 0.560076 0.267182 0.381556
O O5 0.246176 0.456589 0.091007
O O6 0.352463 0.576778 0.034715
O O7 0.336681 0.265841 0.087524
O O8 0.310971 0.386194 0.910534
O O9 0.766460 0.532035 0.220715
O O10 0.764086 0.764779 0.371025
O O11 0.854167 0.618253 0.264665
O O12 0.317017 0.759384 0.221125
O O13 0.405213 0.684524 0.287520
O O14 0.355713 0.438791 0.234579
O O15 0.661656 0.888966 0.458500
O O16 0.573400 0.805599 0.391856
O O17 0.500000 0.831615 0.250000
#
# Coordination Sequence:
#
# PCOD9257867 Si02
#       8
#     8   8   8   8   8   8   8   8
#     4  10  19  32  54  83 120 149 194 241 281 339
#     4  11  20  34  61  85 118 151 193 244 290 345
#     4  11  21  40  62  82 118 154 193 240 293 340
#     4  10  20  35  55  86 118 144 199 236 291 342
#     4  10  18  32  54  85 114 153 186 237 296 338
#     4  10  20  39  59  84 115 151 193 243 287 352
#     4   9  16  26  48  82 115 142 182 241 284 336
#     4  11  21  38  58  90 119 157 191 242 292 347
#
# _framework density 26.210446999999998
#
# number of rings (size 3 to 8) (size 9 to 14) (size 15 to 20)
#    0.000    1.750    6.250    2.625    1.750    1.000 
#    0.000    1.875    0.000    3.000    0.000    0.000 
#    0.000    0.000    0.000    0.000    0.000    0.000 
#
# Total GULP energy -178402.779974 kJ/mol
# GULP energy per Si atom -5575.086874 kJ/mol
# Density = 2.615079 g / cm^3
# Si number density = 26.210447 Si / 1000 Ang^3
#
#
#
# Elastic Constant Matrix: (Units=GPa)
#
#
# Indices 1 2 3 4 5 6 
#
# 1 93.9581 18.7465 30.1975 0.0000 -14.6227 0.0000
# 2 18.7465 60.5465 3.1520 0.0000 -15.0819 0.0000
# 3 30.1975 3.1520 124.4921 0.0000 -33.3919 0.0000
# 4 0.0000 0.0000 0.0000 3.3267 0.0000 1.2493
# 5 -14.6227 -15.0819 -33.3919 0.0000 60.5406 0.0000
# 6 0.0000 0.0000 0.0000 1.2493 0.0000 11.3171
#
#
#
# Elastic Compliance Matrix: (Units=1/GPa)
#
#
# Indices 1 2 3 4 5 6 
#
# 1 0.012319 -0.003526 -0.002742 0.000000 0.000585 0.000000
# 2 -0.003526 0.018696 0.001646 0.000000 0.004714 0.000000
# 3 -0.002742 0.001646 0.010080 0.000000 0.005307 0.000000
# 4 0.000000 0.000000 0.000000 0.313602 0.000000 -0.034618
# 5 0.000585 0.004714 0.005307 0.000000 0.020761 0.000000
# 6 0.000000 0.000000 0.000000 -0.034618 0.000000 0.092183
#
#
# Mechanical properties :
#
#
# Convention : Reuss Voigt Hill
#
# Bulk Modulus (GPa) = 31.39530 42.57653 36.98591
# Shear Modulus (GPa) = 10.25639 30.16357 20.20998
#
# Velocity S-wave (km/s) = 1.98030 3.39606 2.77982
# Velocity P-wave (km/s) = 4.15126 5.62645 4.94418
#
# Compressibility (1/GPa) = 0.03185190
#
# Stress axis : x y z
#
# Youngs Moduli (GPa) = 81.17695 53.48608 99.20980
#
# Poissons Ratio (x) = 0.18858 0.27203
# Poissons Ratio (y) = 0.28621 -0.16333
# Poissons Ratio (z) = 0.22259 -0.08805
#
# Static dielectric constant tensor:
#      x y z
#    x 2.210710 0.000000 0.011390 
#    y 0.000000 2.188090 0.000000 
#    z 0.011390 0.000000 2.074400 
# 
# From -- ./inp_files/176572.got.cif
#   From: 2010.05.17/outbox.cif.g08.bks.cpg/sg15_89_cif.got.tgz:176572.got - 2010.06.03 18:47:42.
