data_PCOD9257618
_publ_section_title
;
Structure prediction by ZEFSAII (Michael W. Deem and Ramdas Pophale) SiO2 
 PCOD9257618
Probable space group: C 2/C
;
_chemical_formula_sum "Si O2"
_cell_formula_units_Z 56
_cell_length_a 17.335021
_cell_length_b 21.994587
_cell_length_c 9.346315
_cell_angle_alpha 90.000000
_cell_angle_beta 57.351123
_cell_angle_gamma 90.000000
_cell_volume 3000.466709
_symmetry_space_group_name_H-M "C 2/C"
_symmetry_group_IT_number 15
_symmetry_cell_setting 'monoclinic'
loop_
_space_group_symop_operation_xyz
x,y,z
-x,y,1/2-z
-x,-y,-z
x,-y,1/2+z
1/2+x,1/2+y,z
1/2-x,1/2+y,1/2-z
1/2-x,1/2-y,-z
1/2+x,1/2-y,1/2+z
loop_
_atom_site_type_symbol
_atom_site_label
_atom_site_fract_x
_atom_site_fract_y
_atom_site_fract_z
Si Si1 0.589765 0.686968 0.230760
Si Si2 0.371779 0.035198 0.254082
Si Si3 0.235780 0.863261 0.797473
Si Si4 0.315733 0.261923 0.140658
Si Si5 0.922701 0.570766 0.523814
Si Si6 0.107380 0.712150 0.924788
Si Si7 0.398559 0.689990 0.837284
O O1 0.500000 0.657827 0.250000
O O2 0.656241 0.643305 0.256309
O O3 0.556127 0.741846 0.368447
O O4 0.649059 0.719428 0.048925
O O5 0.289766 0.074560 0.268528
O O6 0.379427 0.047635 0.416353
O O7 0.372603 0.965157 0.202503
O O8 0.469083 0.057128 0.092376
O O9 0.308597 0.810004 0.683513
O O10 0.181220 0.845256 0.997496
O O11 0.211775 0.282975 0.269189
O O12 0.373461 0.297840 0.200538
O O13 0.917437 0.642703 0.544929
O O14 0.099301 0.744422 0.086065
O O15 0.500000 0.662395 0.750000
#
# Coordination Sequence:
#
# PCOD9257618 Si02
#       7
#     8   8   8   8   8   8   8
#     4  10  21  34  51  83 114 148 184 229 290 342
#     4  10  22  38  57  78 114 144 197 233 275 327
#     4  10  20  35  53  78 113 151 180 232 285 340
#     4  10  18  32  49  77 109 142 186 226 277 350
#     4  10  22  38  55  83 107 152 189 234 273 333
#     4  10  20  34  51  78 110 150 184 223 288 339
#     4  10  19  30  53  82 110 146 182 226 287 342
#
# _framework density 18.663762999999999
#
# number of rings (size 3 to 8) (size 9 to 14) (size 15 to 20)
#    0.000    2.286    0.000    6.857    6.000    2.286 
#    2.571    0.000    0.000    0.000    0.000   17.000 
#    0.000    0.000    0.000    0.000    0.000    0.000 
#
# Total GULP energy -156144.377696 kJ/mol
# GULP energy per Si atom -5576.584918 kJ/mol
# Density = 1.862128 g / cm^3
# Si number density = 18.663763 Si / 1000 Ang^3
#
#
#
# Elastic Constant Matrix: (Units=GPa)
#
#
# Indices 1 2 3 4 5 6 
#
# 1 88.3336 18.3680 27.2770 0.0000 14.4670 0.0000
# 2 18.3680 65.9485 9.7278 0.0000 0.0838 0.0000
# 3 27.2770 9.7278 69.6573 0.0000 5.5292 0.0000
# 4 0.0000 0.0000 0.0000 1.4612 0.0000 -3.1526
# 5 14.4670 0.0838 5.5292 0.0000 27.3297 0.0000
# 6 0.0000 0.0000 0.0000 -3.1526 0.0000 14.8730
#
#
#
# Elastic Compliance Matrix: (Units=1/GPa)
#
#
# Indices 1 2 3 4 5 6 
#
# 1 0.014578 -0.003358 -0.004703 0.000000 -0.006755 0.000000
# 2 -0.003358 0.016260 -0.001111 0.000000 0.001952 0.000000
# 3 -0.004703 -0.001111 0.016419 0.000000 -0.000829 0.000000
# 4 0.000000 0.000000 0.000000 1.261058 0.000000 0.267302
# 5 -0.006755 0.001952 -0.000829 0.000000 0.040328 0.000000
# 6 0.000000 0.000000 0.000000 0.267302 0.000000 0.123895
#
#
# Mechanical properties :
#
#
# Convention : Reuss Voigt Hill
#
# Bulk Modulus (GPa) = 34.58735 37.18722 35.88729
# Shear Modulus (GPa) = 3.33218 19.97058 11.65138
#
# Velocity S-wave (km/s) = 1.33763 3.27466 2.50127
# Velocity P-wave (km/s) = 4.57796 5.85371 5.25470
#
# Compressibility (1/GPa) = 0.02891230
#
# Stress axis : x y z
#
# Youngs Moduli (GPa) = 68.59849 61.50082 60.90634
#
# Poissons Ratio (x) = 0.20651 0.28646
# Poissons Ratio (y) = 0.23034 0.06766
# Poissons Ratio (z) = 0.32264 0.06832
#
# Static dielectric constant tensor:
#      x y z
#    x 1.714820 0.000000 0.004920 
#    y 0.000000 1.648920 0.000000 
#    z 0.004920 0.000000 1.656800 
# 
# From -- ./inp_files/50135.got.cif
#   From: 2010.05.17/outbox.cif.g08.bks.cpg/sg15_26_cif.got.tgz:50135.got - 2010.06.03 18:47:42.
