data_PCOD9257781
_publ_section_title
;
Structure prediction by ZEFSAII (Michael W. Deem and Ramdas Pophale) SiO2 
 PCOD9257781
Probable space group: C 2/C
;
_chemical_formula_sum "Si O2"
_cell_formula_units_Z 64
_cell_length_a 25.760738
_cell_length_b 12.088867
_cell_length_c 18.466033
_cell_angle_alpha 90.000000
_cell_angle_beta 149.584725
_cell_angle_gamma 90.000000
_cell_volume 2911.349128
_symmetry_space_group_name_H-M "C 2/C"
_symmetry_group_IT_number 15
_symmetry_cell_setting 'monoclinic'
loop_
_space_group_symop_operation_xyz
x,y,z
-x,y,1/2-z
-x,-y,-z
x,-y,1/2+z
1/2+x,1/2+y,z
1/2-x,1/2+y,1/2-z
1/2-x,1/2-y,-z
1/2+x,1/2-y,1/2+z
loop_
_atom_site_type_symbol
_atom_site_label
_atom_site_fract_x
_atom_site_fract_y
_atom_site_fract_z
Si Si1 0.224037 0.849535 0.821710
Si Si2 0.116311 0.261069 0.592645
Si Si3 0.236085 0.589008 0.664479
Si Si4 0.008886 0.838075 0.347488
Si Si5 0.561713 0.418004 0.919998
Si Si6 0.423223 0.815072 0.441539
Si Si7 0.172646 0.901987 0.917842
Si Si8 0.226432 0.132248 0.938545
O O1 0.330729 0.826494 0.909018
O O2 0.143253 0.763332 0.691562
O O3 0.225781 0.845361 0.911881
O O4 0.199488 0.975827 0.766556
O O5 0.203935 0.203066 0.746076
O O6 0.065254 0.151011 0.497024
O O7 0.032166 0.330563 0.534220
O O8 0.149202 0.584009 0.621264
O O9 0.198298 0.606130 0.537014
O O10 0.053261 0.747144 0.454402
O O11 0.000000 0.815998 0.250000
O O12 0.891649 0.860898 0.230154
O O13 0.073839 0.950117 0.437790
O O14 0.650581 0.368913 0.974187
O O15 0.446101 0.407101 0.751120
O O16 0.224211 0.023213 0.984984
O O17 0.250000 0.250000 0.000000
#
# Coordination Sequence:
#
# PCOD9257781 Si02
#       8
#     8   8   8   8   8   8   8   8
#     4  10  22  39  57  82 116 148 192 235 287 332
#     4  11  22  36  58  84 108 155 193 230 281 337
#     4  10  22  37  54  84 115 147 187 234 282 335
#     4  11  19  32  54  86 113 144 182 230 289 331
#     4  10  18  32  56  84 107 140 187 230 282 326
#     4  11  22  36  59  83 115 150 192 233 278 343
#     4   9  18  34  56  82 112 143 179 238 282 324
#     4  10  18  32  53  82 116 143 180 227 281 340
#
# _framework density 21.982935000000001
#
# number of rings (size 3 to 8) (size 9 to 14) (size 15 to 20)
#    0.000    1.750    5.000    1.500    0.000    2.000 
#    0.000    0.000    0.000    0.000    9.750    0.000 
#    0.000    0.000    0.000    0.000    0.000    0.000 
#
# Total GULP energy -178196.377562 kJ/mol
# GULP energy per Si atom -5568.636799 kJ/mol
# Density = 2.193290 g / cm^3
# Si number density = 21.982935 Si / 1000 Ang^3
#
#
#
# Elastic Constant Matrix: (Units=GPa)
#
#
# Indices 1 2 3 4 5 6 
#
# 1 149.2609 25.8516 11.7348 0.0000 27.8601 0.0000
# 2 25.8516 45.3752 1.6558 0.0000 1.1828 0.0000
# 3 11.7348 1.6558 20.2118 0.0000 9.8560 0.0000
# 4 0.0000 0.0000 0.0000 16.0031 0.0000 6.2917
# 5 27.8601 1.1828 9.8560 0.0000 35.0229 0.0000
# 6 0.0000 0.0000 0.0000 6.2917 0.0000 33.2531
#
#
#
# Elastic Compliance Matrix: (Units=1/GPa)
#
#
# Indices 1 2 3 4 5 6 
#
# 1 0.008863 -0.004823 -0.001613 0.000000 -0.006433 0.000000
# 2 -0.004823 0.024731 -0.000799 0.000000 0.003226 0.000000
# 3 -0.001613 -0.000799 0.057767 0.000000 -0.014946 0.000000
# 4 0.000000 0.000000 0.000000 0.067510 0.000000 -0.012773
# 5 -0.006433 0.003226 -0.014946 0.000000 0.037767 0.000000
# 6 0.000000 0.000000 0.000000 -0.012773 0.000000 0.032489
#
#
# Mechanical properties :
#
#
# Convention : Reuss Voigt Hill
#
# Bulk Modulus (GPa) = 13.00564 32.59247 22.79906
# Shear Modulus (GPa) = 18.57168 28.56286 23.56727
#
# Velocity S-wave (km/s) = 2.90974 3.60852 3.27780
# Velocity P-wave (km/s) = 4.14944 5.67629 4.97183
#
# Compressibility (1/GPa) = 0.07688970
#
# Stress axis : x y z
#
# Youngs Moduli (GPa) = 112.83411 40.43483 17.31107
#
# Poissons Ratio (x) = 0.19500 0.02793
# Poissons Ratio (y) = 0.54416 0.01383
# Poissons Ratio (z) = 0.18205 0.03231
#
# Static dielectric constant tensor:
#      x y z
#    x 1.906110 0.000000 0.018010 
#    y 0.000000 1.829930 0.000000 
#    z 0.018010 0.000000 1.839650 
# 
# From -- ./inp_files/257531.got.cif
#   From: 2010.05.17/outbox.cif.g08.bks.cpg/sg15_129_cif.got.tgz:257531.got - 2010.06.03 18:47:42.
