data_PCOD9257373
_publ_section_title
;
Structure prediction by ZEFSAII (Michael W. Deem and Ramdas Pophale) SiO2 
 PCOD9257373
Probable space group: C 2/C
;
_chemical_formula_sum "Si O2"
_cell_formula_units_Z 44
_cell_length_a 15.794092
_cell_length_b 18.759970
_cell_length_c 7.753779
_cell_angle_alpha 90.000000
_cell_angle_beta 91.953877
_cell_angle_gamma 90.000000
_cell_volume 2296.083343
_symmetry_space_group_name_H-M "C 2/C"
_symmetry_group_IT_number 15
_symmetry_cell_setting 'monoclinic'
loop_
_space_group_symop_operation_xyz
x,y,z
-x,y,1/2-z
-x,-y,-z
x,-y,1/2+z
1/2+x,1/2+y,z
1/2-x,1/2+y,1/2-z
1/2-x,1/2-y,-z
1/2+x,1/2-y,1/2+z
loop_
_atom_site_type_symbol
_atom_site_label
_atom_site_fract_x
_atom_site_fract_y
_atom_site_fract_z
Si Si1 0.217977 0.093970 0.197179
Si Si2 0.127828 0.317262 0.928332
Si Si3 0.085662 0.441596 0.154067
Si Si4 0.500000 0.272752 0.250000
Si Si5 0.935213 0.185992 0.396953
Si Si6 0.203527 0.547123 0.959892
O O1 0.283310 0.149089 0.113968
O O2 0.123840 0.119560 0.150848
O O3 0.240720 0.090807 0.401400
O O4 0.241088 0.017135 0.117471
O O5 0.080663 0.280394 0.763324
O O6 0.074083 0.381823 0.007699
O O7 0.125004 0.254067 0.068224
O O8 0.128615 0.509952 0.067561
O O9 0.156105 0.415241 0.297936
O O10 0.000000 0.457303 0.250000
O O11 0.511515 0.318974 0.421904
O O12 0.000000 0.201692 0.250000
#
# Coordination Sequence:
#
# PCOD9257373 Si02
#       6
#     8   8   8   4   8   8
#     4  10  20  40  59  80 121 151 193 238 289 337
#     4   9  20  35  57  85 116 149 181 240 286 351
#     4  10  18  31  52  79 118 151 188 228 286 344
#     4   8  22  38  58  88 122 136 196 234 292 346
#     4  10  21  41  61  88 112 150 197 244 289 344
#     4   9  21  35  51  84 111 159 195 233 272 350
#
# _framework density 19.163066000000001
#
# number of rings (size 3 to 8) (size 9 to 14) (size 15 to 20)
#    1.091    1.455    0.000    1.636    2.545    0.000 
#   13.091    2.727    0.000    0.000    0.000    0.000 
#    0.000    0.000    0.000    0.000    0.000    0.000 
#
# Total GULP energy -122477.047696 kJ/mol
# GULP energy per Si atom -5567.138532 kJ/mol
# Density = 1.911945 g / cm^3
# Si number density = 19.163066 Si / 1000 Ang^3
#
#
#
# Elastic Constant Matrix: (Units=GPa)
#
#
# Indices 1 2 3 4 5 6 
#
# 1 48.5212 25.3408 36.4144 0.0000 21.0309 0.0000
# 2 25.3408 34.1880 8.5027 0.0000 11.8898 0.0000
# 3 36.4144 8.5027 87.9987 0.0000 32.2395 0.0000
# 4 0.0000 0.0000 0.0000 26.8002 0.0000 0.4745
# 5 21.0309 11.8898 32.2395 0.0000 17.8145 0.0000
# 6 0.0000 0.0000 0.0000 0.4745 0.0000 24.0239
#
#
#
# Elastic Compliance Matrix: (Units=1/GPa)
#
#
# Indices 1 2 3 4 5 6 
#
# 1 0.055096 -0.028384 -0.009399 0.000000 -0.029089 0.000000
# 2 -0.028384 0.063306 0.026209 0.000000 -0.056174 0.000000
# 3 -0.009399 0.026209 0.044703 0.000000 -0.087296 0.000000
# 4 0.000000 0.000000 0.000000 0.037326 0.000000 -0.000737
# 5 -0.029089 -0.056174 -0.087296 0.000000 0.285947 0.000000
# 6 0.000000 0.000000 0.000000 -0.000737 0.000000 0.041640
#
#
# Mechanical properties :
#
#
# Convention : Reuss Voigt Hill
#
# Bulk Modulus (GPa) = 7.14514 34.58043 20.86278
# Shear Modulus (GPa) = 8.36372 20.42440 14.39406
#
# Velocity S-wave (km/s) = 2.09141 3.26823 2.74366
# Velocity P-wave (km/s) = 3.09333 5.68562 4.57684
#
# Compressibility (1/GPa) = 0.13995530
#
# Stress axis : x y z
#
# Youngs Moduli (GPa) = 18.15023 15.79617 22.36987
#
# Poissons Ratio (x) = 0.44836 0.21026
# Poissons Ratio (y) = 0.51518 -0.58628
# Poissons Ratio (z) = 0.17060 -0.41400
#
# Static dielectric constant tensor:
#      x y z
#    x 1.671710 0.000000 0.024060 
#    y 0.000000 1.675960 0.000000 
#    z 0.024060 0.000000 1.693650 
# 
# From -- ./inp_files/32223.got.cif
#   From: 2010.05.17/outbox.cif.g08.bks.cpg/sg15_17_cif.got.tgz:32223.got - 2010.06.03 18:47:42.
