data_PCOD9257217
_publ_section_title
;
Structure prediction by ZEFSAII (Michael W. Deem and Ramdas Pophale) SiO2 
 PCOD9257217
Probable space group: C 2/C
;
_chemical_formula_sum "Si O2"
_cell_formula_units_Z 64
_cell_length_a 21.175326
_cell_length_b 13.448048
_cell_length_c 10.760496
_cell_angle_alpha 90.000000
_cell_angle_beta 59.137137
_cell_angle_gamma 90.000000
_cell_volume 2630.329360
_symmetry_space_group_name_H-M "C 2/C"
_symmetry_group_IT_number 15
_symmetry_cell_setting 'monoclinic'
loop_
_space_group_symop_operation_xyz
x,y,z
-x,y,1/2-z
-x,-y,-z
x,-y,1/2+z
1/2+x,1/2+y,z
1/2-x,1/2+y,1/2-z
1/2-x,1/2-y,-z
1/2+x,1/2-y,1/2+z
loop_
_atom_site_type_symbol
_atom_site_label
_atom_site_fract_x
_atom_site_fract_y
_atom_site_fract_z
Si Si1 0.800410 0.443600 0.321198
Si Si2 0.648249 0.712870 0.588249
Si Si3 0.520427 0.779440 0.550278
Si Si4 0.272257 0.095829 0.549765
Si Si5 0.614322 0.196967 0.457370
Si Si6 0.910532 0.522530 0.546352
Si Si7 0.870819 0.236284 0.288803
Si Si8 0.224735 0.118285 0.268112
O O1 0.776117 0.491227 0.477647
O O2 0.884271 0.487346 0.215418
O O3 0.811087 0.326009 0.331022
O O4 0.741491 0.506004 0.294871
O O5 0.565502 0.729930 0.618573
O O6 0.684083 0.820559 0.574649
O O7 0.689550 0.638634 0.643846
O O8 0.685456 0.672141 0.422744
O O9 0.435047 0.759101 0.605374
O O10 0.528668 0.899419 0.552806
O O11 0.563834 0.755872 0.376531
O O12 0.334439 0.084269 0.593278
O O13 0.607266 0.259664 0.589876
O O14 0.698207 0.172803 0.338397
O O15 0.583516 0.085329 0.516836
O O16 0.831236 0.135793 0.287378
#
# Coordination Sequence:
#
# PCOD9257217 Si02
#       8
#     8   8   8   8   8   8   8   8
#     4   9  17  29  47  71  98 124 166 205 244 291
#     4   8  16  29  48  64  91 127 172 205 233 282
#     4   9  18  29  43  67  99 137 164 193 245 304
#     4   9  14  28  48  67  88 127 170 204 230 277
#     4  11  18  28  45  68 104 131 157 203 254 307
#     4   9  17  27  43  68 100 131 160 194 240 299
#     4  10  18  31  46  70  99 133 171 200 245 300
#     4   9  19  31  46  69  99 128 166 216 245 288
#
# _framework density 24.331554000000001
#
# number of rings (size 3 to 8) (size 9 to 14) (size 15 to 20)
#    0.000    2.750    1.250    1.875    0.000    0.000 
#    0.000    0.000    0.000   13.500    0.000    7.875 
#    0.000    0.000    0.000    0.000    0.000    0.000 
#
# Total GULP energy -178152.038135 kJ/mol
# GULP energy per Si atom -5567.251192 kJ/mol
# Density = 2.427617 g / cm^3
# Si number density = 24.331554 Si / 1000 Ang^3
#
#
#
# Elastic Constant Matrix: (Units=GPa)
#
#
# Indices 1 2 3 4 5 6 
#
# 1 153.0721 21.4343 17.1277 0.0000 1.5569 0.0000
# 2 21.4343 44.8319 6.7092 0.0000 -8.6675 0.0000
# 3 17.1277 6.7092 28.3373 0.0000 -8.0591 0.0000
# 4 0.0000 0.0000 0.0000 8.8265 0.0000 -0.7982
# 5 1.5569 -8.6675 -8.0591 0.0000 40.2413 0.0000
# 6 0.0000 0.0000 0.0000 -0.7982 0.0000 1.7139
#
#
#
# Elastic Compliance Matrix: (Units=1/GPa)
#
#
# Indices 1 2 3 4 5 6 
#
# 1 0.007492 -0.003301 -0.004275 0.000000 -0.001857 0.000000
# 2 -0.003301 0.025242 -0.002543 0.000000 0.005055 0.000000
# 3 -0.004275 -0.002543 0.040684 0.000000 0.007765 0.000000
# 4 0.000000 0.000000 0.000000 0.118277 0.000000 0.055081
# 5 -0.001857 0.005055 0.007765 0.000000 0.027566 0.000000
# 6 0.000000 0.000000 0.000000 0.055081 0.000000 0.609113
#
#
# Mechanical properties :
#
#
# Convention : Reuss Voigt Hill
#
# Bulk Modulus (GPa) = 18.80456 35.19819 27.00137
# Shear Modulus (GPa) = 5.77142 22.22101 13.99621
#
# Velocity S-wave (km/s) = 1.54180 3.02530 2.40100
# Velocity P-wave (km/s) = 3.30375 5.16727 4.33679
#
# Compressibility (1/GPa) = 0.05317860
#
# Stress axis : x y z
#
# Youngs Moduli (GPa) = 133.46859 39.61669 24.57986
#
# Poissons Ratio (x) = 0.13079 0.10508
# Poissons Ratio (y) = 0.44063 0.06251
# Poissons Ratio (z) = 0.57059 0.10075
#
# Static dielectric constant tensor:
#      x y z
#    x 2.139110 0.000000 0.199520 
#    y 0.000000 1.948170 0.000000 
#    z 0.199520 0.000000 2.411770 
# 
# From -- ./inp_files/162792.got.cif
#   From: 2010.05.17/outbox.cif.g08.bks.cpg/sg15_82_cif.got.tgz:162792.got - 2010.06.03 18:47:42.
