data_PCOD9257334
_publ_section_title
;
Structure prediction by ZEFSAII (Michael W. Deem and Ramdas Pophale) SiO2 
 PCOD9257334
Probable space group: C 2/C
;
_chemical_formula_sum "Si O2"
_cell_formula_units_Z 56
_cell_length_a 10.411759
_cell_length_b 15.856988
_cell_length_c 19.734460
_cell_angle_alpha 90.000000
_cell_angle_beta 43.625296
_cell_angle_gamma 90.000000
_cell_volume 2247.920101
_symmetry_space_group_name_H-M "C 2/C"
_symmetry_group_IT_number 15
_symmetry_cell_setting 'monoclinic'
loop_
_space_group_symop_operation_xyz
x,y,z
-x,y,1/2-z
-x,-y,-z
x,-y,1/2+z
1/2+x,1/2+y,z
1/2-x,1/2+y,1/2-z
1/2-x,1/2-y,-z
1/2+x,1/2-y,1/2+z
loop_
_atom_site_type_symbol
_atom_site_label
_atom_site_fract_x
_atom_site_fract_y
_atom_site_fract_z
Si Si1 0.330260 0.865933 0.146617
Si Si2 0.189048 0.447822 0.896438
Si Si3 0.298311 0.929854 0.445440
Si Si4 0.329490 0.886382 0.949110
Si Si5 0.946440 0.785592 0.953721
Si Si6 0.998966 0.784717 0.355128
Si Si7 0.653858 0.294948 0.734963
O O1 0.435253 0.793185 0.062168
O O2 0.139424 0.827169 0.247895
O O3 0.282348 0.954969 0.132039
O O4 0.491854 0.890756 0.140438
O O5 0.218480 0.432217 0.964977
O O6 0.319024 0.386495 0.805701
O O7 0.990914 0.420156 0.938646
O O8 0.129771 0.871132 0.483784
O O9 0.285199 0.026682 0.426750
O O10 0.404328 0.806795 0.876319
O O11 0.153397 0.847700 0.056543
O O12 0.081261 0.805030 0.838610
O O13 0.750000 0.750000 0.000000
O O14 0.155442 0.754612 0.348595
O O15 0.500000 0.249145 0.750000
#
# Coordination Sequence:
#
# PCOD9257334 Si02
#       7
#     8   8   8   8   8   8   8
#     4   9  18  30  46  72 111 145 177 211 270 340
#     4  10  19  31  52  83 115 138 172 230 286 331
#     4  10  18  32  52  80 112 142 172 228 286 330
#     4   9  18  32  47  69 108 145 178 217 266 333
#     4   9  18  31  47  73 112 142 173 216 275 335
#     4   9  19  32  46  68 107 145 183 215 271 337
#     4  10  18  31  51  79 108 137 183 230 274 324
#
# _framework density 24.911916999999999
#
# number of rings (size 3 to 8) (size 9 to 14) (size 15 to 20)
#    0.000    2.571    1.429    1.714    2.000    0.000 
#    0.000    2.143    0.000    0.000    0.000   25.000 
#    0.000    0.000    0.000    0.000    0.000    0.000 
#
# Total GULP energy -156140.621994 kJ/mol
# GULP energy per Si atom -5576.450786 kJ/mol
# Density = 2.485522 g / cm^3
# Si number density = 24.911917 Si / 1000 Ang^3
#
#
#
# Elastic Constant Matrix: (Units=GPa)
#
#
# Indices 1 2 3 4 5 6 
#
# 1 41.7532 49.1929 23.0664 0.0000 -19.4077 0.0000
# 2 49.1929 210.0562 89.8132 -0.0001 -17.4787 0.0001
# 3 23.0664 89.8132 155.9245 -0.0002 -27.5463 0.0001
# 4 0.0000 -0.0001 -0.0002 43.1366 0.0000 3.6116
# 5 -19.4077 -17.4787 -27.5463 0.0000 35.0968 0.0000
# 6 0.0000 0.0001 0.0001 3.6116 0.0000 25.4855
#
#
#
# Elastic Compliance Matrix: (Units=1/GPa)
#
#
# Indices 1 2 3 4 5 6 
#
# 1 0.043892 -0.009733 0.002954 0.000000 0.021743 0.000000
# 2 -0.009733 0.008478 -0.004236 0.000000 -0.004484 0.000000
# 3 0.002954 -0.004236 0.009673 0.000000 0.007117 0.000000
# 4 0.000000 0.000000 0.000000 0.023461 0.000000 -0.003325
# 5 0.021743 -0.004484 0.007117 0.000000 0.043868 0.000000
# 6 0.000000 0.000000 0.000000 -0.003325 0.000000 0.039709
#
#
# Mechanical properties :
#
#
# Convention : Reuss Voigt Hill
#
# Bulk Modulus (GPa) = 24.99107 81.31990 53.15549
# Shear Modulus (GPa) = 24.45617 37.12120 30.78868
#
# Velocity S-wave (km/s) = 3.13662 3.86437 3.51935
# Velocity P-wave (km/s) = 4.81367 7.25430 6.15615
#
# Compressibility (1/GPa) = 0.04001429
#
# Stress axis : x y z
#
# Youngs Moduli (GPa) = 22.78333 117.95377 103.37687
#
# Poissons Ratio (x) = 1.14804 -0.30541
# Poissons Ratio (y) = 0.22175 0.43788
# Poissons Ratio (z) = -0.06731 0.49962
#
# Static dielectric constant tensor:
#      x y z
#    x 2.083550 0.000000 -0.002350 
#    y 0.000000 2.051500 0.000000 
#    z -0.002350 0.000000 2.029620 
# 
# From -- ./inp_files/313859.got.cif
#   From: 2010.05.17/outbox.cif.g08.bks.cpg/sg15_157_cif.got.tgz:313859.got - 2010.06.03 18:47:42.
