data_PCOD9257994
_publ_section_title
;
Structure prediction by ZEFSAII (Michael W. Deem and Ramdas Pophale) SiO2 
 PCOD9257994
Probable space group: C 2/C
;
_chemical_formula_sum "Si O2"
_cell_formula_units_Z 48
_cell_length_a 8.381311
_cell_length_b 14.752879
_cell_length_c 19.842823
_cell_angle_alpha 90.000000
_cell_angle_beta 66.145668
_cell_angle_gamma 90.000000
_cell_volume 2243.945339
_symmetry_space_group_name_H-M "C 2/C"
_symmetry_group_IT_number 15
_symmetry_cell_setting 'monoclinic'
loop_
_space_group_symop_operation_xyz
x,y,z
-x,y,1/2-z
-x,-y,-z
x,-y,1/2+z
1/2+x,1/2+y,z
1/2-x,1/2+y,1/2-z
1/2-x,1/2-y,-z
1/2+x,1/2-y,1/2+z
loop_
_atom_site_type_symbol
_atom_site_label
_atom_site_fract_x
_atom_site_fract_y
_atom_site_fract_z
Si Si1 0.231714 0.850142 0.640009
Si Si2 0.891002 0.333596 0.988281
Si Si3 0.706902 0.876790 0.718223
Si Si4 0.556419 0.407539 0.022870
Si Si5 0.034309 0.231406 0.411387
Si Si6 0.489490 0.472339 0.174879
O O1 0.428732 0.839774 0.581239
O O2 0.234357 0.837814 0.719504
O O3 0.110842 0.780106 0.620097
O O4 0.139081 0.948575 0.643012
O O5 0.766122 0.413200 0.987436
O O6 0.933453 0.327859 0.060352
O O7 0.750000 0.250000 0.000000
O O8 0.500000 0.885021 0.750000
O O9 0.788397 0.811585 0.647830
O O10 0.809361 0.972082 0.695642
O O11 0.505342 0.402745 0.110372
O O12 0.500000 0.500000 0.000000
O O13 0.483101 0.330210 0.985424
O O14 0.500000 0.436890 0.250000
#
# Coordination Sequence:
#
# PCOD9257994 Si02
#       6
#     8   8   8   8   8   8
#     4  10  19  34  58  82 111 149 194 244 285 342
#     4  10  22  35  54  82 112 147 193 236 288 345
#     4  10  18  32  57  83 109 147 192 237 283 350
#     4  11  19  36  57  80 114 150 185 237 291 342
#     4  10  20  37  55  86 116 148 194 243 290 350
#     4   9  20  36  54  83 113 143 190 240 285 342
#
# _framework density 21.390896000000001
#
# number of rings (size 3 to 8) (size 9 to 14) (size 15 to 20)
#    0.000    2.000    3.333    4.000    0.000    0.667 
#    0.000    4.167    0.000    0.000    0.000    0.000 
#    0.000    0.000    0.000    0.000    0.000    0.000 
#
# Total GULP energy -133800.298715 kJ/mol
# GULP energy per Si atom -5575.012446 kJ/mol
# Density = 2.134221 g / cm^3
# Si number density = 21.390896 Si / 1000 Ang^3
#
#
#
# Elastic Constant Matrix: (Units=GPa)
#
#
# Indices 1 2 3 4 5 6 
#
# 1 126.7081 27.8657 53.4048 0.0000 -9.5462 0.0000
# 2 27.8657 13.1888 10.9282 0.0000 -1.4571 0.0000
# 3 53.4048 10.9282 132.9328 0.0000 1.6904 0.0000
# 4 0.0000 0.0000 0.0000 20.7142 0.0000 14.6403
# 5 -9.5462 -1.4571 1.6904 0.0000 48.5760 0.0000
# 6 0.0000 0.0000 0.0000 14.6403 0.0000 22.2852
#
#
#
# Elastic Compliance Matrix: (Units=1/GPa)
#
#
# Indices 1 2 3 4 5 6 
#
# 1 0.016850 -0.031859 -0.004182 0.000000 0.002501 0.000000
# 2 -0.031859 0.141951 0.001155 0.000000 -0.002043 0.000000
# 3 -0.004182 0.001155 0.009122 0.000000 -0.001105 0.000000
# 4 0.000000 0.000000 0.000000 0.090121 0.000000 -0.059205
# 5 0.002501 -0.002043 -0.001105 0.000000 0.021055 0.000000
# 6 0.000000 0.000000 0.000000 -0.059205 0.000000 0.083768
#
#
# Mechanical properties :
#
#
# Convention : Reuss Voigt Hill
#
# Bulk Modulus (GPa) = 10.18833 50.80303 30.49568
# Shear Modulus (GPa) = 10.74453 30.35714 20.55083
#
# Velocity S-wave (km/s) = 2.24362 3.77126 3.10292
# Velocity P-wave (km/s) = 3.38896 6.53947 5.20815
#
# Compressibility (1/GPa) = 0.09815150
#
# Stress axis : x y z
#
# Youngs Moduli (GPa) = 59.34861 7.04469 109.62845
#
# Poissons Ratio (x) = 0.22444 0.45846
# Poissons Ratio (y) = 1.89077 -0.12667
# Poissons Ratio (z) = 0.24819 -0.00814
#
# Static dielectric constant tensor:
#      x y z
#    x 1.807250 0.000000 0.004570 
#    y 0.000000 1.942740 0.000000 
#    z 0.004570 0.000000 1.823080 
# 
# From -- ./inp_files/232021.got.cif
#   From: 2010.05.17/outbox.cif.g08.bks.cpg/sg15_117_cif.got.tgz:232021.got - 2010.06.03 18:47:42.
