data_PCOD9257587
_publ_section_title
;
Structure prediction by ZEFSAII (Michael W. Deem and Ramdas Pophale) SiO2 
 PCOD9257587
Probable space group: C 2/C
;
_chemical_formula_sum "Si O2"
_cell_formula_units_Z 48
_cell_length_a 18.307317
_cell_length_b 16.577782
_cell_length_c 23.361210
_cell_angle_alpha 90.000000
_cell_angle_beta 160.228328
_cell_angle_gamma 90.000000
_cell_volume 2398.354621
_symmetry_space_group_name_H-M "C 2/C"
_symmetry_group_IT_number 15
_symmetry_cell_setting 'monoclinic'
loop_
_space_group_symop_operation_xyz
x,y,z
-x,y,1/2-z
-x,-y,-z
x,-y,1/2+z
1/2+x,1/2+y,z
1/2-x,1/2+y,1/2-z
1/2-x,1/2-y,-z
1/2+x,1/2-y,1/2+z
loop_
_atom_site_type_symbol
_atom_site_label
_atom_site_fract_x
_atom_site_fract_y
_atom_site_fract_z
Si Si1 0.842584 0.010186 0.516761
Si Si2 0.500000 0.490120 0.250000
Si Si3 0.571688 0.918879 0.473135
Si Si4 0.220453 0.889283 0.766852
Si Si5 0.766292 0.040263 0.335083
Si Si6 0.500000 0.122957 0.750000
Si Si7 0.018804 0.733747 0.859979
O O1 0.902024 0.052760 0.620781
O O2 0.676933 0.936532 0.407035
O O3 0.058539 0.964456 0.656024
O O4 0.747106 0.053656 0.389520
O O5 0.693523 0.546399 0.370218
O O6 0.569808 0.910849 0.540623
O O7 0.549466 0.829068 0.433236
O O8 0.402187 0.976168 0.315983
O O9 0.253779 0.884549 0.723241
O O10 0.105640 0.811998 0.710423
O O11 0.000000 0.000000 0.500000
O O12 0.396099 0.180636 0.721019
O O13 0.250000 0.750000 0.000000
#
# Coordination Sequence:
#
# PCOD9257587 Si02
#       7
#     8   4   8   8   8   4   8
#     4  10  18  32  48  70 103 141 190 232 271 334
#     4  10  18  33  54  84 102 140 187 246 288 323
#     4  11  20  34  52  75 111 148 190 232 278 340
#     4  10  22  32  46  72 107 157 193 225 275 335
#     4  10  21  36  50  67 103 162 201 224 275 343
#     4  12  18  31  50  78 110 144 185 222 284 317
#     4  12  20  31  52  82 117 147 190 233 281 336
#
# _framework density 20.013719999999999
#
# number of rings (size 3 to 8) (size 9 to 14) (size 15 to 20)
#    0.000    1.333    5.000    2.500    0.000    0.667 
#    0.000    0.000    0.000    0.000    0.000    0.000 
#    0.000    0.000    0.000  309.000    0.000    0.000 
#
# Total GULP energy -133699.098526 kJ/mol
# GULP energy per Si atom -5570.795772 kJ/mol
# Density = 1.996817 g / cm^3
# Si number density = 20.013720 Si / 1000 Ang^3
#
#
#
# Elastic Constant Matrix: (Units=GPa)
#
#
# Indices 1 2 3 4 5 6 
#
# 1 150.3808 38.7043 39.9034 -0.0030 -57.8587 0.0077
# 2 38.7043 39.4123 22.1314 -0.0501 -7.1237 -0.0118
# 3 39.9034 22.1314 96.4628 0.0878 -28.5982 -0.0105
# 4 -0.0030 -0.0501 0.0878 11.0428 0.0142 -1.3730
# 5 -57.8587 -7.1237 -28.5982 0.0142 47.1627 -0.0004
# 6 0.0077 -0.0118 -0.0105 -1.3730 -0.0004 39.4467
#
#
#
# Elastic Compliance Matrix: (Units=1/GPa)
#
#
# Indices 1 2 3 4 5 6 
#
# 1 0.018245 -0.015351 0.002345 -0.000112 0.021486 -0.000011
# 2 -0.015351 0.042048 -0.008531 0.000280 -0.017654 0.000023
# 3 0.002345 -0.008531 0.014417 -0.000167 0.010330 -0.000005
# 4 -0.000112 0.000280 -0.000167 0.090954 -0.000224 0.003166
# 5 0.021486 -0.017654 0.010330 -0.000224 0.051159 -0.000014
# 6 -0.000011 0.000023 -0.000005 0.003166 -0.000014 0.025461
#
#
# Mechanical properties :
#
#
# Convention : Reuss Voigt Hill
#
# Bulk Modulus (GPa) = 31.61031 54.19268 42.90150
# Shear Modulus (GPa) = 16.89744 31.89821 24.39783
#
# Velocity S-wave (km/s) = 2.90882 3.99660 3.49528
# Velocity P-wave (km/s) = 5.20675 6.95942 6.14589
#
# Compressibility (1/GPa) = 0.03163525
#
# Stress axis : x y z
#
# Youngs Moduli (GPa) = 54.80847 23.78261 69.36419
#
# Poissons Ratio (x) = 0.36508 -0.16263
# Poissons Ratio (y) = 0.84135 0.59175
# Poissons Ratio (z) = -0.12850 0.20289
#
# Static dielectric constant tensor:
#      x y z
#    x 1.885360 0.000030 -0.048470 
#    y 0.000030 1.676020 -0.000020 
#    z -0.048470 -0.000020 1.806400 
# 
# From -- ./inp_files/55463.got.cif
#   From: 2010.05.17/outbox.cif.g08.bks.cpg/sg15_28_cif.got.tgz:55463.got - 2010.06.03 18:47:42.
