data_PCOD9257388
_publ_section_title
;
Structure prediction by ZEFSAII (Michael W. Deem and Ramdas Pophale) SiO2 
 PCOD9257388
Probable space group: C 2/C
;
_chemical_formula_sum "Si O2"
_cell_formula_units_Z 64
_cell_length_a 11.265458
_cell_length_b 28.809094
_cell_length_c 11.758428
_cell_angle_alpha 90.000000
_cell_angle_beta 106.801784
_cell_angle_gamma 90.000000
_cell_volume 3653.259639
_symmetry_space_group_name_H-M "C 2/C"
_symmetry_group_IT_number 15
_symmetry_cell_setting 'monoclinic'
loop_
_space_group_symop_operation_xyz
x,y,z
-x,y,1/2-z
-x,-y,-z
x,-y,1/2+z
1/2+x,1/2+y,z
1/2-x,1/2+y,1/2-z
1/2-x,1/2-y,-z
1/2+x,1/2-y,1/2+z
loop_
_atom_site_type_symbol
_atom_site_label
_atom_site_fract_x
_atom_site_fract_y
_atom_site_fract_z
Si Si1 0.620537 0.289837 0.198146
Si Si2 0.138774 0.895044 0.432255
Si Si3 0.166095 0.553332 0.363174
Si Si4 0.592908 0.909852 0.614377
Si Si5 0.274050 0.199898 0.952714
Si Si6 0.539455 0.190446 0.127728
Si Si7 0.642311 0.608885 0.658987
Si Si8 0.617268 0.056236 0.864635
O O1 0.500000 0.295362 0.250000
O O2 0.739260 0.291682 0.312591
O O3 0.602072 0.240773 0.132537
O O4 0.634736 0.336131 0.129664
O O5 0.222503 0.929928 0.527026
O O6 0.186587 0.842308 0.472905
O O7 0.154695 0.896927 0.299607
O O8 0.995253 0.906725 0.414139
O O9 0.179134 0.566536 0.233855
O O10 0.139424 0.498883 0.363433
O O11 0.046036 0.580797 0.377382
O O12 0.618048 0.854906 0.621417
O O13 0.595473 0.930549 0.489632
O O14 0.250000 0.250000 0.000000
O O15 0.414998 0.187616 0.018843
O O16 0.500000 0.187794 0.250000
O O17 0.758969 0.583124 0.638989
O O18 0.500000 0.067652 0.750000
#
# Coordination Sequence:
#
# PCOD9257388 Si02
#       8
#     8   8   8   8   8   8   8   8
#     4  10  18  31  52  86 116 143 192 239 285 337
#     4  10  19  36  61  85 116 149 194 241 288 344
#     4  11  22  38  63  85 117 149 193 252 291 341
#     4  11  22  39  56  93 117 147 197 240 299 344
#     4  11  16  25  51  84 113 143 180 236 287 329
#     4  11  18  31  54  87 118 146 187 245 289 342
#     4  10  21  39  57  87 118 156 194 239 286 353
#     4  12  26  39  61  83 117 161 193 240 296 350
#
# _framework density 17.518602000000001
#
# number of rings (size 3 to 8) (size 9 to 14) (size 15 to 20)
#    0.000    1.250    8.750    1.125    3.500    0.500 
#    0.000    1.250    0.000    0.000    0.000    0.000 
#    0.000    0.000    0.000    0.000    0.000    0.000 
#
# Total GULP energy -178341.987077 kJ/mol
# GULP energy per Si atom -5573.187096 kJ/mol
# Density = 1.747873 g / cm^3
# Si number density = 17.518602 Si / 1000 Ang^3
#
#
#
# Elastic Constant Matrix: (Units=GPa)
#
#
# Indices 1 2 3 4 5 6 
#
# 1 69.5811 36.8122 47.0017 0.0000 14.9309 0.0000
# 2 36.8122 104.1223 32.9937 0.0000 3.8126 0.0000
# 3 47.0017 32.9937 108.3464 0.0000 19.7968 0.0000
# 4 0.0000 0.0000 0.0000 7.9913 0.0000 40.5561
# 5 14.9309 3.8126 19.7968 0.0000 28.6474 0.0000
# 6 0.0000 0.0000 0.0000 40.5561 0.0000 -33.7655
#
#
#
# Elastic Compliance Matrix: (Units=1/GPa)
#
#
# Indices 1 2 3 4 5 6 
#
# 1 0.023855 -0.005860 -0.007365 0.000000 -0.006564 0.000000
# 2 -0.005860 0.012091 -0.001607 0.000000 0.002555 0.000000
# 3 -0.007365 -0.001607 0.013933 0.000000 -0.005576 0.000000
# 4 0.000000 0.000000 0.000000 0.017636 0.000000 0.021182
# 5 -0.006564 0.002555 -0.005576 0.000000 0.041841 0.000000
# 6 0.000000 0.000000 0.000000 0.021182 0.000000 -0.004174
#
#
# Mechanical properties :
#
#
# Convention : Reuss Voigt Hill
#
# Bulk Modulus (GPa) = 49.46543 57.29611 53.38077
# Shear Modulus (GPa) = 35.31452 11.59081 23.45266
#
# Velocity S-wave (km/s) = 4.49467 2.57500 3.66283
# Velocity P-wave (km/s) = 7.43191 6.45118 6.95885
#
# Compressibility (1/GPa) = 0.02021614
#
# Stress axis : x y z
#
# Youngs Moduli (GPa) = 41.91928 82.70291 71.77329
#
# Poissons Ratio (x) = 0.48463 0.52860
# Poissons Ratio (y) = 0.24564 0.11533
# Poissons Ratio (z) = 0.30873 0.13290
#
# Static dielectric constant tensor:
#      x y z
#    x 1.587810 0.000000 0.009850 
#    y 0.000000 1.628290 0.000000 
#    z 0.009850 0.000000 1.592280 
# 
# From -- ./inp_files/92457.got.cif
#   From: 2010.05.17/outbox.cif.g08.bks.cpg/sg15_47_cif.got.tgz:92457.got - 2010.06.03 18:47:42.
