data_PCOD9257705
_publ_section_title
;
Structure prediction by ZEFSAII (Michael W. Deem and Ramdas Pophale) SiO2 
 PCOD9257705
Probable space group: C 2/C
;
_chemical_formula_sum "Si O2"
_cell_formula_units_Z 64
_cell_length_a 26.626897
_cell_length_b 17.310167
_cell_length_c 8.251640
_cell_angle_alpha 90.000000
_cell_angle_beta 125.387552
_cell_angle_gamma 90.000000
_cell_volume 3100.664878
_symmetry_space_group_name_H-M "C 2/C"
_symmetry_group_IT_number 15
_symmetry_cell_setting 'monoclinic'
loop_
_space_group_symop_operation_xyz
x,y,z
-x,y,1/2-z
-x,-y,-z
x,-y,1/2+z
1/2+x,1/2+y,z
1/2-x,1/2+y,1/2-z
1/2-x,1/2-y,-z
1/2+x,1/2-y,1/2+z
loop_
_atom_site_type_symbol
_atom_site_label
_atom_site_fract_x
_atom_site_fract_y
_atom_site_fract_z
Si Si1 0.532137 0.775052 0.659233
Si Si2 0.300323 0.334591 0.259400
Si Si3 0.432531 0.023347 0.577211
Si Si4 0.776231 0.663345 0.569718
Si Si5 0.582664 0.173650 0.734436
Si Si6 0.270736 0.849526 0.692959
Si Si7 0.620478 0.089734 0.320356
Si Si8 0.065241 0.173591 0.417075
O O1 0.500000 0.734492 0.750000
O O2 0.477003 0.829500 0.490166
O O3 0.590127 0.828664 0.805863
O O4 0.552564 0.715824 0.562593
O O5 0.253419 0.363303 0.314055
O O6 0.294611 0.240031 0.250717
O O7 0.367924 0.363992 0.437311
O O8 0.284505 0.352828 0.041815
O O9 0.500000 0.994205 0.750000
O O10 0.423297 0.106106 0.645720
O O11 0.426074 0.040055 0.377188
O O12 0.378084 0.964561 0.522211
O O13 0.750000 0.750000 0.500000
O O14 0.850149 0.667357 0.717421
O O15 0.761452 0.625425 0.363817
O O16 0.575994 0.256751 0.808950
O O17 0.322323 0.896004 0.689465
O O18 0.000000 0.133515 0.250000
#
# Coordination Sequence:
#
# PCOD9257705 Si02
#       8
#     8   8   8   8   8   8   8   8
#     4  11  22  30  47  67  95 131 178 220 262 293
#     4  10  19  33  56  73  93 130 168 213 267 322
#     4  12  22  35  49  65  96 144 185 224 259 282
#     4  10  18  32  52  75  92 127 171 213 270 312
#     4  11  19  35  50  64  99 134 173 228 254 298
#     4  10  20  34  50  72 101 121 172 229 256 307
#     4  12  23  36  45  69  98 134 184 230 260 286
#     4  10  18  36  51  69 101 129 162 213 262 306
#
# _framework density 20.640734999999999
#
# number of rings (size 3 to 8) (size 9 to 14) (size 15 to 20)
#    0.000    1.250    7.500    1.125    3.500    1.000 
#    0.000    0.000    0.000    0.000    0.000    0.000 
#    0.000    0.000    0.000    4.500    0.500    0.250 
#
# Total GULP energy -178391.683063 kJ/mol
# GULP energy per Si atom -5574.740096 kJ/mol
# Density = 2.059376 g / cm^3
# Si number density = 20.640735 Si / 1000 Ang^3
#
#
#
# Elastic Constant Matrix: (Units=GPa)
#
#
# Indices 1 2 3 4 5 6 
#
# 1 134.3403 6.8806 35.2969 0.0000 -1.8214 0.0000
# 2 6.8806 5.9384 1.3440 0.0000 0.2417 0.0000
# 3 35.2969 1.3440 64.3525 0.0000 6.0194 0.0000
# 4 0.0000 0.0000 0.0000 8.0175 0.0000 -3.3274
# 5 -1.8214 0.2417 6.0194 0.0000 28.3008 0.0000
# 6 0.0000 0.0000 0.0000 -3.3274 0.0000 25.3159
#
#
#
# Elastic Compliance Matrix: (Units=1/GPa)
#
#
# Indices 1 2 3 4 5 6 
#
# 1 0.009293 -0.009694 -0.005059 0.000000 0.001757 0.000000
# 2 -0.009694 0.179321 0.001810 0.000000 -0.002540 0.000000
# 3 -0.005059 0.001810 0.018680 0.000000 -0.004314 0.000000
# 4 0.000000 0.000000 0.000000 0.131924 0.000000 0.017340
# 5 0.001757 -0.002540 -0.004314 0.000000 0.036387 0.000000
# 6 0.000000 0.000000 0.000000 0.017340 0.000000 0.041780
#
#
# Mechanical properties :
#
#
# Convention : Reuss Voigt Hill
#
# Bulk Modulus (GPa) = 5.51248 32.40827 18.96037
# Shear Modulus (GPa) = 9.92572 23.06749 16.49660
#
# Velocity S-wave (km/s) = 2.19528 3.34664 2.83012
# Velocity P-wave (km/s) = 3.01697 5.53792 4.45930
#
# Compressibility (1/GPa) = 0.18140662
#
# Stress axis : x y z
#
# Youngs Moduli (GPa) = 107.60320 5.57659 53.53292
#
# Poissons Ratio (x) = 0.05406 0.27084
# Poissons Ratio (y) = 1.04315 -0.09688
# Poissons Ratio (z) = 0.54439 -0.01009
#
# Static dielectric constant tensor:
#      x y z
#    x 1.796080 0.000000 0.000660 
#    y 0.000000 1.733410 0.000000 
#    z 0.000660 0.000000 1.882720 
# 
# From -- ./inp_files/63270.got.cif
#   From: 2010.05.17/outbox.cif.g08.bks.cpg/sg15_32_cif.got.tgz:63270.got - 2010.06.03 18:47:42.
