data_PCOD9257554
_publ_section_title
;
Structure prediction by ZEFSAII (Michael W. Deem and Ramdas Pophale) SiO2 
 PCOD9257554
Probable space group: C 2/C
;
_chemical_formula_sum "Si O2"
_cell_formula_units_Z 40
_cell_length_a 28.924167
_cell_length_b 7.633277
_cell_length_c 14.436608
_cell_angle_alpha 90.000000
_cell_angle_beta 150.426486
_cell_angle_gamma 90.000000
_cell_volume 1573.110729
_symmetry_space_group_name_H-M "C 2/C"
_symmetry_group_IT_number 15
_symmetry_cell_setting 'monoclinic'
loop_
_space_group_symop_operation_xyz
x,y,z
-x,y,1/2-z
-x,-y,-z
x,-y,1/2+z
1/2+x,1/2+y,z
1/2-x,1/2+y,1/2-z
1/2-x,1/2-y,-z
1/2+x,1/2-y,1/2+z
loop_
_atom_site_type_symbol
_atom_site_label
_atom_site_fract_x
_atom_site_fract_y
_atom_site_fract_z
Si Si1 0.654211 0.532052 0.269869
Si Si2 0.483956 0.432900 0.330177
Si Si3 0.761004 0.672871 0.694612
Si Si4 0.827367 0.686451 0.281513
Si Si5 0.537642 0.942326 0.911736
O O1 0.597685 0.547318 0.266126
O O2 0.722279 0.685522 0.356057
O O3 0.695014 0.339584 0.327589
O O4 0.574027 0.527179 0.050013
O O5 0.500000 0.464117 0.250000
O O6 0.471184 0.221216 0.321305
O O7 0.755969 0.475858 0.648769
O O8 0.687151 0.737528 0.640137
O O9 0.860615 0.652701 0.924363
O O10 0.930354 0.593321 0.460987
O O11 0.500000 0.017064 0.750000
#
# Coordination Sequence:
#
# PCOD9257554 Si02
#       5
#     8   8   8   8   8
#     4  10  18  34  58  82 110 153 191 234 287 346
#     4   9  19  35  54  82 119 146 186 243 295 333
#     4   9  18  32  55  85 113 148 196 229 285 348
#     4  10  18  31  59  83 111 151 194 231 283 346
#     4   8  17  32  51  81 114 142 187 236 283 334
#
# _framework density 25.427326999999998
#
# number of rings (size 3 to 8) (size 9 to 14) (size 15 to 20)
#    1.200    1.600    2.000    0.000    0.000    1.600 
#    0.000    0.000    0.000   31.200    0.000    0.000 
#    0.000    0.000    0.000    0.000    0.000    0.000 
#
# Total GULP energy -111568.248843 kJ/mol
# GULP energy per Si atom -5578.412442 kJ/mol
# Density = 2.536945 g / cm^3
# Si number density = 25.427327 Si / 1000 Ang^3
#
#
#
# Elastic Constant Matrix: (Units=GPa)
#
#
# Indices 1 2 3 4 5 6 
#
# 1 145.3182 46.7315 -1.1965 0.0000 -28.4057 0.0000
# 2 46.7315 142.0817 -8.4777 0.0000 -9.9635 0.0000
# 3 -1.1965 -8.4777 90.4523 0.0000 -25.2998 0.0000
# 4 0.0000 0.0000 0.0000 3.3145 0.0000 3.5734
# 5 -28.4057 -9.9635 -25.2998 0.0000 19.4631 0.0000
# 6 0.0000 0.0000 0.0000 3.5734 0.0000 31.1189
#
#
#
# Elastic Compliance Matrix: (Units=1/GPa)
#
#
# Indices 1 2 3 4 5 6 
#
# 1 0.013140 -0.001833 0.008019 0.000000 0.028662 0.000000
# 2 -0.001833 0.008007 0.001767 0.000000 0.003720 0.000000
# 3 0.008019 0.001767 0.023339 0.000000 0.042946 0.000000
# 4 0.000000 0.000000 0.000000 0.344331 0.000000 -0.039540
# 5 0.028662 0.003720 0.042946 0.000000 0.150938 0.000000
# 6 0.000000 0.000000 0.000000 -0.039540 0.000000 0.036675
#
#
# Mechanical properties :
#
#
# Convention : Reuss Voigt Hill
#
# Bulk Modulus (GPa) = 16.55885 50.21852 33.38869
# Shear Modulus (GPa) = 8.61094 33.49898 21.05496
#
# Velocity S-wave (km/s) = 1.84224 3.63359 2.88070
# Velocity P-wave (km/s) = 3.32438 6.11528 4.92180
#
# Compressibility (1/GPa) = 0.06039066
#
# Stress axis : x y z
#
# Youngs Moduli (GPa) = 76.10579 124.88313 42.84630
#
# Poissons Ratio (x) = 0.22895 -0.34357
# Poissons Ratio (y) = 0.13953 -0.07570
# Poissons Ratio (z) = -0.61027 -0.22064
#
# Static dielectric constant tensor:
#      x y z
#    x 1.959960 0.000000 -0.017180 
#    y 0.000000 2.112320 0.000000 
#    z -0.017180 0.000000 2.109870 
# 
# From -- ./inp_files/171129.got.cif
#   From: 2010.05.17/outbox.cif.g08.bks.cpg/sg15_86_cif.got.tgz:171129.got - 2010.06.03 18:47:42.
