data_PCOD9257443
_publ_section_title
;
Structure prediction by ZEFSAII (Michael W. Deem and Ramdas Pophale) SiO2 
 PCOD9257443
Probable space group: C 2/C
;
_chemical_formula_sum "Si O2"
_cell_formula_units_Z 48
_cell_length_a 9.512886
_cell_length_b 15.780583
_cell_length_c 14.816029
_cell_angle_alpha 90.000000
_cell_angle_beta 92.315062
_cell_angle_gamma 90.000000
_cell_volume 2222.350444
_symmetry_space_group_name_H-M "C 2/C"
_symmetry_group_IT_number 15
_symmetry_cell_setting 'monoclinic'
loop_
_space_group_symop_operation_xyz
x,y,z
-x,y,1/2-z
-x,-y,-z
x,-y,1/2+z
1/2+x,1/2+y,z
1/2-x,1/2+y,1/2-z
1/2-x,1/2-y,-z
1/2+x,1/2-y,1/2+z
loop_
_atom_site_type_symbol
_atom_site_label
_atom_site_fract_x
_atom_site_fract_y
_atom_site_fract_z
Si Si1 0.571995 0.406268 0.997180
Si Si2 0.367722 0.685802 0.812310
Si Si3 0.163179 0.543092 0.771129
Si Si4 0.168052 0.638856 0.242762
Si Si5 0.205770 0.830761 0.556734
Si Si6 0.664110 0.002767 0.982898
O O1 0.585892 0.359495 0.094214
O O2 0.732002 0.427216 0.971705
O O3 0.500000 0.500000 0.000000
O O4 0.461441 0.348728 0.940039
O O5 0.500000 0.692757 0.750000
O O6 0.255943 0.625568 0.759728
O O7 0.310845 0.781540 0.822673
O O8 0.216372 0.457311 0.723576
O O9 0.175856 0.520384 0.876724
O O10 0.000000 0.560376 0.750000
O O11 0.229721 0.667676 0.341302
O O12 0.000000 0.626748 0.250000
O O13 0.250000 0.750000 0.500000
O O14 0.271405 0.909894 0.503147
O O15 0.500000 0.000000 0.000000
#
# Coordination Sequence:
#
# PCOD9257443 Si02
#       6
#     8   8   8   8   8   8
#     4   9  19  35  56  85 115 144 194 249 293 358
#     4  10  19  34  58  83 109 150 191 233 290 353
#     4   9  19  34  52  78 110 141 183 233 280 345
#     4   9  18  33  52  77 110 147 185 225 286 358
#     4  10  18  31  54  81 109 144 186 237 289 352
#     4   9  19  35  55  78 109 148 187 235 292 344
#
# _framework density 21.598754
#
# number of rings (size 3 to 8) (size 9 to 14) (size 15 to 20)
#    0.000    2.667    0.000    3.000    0.000    4.000 
#    0.000    1.667    0.000   18.000    0.000    0.000 
#    0.000    0.000    0.000    0.000    0.000    0.000 
#
# Total GULP energy -133811.104773 kJ/mol
# GULP energy per Si atom -5575.462699 kJ/mol
# Density = 2.154959 g / cm^3
# Si number density = 21.598754 Si / 1000 Ang^3
#
#
#
# Elastic Constant Matrix: (Units=GPa)
#
#
# Indices 1 2 3 4 5 6 
#
# 1 118.8643 50.8026 26.2443 0.0000 23.5244 0.0000
# 2 50.8026 122.1894 3.0947 0.0000 8.9299 0.0000
# 3 26.2443 3.0947 67.4097 0.0000 19.7820 0.0000
# 4 0.0000 0.0000 0.0000 25.5766 0.0000 1.7861
# 5 23.5244 8.9299 19.7820 0.0000 38.9869 0.0000
# 6 0.0000 0.0000 0.0000 1.7861 0.0000 -45.8069
#
#
#
# Elastic Compliance Matrix: (Units=1/GPa)
#
#
# Indices 1 2 3 4 5 6 
#
# 1 0.011953 -0.004555 -0.003095 0.000000 -0.004599 0.000000
# 2 -0.004555 0.010062 0.001388 0.000000 -0.000260 0.000000
# 3 -0.003095 0.001388 0.018237 0.000000 -0.007704 0.000000
# 4 0.000000 0.000000 0.000000 0.038992 0.000000 0.001520
# 5 -0.004599 -0.000260 -0.007704 0.000000 0.032393 0.000000
# 6 0.000000 0.000000 0.000000 0.001520 0.000000 -0.021772
#
#
# Mechanical properties :
#
#
# Convention : Reuss Voigt Hill
#
# Bulk Modulus (GPa) = 36.06604 52.08296 44.07450
# Shear Modulus (GPa) = 44.78968 18.97278 31.88123
#
# Velocity S-wave (km/s) = 4.55875 2.96703 3.84613
# Velocity P-wave (km/s) = 6.66664 5.99199 6.33829
#
# Compressibility (1/GPa) = 0.02772692
#
# Stress axis : x y z
#
# Youngs Moduli (GPa) = 83.65796 99.38508 54.83458
#
# Poissons Ratio (x) = 0.45274 0.16972
# Poissons Ratio (y) = 0.38109 -0.07611
# Poissons Ratio (z) = 0.25893 -0.13794
#
# Static dielectric constant tensor:
#      x y z
#    x 1.829970 0.000000 0.028430 
#    y 0.000000 1.841010 0.000000 
#    z 0.028430 0.000000 1.832970 
# 
# From -- ./inp_files/189933.got.cif
#   From: 2010.05.17/outbox.cif.g08.bks.cpg/sg15_95_cif.got.tgz:189933.got - 2010.06.03 18:47:42.
