data_PCOD9257125
_publ_section_title
;
Structure prediction by ZEFSAII (Michael W. Deem and Ramdas Pophale) SiO2 
 PCOD9257125
Probable space group: C 2/C
;
_chemical_formula_sum "Si O2"
_cell_formula_units_Z 60
_cell_length_a 11.712297
_cell_length_b 16.428272
_cell_length_c 17.230660
_cell_angle_alpha 90.000000
_cell_angle_beta 124.722886
_cell_angle_gamma 90.000000
_cell_volume 2724.981876
_symmetry_space_group_name_H-M "C 2/C"
_symmetry_group_IT_number 15
_symmetry_cell_setting 'monoclinic'
loop_
_space_group_symop_operation_xyz
x,y,z
-x,y,1/2-z
-x,-y,-z
x,-y,1/2+z
1/2+x,1/2+y,z
1/2-x,1/2+y,1/2-z
1/2-x,1/2-y,-z
1/2+x,1/2-y,1/2+z
loop_
_atom_site_type_symbol
_atom_site_label
_atom_site_fract_x
_atom_site_fract_y
_atom_site_fract_z
Si Si1 0.602649 0.865846 0.036222
Si Si2 0.217580 0.605922 0.240533
Si Si3 0.150395 0.789290 0.266380
Si Si4 0.198754 0.499344 0.954587
Si Si5 0.582036 0.576877 0.061404
Si Si6 0.000000 0.502396 0.250000
Si Si7 0.078928 0.779263 0.069632
Si Si8 0.698079 0.865831 0.553090
O O1 0.734232 0.836159 0.137468
O O2 0.631705 0.946005 0.997643
O O3 0.537792 0.791733 0.958464
O O4 0.464086 0.880780 0.033552
O O5 0.202265 0.697113 0.269170
O O6 0.358664 0.570177 0.329852
O O7 0.088797 0.556565 0.224786
O O8 0.218533 0.603520 0.148765
O O9 0.000000 0.789939 0.250000
O O10 0.128569 0.819454 0.168927
O O11 0.277867 0.574873 0.026072
O O12 0.284690 0.428906 0.943696
O O13 0.109727 0.538482 0.849711
O O14 0.500000 0.500000 0.000000
O O15 0.498600 0.657834 0.013890
O O16 0.199499 0.731335 0.068779
#
# Coordination Sequence:
#
# PCOD9257125 Si02
#       8
#     8   8   8   8   8   4   8   8
#     4  10  20  33  59  85 124 146 193 246 294 372
#     4  10  18  33  57  81 119 156 199 234 297 361
#     4  11  19  30  54  90 120 159 195 243 305 368
#     4  11  21  37  60  87 120 156 194 247 304 363
#     4  11  24  40  56  85 122 162 200 253 313 357
#     4  10  18  30  54  86 112 152 192 242 290 354
#     4   9  21  36  56  84 121 149 199 243 308 354
#     4   9  20  37  59  89 114 157 197 243 304 364
#
# _framework density 22.018495000000001
#
# number of rings (size 3 to 8) (size 9 to 14) (size 15 to 20)
#    0.800    1.067    3.333    1.200    1.867    2.133 
#    2.400    2.667    0.000    0.000    0.000    0.000 
#    0.000    0.000    0.000    0.000    0.000    0.000 
#
# Total GULP energy -167015.351846 kJ/mol
# GULP energy per Si atom -5567.178395 kJ/mol
# Density = 2.196838 g / cm^3
# Si number density = 22.018495 Si / 1000 Ang^3
#
#
#
# Elastic Constant Matrix: (Units=GPa)
#
#
# Indices 1 2 3 4 5 6 
#
# 1 20.1199 0.8767 25.6341 0.0000 -3.3619 0.0000
# 2 0.8767 54.0205 32.6019 0.0000 -5.1582 0.0000
# 3 25.6341 32.6019 150.1433 0.0000 5.9227 0.0000
# 4 0.0000 0.0000 0.0000 -0.8736 0.0000 23.2195
# 5 -3.3619 -5.1582 5.9227 0.0000 27.6003 0.0000
# 6 0.0000 0.0000 0.0000 23.2195 0.0000 2.8553
#
#
#
# Elastic Compliance Matrix: (Units=1/GPa)
#
#
# Indices 1 2 3 4 5 6 
#
# 1 0.069810 0.008790 -0.014349 0.000000 0.013225 0.000000
# 2 0.008790 0.023122 -0.006791 0.000000 0.006849 0.000000
# 3 -0.014349 -0.006791 0.010795 0.000000 -0.005334 0.000000
# 4 0.000000 0.000000 0.000000 -0.005272 0.000000 0.042869
# 5 0.013225 0.006849 -0.005334 0.000000 0.040267 0.000000
# 6 0.000000 0.000000 0.000000 0.042869 0.000000 0.001613
#
#
# Mechanical properties :
#
#
# Convention : Reuss Voigt Hill
#
# Bulk Modulus (GPa) = 12.65413 38.05655 25.35534
# Shear Modulus (GPa) = 26.12620 16.92781 21.52701
#
# Velocity S-wave (km/s) = 3.44838 2.77573 3.13018
# Velocity P-wave (km/s) = 4.64915 5.25303 4.96029
#
# Compressibility (1/GPa) = 0.07902559
#
# Stress axis : x y z
#
# Youngs Moduli (GPa) = 14.32452 43.24965 92.63370
#
# Poissons Ratio (x) = -0.38015 1.32921
# Poissons Ratio (y) = -0.12591 0.62912
# Poissons Ratio (z) = 0.20554 0.29373
#
# Static dielectric constant tensor:
#      x y z
#    x 1.998210 0.000000 0.046560 
#    y 0.000000 1.849220 0.000000 
#    z 0.046560 0.000000 1.812360 
# 
# From -- ./inp_files/147183.got.cif
#   From: 2010.05.17/outbox.cif.g08.bks.cpg/sg15_74_cif.got.tgz:147183.got - 2010.06.03 18:47:42.
