data_PCOD9257023
_publ_section_title
;
Structure prediction by ZEFSAII (Michael W. Deem and Ramdas Pophale) SiO2 
 PCOD9257023
Probable space group: C 2/C
;
_chemical_formula_sum "Si O2"
_cell_formula_units_Z 48
_cell_length_a 8.954370
_cell_length_b 19.119922
_cell_length_c 31.339576
_cell_angle_alpha 90.000000
_cell_angle_beta 148.802490
_cell_angle_gamma 90.000000
_cell_volume 2779.300506
_symmetry_space_group_name_H-M "C 2/C"
_symmetry_group_IT_number 15
_symmetry_cell_setting 'monoclinic'
loop_
_space_group_symop_operation_xyz
x,y,z
-x,y,1/2-z
-x,-y,-z
x,-y,1/2+z
1/2+x,1/2+y,z
1/2-x,1/2+y,1/2-z
1/2-x,1/2-y,-z
1/2+x,1/2-y,1/2+z
loop_
_atom_site_type_symbol
_atom_site_label
_atom_site_fract_x
_atom_site_fract_y
_atom_site_fract_z
Si Si1 0.827420 0.931499 0.664786
Si Si2 0.716954 0.604234 0.037154
Si Si3 0.730719 0.019323 0.878906
Si Si4 0.330865 0.327677 0.506666
Si Si5 0.190857 0.585149 0.662951
Si Si6 0.683516 0.594490 0.166697
O O1 0.529883 0.888364 0.593409
O O2 0.000000 0.914618 0.750000
O O3 0.022500 0.915880 0.671853
O O4 0.748918 0.014106 0.649972
O O5 0.743382 0.543290 0.079778
O O6 0.565848 0.666905 0.025743
O O7 0.495633 0.571898 0.949304
O O8 0.449285 0.059681 0.826406
O O9 0.748399 0.979974 0.838915
O O10 0.250000 0.250000 0.500000
O O11 0.476936 0.365055 0.583190
O O12 0.049465 0.369293 0.420194
O O13 0.500000 0.618055 0.750000
O O14 0.000000 0.628723 0.250000
#
# Coordination Sequence:
#
# PCOD9257023 Si02
#       6
#     8   8   8   8   8   8
#     4  10  18  30  51  78 104 129 161 214 276 316
#     4   8  15  30  48  67  99 131 160 205 253 293
#     4   8  15  28  47  72  98 125 158 204 257 304
#     4  10  21  35  50  72 102 142 182 208 239 298
#     4   9  17  32  52  74 103 134 164 208 264 309
#     4  11  20  31  52  80 104 129 167 212 261 316
#
# _framework density 17.270533
#
# number of rings (size 3 to 8) (size 9 to 14) (size 15 to 20)
#    0.000    2.667    0.000    7.000    0.000    3.333 
#    0.000    0.833    0.000    0.000    0.000    8.167 
#    0.000    0.000    0.000    0.000    0.000    0.000 
#
# Total GULP energy -133642.991987 kJ/mol
# GULP energy per Si atom -5568.457999 kJ/mol
# Density = 1.723122 g / cm^3
# Si number density = 17.270533 Si / 1000 Ang^3
#
#
#
# Elastic Constant Matrix: (Units=GPa)
#
#
# Indices 1 2 3 4 5 6 
#
# 1 138.8182 42.0940 72.6693 -0.0022 12.2674 -0.0031
# 2 42.0940 56.8932 41.4684 -0.0047 5.7988 -0.0036
# 3 72.6693 41.4684 126.6584 -0.0055 16.2646 -0.0094
# 4 -0.0022 -0.0047 -0.0055 6.3951 -0.0022 -1.0725
# 5 12.2674 5.7988 16.2646 -0.0022 33.6106 -0.0061
# 6 -0.0031 -0.0036 -0.0094 -1.0725 -0.0061 10.5960
#
#
#
# Elastic Compliance Matrix: (Units=1/GPa)
#
#
# Indices 1 2 3 4 5 6 
#
# 1 0.011216 -0.004728 -0.004762 -0.000005 -0.000974 -0.000004
# 2 -0.004728 0.025083 -0.005508 0.000013 0.000063 0.000004
# 3 -0.004762 -0.005508 0.012886 0.000005 -0.003547 0.000007
# 4 -0.000005 0.000013 0.000005 0.159071 0.000010 0.016100
# 5 -0.000974 0.000063 -0.003547 0.000010 0.031814 0.000016
# 6 -0.000004 0.000004 0.000007 0.016100 0.000016 0.096005
#
#
# Mechanical properties :
#
#
# Convention : Reuss Voigt Hill
#
# Bulk Modulus (GPa) = 52.11205 70.53702 61.32453
# Shear Modulus (GPa) = 13.42397 21.19621 17.31009
#
# Velocity S-wave (km/s) = 2.79099 3.50709 3.16933
# Velocity P-wave (km/s) = 6.37382 7.57170 6.99844
#
# Compressibility (1/GPa) = 0.01918942
#
# Stress axis : x y z
#
# Youngs Moduli (GPa) = 89.15456 39.86744 77.60205
#
# Poissons Ratio (x) = 0.18851 0.36956
# Poissons Ratio (y) = 0.42157 0.42739
# Poissons Ratio (z) = 0.42457 0.21957
#
# Static dielectric constant tensor:
#      x y z
#    x 1.592820 0.000000 0.023290 
#    y 0.000000 1.569120 0.000000 
#    z 0.023290 0.000000 1.640260 
# 
# From -- ./inp_files/308952.got.cif
#   From: 2010.05.17/outbox.cif.g08.bks.cpg/sg15_155_cif.got.tgz:308952.got - 2010.06.03 18:47:42.
