data_PCOD9257527
_publ_section_title
;
Structure prediction by ZEFSAII (Michael W. Deem and Ramdas Pophale) SiO2 
 PCOD9257527
Probable space group: C 2/C
;
_chemical_formula_sum "Si O2"
_cell_formula_units_Z 48
_cell_length_a 10.976498
_cell_length_b 14.768328
_cell_length_c 21.499269
_cell_angle_alpha 90.000000
_cell_angle_beta 36.427469
_cell_angle_gamma 90.000000
_cell_volume 2069.485841
_symmetry_space_group_name_H-M "C 2/C"
_symmetry_group_IT_number 15
_symmetry_cell_setting 'monoclinic'
loop_
_space_group_symop_operation_xyz
x,y,z
-x,y,1/2-z
-x,-y,-z
x,-y,1/2+z
1/2+x,1/2+y,z
1/2-x,1/2+y,1/2-z
1/2-x,1/2-y,-z
1/2+x,1/2-y,1/2+z
loop_
_atom_site_type_symbol
_atom_site_label
_atom_site_fract_x
_atom_site_fract_y
_atom_site_fract_z
Si Si1 0.728700 0.817847 0.130903
Si Si2 0.312365 0.639302 0.287274
Si Si3 0.016761 0.182358 0.412581
Si Si4 0.680527 0.290674 0.127977
Si Si5 0.260549 0.986428 0.866514
Si Si6 0.877898 0.610315 0.433396
O O1 0.500000 0.824145 0.250000
O O2 0.796506 0.723412 0.132388
O O3 0.818891 0.913364 0.116709
O O4 0.787547 0.818203 0.034185
O O5 0.500000 0.598098 0.250000
O O6 0.432412 0.684208 0.180268
O O7 0.114537 0.581972 0.349224
O O8 0.136302 0.259148 0.401934
O O9 0.129201 0.089766 0.387495
O O10 0.500000 0.316850 0.250000
O O11 0.617158 0.200746 0.113347
O O12 0.756178 0.363103 0.045934
O O13 0.500000 0.977468 0.750000
O O14 0.269070 0.965638 0.936623
#
# Coordination Sequence:
#
# PCOD9257527 Si02
#       6
#     8   8   8   8   8   8
#     4  10  23  37  54  90 122 153 198 249 294 353
#     4  11  22  36  58  89 120 158 201 241 294 357
#     4  11  19  36  59  85 118 158 199 243 301 356
#     4  10  18  31  57  88 117 150 202 255 288 340
#     4  10  19  36  64  88 114 155 199 252 301 348
#     4  10  18  34  58  88 119 153 203 247 295 353
#
# _framework density 23.194165000000002
#
# number of rings (size 3 to 8) (size 9 to 14) (size 15 to 20)
#    0.000    1.667    5.000    1.500    0.000    2.667 
#    0.000    0.000    0.000    4.000    0.000    0.000 
#    0.000    0.000    0.000    0.000    0.000    0.000 
#
# Total GULP energy -133881.721232 kJ/mol
# GULP energy per Si atom -5578.405051 kJ/mol
# Density = 2.314137 g / cm^3
# Si number density = 23.194165 Si / 1000 Ang^3
#
#
#
# Elastic Constant Matrix: (Units=GPa)
#
#
# Indices 1 2 3 4 5 6 
#
# 1 73.4133 -11.3547 17.3585 -0.0005 -4.8367 -0.0003
# 2 -11.3547 29.9457 -15.9720 -0.0026 -3.6505 -0.0002
# 3 17.3585 -15.9720 186.4048 -0.0045 0.4737 -0.0018
# 4 -0.0005 -0.0026 -0.0045 9.7783 0.0005 -8.3424
# 5 -4.8367 -3.6505 0.4737 0.0005 40.9599 0.0002
# 6 -0.0003 -0.0002 -0.0018 -8.3424 0.0002 -6.8192
#
#
#
# Elastic Compliance Matrix: (Units=1/GPa)
#
#
# Indices 1 2 3 4 5 6 
#
# 1 0.014823 0.005401 -0.000923 0.000001 0.002242 -0.000001
# 2 0.005401 0.037355 0.002688 0.000005 0.003936 -0.000008
# 3 -0.000923 0.002688 0.005681 0.000001 0.000065 -0.000003
# 4 0.000001 0.000005 0.000001 0.050039 0.000000 -0.061217
# 5 0.002242 0.003936 0.000065 0.000000 0.025029 0.000000
# 6 -0.000001 -0.000008 -0.000003 -0.061217 0.000000 -0.071753
#
#
# Mechanical properties :
#
#
# Convention : Reuss Voigt Hill
#
# Bulk Modulus (GPa) = 13.85213 29.98081 21.91647
# Shear Modulus (GPa) = 70.51601 28.76593 49.64097
#
# Velocity S-wave (km/s) = 5.51983 3.52550 4.63129
# Velocity P-wave (km/s) = 6.82714 5.43381 6.16993
#
# Compressibility (1/GPa) = 0.07219108
#
# Stress axis : x y z
#
# Youngs Moduli (GPa) = 67.46283 26.76997 176.03218
#
# Poissons Ratio (x) = -0.14460 0.16252
# Poissons Ratio (y) = -0.36440 -0.47313
# Poissons Ratio (z) = 0.06228 -0.07195
#
# Static dielectric constant tensor:
#      x y z
#    x 1.906370 0.000000 -0.010810 
#    y 0.000000 1.937770 0.000000 
#    z -0.010810 0.000000 1.900630 
# 
# From -- ./inp_files/239461.got.cif
#   From: 2010.05.17/outbox.cif.g08.bks.cpg/sg15_120_cif.got.tgz:239461.got - 2010.06.03 18:47:42.
