data_PCOD9257678
_publ_section_title
;
Structure prediction by ZEFSAII (Michael W. Deem and Ramdas Pophale) SiO2 
 PCOD9257678
Probable space group: C 2/C
;
_chemical_formula_sum "Si O2"
_cell_formula_units_Z 64
_cell_length_a 7.836618
_cell_length_b 25.799397
_cell_length_c 14.016300
_cell_angle_alpha 90.000000
_cell_angle_beta 103.046961
_cell_angle_gamma 90.000000
_cell_volume 2760.661871
_symmetry_space_group_name_H-M "C 2/C"
_symmetry_group_IT_number 15
_symmetry_cell_setting 'monoclinic'
loop_
_space_group_symop_operation_xyz
x,y,z
-x,y,1/2-z
-x,-y,-z
x,-y,1/2+z
1/2+x,1/2+y,z
1/2-x,1/2+y,1/2-z
1/2-x,1/2-y,-z
1/2+x,1/2-y,1/2+z
loop_
_atom_site_type_symbol
_atom_site_label
_atom_site_fract_x
_atom_site_fract_y
_atom_site_fract_z
Si Si1 0.450262 0.388555 0.352069
Si Si2 0.156852 0.023076 0.380060
Si Si3 0.749487 0.801970 0.408441
Si Si4 0.807714 0.999250 0.397387
Si Si5 0.551636 0.252941 0.567211
Si Si6 0.253811 0.837758 0.515638
Si Si7 0.544918 0.041211 0.658736
Si Si8 0.095498 0.388300 0.530254
O O1 0.500000 0.398609 0.250000
O O2 0.319804 0.339612 0.336432
O O3 0.357945 0.439172 0.383046
O O4 0.612346 0.372509 0.441183
O O5 0.172631 0.995484 0.486539
O O6 0.264167 0.076080 0.398998
O O7 0.264093 0.983536 0.326975
O O8 0.947451 0.030814 0.351905
O O9 0.579308 0.767409 0.368600
O O10 0.692985 0.841585 0.486973
O O11 0.911733 0.767281 0.465169
O O12 0.601384 0.004323 0.354881
O O13 0.677629 0.206459 0.549956
O O14 0.661324 0.305582 0.588350
O O15 0.429575 0.867230 0.567384
O O16 0.500000 0.071500 0.750000
O O17 0.495931 0.075699 0.562284
#
# Coordination Sequence:
#
# PCOD9257678 Si02
#       8
#     8   8   8   8   8   8   8   8
#     4  11  21  31  49  82 115 147 176 220 290 352
#     4  10  21  37  52  76 109 151 199 237 271 332
#     4   9  16  31  50  73 110 135 174 216 270 333
#     4  10  21  36  54  74 116 153 188 230 286 334
#     4   8  16  31  49  75 104 132 168 217 263 328
#     4   9  18  30  52  78 108 134 175 222 274 338
#     4  11  23  35  53  80 114 155 188 232 295 344
#     4  10  18  32  51  78 106 139 185 236 278 326
#
# _framework density 23.182848
#
# number of rings (size 3 to 8) (size 9 to 14) (size 15 to 20)
#    0.000    2.250    2.500    2.250    3.500    1.000 
#    0.000    1.875    0.000    0.000    0.000   33.250 
#    0.000    0.000    0.000    0.000    0.000    0.000 
#
# Total GULP energy -178590.251245 kJ/mol
# GULP energy per Si atom -5580.945351 kJ/mol
# Density = 2.313008 g / cm^3
# Si number density = 23.182848 Si / 1000 Ang^3
#
#
#
# Elastic Constant Matrix: (Units=GPa)
#
#
# Indices 1 2 3 4 5 6 
#
# 1 156.7282 50.1502 16.3227 0.0000 -3.4059 0.0000
# 2 50.1502 92.5030 17.8856 0.0000 1.5928 0.0000
# 3 16.3227 17.8856 28.4987 0.0000 -5.9897 0.0000
# 4 0.0000 0.0000 0.0000 6.2192 0.0000 -2.7049
# 5 -3.4059 1.5928 -5.9897 0.0000 31.8399 0.0000
# 6 0.0000 0.0000 0.0000 -2.7049 0.0000 66.6225
#
#
#
# Elastic Compliance Matrix: (Units=1/GPa)
#
#
# Indices 1 2 3 4 5 6 
#
# 1 0.007839 -0.003893 -0.001905 0.000000 0.000675 0.000000
# 2 -0.003893 0.014381 -0.007323 0.000000 -0.002514 0.000000
# 3 -0.001905 -0.007323 0.042490 0.000000 0.008156 0.000000
# 4 0.000000 0.000000 0.000000 0.163684 0.000000 0.006646
# 5 0.000675 -0.002514 0.008156 0.000000 0.033139 0.000000
# 6 0.000000 0.000000 0.000000 0.006646 0.000000 0.015280
#
#
# Mechanical properties :
#
#
# Convention : Reuss Voigt Hill
#
# Bulk Modulus (GPa) = 25.99605 49.60521 37.80063
# Shear Modulus (GPa) = 15.82887 33.82774 24.82830
#
# Velocity S-wave (km/s) = 2.61585 3.82405 3.27613
# Velocity P-wave (km/s) = 4.51236 6.39857 5.53638
#
# Compressibility (1/GPa) = 0.03846738
#
# Stress axis : x y z
#
# Youngs Moduli (GPa) = 127.56188 69.53838 23.53468
#
# Poissons Ratio (x) = 0.27074 0.04483
# Poissons Ratio (y) = 0.49665 0.17235
# Poissons Ratio (z) = 0.24296 0.50926
#
# Static dielectric constant tensor:
#      x y z
#    x 1.972820 0.000000 0.032230 
#    y 0.000000 1.895100 0.000000 
#    z 0.032230 0.000000 1.894730 
# 
# From -- ./inp_files/138625.got.cif
#   From: 2010.05.17/outbox.cif.g08.bks.cpg/sg15_70_cif.got.tgz:138625.got - 2010.06.03 18:47:42.
