data_PCOD9257440
_publ_section_title
;
Structure prediction by ZEFSAII (Michael W. Deem and Ramdas Pophale) SiO2 
 PCOD9257440
Probable space group: C 2/C
;
_chemical_formula_sum "Si O2"
_cell_formula_units_Z 64
_cell_length_a 15.074375
_cell_length_b 24.928705
_cell_length_c 9.066281
_cell_angle_alpha 90.000000
_cell_angle_beta 121.428577
_cell_angle_gamma 90.000000
_cell_volume 2907.135587
_symmetry_space_group_name_H-M "C 2/C"
_symmetry_group_IT_number 15
_symmetry_cell_setting 'monoclinic'
loop_
_space_group_symop_operation_xyz
x,y,z
-x,y,1/2-z
-x,-y,-z
x,-y,1/2+z
1/2+x,1/2+y,z
1/2-x,1/2+y,1/2-z
1/2-x,1/2-y,-z
1/2+x,1/2-y,1/2+z
loop_
_atom_site_type_symbol
_atom_site_label
_atom_site_fract_x
_atom_site_fract_y
_atom_site_fract_z
Si Si1 0.357507 0.924724 0.328482
Si Si2 0.783733 0.492862 0.518285
Si Si3 0.318356 0.765489 0.921444
Si Si4 0.354890 0.676028 0.409519
Si Si5 0.777374 0.826952 0.171576
Si Si6 0.277505 0.427364 0.762219
Si Si7 0.946537 0.724959 0.063618
Si Si8 0.566531 0.137610 0.009177
O O1 0.363990 0.961338 0.481675
O O2 0.267615 0.880833 0.289083
O O3 0.330037 0.963162 0.169284
O O4 0.464958 0.896017 0.381371
O O5 0.730195 0.450647 0.580185
O O6 0.709157 0.524769 0.341593
O O7 0.253013 0.800826 0.748188
O O8 0.335201 0.711216 0.840805
O O9 0.397441 0.810606 0.054581
O O10 0.250000 0.750000 0.000000
O O11 0.339710 0.666606 0.572198
O O12 0.363172 0.619215 0.336160
O O13 0.434325 0.724187 0.444278
O O14 0.670323 0.796843 0.029496
O O15 0.163193 0.401440 0.626206
O O16 0.000000 0.750363 0.250000
O O17 0.020365 0.674159 0.101230
#
# Coordination Sequence:
#
# PCOD9257440 Si02
#       8
#     8   8   8   8   8   8   8   8
#     4  10  22  36  57  81 114 155 194 232 274 326
#     4  10  22  38  54  80 111 154 201 231 271 319
#     4  10  21  36  55  79 107 150 190 230 278 340
#     4  10  19  36  54  79 108 148 187 234 272 334
#     4  10  19  35  55  78 109 150 191 228 273 334
#     4  10  21  37  55  78 112 148 193 233 274 324
#     4  10  18  31  54  80 108 143 185 223 278 340
#     4  10  22  34  53  81 118 151 178 228 283 337
#
# _framework density 22.014797999999999
#
# number of rings (size 3 to 8) (size 9 to 14) (size 15 to 20)
#    0.000    2.000    1.250    3.750    5.250    3.500 
#    4.500    0.000    0.000    0.000    0.000    0.875 
#    0.000    0.000    0.000    0.125    0.000    0.000 
#
# Total GULP energy -178144.219619 kJ/mol
# GULP energy per Si atom -5567.006863 kJ/mol
# Density = 2.196469 g / cm^3
# Si number density = 22.014798 Si / 1000 Ang^3
#
#
#
# Elastic Constant Matrix: (Units=GPa)
#
#
# Indices 1 2 3 4 5 6 
#
# 1 28.0449 15.7260 17.0727 0.0000 -9.5239 0.0000
# 2 15.7260 118.1765 29.5736 0.0000 -3.9948 0.0000
# 3 17.0727 29.5736 54.8053 0.0000 -16.0382 0.0000
# 4 0.0000 0.0000 0.0000 231.4149 0.0000 -111.1976
# 5 -9.5239 -3.9948 -16.0382 0.0000 30.4617 0.0000
# 6 0.0000 0.0000 0.0000 -111.1976 0.0000 87.4252
#
#
#
# Elastic Compliance Matrix: (Units=1/GPa)
#
#
# Indices 1 2 3 4 5 6 
#
# 1 0.046728 -0.003380 -0.010151 0.000000 0.008822 0.000000
# 2 -0.003380 0.010109 -0.005111 0.000000 -0.002422 0.000000
# 3 -0.010151 -0.005111 0.027238 0.000000 0.010497 0.000000
# 4 0.000000 0.000000 0.000000 0.011113 0.000000 0.014135
# 5 0.008822 -0.002422 0.010497 0.000000 0.040795 0.000000
# 6 0.000000 0.000000 0.000000 0.014135 0.000000 0.029417
#
#
# Mechanical properties :
#
#
# Convention : Reuss Voigt Hill
#
# Bulk Modulus (GPa) = 21.37126 36.19679 28.78403
# Shear Modulus (GPa) = 22.90623 79.10397 51.00510
#
# Velocity S-wave (km/s) = 3.22917 6.00085 4.81859
# Velocity P-wave (km/s) = 4.86129 8.03065 6.63790
#
# Compressibility (1/GPa) = 0.04679181
#
# Stress axis : x y z
#
# Youngs Moduli (GPa) = 21.40058 98.92431 36.71300
#
# Poissons Ratio (x) = 0.33433 0.37268
# Poissons Ratio (y) = 0.07233 0.18763
# Poissons Ratio (z) = 0.21724 0.50557
#
# Static dielectric constant tensor:
#      x y z
#    x 2.049350 0.000000 0.039010 
#    y 0.000000 1.886330 0.000000 
#    z 0.039010 0.000000 1.850260 
# 
# From -- ./inp_files/58489.got.cif
#   From: 2010.05.17/outbox.cif.g08.bks.cpg/sg15_30_cif.got.tgz:58489.got - 2010.06.03 18:47:42.
