data_PCOD9257628
_publ_section_title
;
Structure prediction by ZEFSAII (Michael W. Deem and Ramdas Pophale) SiO2 
 PCOD9257628
Probable space group: C 2/C
;
_chemical_formula_sum "Si O2"
_cell_formula_units_Z 60
_cell_length_a 23.238896
_cell_length_b 20.418133
_cell_length_c 5.127857
_cell_angle_alpha 90.000000
_cell_angle_beta 103.540395
_cell_angle_gamma 90.000000
_cell_volume 2365.512888
_symmetry_space_group_name_H-M "C 2/C"
_symmetry_group_IT_number 15
_symmetry_cell_setting 'monoclinic'
loop_
_space_group_symop_operation_xyz
x,y,z
-x,y,1/2-z
-x,-y,-z
x,-y,1/2+z
1/2+x,1/2+y,z
1/2-x,1/2+y,1/2-z
1/2-x,1/2-y,-z
1/2+x,1/2-y,1/2+z
loop_
_atom_site_type_symbol
_atom_site_label
_atom_site_fract_x
_atom_site_fract_y
_atom_site_fract_z
Si Si1 0.933139 0.454748 0.694150
Si Si2 0.099369 0.878826 0.507303
Si Si3 0.678557 0.545915 0.761672
Si Si4 0.819610 0.725241 0.243481
Si Si5 0.943080 0.244144 0.811951
Si Si6 0.309644 0.046334 0.910683
Si Si7 0.792947 0.188229 0.207766
Si Si8 0.500000 0.362222 0.750000
O O1 0.930775 0.515058 0.482406
O O2 0.872150 0.417269 0.542070
O O3 0.000000 0.426006 0.750000
O O4 0.120575 0.910774 0.260506
O O5 0.080821 0.803747 0.438978
O O6 0.161816 0.870851 0.717516
O O7 0.043780 0.904081 0.611544
O O8 0.675366 0.494760 0.996165
O O9 0.744063 0.578798 0.845182
O O10 0.889001 0.712403 0.346639
O O11 0.804050 0.781927 0.437074
O O12 0.774640 0.670255 0.297350
O O13 0.806303 0.755548 0.943432
O O14 0.000000 0.278051 0.750000
O O15 0.961629 0.189282 0.040560
O O16 0.310560 0.989829 0.133215
#
# Coordination Sequence:
#
# PCOD9257628 Si02
#       8
#     8   8   8   8   8   8   8   4
#     4   8  12  18  32  53  76  99 119 152 205 267
#     4  10  20  33  51  70  96 129 166 209 258 298
#     4  10  22  35  50  67  89 125 170 220 262 301
#     4   9  16  29  45  75 100 124 154 187 232 287
#     4   9  18  30  49  73 101 134 162 199 242 298
#     4   8  14  26  39  56  80 105 138 183 234 280
#     4   9  17  28  49  70  99 124 150 195 239 289
#     4  10  18  32  50  70  96 128 164 204 252 300
#
# _framework density 25.36448
#
# number of rings (size 3 to 8) (size 9 to 14) (size 15 to 20)
#    0.000    2.933    1.333    0.000    1.867    0.000 
#    0.000    0.667    0.000    0.000    0.000    0.933 
#    0.000    0.000    8.933    3.200    0.000    0.000 
#
# Total GULP energy -167231.802517 kJ/mol
# GULP energy per Si atom -5574.393417 kJ/mol
# Density = 2.530675 g / cm^3
# Si number density = 25.364480 Si / 1000 Ang^3
#
#
#
# Elastic Constant Matrix: (Units=GPa)
#
#
# Indices 1 2 3 4 5 6 
#
# 1 220.0961 18.1870 22.4828 0.0000 3.5040 0.0000
# 2 18.1870 42.9760 16.7409 0.0000 0.1661 0.0000
# 3 22.4828 16.7409 103.3156 0.0000 -18.1059 0.0000
# 4 0.0000 0.0000 0.0000 19.2664 0.0000 2.9913
# 5 3.5040 0.1661 -18.1059 0.0000 36.8237 0.0000
# 6 0.0000 0.0000 0.0000 2.9913 0.0000 8.9894
#
#
#
# Elastic Compliance Matrix: (Units=1/GPa)
#
#
# Indices 1 2 3 4 5 6 
#
# 1 0.004790 -0.001661 -0.000932 0.000000 -0.000907 0.000000
# 2 -0.001661 0.025590 -0.004134 0.000000 -0.001990 0.000000
# 3 -0.000932 -0.004134 0.011567 0.000000 0.005795 0.000000
# 4 0.000000 0.000000 0.000000 0.054731 0.000000 -0.018212
# 5 -0.000907 -0.001990 0.005795 0.000000 0.030101 0.000000
# 6 0.000000 0.000000 0.000000 -0.018212 0.000000 0.117302
#
#
# Mechanical properties :
#
#
# Convention : Reuss Voigt Hill
#
# Bulk Modulus (GPa) = 35.09520 53.46767 44.28144
# Shear Modulus (GPa) = 18.72425 33.61437 26.16931
#
# Velocity S-wave (km/s) = 2.71995 3.64435 3.21554
# Velocity P-wave (km/s) = 4.87140 6.23169 5.59305
#
# Compressibility (1/GPa) = 0.02849392
#
# Stress axis : x y z
#
# Youngs Moduli (GPa) = 208.75286 39.07848 86.45031
#
# Poissons Ratio (x) = 0.06489 0.08060
# Poissons Ratio (y) = 0.34665 0.35737
# Poissons Ratio (z) = 0.19462 0.16154
#
# Static dielectric constant tensor:
#      x y z
#    x 2.257720 0.000000 0.091660 
#    y 0.000000 1.971300 0.000000 
#    z 0.091660 0.000000 2.087530 
# 
# From -- ./inp_files/16172.got.cif
#   From: 2010.05.17/outbox.cif.g08.bks.cpg/sg15_9_cif.got.tgz:16172.got - 2010.06.03 18:47:42.
