data_PCOD9257863
_publ_section_title
;
Structure prediction by ZEFSAII (Michael W. Deem and Ramdas Pophale) SiO2 
 PCOD9257863
Probable space group: C 2/C
;
_chemical_formula_sum "Si O2"
_cell_formula_units_Z 44
_cell_length_a 5.711481
_cell_length_b 14.576649
_cell_length_c 21.548231
_cell_angle_alpha 90.000000
_cell_angle_beta 100.205883
_cell_angle_gamma 90.000000
_cell_volume 1765.596471
_symmetry_space_group_name_H-M "C 2/C"
_symmetry_group_IT_number 15
_symmetry_cell_setting 'monoclinic'
loop_
_space_group_symop_operation_xyz
x,y,z
-x,y,1/2-z
-x,-y,-z
x,-y,1/2+z
1/2+x,1/2+y,z
1/2-x,1/2+y,1/2-z
1/2-x,1/2-y,-z
1/2+x,1/2-y,1/2+z
loop_
_atom_site_type_symbol
_atom_site_label
_atom_site_fract_x
_atom_site_fract_y
_atom_site_fract_z
Si Si1 0.283048 0.574795 0.533982
Si Si2 0.500000 0.459270 0.250000
Si Si3 0.683148 0.583964 0.360968
Si Si4 0.186187 0.422148 0.884823
Si Si5 0.837730 0.620572 0.681969
Si Si6 0.797794 0.674821 0.554212
O O1 0.291783 0.487035 0.579600
O O2 0.247055 0.558022 0.459236
O O3 0.538875 0.625316 0.549144
O O4 0.043146 0.627445 0.542862
O O5 0.667950 0.529160 0.295103
O O6 0.419061 0.391489 0.300177
O O7 0.416800 0.620507 0.362124
O O8 0.938634 0.633467 0.371786
O O9 0.135359 0.520103 0.849129
O O10 0.859612 0.693861 0.629163
O O11 0.000000 0.632239 0.750000
O O12 0.750000 0.750000 0.500000
#
# Coordination Sequence:
#
# PCOD9257863 Si02
#       6
#     8   4   8   8   8   8
#     4  12  21  40  58  88 125 159 191 254 309 356
#     4  10  18  32  54  84 126 146 196 242 306 362
#     4  11  19  32  54  92 120 150 184 240 308 377
#     4  11  21  32  61  89 125 149 186 240 323 374
#     4  11  21  38  61  93 119 153 203 258 316 363
#     4  12  26  41  62  88 124 167 221 253 293 355
#
# _framework density 24.920756000000001
#
# number of rings (size 3 to 8) (size 9 to 14) (size 15 to 20)
#    0.000    0.727    7.273    2.727    0.000    0.000 
#    0.000    0.000    0.000    2.182    0.000    0.000 
#    0.000    0.000    0.000    0.000    0.000    0.000 
#
# Total GULP energy -122718.184390 kJ/mol
# GULP energy per Si atom -5578.099290 kJ/mol
# Density = 2.486404 g / cm^3
# Si number density = 24.920756 Si / 1000 Ang^3
#
#
#
# Elastic Constant Matrix: (Units=GPa)
#
#
# Indices 1 2 3 4 5 6 
#
# 1 228.4896 46.3845 53.7755 0.0000 1.4512 0.0000
# 2 46.3845 37.0179 33.4637 0.0000 0.6247 0.0000
# 3 53.7755 33.4637 176.7280 0.0000 -4.5168 0.0000
# 4 0.0000 0.0000 0.0000 17.1792 0.0000 0.9742
# 5 1.4512 0.6247 -4.5168 0.0000 51.1108 0.0000
# 6 0.0000 0.0000 0.0000 0.9742 0.0000 27.2496
#
#
#
# Elastic Compliance Matrix: (Units=1/GPa)
#
#
# Indices 1 2 3 4 5 6 
#
# 1 0.005904 -0.006960 -0.000482 0.000000 -0.000125 0.000000
# 2 -0.006960 0.040844 -0.005636 0.000000 -0.000800 0.000000
# 3 -0.000482 -0.005636 0.006890 0.000000 0.000691 0.000000
# 4 0.000000 0.000000 0.000000 0.058328 0.000000 -0.002085
# 5 -0.000125 -0.000800 0.000691 0.000000 0.019640 0.000000
# 6 0.000000 0.000000 0.000000 -0.002085 0.000000 0.036772
#
#
# Mechanical properties :
#
#
# Convention : Reuss Voigt Hill
#
# Bulk Modulus (GPa) = 36.38856 78.83144 57.61000
# Shear Modulus (GPa) = 24.54660 39.68203 32.11432
#
# Velocity S-wave (km/s) = 3.14185 3.99473 3.59368
# Velocity P-wave (km/s) = 5.27210 7.27864 6.35507
#
# Compressibility (1/GPa) = 0.02748117
#
# Stress axis : x y z
#
# Youngs Moduli (GPa) = 169.38771 24.48358 145.13910
#
# Poissons Ratio (x) = 0.17040 0.06992
# Poissons Ratio (y) = 1.17891 0.81808
# Poissons Ratio (z) = 0.08160 0.13800
#
# Static dielectric constant tensor:
#      x y z
#    x 2.079510 0.000000 -0.028300 
#    y 0.000000 2.066890 0.000000 
#    z -0.028300 0.000000 1.901400 
# 
# From -- ./inp_files/227014.got.cif
#   From: 2010.05.17/outbox.cif.g08.bks.cpg/sg15_114_cif.got.tgz:227014.got - 2010.06.03 18:47:42.
