data_PCOD9257552
_publ_section_title
;
Structure prediction by ZEFSAII (Michael W. Deem and Ramdas Pophale) SiO2 
 PCOD9257552
Probable space group: C 2/C
;
_chemical_formula_sum "Si O2"
_cell_formula_units_Z 60
_cell_length_a 30.595921
_cell_length_b 18.794509
_cell_length_c 8.733581
_cell_angle_alpha 90.000000
_cell_angle_beta 140.017432
_cell_angle_gamma 90.000000
_cell_volume 3226.984258
_symmetry_space_group_name_H-M "C 2/C"
_symmetry_group_IT_number 15
_symmetry_cell_setting 'monoclinic'
loop_
_space_group_symop_operation_xyz
x,y,z
-x,y,1/2-z
-x,-y,-z
x,-y,1/2+z
1/2+x,1/2+y,z
1/2-x,1/2+y,1/2-z
1/2-x,1/2-y,-z
1/2+x,1/2-y,1/2+z
loop_
_atom_site_type_symbol
_atom_site_label
_atom_site_fract_x
_atom_site_fract_y
_atom_site_fract_z
Si Si1 0.657693 0.822329 0.243166
Si Si2 0.000000 0.539107 0.250000
Si Si3 0.236821 0.222660 0.228642
Si Si4 0.471466 0.159487 0.925978
Si Si5 0.678378 0.672514 0.756920
Si Si6 0.294173 0.084290 0.079322
Si Si7 0.095311 0.298926 0.569933
Si Si8 0.354329 0.977205 0.443919
O O1 0.713468 0.821537 0.528224
O O2 0.683579 0.765355 0.189830
O O3 0.583576 0.803066 0.111124
O O4 0.654706 0.901075 0.164157
O O5 0.013804 0.587776 0.438009
O O6 0.068987 0.498888 0.391814
O O7 0.284167 0.279534 0.269833
O O8 0.201157 0.181406 0.995260
O O9 0.434312 0.162818 0.660971
O O10 0.544655 0.191087 0.076773
O O11 0.606740 0.714888 0.567002
O O12 0.715686 0.597401 0.822040
O O13 0.334190 0.159663 0.204906
O O14 0.302610 0.037452 0.252151
O O15 0.338387 0.040606 0.075457
#
# Coordination Sequence:
#
# PCOD9257552 Si02
#       8
#     8   4   8   8   8   8   8   8
#     4  10  19  36  50  81 104 143 174 224 266 324
#     4  10  22  38  48  74 114 148 190 216 252 308
#     4  10  18  31  59  72 104 135 179 219 283 318
#     4  10  21  32  56  77 110 138 182 217 271 327
#     4  11  19  35  54  75 100 137 183 230 277 315
#     4  12  23  37  51  73 105 145 190 225 259 316
#     4  11  20  37  54  76 104 146 179 226 278 317
#     4  11  25  35  51  71 111 149 189 220 259 308
#
# _framework density 18.593211
#
# number of rings (size 3 to 8) (size 9 to 14) (size 15 to 20)
#    0.000    1.333    6.667    0.000    7.467    1.600 
#    0.000    0.000    0.000    0.000    0.000    0.000 
#    0.000   17.067    0.000    0.133    0.000    0.000 
#
# Total GULP energy -167041.039408 kJ/mol
# GULP energy per Si atom -5568.034647 kJ/mol
# Density = 1.855089 g / cm^3
# Si number density = 18.593211 Si / 1000 Ang^3
#
#
#
# Elastic Constant Matrix: (Units=GPa)
#
#
# Indices 1 2 3 4 5 6 
#
# 1 104.5624 19.9937 5.6210 0.0000 5.0319 0.0000
# 2 19.9937 32.1588 13.5558 0.0000 14.3151 0.0000
# 3 5.6210 13.5558 52.1195 0.0000 -6.7691 0.0000
# 4 0.0000 0.0000 0.0000 26.0667 0.0000 1.7134
# 5 5.0319 14.3151 -6.7691 0.0000 27.1888 0.0000
# 6 0.0000 0.0000 0.0000 1.7134 0.0000 7.6807
#
#
#
# Elastic Compliance Matrix: (Units=1/GPa)
#
#
# Indices 1 2 3 4 5 6 
#
# 1 0.011024 -0.008797 0.001484 0.000000 0.002961 0.000000
# 2 -0.008797 0.060182 -0.019230 0.000000 -0.034846 0.000000
# 3 0.001484 -0.019230 0.026153 0.000000 0.016361 0.000000
# 4 0.000000 0.000000 0.000000 0.038934 0.000000 -0.008686
# 5 0.002961 -0.034846 0.016361 0.000000 0.058652 0.000000
# 6 0.000000 0.000000 0.000000 -0.008686 0.000000 0.132134
#
#
# Mechanical properties :
#
#
# Convention : Reuss Voigt Hill
#
# Bulk Modulus (GPa) = 22.58731 29.68687 26.13709
# Shear Modulus (GPa) = 12.66073 22.16526 17.41299
#
# Velocity S-wave (km/s) = 2.61230 3.45645 3.06359
# Velocity P-wave (km/s) = 4.61230 5.65071 5.15771
#
# Compressibility (1/GPa) = 0.04427265
#
# Stress axis : x y z
#
# Youngs Moduli (GPa) = 90.71516 16.61624 38.23637
#
# Poissons Ratio (x) = 0.14617 -0.05673
# Poissons Ratio (y) = 0.79802 0.73528
# Poissons Ratio (z) = -0.13459 0.31953
#
# Static dielectric constant tensor:
#      x y z
#    x 1.693860 0.000000 0.012720 
#    y 0.000000 1.667020 0.000000 
#    z 0.012720 0.000000 1.727140 
# 
# From -- ./inp_files/70774.got.cif
#   From: 2010.05.17/outbox.cif.g08.bks.cpg/sg15_36_cif.got.tgz:70774.got - 2010.06.03 18:47:42.
