data_PCOD9257371
_publ_section_title
;
Structure prediction by ZEFSAII (Michael W. Deem and Ramdas Pophale) SiO2 
 PCOD9257371
Probable space group: C 2/C
;
_chemical_formula_sum "Si O2"
_cell_formula_units_Z 56
_cell_length_a 26.841029
_cell_length_b 13.037344
_cell_length_c 14.493917
_cell_angle_alpha 90.000000
_cell_angle_beta 141.405161
_cell_angle_gamma 90.000000
_cell_volume 3163.922449
_symmetry_space_group_name_H-M "C 2/C"
_symmetry_group_IT_number 15
_symmetry_cell_setting 'monoclinic'
loop_
_space_group_symop_operation_xyz
x,y,z
-x,y,1/2-z
-x,-y,-z
x,-y,1/2+z
1/2+x,1/2+y,z
1/2-x,1/2+y,1/2-z
1/2-x,1/2-y,-z
1/2+x,1/2-y,1/2+z
loop_
_atom_site_type_symbol
_atom_site_label
_atom_site_fract_x
_atom_site_fract_y
_atom_site_fract_z
Si Si1 0.586026 0.516007 0.734524
Si Si2 0.857983 0.151234 0.857894
Si Si3 0.212802 0.019817 0.582151
Si Si4 0.807109 0.286360 0.163253
Si Si5 0.221232 0.810677 0.680241
Si Si6 0.964102 0.810545 0.108008
Si Si7 0.027115 0.210587 0.090207
O O1 0.621074 0.583174 0.701067
O O2 0.511222 0.580859 0.666479
O O3 0.555092 0.407226 0.650527
O O4 0.654473 0.501852 0.910869
O O5 0.839621 0.077032 0.916281
O O6 0.781241 0.223284 0.732012
O O7 0.937137 0.217288 0.995878
O O8 0.281118 0.099737 0.652629
O O9 0.249898 0.920524 0.685482
O O10 0.789847 0.212152 0.226572
O O11 0.899119 0.276665 0.266793
O O12 0.750000 0.250000 0.000000
O O13 0.130233 0.812140 0.512808
O O14 0.000000 0.757204 0.250000
O O15 0.976733 0.765075 0.024679
#
# Coordination Sequence:
#
# PCOD9257371 Si02
#       7
#     8   8   8   8   8   8   8
#     4  11  20  32  59  84 114 139 185 237 292 334
#     4  10  22  36  53  86 111 149 185 234 282 341
#     4  11  21  35  58  84 113 151 182 236 293 327
#     4  10  20  37  57  83 112 155 186 234 292 332
#     4  10  21  36  53  81 120 141 190 232 279 349
#     4  10  18  31  52  79 108 147 173 224 288 327
#     4  10  20  35  54  82 115 139 191 235 273 343
#
# _framework density 17.699549000000001
#
# number of rings (size 3 to 8) (size 9 to 14) (size 15 to 20)
#    0.000    1.714    2.857    4.286    0.000    0.571 
#    0.000    0.714    0.000    0.000    0.000    0.000 
#    0.000    0.000    0.000    0.000    0.000    0.000 
#
# Total GULP energy -156021.169963 kJ/mol
# GULP energy per Si atom -5572.184642 kJ/mol
# Density = 1.765926 g / cm^3
# Si number density = 17.699549 Si / 1000 Ang^3
#
#
#
# Elastic Constant Matrix: (Units=GPa)
#
#
# Indices 1 2 3 4 5 6 
#
# 1 67.7762 23.2549 37.9732 0.0000 13.7506 0.0000
# 2 23.2549 51.4385 38.8264 0.0000 8.8962 0.0000
# 3 37.9732 38.8264 108.3121 0.0000 -0.1725 0.0000
# 4 0.0000 0.0000 0.0000 28.8026 0.0000 6.9617
# 5 13.7506 8.8962 -0.1725 0.0000 33.8129 0.0000
# 6 0.0000 0.0000 0.0000 6.9617 0.0000 15.7528
#
#
#
# Elastic Compliance Matrix: (Units=1/GPa)
#
#
# Indices 1 2 3 4 5 6 
#
# 1 0.020919 -0.003561 -0.006069 0.000000 -0.007601 0.000000
# 2 -0.003561 0.029058 -0.009178 0.000000 -0.006244 0.000000
# 3 -0.006069 -0.009178 0.014658 0.000000 0.004958 0.000000
# 4 0.000000 0.000000 0.000000 0.038871 0.000000 -0.017179
# 5 -0.007601 -0.006244 0.004958 0.000000 0.034334 0.000000
# 6 0.000000 0.000000 0.000000 -0.017179 0.000000 0.071073
#
#
# Mechanical properties :
#
#
# Convention : Reuss Voigt Hill
#
# Bulk Modulus (GPa) = 37.01208 47.51507 42.26358
# Shear Modulus (GPa) = 19.56666 24.17180 21.86923
#
# Velocity S-wave (km/s) = 3.32850 3.69951 3.51890
# Velocity P-wave (km/s) = 5.97734 6.71953 6.35927
#
# Compressibility (1/GPa) = 0.02701821
#
# Stress axis : x y z
#
# Youngs Moduli (GPa) = 47.80320 34.41384 68.22076
#
# Poissons Ratio (x) = 0.12256 0.41406
# Poissons Ratio (y) = 0.17025 0.62611
# Poissons Ratio (z) = 0.29014 0.31584
#
# Static dielectric constant tensor:
#      x y z
#    x 1.640650 0.000000 -0.002170 
#    y 0.000000 1.615670 0.000000 
#    z -0.002170 0.000000 1.622860 
# 
# From -- ./inp_files/178405.got.cif
#   From: 2010.05.17/outbox.cif.g08.bks.cpg/sg15_90_cif.got.tgz:178405.got - 2010.06.03 18:47:42.
