data_PCOD9257077
_publ_section_title
;
Structure prediction by ZEFSAII (Michael W. Deem and Ramdas Pophale) SiO2 
 PCOD9257077
Probable space group: C 2/C
;
_chemical_formula_sum "Si O2"
_cell_formula_units_Z 48
_cell_length_a 26.271637
_cell_length_b 11.374683
_cell_length_c 7.780434
_cell_angle_alpha 90.000000
_cell_angle_beta 91.669149
_cell_angle_gamma 90.000000
_cell_volume 2324.052556
_symmetry_space_group_name_H-M "C 2/C"
_symmetry_group_IT_number 15
_symmetry_cell_setting 'monoclinic'
loop_
_space_group_symop_operation_xyz
x,y,z
-x,y,1/2-z
-x,-y,-z
x,-y,1/2+z
1/2+x,1/2+y,z
1/2-x,1/2+y,1/2-z
1/2-x,1/2-y,-z
1/2+x,1/2-y,1/2+z
loop_
_atom_site_type_symbol
_atom_site_label
_atom_site_fract_x
_atom_site_fract_y
_atom_site_fract_z
Si Si1 0.702601 0.462364 0.015421
Si Si2 0.538738 0.573040 0.388037
Si Si3 0.835837 0.658318 0.258199
Si Si4 0.283007 0.314311 0.826014
Si Si5 0.896162 0.128138 0.802486
Si Si6 0.683980 0.098516 0.854383
O O1 0.702399 0.603457 0.013128
O O2 0.655830 0.421542 0.124155
O O3 0.756726 0.430277 0.103973
O O4 0.701995 0.394222 0.836967
O O5 0.500000 0.633040 0.250000
O O6 0.500000 0.500000 0.500000
O O7 0.569294 0.651837 0.525402
O O8 0.576320 0.475642 0.303682
O O9 0.778344 0.694840 0.194648
O O10 0.879206 0.751161 0.209982
O O11 0.835084 0.652016 0.467464
O O12 0.842177 0.524186 0.195439
O O13 0.312817 0.193265 0.798993
#
# Coordination Sequence:
#
# PCOD9257077 Si02
#       6
#     8   8   8   8   8   8
#     4  10  18  30  53  79 110 156 188 230 268 300
#     4   9  21  38  58  87 110 128 163 241 310 336
#     4  10  20  34  51  77 108 169 190 227 259 311
#     4  10  18  34  47  73 121 156 198 230 261 298
#     4  11  18  35  59  83 113 136 189 220 284 349
#     4  10  19  36  46  73 128 156 196 221 255 301
#
# _framework density 20.653576999999999
#
# number of rings (size 3 to 8) (size 9 to 14) (size 15 to 20)
#    0.000    2.000    3.333    2.000    0.000    0.000 
#    6.000    3.333    0.000    0.000    0.000   15.167 
#    0.000    0.000    0.000    0.000    0.000    0.000 
#
# Total GULP energy -133978.802082 kJ/mol
# GULP energy per Si atom -5582.450087 kJ/mol
# Density = 2.060657 g / cm^3
# Si number density = 20.653577 Si / 1000 Ang^3
#
#
#
# Elastic Constant Matrix: (Units=GPa)
#
#
# Indices 1 2 3 4 5 6 
#
# 1 68.6038 21.7281 15.2903 0.0000 -0.5625 0.0000
# 2 21.7281 118.7972 18.1275 0.0000 10.2405 0.0000
# 3 15.2903 18.1275 39.4111 0.0000 -8.6024 0.0000
# 4 0.0000 0.0000 0.0000 28.8150 0.0000 0.9074
# 5 -0.5625 10.2405 -8.6024 0.0000 36.4105 0.0000
# 6 0.0000 0.0000 0.0000 0.9074 0.0000 18.0433
#
#
#
# Elastic Compliance Matrix: (Units=1/GPa)
#
#
# Indices 1 2 3 4 5 6 
#
# 1 0.016476 -0.002135 -0.005508 0.000000 -0.000446 0.000000
# 2 -0.002135 0.009835 -0.004541 0.000000 -0.003872 0.000000
# 3 -0.005508 -0.004541 0.031483 0.000000 0.008630 0.000000
# 4 0.000000 0.000000 0.000000 0.034759 0.000000 -0.001748
# 5 -0.000446 -0.003872 0.008630 0.000000 0.030586 0.000000
# 6 0.000000 0.000000 0.000000 -0.001748 0.000000 0.055510
#
#
# Mechanical properties :
#
#
# Convention : Reuss Voigt Hill
#
# Bulk Modulus (GPa) = 29.91531 37.45597 33.68564
# Shear Modulus (GPa) = 23.34731 28.09817 25.72274
#
# Velocity S-wave (km/s) = 3.36583 3.69243 3.53290
# Velocity P-wave (km/s) = 5.44250 6.02938 5.74344
#
# Compressibility (1/GPa) = 0.03342770
#
# Stress axis : x y z
#
# Youngs Moduli (GPa) = 60.69264 101.68050 31.76351
#
# Poissons Ratio (x) = 0.21705 0.17495
# Poissons Ratio (y) = 0.12956 0.14422
# Poissons Ratio (z) = 0.33429 0.46168
#
# Static dielectric constant tensor:
#      x y z
#    x 1.721630 0.000000 0.046760 
#    y 0.000000 1.827920 0.000000 
#    z 0.046760 0.000000 1.871950 
# 
# From -- ./inp_files/60601.got.cif
#   From: 2010.05.17/outbox.cif.g08.bks.cpg/sg15_31_cif.got.tgz:60601.got - 2010.06.03 18:47:42.
