data_PCOD9257238
_publ_section_title
;
Structure prediction by ZEFSAII (Michael W. Deem and Ramdas Pophale) SiO2 
 PCOD9257238
Probable space group: C 2/C
;
_chemical_formula_sum "Si O2"
_cell_formula_units_Z 48
_cell_length_a 22.147998
_cell_length_b 6.951436
_cell_length_c 19.210828
_cell_angle_alpha 90.000000
_cell_angle_beta 139.445321
_cell_angle_gamma 90.000000
_cell_volume 1923.022233
_symmetry_space_group_name_H-M "C 2/C"
_symmetry_group_IT_number 15
_symmetry_cell_setting 'monoclinic'
loop_
_space_group_symop_operation_xyz
x,y,z
-x,y,1/2-z
-x,-y,-z
x,-y,1/2+z
1/2+x,1/2+y,z
1/2-x,1/2+y,1/2-z
1/2-x,1/2-y,-z
1/2+x,1/2-y,1/2+z
loop_
_atom_site_type_symbol
_atom_site_label
_atom_site_fract_x
_atom_site_fract_y
_atom_site_fract_z
Si Si1 0.779154 0.053720 0.940235
Si Si2 0.079898 0.564773 0.769851
Si Si3 0.589768 0.338808 0.359926
Si Si4 0.311916 0.735928 0.350698
Si Si5 0.370219 0.663763 0.892664
Si Si6 0.476464 0.120061 0.060814
O O1 0.680890 0.158710 0.859047
O O2 0.764289 0.870511 0.875050
O O3 0.856359 0.171643 0.964128
O O4 0.821529 0.969202 0.047855
O O5 0.102227 0.351789 0.823568
O O6 0.034329 0.539184 0.653996
O O7 0.000000 0.641533 0.750000
O O8 0.500000 0.441577 0.250000
O O9 0.557665 0.262081 0.407486
O O10 0.378008 0.564196 0.381351
O O11 0.231066 0.787095 0.227559
O O12 0.379280 0.906692 0.434577
O O13 0.451380 0.776979 0.926787
#
# Coordination Sequence:
#
# PCOD9257238 Si02
#       6
#     8   8   8   8   8   8
#     4   9  17  28  47  69 106 122 157 204 253 285
#     4   9  16  28  46  70 104 122 164 204 253 280
#     4   8  16  25  44  72  98 120 160 209 253 271
#     4   9  19  28  48  70 102 132 158 200 241 294
#     4  10  18  31  48  71 107 129 160 203 243 303
#     4   9  15  30  46  73  99 128 165 200 245 291
#
# _framework density 24.960709999999999
#
# number of rings (size 3 to 8) (size 9 to 14) (size 15 to 20)
#    1.000    2.333    1.667    1.000    0.000    0.000 
#    0.000    3.333    0.000    0.000    0.000    9.333 
#    0.000    0.000    0.000    0.000    0.000    0.000 
#
# Total GULP energy -133846.120218 kJ/mol
# GULP energy per Si atom -5576.921676 kJ/mol
# Density = 2.490390 g / cm^3
# Si number density = 24.960710 Si / 1000 Ang^3
#
#
#
# Elastic Constant Matrix: (Units=GPa)
#
#
# Indices 1 2 3 4 5 6 
#
# 1 90.0692 17.6989 10.3379 0.0000 7.8403 0.0000
# 2 17.6989 54.8025 -1.3968 0.0000 -5.4125 0.0001
# 3 10.3379 -1.3968 107.8631 0.0000 7.6481 0.0000
# 4 0.0000 0.0000 0.0000 4.8807 0.0000 -3.7522
# 5 7.8403 -5.4125 7.6481 0.0000 27.1346 0.0000
# 6 0.0000 0.0001 0.0000 -3.7522 0.0000 9.2434
#
#
#
# Elastic Compliance Matrix: (Units=1/GPa)
#
#
# Indices 1 2 3 4 5 6 
#
# 1 0.012457 -0.004464 -0.000952 0.000000 -0.004221 0.000000
# 2 -0.004464 0.020214 0.000319 0.000000 0.005232 0.000000
# 3 -0.000952 0.000319 0.009533 0.000000 -0.002348 0.000000
# 4 0.000000 0.000000 0.000000 0.297837 0.000000 0.120901
# 5 -0.004221 0.005232 -0.002348 0.000000 0.039779 0.000000
# 6 0.000000 0.000000 0.000000 0.120901 0.000000 0.157262
#
#
# Mechanical properties :
#
#
# Convention : Reuss Voigt Hill
#
# Bulk Modulus (GPa) = 31.24249 34.00163 32.62206
# Shear Modulus (GPa) = 8.96144 23.32472 16.14308
#
# Velocity S-wave (km/s) = 1.89684 3.06021 2.54587
# Velocity P-wave (km/s) = 4.16428 5.11254 4.66258
#
# Compressibility (1/GPa) = 0.03200770
#
# Stress axis : x y z
#
# Youngs Moduli (GPa) = 80.27907 49.47084 104.89970
#
# Poissons Ratio (x) = 0.22084 0.09990
# Poissons Ratio (y) = 0.35837 -0.03342
# Poissons Ratio (z) = 0.07646 -0.01576
#
# Static dielectric constant tensor:
#      x y z
#    x 1.979620 0.000000 0.027970 
#    y 0.000000 2.051210 0.000000 
#    z 0.027970 0.000000 2.011020 
# 
# From -- ./inp_files/252302.got.cif
#   From: 2010.05.17/outbox.cif.g08.bks.cpg/sg15_127_cif.got.tgz:252302.got - 2010.06.03 18:47:42.
