data_PCOD9257723
_publ_section_title
;
Structure prediction by ZEFSAII (Michael W. Deem and Ramdas Pophale) SiO2 
 PCOD9257723
Probable space group: C 2/C
;
_chemical_formula_sum "Si O2"
_cell_formula_units_Z 60
_cell_length_a 25.527418
_cell_length_b 8.440041
_cell_length_c 16.758037
_cell_angle_alpha 90.000000
_cell_angle_beta 142.226844
_cell_angle_gamma 90.000000
_cell_volume 2211.600944
_symmetry_space_group_name_H-M "C 2/C"
_symmetry_group_IT_number 15
_symmetry_cell_setting 'monoclinic'
loop_
_space_group_symop_operation_xyz
x,y,z
-x,y,1/2-z
-x,-y,-z
x,-y,1/2+z
1/2+x,1/2+y,z
1/2-x,1/2+y,1/2-z
1/2-x,1/2-y,-z
1/2+x,1/2-y,1/2+z
loop_
_atom_site_type_symbol
_atom_site_label
_atom_site_fract_x
_atom_site_fract_y
_atom_site_fract_z
Si Si1 0.167494 0.817596 0.051617
Si Si2 0.875782 0.175424 0.445092
Si Si3 0.147903 0.261447 0.691707
Si Si4 0.821750 0.672537 0.030967
Si Si5 0.000000 0.174434 0.250000
Si Si6 0.169549 0.433079 0.337793
Si Si7 0.433514 0.385362 0.268298
Si Si8 0.467676 0.834303 0.422487
O O1 0.196956 0.721983 0.166751
O O2 0.246607 0.839394 0.086545
O O3 0.081175 0.763893 0.901078
O O4 0.152895 0.996801 0.070667
O O5 0.820342 0.289024 0.436527
O O6 0.889507 0.252916 0.375659
O O7 0.976025 0.176869 0.591520
O O8 0.161584 0.417034 0.764138
O O9 0.136953 0.123395 0.745383
O O10 0.054014 0.238662 0.536287
O O11 0.822360 0.496440 0.063058
O O12 0.903421 0.766146 0.163273
O O13 0.750000 0.750000 0.000000
O O14 0.949158 0.053740 0.248756
O O15 0.074972 0.362291 0.213990
O O16 0.500000 0.000000 0.500000
#
# Coordination Sequence:
#
# PCOD9257723 Si02
#       8
#     8   8   8   8   4   8   8   8
#     4  11  21  35  58  91 115 160 192 248 299 352
#     4  10  19  32  57  83 115 147 195 242 294 341
#     4   9  21  36  58  84 121 152 197 241 305 355
#     4  11  17  30  52  86 114 142 184 245 295 332
#     4  10  18  32  52  78 116 148 194 230 292 338
#     4  10  21  35  60  88 121 150 201 247 300 351
#     4   9  16  30  49  79 108 141 186 237 279 339
#     4   9  20  38  56  84 119 158 191 243 292 364
#
# _framework density 27.129669
#
# number of rings (size 3 to 8) (size 9 to 14) (size 15 to 20)
#    0.000    2.133    4.000    0.800    1.867    4.800 
#    0.000    0.000    5.867    0.800    0.000    0.000 
#    0.000    0.000    0.000    0.000    0.000    0.000 
#
# Total GULP energy -167433.905007 kJ/mol
# GULP energy per Si atom -5581.130167 kJ/mol
# Density = 2.706792 g / cm^3
# Si number density = 27.129669 Si / 1000 Ang^3
#
#
#
# Elastic Constant Matrix: (Units=GPa)
#
#
# Indices 1 2 3 4 5 6 
#
# 1 68.7311 39.0404 0.3420 0.0000 3.0281 0.0000
# 2 39.0404 72.4791 9.3236 0.0000 -4.1394 0.0000
# 3 0.3420 9.3236 104.2340 0.0000 -9.0974 0.0000
# 4 0.0000 0.0000 0.0000 34.1794 0.0000 -0.6674
# 5 3.0281 -4.1394 -9.0974 0.0000 52.0548 0.0000
# 6 0.0000 0.0000 0.0000 -0.6674 0.0000 40.0398
#
#
#
# Elastic Compliance Matrix: (Units=1/GPa)
#
#
# Indices 1 2 3 4 5 6 
#
# 1 0.021265 -0.011673 0.000798 0.000000 -0.002026 0.000000
# 2 -0.011673 0.020407 -0.001611 0.000000 0.002020 0.000000
# 3 0.000798 -0.001611 0.009871 0.000000 0.001551 0.000000
# 4 0.000000 0.000000 0.000000 0.029267 0.000000 0.000488
# 5 -0.002026 0.002020 0.001551 0.000000 0.019760 0.000000
# 6 0.000000 0.000000 0.000000 0.000488 0.000000 0.024983
#
#
# Mechanical properties :
#
#
# Convention : Reuss Voigt Hill
#
# Bulk Modulus (GPa) = 37.63501 38.09512 37.86506
# Shear Modulus (GPa) = 31.37133 38.37068 34.87100
#
# Velocity S-wave (km/s) = 3.40420 3.76486 3.58906
# Velocity P-wave (km/s) = 5.41792 5.74206 5.58234
#
# Compressibility (1/GPa) = 0.02657101
#
# Stress axis : x y z
#
# Youngs Moduli (GPa) = 47.02582 49.00281 101.31105
#
# Poissons Ratio (x) = 0.57199 -0.08080
# Poissons Ratio (y) = 0.54891 0.16319
# Poissons Ratio (z) = -0.03750 0.07893
#
# Static dielectric constant tensor:
#      x y z
#    x 2.292380 0.000000 0.005200 
#    y 0.000000 2.182490 0.000000 
#    z 0.005200 0.000000 2.218690 
# 
# From -- ./inp_files/222314.got.cif
#   From: 2010.05.17/outbox.cif.g08.bks.cpg/sg15_112_cif.got.tgz:222314.got - 2010.06.03 18:47:42.
