data_PCOD9257370
_publ_section_title
;
Structure prediction by ZEFSAII (Michael W. Deem and Ramdas Pophale) SiO2 
 PCOD9257370
Probable space group: C 2/C
;
_chemical_formula_sum "Si O2"
_cell_formula_units_Z 64
_cell_length_a 7.391862
_cell_length_b 26.112391
_cell_length_c 14.764403
_cell_angle_alpha 90.000000
_cell_angle_beta 67.577042
_cell_angle_gamma 90.000000
_cell_volume 2634.348060
_symmetry_space_group_name_H-M "C 2/C"
_symmetry_group_IT_number 15
_symmetry_cell_setting 'monoclinic'
loop_
_space_group_symop_operation_xyz
x,y,z
-x,y,1/2-z
-x,-y,-z
x,-y,1/2+z
1/2+x,1/2+y,z
1/2-x,1/2+y,1/2-z
1/2-x,1/2-y,-z
1/2+x,1/2-y,1/2+z
loop_
_atom_site_type_symbol
_atom_site_label
_atom_site_fract_x
_atom_site_fract_y
_atom_site_fract_z
Si Si1 0.279248 0.025995 0.014221
Si Si2 0.032077 0.637789 0.529628
Si Si3 0.615982 0.668719 0.373135
Si Si4 0.713786 0.809901 0.843668
Si Si5 0.132479 0.805024 0.418983
Si Si6 0.233377 0.015365 0.713622
Si Si7 0.681974 0.447178 0.881972
Si Si8 0.298848 0.130643 0.739485
O O1 0.050028 0.041413 0.066788
O O2 0.322344 0.997136 0.099677
O O3 0.390958 0.079440 0.979679
O O4 0.282214 0.983429 0.935966
O O5 0.042647 0.657675 0.424959
O O6 0.193231 0.671997 0.551972
O O7 0.834322 0.642431 0.626519
O O8 0.763948 0.689362 0.268847
O O9 0.412363 0.667552 0.352779
O O10 0.553879 0.696394 0.478192
O O11 0.689814 0.613042 0.387296
O O12 0.688988 0.751344 0.877353
O O13 0.131521 0.841938 0.330410
O O14 0.291486 0.069136 0.746704
O O15 0.000000 0.020795 0.750000
O O16 0.264085 0.966718 0.771100
O O17 0.500000 0.147278 0.750000
#
# Coordination Sequence:
#
# PCOD9257370 Si02
#       8
#     8   8   8   8   8   8   8   8
#     4  10  19  31  53  77 113 152 193 233 287 338
#     4  10  18  33  49  74 115 146 184 227 292 352
#     4  10  19  29  50  73 112 141 190 231 296 340
#     4  10  20  29  49  78 110 146 185 241 302 348
#     4  10  20  31  50  75 115 144 184 237 303 348
#     4  10  22  35  56  83 116 155 209 237 282 344
#     4  10  18  31  52  78 111 151 189 245 279 340
#     4  10  22  35  55  81 119 156 188 238 298 349
#
# _framework density 24.294435
#
# number of rings (size 3 to 8) (size 9 to 14) (size 15 to 20)
#    0.000    2.000    2.500    3.750   14.000    0.500 
#    0.000    0.000    0.000    0.000    0.000    3.500 
#    0.000    0.000    0.000    0.000    0.000    0.000 
#
# Total GULP energy -178833.501130 kJ/mol
# GULP energy per Si atom -5588.546910 kJ/mol
# Density = 2.423914 g / cm^3
# Si number density = 24.294435 Si / 1000 Ang^3
#
#
#
# Elastic Constant Matrix: (Units=GPa)
#
#
# Indices 1 2 3 4 5 6 
#
# 1 60.3293 29.5095 25.2492 0.0000 -11.0137 0.0000
# 2 29.5095 155.7527 50.8469 0.0000 9.4648 0.0000
# 3 25.2492 50.8469 161.0027 0.0000 8.0506 0.0000
# 4 0.0000 0.0000 0.0000 156.9154 0.0000 29.8211
# 5 -11.0137 9.4648 8.0506 0.0000 12.3928 0.0000
# 6 0.0000 0.0000 0.0000 29.8211 0.0000 -2.2203
#
#
#
# Elastic Compliance Matrix: (Units=1/GPa)
#
#
# Indices 1 2 3 4 5 6 
#
# 1 0.026481 -0.005586 -0.003906 0.000000 0.030337 0.000000
# 2 -0.005586 0.008547 -0.001291 0.000000 -0.010653 0.000000
# 3 -0.003906 -0.001291 0.007602 0.000000 -0.007424 0.000000
# 4 0.000000 0.000000 0.000000 0.001794 0.000000 0.024094
# 5 0.030337 -0.010653 -0.007424 0.000000 0.120612 0.000000
# 6 0.000000 0.000000 0.000000 0.024094 0.000000 -0.126780
#
#
# Mechanical properties :
#
#
# Convention : Reuss Voigt Hill
#
# Bulk Modulus (GPa) = 47.46872 65.36622 56.41747
# Shear Modulus (GPa) = 74.80211 51.51618 63.15915
#
# Velocity S-wave (km/s) = 5.55488 4.60988 5.10429
# Velocity P-wave (km/s) = 7.79253 7.43632 7.61651
#
# Compressibility (1/GPa) = 0.02106650
#
# Stress axis : x y z
#
# Youngs Moduli (GPa) = 37.76316 116.99364 131.53637
#
# Poissons Ratio (x) = 0.65348 0.51375
# Poissons Ratio (y) = 0.21093 0.16978
# Poissons Ratio (z) = 0.14749 0.15101
#
# Static dielectric constant tensor:
#      x y z
#    x 1.963350 0.000000 0.006180 
#    y 0.000000 1.853050 0.000000 
#    z 0.006180 0.000000 1.976280 
# 
# From -- ./inp_files/200769.got.cif
#   From: 2010.05.17/outbox.cif.g08.bks.cpg/sg15_101_cif.got.tgz:200769.got - 2010.06.03 18:47:42.
