data_PCOD9257104
_publ_section_title
;
Structure prediction by ZEFSAII (Michael W. Deem and Ramdas Pophale) SiO2 
 PCOD9257104
Probable space group: C 2/C
;
_chemical_formula_sum "Si O2"
_cell_formula_units_Z 44
_cell_length_a 9.977707
_cell_length_b 18.613078
_cell_length_c 13.608280
_cell_angle_alpha 90.000000
_cell_angle_beta 58.812897
_cell_angle_gamma 90.000000
_cell_volume 2162.033752
_symmetry_space_group_name_H-M "C 2/C"
_symmetry_group_IT_number 15
_symmetry_cell_setting 'monoclinic'
loop_
_space_group_symop_operation_xyz
x,y,z
-x,y,1/2-z
-x,-y,-z
x,-y,1/2+z
1/2+x,1/2+y,z
1/2-x,1/2+y,1/2-z
1/2-x,1/2-y,-z
1/2+x,1/2-y,1/2+z
loop_
_atom_site_type_symbol
_atom_site_label
_atom_site_fract_x
_atom_site_fract_y
_atom_site_fract_z
Si Si1 0.693618 0.548778 0.339322
Si Si2 0.312555 0.196377 0.335179
Si Si3 0.874909 0.987392 0.403256
Si Si4 0.293455 0.844029 0.068549
Si Si5 0.916605 0.572682 0.991736
Si Si6 0.000000 0.463194 0.250000
O O1 0.721120 0.633512 0.312508
O O2 0.554598 0.511496 0.332101
O O3 0.657597 0.532259 0.468598
O O4 0.861438 0.512220 0.260156
O O5 0.500000 0.190777 0.250000
O O6 0.272433 0.178261 0.463645
O O7 0.256935 0.278316 0.342959
O O8 0.811620 0.915300 0.374185
O O9 0.763947 0.055299 0.419983
O O10 0.476886 0.864317 0.006647
O O11 0.935049 0.579344 0.867193
O O12 0.000000 0.500000 0.000000
#
# Coordination Sequence:
#
# PCOD9257104 Si02
#       6
#     8   8   8   8   8   4
#     4   9  16  29  50  77 100 136 176 212 265 324
#     4  10  19  32  54  75 106 143 177 220 273 327
#     4   8  16  31  51  74 106 131 171 222 268 309
#     4   9  19  34  52  79 105 138 181 226 267 322
#     4   9  18  33  53  78 108 136 176 225 268 320
#     4  10  18  30  54  78 102 144 172 218 276 312
#
# _framework density 20.351209000000001
#
# number of rings (size 3 to 8) (size 9 to 14) (size 15 to 20)
#    0.000    2.909    0.909    1.091    0.000    1.455 
#    0.000    5.455    0.000    0.000    0.000    0.000 
#    0.000    0.000    0.000    0.000    0.000    0.000 
#
# Total GULP energy -122606.493387 kJ/mol
# GULP energy per Si atom -5573.022427 kJ/mol
# Density = 2.030489 g / cm^3
# Si number density = 20.351209 Si / 1000 Ang^3
#
#
#
# Elastic Constant Matrix: (Units=GPa)
#
#
# Indices 1 2 3 4 5 6 
#
# 1 89.6407 46.3585 13.1953 0.0000 -31.4384 0.0000
# 2 46.3585 113.6008 23.4044 0.0000 -28.2041 0.0000
# 3 13.1953 23.4044 68.9205 0.0000 -21.4843 0.0000
# 4 0.0000 0.0000 0.0000 21.9514 0.0000 -10.1856
# 5 -31.4384 -28.2041 -21.4843 0.0000 47.5376 0.0000
# 6 0.0000 0.0000 0.0000 -10.1856 0.0000 18.6156
#
#
#
# Elastic Compliance Matrix: (Units=1/GPa)
#
#
# Indices 1 2 3 4 5 6 
#
# 1 0.016491 -0.004844 0.001154 0.000000 0.008554 0.000000
# 2 -0.004844 0.011955 -0.002235 0.000000 0.002879 0.000000
# 3 0.001154 -0.002235 0.017311 0.000000 0.007261 0.000000
# 4 0.000000 0.000000 0.000000 0.061056 0.000000 0.033407
# 5 0.008554 0.002879 0.007261 0.000000 0.031683 0.000000
# 6 0.000000 0.000000 0.000000 0.033407 0.000000 0.071997
#
#
# Mechanical properties :
#
#
# Convention : Reuss Voigt Hill
#
# Bulk Modulus (GPa) = 29.49210 48.67539 39.08374
# Shear Modulus (GPa) = 21.40011 30.23451 25.81731
#
# Velocity S-wave (km/s) = 3.24626 3.85858 3.56559
# Velocity P-wave (km/s) = 5.34547 6.61975 6.01644
#
# Compressibility (1/GPa) = 0.03390739
#
# Stress axis : x y z
#
# Youngs Moduli (GPa) = 60.64058 83.64947 57.76749
#
# Poissons Ratio (x) = 0.40517 -0.06666
# Poissons Ratio (y) = 0.29372 0.12909
# Poissons Ratio (z) = -0.06998 0.18693
#
# Static dielectric constant tensor:
#      x y z
#    x 1.758980 0.000000 0.021820 
#    y 0.000000 1.740760 0.000000 
#    z 0.021820 0.000000 1.811980 
# 
# From -- ./inp_files/190787.got.cif
#   From: 2010.05.17/outbox.cif.g08.bks.cpg/sg15_96_cif.got.tgz:190787.got - 2010.06.03 18:47:42.
