data_PCOD9257193
_publ_section_title
;
Structure prediction by ZEFSAII (Michael W. Deem and Ramdas Pophale) SiO2 
 PCOD9257193
Probable space group: C 2/C
;
_chemical_formula_sum "Si O2"
_cell_formula_units_Z 56
_cell_length_a 14.352634
_cell_length_b 15.247886
_cell_length_c 13.284684
_cell_angle_alpha 90.000000
_cell_angle_beta 116.831969
_cell_angle_gamma 90.000000
_cell_volume 2594.298637
_symmetry_space_group_name_H-M "C 2/C"
_symmetry_group_IT_number 15
_symmetry_cell_setting 'monoclinic'
loop_
_space_group_symop_operation_xyz
x,y,z
-x,y,1/2-z
-x,-y,-z
x,-y,1/2+z
1/2+x,1/2+y,z
1/2-x,1/2+y,1/2-z
1/2-x,1/2-y,-z
1/2+x,1/2-y,1/2+z
loop_
_atom_site_type_symbol
_atom_site_label
_atom_site_fract_x
_atom_site_fract_y
_atom_site_fract_z
Si Si1 0.500000 0.486854 0.750000
Si Si2 0.822175 0.429020 0.798198
Si Si3 0.000000 0.496248 0.250000
Si Si4 0.815733 0.100188 0.760959
Si Si5 0.460318 0.909380 0.033513
Si Si6 0.845788 0.695114 0.946555
Si Si7 0.277312 0.377200 0.938766
Si Si8 0.596717 0.450022 0.994513
O O1 0.412592 0.553113 0.752155
O O2 0.551124 0.427121 0.862767
O O3 0.772859 0.524803 0.786984
O O4 0.743638 0.376696 0.690401
O O5 0.920977 0.444237 0.773729
O O6 0.857467 0.387716 0.919746
O O7 0.055895 0.433797 0.358842
O O8 0.758000 0.178413 0.673343
O O9 0.853210 0.112475 0.895362
O O10 0.551508 0.839444 0.058444
O O11 0.500000 0.000000 0.000000
O O12 0.854113 0.794936 0.988511
O O13 0.819673 0.640495 0.034948
O O14 0.320627 0.472321 0.984884
O O15 0.500000 0.500000 0.000000
#
# Coordination Sequence:
#
# PCOD9257193 Si02
#       8
#     4   8   4   8   8   8   8   8
#     4  10  18  34  55  81 112 138 194 236 276 328
#     4  10  20  34  55  86 112 145 191 230 280 336
#     4  10  18  30  59  83 108 144 192 230 274 324
#     4  10  19  33  55  80 113 147 187 235 277 340
#     4  10  19  34  55  85 113 147 191 230 275 339
#     4  11  20  36  54  85 121 147 180 240 295 340
#     4  10  21  35  55  83 118 149 178 236 298 340
#     4   9  19  34  54  79 105 146 192 226 271 334
#
# _framework density 21.585795999999998
#
# number of rings (size 3 to 8) (size 9 to 14) (size 15 to 20)
#    0.000    2.000    4.286    1.714    0.000    0.000 
#    5.143    0.714    0.000    8.571    0.000    0.000 
#    0.000    0.000    0.000    0.000    0.000    0.000 
#
# Total GULP energy -156047.412858 kJ/mol
# GULP energy per Si atom -5573.121888 kJ/mol
# Density = 2.153667 g / cm^3
# Si number density = 21.585796 Si / 1000 Ang^3
#
#
#
# Elastic Constant Matrix: (Units=GPa)
#
#
# Indices 1 2 3 4 5 6 
#
# 1 15.6866 -5.3025 -16.5068 0.0000 3.6491 0.0000
# 2 -5.3025 15.3210 -7.9835 0.0000 -6.3083 0.0000
# 3 -16.5068 -7.9835 186.6809 0.0000 -14.9419 0.0000
# 4 0.0000 0.0000 0.0000 15.2307 0.0000 -7.4120
# 5 3.6491 -6.3083 -14.9419 0.0000 26.1457 0.0000
# 6 0.0000 0.0000 0.0000 -7.4120 0.0000 9.1401
#
#
#
# Elastic Compliance Matrix: (Units=1/GPa)
#
#
# Indices 1 2 3 4 5 6 
#
# 1 0.084693 0.034801 0.009120 0.000000 0.001788 0.000000
# 2 0.034801 0.090957 0.008734 0.000000 0.022080 0.000000
# 3 0.009120 0.008734 0.006920 0.000000 0.004789 0.000000
# 4 0.000000 0.000000 0.000000 0.108459 0.000000 0.087954
# 5 0.001788 0.022080 0.004789 0.000000 0.046062 0.000000
# 6 0.000000 0.000000 0.000000 0.087954 0.000000 0.180733
#
#
# Mechanical properties :
#
#
# Convention : Reuss Voigt Hill
#
# Bulk Modulus (GPa) = 3.47367 17.56696 10.52031
# Shear Modulus (GPa) = 9.83334 26.60205 18.21769
#
# Velocity S-wave (km/s) = 2.13667 3.51435 2.90826
# Velocity P-wave (km/s) = 2.77486 4.96219 4.02015
#
# Compressibility (1/GPa) = 0.28788030
#
# Stress axis : x y z
#
# Youngs Moduli (GPa) = 11.80732 10.99423 144.50825
#
# Poissons Ratio (x) = -0.38261 -1.31794
# Poissons Ratio (y) = -0.41090 -1.26218
# Poissons Ratio (z) = -0.10769 -0.09603
#
# Static dielectric constant tensor:
#      x y z
#    x 1.825210 0.000000 0.046440 
#    y 0.000000 1.788510 0.000000 
#    z 0.046440 0.000000 1.971420 
# 
# From -- ./inp_files/154938.got.cif
#   From: 2010.05.17/outbox.cif.g08.bks.cpg/sg15_78_cif.got.tgz:154938.got - 2010.06.03 18:47:42.
