data_PCOD9257588
_publ_section_title
;
Structure prediction by ZEFSAII (Michael W. Deem and Ramdas Pophale) SiO2 
 PCOD9257588
Probable space group: C 2/C
;
_chemical_formula_sum "Si O2"
_cell_formula_units_Z 60
_cell_length_a 22.057346
_cell_length_b 16.856675
_cell_length_c 8.069111
_cell_angle_alpha 90.000000
_cell_angle_beta 94.667477
_cell_angle_gamma 90.000000
_cell_volume 2990.255040
_symmetry_space_group_name_H-M "C 2/C"
_symmetry_group_IT_number 15
_symmetry_cell_setting 'monoclinic'
loop_
_space_group_symop_operation_xyz
x,y,z
-x,y,1/2-z
-x,-y,-z
x,-y,1/2+z
1/2+x,1/2+y,z
1/2-x,1/2+y,1/2-z
1/2-x,1/2-y,-z
1/2+x,1/2-y,1/2+z
loop_
_atom_site_type_symbol
_atom_site_label
_atom_site_fract_x
_atom_site_fract_y
_atom_site_fract_z
Si Si1 0.373017 0.240374 0.684525
Si Si2 0.750817 0.341928 0.219622
Si Si3 0.452780 0.391545 0.439809
Si Si4 0.803887 0.092982 0.117861
Si Si5 0.869263 0.243584 0.824509
Si Si6 0.500000 0.465140 0.750000
Si Si7 0.923901 0.205722 0.515303
Si Si8 0.316176 0.575265 0.493744
O O1 0.319307 0.187295 0.747491
O O2 0.341691 0.326050 0.646200
O O3 0.388724 0.214113 0.499748
O O4 0.423278 0.252179 0.836588
O O5 0.703347 0.266950 0.203980
O O6 0.728397 0.391702 0.373025
O O7 0.742972 0.385903 0.040799
O O8 0.395679 0.345972 0.356724
O O9 0.456426 0.410717 0.633591
O O10 0.461466 0.475460 0.353709
O O11 0.512202 0.335745 0.429839
O O12 0.786038 0.073901 0.304177
O O13 0.834985 0.012866 0.054577
O O14 0.900482 0.263708 0.657011
O O15 0.873680 0.134786 0.496312
#
# Coordination Sequence:
#
# PCOD9257588 Si02
#       8
#     8   8   8   8   8   4   8   8
#     4  10  22  35  51  71  93 133 176 214 258 303
#     4  10  21  36  50  71  96 129 179 211 256 307
#     4  11  20  35  43  72  96 137 175 215 252 282
#     4  10  18  32  48  70  96 128 167 214 247 293
#     4  10  19  34  48  66  93 129 166 214 254 283
#     4  10  22  30  48  62 102 138 178 216 240 288
#     4  10  21  33  49  70 100 131 175 217 250 291
#     4  10  20  30  49  72  96 132 169 211 253 289
#
# _framework density 20.065176999999998
#
# number of rings (size 3 to 8) (size 9 to 14) (size 15 to 20)
#    0.000    1.867    2.667    2.400    0.000   12.267 
#    0.000    0.000    0.000    0.000    0.000    0.000 
#    0.000    0.000    0.000   10.800    1.867    0.667 
#
# Total GULP energy -167360.674222 kJ/mol
# GULP energy per Si atom -5578.689141 kJ/mol
# Density = 2.001951 g / cm^3
# Si number density = 20.065177 Si / 1000 Ang^3
#
#
#
# Elastic Constant Matrix: (Units=GPa)
#
#
# Indices 1 2 3 4 5 6 
#
# 1 48.8328 13.6692 18.5830 0.0000 -3.0176 0.0000
# 2 13.6692 18.3792 5.5422 0.0000 -3.7418 0.0000
# 3 18.5830 5.5422 144.4200 0.0000 -6.8627 0.0000
# 4 0.0000 0.0000 0.0000 16.8633 0.0000 -5.3040
# 5 -3.0176 -3.7418 -6.8627 0.0000 20.2408 0.0000
# 6 0.0000 0.0000 0.0000 -5.3040 0.0000 20.5407
#
#
#
# Elastic Compliance Matrix: (Units=1/GPa)
#
#
# Indices 1 2 3 4 5 6 
#
# 1 0.026885 -0.019267 -0.002743 0.000000 -0.000484 0.000000
# 2 -0.019267 0.070758 0.000253 0.000000 0.010294 0.000000
# 3 -0.002743 0.000253 0.007369 0.000000 0.002136 0.000000
# 4 0.000000 0.000000 0.000000 0.064542 0.000000 0.016666
# 5 -0.000484 0.010294 0.002136 0.000000 0.051960 0.000000
# 6 0.000000 0.000000 0.000000 0.016666 0.000000 0.052987
#
#
# Mechanical properties :
#
#
# Convention : Reuss Voigt Hill
#
# Bulk Modulus (GPa) = 16.26051 31.91341 24.08696
# Shear Modulus (GPa) = 14.77040 23.11814 18.94427
#
# Velocity S-wave (km/s) = 2.71610 3.39802 3.07601
# Velocity P-wave (km/s) = 4.23765 5.59775 4.96450
#
# Compressibility (1/GPa) = 0.06149870
#
# Stress axis : x y z
#
# Youngs Moduli (GPa) = 37.19540 14.13268 135.70346
#
# Poissons Ratio (x) = 0.27229 0.37224
# Poissons Ratio (y) = 0.71663 -0.03432
# Poissons Ratio (z) = 0.10203 -0.00357
#
# Static dielectric constant tensor:
#      x y z
#    x 1.775040 0.000000 -0.064230 
#    y 0.000000 1.680870 0.000000 
#    z -0.064230 0.000000 1.861830 
# 
# From -- ./inp_files/56667.got.cif
#   From: 2010.05.17/outbox.cif.g08.bks.cpg/sg15_29_cif.got.tgz:56667.got - 2010.06.03 18:47:42.
