data_PCOD9257881
_publ_section_title
;
Structure prediction by ZEFSAII (Michael W. Deem and Ramdas Pophale) SiO2 
 PCOD9257881
Probable space group: C 2/C
;
_chemical_formula_sum "Si O2"
_cell_formula_units_Z 52
_cell_length_a 11.264110
_cell_length_b 22.723343
_cell_length_c 10.018447
_cell_angle_alpha 90.000000
_cell_angle_beta 105.598583
_cell_angle_gamma 90.000000
_cell_volume 2469.858689
_symmetry_space_group_name_H-M "C 2/C"
_symmetry_group_IT_number 15
_symmetry_cell_setting 'monoclinic'
loop_
_space_group_symop_operation_xyz
x,y,z
-x,y,1/2-z
-x,-y,-z
x,-y,1/2+z
1/2+x,1/2+y,z
1/2-x,1/2+y,1/2-z
1/2-x,1/2-y,-z
1/2+x,1/2-y,1/2+z
loop_
_atom_site_type_symbol
_atom_site_label
_atom_site_fract_x
_atom_site_fract_y
_atom_site_fract_z
Si Si1 0.467583 0.889567 0.037352
Si Si2 0.307002 0.999567 0.075833
Si Si3 0.862870 0.772216 0.880105
Si Si4 0.500000 0.907760 0.750000
Si Si5 0.630141 0.686576 0.849396
Si Si6 0.618312 0.767891 0.408706
Si Si7 0.252295 0.928480 0.311722
O O1 0.467742 0.874588 0.878420
O O2 0.396681 0.950997 0.035924
O O3 0.399588 0.838660 0.102259
O O4 0.607474 0.902733 0.127000
O O5 0.239519 0.965363 0.173357
O O6 0.388791 0.049582 0.172368
O O7 0.232981 0.030138 0.934646
O O8 0.739944 0.733367 0.859519
O O9 0.880330 0.769943 0.727380
O O10 0.997233 0.745925 0.959721
O O11 0.857865 0.824247 0.986200
O O12 0.500000 0.706833 0.750000
O O13 0.663826 0.626886 0.785789
O O14 0.750000 0.750000 0.500000
#
# Coordination Sequence:
#
# PCOD9257881 Si02
#       7
#     8   8   8   4   8   8   8
#     4  11  20  34  59  91 131 167 211 266 334 383
#     4  11  19  35  57  95 127 161 212 273 321 395
#     4  10  23  42  62  93 127 168 224 268 318 394
#     4  10  18  32  54  94 128 166 210 264 322 392
#     4  11  23  43  67  90 127 179 220 272 328 388
#     4  11  23  40  63  95 133 169 210 273 333 394
#     4  11  21  37  64  91 128 168 217 269 331 388
#
# _framework density 21.053834999999999
#
# number of rings (size 3 to 8) (size 9 to 14) (size 15 to 20)
#    0.000    1.231    4.615    2.769    2.154    2.462 
#    1.385    0.769    0.000    0.000    0.000    0.000 
#    0.000    0.000    0.000    0.000    0.000    0.000 
#
# Total GULP energy -144809.167768 kJ/mol
# GULP energy per Si atom -5569.583376 kJ/mol
# Density = 2.100592 g / cm^3
# Si number density = 21.053835 Si / 1000 Ang^3
#
#
#
# Elastic Constant Matrix: (Units=GPa)
#
#
# Indices 1 2 3 4 5 6 
#
# 1 90.1919 23.3696 37.8526 0.0000 15.3283 0.0000
# 2 23.3696 32.2492 14.7559 0.0000 -2.7315 0.0000
# 3 37.8526 14.7559 128.7136 0.0000 -21.0252 0.0000
# 4 0.0000 0.0000 0.0000 66.8868 0.0000 -44.7136
# 5 15.3283 -2.7315 -21.0252 0.0000 25.9103 0.0000
# 6 0.0000 0.0000 0.0000 -44.7136 0.0000 45.4036
#
#
#
# Elastic Compliance Matrix: (Units=1/GPa)
#
#
# Indices 1 2 3 4 5 6 
#
# 1 0.021630 -0.013690 -0.008205 0.000000 -0.020897 0.000000
# 2 -0.013690 0.041395 0.001517 0.000000 0.013694 0.000000
# 3 -0.008205 0.001517 0.012482 0.000000 0.015142 0.000000
# 4 0.000000 0.000000 0.000000 0.043759 0.000000 0.043094
# 5 -0.020897 0.013694 0.015142 0.000000 0.064688 0.000000
# 6 0.000000 0.000000 0.000000 0.043094 0.000000 0.064463
#
#
# Mechanical properties :
#
#
# Convention : Reuss Voigt Hill
#
# Bulk Modulus (GPa) = 28.77628 44.79010 36.78319
# Shear Modulus (GPa) = 16.62482 39.31856 27.97169
#
# Velocity S-wave (km/s) = 2.81309 4.32617 3.64892
# Velocity P-wave (km/s) = 4.92432 6.80255 5.93816
#
# Compressibility (1/GPa) = 0.03475085
#
# Stress axis : x y z
#
# Youngs Moduli (GPa) = 46.23266 24.15773 80.11725
#
# Poissons Ratio (x) = 0.33072 0.65737
# Poissons Ratio (y) = 0.63292 -0.12156
# Poissons Ratio (z) = 0.37934 -0.03665
#
# Static dielectric constant tensor:
#      x y z
#    x 1.823850 0.000000 -0.002740 
#    y 0.000000 1.772270 0.000000 
#    z -0.002740 0.000000 1.898070 
# 
# From -- ./inp_files/33712.got.cif
#   From: 2010.05.17/outbox.cif.g08.bks.cpg/sg15_17_cif.got.tgz:33712.got - 2010.06.03 18:47:42.
