data_PCOD9257349
_publ_section_title
;
Structure prediction by ZEFSAII (Michael W. Deem and Ramdas Pophale) SiO2 
 PCOD9257349
Probable space group: C 2/C
;
_chemical_formula_sum "Si O2"
_cell_formula_units_Z 40
_cell_length_a 17.639217
_cell_length_b 14.966384
_cell_length_c 13.495902
_cell_angle_alpha 90.000000
_cell_angle_beta 152.986544
_cell_angle_gamma 90.000000
_cell_volume 1618.247652
_symmetry_space_group_name_H-M "C 2/C"
_symmetry_group_IT_number 15
_symmetry_cell_setting 'monoclinic'
loop_
_space_group_symop_operation_xyz
x,y,z
-x,y,1/2-z
-x,-y,-z
x,-y,1/2+z
1/2+x,1/2+y,z
1/2-x,1/2+y,1/2-z
1/2-x,1/2-y,-z
1/2+x,1/2-y,1/2+z
loop_
_atom_site_type_symbol
_atom_site_label
_atom_site_fract_x
_atom_site_fract_y
_atom_site_fract_z
Si Si1 0.034154 0.193065 0.180693
Si Si2 0.812538 0.991394 0.679718
Si Si3 0.482915 0.051253 0.375222
Si Si4 0.640023 0.587281 0.045820
Si Si5 0.310439 0.215292 0.812985
O O1 0.000000 0.227919 0.250000
O O2 0.133042 0.265278 0.233118
O O3 0.874066 0.177024 0.922175
O O4 0.134150 0.101015 0.309392
O O5 0.616833 0.011959 0.454078
O O6 0.835686 0.968050 0.824049
O O7 0.945642 0.066314 0.799814
O O8 0.281700 0.056302 0.132385
O O9 0.562541 0.148829 0.487098
O O10 0.500000 0.000000 0.500000
O O11 0.682418 0.689949 0.122241
#
# Coordination Sequence:
#
# PCOD9257349 Si02
#       5
#     8   8   8   8   8
#     4  11  22  35  50  75 115 152 175 204 254 336
#     4   9  19  33  50  73 102 142 177 212 268 311
#     4  10  18  31  52  74 105 136 171 231 269 309
#     4   9  17  31  51  76 102 130 171 233 269 303
#     4  11  19  33  52  79 110 136 179 220 275 315
#
# _framework density 24.718095000000002
#
# number of rings (size 3 to 8) (size 9 to 14) (size 15 to 20)
#    0.000    2.000    2.000    5.400    0.000    0.000 
#    0.000    0.000    0.000    0.000    0.000    1.400 
#    0.000    0.000    0.000    0.000    0.000    0.000 
#
# Total GULP energy -111690.113836 kJ/mol
# GULP energy per Si atom -5584.505692 kJ/mol
# Density = 2.466184 g / cm^3
# Si number density = 24.718095 Si / 1000 Ang^3
#
#
#
# Elastic Constant Matrix: (Units=GPa)
#
#
# Indices 1 2 3 4 5 6 
#
# 1 52.1993 -0.5239 46.3213 0.0000 22.1850 0.0000
# 2 -0.5239 82.7457 52.5322 0.0000 6.6250 0.0000
# 3 46.3213 52.5322 204.9184 0.0000 10.4087 0.0000
# 4 0.0000 0.0000 0.0000 -26.2017 0.0000 69.3601
# 5 22.1850 6.6250 10.4087 0.0000 52.3185 0.0000
# 6 0.0000 0.0000 0.0000 69.3601 0.0000 -55.1978
#
#
#
# Elastic Compliance Matrix: (Units=1/GPa)
#
#
# Indices 1 2 3 4 5 6 
#
# 1 0.031921 0.006439 -0.008220 0.000000 -0.012716 0.000000
# 2 0.006439 0.015797 -0.005319 0.000000 -0.003673 0.000000
# 3 -0.008220 -0.005319 0.007971 0.000000 0.002573 0.000000
# 4 0.000000 0.000000 0.000000 0.016406 0.000000 0.020615
# 5 -0.012716 -0.003673 0.002573 0.000000 0.024459 0.000000
# 6 0.000000 0.000000 0.000000 0.020615 0.000000 0.007788
#
#
# Mechanical properties :
#
#
# Convention : Reuss Voigt Hill
#
# Bulk Modulus (GPa) = 24.10308 59.61363 41.85835
# Shear Modulus (GPa) = 37.77298 10.28605 24.02952
#
# Velocity S-wave (km/s) = 3.91340 2.04215 3.12130
# Velocity P-wave (km/s) = 5.49472 5.45255 5.47367
#
# Compressibility (1/GPa) = 0.04148847
#
# Stress axis : x y z
#
# Youngs Moduli (GPa) = 31.32743 63.30485 125.45584
#
# Poissons Ratio (x) = -0.40762 1.03130
# Poissons Ratio (y) = -0.20172 0.66724
# Poissons Ratio (z) = 0.25753 0.33669
#
# Static dielectric constant tensor:
#      x y z
#    x 1.921780 0.000000 0.011560 
#    y 0.000000 1.952250 0.000000 
#    z 0.011560 0.000000 2.064160 
# 
# From -- ./inp_files/55049.got.cif
#   From: 2010.05.17/outbox.cif.g08.bks.cpg/sg15_28_cif.got.tgz:55049.got - 2010.06.03 18:47:42.
