data_PCOD9257886
_publ_section_title
;
Structure prediction by ZEFSAII (Michael W. Deem and Ramdas Pophale) SiO2 
 PCOD9257886
Probable space group: C 2/C
;
_chemical_formula_sum "Si O2"
_cell_formula_units_Z 64
_cell_length_a 9.134765
_cell_length_b 13.207081
_cell_length_c 21.631570
_cell_angle_alpha 90.000000
_cell_angle_beta 80.157979
_cell_angle_gamma 90.000000
_cell_volume 2571.302451
_symmetry_space_group_name_H-M "C 2/C"
_symmetry_group_IT_number 15
_symmetry_cell_setting 'monoclinic'
loop_
_space_group_symop_operation_xyz
x,y,z
-x,y,1/2-z
-x,-y,-z
x,-y,1/2+z
1/2+x,1/2+y,z
1/2-x,1/2+y,1/2-z
1/2-x,1/2-y,-z
1/2+x,1/2-y,1/2+z
loop_
_atom_site_type_symbol
_atom_site_label
_atom_site_fract_x
_atom_site_fract_y
_atom_site_fract_z
Si Si1 0.182088 0.384246 0.080891
Si Si2 0.437272 0.109172 0.133379
Si Si3 0.075777 0.863380 0.178840
Si Si4 0.340913 0.439183 0.503095
Si Si5 0.476459 0.722941 0.551444
Si Si6 0.861453 0.501670 0.299305
Si Si7 0.355248 0.413771 0.786925
Si Si8 0.357861 0.886162 0.101185
O O1 0.311783 0.312209 0.048429
O O2 0.187488 0.411351 0.152765
O O3 0.020125 0.342078 0.075164
O O4 0.228234 0.495055 0.051185
O O5 0.482414 0.159887 0.066327
O O6 0.572298 0.103511 0.171970
O O7 0.274932 0.146572 0.168061
O O8 0.408991 0.990989 0.127729
O O9 0.248359 0.830397 0.156832
O O10 0.000000 0.834899 0.250000
O O11 0.002241 0.822207 0.120554
O O12 0.085281 0.987532 0.178951
O O13 0.500000 0.500000 0.500000
O O14 0.403436 0.324536 0.503663
O O15 0.246961 0.423314 0.447062
O O16 0.731477 0.536377 0.264168
O O17 0.000000 0.463682 0.250000
O O18 0.500000 0.358253 0.750000
#
# Coordination Sequence:
#
# PCOD9257886 Si02
#       8
#     8   8   8   8   8   8   8   8
#     4  10  18  32  55  78  99 130 172 216 250 293
#     4   9  19  34  50  72 105 137 164 205 260 307
#     4   9  17  30  51  74 100 136 174 205 245 304
#     4   9  19  35  55  76  99 134 174 210 253 309
#     4  10  20  34  51  77 106 133 170 214 257 299
#     4   9  18  33  52  74 102 137 169 199 249 313
#     4   9  16  30  50  73  98 135 173 202 243 308
#     4   9  18  34  55  74  99 134 172 209 253 307
#
# _framework density 24.89011
#
# number of rings (size 3 to 8) (size 9 to 14) (size 15 to 20)
#    0.000    2.750    0.000    2.625    0.000    2.500 
#    0.000    9.375    0.000    0.000    0.000    0.000 
#    0.000    0.000    0.000    0.000    0.000    0.000 
#
# Total GULP energy -178230.041324 kJ/mol
# GULP energy per Si atom -5569.688791 kJ/mol
# Density = 2.483346 g / cm^3
# Si number density = 24.890110 Si / 1000 Ang^3
#
#
#
# Elastic Constant Matrix: (Units=GPa)
#
#
# Indices 1 2 3 4 5 6 
#
# 1 144.1950 15.8153 18.3382 0.0000 -17.9486 0.0000
# 2 15.8153 36.9322 5.9906 0.0000 -0.3460 0.0000
# 3 18.3382 5.9906 52.1171 0.0000 0.6085 0.0000
# 4 0.0000 0.0000 0.0000 25.1837 0.0000 0.0372
# 5 -17.9486 -0.3460 0.6085 0.0000 25.8717 0.0000
# 6 0.0000 0.0000 0.0000 0.0372 0.0000 21.2296
#
#
#
# Elastic Compliance Matrix: (Units=1/GPa)
#
#
# Indices 1 2 3 4 5 6 
#
# 1 0.008332 -0.003085 -0.002645 0.000000 0.005801 0.000000
# 2 -0.003085 0.028738 -0.002198 0.000000 -0.001704 0.000000
# 3 -0.002645 -0.002198 0.020398 0.000000 -0.002344 0.000000
# 4 0.000000 0.000000 0.000000 0.039708 0.000000 -0.000070
# 5 0.005801 -0.001704 -0.002344 0.000000 0.042709 0.000000
# 6 0.000000 0.000000 0.000000 -0.000070 0.000000 0.047104
#
#
# Mechanical properties :
#
#
# Convention : Reuss Voigt Hill
#
# Bulk Modulus (GPa) = 24.03081 34.83693 29.43387
# Shear Modulus (GPa) = 23.07169 27.33035 25.20102
#
# Velocity S-wave (km/s) = 3.04788 3.31726 3.18542
# Velocity P-wave (km/s) = 4.69700 5.35715 5.03790
#
# Compressibility (1/GPa) = 0.04161324
#
# Stress axis : x y z
#
# Youngs Moduli (GPa) = 120.02166 34.79703 49.02394
#
# Poissons Ratio (x) = 0.10733 0.12966
# Poissons Ratio (y) = 0.37021 0.10776
# Poissons Ratio (z) = 0.31744 0.07649
#
# Static dielectric constant tensor:
#      x y z
#    x 2.081730 0.000000 -0.054180 
#    y 0.000000 2.054090 0.000000 
#    z -0.054180 0.000000 2.129950 
# 
# From -- ./inp_files/288754.got.cif
#   From: 2010.05.17/outbox.cif.g08.bks.cpg/sg15_145_cif.got.tgz:288754.got - 2010.06.03 18:47:42.
