data_PCOD9257648
_publ_section_title
;
Structure prediction by ZEFSAII (Michael W. Deem and Ramdas Pophale) SiO2 
 PCOD9257648
Probable space group: C 2/C
;
_chemical_formula_sum "Si O2"
_cell_formula_units_Z 40
_cell_length_a 13.948885
_cell_length_b 18.073309
_cell_length_c 5.643785
_cell_angle_alpha 90.000000
_cell_angle_beta 79.336637
_cell_angle_gamma 90.000000
_cell_volume 1398.242263
_symmetry_space_group_name_H-M "C 2/C"
_symmetry_group_IT_number 15
_symmetry_cell_setting 'monoclinic'
loop_
_space_group_symop_operation_xyz
x,y,z
-x,y,1/2-z
-x,-y,-z
x,-y,1/2+z
1/2+x,1/2+y,z
1/2-x,1/2+y,1/2-z
1/2-x,1/2-y,-z
1/2+x,1/2-y,1/2+z
loop_
_atom_site_type_symbol
_atom_site_label
_atom_site_fract_x
_atom_site_fract_y
_atom_site_fract_z
Si Si1 0.389686 0.972011 0.090557
Si Si2 0.190084 0.907354 0.692340
Si Si3 0.839854 0.721542 0.170895
Si Si4 0.886399 0.073584 0.776311
Si Si5 0.129309 0.297232 0.333290
O O1 0.384099 0.885187 0.139038
O O2 0.348198 0.007627 0.350873
O O3 0.500000 0.000000 0.000000
O O4 0.290780 0.860752 0.655807
O O5 0.137153 0.888569 0.465209
O O6 0.172371 0.996108 0.699903
O O7 0.142517 0.885610 0.967070
O O8 0.896061 0.727758 0.391119
O O9 0.743032 0.771837 0.246960
O O10 0.906610 0.729545 0.907721
O O11 0.000000 0.056044 0.750000
#
# Coordination Sequence:
#
# PCOD9257648 Si02
#       5
#     8   8   8   8   8
#     4  10  21  40  65  89 120 157 209 266 314 371
#     4  10  18  32  50  79 106 147 190 236 275 351
#     4  10  21  37  60  84 126 153 198 244 305 382
#     4  10  19  33  53  73 116 151 184 229 287 333
#     4  10  21  40  59  87 116 164 192 247 318 365
#
# _framework density 28.607348999999999
#
# number of rings (size 3 to 8) (size 9 to 14) (size 15 to 20)
#    0.000    2.000    0.000    5.400    0.000    0.000 
#   21.600    0.000   17.600    0.000    0.000    0.000 
#    0.000    0.000    0.000    0.000    0.000    0.000 
#
# Total GULP energy -111841.181651 kJ/mol
# GULP energy per Si atom -5592.059083 kJ/mol
# Density = 2.854224 g / cm^3
# Si number density = 28.607349 Si / 1000 Ang^3
#
#
#
# Elastic Constant Matrix: (Units=GPa)
#
#
# Indices 1 2 3 4 5 6 
#
# 1 132.8953 19.0247 70.2072 0.0000 -4.0841 0.0000
# 2 19.0247 135.0064 41.9370 0.0000 -7.2585 0.0000
# 3 70.2072 41.9370 380.4997 0.0000 24.2752 0.0000
# 4 0.0000 0.0000 0.0000 37.2350 0.0000 8.4443
# 5 -4.0841 -7.2585 24.2752 0.0000 57.8634 0.0000
# 6 0.0000 0.0000 0.0000 8.4443 0.0000 -115.9605
#
#
#
# Elastic Compliance Matrix: (Units=1/GPa)
#
#
# Indices 1 2 3 4 5 6 
#
# 1 0.008482 -0.000645 -0.001569 0.000000 0.001176 0.000000
# 2 -0.000645 0.007823 -0.000825 0.000000 0.001282 0.000000
# 3 -0.001569 -0.000825 0.003105 0.000000 -0.001517 0.000000
# 4 0.000000 0.000000 0.000000 0.026420 0.000000 0.001924
# 5 0.001176 0.001282 -0.001517 0.000000 0.018162 0.000000
# 6 0.000000 0.000000 0.000000 0.001924 0.000000 -0.008484
#
#
# Mechanical properties :
#
#
# Convention : Reuss Voigt Hill
#
# Bulk Modulus (GPa) = 75.00181 101.19324 88.09753
# Shear Modulus (GPa) = 75.72165 30.30973 53.01569
#
# Velocity S-wave (km/s) = 5.15041 3.25854 4.30957
# Velocity P-wave (km/s) = 7.85134 7.04325 7.45825
#
# Compressibility (1/GPa) = 0.01333301
#
# Stress axis : x y z
#
# Youngs Moduli (GPa) = 117.89596 127.82637 322.02497
#
# Poissons Ratio (x) = 0.08240 0.50527
# Poissons Ratio (y) = 0.07600 0.26569
# Poissons Ratio (z) = 0.18498 0.10547
#
# Static dielectric constant tensor:
#      x y z
#    x 2.225180 0.000000 0.151840 
#    y 0.000000 2.259560 0.000000 
#    z 0.151840 0.000000 2.385260 
# 
# From -- ./inp_files/9822.got.cif
#   From: 2010.05.17/outbox.cif.g08.bks.cpg/sg15_5_cif.got.tgz:9822.got - 2010.06.03 18:47:42.
