data_PCOD9257263
_publ_section_title
;
Structure prediction by ZEFSAII (Michael W. Deem and Ramdas Pophale) SiO2 
 PCOD9257263
Probable space group: C 2/C
;
_chemical_formula_sum "Si O2"
_cell_formula_units_Z 48
_cell_length_a 11.368870
_cell_length_b 18.242234
_cell_length_c 14.780379
_cell_angle_alpha 90.000000
_cell_angle_beta 137.613337
_cell_angle_gamma 90.000000
_cell_volume 2066.449774
_symmetry_space_group_name_H-M "C 2/C"
_symmetry_group_IT_number 15
_symmetry_cell_setting 'monoclinic'
loop_
_space_group_symop_operation_xyz
x,y,z
-x,y,1/2-z
-x,-y,-z
x,-y,1/2+z
1/2+x,1/2+y,z
1/2-x,1/2+y,1/2-z
1/2-x,1/2-y,-z
1/2+x,1/2-y,1/2+z
loop_
_atom_site_type_symbol
_atom_site_label
_atom_site_fract_x
_atom_site_fract_y
_atom_site_fract_z
Si Si1 0.594466 0.561605 0.951666
Si Si2 0.671080 0.584659 0.395568
Si Si3 0.792811 0.526806 0.808771
Si Si4 0.303561 0.303451 0.109664
Si Si5 0.030091 0.657138 0.002560
Si Si6 0.142694 0.392725 0.757424
O O1 0.640706 0.475248 0.958694
O O2 0.384716 0.565034 0.827192
O O3 0.678179 0.613788 0.921357
O O4 0.671928 0.597211 0.087058
O O5 0.500000 0.617406 0.250000
O O6 0.729114 0.529460 0.348415
O O7 0.814275 0.649480 0.481931
O O8 0.889193 0.476798 0.790186
O O9 0.929534 0.581813 0.926210
O O10 0.500000 0.287330 0.250000
O O11 0.250000 0.250000 0.000000
O O12 0.143844 0.292871 0.090028
O O13 0.116143 0.655408 0.152112
O O14 0.000000 0.371790 0.750000
#
# Coordination Sequence:
#
# PCOD9257263 Si02
#       6
#     8   8   8   8   8   8
#     4  11  19  35  51  79 118 143 178 229 273 333
#     4   9  17  31  56  81 110 147 179 212 283 351
#     4  10  18  31  49  76 111 152 177 209 281 340
#     4  12  25  39  56  77 107 149 194 229 273 318
#     4  11  20  35  53  77 112 153 182 220 279 336
#     4  11  19  27  49  81 111 144 172 217 269 343
#
# _framework density 23.228244
#
# number of rings (size 3 to 8) (size 9 to 14) (size 15 to 20)
#    0.000    1.333    5.000    4.000    2.333    0.000 
#    0.000    0.000    0.000    0.000    0.000    2.333 
#    0.000    0.000    0.000    0.000    0.000    0.000 
#
# Total GULP energy -133636.574264 kJ/mol
# GULP energy per Si atom -5568.190594 kJ/mol
# Density = 2.317538 g / cm^3
# Si number density = 23.228244 Si / 1000 Ang^3
#
#
#
# Elastic Constant Matrix: (Units=GPa)
#
#
# Indices 1 2 3 4 5 6 
#
# 1 41.4233 18.7798 15.2753 0.0000 23.1930 0.0000
# 2 18.7798 41.8345 6.4173 0.0000 5.3639 0.0000
# 3 15.2753 6.4173 149.3449 0.0001 28.8168 0.0001
# 4 0.0000 0.0000 0.0001 9.9420 0.0001 -12.0036
# 5 23.1930 5.3639 28.8168 0.0001 40.8039 0.0000
# 6 0.0000 0.0000 0.0001 -12.0036 0.0000 12.8552
#
#
#
# Elastic Compliance Matrix: (Units=1/GPa)
#
#
# Indices 1 2 3 4 5 6 
#
# 1 0.045067 -0.017284 0.000738 0.000000 -0.023865 0.000000
# 2 -0.017284 0.030974 -0.000779 0.000000 0.006303 0.000000
# 3 0.000738 -0.000779 0.007775 0.000001 -0.005808 0.000001
# 4 0.000000 0.000000 0.000001 -0.789675 0.000002 -0.737361
# 5 -0.023865 0.006303 -0.005808 0.000002 0.041345 0.000001
# 6 0.000000 0.000000 0.000001 -0.737361 0.000001 -0.610723
#
#
# Mechanical properties :
#
#
# Convention : Reuss Voigt Hill
#
# Bulk Modulus (GPa) = 20.33971 34.83863 27.58917
# Shear Modulus (GPa) = -4.08431 25.52891 10.72230
#
# Velocity S-wave (km/s) = -1.32746 3.31878 2.15083
# Velocity P-wave (km/s) = 2.53494 5.45130 4.25104
#
# Compressibility (1/GPa) = 0.04916490
#
# Stress axis : x y z
#
# Youngs Moduli (GPa) = 22.18913 32.28503 128.62531
#
# Poissons Ratio (x) = 0.55802 -0.09494
# Poissons Ratio (y) = 0.38352 0.10024
# Poissons Ratio (z) = -0.01638 0.02516
#
# Static dielectric constant tensor:
#      x y z
#    x 2.031980 0.000000 0.033960 
#    y 0.000000 1.938190 0.000000 
#    z 0.033960 0.000000 1.978000 
# 
# From -- ./inp_files/147435.got.cif
#   From: 2010.05.17/outbox.cif.g08.bks.cpg/sg15_74_cif.got.tgz:147435.got - 2010.06.03 18:47:42.
