data_PCOD9257699
_publ_section_title
;
Structure prediction by ZEFSAII (Michael W. Deem and Ramdas Pophale) SiO2 
 PCOD9257699
Probable space group: C 2/C
;
_chemical_formula_sum "Si O2"
_cell_formula_units_Z 48
_cell_length_a 9.741841
_cell_length_b 13.510461
_cell_length_c 14.190789
_cell_angle_alpha 90.000000
_cell_angle_beta 71.539591
_cell_angle_gamma 90.000000
_cell_volume 1771.636530
_symmetry_space_group_name_H-M "C 2/C"
_symmetry_group_IT_number 15
_symmetry_cell_setting 'monoclinic'
loop_
_space_group_symop_operation_xyz
x,y,z
-x,y,1/2-z
-x,-y,-z
x,-y,1/2+z
1/2+x,1/2+y,z
1/2-x,1/2+y,1/2-z
1/2-x,1/2-y,-z
1/2+x,1/2-y,1/2+z
loop_
_atom_site_type_symbol
_atom_site_label
_atom_site_fract_x
_atom_site_fract_y
_atom_site_fract_z
Si Si1 0.996161 0.702747 0.492144
Si Si2 0.660636 0.914428 0.108267
Si Si3 0.052699 0.901182 0.569111
Si Si4 0.270872 0.363900 0.807566
Si Si5 0.629623 0.434466 0.286945
Si Si6 0.133516 0.359287 0.656250
O O1 0.034694 0.643823 0.580190
O O2 0.994001 0.819245 0.510873
O O3 0.131738 0.672302 0.395435
O O4 0.865844 0.675759 0.450986
O O5 0.750084 0.873126 0.180605
O O6 0.614608 0.022814 0.150110
O O7 0.789689 0.929497 0.004940
O O8 0.094949 0.841789 0.654840
O O9 0.957109 0.995080 0.618770
O O10 0.283936 0.484413 0.794492
O O11 0.263289 0.332694 0.699624
O O12 0.500000 0.391309 0.250000
O O13 0.000000 0.325083 0.750000
#
# Coordination Sequence:
#
# PCOD9257699 Si02
#       6
#     8   8   8   8   8   8
#     4  10  19  33  53  76 101 131 164 206 252 294
#     4  10  18  32  52  74  98 129 169 206 241 293
#     4  10  19  33  53  76 101 131 164 206 252 294
#     4   8  16  32  52  68  94 135 168 192 240 301
#     4   9  18  33  53  73  98 135 170 201 244 298
#     4   9  18  33  53  73  98 135 170 201 244 298
#
# _framework density 27.093595000000001
#
# number of rings (size 3 to 8) (size 9 to 14) (size 15 to 20)
#    0.000    2.667    0.000    3.000    0.000    0.000 
#    0.000   11.667    0.000    0.000    0.000    0.000 
#    0.000    0.000    0.000    0.000    0.000    0.000 
#
# Total GULP energy -133877.578157 kJ/mol
# GULP energy per Si atom -5578.232423 kJ/mol
# Density = 2.703193 g / cm^3
# Si number density = 27.093595 Si / 1000 Ang^3
#
#
#
# Elastic Constant Matrix: (Units=GPa)
#
#
# Indices 1 2 3 4 5 6 
#
# 1 112.3551 37.2627 58.8132 0.0000 54.5923 0.0000
# 2 37.2627 109.1106 44.9468 0.0000 24.4973 0.0000
# 3 58.8132 44.9468 109.8072 0.0000 40.8616 0.0000
# 4 0.0000 0.0000 0.0000 26.3736 0.0000 7.3874
# 5 54.5923 24.4973 40.8616 0.0000 98.9231 0.0000
# 6 0.0000 0.0000 0.0000 7.3874 0.0000 22.4597
#
#
#
# Elastic Compliance Matrix: (Units=1/GPa)
#
#
# Indices 1 2 3 4 5 6 
#
# 1 0.014941 -0.001686 -0.005198 0.000000 -0.005681 0.000000
# 2 -0.001686 0.011302 -0.003578 0.000000 -0.000391 0.000000
# 3 -0.005198 -0.003578 0.014131 0.000000 -0.002082 0.000000
# 4 0.000000 0.000000 0.000000 0.041764 0.000000 -0.013737
# 5 -0.005681 -0.000391 -0.002082 0.000000 0.014200 0.000000
# 6 0.000000 0.000000 0.000000 -0.013737 0.000000 0.049042
#
#
# Mechanical properties :
#
#
# Convention : Reuss Voigt Hill
#
# Bulk Modulus (GPa) = 51.41624 68.14648 59.78136
# Shear Modulus (GPa) = 28.93712 42.23464 35.58588
#
# Velocity S-wave (km/s) = 3.27164 3.95250 3.62808
# Velocity P-wave (km/s) = 5.76974 6.78502 6.29788
#
# Compressibility (1/GPa) = 0.01944911
#
# Stress axis : x y z
#
# Youngs Moduli (GPa) = 66.93136 88.47709 70.76875
#
# Poissons Ratio (x) = 0.14914 0.36789
# Poissons Ratio (y) = 0.11282 0.25322
# Poissons Ratio (z) = 0.34794 0.31658
#
# Static dielectric constant tensor:
#      x y z
#    x 2.257640 0.000000 0.057730 
#    y 0.000000 2.075140 0.000000 
#    z 0.057730 0.000000 2.202420 
# 
# From -- ./inp_files/143544.got.cif
#   From: 2010.05.17/outbox.cif.g08.bks.cpg/sg15_72_cif.got.tgz:143544.got - 2010.06.03 18:47:42.
