data_PCOD9257493
_publ_section_title
;
Structure prediction by ZEFSAII (Michael W. Deem and Ramdas Pophale) SiO2 
 PCOD9257493
Probable space group: C 2/C
;
_chemical_formula_sum "Si O2"
_cell_formula_units_Z 48
_cell_length_a 21.426445
_cell_length_b 24.051377
_cell_length_c 14.882370
_cell_angle_alpha 90.000000
_cell_angle_beta 159.947474
_cell_angle_gamma 90.000000
_cell_volume 2629.699793
_symmetry_space_group_name_H-M "C 2/C"
_symmetry_group_IT_number 15
_symmetry_cell_setting 'monoclinic'
loop_
_space_group_symop_operation_xyz
x,y,z
-x,y,1/2-z
-x,-y,-z
x,-y,1/2+z
1/2+x,1/2+y,z
1/2-x,1/2+y,1/2-z
1/2-x,1/2-y,-z
1/2+x,1/2-y,1/2+z
loop_
_atom_site_type_symbol
_atom_site_label
_atom_site_fract_x
_atom_site_fract_y
_atom_site_fract_z
Si Si1 0.500000 0.465790 0.250000
Si Si2 0.683889 0.362648 0.587745
Si Si3 0.000000 0.604801 0.250000
Si Si4 0.221009 0.184438 0.955474
Si Si5 0.902942 0.479203 0.460513
Si Si6 0.991517 0.037673 0.398760
Si Si7 0.832113 0.403822 0.963507
O O1 0.630206 0.424882 0.482228
O O2 0.409466 0.503520 0.203817
O O3 0.491646 0.331329 0.340642
O O4 0.783205 0.336232 0.637883
O O5 0.795287 0.365509 0.828516
O O6 0.170304 0.646814 0.468646
O O7 0.011175 0.565619 0.353740
O O8 0.250000 0.250000 0.000000
O O9 0.878636 0.534943 0.487155
O O10 0.000000 0.500000 0.500000
O O11 0.704373 0.453886 0.165594
O O12 0.857941 0.088054 0.240382
O O13 0.000000 0.000000 0.500000
O O14 0.000000 0.385205 0.250000
#
# Coordination Sequence:
#
# PCOD9257493 Si02
#       7
#     4   8   4   8   8   8   8
#     4  10  18  31  56  72 110 160 187 226 282 332
#     4  10  21  36  60  80 115 153 193 238 307 348
#     4  12  22  33  58  86 116 156 191 244 296 354
#     4  10  22  39  62  86 110 143 201 263 311 341
#     4  11  23  32  50  83 122 157 197 232 281 366
#     4  10  21  33  48  72 117 159 199 226 271 340
#     4  11  22  35  54  80 120 159 199 224 279 371
#
# _framework density 18.253035000000001
#
# number of rings (size 3 to 8) (size 9 to 14) (size 15 to 20)
#    0.000    1.667    4.167    3.000   11.667    0.000 
#    0.000    0.000    0.000    1.000    0.000    0.000 
#    0.000    0.000    0.000    0.000    0.000    0.000 
#
# Total GULP energy -133822.312893 kJ/mol
# GULP energy per Si atom -5575.929704 kJ/mol
# Density = 1.821149 g / cm^3
# Si number density = 18.253035 Si / 1000 Ang^3
#
#
#
# Elastic Constant Matrix: (Units=GPa)
#
#
# Indices 1 2 3 4 5 6 
#
# 1 107.2151 31.1653 41.3033 0.0000 -8.8623 0.0000
# 2 31.1653 67.1660 13.0096 0.0000 -7.3756 0.0000
# 3 41.3033 13.0096 95.3937 0.0001 -18.5115 0.0001
# 4 0.0000 0.0000 0.0001 10.4887 0.0000 -1.8020
# 5 -8.8623 -7.3756 -18.5115 0.0000 37.7359 0.0000
# 6 0.0000 0.0000 0.0001 -1.8020 0.0000 4.7789
#
#
#
# Elastic Compliance Matrix: (Units=1/GPa)
#
#
# Indices 1 2 3 4 5 6 
#
# 1 0.012606 -0.004951 -0.004859 0.000000 -0.000391 0.000000
# 2 -0.004951 0.017400 0.000227 0.000000 0.002349 0.000000
# 3 -0.004859 0.000227 0.013641 0.000000 0.005595 0.000000
# 4 0.000000 0.000000 0.000000 0.101945 0.000000 0.038441
# 5 -0.000391 0.002349 0.005595 0.000000 0.029612 0.000000
# 6 0.000000 0.000000 0.000000 0.038441 0.000000 0.223750
#
#
# Mechanical properties :
#
#
# Convention : Reuss Voigt Hill
#
# Bulk Modulus (GPa) = 40.84798 48.97013 44.90905
# Shear Modulus (GPa) = 11.72939 22.88714 17.30826
#
# Velocity S-wave (km/s) = 2.53770 3.54486 3.08269
# Velocity P-wave (km/s) = 5.56901 6.60617 6.10964
#
# Compressibility (1/GPa) = 0.02448101
#
# Stress axis : x y z
#
# Youngs Moduli (GPa) = 79.33010 57.47193 73.30652
#
# Poissons Ratio (x) = 0.28453 0.35616
# Poissons Ratio (y) = 0.39275 -0.01661
# Poissons Ratio (z) = 0.38543 -0.01302
#
# Static dielectric constant tensor:
#      x y z
#    x 1.665440 0.000000 0.030570 
#    y 0.000000 1.637520 0.000000 
#    z 0.030570 0.000000 1.700680 
# 
# From -- ./inp_files/169828.got.cif
#   From: 2010.05.17/outbox.cif.g08.bks.cpg/sg15_85_cif.got.tgz:169828.got - 2010.06.03 18:47:42.
