data_PCOD9257437
_publ_section_title
;
Structure prediction by ZEFSAII (Michael W. Deem and Ramdas Pophale) SiO2 
 PCOD9257437
Probable space group: C 2/C
;
_chemical_formula_sum "Si O2"
_cell_formula_units_Z 48
_cell_length_a 7.208956
_cell_length_b 19.167193
_cell_length_c 13.683319
_cell_angle_alpha 90.000000
_cell_angle_beta 82.184032
_cell_angle_gamma 90.000000
_cell_volume 1873.134142
_symmetry_space_group_name_H-M "C 2/C"
_symmetry_group_IT_number 15
_symmetry_cell_setting 'monoclinic'
loop_
_space_group_symop_operation_xyz
x,y,z
-x,y,1/2-z
-x,-y,-z
x,-y,1/2+z
1/2+x,1/2+y,z
1/2-x,1/2+y,1/2-z
1/2-x,1/2-y,-z
1/2+x,1/2-y,1/2+z
loop_
_atom_site_type_symbol
_atom_site_label
_atom_site_fract_x
_atom_site_fract_y
_atom_site_fract_z
Si Si1 0.000000 0.715914 0.750000
Si Si2 0.633326 0.570045 0.604915
Si Si3 0.006471 0.673450 0.431845
Si Si4 0.000000 0.955623 0.750000
Si Si5 0.791626 0.609978 0.906344
Si Si6 0.814978 0.547151 0.381544
Si Si7 0.216023 0.785023 0.125174
O O1 0.121521 0.667559 0.670220
O O2 0.142973 0.755176 0.812513
O O3 0.630759 0.504030 0.673571
O O4 0.424896 0.591054 0.586605
O O5 0.743654 0.552867 0.498934
O O6 0.691225 0.636441 0.664945
O O7 0.967473 0.607712 0.366342
O O8 0.981392 0.745422 0.374209
O O9 0.831782 0.692325 0.518437
O O10 0.168775 0.645946 0.490821
O O11 0.148066 0.929481 0.820397
O O12 0.880593 0.533668 0.873101
#
# Coordination Sequence:
#
# PCOD9257437 Si02
#       7
#     4   8   8   4   8   8   8
#     4  10  20  33  56  79 106 144 184 230 264 322
#     4  10  20  35  58  80 108 142 181 227 267 325
#     4   9  19  33  51  76 106 139 172 217 268 322
#     4  10  18  31  54  79 102 136 176 216 266 312
#     4  10  19  34  56  80 105 141 183 222 273 319
#     4  10  20  35  56  81 109 140 179 223 272 325
#     4   9  18  34  52  75 104 139 179 215 267 319
#
# _framework density 25.625502000000001
#
# number of rings (size 3 to 8) (size 9 to 14) (size 15 to 20)
#    0.000    2.333    0.000    4.500    0.000    1.333 
#    0.000    3.333    0.000   13.000    0.000    0.000 
#    0.000    0.000    0.000    0.000    0.000    0.000 
#
# Total GULP energy -133744.601123 kJ/mol
# GULP energy per Si atom -5572.691713 kJ/mol
# Density = 2.556718 g / cm^3
# Si number density = 25.625502 Si / 1000 Ang^3
#
#
#
# Elastic Constant Matrix: (Units=GPa)
#
#
# Indices 1 2 3 4 5 6 
#
# 1 33.9927 8.6805 7.6508 0.0000 8.8167 0.0000
# 2 8.6805 71.2773 7.5273 0.0000 11.5884 0.0000
# 3 7.6508 7.5273 93.2636 0.0000 19.5545 0.0000
# 4 0.0000 0.0000 0.0000 -319.6712 0.0000 -178.7259
# 5 8.8167 11.5884 19.5545 0.0000 43.4963 0.0000
# 6 0.0000 0.0000 0.0000 -178.7259 0.0000 -84.1743
#
#
#
# Elastic Compliance Matrix: (Units=1/GPa)
#
#
# Indices 1 2 3 4 5 6 
#
# 1 0.031771 -0.002906 -0.001307 0.000000 -0.005078 0.000000
# 2 -0.002906 0.014944 -0.000283 0.000000 -0.003265 0.000000
# 3 -0.001307 -0.000283 0.011903 0.000000 -0.005011 0.000000
# 4 0.000000 0.000000 0.000000 0.016718 0.000000 -0.035498
# 5 -0.005078 -0.003265 -0.005011 0.000000 0.027142 0.000000
# 6 0.000000 0.000000 0.000000 -0.035498 0.000000 0.063492
#
#
# Mechanical properties :
#
#
# Convention : Reuss Voigt Hill
#
# Bulk Modulus (GPa) = 20.15029 27.36120 23.75574
# Shear Modulus (GPa) = 26.10894 -60.42485 -17.15795
#
# Velocity S-wave (km/s) = 3.19543 -4.86119 -2.59040
# Velocity P-wave (km/s) = 4.63625 4.56155 0.58614
#
# Compressibility (1/GPa) = 0.04962708
#
# Stress axis : x y z
#
# Youngs Moduli (GPa) = 31.47483 66.91490 84.01251
#
# Poissons Ratio (x) = 0.19443 0.10981
# Poissons Ratio (y) = 0.09145 0.02379
# Poissons Ratio (z) = 0.04114 0.01895
#
# Static dielectric constant tensor:
#      x y z
#    x 2.081190 0.000000 0.006840 
#    y 0.000000 2.177370 0.000000 
#    z 0.006840 0.000000 2.127700 
# 
# From -- ./inp_files/135529.got.cif
#   From: 2010.05.17/outbox.cif.g08.bks.cpg/sg15_68_cif.got.tgz:135529.got - 2010.06.03 18:47:42.
