data_PCOD9257523
_publ_section_title
;
Structure prediction by ZEFSAII (Michael W. Deem and Ramdas Pophale) SiO2 
 PCOD9257523
Probable space group: C 2/C
;
_chemical_formula_sum "Si O2"
_cell_formula_units_Z 52
_cell_length_a 16.952288
_cell_length_b 11.332107
_cell_length_c 20.670799
_cell_angle_alpha 90.000000
_cell_angle_beta 138.734233
_cell_angle_gamma 90.000000
_cell_volume 2619.061797
_symmetry_space_group_name_H-M "C 2/C"
_symmetry_group_IT_number 15
_symmetry_cell_setting 'monoclinic'
loop_
_space_group_symop_operation_xyz
x,y,z
-x,y,1/2-z
-x,-y,-z
x,-y,1/2+z
1/2+x,1/2+y,z
1/2-x,1/2+y,1/2-z
1/2-x,1/2-y,-z
1/2+x,1/2-y,1/2+z
loop_
_atom_site_type_symbol
_atom_site_label
_atom_site_fract_x
_atom_site_fract_y
_atom_site_fract_z
Si Si1 0.929005 0.203687 0.563832
Si Si2 0.939292 0.571013 0.618473
Si Si3 0.392574 0.646135 0.732424
Si Si4 0.558193 0.082406 0.089835
Si Si5 0.000000 0.223195 0.250000
Si Si6 0.674793 0.863656 0.881053
Si Si7 0.755098 0.077711 0.116574
O O1 0.817498 0.128218 0.471997
O O2 0.874542 0.280453 0.590498
O O3 0.043906 0.132121 0.659687
O O4 0.978246 0.301191 0.546124
O O5 0.983430 0.691272 0.677674
O O6 0.883961 0.488571 0.640966
O O7 0.833734 0.589727 0.499779
O O8 0.041612 0.494406 0.644890
O O9 0.500000 0.616478 0.750000
O O10 0.359477 0.783439 0.701449
O O11 0.286370 0.560382 0.647485
O O12 0.686918 0.115052 0.140275
O O13 0.500000 0.000000 0.000000
O O14 0.120412 0.145674 0.317135
#
# Coordination Sequence:
#
# PCOD9257523 Si02
#       7
#     8   8   8   8   4   8   8
#     4   9  17  30  53  86 113 139 187 244 292 347
#     4  10  22  39  61  86 118 156 201 249 301 361
#     4  10  18  31  57  85 109 139 192 243 291 340
#     4   9  19  36  61  85 119 156 193 242 309 359
#     4  12  26  38  62  86 122 166 206 242 302 370
#     4   9  17  30  55  86 108 138 184 249 295 334
#     4  11  22  40  57  85 119 162 201 241 300 368
#
# _framework density 19.854437999999998
#
# number of rings (size 3 to 8) (size 9 to 14) (size 15 to 20)
#    0.000    2.154    0.769    5.077    5.385    1.231 
#    0.000    0.000    0.000    0.923    0.000    0.000 
#    0.000    0.000    0.000    0.000    0.000    0.000 
#
# Total GULP energy -144904.121886 kJ/mol
# GULP energy per Si atom -5573.235457 kJ/mol
# Density = 1.980925 g / cm^3
# Si number density = 19.854438 Si / 1000 Ang^3
#
#
#
# Elastic Constant Matrix: (Units=GPa)
#
#
# Indices 1 2 3 4 5 6 
#
# 1 88.6422 32.7567 32.5918 0.0000 13.2070 0.0000
# 2 32.7567 71.9022 35.0423 0.0000 1.6719 0.0000
# 3 32.5918 35.0423 112.9973 0.0000 13.0963 0.0000
# 4 0.0000 0.0000 0.0000 32.2737 0.0000 4.3209
# 5 13.2070 1.6719 13.0963 0.0000 15.8050 0.0000
# 6 0.0000 0.0000 0.0000 4.3209 0.0000 19.4790
#
#
#
# Elastic Compliance Matrix: (Units=1/GPa)
#
#
# Indices 1 2 3 4 5 6 
#
# 1 0.015788 -0.006308 -0.001268 0.000000 -0.011475 0.000000
# 2 -0.006308 0.019012 -0.004928 0.000000 0.007343 0.000000
# 3 -0.001268 -0.004928 0.011682 0.000000 -0.008100 0.000000
# 4 0.000000 0.000000 0.000000 0.031933 0.000000 -0.007084
# 5 -0.011475 0.007343 -0.008100 0.000000 0.078795 0.000000
# 6 0.000000 0.000000 0.000000 -0.007084 0.000000 0.052909
#
#
# Mechanical properties :
#
#
# Convention : Reuss Voigt Hill
#
# Bulk Modulus (GPa) = 46.56318 52.70260 49.63289
# Shear Modulus (GPa) = 20.63686 25.05493 22.84590
#
# Velocity S-wave (km/s) = 3.22748 3.55622 3.39583
# Velocity P-wave (km/s) = 6.11490 6.59275 6.35832
#
# Compressibility (1/GPa) = 0.02147619
#
# Stress axis : x y z
#
# Youngs Moduli (GPa) = 63.33851 52.59735 85.59971
#
# Poissons Ratio (x) = 0.33179 0.10850
# Poissons Ratio (y) = 0.39954 0.42181
# Poissons Ratio (z) = 0.08029 0.25918
#
# Static dielectric constant tensor:
#      x y z
#    x 1.741730 0.000000 -0.016720 
#    y 0.000000 1.716100 0.000000 
#    z -0.016720 0.000000 1.787090 
# 
# From -- ./inp_files/248672.got.cif
#   From: 2010.05.17/outbox.cif.g08.bks.cpg/sg15_125_cif.got.tgz:248672.got - 2010.06.03 18:47:42.
