data_PCOD9257509
_publ_section_title
;
Structure prediction by ZEFSAII (Michael W. Deem and Ramdas Pophale) SiO2 
 PCOD9257509
Probable space group: C 2/C
;
_chemical_formula_sum "Si O2"
_cell_formula_units_Z 40
_cell_length_a 13.179995
_cell_length_b 11.698471
_cell_length_c 24.098254
_cell_angle_alpha 90.000000
_cell_angle_beta 155.953661
_cell_angle_gamma 90.000000
_cell_volume 1514.018822
_symmetry_space_group_name_H-M "C 2/C"
_symmetry_group_IT_number 15
_symmetry_cell_setting 'monoclinic'
loop_
_space_group_symop_operation_xyz
x,y,z
-x,y,1/2-z
-x,-y,-z
x,-y,1/2+z
1/2+x,1/2+y,z
1/2-x,1/2+y,1/2-z
1/2-x,1/2-y,-z
1/2+x,1/2-y,1/2+z
loop_
_atom_site_type_symbol
_atom_site_label
_atom_site_fract_x
_atom_site_fract_y
_atom_site_fract_z
Si Si1 0.757885 0.766590 0.261238
Si Si2 0.645903 0.219565 0.378228
Si Si3 0.923531 0.212145 0.986566
Si Si4 0.549651 0.588476 0.331490
Si Si5 0.878971 0.537111 0.602949
O O1 0.691448 0.650571 0.262324
O O2 0.616086 0.878372 0.214244
O O3 0.031168 0.789667 0.372371
O O4 0.603014 0.738692 0.127552
O O5 0.500000 0.256042 0.250000
O O6 0.930266 0.218613 0.498160
O O7 0.563952 0.090412 0.351233
O O8 0.715976 0.307930 0.890719
O O9 0.792002 0.092927 0.934517
O O10 0.500000 0.517669 0.250000
O O11 0.718006 0.538841 0.465324
#
# Coordination Sequence:
#
# PCOD9257509 Si02
#       5
#     8   8   8   8   8
#     4   8  17  32  50  78 113 139 172 226 279 324
#     4  10  18  31  56  88 110 132 176 233 280 323
#     4   8  16  31  53  80 106 133 179 235 277 317
#     4   9  17  33  53  71 106 156 184 209 268 329
#     4   9  17  31  52  83 113 140 177 225 273 325
#
# _framework density 26.419750000000001
#
# number of rings (size 3 to 8) (size 9 to 14) (size 15 to 20)
#    0.000    3.200    0.000    3.000    0.000    3.200 
#    0.000    2.000    0.000    6.000    0.000    7.000 
#    0.000    0.000    0.000    0.000    0.000    0.000 
#
# Total GULP energy -111834.412613 kJ/mol
# GULP energy per Si atom -5591.720631 kJ/mol
# Density = 2.635962 g / cm^3
# Si number density = 26.419750 Si / 1000 Ang^3
#
#
#
# Elastic Constant Matrix: (Units=GPa)
#
#
# Indices 1 2 3 4 5 6 
#
# 1 224.7709 28.9169 33.7425 0.0000 14.9628 0.0002
# 2 28.9169 106.7745 14.7021 -0.0015 14.2779 0.0002
# 3 33.7425 14.7021 86.3341 -0.0096 20.3546 0.0019
# 4 0.0000 -0.0015 -0.0096 5.9214 -0.0005 1.9742
# 5 14.9628 14.2779 20.3546 -0.0005 66.4004 -0.0002
# 6 0.0002 0.0002 0.0019 1.9742 -0.0002 15.9196
#
#
#
# Elastic Compliance Matrix: (Units=1/GPa)
#
#
# Indices 1 2 3 4 5 6 
#
# 1 0.004852 -0.001040 -0.001632 -0.000003 -0.000369 0.000001
# 2 -0.001040 0.009991 -0.000909 0.000001 -0.001635 0.000000
# 3 -0.001632 -0.000909 0.013197 0.000022 -0.003482 -0.000004
# 4 -0.000003 0.000001 0.000022 0.176164 -0.000005 -0.021847
# 5 -0.000369 -0.001635 -0.003482 -0.000005 0.016562 0.000001
# 6 0.000001 0.000000 -0.000004 -0.021847 0.000001 0.065525
#
#
# Mechanical properties :
#
#
# Convention : Reuss Voigt Hill
#
# Bulk Modulus (GPa) = 47.90018 63.62251 55.76135
# Shear Modulus (GPa) = 16.64371 40.34948 28.49659
#
# Velocity S-wave (km/s) = 2.51265 3.91224 3.28778
# Velocity P-wave (km/s) = 5.15632 6.67392 5.96359
#
# Compressibility (1/GPa) = 0.02087675
#
# Stress axis : x y z
#
# Youngs Moduli (GPa) = 206.08356 100.08946 75.77675
#
# Poissons Ratio (x) = 0.10409 0.12369
# Poissons Ratio (y) = 0.21432 0.06891
# Poissons Ratio (z) = 0.33639 0.09102
#
# Static dielectric constant tensor:
#      x y z
#    x 2.123420 0.000000 -0.043460 
#    y 0.000000 1.950230 0.000000 
#    z -0.043460 0.000000 2.236700 
# 
# From -- ./inp_files/85697.got.cif
#   From: 2010.05.17/outbox.cif.g08.bks.cpg/sg15_43_cif.got.tgz:85697.got - 2010.06.03 18:47:42.
