data_PCOD9257154
_publ_section_title
;
Structure prediction by ZEFSAII (Michael W. Deem and Ramdas Pophale) SiO2 
 PCOD9257154
Probable space group: C 2/C
;
_chemical_formula_sum "Si O2"
_cell_formula_units_Z 60
_cell_length_a 18.970493
_cell_length_b 9.271874
_cell_length_c 20.987626
_cell_angle_alpha 90.000000
_cell_angle_beta 66.796205
_cell_angle_gamma 90.000000
_cell_volume 3392.943199
_symmetry_space_group_name_H-M "C 2/C"
_symmetry_group_IT_number 15
_symmetry_cell_setting 'monoclinic'
loop_
_space_group_symop_operation_xyz
x,y,z
-x,y,1/2-z
-x,-y,-z
x,-y,1/2+z
1/2+x,1/2+y,z
1/2-x,1/2+y,1/2-z
1/2-x,1/2-y,-z
1/2+x,1/2-y,1/2+z
loop_
_atom_site_type_symbol
_atom_site_label
_atom_site_fract_x
_atom_site_fract_y
_atom_site_fract_z
Si Si1 0.326137 0.376002 0.603532
Si Si2 0.303671 0.941427 0.144313
Si Si3 0.117359 0.273738 0.900467
Si Si4 0.237596 0.608951 0.698276
Si Si5 0.000000 0.032630 0.250000
Si Si6 0.864722 0.907759 0.983763
Si Si7 0.335360 0.355563 0.851186
Si Si8 0.027934 0.970209 0.383422
O O1 0.317295 0.205928 0.601588
O O2 0.257073 0.448551 0.667980
O O3 0.327721 0.459775 0.535855
O O4 0.402588 0.428619 0.614889
O O5 0.297935 0.894809 0.219762
O O6 0.371440 0.057351 0.110571
O O7 0.224990 0.026991 0.155317
O O8 0.182025 0.197353 0.832711
O O9 0.041104 0.188793 0.908036
O O10 0.135622 0.222842 0.965767
O O11 0.187214 0.699454 0.667057
O O12 0.077846 0.114873 0.202224
O O13 0.023339 0.956967 0.308478
O O14 0.828501 0.867015 0.929575
O O15 0.950782 0.958584 0.937053
#
# Coordination Sequence:
#
# PCOD9257154 Si02
#       8
#     8   8   8   8   4   8   8   8
#     4  10  19  32  53  75 102 134 169 215 258 301
#     4  11  20  31  51  79 104 131 169 215 259 300
#     4   9  18  32  53  74 101 136 171 208 250 302
#     4   9  18  32  50  72  99 131 168 207 248 299
#     4  10  18  30  56  78  96 130 174 218 256 300
#     4   9  19  35  53  74 101 139 173 207 249 308
#     4  10  20  34  54  76 101 131 171 210 254 309
#     4   9  17  34  54  74 100 135 178 210 249 308
#
# _framework density 17.683761000000001
#
# number of rings (size 3 to 8) (size 9 to 14) (size 15 to 20)
#    0.000    2.667    0.000    5.600    0.000    5.333 
#    0.000    2.667    0.000   13.600    0.000    0.000 
#    0.000    0.000    0.000    0.000    0.000    0.000 
#
# Total GULP energy -167067.632355 kJ/mol
# GULP energy per Si atom -5568.921078 kJ/mol
# Density = 1.764351 g / cm^3
# Si number density = 17.683761 Si / 1000 Ang^3
#
#
#
# Elastic Constant Matrix: (Units=GPa)
#
#
# Indices 1 2 3 4 5 6 
#
# 1 52.0515 12.6283 8.2340 0.0000 11.3097 0.0000
# 2 12.6283 100.7452 25.2926 0.0000 12.9866 0.0000
# 3 8.2340 25.2926 104.5799 0.0000 18.7876 0.0000
# 4 0.0000 0.0000 0.0000 4.9783 0.0000 0.8217
# 5 11.3097 12.9866 18.7876 0.0000 21.4909 0.0000
# 6 0.0000 0.0000 0.0000 0.8217 0.0000 14.6208
#
#
#
# Elastic Compliance Matrix: (Units=1/GPa)
#
#
# Indices 1 2 3 4 5 6 
#
# 1 0.021899 -0.001462 0.000642 0.000000 -0.011202 0.000000
# 2 -0.001462 0.011124 -0.001786 0.000000 -0.004391 0.000000
# 3 0.000642 -0.001786 0.011638 0.000000 -0.009432 0.000000
# 4 0.000000 0.000000 0.000000 0.202751 0.000000 -0.011395
# 5 -0.011202 -0.004391 -0.009432 0.000000 0.063326 0.000000
# 6 0.000000 0.000000 0.000000 -0.011395 0.000000 0.069036
#
#
# Mechanical properties :
#
#
# Convention : Reuss Voigt Hill
#
# Bulk Modulus (GPa) = 25.35020 38.85405 32.10212
# Shear Modulus (GPa) = 12.55852 22.29945 17.42899
#
# Velocity S-wave (km/s) = 2.66780 3.55493 3.14282
# Velocity P-wave (km/s) = 4.88425 6.23452 5.60023
#
# Compressibility (1/GPa) = 0.03944742
#
# Stress axis : x y z
#
# Youngs Moduli (GPa) = 45.66440 89.89743 85.92482
#
# Poissons Ratio (x) = 0.13144 -0.05515
# Poissons Ratio (y) = 0.06677 0.15349
# Poissons Ratio (z) = -0.02931 0.16059
#
# Static dielectric constant tensor:
#      x y z
#    x 1.637320 0.000000 -0.005790 
#    y 0.000000 1.600400 0.000000 
#    z -0.005790 0.000000 1.622070 
# 
# From -- ./inp_files/251527.got.cif
#   From: 2010.05.17/outbox.cif.g08.bks.cpg/sg15_126_cif.got.tgz:251527.got - 2010.06.03 18:47:42.
