data_PCOD9257785
_publ_section_title
;
Structure prediction by ZEFSAII (Michael W. Deem and Ramdas Pophale) SiO2 
 PCOD9257785
Probable space group: C 2/C
;
_chemical_formula_sum "Si O2"
_cell_formula_units_Z 64
_cell_length_a 17.166934
_cell_length_b 12.861448
_cell_length_c 25.271002
_cell_angle_alpha 90.000000
_cell_angle_beta 149.851765
_cell_angle_gamma 90.000000
_cell_volume 2802.305047
_symmetry_space_group_name_H-M "C 2/C"
_symmetry_group_IT_number 15
_symmetry_cell_setting 'monoclinic'
loop_
_space_group_symop_operation_xyz
x,y,z
-x,y,1/2-z
-x,-y,-z
x,-y,1/2+z
1/2+x,1/2+y,z
1/2-x,1/2+y,1/2-z
1/2-x,1/2-y,-z
1/2+x,1/2-y,1/2+z
loop_
_atom_site_type_symbol
_atom_site_label
_atom_site_fract_x
_atom_site_fract_y
_atom_site_fract_z
Si Si1 0.140860 0.970034 0.158779
Si Si2 0.206220 0.064450 0.085743
Si Si3 0.730314 0.717225 0.842344
Si Si4 0.216720 0.347712 0.411677
Si Si5 0.772835 0.251376 0.774534
Si Si6 0.409807 0.823202 0.957547
Si Si7 0.176690 0.007826 0.304762
Si Si8 0.467388 0.321441 0.644646
O O1 0.231845 0.863528 0.203792
O O2 0.188593 0.994048 0.247206
O O3 0.176899 0.047680 0.131709
O O4 0.958006 0.944902 0.041992
O O5 0.269937 0.182195 0.120078
O O6 0.300787 0.962832 0.122267
O O7 0.658824 0.748172 0.743719
O O8 0.662074 0.606967 0.819908
O O9 0.907506 0.687874 0.928965
O O10 0.317766 0.269292 0.433749
O O11 0.317574 0.357412 0.524734
O O12 0.069249 0.281693 0.343746
O O13 0.882161 0.311865 0.878751
O O14 0.601071 0.296147 0.680645
O O15 0.321144 0.931374 0.916527
O O16 0.033823 0.087107 0.219209
#
# Coordination Sequence:
#
# PCOD9257785 Si02
#       8
#     8   8   8   8   8   8   8   8
#     4  10  18  32  53  83 121 159 193 244 317 355
#     4  11  18  33  54  83 120 159 201 247 300 369
#     4  11  21  34  55  87 127 155 204 248 315 369
#     4  11  21  35  59  87 119 163 205 259 294 362
#     4  10  19  32  54  83 121 158 199 255 304 356
#     4  11  19  35  54  86 119 160 204 252 309 357
#     4  10  22  34  54  84 124 163 193 258 303 372
#     4  10  21  37  55  88 122 157 214 251 301 353
#
# _framework density 22.838341
#
# number of rings (size 3 to 8) (size 9 to 14) (size 15 to 20)
#    0.000    1.500    5.000    2.625    0.000    2.000 
#    0.000    0.000    0.000    0.000    6.500    1.750 
#    0.000    0.000    0.000    0.000    0.000    0.000 
#
# Total GULP energy -178476.385581 kJ/mol
# GULP energy per Si atom -5577.387049 kJ/mol
# Density = 2.278636 g / cm^3
# Si number density = 22.838341 Si / 1000 Ang^3
#
#
#
# Elastic Constant Matrix: (Units=GPa)
#
#
# Indices 1 2 3 4 5 6 
#
# 1 41.1895 32.8409 6.9886 0.0001 -5.7732 0.0000
# 2 32.8409 206.4766 17.9056 0.0001 6.4069 0.0000
# 3 6.9886 17.9056 31.4509 0.0006 -4.4762 0.0002
# 4 0.0001 0.0001 0.0006 12.9521 0.0002 -12.1881
# 5 -5.7732 6.4069 -4.4762 0.0002 16.6183 0.0001
# 6 0.0000 0.0000 0.0002 -12.1881 0.0001 27.7306
#
#
#
# Elastic Compliance Matrix: (Units=1/GPa)
#
#
# Indices 1 2 3 4 5 6 
#
# 1 0.030297 -0.004996 -0.002200 -0.000001 0.011859 0.000000
# 2 -0.004996 0.006052 -0.003031 0.000000 -0.004885 0.000000
# 3 -0.002200 -0.003031 0.035425 -0.000004 0.009946 -0.000002
# 4 -0.000001 0.000000 -0.000004 0.131662 -0.000004 0.057868
# 5 0.011859 -0.004885 0.009946 -0.000004 0.068857 -0.000002
# 6 0.000000 0.000000 -0.000002 0.057868 -0.000002 0.061496
#
#
# Mechanical properties :
#
#
# Convention : Reuss Voigt Hill
#
# Bulk Modulus (GPa) = 19.48528 43.84301 31.66415
# Shear Modulus (GPa) = 13.46439 26.21901 19.84170
#
# Velocity S-wave (km/s) = 2.43070 3.39193 2.95072
# Velocity P-wave (km/s) = 4.05316 5.88039 5.05011
#
# Compressibility (1/GPa) = 0.05132079
#
# Stress axis : x y z
#
# Youngs Moduli (GPa) = 33.00679 165.22875 28.22827
#
# Poissons Ratio (x) = 0.82548 0.06210
# Poissons Ratio (y) = 0.16490 0.08555
# Poissons Ratio (z) = 0.07262 0.50077
#
# Static dielectric constant tensor:
#      x y z
#    x 1.878150 0.000000 0.014000 
#    y 0.000000 1.924560 0.000000 
#    z 0.014000 0.000000 1.892640 
# 
# From -- ./inp_files/300869.got.cif
#   From: 2010.05.17/outbox.cif.g08.bks.cpg/sg15_151_cif.got.tgz:300869.got - 2010.06.03 18:47:42.
