data_PCOD9257352
_publ_section_title
;
Structure prediction by ZEFSAII (Michael W. Deem and Ramdas Pophale) SiO2 
 PCOD9257352
Probable space group: C 2/C
;
_chemical_formula_sum "Si O2"
_cell_formula_units_Z 48
_cell_length_a 21.663195
_cell_length_b 8.916034
_cell_length_c 16.794082
_cell_angle_alpha 90.000000
_cell_angle_beta 131.862302
_cell_angle_gamma 90.000000
_cell_volume 2415.802720
_symmetry_space_group_name_H-M "C 2/C"
_symmetry_group_IT_number 15
_symmetry_cell_setting 'monoclinic'
loop_
_space_group_symop_operation_xyz
x,y,z
-x,y,1/2-z
-x,-y,-z
x,-y,1/2+z
1/2+x,1/2+y,z
1/2-x,1/2+y,1/2-z
1/2-x,1/2-y,-z
1/2+x,1/2-y,1/2+z
loop_
_atom_site_type_symbol
_atom_site_label
_atom_site_fract_x
_atom_site_fract_y
_atom_site_fract_z
Si Si1 0.113000 0.053904 0.031791
Si Si2 0.153254 0.160695 0.327043
Si Si3 0.931225 0.909323 0.333394
Si Si4 0.175780 0.689476 0.684666
Si Si5 0.660194 0.736136 0.501612
Si Si6 0.856408 0.339267 0.851235
O O1 0.141475 0.220180 0.079093
O O2 0.095180 0.981615 0.103681
O O3 0.173765 0.938977 0.038873
O O4 0.028144 0.058909 0.909680
O O5 0.134184 0.254637 0.231100
O O6 0.253122 0.173411 0.424652
O O7 0.119949 0.229155 0.380381
O O8 0.121063 0.994704 0.278741
O O9 0.912921 0.733985 0.331884
O O10 0.165394 0.512693 0.671961
O O11 0.270511 0.746003 0.771326
O O12 0.608316 0.804924 0.529942
#
# Coordination Sequence:
#
# PCOD9257352 Si02
#       6
#     8   8   8   8   8   8
#     4   9  18  32  50  73 100 133 174 217 263 313
#     4   9  17  31  51  74 101 134 174 217 261 311
#     4   9  18  32  50  73 100 133 174 217 263 313
#     4  10  18  31  52  75 103 140 181 222 261 311
#     4   9  17  31  51  74 101 134 174 217 261 311
#     4  10  18  31  52  75 103 140 181 222 261 311
#
# _framework density 19.869173
#
# number of rings (size 3 to 8) (size 9 to 14) (size 15 to 20)
#    0.000    2.667    0.000    5.000    0.000    1.333 
#    0.000    1.667    0.000   12.000    0.000    0.000 
#    0.000    0.000    0.000    0.000    0.000    0.000 
#
# Total GULP energy -133620.311196 kJ/mol
# GULP energy per Si atom -5567.512966 kJ/mol
# Density = 1.982395 g / cm^3
# Si number density = 19.869173 Si / 1000 Ang^3
#
#
#
# Elastic Constant Matrix: (Units=GPa)
#
#
# Indices 1 2 3 4 5 6 
#
# 1 24.0372 11.5109 24.8049 0.0000 -2.7966 0.0000
# 2 11.5109 122.4282 31.0540 0.0000 5.2667 0.0000
# 3 24.8049 31.0540 78.0888 0.0000 -6.9533 0.0000
# 4 0.0000 0.0000 0.0000 15.7785 0.0000 -1.9077
# 5 -2.7966 5.2667 -6.9533 0.0000 24.4689 0.0000
# 6 0.0000 0.0000 0.0000 -1.9077 0.0000 15.7305
#
#
#
# Elastic Compliance Matrix: (Units=1/GPa)
#
#
# Indices 1 2 3 4 5 6 
#
# 1 0.062067 -0.001066 -0.019123 0.000000 0.001889 0.000000
# 2 -0.001066 0.009332 -0.003654 0.000000 -0.003169 0.000000
# 3 -0.019123 -0.003654 0.020734 0.000000 0.004493 0.000000
# 4 0.000000 0.000000 0.000000 0.064321 0.000000 0.007800
# 5 0.001889 -0.003169 0.004493 0.000000 0.043043 0.000000
# 6 0.000000 0.000000 0.000000 0.007800 0.000000 0.064517
#
#
# Mechanical properties :
#
#
# Convention : Reuss Voigt Hill
#
# Bulk Modulus (GPa) = 22.50016 39.92156 31.21086
# Shear Modulus (GPa) = 15.31324 21.67453 18.49388
#
# Velocity S-wave (km/s) = 2.77917 3.30640 3.05418
# Velocity P-wave (km/s) = 4.65264 5.89171 5.30845
#
# Compressibility (1/GPa) = 0.04444412
#
# Stress axis : x y z
#
# Youngs Moduli (GPa) = 16.11170 107.16310 48.23047
#
# Poissons Ratio (x) = 0.11426 0.92233
# Poissons Ratio (y) = 0.01718 0.17625
# Poissons Ratio (z) = 0.30811 0.39162
#
# Static dielectric constant tensor:
#      x y z
#    x 1.773660 0.000000 -0.010920 
#    y 0.000000 1.738430 0.000000 
#    z -0.010920 0.000000 1.738460 
# 
# From -- ./inp_files/218378.got.cif
#   From: 2010.05.17/outbox.cif.g08.bks.cpg/sg15_110_cif.got.tgz:218378.got - 2010.06.03 18:47:42.
