data_PCOD9257695
_publ_section_title
;
Structure prediction by ZEFSAII (Michael W. Deem and Ramdas Pophale) SiO2 
 PCOD9257695
Probable space group: C 2/C
;
_chemical_formula_sum "Si O2"
_cell_formula_units_Z 56
_cell_length_a 10.838629
_cell_length_b 25.491680
_cell_length_c 15.054438
_cell_angle_alpha 90.000000
_cell_angle_beta 41.489779
_cell_angle_gamma 90.000000
_cell_volume 2755.588377
_symmetry_space_group_name_H-M "C 2/C"
_symmetry_group_IT_number 15
_symmetry_cell_setting 'monoclinic'
loop_
_space_group_symop_operation_xyz
x,y,z
-x,y,1/2-z
-x,-y,-z
x,-y,1/2+z
1/2+x,1/2+y,z
1/2-x,1/2+y,1/2-z
1/2-x,1/2-y,-z
1/2+x,1/2-y,1/2+z
loop_
_atom_site_type_symbol
_atom_site_label
_atom_site_fract_x
_atom_site_fract_y
_atom_site_fract_z
Si Si1 0.527806 0.262833 0.630178
Si Si2 0.222712 0.029321 0.614239
Si Si3 0.603551 0.373964 0.838021
Si Si4 0.911043 0.346450 0.203199
Si Si5 0.281542 0.450202 0.187853
Si Si6 0.241601 0.406909 0.932512
Si Si7 0.282002 0.547573 0.072873
O O1 0.500000 0.275504 0.750000
O O2 0.750000 0.250000 0.500000
O O3 0.455822 0.313654 0.615808
O O4 0.402286 0.212409 0.670605
O O5 0.299580 0.041236 0.670126
O O6 0.295814 0.057459 0.484859
O O7 0.000000 0.038286 0.750000
O O8 0.263134 0.968575 0.578042
O O9 0.408674 0.400535 0.913703
O O10 0.716307 0.380661 0.685268
O O11 0.707323 0.405385 0.860897
O O12 0.747569 0.387939 0.309777
O O13 0.000000 0.335577 0.250000
O O14 0.063905 0.378428 0.066729
O O15 0.206103 0.494169 0.160021
O O16 0.500611 0.461814 0.066949
#
# Coordination Sequence:
#
# PCOD9257695 Si02
#       7
#     8   8   8   8   8   8   8
#     4  11  21  34  52  79 112 145 181 226 280 336
#     4  10  18  32  52  74 102 136 181 221 261 321
#     4  11  18  33  54  75 106 144 178 220 270 335
#     4  11  22  32  50  79 111 138 175 227 279 329
#     4  10  20  34  51  78 107 140 178 230 272 317
#     4  11  18  32  51  74 105 143 168 217 278 331
#     4  10  19  33  55  76 101 143 188 217 268 333
#
# _framework density 20.322337999999998
#
# number of rings (size 3 to 8) (size 9 to 14) (size 15 to 20)
#    0.000    1.429    5.714    3.429    2.000    0.571 
#    0.000    0.000    0.000    0.857    0.000    0.000 
#    0.000    0.000    0.000    0.000    0.000    0.000 
#
# Total GULP energy -155988.007914 kJ/mol
# GULP energy per Si atom -5571.000283 kJ/mol
# Density = 2.027608 g / cm^3
# Si number density = 20.322338 Si / 1000 Ang^3
#
#
#
# Elastic Constant Matrix: (Units=GPa)
#
#
# Indices 1 2 3 4 5 6 
#
# 1 27.7074 27.4879 35.0644 0.0000 14.0199 0.0000
# 2 27.4879 136.8043 15.5055 0.0000 12.3560 0.0000
# 3 35.0644 15.5055 91.3830 0.0000 22.0151 0.0000
# 4 0.0000 0.0000 0.0000 18.7896 0.0000 -0.9690
# 5 14.0199 12.3560 22.0151 0.0000 26.7461 0.0000
# 6 0.0000 0.0000 0.0000 -0.9690 0.0000 10.1410
#
#
#
# Elastic Compliance Matrix: (Units=1/GPa)
#
#
# Indices 1 2 3 4 5 6 
#
# 1 0.100448 -0.014830 -0.031174 0.000000 -0.020142 0.000000
# 2 -0.014830 0.009840 0.004045 0.000000 -0.000102 0.000000
# 3 -0.031174 0.004045 0.023365 0.000000 -0.004760 0.000000
# 4 0.000000 0.000000 0.000000 0.053484 0.000000 0.005110
# 5 -0.020142 -0.000102 -0.004760 0.000000 0.051912 0.000000
# 6 0.000000 0.000000 0.000000 0.005110 0.000000 0.099098
#
#
# Mechanical properties :
#
#
# Convention : Reuss Voigt Hill
#
# Bulk Modulus (GPa) = 20.10641 45.77893 32.94267
# Shear Modulus (GPa) = 11.39879 22.99113 17.19496
#
# Velocity S-wave (km/s) = 2.37090 3.36716 2.91195
# Velocity P-wave (km/s) = 4.17254 6.13941 5.24893
#
# Compressibility (1/GPa) = 0.04973539
#
# Stress axis : x y z
#
# Youngs Moduli (GPa) = 9.95545 101.62334 42.79914
#
# Poissons Ratio (x) = 1.50711 1.33421
# Poissons Ratio (y) = 0.14764 -0.17314
# Poissons Ratio (z) = 0.31035 -0.41111
#
# Static dielectric constant tensor:
#      x y z
#    x 1.792110 0.000000 0.026740 
#    y 0.000000 1.855210 0.000000 
#    z 0.026740 0.000000 1.790750 
# 
# From -- ./inp_files/148516.got.cif
#   From: 2010.05.17/outbox.cif.g08.bks.cpg/sg15_75_cif.got.tgz:148516.got - 2010.06.03 18:47:42.
