data_PCOD9257540
_publ_section_title
;
Structure prediction by ZEFSAII (Michael W. Deem and Ramdas Pophale) SiO2 
 PCOD9257540
Probable space group: C 2/C
;
_chemical_formula_sum "Si O2"
_cell_formula_units_Z 40
_cell_length_a 16.698859
_cell_length_b 5.721310
_cell_length_c 25.692397
_cell_angle_alpha 90.000000
_cell_angle_beta 135.272195
_cell_angle_gamma 90.000000
_cell_volume 1727.423680
_symmetry_space_group_name_H-M "C 2/C"
_symmetry_group_IT_number 15
_symmetry_cell_setting 'monoclinic'
loop_
_space_group_symop_operation_xyz
x,y,z
-x,y,1/2-z
-x,-y,-z
x,-y,1/2+z
1/2+x,1/2+y,z
1/2-x,1/2+y,1/2-z
1/2-x,1/2-y,-z
1/2+x,1/2-y,1/2+z
loop_
_atom_site_type_symbol
_atom_site_label
_atom_site_fract_x
_atom_site_fract_y
_atom_site_fract_z
Si Si1 0.491648 0.065407 0.182892
Si Si2 0.758243 0.924419 0.456566
Si Si3 0.821503 0.587100 0.390381
Si Si4 0.075218 0.063061 0.231127
Si Si5 0.451839 0.699222 0.515851
O O1 0.500000 0.064456 0.250000
O O2 0.543072 0.315515 0.190520
O O3 0.359882 0.054093 0.106581
O O4 0.547330 0.814935 0.191866
O O5 0.750000 0.750000 0.500000
O O6 0.783816 0.778822 0.415819
O O7 0.866912 0.085107 0.517002
O O8 0.709136 0.546940 0.305417
O O9 0.869246 0.366928 0.444422
O O10 0.935487 0.669412 0.413395
O O11 0.000000 0.068533 0.250000
O O12 0.500000 0.500000 0.500000
#
# Coordination Sequence:
#
# PCOD9257540 Si02
#       5
#     8   8   8   8   8
#     4  10  19  34  55  87 121 153 204 256 317 368
#     4  11  22  36  57  94 132 162 201 271 336 385
#     4  10  19  36  58  90 114 163 212 266 311 378
#     4  10  18  31  58  84 117 145 208 260 309 356
#     4   9  20  35  56  85 120 160 209 255 312 383
#
# _framework density 23.155871000000001
#
# number of rings (size 3 to 8) (size 9 to 14) (size 15 to 20)
#    0.000    2.000    4.000    2.400    2.800    0.800 
#    0.000    0.000    0.000    0.000   15.600    0.000 
#    0.000    0.000    0.000    0.000    0.000    0.000 
#
# Total GULP energy -111732.003706 kJ/mol
# GULP energy per Si atom -5586.600185 kJ/mol
# Density = 2.310317 g / cm^3
# Si number density = 23.155871 Si / 1000 Ang^3
#
#
#
# Elastic Constant Matrix: (Units=GPa)
#
#
# Indices 1 2 3 4 5 6 
#
# 1 67.8778 55.1481 79.9909 0.0001 34.6380 0.0000
# 2 55.1481 189.0991 69.0067 0.0003 31.5567 -0.0003
# 3 79.9909 69.0067 141.2910 0.0002 54.8629 -0.0007
# 4 0.0001 0.0003 0.0002 35.9520 0.0000 37.6103
# 5 34.6380 31.5567 54.8629 0.0000 52.5800 0.0000
# 6 0.0000 -0.0003 -0.0007 37.6103 0.0000 -66.7531
#
#
#
# Elastic Compliance Matrix: (Units=1/GPa)
#
#
# Indices 1 2 3 4 5 6 
#
# 1 0.048492 -0.004871 -0.023209 0.000000 -0.004806 0.000000
# 2 -0.004871 0.006955 -0.000444 0.000000 -0.000502 0.000000
# 3 -0.023209 -0.000444 0.024198 0.000000 -0.009692 0.000000
# 4 0.000000 0.000000 0.000000 0.017500 0.000000 0.009860
# 5 -0.004806 -0.000502 -0.009692 0.000000 0.032599 0.000000
# 6 0.000000 0.000000 0.000000 0.009860 0.000000 -0.009425
#
#
# Mechanical properties :
#
#
# Convention : Reuss Voigt Hill
#
# Bulk Modulus (GPa) = 44.25397 89.61770 66.93584
# Shear Modulus (GPa) = 27.04198 17.29726 22.16962
#
# Velocity S-wave (km/s) = 3.42105 2.73608 3.09756
# Velocity P-wave (km/s) = 5.89556 6.98337 6.46239
#
# Compressibility (1/GPa) = 0.02259684
#
# Stress axis : x y z
#
# Youngs Moduli (GPa) = 20.62182 143.79049 41.32648
#
# Poissons Ratio (x) = 0.70037 0.95914
# Poissons Ratio (y) = 0.10044 0.01836
# Poissons Ratio (z) = 0.47861 0.06389
#
# Static dielectric constant tensor:
#      x y z
#    x 1.853090 0.000000 -0.007060 
#    y 0.000000 1.926250 0.000000 
#    z -0.007060 0.000000 1.778100 
# 
# From -- ./inp_files/208011.got.cif
#   From: 2010.05.17/outbox.cif.g08.bks.cpg/sg15_105_cif.got.tgz:208011.got - 2010.06.03 18:47:42.
