data_PCOD9257087
_publ_section_title
;
Structure prediction by ZEFSAII (Michael W. Deem and Ramdas Pophale) SiO2 
 PCOD9257087
Probable space group: C 2/C
;
_chemical_formula_sum "Si O2"
_cell_formula_units_Z 64
_cell_length_a 8.721494
_cell_length_b 25.069193
_cell_length_c 20.543697
_cell_angle_alpha 90.000000
_cell_angle_beta 44.058173
_cell_angle_gamma 90.000000
_cell_volume 3123.469442
_symmetry_space_group_name_H-M "C 2/C"
_symmetry_group_IT_number 15
_symmetry_cell_setting 'monoclinic'
loop_
_space_group_symop_operation_xyz
x,y,z
-x,y,1/2-z
-x,-y,-z
x,-y,1/2+z
1/2+x,1/2+y,z
1/2-x,1/2+y,1/2-z
1/2-x,1/2-y,-z
1/2+x,1/2-y,1/2+z
loop_
_atom_site_type_symbol
_atom_site_label
_atom_site_fract_x
_atom_site_fract_y
_atom_site_fract_z
Si Si1 0.169402 0.669552 0.568642
Si Si2 0.779783 0.688252 0.468738
Si Si3 0.469227 0.446154 0.336428
Si Si4 0.310628 0.646282 0.660265
Si Si5 0.525245 0.430400 0.664144
Si Si6 0.596932 0.251625 0.786101
Si Si7 0.662649 0.661206 0.362220
Si Si8 0.013130 0.385555 0.494588
O O1 0.170985 0.638249 0.637002
O O2 0.409216 0.668064 0.463825
O O3 0.105322 0.728695 0.610195
O O4 0.995836 0.646409 0.570751
O O5 0.750000 0.750000 0.500000
O O6 0.550657 0.662280 0.561048
O O7 0.798513 0.672578 0.386813
O O8 0.962867 0.658244 0.455645
O O9 0.500000 0.442768 0.250000
O O10 0.649813 0.406886 0.312070
O O11 0.502019 0.507555 0.345215
O O12 0.224214 0.424698 0.429910
O O13 0.229014 0.698681 0.724083
O O14 0.500000 0.423527 0.750000
O O15 0.358348 0.393948 0.672087
O O16 0.778924 0.414677 0.571711
O O17 0.500000 0.276802 0.750000
O O18 0.720026 0.293254 0.792796
#
# Coordination Sequence:
#
# PCOD9257087 Si02
#       8
#     8   8   8   8   8   8   8   8
#     4   9  18  33  54  79 108 141 180 223 272 329
#     4  10  21  36  54  79 111 143 179 230 284 334
#     4  10  20  37  59  83 112 143 184 235 281 324
#     4   9  20  35  53  82 109 138 181 229 281 331
#     4  10  22  39  58  80 110 151 192 229 270 329
#     4  10  18  30  53  81 109 140 179 226 273 331
#     4  10  20  35  53  79 111 149 185 221 274 335
#     4  10  20  37  59  81 109 147 187 229 278 333
#
# _framework density 20.490034000000001
#
# number of rings (size 3 to 8) (size 9 to 14) (size 15 to 20)
#    0.000    2.250    0.000    2.625    0.000    7.000 
#    0.000   13.125    0.000    3.000    0.000    0.000 
#    0.000    0.000    0.000    0.000    0.000    0.000 
#
# Total GULP energy -178491.823447 kJ/mol
# GULP energy per Si atom -5577.869483 kJ/mol
# Density = 2.044340 g / cm^3
# Si number density = 20.490034 Si / 1000 Ang^3
#
#
#
# Elastic Constant Matrix: (Units=GPa)
#
#
# Indices 1 2 3 4 5 6 
#
# 1 121.2145 84.6274 26.5333 0.0000 37.7643 0.0000
# 2 84.6274 134.8151 32.5603 0.0000 38.3031 0.0000
# 3 26.5333 32.5603 62.4082 0.0000 14.9469 0.0000
# 4 0.0000 0.0000 0.0000 22.3050 0.0000 0.9064
# 5 37.7643 38.3031 14.9469 0.0000 40.3386 0.0000
# 6 0.0000 0.0000 0.0000 0.9064 0.0000 32.7191
#
#
#
# Elastic Compliance Matrix: (Units=1/GPa)
#
#
# Indices 1 2 3 4 5 6 
#
# 1 0.016266 -0.007862 -0.001047 0.000000 -0.007374 0.000000
# 2 -0.007862 0.014610 -0.002985 0.000000 -0.005406 0.000000
# 3 -0.001047 -0.002985 0.018779 0.000000 -0.003144 0.000000
# 4 0.000000 0.000000 0.000000 0.044884 0.000000 -0.001243
# 5 -0.007374 -0.005406 -0.003144 0.000000 0.037991 0.000000
# 6 0.000000 0.000000 0.000000 -0.001243 0.000000 0.030598
#
#
# Mechanical properties :
#
#
# Convention : Reuss Voigt Hill
#
# Bulk Modulus (GPa) = 38.66204 67.31998 52.99101
# Shear Modulus (GPa) = 25.57046 30.72035 28.14540
#
# Velocity S-wave (km/s) = 3.53646 3.87626 3.71025
# Velocity P-wave (km/s) = 5.96532 7.27737 6.65377
#
# Compressibility (1/GPa) = 0.02586516
#
# Stress axis : x y z
#
# Youngs Moduli (GPa) = 61.47916 68.44675 53.25096
#
# Poissons Ratio (x) = 0.53816 0.05577
# Poissons Ratio (y) = 0.48338 0.15895
# Poissons Ratio (z) = 0.06439 0.20431
#
# Static dielectric constant tensor:
#      x y z
#    x 1.774670 0.000000 -0.009110 
#    y 0.000000 1.716570 0.000000 
#    z -0.009110 0.000000 1.775840 
# 
# From -- ./inp_files/234442.got.cif
#   From: 2010.05.17/outbox.cif.g08.bks.cpg/sg15_118_cif.got.tgz:234442.got - 2010.06.03 18:47:42.
