data_PCOD9257624
_publ_section_title
;
Structure prediction by ZEFSAII (Michael W. Deem and Ramdas Pophale) SiO2 
 PCOD9257624
Probable space group: C 2/C
;
_chemical_formula_sum "Si O2"
_cell_formula_units_Z 60
_cell_length_a 21.759225
_cell_length_b 17.540013
_cell_length_c 9.491137
_cell_angle_alpha 90.000000
_cell_angle_beta 88.752010
_cell_angle_gamma 90.000000
_cell_volume 3621.500469
_symmetry_space_group_name_H-M "C 2/C"
_symmetry_group_IT_number 15
_symmetry_cell_setting 'monoclinic'
loop_
_space_group_symop_operation_xyz
x,y,z
-x,y,1/2-z
-x,-y,-z
x,-y,1/2+z
1/2+x,1/2+y,z
1/2-x,1/2+y,1/2-z
1/2-x,1/2-y,-z
1/2+x,1/2-y,1/2+z
loop_
_atom_site_type_symbol
_atom_site_label
_atom_site_fract_x
_atom_site_fract_y
_atom_site_fract_z
Si Si1 0.863011 0.267292 0.757565
Si Si2 0.680709 0.641035 0.955750
Si Si3 0.165364 0.154789 0.486043
Si Si4 0.530864 0.383409 0.991735
Si Si5 0.306513 0.528377 0.783398
Si Si6 0.500000 0.272427 0.250000
Si Si7 0.420067 0.540304 0.377302
Si Si8 0.253210 0.131457 0.222386
O O1 0.847463 0.210671 0.629016
O O2 0.936546 0.274222 0.756059
O O3 0.822680 0.342535 0.741279
O O4 0.839536 0.222482 0.898911
O O5 0.711399 0.586048 0.838519
O O6 0.628422 0.587143 0.025935
O O7 0.725263 0.665074 0.079442
O O8 0.095549 0.148230 0.431833
O O9 0.184330 0.079255 0.576080
O O10 0.212750 0.161344 0.356248
O O11 0.504451 0.327295 0.112872
O O12 0.551455 0.461414 0.067792
O O13 0.478657 0.404599 0.883549
O O14 0.374454 0.489560 0.755587
O O15 0.259462 0.458783 0.792155
#
# Coordination Sequence:
#
# PCOD9257624 Si02
#       8
#     8   8   8   8   8   4   8   8
#     4  10  20  33  52  67  93 131 164 199 237 285
#     4  10  19  33  46  71  99 130 160 199 234 286
#     4   9  19  33  46  70  97 127 160 198 240 285
#     4   9  16  27  43  66  92 133 156 191 222 274
#     4   9  18  31  47  69 100 126 160 197 237 284
#     4  10  18  32  50  64  98 126 174 192 238 284
#     4   9  16  25  42  66  93 126 161 180 222 271
#     4  11  19  31  49  72  95 124 163 201 241 282
#
# _framework density 16.567719
#
# number of rings (size 3 to 8) (size 9 to 14) (size 15 to 20)
#    0.000    2.400    1.333    4.000    0.000    0.000 
#    2.400    0.000    0.000    0.000    0.000    3.733 
#    0.000    0.000    0.000    0.000    0.000    0.000 
#
# Total GULP energy -167049.347440 kJ/mol
# GULP energy per Si atom -5568.311581 kJ/mol
# Density = 1.653001 g / cm^3
# Si number density = 16.567719 Si / 1000 Ang^3
#
#
#
# Elastic Constant Matrix: (Units=GPa)
#
#
# Indices 1 2 3 4 5 6 
#
# 1 109.4196 46.7533 30.9395 0.0000 2.7744 0.0000
# 2 46.7533 45.3255 7.8037 0.0000 5.0463 0.0000
# 3 30.9395 7.8037 69.3705 0.0000 2.2198 0.0000
# 4 0.0000 0.0000 0.0000 -0.0886 0.0000 -0.0954
# 5 2.7744 5.0463 2.2198 0.0000 15.5834 0.0000
# 6 0.0000 0.0000 0.0000 -0.0954 0.0000 31.6879
#
#
#
# Elastic Compliance Matrix: (Units=1/GPa)
#
#
# Indices 1 2 3 4 5 6 
#
# 1 0.018891 -0.018784 -0.006429 0.000000 0.003635 0.000000
# 2 -0.018784 0.041952 0.004004 0.000000 -0.010811 0.000000
# 3 -0.006429 0.004004 0.016914 0.000000 -0.002561 0.000000
# 4 0.000000 0.000000 0.000000-11.255611 0.000000 -0.033872
# 5 0.003635 -0.010811 -0.002561 0.000000 0.067390 0.000000
# 6 0.000000 0.000000 0.000000 -0.033872 0.000000 0.031456
#
#
# Mechanical properties :
#
#
# Convention : Reuss Voigt Hill
#
# Bulk Modulus (GPa) = 28.29588 43.90096 36.09842
# Shear Modulus (GPa) = -0.45352 18.67783 9.11215
#
# Velocity S-wave (km/s) = -0.52377 3.36126 2.34774
# Velocity P-wave (km/s) = 4.09270 6.45132 5.40230
#
# Compressibility (1/GPa) = 0.03534084
#
# Stress axis : x y z
#
# Youngs Moduli (GPa) = 52.93631 23.83668 59.12249
#
# Poissons Ratio (x) = 0.44774 0.38007
# Poissons Ratio (y) = 0.99433 -0.23674
# Poissons Ratio (z) = 0.34031 -0.09545
#
# Static dielectric constant tensor:
#      x y z
#    x 1.577490 0.000000 0.000180 
#    y 0.000000 1.559940 0.000000 
#    z 0.000180 0.000000 1.612820 
# 
# From -- ./inp_files/56578.got.cif
#   From: 2010.05.17/outbox.cif.g08.bks.cpg/sg15_29_cif.got.tgz:56578.got - 2010.06.03 18:47:42.
