data_PCOD9257221
_publ_section_title
;
Structure prediction by ZEFSAII (Michael W. Deem and Ramdas Pophale) SiO2 
 PCOD9257221
Probable space group: C 2/C
;
_chemical_formula_sum "Si O2"
_cell_formula_units_Z 56
_cell_length_a 25.955520
_cell_length_b 11.262797
_cell_length_c 9.756743
_cell_angle_alpha 90.000000
_cell_angle_beta 54.589616
_cell_angle_gamma 90.000000
_cell_volume 2324.612733
_symmetry_space_group_name_H-M "C 2/C"
_symmetry_group_IT_number 15
_symmetry_cell_setting 'monoclinic'
loop_
_space_group_symop_operation_xyz
x,y,z
-x,y,1/2-z
-x,-y,-z
x,-y,1/2+z
1/2+x,1/2+y,z
1/2-x,1/2+y,1/2-z
1/2-x,1/2-y,-z
1/2+x,1/2-y,1/2+z
loop_
_atom_site_type_symbol
_atom_site_label
_atom_site_fract_x
_atom_site_fract_y
_atom_site_fract_z
Si Si1 0.619017 0.821991 0.033123
Si Si2 0.419479 0.206220 0.613155
Si Si3 0.671390 0.205786 0.996689
Si Si4 0.551642 0.731777 0.876754
Si Si5 0.176353 0.077538 0.952011
Si Si6 0.720395 0.088606 0.174704
Si Si7 0.095470 0.011855 0.321922
O O1 0.566450 0.765146 0.012842
O O2 0.667638 0.715348 0.990948
O O3 0.660406 0.900962 0.867191
O O4 0.591476 0.858019 0.223279
O O5 0.365038 0.181468 0.587928
O O6 0.489266 0.192396 0.440495
O O7 0.419445 0.349124 0.642082
O O8 0.726613 0.305311 0.887582
O O9 0.613543 0.244634 0.188902
O O10 0.702077 0.102786 0.043299
O O11 0.543108 0.589019 0.875628
O O12 0.246818 0.033990 0.839179
O O13 0.135743 0.037050 0.885797
O O14 0.143939 0.007433 0.123511
#
# Coordination Sequence:
#
# PCOD9257221 Si02
#       7
#     8   8   8   8   8   8   8
#     4   9  22  33  52  79 107 149 179 217 279 316
#     4  11  19  31  47  77 110 137 184 220 255 323
#     4  10  20  31  51  73  94 150 189 211 263 311
#     4  10  18  32  49  72 110 147 173 209 264 329
#     4  10  19  34  51  73 108 143 186 221 261 317
#     4  10  19  38  52  67 112 148 183 231 266 316
#     4  10  18  31  46  77 104 149 177 207 258 326
#
# _framework density 24.090032999999998
#
# number of rings (size 3 to 8) (size 9 to 14) (size 15 to 20)
#    0.000    2.000    2.857    1.286    2.000    0.571 
#    0.000    4.286    0.000    0.000    0.000    0.000 
#    0.000   20.571    0.000    0.000    0.000    0.000 
#
# Total GULP energy -156304.842626 kJ/mol
# GULP energy per Si atom -5582.315808 kJ/mol
# Density = 2.403520 g / cm^3
# Si number density = 24.090033 Si / 1000 Ang^3
#
#
#
# Elastic Constant Matrix: (Units=GPa)
#
#
# Indices 1 2 3 4 5 6 
#
# 1 62.9829 -2.4968 26.2636 0.0000 3.9866 0.0000
# 2 -2.4968 16.4550 -2.9574 0.0000 -6.6760 0.0000
# 3 26.2636 -2.9574 124.5067 0.0000 14.9920 0.0000
# 4 0.0000 0.0000 0.0000 27.5563 0.0000 -1.0832
# 5 3.9866 -6.6760 14.9920 0.0000 42.0969 0.0000
# 6 0.0000 0.0000 0.0000 -1.0832 0.0000 30.2199
#
#
#
# Elastic Compliance Matrix: (Units=1/GPa)
#
#
# Indices 1 2 3 4 5 6 
#
# 1 0.017474 0.001979 -0.003633 0.000000 -0.000047 0.000000
# 2 0.001979 0.065187 -0.000095 0.000000 0.010184 0.000000
# 3 -0.003633 -0.000095 0.009149 0.000000 -0.002929 0.000000
# 4 0.000000 0.000000 0.000000 0.036341 0.000000 0.001303
# 5 -0.000047 0.010184 -0.002929 0.000000 0.026417 0.000000
# 6 0.000000 0.000000 0.000000 0.001303 0.000000 0.033138
#
#
# Mechanical properties :
#
#
# Convention : Reuss Voigt Hill
#
# Bulk Modulus (GPa) = 11.32365 27.28481 19.30423
# Shear Modulus (GPa) = 22.66129 32.18363 27.42246
#
# Velocity S-wave (km/s) = 3.07040 3.65906 3.37758
# Velocity P-wave (km/s) = 4.15699 5.40393 4.82094
#
# Compressibility (1/GPa) = 0.08831073
#
# Stress axis : x y z
#
# Youngs Moduli (GPa) = 57.22841 15.34046 109.30705
#
# Poissons Ratio (x) = -0.03036 0.39714
# Poissons Ratio (y) = -0.11328 0.01044
# Poissons Ratio (z) = 0.20793 0.00146
#
# Static dielectric constant tensor:
#      x y z
#    x 1.919650 0.000000 -0.043970 
#    y 0.000000 2.001540 0.000000 
#    z -0.043970 0.000000 1.953720 
# 
# From -- ./inp_files/61816.got.cif
#   From: 2010.05.17/outbox.cif.g08.bks.cpg/sg15_31_cif.got.tgz:61816.got - 2010.06.03 18:47:42.
