data_PCOD9257870
_publ_section_title
;
Structure prediction by ZEFSAII (Michael W. Deem and Ramdas Pophale) SiO2 
 PCOD9257870
Probable space group: C 2/C
;
_chemical_formula_sum "Si O2"
_cell_formula_units_Z 60
_cell_length_a 5.080682
_cell_length_b 27.311376
_cell_length_c 27.936615
_cell_angle_alpha 90.000000
_cell_angle_beta 39.782851
_cell_angle_gamma 90.000000
_cell_volume 2480.491381
_symmetry_space_group_name_H-M "C 2/C"
_symmetry_group_IT_number 15
_symmetry_cell_setting 'monoclinic'
loop_
_space_group_symop_operation_xyz
x,y,z
-x,y,1/2-z
-x,-y,-z
x,-y,1/2+z
1/2+x,1/2+y,z
1/2-x,1/2+y,1/2-z
1/2-x,1/2-y,-z
1/2+x,1/2-y,1/2+z
loop_
_atom_site_type_symbol
_atom_site_label
_atom_site_fract_x
_atom_site_fract_y
_atom_site_fract_z
Si Si1 0.020621 0.098230 0.848229
Si Si2 0.504193 0.554908 0.553946
Si Si3 0.014980 0.999026 0.305078
Si Si4 0.515763 0.301776 0.804534
Si Si5 0.580036 0.599681 0.338728
Si Si6 0.050050 0.939048 0.545851
Si Si7 0.267723 0.198489 0.834173
Si Si8 0.500000 0.359848 0.250000
O O1 0.804238 0.046375 0.862114
O O2 0.930358 0.155165 0.876773
O O3 0.226483 0.079235 0.869011
O O4 0.150881 0.110220 0.774892
O O5 0.433143 0.496537 0.564057
O O6 0.474415 0.577640 0.505425
O O7 0.976543 0.563746 0.503704
O O8 0.500000 0.993908 0.250000
O O9 0.000000 0.999925 0.250000
O O10 0.868327 0.050149 0.348632
O O11 0.500000 0.313829 0.750000
O O12 0.379906 0.348674 0.854355
O O13 0.224061 0.254749 0.854359
O O14 0.000000 0.290373 0.750000
O O15 0.673152 0.591038 0.381332
O O16 0.000000 0.601457 0.250000
O O17 0.500000 0.202675 0.750000
O O18 0.622577 0.174792 0.817384
#
# Coordination Sequence:
#
# PCOD9257870 Si02
#       8
#     8   8   8   8   8   8   8   4
#     4  11  21  34  55  87 118 164 194 244 299 353
#     4  10  23  39  61  80 121 167 203 236 284 375
#     4  11  22  34  51  88 126 149 183 242 305 356
#     4  10  20  37  58  87 121 158 199 244 313 366
#     4  10  22  40  65  93 121 156 197 261 308 356
#     4  10  22  42  58  85 117 162 204 238 293 363
#     4   9  19  33  53  83 122 154 197 247 298 365
#     4  10  18  32  54  86 118 154 190 248 298 346
#
# _framework density 24.188753999999999
#
# number of rings (size 3 to 8) (size 9 to 14) (size 15 to 20)
#    0.000    1.867    2.667    1.600    1.867    4.267 
#    0.000    0.000    0.000    1.600    0.000    0.000 
#    0.000    0.000    0.000    0.000    0.000    0.000 
#
# Total GULP energy -167229.419377 kJ/mol
# GULP energy per Si atom -5574.313979 kJ/mol
# Density = 2.413370 g / cm^3
# Si number density = 24.188754 Si / 1000 Ang^3
#
#
#
# Elastic Constant Matrix: (Units=GPa)
#
#
# Indices 1 2 3 4 5 6 
#
# 1 111.1208 29.7312 50.3291 0.0000 46.7351 0.0000
# 2 29.7312 199.4498 37.1788 0.0000 25.1822 0.0000
# 3 50.3291 37.1788 135.8104 0.0000 48.7028 0.0000
# 4 0.0000 0.0000 0.0000 7.2043 0.0000 13.6711
# 5 46.7351 25.1822 48.7028 0.0000 59.7536 0.0000
# 6 0.0000 0.0000 0.0000 13.6711 0.0000 23.5464
#
#
#
# Elastic Compliance Matrix: (Units=1/GPa)
#
#
# Indices 1 2 3 4 5 6 
#
# 1 0.013760 -0.000586 -0.001650 0.000000 -0.009170 0.000000
# 2 -0.000586 0.005403 -0.000862 0.000000 -0.001117 0.000000
# 3 -0.001650 -0.000862 0.010764 0.000000 -0.007119 0.000000
# 4 0.000000 0.000000 0.000000 -1.363944 0.000000 0.791912
# 5 -0.009170 -0.001117 -0.007119 0.000000 0.030181 0.000000
# 6 0.000000 0.000000 0.000000 0.791912 0.000000 -0.417318
#
#
# Mechanical properties :
#
#
# Convention : Reuss Voigt Hill
#
# Bulk Modulus (GPa) = 42.13864 75.65102 58.89483
# Shear Modulus (GPa) = -2.92903 40.04366 18.55731
#
# Velocity S-wave (km/s) = -1.10161 4.07316 2.77282
# Velocity P-wave (km/s) = 3.98002 7.31191 5.88662
#
# Compressibility (1/GPa) = 0.02373119
#
# Stress axis : x y z
#
# Youngs Moduli (GPa) = 72.67291 185.09350 92.90523
#
# Poissons Ratio (x) = 0.10841 0.15334
# Poissons Ratio (y) = 0.04257 0.08004
# Poissons Ratio (z) = 0.11994 0.15947
#
# Static dielectric constant tensor:
#      x y z
#    x 2.220150 0.000000 -0.156160 
#    y 0.000000 1.980150 0.000000 
#    z -0.156160 0.000000 2.063570 
# 
# From -- ./inp_files/228771.got.cif
#   From: 2010.05.17/outbox.cif.g08.bks.cpg/sg15_115_cif.got.tgz:228771.got - 2010.06.03 18:47:42.
