data_PCOD9257510
_publ_section_title
;
Structure prediction by ZEFSAII (Michael W. Deem and Ramdas Pophale) SiO2 
 PCOD9257510
Probable space group: C 2/C
;
_chemical_formula_sum "Si O2"
_cell_formula_units_Z 48
_cell_length_a 8.793139
_cell_length_b 23.057180
_cell_length_c 11.632777
_cell_angle_alpha 90.000000
_cell_angle_beta 63.183070
_cell_angle_gamma 90.000000
_cell_volume 2104.837958
_symmetry_space_group_name_H-M "C 2/C"
_symmetry_group_IT_number 15
_symmetry_cell_setting 'monoclinic'
loop_
_space_group_symop_operation_xyz
x,y,z
-x,y,1/2-z
-x,-y,-z
x,-y,1/2+z
1/2+x,1/2+y,z
1/2-x,1/2+y,1/2-z
1/2-x,1/2-y,-z
1/2+x,1/2-y,1/2+z
loop_
_atom_site_type_symbol
_atom_site_label
_atom_site_fract_x
_atom_site_fract_y
_atom_site_fract_z
Si Si1 0.000000 0.628256 0.750000
Si Si2 0.592399 0.686673 0.108310
Si Si3 0.059960 0.066121 0.356961
Si Si4 0.279212 0.802384 0.135013
Si Si5 0.900156 0.729250 0.107705
Si Si6 0.788753 0.038805 0.630756
Si Si7 0.000000 0.107950 0.750000
O O1 0.095222 0.666259 0.814396
O O2 0.137175 0.582448 0.655128
O O3 0.500000 0.716949 0.250000
O O4 0.465225 0.634703 0.119511
O O5 0.778947 0.677204 0.101375
O O6 0.625952 0.720108 0.978957
O O7 0.000000 0.056291 0.250000
O O8 0.906379 0.039482 0.480867
O O9 0.228064 0.029023 0.329063
O O10 0.175058 0.753734 0.246158
O O11 0.138140 0.849194 0.145139
O O12 0.402256 0.785064 0.986724
O O13 0.896641 0.069388 0.695560
#
# Coordination Sequence:
#
# PCOD9257510 Si02
#       7
#     4   8   8   8   8   8   4
#     4  10  20  38  62  90 112 162 206 264 284 378
#     4  10  18  31  56  88 118 150 201 253 307 347
#     4  10  20  35  63  88 117 158 197 251 300 364
#     4  11  22  36  61  87 125 156 215 248 319 354
#     4  11  20  35  56  91 119 160 199 264 291 370
#     4  10  20  39  63  89 119 158 212 242 310 371
#     4  10  22  40  60  88 120 176 198 252 302 394
#
# _framework density 22.804604999999999
#
# number of rings (size 3 to 8) (size 9 to 14) (size 15 to 20)
#    0.000    1.667    2.500    5.000    0.000    0.667 
#    0.000    0.833   14.667    1.000    0.000    0.000 
#    0.000    0.000    0.000    0.000    0.000    0.000 
#
# Total GULP energy -133610.747527 kJ/mol
# GULP energy per Si atom -5567.114480 kJ/mol
# Density = 2.275270 g / cm^3
# Si number density = 22.804605 Si / 1000 Ang^3
#
#
#
# Elastic Constant Matrix: (Units=GPa)
#
#
# Indices 1 2 3 4 5 6 
#
# 1 72.6601 22.3115 6.5056 0.0000 -22.5466 0.0000
# 2 22.3115 93.5258 6.5134 0.0000 -6.8519 0.0000
# 3 6.5056 6.5134 113.9564 0.0000 -11.4302 0.0000
# 4 0.0000 0.0000 0.0000 23.8540 0.0000 -26.1232
# 5 -22.5466 -6.8519 -11.4302 0.0000 31.9744 0.0000
# 6 0.0000 0.0000 0.0000 -26.1232 0.0000 15.6069
#
#
#
# Elastic Compliance Matrix: (Units=1/GPa)
#
#
# Indices 1 2 3 4 5 6 
#
# 1 0.018729 -0.003574 0.000397 0.000000 0.012583 0.000000
# 2 -0.003574 0.011562 -0.000478 0.000000 -0.000213 0.000000
# 3 0.000397 -0.000478 0.009125 0.000000 0.003440 0.000000
# 4 0.000000 0.000000 0.000000 -0.050324 0.000000 -0.084233
# 5 0.012583 -0.000213 0.003440 0.000000 0.041332 0.000000
# 6 0.000000 0.000000 0.000000 -0.084233 0.000000 -0.076916
#
#
# Mechanical properties :
#
#
# Convention : Reuss Voigt Hill
#
# Bulk Modulus (GPa) = 31.14621 38.97814 35.06218
# Shear Modulus (GPa) = -175.56416 30.60786 -72.47815
#
# Velocity S-wave (km/s) = -8.78370 3.66755 -5.64369
# Velocity P-wave (km/s) = 9.44371 5.92148 5.20191
#
# Compressibility (1/GPa) = 0.03210663
#
# Stress axis : x y z
#
# Youngs Moduli (GPa) = 53.39313 86.48664 109.58966
#
# Poissons Ratio (x) = 0.30909 -0.04352
# Poissons Ratio (y) = 0.19082 0.05241
# Poissons Ratio (z) = -0.02120 0.04136
#
# Static dielectric constant tensor:
#      x y z
#    x 1.896850 0.000000 -0.088690 
#    y 0.000000 2.015310 0.000000 
#    z -0.088690 0.000000 1.810650 
# 
# From -- ./inp_files/80554.got.cif
#   From: 2010.05.17/outbox.cif.g08.bks.cpg/sg15_41_cif.got.tgz:80554.got - 2010.06.03 18:47:42.
