data_PCOD9257677
_publ_section_title
;
Structure prediction by ZEFSAII (Michael W. Deem and Ramdas Pophale) SiO2 
 PCOD9257677
Probable space group: C 2/C
;
_chemical_formula_sum "Si O2"
_cell_formula_units_Z 64
_cell_length_a 17.540477
_cell_length_b 20.647826
_cell_length_c 8.995619
_cell_angle_alpha 90.000000
_cell_angle_beta 92.295156
_cell_angle_gamma 90.000000
_cell_volume 3255.354182
_symmetry_space_group_name_H-M "C 2/C"
_symmetry_group_IT_number 15
_symmetry_cell_setting 'monoclinic'
loop_
_space_group_symop_operation_xyz
x,y,z
-x,y,1/2-z
-x,-y,-z
x,-y,1/2+z
1/2+x,1/2+y,z
1/2-x,1/2+y,1/2-z
1/2-x,1/2-y,-z
1/2+x,1/2-y,1/2+z
loop_
_atom_site_type_symbol
_atom_site_label
_atom_site_fract_x
_atom_site_fract_y
_atom_site_fract_z
Si Si1 0.718466 0.425917 0.599176
Si Si2 0.459409 0.207951 0.988744
Si Si3 0.179171 0.206293 0.932678
Si Si4 0.903485 0.543901 0.471277
Si Si5 0.766660 0.810141 0.391817
Si Si6 0.090396 0.666706 0.843579
Si Si7 0.596941 0.916993 0.861489
Si Si8 0.219079 0.940141 0.942683
O O1 0.688282 0.364410 0.506039
O O2 0.810646 0.415330 0.615171
O O3 0.695030 0.431869 0.769799
O O4 0.694377 0.492555 0.516242
O O5 0.550053 0.214445 0.962512
O O6 0.434694 0.182355 0.824318
O O7 0.403207 0.265813 0.026523
O O8 0.438938 0.151499 0.101781
O O9 0.188665 0.206356 0.755172
O O10 0.250000 0.250000 0.000000
O O11 0.929750 0.595944 0.595184
O O12 0.924282 0.561683 0.305743
O O13 0.811198 0.551644 0.458850
O O14 0.074954 0.527591 0.476767
O O15 0.750000 0.750000 0.500000
O O16 0.680860 0.829675 0.341441
O O17 0.800936 0.873575 0.474466
#
# Coordination Sequence:
#
# PCOD9257677 Si02
#       8
#     8   8   8   8   8   8   8   8
#     4  10  18  33  54  81 116 145 189 235 279 333
#     4  11  23  36  55  77 113 150 193 233 281 330
#     4  12  21  35  57  82 111 152 194 236 280 329
#     4   9  19  32  53  74 109 149 194 231 277 326
#     4  11  22  37  59  84 116 147 187 233 285 340
#     4  10  22  39  52  78 111 148 190 233 281 336
#     4  10  18  32  51  78 105 151 194 233 272 327
#     4   9  19  32  54  84 112 147 182 236 284 335
#
# _framework density 19.659918999999999
#
# number of rings (size 3 to 8) (size 9 to 14) (size 15 to 20)
#    0.000    1.750    2.500    2.250    3.500    5.000 
#    0.000    0.000    0.000    0.000    0.000    0.875 
#    0.000    0.000    0.000    0.000    0.000    0.000 
#
# Total GULP energy -178594.922869 kJ/mol
# GULP energy per Si atom -5581.091340 kJ/mol
# Density = 1.961517 g / cm^3
# Si number density = 19.659919 Si / 1000 Ang^3
#
#
#
# Elastic Constant Matrix: (Units=GPa)
#
#
# Indices 1 2 3 4 5 6 
#
# 1 30.9826 4.5669 10.3322 0.0000 -14.3937 0.0000
# 2 4.5669 127.5927 70.0488 0.0000 -4.2098 0.0000
# 3 10.3322 70.0488 149.6010 0.0000 -15.1767 0.0000
# 4 0.0000 0.0000 0.0000 33.6397 0.0000 -2.3470
# 5 -14.3937 -4.2098 -15.1767 0.0000 17.5416 0.0000
# 6 0.0000 0.0000 0.0000 -2.3470 0.0000 24.1200
#
#
#
# Elastic Compliance Matrix: (Units=1/GPa)
#
#
# Indices 1 2 3 4 5 6 
#
# 1 0.052383 -0.001192 0.001394 0.000000 0.043903 0.000000
# 2 -0.001192 0.010635 -0.005194 0.000000 -0.002919 0.000000
# 3 0.001394 -0.005194 0.009876 0.000000 0.008442 0.000000
# 4 0.000000 0.000000 0.000000 0.029930 0.000000 0.002912
# 5 0.043903 -0.002919 0.008442 0.000000 0.099635 0.000000
# 6 0.000000 0.000000 0.000000 0.002912 0.000000 0.041743
#
#
# Mechanical properties :
#
#
# Convention : Reuss Voigt Hill
#
# Bulk Modulus (GPa) = 15.89522 53.11912 34.50717
# Shear Modulus (GPa) = 18.17155 29.94217 24.05686
#
# Velocity S-wave (km/s) = 3.04352 3.90680 3.50187
# Velocity P-wave (km/s) = 4.52253 6.88683 5.82588
#
# Compressibility (1/GPa) = 0.06291199
#
# Stress axis : x y z
#
# Youngs Moduli (GPa) = 19.09017 94.02858 101.25097
#
# Poissons Ratio (x) = 0.11206 -0.14115
# Poissons Ratio (y) = 0.02275 0.52585
# Poissons Ratio (z) = -0.02661 0.48834
#
# Static dielectric constant tensor:
#      x y z
#    x 1.841510 0.000000 0.047310 
#    y 0.000000 1.698390 0.000000 
#    z 0.047310 0.000000 1.721030 
# 
# From -- ./inp_files/50227.got.cif
#   From: 2010.05.17/outbox.cif.g08.bks.cpg/sg15_26_cif.got.tgz:50227.got - 2010.06.03 18:47:42.
