data_PCOD9257738
_publ_section_title
;
Structure prediction by ZEFSAII (Michael W. Deem and Ramdas Pophale) SiO2 
 PCOD9257738
Probable space group: C 2/C
;
_chemical_formula_sum "Si O2"
_cell_formula_units_Z 56
_cell_length_a 7.646738
_cell_length_b 22.582407
_cell_length_c 13.923648
_cell_angle_alpha 90.000000
_cell_angle_beta 95.044480
_cell_angle_gamma 90.000000
_cell_volume 2395.047181
_symmetry_space_group_name_H-M "C 2/C"
_symmetry_group_IT_number 15
_symmetry_cell_setting 'monoclinic'
loop_
_space_group_symop_operation_xyz
x,y,z
-x,y,1/2-z
-x,-y,-z
x,-y,1/2+z
1/2+x,1/2+y,z
1/2-x,1/2+y,1/2-z
1/2-x,1/2-y,-z
1/2+x,1/2-y,1/2+z
loop_
_atom_site_type_symbol
_atom_site_label
_atom_site_fract_x
_atom_site_fract_y
_atom_site_fract_z
Si Si1 0.011548 0.911814 0.952378
Si Si2 0.000000 0.057898 0.750000
Si Si3 0.000000 0.127359 0.250000
Si Si4 0.262245 0.344844 0.301510
Si Si5 0.060721 0.618472 0.593598
Si Si6 0.213305 0.187422 0.040866
Si Si7 0.196944 0.291918 0.739207
Si Si8 0.736614 0.510188 0.922381
O O1 0.969263 0.846058 0.988789
O O2 0.936993 0.909438 0.839101
O O3 0.880483 0.953100 0.006930
O O4 0.201671 0.942732 0.952664
O O5 0.091797 0.104386 0.682112
O O6 0.138823 0.019710 0.815558
O O7 0.838116 0.165376 0.195762
O O8 0.182797 0.360179 0.190685
O O9 0.311162 0.275358 0.300164
O O10 0.123398 0.357662 0.378166
O O11 0.134649 0.647034 0.499502
O O12 0.084660 0.547373 0.582537
O O13 0.217817 0.203869 0.152058
O O14 0.250000 0.250000 0.000000
O O15 0.000000 0.313680 0.750000
#
# Coordination Sequence:
#
# PCOD9257738 Si02
#       8
#     8   4   4   8   8   8   8   8
#     4   9  19  34  60  81 110 152 195 241 300 365
#     4  10  19  32  54  80 114 144 193 248 294 346
#     4  10  21  38  60  82 116 166 197 240 312 368
#     4  10  18  32  52  82 111 151 188 243 304 345
#     4   9  18  32  56  78 111 147 195 241 302 356
#     4  10  19  34  57  85 115 160 199 245 307 369
#     4  11  22  36  56  84 123 159 202 250 300 370
#     4   9  18  35  57  83 108 145 199 246 295 363
#
# _framework density 23.381585999999999
#
# number of rings (size 3 to 8) (size 9 to 14) (size 15 to 20)
#    0.000    2.286    2.143    1.286    2.000    0.000 
#    2.571    0.714   12.571    2.571    0.000    0.000 
#    0.000    0.000    0.000    0.000    0.000    0.000 
#
# Total GULP energy -155885.056968 kJ/mol
# GULP energy per Si atom -5567.323463 kJ/mol
# Density = 2.332837 g / cm^3
# Si number density = 23.381586 Si / 1000 Ang^3
#
#
#
# Elastic Constant Matrix: (Units=GPa)
#
#
# Indices 1 2 3 4 5 6 
#
# 1 87.9152 25.9718 -4.8132 0.0000 -19.7108 0.0000
# 2 25.9718 112.6073 11.0745 0.0000 -3.5293 0.0000
# 3 -4.8132 11.0745 65.4806 0.0000 -17.8255 0.0000
# 4 0.0000 0.0000 0.0000 66.9713 0.0000 70.4471
# 5 -19.7108 -3.5293 -17.8255 0.0000 30.6114 0.0000
# 6 0.0000 0.0000 0.0000 70.4471 0.0000 135.6993
#
#
#
# Elastic Compliance Matrix: (Units=1/GPa)
#
#
# Indices 1 2 3 4 5 6 
#
# 1 0.015594 -0.003713 0.005218 0.000000 0.012651 0.000000
# 2 -0.003713 0.009916 -0.002721 0.000000 -0.002832 0.000000
# 3 0.005218 -0.002721 0.020137 0.000000 0.014772 0.000000
# 4 0.000000 0.000000 0.000000 0.032895 0.000000 -0.017077
# 5 0.012651 -0.002832 0.014772 0.000000 0.049090 0.000000
# 6 0.000000 0.000000 0.000000 -0.017077 0.000000 0.016235
#
#
# Mechanical properties :
#
#
# Convention : Reuss Voigt Hill
#
# Bulk Modulus (GPa) = 23.14038 36.71882 29.92960
# Shear Modulus (GPa) = 31.11334 62.24105 46.67720
#
# Velocity S-wave (km/s) = 3.65180 5.16502 4.47287
# Velocity P-wave (km/s) = 5.26300 7.16298 6.28520
#
# Compressibility (1/GPa) = 0.04321450
#
# Stress axis : x y z
#
# Youngs Moduli (GPa) = 64.12833 100.85045 49.66013
#
# Poissons Ratio (x) = 0.37448 -0.25914
# Poissons Ratio (y) = 0.23812 0.13512
# Poissons Ratio (z) = -0.33464 0.27441
#
# Static dielectric constant tensor:
#      x y z
#    x 2.242870 0.000000 -0.191100 
#    y 0.000000 2.302390 0.000000 
#    z -0.191100 0.000000 2.081490 
# 
# From -- ./inp_files/136499.got.cif
#   From: 2010.05.17/outbox.cif.g08.bks.cpg/sg15_69_cif.got.tgz:136499.got - 2010.06.03 18:47:42.
