data_PCOD9257455
_publ_section_title
;
Structure prediction by ZEFSAII (Michael W. Deem and Ramdas Pophale) SiO2 
 PCOD9257455
Probable space group: C 2/C
;
_chemical_formula_sum "Si O2"
_cell_formula_units_Z 64
_cell_length_a 24.908764
_cell_length_b 17.924270
_cell_length_c 21.997690
_cell_angle_alpha 90.000000
_cell_angle_beta 159.205179
_cell_angle_gamma 90.000000
_cell_volume 3486.796195
_symmetry_space_group_name_H-M "C 2/C"
_symmetry_group_IT_number 15
_symmetry_cell_setting 'monoclinic'
loop_
_space_group_symop_operation_xyz
x,y,z
-x,y,1/2-z
-x,-y,-z
x,-y,1/2+z
1/2+x,1/2+y,z
1/2-x,1/2+y,1/2-z
1/2-x,1/2-y,-z
1/2+x,1/2-y,1/2+z
loop_
_atom_site_type_symbol
_atom_site_label
_atom_site_fract_x
_atom_site_fract_y
_atom_site_fract_z
Si Si1 0.335433 0.579740 0.441020
Si Si2 0.689650 0.646061 0.217512
Si Si3 0.975875 0.708897 0.955750
Si Si4 0.672406 0.939149 0.228388
Si Si5 0.064301 0.692725 0.186694
Si Si6 0.083857 0.161148 0.779038
Si Si7 0.118628 0.589523 0.421822
Si Si8 0.163063 0.504977 0.087794
O O1 0.362564 0.609199 0.401220
O O2 0.288456 0.492593 0.387593
O O3 0.194243 0.631514 0.312567
O O4 0.475283 0.602180 0.630501
O O5 0.571191 0.708052 0.112001
O O6 0.729019 0.576537 0.301565
O O7 0.852396 0.686465 0.378988
O O8 0.857770 0.649375 0.802199
O O9 0.974914 0.703095 0.028562
O O10 0.705174 0.957091 0.192031
O O11 0.508002 0.970437 0.075576
O O12 0.119541 0.772261 0.269823
O O13 0.960559 0.659186 0.129240
O O14 0.000000 0.190090 0.750000
O O15 0.235994 0.119666 0.958866
O O16 0.163629 0.537878 0.525623
O O17 0.000000 0.553906 0.250000
#
# Coordination Sequence:
#
# PCOD9257455 Si02
#       8
#     8   8   8   8   8   8   8   8
#     4  10  19  35  53  77 111 145 181 227 271 310
#     4   9  19  32  54  81 113 139 173 222 274 331
#     4  10  18  31  54  84 111 145 176 216 278 326
#     4   9  16  33  59  78 105 144 179 226 270 330
#     4  11  20  35  56  74 111 148 191 219 254 323
#     4  12  26  37  49  79 113 151 187 225 267 307
#     4  12  24  38  57  75 103 152 193 226 258 324
#     4   9  17  35  55  81 104 139 190 223 266 321
#
# _framework density 18.354958
#
# number of rings (size 3 to 8) (size 9 to 14) (size 15 to 20)
#    0.000    1.750    3.750    3.375    1.750    1.500 
#    2.250    1.250    0.000    0.000    0.000    4.375 
#    0.000    0.000    0.000    0.000    0.000    0.000 
#
# Total GULP energy -178506.175451 kJ/mol
# GULP energy per Si atom -5578.317983 kJ/mol
# Density = 1.831318 g / cm^3
# Si number density = 18.354958 Si / 1000 Ang^3
#
#
#
# Elastic Constant Matrix: (Units=GPa)
#
#
# Indices 1 2 3 4 5 6 
#
# 1 44.5945 4.3840 2.0167 0.0190 -5.8638 0.0121
# 2 4.3840 32.4938 15.2547 0.0368 -10.2003 0.0353
# 3 2.0167 15.2547 46.6157 0.0265 -10.9147 0.0251
# 4 0.0190 0.0368 0.0265 22.5707 0.0158 1.2730
# 5 -5.8638 -10.2003 -10.9147 0.0158 14.5020 0.0126
# 6 0.0121 0.0353 0.0251 1.2730 0.0126 6.8220
#
#
#
# Elastic Compliance Matrix: (Units=1/GPa)
#
#
# Indices 1 2 3 4 5 6 
#
# 1 0.023780 -0.000731 0.001628 -0.000025 0.010327 -0.000059
# 2 -0.000731 0.041998 -0.008333 -0.000062 0.022973 -0.000216
# 3 0.001628 -0.008333 0.027787 -0.000027 0.015711 -0.000086
# 4 -0.000025 -0.000062 -0.000027 0.044777 -0.000115 -0.008355
# 5 0.010327 0.022973 0.015711 -0.000115 0.101115 -0.000360
# 6 -0.000059 -0.000216 -0.000086 -0.008355 -0.000360 0.148146
#
#
# Mechanical properties :
#
#
# Convention : Reuss Voigt Hill
#
# Bulk Modulus (GPa) = 12.70735 18.55719 15.63227
# Shear Modulus (GPa) = 11.66305 15.58219 13.62262
#
# Velocity S-wave (km/s) = 2.52348 2.91681 2.72725
# Velocity P-wave (km/s) = 3.92795 4.63420 4.29561
#
# Compressibility (1/GPa) = 0.07869462
#
# Stress axis : x y z
#
# Youngs Moduli (GPa) = 42.05129 23.81092 35.98804
#
# Poissons Ratio (x) = 0.01741 -0.05861
# Poissons Ratio (y) = 0.03074 0.29988
# Poissons Ratio (z) = -0.06848 0.19841
#
# Static dielectric constant tensor:
#      x y z
#    x 1.617290 0.000000 0.025020 
#    y 0.000000 1.638270 0.000000 
#    z 0.025020 0.000000 1.677650 
# 
# From -- ./inp_files/256026.got.cif
#   From: 2010.05.17/outbox.cif.g08.bks.cpg/sg15_129_cif.got.tgz:256026.got - 2010.06.03 18:47:42.
