data_PCOD9257548
_publ_section_title
;
Structure prediction by ZEFSAII (Michael W. Deem and Ramdas Pophale) SiO2 
 PCOD9257548
Probable space group: C 2/C
;
_chemical_formula_sum "Si O2"
_cell_formula_units_Z 60
_cell_length_a 16.959530
_cell_length_b 9.308744
_cell_length_c 21.785026
_cell_angle_alpha 90.000000
_cell_angle_beta 112.907186
_cell_angle_gamma 90.000000
_cell_volume 3168.013460
_symmetry_space_group_name_H-M "C 2/C"
_symmetry_group_IT_number 15
_symmetry_cell_setting 'monoclinic'
loop_
_space_group_symop_operation_xyz
x,y,z
-x,y,1/2-z
-x,-y,-z
x,-y,1/2+z
1/2+x,1/2+y,z
1/2-x,1/2+y,1/2-z
1/2-x,1/2-y,-z
1/2+x,1/2-y,1/2+z
loop_
_atom_site_type_symbol
_atom_site_label
_atom_site_fract_x
_atom_site_fract_y
_atom_site_fract_z
Si Si1 0.749078 0.184154 0.088913
Si Si2 0.000000 0.624997 0.750000
Si Si3 0.659321 0.985747 0.365175
Si Si4 0.910178 0.565854 0.411091
Si Si5 0.371673 0.627009 0.029716
Si Si6 0.591969 0.877026 0.970287
Si Si7 0.160747 0.125009 0.071490
Si Si8 0.955864 0.735748 0.865181
O O1 0.807283 0.320909 0.123476
O O2 0.686718 0.125006 0.123451
O O3 0.811388 0.078819 0.069111
O O4 0.681760 0.250372 0.020613
O O5 0.078191 0.524515 0.796050
O O6 0.032139 0.725479 0.703948
O O7 0.626451 0.050127 0.419575
O O8 0.743892 0.080035 0.380207
O O9 0.911149 0.499650 0.479391
O O10 0.933822 0.429091 0.376533
O O11 0.992293 0.671183 0.430893
O O12 0.456867 0.699858 0.080427
O O13 0.380310 0.505600 0.980377
O O14 0.649948 0.755628 0.019630
O O15 0.113677 0.169972 0.119787
#
# Coordination Sequence:
#
# PCOD9257548 Si02
#       8
#     8   4   8   8   8   8   8   8
#     4  10  18  31  58  90 120 147 194 249 303 353
#     4  12  24  44  60  74 118 178 204 224 274 384
#     4  11  22  40  59  88 119 163 201 237 299 365
#     4  10  18  31  58  90 120 147 194 249 303 353
#     4  10  18  34  58  92 122 148 186 252 316 348
#     4  10  18  34  58  92 122 148 186 252 316 348
#     4  10  22  34  64  97 121 138 196 274 310 334
#     4  11  22  40  59  88 119 163 201 237 299 365
#
# _framework density 18.939315000000001
#
# number of rings (size 3 to 8) (size 9 to 14) (size 15 to 20)
#    0.000    1.600    2.667    5.600    0.000    2.133 
#    2.400    0.000    0.000    0.800    0.000    0.000 
#    0.000    0.000    0.000    0.000    0.000    0.000 
#
# Total GULP energy -167004.583820 kJ/mol
# GULP energy per Si atom -5566.819461 kJ/mol
# Density = 1.889621 g / cm^3
# Si number density = 18.939315 Si / 1000 Ang^3
#
#
#
# Elastic Constant Matrix: (Units=GPa)
#
#
# Indices 1 2 3 4 5 6 
#
# 1 138.0269 48.2378 64.3029 0.0000 -1.4507 0.0000
# 2 48.2378 64.2550 36.4133 0.0000 -0.5143 0.0000
# 3 64.3029 36.4133 101.3901 0.0000 -0.1248 0.0000
# 4 0.0000 0.0000 0.0000 18.1672 0.0000 -0.6241
# 5 -1.4507 -0.5143 -0.1248 0.0000 20.2933 0.0000
# 6 0.0000 0.0000 0.0000 -0.6241 0.0000 32.2326
#
#
#
# Elastic Compliance Matrix: (Units=1/GPa)
#
#
# Indices 1 2 3 4 5 6 
#
# 1 0.011789 -0.005786 -0.005398 0.000000 0.000663 0.000000
# 2 -0.005786 0.022384 -0.004369 0.000000 0.000127 0.000000
# 3 -0.005398 -0.004369 0.014855 0.000000 -0.000405 0.000000
# 4 0.000000 0.000000 0.000000 0.055081 0.000000 0.001066
# 5 0.000663 0.000127 -0.000405 0.000000 0.049326 0.000000
# 6 0.000000 0.000000 0.000000 0.001066 0.000000 0.031045
#
#
# Mechanical properties :
#
#
# Convention : Reuss Voigt Hill
#
# Bulk Modulus (GPa) = 55.79900 66.84223 61.32061
# Shear Modulus (GPa) = 22.56745 24.45316 23.51030
#
# Velocity S-wave (km/s) = 3.45565 3.59713 3.52710
# Velocity P-wave (km/s) = 6.74151 7.25410 7.00250
#
# Compressibility (1/GPa) = 0.01792147
#
# Stress axis : x y z
#
# Youngs Moduli (GPa) = 84.82742 44.67557 67.31774
#
# Poissons Ratio (x) = 0.25848 0.36337
# Poissons Ratio (y) = 0.49079 0.29413
# Poissons Ratio (z) = 0.45788 0.19520
#
# Static dielectric constant tensor:
#      x y z
#    x 1.819080 0.000000 -0.007100 
#    y 0.000000 1.716120 0.000000 
#    z -0.007100 0.000000 1.658510 
# 
# From -- ./inp_files/247549.got.cif
#   From: 2010.05.17/outbox.cif.g08.bks.cpg/sg15_124_cif.got.tgz:247549.got - 2010.06.03 18:47:42.
