data_PCOD9257612
_publ_section_title
;
Structure prediction by ZEFSAII (Michael W. Deem and Ramdas Pophale) SiO2 
 PCOD9257612
Probable space group: C 2/C
;
_chemical_formula_sum "Si O2"
_cell_formula_units_Z 44
_cell_length_a 22.127270
_cell_length_b 9.410171
_cell_length_c 7.897586
_cell_angle_alpha 90.000000
_cell_angle_beta 96.878549
_cell_angle_gamma 90.000000
_cell_volume 1632.610057
_symmetry_space_group_name_H-M "C 2/C"
_symmetry_group_IT_number 15
_symmetry_cell_setting 'monoclinic'
loop_
_space_group_symop_operation_xyz
x,y,z
-x,y,1/2-z
-x,-y,-z
x,-y,1/2+z
1/2+x,1/2+y,z
1/2-x,1/2+y,1/2-z
1/2-x,1/2-y,-z
1/2+x,1/2-y,1/2+z
loop_
_atom_site_type_symbol
_atom_site_label
_atom_site_fract_x
_atom_site_fract_y
_atom_site_fract_z
Si Si1 0.853950 0.763310 0.663776
Si Si2 0.625824 0.946830 0.926051
Si Si3 0.370518 0.648963 0.788328
Si Si4 0.758546 0.643775 0.849326
Si Si5 0.000000 0.132251 0.750000
Si Si6 0.959878 0.283069 0.403951
O O1 0.877751 0.601530 0.649254
O O2 0.865004 0.835862 0.488484
O O3 0.785153 0.736917 0.703346
O O4 0.897221 0.803188 0.837296
O O5 0.628401 0.808936 0.800090
O O6 0.686859 0.952132 0.062234
O O7 0.566049 0.924399 0.018651
O O8 0.306734 0.577307 0.711816
O O9 0.431643 0.572940 0.742557
O O10 0.750000 0.750000 0.000000
O O11 0.996742 0.211787 0.568850
O O12 0.000000 0.288724 0.250000
#
# Coordination Sequence:
#
# PCOD9257612 Si02
#       6
#     8   8   8   8   4   8
#     4  11  19  33  51  76 102 142 182 218 256 314
#     4   9  20  33  48  74 106 137 180 222 255 305
#     4  10  18  32  49  73 103 141 174 218 260 306
#     4   9  19  34  51  70 101 137 177 223 267 303
#     4  10  20  34  48  76 112 140 184 210 256 320
#     4  10  19  33  46  71 109 148 178 210 245 303
#
# _framework density 26.950709
#
# number of rings (size 3 to 8) (size 9 to 14) (size 15 to 20)
#    0.000    2.182    1.818    3.818    0.000    0.727 
#    8.182    0.000    0.000    0.000    0.000    1.273 
#    0.000    0.000    0.000    0.364    0.000    0.000 
#
# Total GULP energy -122939.218402 kJ/mol
# GULP energy per Si atom -5588.146291 kJ/mol
# Density = 2.688937 g / cm^3
# Si number density = 26.950709 Si / 1000 Ang^3
#
#
#
# Elastic Constant Matrix: (Units=GPa)
#
#
# Indices 1 2 3 4 5 6 
#
# 1 201.5242 1.3355 46.5363 0.0000 -6.9057 0.0000
# 2 1.3355 63.1568 12.5254 0.0000 -0.9308 0.0000
# 3 46.5363 12.5254 163.7177 0.0000 -16.4560 0.0000
# 4 0.0000 0.0000 0.0000 14.6950 0.0000 -5.0968
# 5 -6.9057 -0.9308 -16.4560 0.0000 69.9516 0.0000
# 6 0.0000 0.0000 0.0000 -5.0968 0.0000 13.1968
#
#
#
# Elastic Compliance Matrix: (Units=1/GPa)
#
#
# Indices 1 2 3 4 5 6 
#
# 1 0.005315 0.000189 -0.001508 0.000000 0.000172 0.000000
# 2 0.000189 0.016085 -0.001292 0.000000 -0.000071 0.000000
# 3 -0.001508 -0.001292 0.006779 0.000000 0.001429 0.000000
# 4 0.000000 0.000000 0.000000 0.078576 0.000000 0.030347
# 5 0.000172 -0.000071 0.001429 0.000000 0.014648 0.000000
# 6 0.000000 0.000000 0.000000 0.030347 0.000000 0.087496
#
#
# Mechanical properties :
#
#
# Convention : Reuss Voigt Hill
#
# Bulk Modulus (GPa) = 43.55700 61.02143 52.28922
# Shear Modulus (GPa) = 22.54565 44.10212 33.32389
#
# Velocity S-wave (km/s) = 2.89546 4.04963 3.52017
# Velocity P-wave (km/s) = 5.23212 6.67511 5.99717
#
# Compressibility (1/GPa) = 0.02295842
#
# Stress axis : x y z
#
# Youngs Moduli (GPa) = 188.14488 62.17087 147.51186
#
# Poissons Ratio (x) = -0.01176 0.22244
# Poissons Ratio (y) = -0.03560 0.19051
# Poissons Ratio (z) = 0.28371 0.08029
#
# Static dielectric constant tensor:
#      x y z
#    x 2.167110 0.000000 0.051740 
#    y 0.000000 2.169390 0.000000 
#    z 0.051740 0.000000 2.151220 
# 
# From -- ./inp_files/55008.got.cif
#   From: 2010.05.17/outbox.cif.g08.bks.cpg/sg15_28_cif.got.tgz:55008.got - 2010.06.03 18:47:42.
