data_PCOD9257900
_publ_section_title
;
Structure prediction by ZEFSAII (Michael W. Deem and Ramdas Pophale) SiO2 
 PCOD9257900
Probable space group: C 2/C
;
_chemical_formula_sum "Si O2"
_cell_formula_units_Z 56
_cell_length_a 22.600804
_cell_length_b 10.735952
_cell_length_c 9.487445
_cell_angle_alpha 90.000000
_cell_angle_beta 104.896818
_cell_angle_gamma 90.000000
_cell_volume 2224.673643
_symmetry_space_group_name_H-M "C 2/C"
_symmetry_group_IT_number 15
_symmetry_cell_setting 'monoclinic'
loop_
_space_group_symop_operation_xyz
x,y,z
-x,y,1/2-z
-x,-y,-z
x,-y,1/2+z
1/2+x,1/2+y,z
1/2-x,1/2+y,1/2-z
1/2-x,1/2-y,-z
1/2+x,1/2-y,1/2+z
loop_
_atom_site_type_symbol
_atom_site_label
_atom_site_fract_x
_atom_site_fract_y
_atom_site_fract_z
Si Si1 0.317891 0.650543 0.726495
Si Si2 0.700769 0.597137 0.458571
Si Si3 0.068850 0.159646 0.060783
Si Si4 0.554680 0.372533 0.118958
Si Si5 0.184008 0.674497 0.601191
Si Si6 0.914577 0.746703 0.649269
Si Si7 0.330933 0.948986 0.102772
O O1 0.313513 0.534817 0.618517
O O2 0.388368 0.695833 0.771500
O O3 0.253911 0.722242 0.661068
O O4 0.310750 0.599261 0.881845
O O5 0.652988 0.692052 0.361415
O O6 0.773272 0.617550 0.488499
O O7 0.134287 0.215759 0.058238
O O8 0.051781 0.249644 0.181841
O O9 0.067286 0.020914 0.127441
O O10 0.017670 0.154131 0.906880
O O11 0.561379 0.332191 0.959339
O O12 0.175478 0.588319 0.457885
O O13 0.173432 0.582549 0.732120
O O14 0.895193 0.609312 0.592013
#
# Coordination Sequence:
#
# PCOD9257900 Si02
#       7
#     8   8   8   8   8   8   8
#     4   9  17  32  54  86 120 155 195 244 295 357
#     4   9  16  29  53  82 117 152 198 239 295 347
#     4  10  20  36  57  82 119 158 200 252 305 356
#     4  10  20  34  54  85 116 153 202 249 300 359
#     4   9  19  36  60  88 122 160 202 246 302 356
#     4  10  18  32  55  83 112 159 201 244 295 359
#     4   9  18  33  57  85 117 159 198 248 292 358
#
# _framework density 25.172229000000002
#
# number of rings (size 3 to 8) (size 9 to 14) (size 15 to 20)
#    0.000    2.571    1.429    0.857    0.000    1.143 
#    0.000    2.143    0.000    7.714    0.000    0.000 
#    0.000    0.000    0.000    0.000    0.000    1.143 
#
# Total GULP energy -156227.570783 kJ/mol
# GULP energy per Si atom -5579.556099 kJ/mol
# Density = 2.511494 g / cm^3
# Si number density = 25.172229 Si / 1000 Ang^3
#
#
#
# Elastic Constant Matrix: (Units=GPa)
#
#
# Indices 1 2 3 4 5 6 
#
# 1 103.2631 42.2757 37.6554 0.0000 47.0592 0.0000
# 2 42.2757 51.5879 37.5631 0.0000 9.1679 0.0000
# 3 37.6554 37.5631 150.8633 0.0000 24.7590 0.0000
# 4 0.0000 0.0000 0.0000 38.7858 0.0000 3.0699
# 5 47.0592 9.1679 24.7590 0.0000 60.8467 0.0000
# 6 0.0000 0.0000 0.0000 3.0699 0.0000 38.3585
#
#
#
# Elastic Compliance Matrix: (Units=1/GPa)
#
#
# Indices 1 2 3 4 5 6 
#
# 1 0.023821 -0.017402 0.001051 0.000000 -0.016229 0.000000
# 2 -0.017402 0.036479 -0.006479 0.000000 0.010599 0.000000
# 3 0.001051 -0.006479 0.008522 0.000000 -0.003304 0.000000
# 4 0.000000 0.000000 0.000000 0.025947 0.000000 -0.002077
# 5 -0.016229 0.010599 -0.003304 0.000000 0.028734 0.000000
# 6 0.000000 0.000000 0.000000 -0.002077 0.000000 0.026236
#
#
# Mechanical properties :
#
#
# Convention : Reuss Voigt Hill
#
# Bulk Modulus (GPa) = 43.17521 60.07808 51.62664
# Shear Modulus (GPa) = 24.61610 40.14621 32.38115
#
# Velocity S-wave (km/s) = 3.13054 3.99790 3.59051
# Velocity P-wave (km/s) = 5.50057 6.72530 6.14353
#
# Compressibility (1/GPa) = 0.02316144
#
# Stress axis : x y z
#
# Youngs Moduli (GPa) = 41.97965 27.41306 117.34841
#
# Poissons Ratio (x) = 0.47704 -0.12328
# Poissons Ratio (y) = 0.73053 0.76027
# Poissons Ratio (z) = -0.04410 0.17760
#
# Static dielectric constant tensor:
#      x y z
#    x 2.214210 0.000000 0.025750 
#    y 0.000000 1.972220 0.000000 
#    z 0.025750 0.000000 1.992910 
# 
# From -- ./inp_files/117659.got.cif
#   From: 2010.05.17/outbox.cif.g08.bks.cpg/sg15_59_cif.got.tgz:117659.got - 2010.06.03 18:47:42.
