data_PCOD9257170
_publ_section_title
;
Structure prediction by ZEFSAII (Michael W. Deem and Ramdas Pophale) SiO2 
 PCOD9257170
Probable space group: C 2/C
;
_chemical_formula_sum "Si O2"
_cell_formula_units_Z 52
_cell_length_a 13.692133
_cell_length_b 14.659865
_cell_length_c 11.998520
_cell_angle_alpha 90.000000
_cell_angle_beta 111.578594
_cell_angle_gamma 90.000000
_cell_volume 2239.605496
_symmetry_space_group_name_H-M "C 2/C"
_symmetry_group_IT_number 15
_symmetry_cell_setting 'monoclinic'
loop_
_space_group_symop_operation_xyz
x,y,z
-x,y,1/2-z
-x,-y,-z
x,-y,1/2+z
1/2+x,1/2+y,z
1/2-x,1/2+y,1/2-z
1/2-x,1/2-y,-z
1/2+x,1/2-y,1/2+z
loop_
_atom_site_type_symbol
_atom_site_label
_atom_site_fract_x
_atom_site_fract_y
_atom_site_fract_z
Si Si1 0.500000 0.634830 0.250000
Si Si2 0.488016 0.216128 0.935136
Si Si3 0.713005 0.617339 0.395261
Si Si4 0.410544 0.964147 0.041624
Si Si5 0.188958 0.800587 0.124480
Si Si6 0.822989 0.356240 0.545439
Si Si7 0.374587 0.671127 0.674865
O O1 0.521838 0.700610 0.154100
O O2 0.603184 0.576784 0.313877
O O3 0.545031 0.131669 0.896158
O O4 0.388088 0.180974 0.963214
O O5 0.575379 0.252671 0.059054
O O6 0.813085 0.557036 0.419478
O O7 0.729456 0.716908 0.347494
O O8 0.710091 0.637635 0.526167
O O9 0.500000 0.000000 0.000000
O O10 0.370740 0.046555 0.100489
O O11 0.183761 0.855077 0.235592
O O12 0.699425 0.365114 0.458798
O O13 0.850587 0.279777 0.647991
O O14 0.500000 0.655408 0.750000
#
# Coordination Sequence:
#
# PCOD9257170 Si02
#       7
#     4   8   8   8   8   8   8
#     4  10  18  30  56  90 112 150 200 232 284 340
#     4   9  17  34  55  82 115 144 189 244 283 341
#     4   9  18  33  56  83 114 150 184 242 283 345
#     4   9  19  37  56  81 120 151 185 234 293 348
#     4   9  17  33  57  80 110 145 195 236 289 331
#     4  10  21  36  55  83 111 151 195 235 292 349
#     4  11  21  36  58  80 110 155 197 245 283 343
#
# _framework density 23.218374000000001
#
# number of rings (size 3 to 8) (size 9 to 14) (size 15 to 20)
#    0.000    2.462    1.538    1.846    0.000    0.000 
#    2.769    3.077    0.000    0.923    0.000    0.000 
#    0.000    0.000    0.000    0.000    0.000    0.000 
#
# Total GULP energy -144914.280005 kJ/mol
# GULP energy per Si atom -5573.626154 kJ/mol
# Density = 2.316553 g / cm^3
# Si number density = 23.218374 Si / 1000 Ang^3
#
#
#
# Elastic Constant Matrix: (Units=GPa)
#
#
# Indices 1 2 3 4 5 6 
#
# 1 115.0515 5.9110 47.5770 0.0000 38.8223 0.0000
# 2 5.9110 40.7188 -13.5004 0.0000 4.8729 0.0000
# 3 47.5770 -13.5004 52.2458 0.0000 18.7821 0.0000
# 4 0.0000 0.0000 0.0000 7.9740 0.0000 3.9148
# 5 38.8223 4.8729 18.7821 0.0000 48.8031 0.0000
# 6 0.0000 0.0000 0.0000 3.9148 0.0000 31.9969
#
#
#
# Elastic Compliance Matrix: (Units=1/GPa)
#
#
# Indices 1 2 3 4 5 6 
#
# 1 0.018005 -0.006785 -0.015370 0.000000 -0.007730 0.000000
# 2 -0.006785 0.031144 0.015556 0.000000 -0.003699 0.000000
# 3 -0.015370 0.015556 0.038669 0.000000 -0.004209 0.000000
# 4 0.000000 0.000000 0.000000 0.133421 0.000000 -0.016324
# 5 -0.007730 -0.003699 -0.004209 0.000000 0.028629 0.000000
# 6 0.000000 0.000000 0.000000 -0.016324 0.000000 0.033250
#
#
# Mechanical properties :
#
#
# Convention : Reuss Voigt Hill
#
# Bulk Modulus (GPa) = 13.40121 31.99906 22.70013
# Shear Modulus (GPa) = 15.56717 28.95669 22.26193
#
# Velocity S-wave (km/s) = 2.59215 3.53533 3.09982
# Velocity P-wave (km/s) = 3.83970 5.52054 4.75498
#
# Compressibility (1/GPa) = 0.07462013
#
# Stress axis : x y z
#
# Youngs Moduli (GPa) = 55.54154 32.10913 25.86028
#
# Poissons Ratio (x) = 0.21785 0.39747
# Poissons Ratio (y) = 0.37682 -0.40228
# Poissons Ratio (z) = 0.85367 -0.49948
#
# Static dielectric constant tensor:
#      x y z
#    x 1.940970 0.000000 0.025870 
#    y 0.000000 1.924590 0.000000 
#    z 0.025870 0.000000 1.883420 
# 
# From -- ./inp_files/98458.got.cif
#   From: 2010.05.17/outbox.cif.g08.bks.cpg/sg15_50_cif.got.tgz:98458.got - 2010.06.03 18:47:42.
