data_PCOD9257298
_publ_section_title
;
Structure prediction by ZEFSAII (Michael W. Deem and Ramdas Pophale) SiO2 
 PCOD9257298
Probable space group: C 2/C
;
_chemical_formula_sum "Si O2"
_cell_formula_units_Z 52
_cell_length_a 22.813972
_cell_length_b 17.917985
_cell_length_c 9.056904
_cell_angle_alpha 90.000000
_cell_angle_beta 41.300521
_cell_angle_gamma 90.000000
_cell_volume 2443.539509
_symmetry_space_group_name_H-M "C 2/C"
_symmetry_group_IT_number 15
_symmetry_cell_setting 'monoclinic'
loop_
_space_group_symop_operation_xyz
x,y,z
-x,y,1/2-z
-x,-y,-z
x,-y,1/2+z
1/2+x,1/2+y,z
1/2-x,1/2+y,1/2-z
1/2-x,1/2-y,-z
1/2+x,1/2-y,1/2+z
loop_
_atom_site_type_symbol
_atom_site_label
_atom_site_fract_x
_atom_site_fract_y
_atom_site_fract_z
Si Si1 0.651215 0.037415 0.431457
Si Si2 0.500000 0.840667 0.250000
Si Si3 0.927884 0.060997 0.697394
Si Si4 0.737615 0.914115 0.053921
Si Si5 0.896896 0.069682 0.445980
Si Si6 0.581491 0.806613 0.392047
Si Si7 0.500000 0.072280 0.250000
Si Si8 0.000000 0.190574 0.750000
O O1 0.581962 0.106332 0.536930
O O2 0.724476 0.066306 0.407837
O O3 0.696570 0.986534 0.219076
O O4 0.583213 0.978636 0.635441
O O5 0.539260 0.793200 0.311367
O O6 0.865890 0.075814 0.673728
O O7 0.963378 0.137970 0.690822
O O8 0.894444 0.017129 0.903321
O O9 0.000000 0.000000 0.500000
O O10 0.678531 0.841081 0.193820
O O11 0.833786 0.897212 0.940270
O O12 0.000000 0.095861 0.250000
O O13 0.526090 0.875940 0.564837
O O14 0.571206 0.742353 0.532073
#
# Coordination Sequence:
#
# PCOD9257298 Si02
#       8
#     8   4   8   8   8   8   4   4
#     4   9  16  26  50  75 114 153 191 239 260 313
#     4   9  16  31  45  78 115 156 200 210 265 330
#     4  10  19  38  61  86 100 133 192 241 279 323
#     4  10  18  31  50  85 116 147 188 233 282 313
#     4  10  20  35  58  83 107 136 187 245 279 318
#     4   9  19  31  52  80 121 153 180 217 272 350
#     4   8  14  28  46  76 110 160 194 214 270 326
#     4  11  20  39  59  84 111 146 178 222 285 344
#
# _framework density 21.280604
#
# number of rings (size 3 to 8) (size 9 to 14) (size 15 to 20)
#    0.000    2.462    2.308    1.846    0.000    3.692 
#    4.154    0.769    0.000    3.692    0.000    0.000 
#    0.000    0.000    0.000    0.000    0.000    0.769 
#
# Total GULP energy -144811.884850 kJ/mol
# GULP energy per Si atom -5569.687879 kJ/mol
# Density = 2.123217 g / cm^3
# Si number density = 21.280604 Si / 1000 Ang^3
#
#
#
# Elastic Constant Matrix: (Units=GPa)
#
#
# Indices 1 2 3 4 5 6 
#
# 1 162.1093 22.2328 30.2555 0.0000 2.5078 0.0000
# 2 22.2328 64.8826 18.3841 0.0000 5.9955 0.0000
# 3 30.2555 18.3841 44.9046 0.0000 -4.4129 0.0000
# 4 0.0000 0.0000 0.0000 18.8700 0.0000 7.0790
# 5 2.5078 5.9955 -4.4129 0.0000 32.2964 0.0000
# 6 0.0000 0.0000 0.0000 7.0790 0.0000 17.9655
#
#
#
# Elastic Compliance Matrix: (Units=1/GPa)
#
#
# Indices 1 2 3 4 5 6 
#
# 1 0.007170 -0.001100 -0.004475 0.000000 -0.000964 0.000000
# 2 -0.001100 0.018204 -0.007131 0.000000 -0.004268 0.000000
# 3 -0.004475 -0.007131 0.028755 0.000000 0.005600 0.000000
# 4 0.000000 0.000000 0.000000 0.062186 0.000000 -0.024504
# 5 -0.000964 -0.004268 0.005600 0.000000 0.032596 0.000000
# 6 0.000000 0.000000 0.000000 -0.024504 0.000000 0.065318
#
#
# Mechanical properties :
#
#
# Convention : Reuss Voigt Hill
#
# Bulk Modulus (GPa) = 34.82383 45.96016 40.39200
# Shear Modulus (GPa) = 20.06314 27.22798 23.64556
#
# Velocity S-wave (km/s) = 3.07382 3.58085 3.33698
# Velocity P-wave (km/s) = 5.38493 6.22421 5.81972
#
# Compressibility (1/GPa) = 0.02871597
#
# Stress axis : x y z
#
# Youngs Moduli (GPa) = 139.47682 54.93188 34.77688
#
# Poissons Ratio (x) = 0.06041 0.15564
# Poissons Ratio (y) = 0.15338 0.24801
# Poissons Ratio (z) = 0.62419 0.39175
#
# Static dielectric constant tensor:
#      x y z
#    x 1.832220 0.000000 -0.005850 
#    y 0.000000 1.771920 0.000000 
#    z -0.005850 0.000000 1.869800 
# 
# From -- ./inp_files/56980.got.cif
#   From: 2010.05.17/outbox.cif.g08.bks.cpg/sg15_29_cif.got.tgz:56980.got - 2010.06.03 18:47:42.
