data_PCOD9257203
_publ_section_title
;
Structure prediction by ZEFSAII (Michael W. Deem and Ramdas Pophale) SiO2 
 PCOD9257203
Probable space group: C 2/C
;
_chemical_formula_sum "Si O2"
_cell_formula_units_Z 44
_cell_length_a 20.369176
_cell_length_b 15.827574
_cell_length_c 9.520860
_cell_angle_alpha 90.000000
_cell_angle_beta 41.357108
_cell_angle_gamma 90.000000
_cell_volume 2028.155538
_symmetry_space_group_name_H-M "C 2/C"
_symmetry_group_IT_number 15
_symmetry_cell_setting 'monoclinic'
loop_
_space_group_symop_operation_xyz
x,y,z
-x,y,1/2-z
-x,-y,-z
x,-y,1/2+z
1/2+x,1/2+y,z
1/2-x,1/2+y,1/2-z
1/2-x,1/2-y,-z
1/2+x,1/2-y,1/2+z
loop_
_atom_site_type_symbol
_atom_site_label
_atom_site_fract_x
_atom_site_fract_y
_atom_site_fract_z
Si Si1 0.081612 0.936385 0.430973
Si Si2 0.500000 0.844043 0.750000
Si Si3 0.810010 0.044307 0.028568
Si Si4 0.383411 0.253634 0.137156
Si Si5 0.162509 0.231235 0.454321
Si Si6 0.414636 0.068849 0.141719
O O1 0.054434 0.837856 0.491748
O O2 0.126386 0.971219 0.503191
O O3 0.164894 0.940918 0.174693
O O4 0.000000 0.000000 0.500000
O O5 0.570666 0.784196 0.540594
O O6 0.576489 0.902094 0.710656
O O7 0.692238 0.033316 0.228092
O O8 0.840869 0.130729 0.059987
O O9 0.273910 0.260594 0.241741
O O10 0.357445 0.256792 0.345996
O O11 0.424782 0.159240 0.044389
O O12 0.500000 0.000000 0.000000
#
# Coordination Sequence:
#
# PCOD9257203 Si02
#       6
#     8   4   8   8   8   8
#     4  11  22  37  64  86 123 157 200 244 304 354
#     4  10  18  30  62  84 112 150 206 248 308 330
#     4  10  23  38  58  92 123 153 199 251 293 357
#     4   8  17  35  53  83 112 149 195 251 288 342
#     4   8  16  31  56  82 111 143 199 253 287 332
#     4  10  22  36  61  88 117 156 204 249 299 354
#
# _framework density 21.694588
#
# number of rings (size 3 to 8) (size 9 to 14) (size 15 to 20)
#    0.000    2.545    0.000    3.818   12.727    0.000 
#    0.000    0.000    4.000    5.455    0.000    0.000 
#    0.000    0.000    0.000    0.000    0.000    0.000 
#
# Total GULP energy -122513.160113 kJ/mol
# GULP energy per Si atom -5568.780005 kJ/mol
# Density = 2.164521 g / cm^3
# Si number density = 21.694588 Si / 1000 Ang^3
#
#
#
# Elastic Constant Matrix: (Units=GPa)
#
#
# Indices 1 2 3 4 5 6 
#
# 1 56.7734 11.8690 9.5639 0.0000 -21.5109 0.0000
# 2 11.8690 128.6465 42.9159 0.0000 -28.3599 0.0000
# 3 9.5639 42.9159 45.3966 0.0000 -24.6847 0.0000
# 4 0.0000 0.0000 0.0000 28.1205 0.0000 -11.7718
# 5 -21.5109 -28.3599 -24.6847 0.0000 35.8472 0.0000
# 6 0.0000 0.0000 0.0000 -11.7718 0.0000 30.0320
#
#
#
# Elastic Compliance Matrix: (Units=1/GPa)
#
#
# Indices 1 2 3 4 5 6 
#
# 1 0.023317 0.000222 0.004127 0.000000 0.017009 0.000000
# 2 0.000222 0.011503 -0.009432 0.000000 0.002738 0.000000
# 3 0.004127 -0.009432 0.043743 0.000000 0.025136 0.000000
# 4 0.000000 0.000000 0.000000 0.042542 0.000000 0.016675
# 5 0.017009 0.002738 0.025136 0.000000 0.057578 0.000000
# 6 0.000000 0.000000 0.000000 0.016675 0.000000 0.039834
#
#
# Mechanical properties :
#
#
# Convention : Reuss Voigt Hill
#
# Bulk Modulus (GPa) = 14.62073 39.94603 27.28338
# Shear Modulus (GPa) = 19.88203 29.89778 24.88991
#
# Velocity S-wave (km/s) = 3.03058 3.71633 3.39084
# Velocity P-wave (km/s) = 4.35888 6.07188 5.28524
#
# Compressibility (1/GPa) = 0.06839605
#
# Stress axis : x y z
#
# Youngs Moduli (GPa) = 42.88749 86.93423 22.86061
#
# Poissons Ratio (x) = -0.01927 -0.09434
# Poissons Ratio (y) = -0.00951 0.21562
# Poissons Ratio (z) = -0.17699 0.81997
#
# Static dielectric constant tensor:
#      x y z
#    x 1.860750 0.000000 -0.007410 
#    y 0.000000 1.882840 0.000000 
#    z -0.007410 0.000000 1.813050 
# 
# From -- ./inp_files/96595.got.cif
#   From: 2010.05.17/outbox.cif.g08.bks.cpg/sg15_49_cif.got.tgz:96595.got - 2010.06.03 18:47:42.
