data_PCOD9257336
_publ_section_title
;
Structure prediction by ZEFSAII (Michael W. Deem and Ramdas Pophale) SiO2 
 PCOD9257336
Probable space group: C 2/C
;
_chemical_formula_sum "Si O2"
_cell_formula_units_Z 56
_cell_length_a 24.558755
_cell_length_b 15.586230
_cell_length_c 24.545083
_cell_angle_alpha 90.000000
_cell_angle_beta 20.225351
_cell_angle_gamma 90.000000
_cell_volume 3248.090769
_symmetry_space_group_name_H-M "C 2/C"
_symmetry_group_IT_number 15
_symmetry_cell_setting 'monoclinic'
loop_
_space_group_symop_operation_xyz
x,y,z
-x,y,1/2-z
-x,-y,-z
x,-y,1/2+z
1/2+x,1/2+y,z
1/2-x,1/2+y,1/2-z
1/2-x,1/2-y,-z
1/2+x,1/2-y,1/2+z
loop_
_atom_site_type_symbol
_atom_site_label
_atom_site_fract_x
_atom_site_fract_y
_atom_site_fract_z
Si Si1 0.967416 0.375752 0.837740
Si Si2 0.963945 0.471120 0.614150
Si Si3 0.549455 0.310076 0.917462
Si Si4 0.777037 0.232501 0.881521
Si Si5 0.502654 0.347676 0.088904
Si Si6 0.901233 0.021618 0.537737
Si Si7 0.091220 0.366598 0.938906
O O1 0.002736 0.432094 0.858033
O O2 0.087216 0.294994 0.724937
O O3 0.000000 0.421750 0.750000
O O4 0.795449 0.334058 0.007500
O O5 0.783803 0.505587 0.779990
O O6 0.973818 0.396940 0.559028
O O7 0.076054 0.549018 0.490609
O O8 0.730605 0.334692 0.737270
O O9 0.507727 0.322214 0.020698
O O10 0.443981 0.380510 0.985139
O O11 0.509047 0.211961 0.943209
O O12 0.843611 0.179774 0.767629
O O13 0.640084 0.294270 0.988618
O O14 0.538254 0.448585 0.060048
O O15 0.000000 0.000000 0.500000
#
# Coordination Sequence:
#
# PCOD9257336 Si02
#       7
#     8   8   8   8   8   8   8
#     4  11  22  37  55  80 111 147 188 229 271 316
#     4  11  22  36  53  81 112 146 180 228 269 337
#     4  11  20  33  51  79 112 147 178 223 264 337
#     4  10  20  33  55  76 108 145 192 222 261 322
#     4  10  18  31  51  79 109 150 176 222 273 313
#     4  10  19  33  50  74 110 143 180 221 270 320
#     4  11  22  34  54  81 111 144 186 215 281 323
#
# _framework density 17.240898000000001
#
# number of rings (size 3 to 8) (size 9 to 14) (size 15 to 20)
#    0.000    1.429    4.286    3.857    2.000    2.286 
#    0.000    0.000    0.000    0.000    0.000    4.000 
#    0.000    0.000    0.000    0.000    0.000    0.000 
#
# Total GULP energy -156272.149043 kJ/mol
# GULP energy per Si atom -5581.148180 kJ/mol
# Density = 1.720166 g / cm^3
# Si number density = 17.240898 Si / 1000 Ang^3
#
#
#
# Elastic Constant Matrix: (Units=GPa)
#
#
# Indices 1 2 3 4 5 6 
#
# 1 49.2261 20.0173 29.4022 0.0006 21.9635 -0.0010
# 2 20.0173 111.5267 45.5649 0.0006 9.7004 -0.0020
# 3 29.4022 45.5649 89.5483 0.0026 11.1373 0.0003
# 4 0.0006 0.0006 0.0026 53.9492 -0.0006 -20.2757
# 5 21.9635 9.7004 11.1373 -0.0006 17.3588 0.0000
# 6 -0.0010 -0.0020 0.0003 -20.2757 0.0000 38.5740
#
#
#
# Elastic Compliance Matrix: (Units=1/GPa)
#
#
# Indices 1 2 3 4 5 6 
#
# 1 0.053793 -0.000267 -0.009867 0.000000 -0.061582 0.000001
# 2 -0.000267 0.011453 -0.005418 0.000000 -0.002586 0.000001
# 3 -0.009867 -0.005418 0.016556 -0.000001 0.004890 -0.000001
# 4 0.000000 0.000000 -0.000001 0.023099 0.000002 0.012142
# 5 -0.061582 -0.002586 0.004890 0.000002 0.133832 -0.000001
# 6 0.000001 0.000001 -0.000001 0.012142 -0.000001 0.032306
#
#
# Mechanical properties :
#
#
# Convention : Reuss Voigt Hill
#
# Bulk Modulus (GPa) = 19.72538 48.91887 34.32212
# Shear Modulus (GPa) = 15.67182 32.33085 24.00134
#
# Velocity S-wave (km/s) = 3.01822 4.33510 3.73516
# Velocity P-wave (km/s) = 4.85922 7.31388 6.20906
#
# Compressibility (1/GPa) = 0.05069612
#
# Stress axis : x y z
#
# Youngs Moduli (GPa) = 18.58972 87.31325 60.40204
#
# Poissons Ratio (x) = 0.02334 0.59600
# Poissons Ratio (y) = 0.00497 0.32728
# Poissons Ratio (z) = 0.18343 0.47309
#
# Static dielectric constant tensor:
#      x y z
#    x 1.585970 0.000000 0.001250 
#    y 0.000000 1.633810 0.000000 
#    z 0.001250 0.000000 1.628460 
# 
# From -- ./inp_files/282087.got.cif
#   From: 2010.05.17/outbox.cif.g08.bks.cpg/sg15_142_cif.got.tgz:282087.got - 2010.06.03 18:47:42.
