data_PCOD9257041
_publ_section_title
;
Structure prediction by ZEFSAII (Michael W. Deem and Ramdas Pophale) SiO2 
 PCOD9257041
Probable space group: C 2/C
;
_chemical_formula_sum "Si O2"
_cell_formula_units_Z 48
_cell_length_a 15.347184
_cell_length_b 25.716727
_cell_length_c 22.259372
_cell_angle_alpha 90.000000
_cell_angle_beta 164.501179
_cell_angle_gamma 90.000000
_cell_volume 2347.598915
_symmetry_space_group_name_H-M "C 2/C"
_symmetry_group_IT_number 15
_symmetry_cell_setting 'monoclinic'
loop_
_space_group_symop_operation_xyz
x,y,z
-x,y,1/2-z
-x,-y,-z
x,-y,1/2+z
1/2+x,1/2+y,z
1/2-x,1/2+y,1/2-z
1/2-x,1/2-y,-z
1/2+x,1/2-y,1/2+z
loop_
_atom_site_type_symbol
_atom_site_label
_atom_site_fract_x
_atom_site_fract_y
_atom_site_fract_z
Si Si1 0.285324 0.683517 0.815047
Si Si2 0.000000 0.515362 0.250000
Si Si3 0.414960 0.590715 0.823449
Si Si4 0.092301 0.466996 0.431153
Si Si5 0.000000 0.939802 0.250000
Si Si6 0.122401 0.866386 0.897915
Si Si7 0.598636 0.285328 0.983011
O O1 0.451762 0.648147 0.875575
O O2 0.495253 0.700149 0.011566
O O3 0.006779 0.645823 0.657201
O O4 0.083230 0.732833 0.656806
O O5 0.909081 0.480453 0.247379
O O6 0.292439 0.552877 0.463356
O O7 0.105085 0.562975 0.648572
O O8 0.392776 0.591998 0.737036
O O9 0.216728 0.520823 0.540986
O O10 0.389932 0.428846 0.608052
O O11 0.000000 0.850808 0.750000
O O12 0.993661 0.830262 0.865882
O O13 0.000000 0.278115 0.250000
#
# Coordination Sequence:
#
# PCOD9257041 Si02
#       7
#     8   4   8   8   4   8   8
#     4  10  20  34  55  81 113 148 190 232 291 355
#     4  10  22  38  56  79 121 152 196 248 276 338
#     4  10  22  38  59  81 113 154 202 237 295 341
#     4  10  20  34  58  86 119 154 188 231 296 352
#     4  10  20  40  56  83 119 152 192 250 276 344
#     4  10  18  30  51  86 122 153 175 221 289 365
#     4  10  19  33  55  84 124 149 182 237 300 350
#
# _framework density 20.446422999999999
#
# number of rings (size 3 to 8) (size 9 to 14) (size 15 to 20)
#    0.000    2.000    0.833    4.500    5.833    0.000 
#    0.000    6.667    0.000    3.000    0.000    0.000 
#    0.000    0.000    0.000    0.000    0.000    0.000 
#
# Total GULP energy -133744.266087 kJ/mol
# GULP energy per Si atom -5572.677754 kJ/mol
# Density = 2.039989 g / cm^3
# Si number density = 20.446423 Si / 1000 Ang^3
#
#
#
# Elastic Constant Matrix: (Units=GPa)
#
#
# Indices 1 2 3 4 5 6 
#
# 1 160.0742 72.7127 31.2728 -0.2207 -42.2526 0.1005
# 2 72.7127 101.8032 13.8673 -0.0920 -20.7929 0.1098
# 3 31.2728 13.8673 39.2261 0.7116 -22.4864 0.3151
# 4 -0.2207 -0.0920 0.7116 11.8116 0.0459 4.9066
# 5 -42.2526 -20.7929 -22.4864 0.0459 35.9601 0.0719
# 6 0.1005 0.1098 0.3151 4.9066 0.0719 27.2450
#
#
#
# Elastic Compliance Matrix: (Units=1/GPa)
#
#
# Indices 1 2 3 4 5 6 
#
# 1 0.011949 -0.006405 -0.002091 0.000294 0.009028 -0.000071
# 2 -0.006405 0.014576 0.000735 -0.000039 0.001362 -0.000040
# 3 -0.002091 0.000735 0.040191 -0.002516 0.023104 -0.000068
# 4 0.000294 -0.000039 -0.002516 0.091670 -0.001335 -0.016477
# 5 0.009028 0.001362 0.023104 -0.001335 0.053653 -0.000207
# 6 -0.000071 -0.000040 -0.000068 -0.016477 -0.000207 0.039673
#
#
# Mechanical properties :
#
#
# Convention : Reuss Voigt Hill
#
# Bulk Modulus (GPa) = 19.53370 59.64545 39.58957
# Shear Modulus (GPa) = 17.58726 27.22004 22.40365
#
# Velocity S-wave (km/s) = 2.93604 3.65264 3.31376
# Velocity P-wave (km/s) = 4.59000 6.85740 5.83490
#
# Compressibility (1/GPa) = 0.05119359
#
# Stress axis : x y z
#
# Youngs Moduli (GPa) = 83.69222 68.60709 24.88145
#
# Poissons Ratio (x) = 0.43944 0.05203
# Poissons Ratio (y) = 0.53606 -0.01830
# Poissons Ratio (z) = 0.17500 -0.05046
#
# Static dielectric constant tensor:
#      x y z
#    x 1.782330 -0.000090 -0.002100 
#    y -0.000090 1.762180 -0.000310 
#    z -0.002100 -0.000310 1.774500 
# 
# From -- ./inp_files/44478.got.cif
#   From: 2010.05.17/outbox.cif.g08.bks.cpg/sg15_23_cif.got.tgz:44478.got - 2010.06.03 18:47:42.
