data_PCOD9257974
_publ_section_title
;
Structure prediction by ZEFSAII (Michael W. Deem and Ramdas Pophale) SiO2 
 PCOD9257974
Probable space group: C 2/C
;
_chemical_formula_sum "Si O2"
_cell_formula_units_Z 52
_cell_length_a 15.236200
_cell_length_b 12.949287
_cell_length_c 12.866134
_cell_angle_alpha 90.000000
_cell_angle_beta 123.740225
_cell_angle_gamma 90.000000
_cell_volume 2110.894224
_symmetry_space_group_name_H-M "C 2/C"
_symmetry_group_IT_number 15
_symmetry_cell_setting 'monoclinic'
loop_
_space_group_symop_operation_xyz
x,y,z
-x,y,1/2-z
-x,-y,-z
x,-y,1/2+z
1/2+x,1/2+y,z
1/2-x,1/2+y,1/2-z
1/2-x,1/2-y,-z
1/2+x,1/2-y,1/2+z
loop_
_atom_site_type_symbol
_atom_site_label
_atom_site_fract_x
_atom_site_fract_y
_atom_site_fract_z
Si Si1 0.616418 0.539191 0.687762
Si Si2 0.267709 0.133556 0.185409
Si Si3 0.000000 0.893652 0.750000
Si Si4 0.811995 0.153054 0.943695
Si Si5 0.095234 0.633285 0.029488
Si Si6 0.242236 0.470797 0.033810
Si Si7 0.381121 0.783925 0.305101
O O1 0.695038 0.457771 0.684879
O O2 0.517186 0.479416 0.668178
O O3 0.602356 0.622893 0.588936
O O4 0.682839 0.578554 0.830299
O O5 0.369881 0.139788 0.327033
O O6 0.194181 0.231897 0.158750
O O7 0.285279 0.104086 0.078343
O O8 0.925815 0.806198 0.759106
O O9 0.839978 0.271822 0.982822
O O10 0.697134 0.147429 0.815568
O O11 0.809679 0.070740 0.034620
O O12 0.140510 0.525907 0.016102
O O13 0.975972 0.654086 0.919167
#
# Coordination Sequence:
#
# PCOD9257974 Si02
#       7
#     8   8   4   8   8   8   8
#     4   9  19  33  53  81 113 144 181 232 280 323
#     4   8  19  35  53  79 113 144 183 228 278 330
#     4  10  18  32  56  88 108 140 194 228 266 336
#     4  10  20  35  54  83 116 146 182 229 279 330
#     4  10  19  34  56  81 109 147 189 230 270 324
#     4  10  18  35  56  77 109 152 184 222 276 330
#     4  10  19  34  56  83 113 146 184 232 275 319
#
# _framework density 24.634111000000001
#
# number of rings (size 3 to 8) (size 9 to 14) (size 15 to 20)
#    0.000    2.462    0.000    3.231    0.000    1.231 
#    0.000   16.154    0.000    1.846    0.000    0.000 
#    0.000    0.000    0.000    0.000    0.000    0.000 
#
# Total GULP energy -145171.575700 kJ/mol
# GULP energy per Si atom -5583.522142 kJ/mol
# Density = 2.457804 g / cm^3
# Si number density = 24.634111 Si / 1000 Ang^3
#
#
#
# Elastic Constant Matrix: (Units=GPa)
#
#
# Indices 1 2 3 4 5 6 
#
# 1 99.5708 44.1346 58.8262 0.0000 19.0208 0.0000
# 2 44.1346 53.9395 16.1336 0.0000 -9.2792 0.0000
# 3 58.8262 16.1336 144.1795 0.0000 8.8163 0.0000
# 4 0.0000 0.0000 0.0000 32.5741 0.0000 -19.2722
# 5 19.0208 -9.2792 8.8163 0.0000 38.2611 0.0000
# 6 0.0000 0.0000 0.0000 -19.2722 0.0000 9.7874
#
#
#
# Elastic Compliance Matrix: (Units=1/GPa)
#
#
# Indices 1 2 3 4 5 6 
#
# 1 0.029467 -0.024933 -0.008081 0.000000 -0.018834 0.000000
# 2 -0.024933 0.041365 0.004233 0.000000 0.021452 0.000000
# 3 -0.008081 0.004233 0.009586 0.000000 0.002835 0.000000
# 4 0.000000 0.000000 0.000000 -0.186065 0.000000 -0.366378
# 5 -0.018834 0.021452 0.002835 0.000000 0.040048 0.000000
# 6 0.000000 0.000000 0.000000 -0.366378 0.000000 -0.619256
#
#
# Mechanical properties :
#
#
# Convention : Reuss Voigt Hill
#
# Bulk Modulus (GPa) = 43.75620 59.54205 51.64912
# Shear Modulus (GPa) = -8.06875 28.03088 9.98106
#
# Velocity S-wave (km/s) = -1.81178 3.37692 2.01507
# Velocity P-wave (km/s) = 3.66391 6.27916 5.14063
#
# Compressibility (1/GPa) = 0.02285390
#
# Stress axis : x y z
#
# Youngs Moduli (GPa) = 33.93660 24.17522 104.31971
#
# Poissons Ratio (x) = 0.60277 0.84300
# Poissons Ratio (y) = 0.84615 -0.44154
# Poissons Ratio (z) = 0.27424 -0.10232
#
# Static dielectric constant tensor:
#      x y z
#    x 2.089110 0.000000 0.145830 
#    y 0.000000 2.014460 0.000000 
#    z 0.145830 0.000000 2.166070 
# 
# From -- ./inp_files/112139.got.cif
#   From: 2010.05.17/outbox.cif.g08.bks.cpg/sg15_57_cif.got.tgz:112139.got - 2010.06.03 18:47:42.
