data_PCOD9257204
_publ_section_title
;
Structure prediction by ZEFSAII (Michael W. Deem and Ramdas Pophale) SiO2 
 PCOD9257204
Probable space group: C 2/C
;
_chemical_formula_sum "Si O2"
_cell_formula_units_Z 48
_cell_length_a 17.635713
_cell_length_b 15.804196
_cell_length_c 8.596098
_cell_angle_alpha 90.000000
_cell_angle_beta 62.642593
_cell_angle_gamma 90.000000
_cell_volume 2127.926639
_symmetry_space_group_name_H-M "C 2/C"
_symmetry_group_IT_number 15
_symmetry_cell_setting 'monoclinic'
loop_
_space_group_symop_operation_xyz
x,y,z
-x,y,1/2-z
-x,-y,-z
x,-y,1/2+z
1/2+x,1/2+y,z
1/2-x,1/2+y,1/2-z
1/2-x,1/2-y,-z
1/2+x,1/2-y,1/2+z
loop_
_atom_site_type_symbol
_atom_site_label
_atom_site_fract_x
_atom_site_fract_y
_atom_site_fract_z
Si Si1 0.945760 0.641487 0.462734
Si Si2 0.000000 0.963561 0.750000
Si Si3 0.103564 0.806077 0.122291
Si Si4 0.610680 0.414866 0.372854
Si Si5 0.770891 0.059133 0.131943
Si Si6 0.500000 0.864914 0.250000
Si Si7 0.650309 0.020904 0.496100
O O1 0.881952 0.715259 0.466063
O O2 0.906149 0.550318 0.535362
O O3 0.000000 0.628697 0.250000
O O4 0.988621 0.674126 0.584559
O O5 0.047788 0.907652 0.577549
O O6 0.063474 0.024604 0.788448
O O7 0.136349 0.829170 0.263319
O O8 0.000000 0.812862 0.250000
O O9 0.152713 0.875104 0.970257
O O10 0.688095 0.469737 0.360213
O O11 0.706183 0.079719 0.330828
O O12 0.713570 0.036185 0.039014
O O13 0.415334 0.920653 0.352160
#
# Coordination Sequence:
#
# PCOD9257204 Si02
#       7
#     8   4   8   8   8   4   8
#     4  11  25  46  75 109 143 186 246 308 378 431
#     4  10  18  30  64  88 132 194 246 278 312 429
#     4  11  23  42  66 101 155 190 224 298 372 429
#     4  11  18  36  58  98 138 193 244 280 344 428
#     4  12  23  38  67 108 138 190 242 292 355 440
#     4  12  24  50  80 106 132 198 250 314 362 437
#     4  12  23  44  74 105 138 180 256 305 358 435
#
# _framework density 22.557167
#
# number of rings (size 3 to 8) (size 9 to 14) (size 15 to 20)
#    0.000    0.667    6.667    2.500    0.000    0.667 
#    0.000   11.667    0.000    0.000    0.000    0.000 
#    0.000    0.000    0.000    0.000    0.000    0.000 
#
# Total GULP energy -133770.669460 kJ/mol
# GULP energy per Si atom -5573.777894 kJ/mol
# Density = 2.250583 g / cm^3
# Si number density = 22.557167 Si / 1000 Ang^3
#
#
#
# Elastic Constant Matrix: (Units=GPa)
#
#
# Indices 1 2 3 4 5 6 
#
# 1 49.5867 -0.9132 36.6635 0.0000 11.0403 0.0000
# 2 -0.9132 47.8111 37.4552 0.0000 -1.2445 0.0000
# 3 36.6635 37.4552 167.8120 0.0000 -4.8768 0.0000
# 4 0.0000 0.0000 0.0000 32.8015 0.0000 -0.3493
# 5 11.0403 -1.2445 -4.8768 0.0000 44.1904 0.0000
# 6 0.0000 0.0000 0.0000 -0.3493 0.0000 23.7395
#
#
#
# Elastic Compliance Matrix: (Units=1/GPa)
#
#
# Indices 1 2 3 4 5 6 
#
# 1 0.027646 0.006344 -0.007676 0.000000 -0.007575 0.000000
# 2 0.006344 0.026804 -0.007417 0.000000 -0.001649 0.000000
# 3 -0.007676 -0.007417 0.009371 0.000000 0.002743 0.000000
# 4 0.000000 0.000000 0.000000 0.030491 0.000000 0.000449
# 5 -0.007575 -0.001649 0.002743 0.000000 0.024778 0.000000
# 6 0.000000 0.000000 0.000000 0.000449 0.000000 0.042131
#
#
# Mechanical properties :
#
#
# Convention : Reuss Voigt Hill
#
# Bulk Modulus (GPa) = 21.58697 45.73565 33.66131
# Shear Modulus (GPa) = 25.75202 32.94656 29.34929
#
# Velocity S-wave (km/s) = 3.38247 3.82590 3.61100
# Velocity P-wave (km/s) = 4.98453 6.31159 5.68690
#
# Compressibility (1/GPa) = 0.04632425
#
# Stress axis : x y z
#
# Youngs Moduli (GPa) = 36.17179 37.30771 106.70939
#
# Poissons Ratio (x) = -0.23670 0.81913
# Poissons Ratio (y) = -0.22949 0.79143
# Poissons Ratio (z) = 0.27766 0.27670
#
# Static dielectric constant tensor:
#      x y z
#    x 1.879250 0.000000 0.001550 
#    y 0.000000 1.853010 0.000000 
#    z 0.001550 0.000000 1.926610 
# 
# From -- ./inp_files/48414.got.cif
#   From: 2010.05.17/outbox.cif.g08.bks.cpg/sg15_25_cif.got.tgz:48414.got - 2010.06.03 18:47:42.
