data_PCOD9257160
_publ_section_title
;
Structure prediction by ZEFSAII (Michael W. Deem and Ramdas Pophale) SiO2 
 PCOD9257160
Probable space group: C 2/C
;
_chemical_formula_sum "Si O2"
_cell_formula_units_Z 52
_cell_length_a 10.441221
_cell_length_b 19.459797
_cell_length_c 17.657846
_cell_angle_alpha 90.000000
_cell_angle_beta 133.055677
_cell_angle_gamma 90.000000
_cell_volume 2621.566355
_symmetry_space_group_name_H-M "C 2/C"
_symmetry_group_IT_number 15
_symmetry_cell_setting 'monoclinic'
loop_
_space_group_symop_operation_xyz
x,y,z
-x,y,1/2-z
-x,-y,-z
x,-y,1/2+z
1/2+x,1/2+y,z
1/2-x,1/2+y,1/2-z
1/2-x,1/2-y,-z
1/2+x,1/2-y,1/2+z
loop_
_atom_site_type_symbol
_atom_site_label
_atom_site_fract_x
_atom_site_fract_y
_atom_site_fract_z
Si Si1 0.768292 0.820720 0.224269
Si Si2 0.846566 0.186262 0.576043
Si Si3 0.000000 0.942004 0.750000
Si Si4 0.219197 0.342392 0.567234
Si Si5 0.688783 0.974778 0.172700
Si Si6 0.416419 0.922028 0.532390
Si Si7 0.423933 0.202922 0.642120
O O1 0.810521 0.816023 0.152113
O O2 0.703079 0.898944 0.211770
O O3 0.604777 0.771377 0.175523
O O4 0.943577 0.809545 0.343298
O O5 0.750000 0.250000 0.500000
O O6 0.749117 0.119366 0.502673
O O7 0.126239 0.893941 0.849847
O O8 0.124487 0.988131 0.747581
O O9 0.292858 0.265333 0.607996
O O10 0.163694 0.344598 0.456757
O O11 0.055721 0.366618 0.553250
O O12 0.529478 0.025771 0.129179
O O13 0.658375 0.963208 0.070086
O O14 0.500000 0.172126 0.750000
#
# Coordination Sequence:
#
# PCOD9257160 Si02
#       7
#     8   8   4   8   8   8   8
#     4  10  21  37  51  86 110 141 190 217 285 325
#     4  10  20  32  54  80 118 143 169 227 276 346
#     4  10  18  30  56  84 108 136 180 234 284 304
#     4  10  20  34  52  84 111 136 187 233 273 323
#     4   9  16  30  54  77 111 137 177 238 268 316
#     4   9  17  32  52  84 108 139 183 225 283 313
#     4  11  22  35  56  77 114 149 179 232 272 329
#
# _framework density 19.835470999999998
#
# number of rings (size 3 to 8) (size 9 to 14) (size 15 to 20)
#    0.000    2.154    3.846    1.846    2.154    0.000 
#    0.000    0.000    0.000    0.923    8.000    0.000 
#    0.000    0.000    0.000    0.000    0.000    0.000 
#
# Total GULP energy -144820.508677 kJ/mol
# GULP energy per Si atom -5570.019564 kJ/mol
# Density = 1.979032 g / cm^3
# Si number density = 19.835471 Si / 1000 Ang^3
#
#
#
# Elastic Constant Matrix: (Units=GPa)
#
#
# Indices 1 2 3 4 5 6 
#
# 1 31.8061 10.0312 23.5351 0.0000 9.4279 0.0000
# 2 10.0312 66.5003 42.2791 0.0000 5.7342 0.0000
# 3 23.5351 42.2791 130.9056 0.0000 22.5020 0.0000
# 4 0.0000 0.0000 0.0000 28.6817 0.0000 12.4170
# 5 9.4279 5.7342 22.5020 0.0000 30.4975 0.0000
# 6 0.0000 0.0000 0.0000 12.4170 0.0000 22.2814
#
#
#
# Elastic Compliance Matrix: (Units=1/GPa)
#
#
# Indices 1 2 3 4 5 6 
#
# 1 0.037958 -0.001971 -0.004849 0.000000 -0.007786 0.000000
# 2 -0.001971 0.019057 -0.006058 0.000000 0.001496 0.000000
# 3 -0.004849 -0.006058 0.011468 0.000000 -0.005824 0.000000
# 4 0.000000 0.000000 0.000000 0.045952 0.000000 -0.025608
# 5 -0.007786 0.001496 -0.005824 0.000000 0.039212 0.000000
# 6 0.000000 0.000000 0.000000 -0.025608 0.000000 0.059151
#
#
# Mechanical properties :
#
#
# Convention : Reuss Voigt Hill
#
# Bulk Modulus (GPa) = 23.40425 42.32254 32.86340
# Shear Modulus (GPa) = 19.77861 26.51656 23.14759
#
# Velocity S-wave (km/s) = 3.16117 3.66023 3.41981
# Velocity P-wave (km/s) = 5.01486 6.26468 5.67428
#
# Compressibility (1/GPa) = 0.04272728
#
# Stress axis : x y z
#
# Youngs Moduli (GPa) = 26.34460 52.47352 87.19546
#
# Poissons Ratio (x) = 0.10344 0.42285
# Poissons Ratio (y) = 0.05193 0.52820
# Poissons Ratio (z) = 0.12776 0.31787
#
# Static dielectric constant tensor:
#      x y z
#    x 1.757510 0.000000 0.031700 
#    y 0.000000 1.754700 0.000000 
#    z 0.031700 0.000000 1.728860 
# 
# From -- ./inp_files/239872.got.cif
#   From: 2010.05.17/outbox.cif.g08.bks.cpg/sg15_120_cif.got.tgz:239872.got - 2010.06.03 18:47:42.
