data_PCOD9257165
_publ_section_title
;
Structure prediction by ZEFSAII (Michael W. Deem and Ramdas Pophale) SiO2 
 PCOD9257165
Probable space group: C 2/C
;
_chemical_formula_sum "Si O2"
_cell_formula_units_Z 56
_cell_length_a 5.924596
_cell_length_b 22.148923
_cell_length_c 22.901474
_cell_angle_alpha 90.000000
_cell_angle_beta 46.307627
_cell_angle_gamma 90.000000
_cell_volume 2172.944283
_symmetry_space_group_name_H-M "C 2/C"
_symmetry_group_IT_number 15
_symmetry_cell_setting 'monoclinic'
loop_
_space_group_symop_operation_xyz
x,y,z
-x,y,1/2-z
-x,-y,-z
x,-y,1/2+z
1/2+x,1/2+y,z
1/2-x,1/2+y,1/2-z
1/2-x,1/2-y,-z
1/2+x,1/2-y,1/2+z
loop_
_atom_site_type_symbol
_atom_site_label
_atom_site_fract_x
_atom_site_fract_y
_atom_site_fract_z
Si Si1 0.336009 0.980832 0.844532
Si Si2 0.359190 0.098616 0.707922
Si Si3 0.753098 0.905838 0.959720
Si Si4 0.763588 0.221874 0.746629
Si Si5 0.318335 0.130921 0.158959
Si Si6 0.597081 0.300131 0.964331
Si Si7 0.766519 0.828177 0.427478
O O1 0.500000 0.975793 0.750000
O O2 0.500070 0.927970 0.851506
O O3 0.965984 0.965423 0.915266
O O4 0.426586 0.045184 0.856147
O O5 0.500000 0.095437 0.750000
O O6 0.403482 0.169094 0.684567
O O7 0.000000 0.083368 0.750000
O O8 0.758536 0.876967 0.894621
O O9 0.923165 0.857103 0.969314
O O10 0.394244 0.894013 0.043085
O O11 0.500000 0.247135 0.750000
O O12 0.000000 0.255009 0.750000
O O13 0.976317 0.179762 0.667265
O O14 0.547492 0.188000 0.122877
O O15 0.000000 0.132787 0.250000
O O16 0.540132 0.230259 0.959452
O O17 0.602170 0.312133 0.032321
#
# Coordination Sequence:
#
# PCOD9257165 Si02
#       7
#     8   8   8   8   8   8   8
#     4  10  18  30  56  86 118 153 197 248 316 373
#     4   9  19  35  60  88 117 152 200 253 310 371
#     4  10  20  34  56  86 120 162 200 251 308 371
#     4  10  23  43  66  93 118 161 212 266 313 363
#     4  10  18  31  50  86 122 152 201 254 306 370
#     4   9  21  36  56  86 118 172 202 252 311 370
#     4  10  21  40  60  82 123 165 214 252 310 376
#
# _framework density 25.771484999999998
#
# number of rings (size 3 to 8) (size 9 to 14) (size 15 to 20)
#    0.000    2.286    1.429    0.857    4.000    0.571 
#    2.571    0.000    0.000   11.143    0.000    0.000 
#    0.000    0.000    0.000    0.000    0.000    0.000 
#
# Total GULP energy -156015.394752 kJ/mol
# GULP energy per Si atom -5571.978384 kJ/mol
# Density = 2.571283 g / cm^3
# Si number density = 25.771485 Si / 1000 Ang^3
#
#
#
# Elastic Constant Matrix: (Units=GPa)
#
#
# Indices 1 2 3 4 5 6 
#
# 1 124.7393 31.6907 32.0088 0.0000 6.3902 0.0000
# 2 31.6907 80.1908 -23.4301 0.0000 0.0145 0.0000
# 3 32.0088 -23.4301 74.9604 0.0000 -1.1245 0.0000
# 4 0.0000 0.0000 0.0000 16.7360 0.0000 -11.3526
# 5 6.3902 0.0145 -1.1245 0.0000 39.7576 0.0000
# 6 0.0000 0.0000 0.0000 -11.3526 0.0000 36.6576
#
#
#
# Elastic Compliance Matrix: (Units=1/GPa)
#
#
# Indices 1 2 3 4 5 6 
#
# 1 0.011634 -0.006666 -0.007082 0.000000 -0.002068 0.000000
# 2 -0.006666 0.017544 0.008350 0.000000 0.001301 0.000000
# 3 -0.007082 0.008350 0.019000 0.000000 0.001673 0.000000
# 4 0.000000 0.000000 0.000000 0.075642 0.000000 0.023426
# 5 -0.002068 0.001301 0.001673 0.000000 0.025532 0.000000
# 6 0.000000 0.000000 0.000000 0.023426 0.000000 0.034534
#
#
# Mechanical properties :
#
#
# Convention : Reuss Voigt Hill
#
# Bulk Modulus (GPa) = 26.75264 40.04770 33.40017
# Shear Modulus (GPa) = 24.13791 34.60499 29.37145
#
# Velocity S-wave (km/s) = 3.06373 3.66835 3.37959
# Velocity P-wave (km/s) = 4.78733 5.78927 5.31198
#
# Compressibility (1/GPa) = 0.03737949
#
# Stress axis : x y z
#
# Youngs Moduli (GPa) = 85.95721 56.99882 52.63263
#
# Poissons Ratio (x) = 0.37998 0.37277
# Poissons Ratio (y) = 0.57303 -0.43948
# Poissons Ratio (z) = 0.60879 -0.47593
#
# Static dielectric constant tensor:
#      x y z
#    x 2.130170 0.000000 -0.070920 
#    y 0.000000 2.028270 0.000000 
#    z -0.070920 0.000000 2.181850 
# 
# From -- ./inp_files/261996.got.cif
#   From: 2010.05.17/outbox.cif.g08.bks.cpg/sg15_131_cif.got.tgz:261996.got - 2010.06.03 18:47:42.
