data_PCOD9257769
_publ_section_title
;
Structure prediction by ZEFSAII (Michael W. Deem and Ramdas Pophale) SiO2 
 PCOD9257769
Probable space group: C 2/C
;
_chemical_formula_sum "Si O2"
_cell_formula_units_Z 56
_cell_length_a 11.918922
_cell_length_b 21.337721
_cell_length_c 15.027368
_cell_angle_alpha 90.000000
_cell_angle_beta 49.630249
_cell_angle_gamma 90.000000
_cell_volume 2911.754246
_symmetry_space_group_name_H-M "C 2/C"
_symmetry_group_IT_number 15
_symmetry_cell_setting 'monoclinic'
loop_
_space_group_symop_operation_xyz
x,y,z
-x,y,1/2-z
-x,-y,-z
x,-y,1/2+z
1/2+x,1/2+y,z
1/2-x,1/2+y,1/2-z
1/2-x,1/2-y,-z
1/2+x,1/2-y,1/2+z
loop_
_atom_site_type_symbol
_atom_site_label
_atom_site_fract_x
_atom_site_fract_y
_atom_site_fract_z
Si Si1 0.985317 0.463752 0.152753
Si Si2 0.302856 0.867348 0.157130
Si Si3 0.465796 0.161845 0.403415
Si Si4 0.687201 0.600840 0.456650
Si Si5 0.242171 0.572076 0.274894
Si Si6 0.024339 0.195171 0.839373
Si Si7 0.784385 0.989974 0.407416
O O1 0.935731 0.396214 0.144386
O O2 0.671876 0.547375 0.181086
O O3 0.000000 0.463627 0.250000
O O4 0.125766 0.487662 0.026009
O O5 0.188794 0.828578 0.273735
O O6 0.228077 0.927840 0.147487
O O7 0.367851 0.828739 0.041926
O O8 0.357703 0.121301 0.393417
O O9 0.615438 0.125016 0.351478
O O10 0.504620 0.230628 0.350614
O O11 0.671572 0.589105 0.359699
O O12 0.588808 0.658636 0.540111
O O13 0.644403 0.539864 0.539220
O O14 0.144746 0.511882 0.300194
O O15 0.000000 0.174731 0.750000
#
# Coordination Sequence:
#
# PCOD9257769 Si02
#       7
#     8   8   8   8   8   8   8
#     4  11  17  33  59  81 101 132 186 241 269 303
#     4  10  21  35  51  79 109 141 181 217 274 322
#     4  11  20  32  52  78 113 142 181 217 265 326
#     4  11  21  33  52  80 112 147 180 210 279 331
#     4  11  18  31  53  84 105 132 183 235 265 309
#     4  12  23  34  50  75 123 153 166 213 272 344
#     4  10  18  32  53  79 109 131 181 237 263 306
#
# _framework density 19.232392999999998
#
# number of rings (size 3 to 8) (size 9 to 14) (size 15 to 20)
#    0.000    1.143    8.571    2.571    2.000    0.000 
#    0.000    2.857    3.143    0.857    0.000    0.000 
#    0.000    0.000    0.000    0.000    0.000    0.000 
#
# Total GULP energy -156019.623150 kJ/mol
# GULP energy per Si atom -5572.129398 kJ/mol
# Density = 1.918862 g / cm^3
# Si number density = 19.232393 Si / 1000 Ang^3
#
#
#
# Elastic Constant Matrix: (Units=GPa)
#
#
# Indices 1 2 3 4 5 6 
#
# 1 22.6331 23.9402 21.7971 0.0001 -2.3952 0.0000
# 2 23.9402 85.9934 50.5975 0.0002 1.3490 -0.0001
# 3 21.7971 50.5975 97.4682 -0.0002 13.9796 0.0001
# 4 0.0001 0.0002 -0.0002 163.4376 -0.0001 -74.9340
# 5 -2.3952 1.3490 13.9796 -0.0001 11.5891 0.0001
# 6 0.0000 -0.0001 0.0001 -74.9340 0.0001 64.5139
#
#
#
# Elastic Compliance Matrix: (Units=1/GPa)
#
#
# Indices 1 2 3 4 5 6 
#
# 1 0.076561 -0.012588 -0.015800 0.000000 0.036348 0.000000
# 2 -0.012588 0.019900 -0.008235 0.000000 0.005015 0.000000
# 3 -0.015800 -0.008235 0.022248 0.000000 -0.029144 0.000000
# 4 0.000000 0.000000 0.000000 0.013089 0.000000 0.015203
# 5 0.036348 0.005015 -0.029144 0.000000 0.128371 0.000000
# 6 0.000000 0.000000 0.000000 0.015203 0.000000 0.033159
#
#
# Mechanical properties :
#
#
# Convention : Reuss Voigt Hill
#
# Bulk Modulus (GPa) = 21.99567 44.30716 33.15142
# Shear Modulus (GPa) = 13.09834 55.22545 34.16190
#
# Velocity S-wave (km/s) = 2.61254 5.36443 4.21915
# Velocity P-wave (km/s) = 4.53454 7.83947 6.40388
#
# Compressibility (1/GPa) = 0.04546349
#
# Stress axis : x y z
#
# Youngs Moduli (GPa) = 13.06146 50.25226 44.94806
#
# Poissons Ratio (x) = 0.63257 0.71019
# Poissons Ratio (y) = 0.16442 0.37012
# Poissons Ratio (z) = 0.20637 0.41380
#
# Static dielectric constant tensor:
#      x y z
#    x 3.262690 0.000000 0.062860 
#    y 0.000000 1.661450 0.000000 
#    z 0.062860 0.000000 1.720430 
# 
# From -- ./inp_files/156617.got.cif
#   From: 2010.05.17/outbox.cif.g08.bks.cpg/sg15_79_cif.got.tgz:156617.got - 2010.06.03 18:47:42.
