data_PCOD9257947
_publ_section_title
;
Structure prediction by ZEFSAII (Michael W. Deem and Ramdas Pophale) SiO2 
 PCOD9257947
Probable space group: C 2/C
;
_chemical_formula_sum "Si O2"
_cell_formula_units_Z 60
_cell_length_a 27.829956
_cell_length_b 18.694032
_cell_length_c 16.288058
_cell_angle_alpha 90.000000
_cell_angle_beta 155.979132
_cell_angle_gamma 90.000000
_cell_volume 3449.476616
_symmetry_space_group_name_H-M "C 2/C"
_symmetry_group_IT_number 15
_symmetry_cell_setting 'monoclinic'
loop_
_space_group_symop_operation_xyz
x,y,z
-x,y,1/2-z
-x,-y,-z
x,-y,1/2+z
1/2+x,1/2+y,z
1/2-x,1/2+y,1/2-z
1/2-x,1/2-y,-z
1/2+x,1/2-y,1/2+z
loop_
_atom_site_type_symbol
_atom_site_label
_atom_site_fract_x
_atom_site_fract_y
_atom_site_fract_z
Si Si1 0.810419 0.527984 0.683032
Si Si2 0.000000 0.322541 0.750000
Si Si3 0.007503 0.436996 0.905995
Si Si4 0.327952 0.459133 0.682993
Si Si5 0.701067 0.591448 0.112561
Si Si6 0.655171 0.710199 0.906607
Si Si7 0.009761 0.097833 0.590485
Si Si8 0.885083 0.430196 0.026783
O O1 0.726781 0.566796 0.488014
O O2 0.732446 0.486495 0.627380
O O3 0.883715 0.465883 0.748620
O O4 0.907353 0.574046 0.882757
O O5 0.008235 0.372258 0.843423
O O6 0.104373 0.268464 0.890474
O O7 0.058806 0.503962 0.935303
O O8 0.390203 0.536257 0.763836
O O9 0.214232 0.460365 0.565775
O O10 0.427071 0.410370 0.881151
O O11 0.807053 0.613834 0.339712
O O12 0.693651 0.644998 0.024980
O O13 0.579885 0.584723 0.973682
O O14 0.565561 0.673708 0.701479
O O15 0.750000 0.750000 0.000000
O O16 0.000000 0.395916 0.250000
#
# Coordination Sequence:
#
# PCOD9257947 Si02
#       8
#     8   4   8   8   8   8   8   8
#     4  10  18  32  56  82 113 140 173 240 272 319
#     4  12  22  36  54  78 118 146 176 222 260 332
#     4  10  20  31  50  85 116 139 182 216 285 319
#     4  10  19  32  58  79 111 139 177 235 273 324
#     4  10  20  36  54  78 110 143 186 221 274 325
#     4  12  24  37  57  77 109 150 186 223 261 330
#     4  10  21  37  52  80 108 145 187 218 278 323
#     4  10  18  32  56  83 110 139 173 236 276 318
#
# _framework density 17.393943
#
# number of rings (size 3 to 8) (size 9 to 14) (size 15 to 20)
#    0.000    1.600    4.667    0.800    1.867    0.000 
#    0.000    0.000    0.000    2.400    0.000    0.000 
#    0.000    0.000    0.000    0.000    0.000    0.000 
#
# Total GULP energy -167037.468404 kJ/mol
# GULP energy per Si atom -5567.915613 kJ/mol
# Density = 1.735435 g / cm^3
# Si number density = 17.393943 Si / 1000 Ang^3
#
#
#
# Elastic Constant Matrix: (Units=GPa)
#
#
# Indices 1 2 3 4 5 6 
#
# 1 73.0655 13.8841 40.9017 0.0000 4.3438 0.0000
# 2 13.8841 36.6994 17.5887 0.0000 -0.3504 0.0000
# 3 40.9017 17.5887 109.2377 0.0000 -12.3636 0.0000
# 4 0.0000 0.0000 0.0000 14.7472 0.0000 5.2207
# 5 4.3438 -0.3504 -12.3636 0.0000 42.5729 0.0000
# 6 0.0000 0.0000 0.0000 5.2207 0.0000 20.5317
#
#
#
# Elastic Compliance Matrix: (Units=1/GPa)
#
#
# Indices 1 2 3 4 5 6 
#
# 1 0.018392 -0.003777 -0.006715 0.000000 -0.003858 0.000000
# 2 -0.003777 0.030359 -0.003518 0.000000 -0.000386 0.000000
# 3 -0.006715 -0.003518 0.012728 0.000000 0.004352 0.000000
# 4 0.000000 0.000000 0.000000 0.074517 0.000000 -0.018948
# 5 -0.003858 -0.000386 0.004352 0.000000 0.025144 0.000000
# 6 0.000000 0.000000 0.000000 -0.018948 0.000000 0.053523
#
#
# Mechanical properties :
#
#
# Convention : Reuss Voigt Hill
#
# Bulk Modulus (GPa) = 29.88634 40.41684 35.15159
# Shear Modulus (GPa) = 19.69772 25.34558 22.52165
#
# Velocity S-wave (km/s) = 3.36884 3.82140 3.60223
# Velocity P-wave (km/s) = 5.68783 6.53892 6.12817
#
# Compressibility (1/GPa) = 0.03346010
#
# Stress axis : x y z
#
# Youngs Moduli (GPa) = 54.37001 32.93864 78.56846
#
# Poissons Ratio (x) = 0.12440 0.52760
# Poissons Ratio (y) = 0.20534 0.27640
# Poissons Ratio (z) = 0.36511 0.11587
#
# Static dielectric constant tensor:
#      x y z
#    x 1.601460 0.000000 -0.034920 
#    y 0.000000 1.554810 0.000000 
#    z -0.034920 0.000000 1.672900 
# 
# From -- ./inp_files/174112.got.cif
#   From: 2010.05.17/outbox.cif.g08.bks.cpg/sg15_88_cif.got.tgz:174112.got - 2010.06.03 18:47:42.
