data_PCOD9257760
_publ_section_title
;
Structure prediction by ZEFSAII (Michael W. Deem and Ramdas Pophale) SiO2 
 PCOD9257760
Probable space group: C 2/C
;
_chemical_formula_sum "Si O2"
_cell_formula_units_Z 40
_cell_length_a 17.974365
_cell_length_b 14.797981
_cell_length_c 13.925253
_cell_angle_alpha 90.000000
_cell_angle_beta 23.548193
_cell_angle_gamma 90.000000
_cell_volume 1479.782742
_symmetry_space_group_name_H-M "C 2/C"
_symmetry_group_IT_number 15
_symmetry_cell_setting 'monoclinic'
loop_
_space_group_symop_operation_xyz
x,y,z
-x,y,1/2-z
-x,-y,-z
x,-y,1/2+z
1/2+x,1/2+y,z
1/2-x,1/2+y,1/2-z
1/2-x,1/2-y,-z
1/2+x,1/2-y,1/2+z
loop_
_atom_site_type_symbol
_atom_site_label
_atom_site_fract_x
_atom_site_fract_y
_atom_site_fract_z
Si Si1 0.389552 0.340366 0.991070
Si Si2 0.292318 0.132313 0.304747
Si Si3 0.688139 0.837039 0.430036
Si Si4 0.451436 0.514533 0.670679
Si Si5 0.996904 0.634943 0.859580
O O1 0.326537 0.336897 0.175799
O O2 0.202443 0.368712 0.159396
O O3 0.555878 0.411643 0.784853
O O4 0.446838 0.239454 0.902147
O O5 0.197122 0.230018 0.441865
O O6 0.132710 0.058709 0.505055
O O7 0.482760 0.133774 0.140235
O O8 0.361259 0.113677 0.111473
O O9 0.783024 0.915005 0.381333
O O10 0.500000 0.500000 0.500000
O O11 0.000000 0.590065 0.750000
#
# Coordination Sequence:
#
# PCOD9257760 Si02
#       5
#     8   8   8   8   8
#     4   9  20  32  47  72 103 140 184 215 256 311
#     4  10  18  32  53  77 106 147 174 214 273 315
#     4   9  17  30  51  71 106 136 170 218 266 323
#     4  10  20  32  49  76 105 141 181 225 262 314
#     4  10  20  34  52  73 107 153 178 210 257 324
#
# _framework density 27.030995999999998
#
# number of rings (size 3 to 8) (size 9 to 14) (size 15 to 20)
#    0.000    2.400    2.000    0.600    8.400    7.200 
#    0.000    0.000    0.000    0.000    0.000    0.000 
#    0.000    4.800    1.200    0.200    0.000    0.000 
#
# Total GULP energy -111845.252437 kJ/mol
# GULP energy per Si atom -5592.262622 kJ/mol
# Density = 2.696947 g / cm^3
# Si number density = 27.030996 Si / 1000 Ang^3
#
#
#
# Elastic Constant Matrix: (Units=GPa)
#
#
# Indices 1 2 3 4 5 6 
#
# 1 59.4228 -25.6395 16.5041 -0.0008 7.8309 0.0027
# 2 -25.6395 -25.0669 65.1753 0.0022 -10.1455 0.0036
# 3 16.5041 65.1753 105.4360 -0.0028 10.4891 0.0026
# 4 -0.0008 0.0022 -0.0028 41.1878 0.0012 -34.4059
# 5 7.8309 -10.1455 10.4891 0.0012 47.6399 -0.0023
# 6 0.0027 0.0036 0.0026 -34.4059 -0.0023 56.1624
#
#
#
# Elastic Compliance Matrix: (Units=1/GPa)
#
#
# Indices 1 2 3 4 5 6 
#
# 1 0.013911 -0.006563 0.002296 0.000001 -0.004190 0.000000
# 2 -0.006563 -0.010931 0.008086 0.000003 -0.003029 0.000002
# 3 0.002296 0.008086 0.004082 -0.000002 0.000446 -0.000002
# 4 0.000001 0.000003 -0.000002 0.049726 0.000001 0.030463
# 5 -0.004190 -0.003029 0.000446 0.000001 0.020936 0.000002
# 6 0.000000 0.000002 -0.000002 0.030463 0.000002 0.036467
#
#
# Mechanical properties :
#
#
# Convention : Reuss Voigt Hill
#
# Bulk Modulus (GPa) = 68.02484 27.98575 48.00530
# Shear Modulus (GPa) = 44.86136 34.58147 39.72142
#
# Velocity S-wave (km/s) = 4.07827 3.58065 3.83753
# Velocity P-wave (km/s) = 6.88451 5.24122 6.11829
#
# Compressibility (1/GPa) = 0.01470051
#
# Stress axis : x y z
#
# Youngs Moduli (GPa) = 71.88444 -91.48297 244.94845
#
# Poissons Ratio (x) = -0.60040 -0.56245
# Poissons Ratio (y) = 0.47178 -1.98058
# Poissons Ratio (z) = -0.16506 0.73970
#
# Static dielectric constant tensor:
#      x y z
#    x 2.294050 0.000000 0.093580 
#    y 0.000000 2.084250 0.000000 
#    z 0.093580 0.000000 2.019880 
# 
# From -- ./inp_files/215661.got.cif
#   From: 2010.05.17/outbox.cif.g08.bks.cpg/sg15_108_cif.got.tgz:215661.got - 2010.06.03 18:47:42.
