data_PCOD9257148
_publ_section_title
;
Structure prediction by ZEFSAII (Michael W. Deem and Ramdas Pophale) SiO2 
 PCOD9257148
Probable space group: C 2/C
;
_chemical_formula_sum "Si O2"
_cell_formula_units_Z 64
_cell_length_a 9.235401
_cell_length_b 18.252536
_cell_length_c 18.730063
_cell_angle_alpha 90.000000
_cell_angle_beta 99.319160
_cell_angle_gamma 90.000000
_cell_volume 3115.645682
_symmetry_space_group_name_H-M "C 2/C"
_symmetry_group_IT_number 15
_symmetry_cell_setting 'monoclinic'
loop_
_space_group_symop_operation_xyz
x,y,z
-x,y,1/2-z
-x,-y,-z
x,-y,1/2+z
1/2+x,1/2+y,z
1/2-x,1/2+y,1/2-z
1/2-x,1/2-y,-z
1/2+x,1/2-y,1/2+z
loop_
_atom_site_type_symbol
_atom_site_label
_atom_site_fract_x
_atom_site_fract_y
_atom_site_fract_z
Si Si1 0.344718 0.081585 0.449520
Si Si2 0.231123 0.923000 0.443482
Si Si3 0.880386 0.731416 0.181021
Si Si4 0.875999 0.200565 0.047127
Si Si5 0.855181 0.581614 0.625001
Si Si6 0.044878 0.150179 0.599217
Si Si7 0.599093 0.187871 0.637554
Si Si8 0.153567 0.583185 0.396888
O O1 0.215681 0.137922 0.419631
O O2 0.361189 0.084733 0.537521
O O3 0.497134 0.097196 0.423257
O O4 0.304528 0.998654 0.427018
O O5 0.322748 0.853228 0.423065
O O6 0.232290 0.923844 0.529131
O O7 0.069948 0.915218 0.398583
O O8 0.736907 0.778823 0.191026
O O9 0.819287 0.655164 0.146371
O O10 0.000000 0.715254 0.250000
O O11 0.974585 0.779555 0.131943
O O12 0.987483 0.249514 0.101322
O O13 0.750000 0.250000 0.000000
O O14 0.955216 0.165903 0.985194
O O15 0.706993 0.624789 0.633664
O O16 0.851254 0.495493 0.642318
O O17 0.996896 0.625378 0.663273
#
# Coordination Sequence:
#
# PCOD9257148 Si02
#       8
#     8   8   8   8   8   8   8   8
#     4  10  18  30  55  90 132 142 170 215 296 357
#     4  10  18  32  54  91 117 152 170 223 292 354
#     4  11  26  42  56  75 109 154 204 246 275 315
#     4  11  18  29  54  91 119 144 171 220 283 349
#     4  10  19  34  59  92 116 146 177 224 284 360
#     4  10  21  34  57  83 119 142 190 229 281 336
#     4  11  19  36  57  83 116 147 189 221 283 340
#     4  11  19  35  59  83 122 148 185 225 287 344
#
# _framework density 20.54149
#
# number of rings (size 3 to 8) (size 9 to 14) (size 15 to 20)
#    0.000    1.500    5.000    3.000    0.000    7.500 
#    0.000    1.875    0.000    0.000    0.000    0.000 
#    0.000    0.000    0.000    0.000    0.000    0.000 
#
# Total GULP energy -178570.361881 kJ/mol
# GULP energy per Si atom -5580.323809 kJ/mol
# Density = 2.049474 g / cm^3
# Si number density = 20.541490 Si / 1000 Ang^3
#
#
#
# Elastic Constant Matrix: (Units=GPa)
#
#
# Indices 1 2 3 4 5 6 
#
# 1 86.4196 23.9433 0.7598 0.0000 2.1209 0.0000
# 2 23.9433 97.7621 6.5332 0.0000 1.4193 0.0000
# 3 0.7598 6.5332 6.5768 0.0000 5.7940 0.0000
# 4 0.0000 0.0000 0.0000 1.3003 0.0000 -1.8063
# 5 2.1209 1.4193 5.7940 0.0000 13.1842 0.0000
# 6 0.0000 0.0000 0.0000 -1.8063 0.0000 41.8175
#
#
#
# Elastic Compliance Matrix: (Units=1/GPa)
#
#
# Indices 1 2 3 4 5 6 
#
# 1 0.012561 -0.003385 0.005499 0.000000 -0.004073 0.000000
# 2 -0.003385 0.012155 -0.017966 0.000000 0.007131 0.000000
# 3 0.005499 -0.017966 0.274679 0.000000 -0.119662 0.000000
# 4 0.000000 0.000000 0.000000 0.818143 0.000000 0.035339
# 5 -0.004073 0.007131 -0.119662 0.000000 0.128323 0.000000
# 6 0.000000 0.000000 0.000000 0.035339 0.000000 0.025440
#
#
# Mechanical properties :
#
#
# Convention : Reuss Voigt Hill
#
# Bulk Modulus (GPa) = 3.73564 28.13681 15.93622
# Shear Modulus (GPa) = 3.59135 21.89521 12.74328
#
# Velocity S-wave (km/s) = 1.32368 3.26836 2.49342
# Velocity P-wave (km/s) = 2.03929 5.28868 4.00805
#
# Compressibility (1/GPa) = 0.26769187
#
# Stress axis : x y z
#
# Youngs Moduli (GPa) = 79.61263 82.27084 3.64062
#
# Poissons Ratio (x) = 0.27846 -0.02002
# Poissons Ratio (y) = 0.26947 0.06541
# Poissons Ratio (z) = -0.43781 1.47807
#
# Static dielectric constant tensor:
#      x y z
#    x 1.675880 0.000000 -0.092410 
#    y 0.000000 1.771510 0.000000 
#    z -0.092410 0.000000 1.700460 
# 
# From -- ./inp_files/232680.got.cif
#   From: 2010.05.17/outbox.cif.g08.bks.cpg/sg15_117_cif.got.tgz:232680.got - 2010.06.03 18:47:42.
