data_PCOD9257128
_publ_section_title
;
Structure prediction by ZEFSAII (Michael W. Deem and Ramdas Pophale) SiO2 
 PCOD9257128
Probable space group: C 2/C
;
_chemical_formula_sum "Si O2"
_cell_formula_units_Z 60
_cell_length_a 12.012895
_cell_length_b 15.242712
_cell_length_c 20.787351
_cell_angle_alpha 90.000000
_cell_angle_beta 53.437888
_cell_angle_gamma 90.000000
_cell_volume 3057.306838
_symmetry_space_group_name_H-M "C 2/C"
_symmetry_group_IT_number 15
_symmetry_cell_setting 'monoclinic'
loop_
_space_group_symop_operation_xyz
x,y,z
-x,y,1/2-z
-x,-y,-z
x,-y,1/2+z
1/2+x,1/2+y,z
1/2-x,1/2+y,1/2-z
1/2-x,1/2-y,-z
1/2+x,1/2-y,1/2+z
loop_
_atom_site_type_symbol
_atom_site_label
_atom_site_fract_x
_atom_site_fract_y
_atom_site_fract_z
Si Si1 0.158291 0.716442 0.714763
Si Si2 0.385400 0.170055 0.405826
Si Si3 0.647793 0.251436 0.475231
Si Si4 0.575066 0.340376 0.016876
Si Si5 0.133994 0.087531 0.807020
Si Si6 0.076707 0.424284 0.935478
Si Si7 0.648546 0.589827 0.233598
Si Si8 0.500000 0.283311 0.250000
O O1 0.254094 0.729032 0.619377
O O2 0.218953 0.630130 0.725970
O O3 0.177790 0.809637 0.745107
O O4 0.000000 0.707253 0.750000
O O5 0.399199 0.248265 0.454095
O O6 0.232075 0.128946 0.452734
O O7 0.493251 0.101265 0.399071
O O8 0.423078 0.218997 0.326638
O O9 0.750000 0.250000 0.500000
O O10 0.518989 0.318881 0.513240
O O11 0.584615 0.156442 0.482593
O O12 0.480246 0.396795 0.097820
O O13 0.088110 0.149128 0.763055
O O14 0.143766 0.985821 0.787679
O O15 0.233595 0.439225 0.857870
O O16 0.000000 0.500000 0.000000
O O17 0.500000 0.592482 0.250000
#
# Coordination Sequence:
#
# PCOD9257128 Si02
#       8
#     8   8   8   8   8   8   8   4
#     4   9  20  37  55  82 116 153 191 239 290 345
#     4   9  18  33  54  81 121 149 187 246 305 354
#     4   9  18  35  57  81 112 149 191 235 292 359
#     4   8  17  32  54  86 112 146 189 247 289 349
#     4  10  19  33  59  86 116 149 202 234 297 364
#     4  10  22  36  56  84 114 150 199 247 296 357
#     4  10  20  35  57  87 114 151 196 245 292 351
#     4  10  18  30  54  88 112 144 192 236 300 362
#
# _framework density 19.625115999999998
#
# number of rings (size 3 to 8) (size 9 to 14) (size 15 to 20)
#    0.000    2.667    0.667    2.400    1.867    4.267 
#    0.000    1.333   17.600    0.800    0.000    0.000 
#    0.000    0.000    0.000    0.000    0.000    0.000 
#
# Total GULP energy -167095.149399 kJ/mol
# GULP energy per Si atom -5569.838313 kJ/mol
# Density = 1.958045 g / cm^3
# Si number density = 19.625116 Si / 1000 Ang^3
#
#
#
# Elastic Constant Matrix: (Units=GPa)
#
#
# Indices 1 2 3 4 5 6 
#
# 1 111.8164 27.3038 31.5250 0.0000 -9.0830 0.0000
# 2 27.3038 35.2368 5.7511 0.0000 -2.2493 0.0000
# 3 31.5250 5.7511 24.4838 0.0000 -9.6117 0.0000
# 4 0.0000 0.0000 0.0000 -5.4678 0.0000 -11.4736
# 5 -9.0830 -2.2493 -9.6117 0.0000 35.6476 0.0000
# 6 0.0000 0.0000 0.0000 -11.4736 0.0000 0.5128
#
#
#
# Elastic Compliance Matrix: (Units=1/GPa)
#
#
# Indices 1 2 3 4 5 6 
#
# 1 0.016892 -0.009919 -0.020104 0.000000 -0.001742 0.000000
# 2 -0.009919 0.035335 0.004870 0.000000 0.001015 0.000000
# 3 -0.020104 0.004870 0.071234 0.000000 0.014392 0.000000
# 4 0.000000 0.000000 0.000000 -0.003814 0.000000 -0.085339
# 5 -0.001742 0.001015 0.014392 0.000000 0.031553 0.000000
# 6 0.000000 0.000000 0.000000 -0.085339 0.000000 0.040668
#
#
# Mechanical properties :
#
#
# Convention : Reuss Voigt Hill
#
# Bulk Modulus (GPa) = 13.66935 33.41075 23.54005
# Shear Modulus (GPa) = 18.75758 13.26899 16.01329
#
# Velocity S-wave (km/s) = 3.09495 2.60306 2.85960
# Velocity P-wave (km/s) = 4.44432 5.10842 4.78790
#
# Compressibility (1/GPa) = 0.07315639
#
# Stress axis : x y z
#
# Youngs Moduli (GPa) = 59.20090 28.30043 14.03815
#
# Poissons Ratio (x) = 0.28071 0.28222
# Poissons Ratio (y) = 0.58720 -0.06837
# Poissons Ratio (z) = 1.19015 -0.13782
#
# Static dielectric constant tensor:
#      x y z
#    x 2.405860 0.000000 -0.854410 
#    y 0.000000 1.702330 0.000000 
#    z -0.854410 0.000000 2.781480 
# 
# From -- ./inp_files/238693.got.cif
#   From: 2010.05.17/outbox.cif.g08.bks.cpg/sg15_120_cif.got.tgz:238693.got - 2010.06.03 18:47:42.
