data_PCOD9257687
_publ_section_title
;
Structure prediction by ZEFSAII (Michael W. Deem and Ramdas Pophale) SiO2 
 PCOD9257687
Probable space group: C 2/C
;
_chemical_formula_sum "Si O2"
_cell_formula_units_Z 44
_cell_length_a 13.417098
_cell_length_b 19.093542
_cell_length_c 7.392547
_cell_angle_alpha 90.000000
_cell_angle_beta 107.494057
_cell_angle_gamma 90.000000
_cell_volume 1806.229327
_symmetry_space_group_name_H-M "C 2/C"
_symmetry_group_IT_number 15
_symmetry_cell_setting 'monoclinic'
loop_
_space_group_symop_operation_xyz
x,y,z
-x,y,1/2-z
-x,-y,-z
x,-y,1/2+z
1/2+x,1/2+y,z
1/2-x,1/2+y,1/2-z
1/2-x,1/2-y,-z
1/2+x,1/2-y,1/2+z
loop_
_atom_site_type_symbol
_atom_site_label
_atom_site_fract_x
_atom_site_fract_y
_atom_site_fract_z
Si Si1 0.266476 0.722502 0.246863
Si Si2 0.000000 0.880942 0.250000
Si Si3 0.616014 0.831632 0.376113
Si Si4 0.278099 0.961838 0.947501
Si Si5 0.591366 0.624902 0.427685
Si Si6 0.219726 0.096487 0.020968
O O1 0.303034 0.801946 0.232264
O O2 0.353137 0.683183 0.166461
O O3 0.271573 0.679976 0.437458
O O4 0.158514 0.703914 0.085825
O O5 0.953997 0.846435 0.408162
O O6 0.102814 0.917858 0.386629
O O7 0.500000 0.814993 0.250000
O O8 0.629856 0.913895 0.424639
O O9 0.176756 0.935323 0.006788
O O10 0.246483 0.934118 0.733188
O O11 0.293564 0.044746 0.948285
O O12 0.500000 0.596087 0.250000
#
# Coordination Sequence:
#
# PCOD9257687 Si02
#       6
#     8   4   8   8   8   8
#     4   9  19  37  57  92 118 154 208 264 298 364
#     4  12  20  30  58  90 126 176 188 248 328 366
#     4   9  18  35  66  86 111 168 215 238 312 377
#     4  10  21  36  52  86 124 161 207 256 299 366
#     4  10  18  32  51  85 124 155 199 241 302 370
#     4  10  21  33  53  86 126 154 206 247 305 366
#
# _framework density 24.360142
#
# number of rings (size 3 to 8) (size 9 to 14) (size 15 to 20)
#    0.000    2.545    3.636    1.636    1.273    1.455 
#    0.000    3.636    0.000   27.273    0.000    0.000 
#    0.000    0.000    0.000    0.000    0.000    0.000 
#
# Total GULP energy -122498.866635 kJ/mol
# GULP energy per Si atom -5568.130302 kJ/mol
# Density = 2.430470 g / cm^3
# Si number density = 24.360142 Si / 1000 Ang^3
#
#
#
# Elastic Constant Matrix: (Units=GPa)
#
#
# Indices 1 2 3 4 5 6 
#
# 1 47.8752 -12.3856 44.5822 0.0000 14.5461 0.0000
# 2 -12.3856 113.5594 19.0109 0.0000 13.2700 0.0000
# 3 44.5822 19.0109 126.6749 0.0000 17.0746 0.0000
# 4 0.0000 0.0000 0.0000 20.6129 0.0000 -3.6789
# 5 14.5461 13.2700 17.0746 0.0000 61.0687 0.0000
# 6 0.0000 0.0000 0.0000 -3.6789 0.0000 24.6950
#
#
#
# Elastic Compliance Matrix: (Units=1/GPa)
#
#
# Indices 1 2 3 4 5 6 
#
# 1 0.036995 0.007018 -0.013177 0.000000 -0.006653 0.000000
# 2 0.007018 0.010526 -0.003654 0.000000 -0.002937 0.000000
# 3 -0.013177 -0.003654 0.013041 0.000000 0.000286 0.000000
# 4 0.000000 0.000000 0.000000 0.049838 0.000000 0.007425
# 5 -0.006653 -0.002937 0.000286 0.000000 0.018518 0.000000
# 6 0.000000 0.000000 0.000000 0.007425 0.000000 0.041600
#
#
# Mechanical properties :
#
#
# Convention : Reuss Voigt Hill
#
# Bulk Modulus (GPa) = 24.42701 43.39162 33.90931
# Shear Modulus (GPa) = 24.53510 37.06880 30.80195
#
# Velocity S-wave (km/s) = 3.17706 3.90513 3.55975
# Velocity P-wave (km/s) = 4.84845 6.17937 5.55392
#
# Compressibility (1/GPa) = 0.04093829
#
# Stress axis : x y z
#
# Youngs Moduli (GPa) = 27.03072 94.99961 76.67884
#
# Poissons Ratio (x) = -0.66673 1.01037
# Poissons Ratio (y) = -0.18971 0.28017
# Poissons Ratio (z) = 0.35617 0.34711
#
# Static dielectric constant tensor:
#      x y z
#    x 1.966290 0.000000 -0.067150 
#    y 0.000000 2.183580 0.000000 
#    z -0.067150 0.000000 1.994830 
# 
# From -- ./inp_files/41029.got.cif
#   From: 2010.05.17/outbox.cif.g08.bks.cpg/sg15_21_cif.got.tgz:41029.got - 2010.06.03 18:47:42.
