data_PCOD9257671
_publ_section_title
;
Structure prediction by ZEFSAII (Michael W. Deem and Ramdas Pophale) SiO2 
 PCOD9257671
Probable space group: C 2/C
;
_chemical_formula_sum "Si O2"
_cell_formula_units_Z 56
_cell_length_a 19.863749
_cell_length_b 9.421385
_cell_length_c 26.087749
_cell_angle_alpha 90.000000
_cell_angle_beta 151.196567
_cell_angle_gamma 90.000000
_cell_volume 2352.257939
_symmetry_space_group_name_H-M "C 2/C"
_symmetry_group_IT_number 15
_symmetry_cell_setting 'monoclinic'
loop_
_space_group_symop_operation_xyz
x,y,z
-x,y,1/2-z
-x,-y,-z
x,-y,1/2+z
1/2+x,1/2+y,z
1/2-x,1/2+y,1/2-z
1/2-x,1/2-y,-z
1/2+x,1/2-y,1/2+z
loop_
_atom_site_type_symbol
_atom_site_label
_atom_site_fract_x
_atom_site_fract_y
_atom_site_fract_z
Si Si1 0.402185 0.205062 0.438430
Si Si2 0.877447 0.899434 0.942472
Si Si3 0.606272 0.185870 0.955242
Si Si4 0.278554 0.562786 0.705685
Si Si5 0.840050 0.041649 0.635863
Si Si6 0.316298 0.920620 0.244372
Si Si7 0.896748 0.001909 0.566925
O O1 0.534314 0.254472 0.493572
O O2 0.458206 0.226701 0.532768
O O3 0.342826 0.053538 0.383772
O O4 0.267112 0.305774 0.344531
O O5 0.748083 0.928583 0.817646
O O6 0.840289 0.946388 0.974879
O O7 0.000000 0.000000 0.000000
O O8 0.481164 0.097349 0.845953
O O9 0.641836 0.335343 0.952910
O O10 0.732135 0.087049 0.057896
O O11 0.302004 0.624852 0.663086
O O12 0.233864 0.620070 0.731537
O O13 0.434550 0.504858 0.821296
O O14 0.844868 0.096172 0.580402
O O15 0.000000 0.990798 0.750000
#
# Coordination Sequence:
#
# PCOD9257671 Si02
#       7
#     8   8   8   8   8   8   8
#     4  10  19  32  52  77 111 143 175 224 273 313
#     4  10  18  32  51  75 105 143 185 218 270 310
#     4  11  20  33  52  81 113 143 179 222 270 324
#     4  10  19  34  53  80 115 139 184 218 269 327
#     4   9  22  33  48  73 113 154 174 208 271 333
#     4  11  20  32  56  80 108 146 178 233 266 314
#     4  11  17  33  52  77 114 144 183 212 264 339
#
# _framework density 23.806912000000001
#
# number of rings (size 3 to 8) (size 9 to 14) (size 15 to 20)
#    0.000    1.714    7.143    0.429    0.000    2.286 
#    0.000    0.714    0.000    0.000    0.000    4.000 
#    8.571    0.000    0.000    0.000    0.000    0.000 
#
# Total GULP energy -155915.858550 kJ/mol
# GULP energy per Si atom -5568.423520 kJ/mol
# Density = 2.375273 g / cm^3
# Si number density = 23.806912 Si / 1000 Ang^3
#
#
#
# Elastic Constant Matrix: (Units=GPa)
#
#
# Indices 1 2 3 4 5 6 
#
# 1 86.8264 0.3474 27.6294 0.0003 -30.5914 0.0000
# 2 0.3474 20.1088 19.7291 0.0007 3.4896 0.0000
# 3 27.6294 19.7291 95.7442 0.0014 -7.6274 0.0000
# 4 0.0003 0.0007 0.0014 30.0306 0.0004 2.3699
# 5 -30.5914 3.4896 -7.6274 0.0004 39.5979 -0.0001
# 6 0.0000 0.0000 0.0000 2.3699 -0.0001 13.1940
#
#
#
# Elastic Compliance Matrix: (Units=1/GPa)
#
#
# Indices 1 2 3 4 5 6 
#
# 1 0.017241 0.001861 -0.004378 0.000000 0.012312 0.000000
# 2 0.001861 0.065193 -0.014537 -0.000001 -0.007108 0.000000
# 3 -0.004378 -0.014537 0.014762 0.000000 0.000743 0.000000
# 4 0.000000 -0.000001 0.000000 0.033778 0.000000 -0.006067
# 5 0.012312 -0.007108 0.000743 0.000000 0.035535 0.000000
# 6 0.000000 0.000000 0.000000 -0.006067 0.000000 0.076882
#
#
# Mechanical properties :
#
#
# Convention : Reuss Voigt Hill
#
# Bulk Modulus (GPa) = 15.85081 33.12125 24.48603
# Shear Modulus (GPa) = 16.74880 26.89606 21.82243
#
# Velocity S-wave (km/s) = 2.65529 3.36483 3.03090
# Velocity P-wave (km/s) = 4.00915 5.38877 4.74932
#
# Compressibility (1/GPa) = 0.06308827
#
# Stress axis : x y z
#
# Youngs Moduli (GPa) = 58.00197 15.33905 67.73928
#
# Poissons Ratio (x) = -0.02854 0.29655
# Poissons Ratio (y) = -0.10793 0.98472
# Poissons Ratio (z) = 0.25392 0.22298
#
# Static dielectric constant tensor:
#      x y z
#    x 2.027060 0.000000 -0.047110 
#    y 0.000000 2.052770 0.000000 
#    z -0.047110 0.000000 1.907270 
# 
# From -- ./inp_files/300744.got.cif
#   From: 2010.05.17/outbox.cif.g08.bks.cpg/sg15_151_cif.got.tgz:300744.got - 2010.06.03 18:47:42.
