data_PCOD9257475
_publ_section_title
;
Structure prediction by ZEFSAII (Michael W. Deem and Ramdas Pophale) SiO2 
 PCOD9257475
Probable space group: C 2/C
;
_chemical_formula_sum "Si O2"
_cell_formula_units_Z 56
_cell_length_a 16.453263
_cell_length_b 20.896406
_cell_length_c 14.490934
_cell_angle_alpha 90.000000
_cell_angle_beta 36.003857
_cell_angle_gamma 90.000000
_cell_volume 2928.727315
_symmetry_space_group_name_H-M "C 2/C"
_symmetry_group_IT_number 15
_symmetry_cell_setting 'monoclinic'
loop_
_space_group_symop_operation_xyz
x,y,z
-x,y,1/2-z
-x,-y,-z
x,-y,1/2+z
1/2+x,1/2+y,z
1/2-x,1/2+y,1/2-z
1/2-x,1/2-y,-z
1/2+x,1/2-y,1/2+z
loop_
_atom_site_type_symbol
_atom_site_label
_atom_site_fract_x
_atom_site_fract_y
_atom_site_fract_z
Si Si1 0.297134 0.459299 0.906037
Si Si2 0.500000 0.355001 0.750000
Si Si3 0.500000 0.425744 0.250000
Si Si4 0.772259 0.019477 0.230129
Si Si5 0.150669 0.212269 0.946173
Si Si6 0.468613 0.179370 0.669321
Si Si7 0.524417 0.603184 0.934421
Si Si8 0.592987 0.960514 0.247499
O O1 0.406779 0.404759 0.778784
O O2 0.371698 0.524499 0.868637
O O3 0.218234 0.472706 0.883981
O O4 0.219708 0.434991 0.067300
O O5 0.404823 0.314102 0.904348
O O6 0.488348 0.388721 0.164547
O O7 0.651658 0.008866 0.267730
O O8 0.876816 0.075640 0.103936
O O9 0.866509 0.954674 0.145870
O O10 0.085234 0.282993 0.005368
O O11 0.316432 0.208657 0.789893
O O12 0.081246 0.165393 0.934493
O O13 0.500000 0.183912 0.750000
O O14 0.465284 0.103696 0.653395
O O15 0.500000 0.988514 0.250000
#
# Coordination Sequence:
#
# PCOD9257475 Si02
#       8
#     8   4   4   8   8   8   8   8
#     4  10  18  31  55  83 109 141 179 226 282 330
#     4  11  18  30  54  82 112 142 174 235 274 328
#     4   9  18  30  60  84 102 132 182 237 278 318
#     4  10  18  33  55  83 108 143 186 228 284 332
#     4  12  22  36  57  82 116 149 192 229 277 334
#     4  11  24  37  53  79 117 158 186 226 272 337
#     4  10  18  33  57  85 107 135 187 245 276 326
#     4  11  22  36  51  78 124 151 178 225 277 343
#
# _framework density 19.120933999999998
#
# number of rings (size 3 to 8) (size 9 to 14) (size 15 to 20)
#    0.000    1.429    6.429    0.429    0.000    0.571 
#    0.000    0.000    0.000    0.857    0.000    0.000 
#    0.000    0.000    0.000    0.000    0.000    0.000 
#
# Total GULP energy -156221.976906 kJ/mol
# GULP energy per Si atom -5579.356318 kJ/mol
# Density = 1.907741 g / cm^3
# Si number density = 19.120934 Si / 1000 Ang^3
#
#
#
# Elastic Constant Matrix: (Units=GPa)
#
#
# Indices 1 2 3 4 5 6 
#
# 1 129.4351 27.3861 22.0391 0.0007 -4.5981 -0.0006
# 2 27.3861 46.3938 17.4137 0.0006 -5.1883 -0.0005
# 3 22.0391 17.4137 35.2535 0.0006 -5.1161 -0.0001
# 4 0.0007 0.0006 0.0006 20.7646 -0.0004 -5.9604
# 5 -4.5981 -5.1883 -5.1161 -0.0004 28.2363 0.0004
# 6 -0.0006 -0.0005 -0.0001 -5.9604 0.0004 11.0445
#
#
#
# Elastic Compliance Matrix: (Units=1/GPa)
#
#
# Indices 1 2 3 4 5 6 
#
# 1 0.009221 -0.004020 -0.003767 0.000000 0.000080 0.000000
# 2 -0.004020 0.028395 -0.011143 0.000000 0.002544 0.000001
# 3 -0.003767 -0.011143 0.036807 -0.000001 0.004008 -0.000001
# 4 0.000000 0.000000 -0.000001 0.056987 0.000000 0.030754
# 5 0.000080 0.002544 0.004008 0.000000 0.036622 -0.000001
# 6 0.000000 0.000001 -0.000001 0.030754 -0.000001 0.107141
#
#
# Mechanical properties :
#
#
# Convention : Reuss Voigt Hill
#
# Bulk Modulus (GPa) = 27.35125 38.30669 32.82897
# Shear Modulus (GPa) = 15.37420 21.62531 18.49975
#
# Velocity S-wave (km/s) = 2.83866 3.36665 3.11386
# Velocity P-wave (km/s) = 5.00793 5.93210 5.48950
#
# Compressibility (1/GPa) = 0.03656140
#
# Stress axis : x y z
#
# Youngs Moduli (GPa) = 108.45148 35.21780 27.16874
#
# Poissons Ratio (x) = 0.14158 0.10235
# Poissons Ratio (y) = 0.43598 0.30275
# Poissons Ratio (z) = 0.40854 0.39245
#
# Static dielectric constant tensor:
#      x y z
#    x 1.695360 0.000000 -0.051760 
#    y 0.000000 1.672430 0.000000 
#    z -0.051760 0.000000 1.754440 
# 
# From -- ./inp_files/156193.got.cif
#   From: 2010.05.17/outbox.cif.g08.bks.cpg/sg15_79_cif.got.tgz:156193.got - 2010.06.03 18:47:42.
