data_PCOD9257906
_publ_section_title
;
Structure prediction by ZEFSAII (Michael W. Deem and Ramdas Pophale) SiO2 
 PCOD9257906
Probable space group: C 2/C
;
_chemical_formula_sum "Si O2"
_cell_formula_units_Z 64
_cell_length_a 28.172032
_cell_length_b 8.523453
_cell_length_c 16.904896
_cell_angle_alpha 90.000000
_cell_angle_beta 123.368554
_cell_angle_gamma 90.000000
_cell_volume 3390.085569
_symmetry_space_group_name_H-M "C 2/C"
_symmetry_group_IT_number 15
_symmetry_cell_setting 'monoclinic'
loop_
_space_group_symop_operation_xyz
x,y,z
-x,y,1/2-z
-x,-y,-z
x,-y,1/2+z
1/2+x,1/2+y,z
1/2-x,1/2+y,1/2-z
1/2-x,1/2-y,-z
1/2+x,1/2-y,1/2+z
loop_
_atom_site_type_symbol
_atom_site_label
_atom_site_fract_x
_atom_site_fract_y
_atom_site_fract_z
Si Si1 0.981741 0.748703 0.957753
Si Si2 0.419476 0.533445 0.887672
Si Si3 0.422331 0.969730 0.988317
Si Si4 0.761995 0.174332 0.195407
Si Si5 0.684853 0.948251 0.027072
Si Si6 0.668115 0.603585 0.083545
Si Si7 0.341442 0.793964 0.791946
Si Si8 0.722199 0.972752 0.385073
O O1 0.944307 0.639484 0.980736
O O2 0.941583 0.868877 0.874502
O O3 0.026077 0.856435 0.046947
O O4 0.021984 0.633475 0.945089
O O5 0.389894 0.485307 0.945019
O O6 0.374547 0.636956 0.797809
O O7 0.387501 0.896620 0.882398
O O8 0.375825 0.969214 0.013960
O O9 0.805607 0.136264 0.305102
O O10 0.708673 0.251528 0.193368
O O11 0.787522 0.296211 0.155639
O O12 0.732908 0.022779 0.128590
O O13 0.671038 0.770246 0.040625
O O14 0.706350 0.984652 0.959446
O O15 0.711322 0.500539 0.071788
O O16 0.312527 0.903180 0.700483
#
# Coordination Sequence:
#
# PCOD9257906 Si02
#       8
#     8   8   8   8   8   8   8   8
#     4   9  18  31  56  85 100 134 190 254 273 315
#     4  10  18  32  55  85 104 136 188 240 280 310
#     4   9  17  34  56  83 107 135 189 239 285 328
#     4  10  20  35  55  80 114 151 188 221 267 338
#     4  11  22  35  55  85 117 149 178 227 294 338
#     4  11  20  35  55  83 115 148 184 225 270 342
#     4   9  19  33  55  81 111 147 185 227 275 337
#     4  11  22  35  53  85 118 150 179 224 281 348
#
# _framework density 18.878578000000001
#
# number of rings (size 3 to 8) (size 9 to 14) (size 15 to 20)
#    0.000    2.000    2.500    3.000    1.750    0.000 
#    0.000    0.000    0.000    6.750    6.500    0.000 
#    0.000    0.000    0.000    0.000    0.000    0.000 
#
# Total GULP energy -178243.405872 kJ/mol
# GULP energy per Si atom -5570.106433 kJ/mol
# Density = 1.883561 g / cm^3
# Si number density = 18.878578 Si / 1000 Ang^3
#
#
#
# Elastic Constant Matrix: (Units=GPa)
#
#
# Indices 1 2 3 4 5 6 
#
# 1 90.6825 25.2265 33.3517 0.0000 -5.7846 0.0000
# 2 25.2265 79.5556 8.2748 0.0000 0.4323 0.0000
# 3 33.3517 8.2748 37.5017 0.0000 -12.2200 0.0000
# 4 0.0000 0.0000 0.0000 15.0364 0.0000 7.0566
# 5 -5.7846 0.4323 -12.2200 0.0000 23.6974 0.0000
# 6 0.0000 0.0000 0.0000 7.0566 0.0000 35.2043
#
#
#
# Elastic Compliance Matrix: (Units=1/GPa)
#
#
# Indices 1 2 3 4 5 6 
#
# 1 0.017876 -0.003949 -0.016324 0.000000 -0.003982 0.000000
# 2 -0.003949 0.013820 0.000079 0.000000 -0.001175 0.000000
# 3 -0.016324 0.000079 0.047918 0.000000 0.020724 0.000000
# 4 0.000000 0.000000 0.000000 0.073411 0.000000 -0.014715
# 5 -0.003982 -0.001175 0.020724 0.000000 0.051935 0.000000
# 6 0.000000 0.000000 0.000000 -0.014715 0.000000 0.031355
#
#
# Mechanical properties :
#
#
# Convention : Reuss Voigt Hill
#
# Bulk Modulus (GPa) = 25.49216 37.93844 31.71530
# Shear Modulus (GPa) = 17.25467 24.18007 20.71737
#
# Velocity S-wave (km/s) = 3.02649 3.58274 3.31630
# Velocity P-wave (km/s) = 5.07399 6.10363 5.61247
#
# Compressibility (1/GPa) = 0.03922775
#
# Stress axis : x y z
#
# Youngs Moduli (GPa) = 55.94221 72.35863 20.86893
#
# Poissons Ratio (x) = 0.28572 0.34066
# Poissons Ratio (y) = 0.22090 -0.00166
# Poissons Ratio (z) = 0.91319 -0.00575
#
# Static dielectric constant tensor:
#      x y z
#    x 1.691480 0.000000 0.039070 
#    y 0.000000 1.753660 0.000000 
#    z 0.039070 0.000000 1.630460 
# 
# From -- ./inp_files/176627.got.cif
#   From: 2010.05.17/outbox.cif.g08.bks.cpg/sg15_89_cif.got.tgz:176627.got - 2010.06.03 18:47:42.
