data_PCOD9257862
_publ_section_title
;
Structure prediction by ZEFSAII (Michael W. Deem and Ramdas Pophale) SiO2 
 PCOD9257862
Probable space group: C 2/C
;
_chemical_formula_sum "Si O2"
_cell_formula_units_Z 60
_cell_length_a 22.344153
_cell_length_b 14.508226
_cell_length_c 18.606519
_cell_angle_alpha 90.000000
_cell_angle_beta 28.261910
_cell_angle_gamma 90.000000
_cell_volume 2856.050355
_symmetry_space_group_name_H-M "C 2/C"
_symmetry_group_IT_number 15
_symmetry_cell_setting 'monoclinic'
loop_
_space_group_symop_operation_xyz
x,y,z
-x,y,1/2-z
-x,-y,-z
x,-y,1/2+z
1/2+x,1/2+y,z
1/2-x,1/2+y,1/2-z
1/2-x,1/2-y,-z
1/2+x,1/2-y,1/2+z
loop_
_atom_site_type_symbol
_atom_site_label
_atom_site_fract_x
_atom_site_fract_y
_atom_site_fract_z
Si Si1 0.892949 0.329828 0.803012
Si Si2 0.753717 0.942268 0.920350
Si Si3 0.153770 0.543526 0.277279
Si Si4 0.000000 0.812767 0.750000
Si Si5 0.193568 0.912738 0.467137
Si Si6 0.556184 0.892045 0.021355
Si Si7 0.369543 0.748574 0.265852
Si Si8 0.873206 0.121248 0.838485
O O1 0.906879 0.388857 0.716946
O O2 0.902638 0.221362 0.774356
O O3 0.000000 0.349125 0.750000
O O4 0.753005 0.355399 0.980986
O O5 0.616060 0.935458 0.030159
O O6 0.820207 0.855022 0.810689
O O7 0.828160 0.038862 0.834085
O O8 0.753101 0.931635 0.008202
O O9 0.281935 0.499927 0.109040
O O10 0.154943 0.594225 0.352116
O O11 0.062148 0.455140 0.376388
O O12 0.896893 0.749393 0.822847
O O13 0.053561 0.879502 0.632522
O O14 0.261751 0.822360 0.364176
O O15 0.496899 0.790830 0.096504
O O16 0.000000 0.095152 0.750000
#
# Coordination Sequence:
#
# PCOD9257862 Si02
#       8
#     8   8   8   4   8   8   8   8
#     4  10  20  39  63  89 117 160 217 268 312 363
#     4  11  20  35  59  88 122 159 201 258 318 378
#     4  10  21  38  61  85 119 163 212 263 309 369
#     4  10  18  32  54  84 124 150 188 252 310 368
#     4  10  20  32  56  87 113 157 202 248 304 365
#     4  10  22  39  58  88 125 163 210 251 311 393
#     4  10  20  33  55  86 121 157 199 248 307 378
#     4  10  22  37  60  93 124 156 209 273 322 364
#
# _framework density 21.008032
#
# number of rings (size 3 to 8) (size 9 to 14) (size 15 to 20)
#    0.000    1.867    1.333    4.000    3.733    1.067 
#    0.000    9.333    0.000    6.400    0.000    0.000 
#    0.000    0.000    0.000    0.000    0.000    0.000 
#
# Total GULP energy -167022.514865 kJ/mol
# GULP energy per Si atom -5567.417162 kJ/mol
# Density = 2.096022 g / cm^3
# Si number density = 21.008032 Si / 1000 Ang^3
#
#
#
# Elastic Constant Matrix: (Units=GPa)
#
#
# Indices 1 2 3 4 5 6 
#
# 1 38.8782 7.0764 15.7347 0.0000 -3.1080 0.0000
# 2 7.0764 135.8301 33.1212 0.0000 9.5493 0.0000
# 3 15.7347 33.1212 78.1860 0.0000 -0.5841 0.0000
# 4 0.0000 0.0000 0.0000 26.5931 0.0000 -5.6977
# 5 -3.1080 9.5493 -0.5841 0.0000 31.3595 0.0000
# 6 0.0000 0.0000 0.0000 -5.6977 0.0000 17.5807
#
#
#
# Elastic Compliance Matrix: (Units=1/GPa)
#
#
# Indices 1 2 3 4 5 6 
#
# 1 0.028240 -0.000320 -0.005527 0.000000 0.002793 0.000000
# 2 -0.000320 0.008426 -0.003525 0.000000 -0.002663 0.000000
# 3 -0.005527 -0.003525 0.015401 0.000000 0.000812 0.000000
# 4 0.000000 0.000000 0.000000 0.040410 0.000000 0.013096
# 5 0.002793 -0.002663 0.000812 0.000000 0.032991 0.000000
# 6 0.000000 0.000000 0.000000 0.013096 0.000000 0.061125
#
#
# Mechanical properties :
#
#
# Convention : Reuss Voigt Hill
#
# Bulk Modulus (GPa) = 30.00859 40.52878 35.26868
# Shear Modulus (GPa) = 23.10077 28.23746 25.66912
#
# Velocity S-wave (km/s) = 3.31964 3.67021 3.49932
# Velocity P-wave (km/s) = 5.38598 6.10692 5.75774
#
# Compressibility (1/GPa) = 0.03332380
#
# Stress axis : x y z
#
# Youngs Moduli (GPa) = 35.41122 118.68727 64.92883
#
# Poissons Ratio (x) = 0.03797 0.35885
# Poissons Ratio (y) = 0.01133 0.22886
# Poissons Ratio (z) = 0.19571 0.41834
#
# Static dielectric constant tensor:
#      x y z
#    x 1.783510 0.000000 -0.036060 
#    y 0.000000 1.821720 0.000000 
#    z -0.036060 0.000000 1.859540 
# 
# From -- ./inp_files/219581.got.cif
#   From: 2010.05.17/outbox.cif.g08.bks.cpg/sg15_110_cif.got.tgz:219581.got - 2010.06.03 18:47:42.
