data_PCOD9257945
_publ_section_title
;
Structure prediction by ZEFSAII (Michael W. Deem and Ramdas Pophale) SiO2 
 PCOD9257945
Probable space group: C 2/C
;
_chemical_formula_sum "Si O2"
_cell_formula_units_Z 44
_cell_length_a 8.549266
_cell_length_b 22.417609
_cell_length_c 12.263453
_cell_angle_alpha 90.000000
_cell_angle_beta 113.619472
_cell_angle_gamma 90.000000
_cell_volume 2153.445056
_symmetry_space_group_name_H-M "C 2/C"
_symmetry_group_IT_number 15
_symmetry_cell_setting 'monoclinic'
loop_
_space_group_symop_operation_xyz
x,y,z
-x,y,1/2-z
-x,-y,-z
x,-y,1/2+z
1/2+x,1/2+y,z
1/2-x,1/2+y,1/2-z
1/2-x,1/2-y,-z
1/2+x,1/2-y,1/2+z
loop_
_atom_site_type_symbol
_atom_site_label
_atom_site_fract_x
_atom_site_fract_y
_atom_site_fract_z
Si Si1 0.308521 0.816740 0.163973
Si Si2 0.785524 0.171455 0.618265
Si Si3 0.589871 0.060771 0.894052
Si Si4 0.690735 0.938863 0.989685
Si Si5 0.500000 0.132001 0.250000
Si Si6 0.530482 0.773154 0.591586
O O1 0.500000 0.796824 0.250000
O O2 0.226509 0.836876 0.256587
O O3 0.324369 0.874560 0.092469
O O4 0.186899 0.764313 0.089803
O O5 0.828283 0.108967 0.570974
O O6 0.597582 0.192983 0.525252
O O7 0.908514 0.224689 0.616603
O O8 0.500000 0.050368 0.750000
O O9 0.717429 0.007330 0.963228
O O10 0.445883 0.060829 0.948339
O O11 0.612838 0.908422 0.859797
O O12 0.403296 0.177552 0.304044
#
# Coordination Sequence:
#
# PCOD9257945 Si02
#       6
#     8   8   8   8   4   8
#     4  11  20  36  54  84 114 145 185 235 289 332
#     4  10  19  36  56  81 111 152 191 225 277 338
#     4  10  19  34  53  82 113 140 193 237 284 329
#     4  10  19  33  56  81 107 149 191 235 273 340
#     4  10  18  32  56  82 110 148 190 222 270 342
#     4  10  21  35  56  83 116 151 189 226 274 344
#
# _framework density 20.432375
#
# number of rings (size 3 to 8) (size 9 to 14) (size 15 to 20)
#    0.000    1.818    6.364    0.000    0.000    0.727 
#    0.000    0.909    0.000    0.000    0.000    0.000 
#    0.000    0.000    0.000    0.000    0.000    0.000 
#
# Total GULP energy -122616.812686 kJ/mol
# GULP energy per Si atom -5573.491486 kJ/mol
# Density = 2.038587 g / cm^3
# Si number density = 20.432375 Si / 1000 Ang^3
#
#
#
# Elastic Constant Matrix: (Units=GPa)
#
#
# Indices 1 2 3 4 5 6 
#
# 1 41.8760 38.3766 26.6305 0.0000 -0.5667 0.0000
# 2 38.3766 105.0076 11.8846 0.0000 2.8567 0.0000
# 3 26.6305 11.8846 79.0657 0.0000 -13.1710 0.0000
# 4 0.0000 0.0000 0.0000 26.2735 0.0000 -8.3503
# 5 -0.5667 2.8567 -13.1710 0.0000 28.6272 0.0000
# 6 0.0000 0.0000 0.0000 -8.3503 0.0000 15.5628
#
#
#
# Elastic Compliance Matrix: (Units=1/GPa)
#
#
# Indices 1 2 3 4 5 6 
#
# 1 0.047026 -0.015470 -0.014189 0.000000 -0.004053 0.000000
# 2 -0.015470 0.014861 0.002901 0.000000 -0.000454 0.000000
# 3 -0.014189 0.002901 0.018298 0.000000 0.007848 0.000000
# 4 0.000000 0.000000 0.000000 0.045886 0.000000 0.024620
# 5 -0.004053 -0.000454 0.007848 0.000000 0.038508 0.000000
# 6 0.000000 0.000000 0.000000 0.024620 0.000000 0.077466
#
#
# Mechanical properties :
#
#
# Convention : Reuss Voigt Hill
#
# Bulk Modulus (GPa) = 37.49681 42.19253 39.84467
# Shear Modulus (GPa) = 16.42307 24.02988 20.22647
#
# Velocity S-wave (km/s) = 2.83817 3.43311 3.14972
# Velocity P-wave (km/s) = 5.39739 6.03404 5.72457
#
# Compressibility (1/GPa) = 0.02666894
#
# Stress axis : x y z
#
# Youngs Moduli (GPa) = 21.26494 67.29054 54.65060
#
# Poissons Ratio (x) = 1.04099 0.77543
# Poissons Ratio (y) = 0.32897 -0.15855
# Poissons Ratio (z) = 0.30173 -0.19521
#
# Static dielectric constant tensor:
#      x y z
#    x 1.745070 0.000000 -0.002350 
#    y 0.000000 1.769120 0.000000 
#    z -0.002350 0.000000 1.763750 
# 
# From -- ./inp_files/79460.got.cif
#   From: 2010.05.17/outbox.cif.g08.bks.cpg/sg15_40_cif.got.tgz:79460.got - 2010.06.03 18:47:42.
