data_PCOD9257557
_publ_section_title
;
Structure prediction by ZEFSAII (Michael W. Deem and Ramdas Pophale) SiO2 
 PCOD9257557
Probable space group: C 2/C
;
_chemical_formula_sum "Si O2"
_cell_formula_units_Z 56
_cell_length_a 13.266702
_cell_length_b 20.579722
_cell_length_c 10.977056
_cell_angle_alpha 90.000000
_cell_angle_beta 68.758236
_cell_angle_gamma 90.000000
_cell_volume 2793.394081
_symmetry_space_group_name_H-M "C 2/C"
_symmetry_group_IT_number 15
_symmetry_cell_setting 'monoclinic'
loop_
_space_group_symop_operation_xyz
x,y,z
-x,y,1/2-z
-x,-y,-z
x,-y,1/2+z
1/2+x,1/2+y,z
1/2-x,1/2+y,1/2-z
1/2-x,1/2-y,-z
1/2+x,1/2-y,1/2+z
loop_
_atom_site_type_symbol
_atom_site_label
_atom_site_fract_x
_atom_site_fract_y
_atom_site_fract_z
Si Si1 0.991213 0.551556 0.614003
Si Si2 0.259952 0.246757 0.784859
Si Si3 0.594054 0.467113 0.108775
Si Si4 0.249620 0.391147 0.303809
Si Si5 0.528370 0.294182 0.874694
Si Si6 0.918399 0.087424 0.521611
Si Si7 0.383054 0.819420 0.462918
O O1 0.874471 0.587520 0.654391
O O2 0.000000 0.525680 0.750000
O O3 0.000000 0.500000 0.500000
O O4 0.086201 0.605559 0.558104
O O5 0.229290 0.186496 0.711542
O O6 0.343350 0.293061 0.676049
O O7 0.318216 0.207962 0.873139
O O8 0.176811 0.293988 0.890049
O O9 0.500000 0.459839 0.250000
O O10 0.696531 0.425636 0.103223
O O11 0.615239 0.543171 0.077472
O O12 0.535121 0.439291 0.015014
O O13 0.322461 0.418387 0.160137
O O14 0.500000 0.314368 0.750000
O O15 0.447434 0.337900 0.987478
O O16 0.494639 0.220093 0.908500
#
# Coordination Sequence:
#
# PCOD9257557 Si02
#       7
#     8   8   8   8   8   8   8
#     4  12  26  45  67  96 139 182 224 274 334 413
#     4  10  19  34  63  95 122 160 218 276 338 382
#     4   9  21  38  56  85 121 165 209 262 323 410
#     4  11  21  38  64  87 128 168 211 267 346 387
#     4  10  18  31  59  89 118 150 212 284 327 373
#     4  10  20  38  59  87 121 159 218 269 331 389
#     4  10  19  38  60  92 125 165 223 277 328 389
#
# _framework density 20.047297
#
# number of rings (size 3 to 8) (size 9 to 14) (size 15 to 20)
#    0.000    1.714    4.286    0.857    2.000    0.000 
#    7.714    0.714    3.143    0.000    0.000    0.000 
#    0.000    0.000    0.000    0.000    0.000    0.000 
#
# Total GULP energy -155930.589593 kJ/mol
# GULP energy per Si atom -5568.949628 kJ/mol
# Density = 2.000167 g / cm^3
# Si number density = 20.047297 Si / 1000 Ang^3
#
#
#
# Elastic Constant Matrix: (Units=GPa)
#
#
# Indices 1 2 3 4 5 6 
#
# 1 71.6087 20.9940 27.8591 0.0000 -9.4766 0.0000
# 2 20.9940 91.5283 35.4243 0.0000 5.3176 0.0000
# 3 27.8591 35.4243 57.7027 0.0000 -6.4231 0.0000
# 4 0.0000 0.0000 0.0000 8.3402 0.0000 1.5171
# 5 -9.4766 5.3176 -6.4231 0.0000 25.1725 0.0000
# 6 0.0000 0.0000 0.0000 1.5171 0.0000 26.4073
#
#
#
# Elastic Compliance Matrix: (Units=1/GPa)
#
#
# Indices 1 2 3 4 5 6 
#
# 1 0.017890 -0.001702 -0.007002 0.000000 0.005308 0.000000
# 2 -0.001702 0.015251 -0.009233 0.000000 -0.006218 0.000000
# 3 -0.007002 -0.009233 0.027072 0.000000 0.006222 0.000000
# 4 0.000000 0.000000 0.000000 0.121167 0.000000 -0.006961
# 5 0.005308 -0.006218 0.006222 0.000000 0.044625 0.000000
# 6 0.000000 0.000000 0.000000 -0.006961 0.000000 0.038268
#
#
# Mechanical properties :
#
#
# Convention : Reuss Voigt Hill
#
# Bulk Modulus (GPa) = 41.08642 43.26606 42.17624
# Shear Modulus (GPa) = 16.22006 21.08814 18.65410
#
# Velocity S-wave (km/s) = 2.84754 3.24685 3.05373
# Velocity P-wave (km/s) = 5.59915 5.97368 5.78945
#
# Compressibility (1/GPa) = 0.02433894
#
# Stress axis : x y z
#
# Youngs Moduli (GPa) = 55.89641 65.57070 36.93918
#
# Poissons Ratio (x) = 0.11160 0.25864
# Poissons Ratio (y) = 0.09514 0.34106
# Poissons Ratio (z) = 0.39137 0.60542
#
# Static dielectric constant tensor:
#      x y z
#    x 1.759520 0.000000 0.016740 
#    y 0.000000 1.776360 0.000000 
#    z 0.016740 0.000000 1.739810 
# 
# From -- ./inp_files/88905.got.cif
#   From: 2010.05.17/outbox.cif.g08.bks.cpg/sg15_45_cif.got.tgz:88905.got - 2010.06.03 18:47:42.
