data_PCOD9257188
_publ_section_title
;
Structure prediction by ZEFSAII (Michael W. Deem and Ramdas Pophale) SiO2 
 PCOD9257188
Probable space group: C 2/C
;
_chemical_formula_sum "Si O2"
_cell_formula_units_Z 44
_cell_length_a 19.237189
_cell_length_b 13.770697
_cell_length_c 9.643510
_cell_angle_alpha 90.000000
_cell_angle_beta 80.282101
_cell_angle_gamma 90.000000
_cell_volume 2518.000093
_symmetry_space_group_name_H-M "C 2/C"
_symmetry_group_IT_number 15
_symmetry_cell_setting 'monoclinic'
loop_
_space_group_symop_operation_xyz
x,y,z
-x,y,1/2-z
-x,-y,-z
x,-y,1/2+z
1/2+x,1/2+y,z
1/2-x,1/2+y,1/2-z
1/2-x,1/2-y,-z
1/2+x,1/2-y,1/2+z
loop_
_atom_site_type_symbol
_atom_site_label
_atom_site_fract_x
_atom_site_fract_y
_atom_site_fract_z
Si Si1 0.458023 0.310911 0.452983
Si Si2 0.401818 0.393239 0.201934
Si Si3 0.916548 0.115243 0.247139
Si Si4 0.946150 0.373738 0.530628
Si Si5 0.171278 0.777607 0.488278
Si Si6 0.000000 0.490921 0.250000
O O1 0.416695 0.319951 0.323248
O O2 0.526069 0.382561 0.412979
O O3 0.409731 0.346616 0.593386
O O4 0.491676 0.206324 0.471593
O O5 0.397078 0.501918 0.259126
O O6 0.337819 0.357799 0.129548
O O7 0.870472 0.177977 0.366925
O O8 0.000000 0.126272 0.250000
O O9 0.873603 0.314881 0.548044
O O10 0.958341 0.427254 0.378931
O O11 0.952445 0.443228 0.662581
O O12 0.250000 0.750000 0.500000
#
# Coordination Sequence:
#
# PCOD9257188 Si02
#       6
#     8   8   8   8   8   4
#     4  10  18  30  58  91 113 133 180 242 284 322
#     4  10  19  32  58  89 119 136 180 233 286 332
#     4  12  18  33  62  91 111 141 186 231 279 337
#     4  10  19  35  55  80 107 140 184 230 279 306
#     4  11  24  40  54  78 122 155 179 221 286 345
#     4  10  20  34  60  82  98 136 198 244 254 310
#
# _framework density 17.474184999999999
#
# number of rings (size 3 to 8) (size 9 to 14) (size 15 to 20)
#    0.000    1.455    5.455    4.909    0.000    0.000 
#    3.273    0.909    0.000    0.000    0.000    0.000 
#    0.000    0.000    0.000    0.000    0.000    0.000 
#
# Total GULP energy -122716.118774 kJ/mol
# GULP energy per Si atom -5578.005399 kJ/mol
# Density = 1.743441 g / cm^3
# Si number density = 17.474185 Si / 1000 Ang^3
#
#
#
# Elastic Constant Matrix: (Units=GPa)
#
#
# Indices 1 2 3 4 5 6 
#
# 1 105.0256 38.7202 49.4897 0.0000 8.3373 0.0000
# 2 38.7202 77.0847 36.6054 0.0000 -2.3506 0.0000
# 3 49.4897 36.6054 107.5305 0.0000 18.9908 0.0000
# 4 0.0000 0.0000 0.0000 31.6241 0.0000 11.2606
# 5 8.3373 -2.3506 18.9908 0.0000 12.4047 0.0000
# 6 0.0000 0.0000 0.0000 11.2606 0.0000 12.2969
#
#
#
# Elastic Compliance Matrix: (Units=1/GPa)
#
#
# Indices 1 2 3 4 5 6 
#
# 1 0.013514 -0.005180 -0.003671 0.000000 -0.004444 0.000000
# 2 -0.005180 0.019831 -0.007737 0.000000 0.019085 0.000000
# 3 -0.003671 -0.007737 0.018429 0.000000 -0.027213 0.000000
# 4 0.000000 0.000000 0.000000 0.046921 0.000000 -0.042967
# 5 -0.004444 0.019085 -0.027213 0.000000 0.128878 0.000000
# 6 0.000000 0.000000 0.000000 -0.042967 0.000000 0.120667
#
#
# Mechanical properties :
#
#
# Convention : Reuss Voigt Hill
#
# Bulk Modulus (GPa) = 53.77333 59.91905 56.84619
# Shear Modulus (GPa) = 12.89931 22.25350 17.57641
#
# Velocity S-wave (km/s) = 2.71992 3.57249 3.17495
# Velocity P-wave (km/s) = 6.37995 7.16808 6.78547
#
# Compressibility (1/GPa) = 0.01859658
#
# Stress axis : x y z
#
# Youngs Moduli (GPa) = 73.99656 50.42617 54.26149
#
# Poissons Ratio (x) = 0.26122 0.19922
# Poissons Ratio (y) = 0.38332 0.41983
# Poissons Ratio (z) = 0.27167 0.39016
#
# Static dielectric constant tensor:
#      x y z
#    x 1.567920 0.000000 0.030630 
#    y 0.000000 1.629280 0.000000 
#    z 0.030630 0.000000 1.626510 
# 
# From -- ./inp_files/47006.got.cif
#   From: 2010.05.17/outbox.cif.g08.bks.cpg/sg15_24_cif.got.tgz:47006.got - 2010.06.03 18:47:42.
