data_PCOD9257453
_publ_section_title
;
Structure prediction by ZEFSAII (Michael W. Deem and Ramdas Pophale) SiO2 
 PCOD9257453
Probable space group: C 2/C
;
_chemical_formula_sum "Si O2"
_cell_formula_units_Z 52
_cell_length_a 5.126692
_cell_length_b 28.937886
_cell_length_c 13.828456
_cell_angle_alpha 90.000000
_cell_angle_beta 101.566825
_cell_angle_gamma 90.000000
_cell_volume 2009.865826
_symmetry_space_group_name_H-M "C 2/C"
_symmetry_group_IT_number 15
_symmetry_cell_setting 'monoclinic'
loop_
_space_group_symop_operation_xyz
x,y,z
-x,y,1/2-z
-x,-y,-z
x,-y,1/2+z
1/2+x,1/2+y,z
1/2-x,1/2+y,1/2-z
1/2-x,1/2-y,-z
1/2+x,1/2-y,1/2+z
loop_
_atom_site_type_symbol
_atom_site_label
_atom_site_fract_x
_atom_site_fract_y
_atom_site_fract_z
Si Si1 0.895515 0.049011 0.611314
Si Si2 0.760011 0.963576 0.880836
Si Si3 0.105203 0.391930 0.402534
Si Si4 0.758110 0.747943 0.858739
Si Si5 0.737081 0.093385 0.132090
Si Si6 0.500000 0.832950 0.750000
Si Si7 0.754211 0.209864 0.862914
O O1 0.784847 0.030990 0.499416
O O2 0.642631 0.074069 0.643724
O O3 0.111187 0.088604 0.609759
O O4 0.097068 0.007644 0.656909
O O5 0.451672 0.949338 0.845788
O O6 0.962091 0.922790 0.864434
O O7 0.114023 0.392641 0.519594
O O8 0.117935 0.339547 0.367984
O O9 0.652478 0.799363 0.835516
O O10 0.565426 0.716453 0.909333
O O11 0.748606 0.725719 0.749502
O O12 0.066142 0.745484 0.904400
O O13 0.691635 0.135011 0.201425
#
# Coordination Sequence:
#
# PCOD9257453 Si02
#       7
#     8   8   8   8   8   4   8
#     4   9  17  30  52  77 109 135 167 202 256 311
#     4   9  18  33  50  77 104 137 170 210 249 303
#     4  10  18  31  54  84 105 135 173 218 257 303
#     4   9  20  35  54  72  97 142 172 200 271 327
#     4  10  21  33  54  78 105 138 180 217 259 301
#     4  10  22  40  56  74 102 142 180 216 256 324
#     4   9  17  33  53  76 102 126 171 215 250 311
#
# _framework density 25.872374000000001
#
# number of rings (size 3 to 8) (size 9 to 14) (size 15 to 20)
#    0.000    2.769    0.000    1.846    0.000    9.231 
#    0.000    3.846    0.000   18.462    0.000    1.077 
#    0.000    0.000    0.000    0.000    0.000    0.000 
#
# Total GULP energy -145195.176028 kJ/mol
# GULP energy per Si atom -5584.429847 kJ/mol
# Density = 2.581349 g / cm^3
# Si number density = 25.872374 Si / 1000 Ang^3
#
#
#
# Elastic Constant Matrix: (Units=GPa)
#
#
# Indices 1 2 3 4 5 6 
#
# 1 196.3019 29.4564 4.5930 0.0000 -0.1383 0.0000
# 2 29.4564 98.6452 8.0950 0.0000 -0.4378 0.0000
# 3 4.5930 8.0950 71.3178 0.0000 -5.3545 0.0000
# 4 0.0000 0.0000 0.0000 25.6802 0.0000 -8.2108
# 5 -0.1383 -0.4378 -5.3545 0.0000 22.5167 0.0000
# 6 0.0000 0.0000 0.0000 -8.2108 0.0000 52.9506
#
#
#
# Elastic Compliance Matrix: (Units=1/GPa)
#
#
# Indices 1 2 3 4 5 6 
#
# 1 0.005335 -0.001580 -0.000167 0.000000 -0.000038 0.000000
# 2 -0.001580 0.010700 -0.001118 0.000000 -0.000067 0.000000
# 3 -0.000167 -0.001118 0.014415 0.000000 0.003405 0.000000
# 4 0.000000 0.000000 0.000000 0.040972 0.000000 0.006353
# 5 -0.000038 -0.000067 0.003405 0.000000 0.045220 0.000000
# 6 0.000000 0.000000 0.000000 0.006353 0.000000 0.019871
#
#
# Mechanical properties :
#
#
# Convention : Reuss Voigt Hill
#
# Bulk Modulus (GPa) = 40.45077 50.06151 45.25614
# Shear Modulus (GPa) = 33.22642 41.83751 37.53196
#
# Velocity S-wave (km/s) = 3.58752 4.02565 3.81288
# Velocity P-wave (km/s) = 5.72967 6.40306 6.07570
#
# Compressibility (1/GPa) = 0.02472141
#
# Stress axis : x y z
#
# Youngs Moduli (GPa) = 187.43777 93.45394 69.37188
#
# Poissons Ratio (x) = 0.14762 0.01159
# Poissons Ratio (y) = 0.29607 0.07755
# Poissons Ratio (z) = 0.03133 0.10447
#
# Static dielectric constant tensor:
#      x y z
#    x 2.315290 0.000000 0.458330 
#    y 0.000000 2.054570 0.000000 
#    z 0.458330 0.000000 2.735820 
# 
# From -- ./inp_files/186411.got.cif
#   From: 2010.05.17/outbox.cif.g08.bks.cpg/sg15_94_cif.got.tgz:186411.got - 2010.06.03 18:47:42.
