data_PCOD9257372
_publ_section_title
;
Structure prediction by ZEFSAII (Michael W. Deem and Ramdas Pophale) SiO2 
 PCOD9257372
Probable space group: C 2/C
;
_chemical_formula_sum "Si O2"
_cell_formula_units_Z 32
_cell_length_a 13.541537
_cell_length_b 16.652369
_cell_length_c 5.692120
_cell_angle_alpha 90.000000
_cell_angle_beta 126.046194
_cell_angle_gamma 90.000000
_cell_volume 1037.817687
_symmetry_space_group_name_H-M "C 2/C"
_symmetry_group_IT_number 15
_symmetry_cell_setting 'monoclinic'
loop_
_space_group_symop_operation_xyz
x,y,z
-x,y,1/2-z
-x,-y,-z
x,-y,1/2+z
1/2+x,1/2+y,z
1/2-x,1/2+y,1/2-z
1/2-x,1/2-y,-z
1/2+x,1/2-y,1/2+z
loop_
_atom_site_type_symbol
_atom_site_label
_atom_site_fract_x
_atom_site_fract_y
_atom_site_fract_z
Si Si1 0.252025 0.976522 0.123017
Si Si2 0.862289 0.174294 0.228572
Si Si3 0.000000 0.673427 0.750000
Si Si4 0.000000 0.922904 0.250000
Si Si5 0.250000 0.750000 0.500000
Si Si6 0.000000 0.650839 0.250000
O O1 0.213988 0.883437 0.047733
O O2 0.309997 0.003945 0.956177
O O3 0.120320 0.022656 0.926723
O O4 0.786523 0.179514 0.363303
O O5 0.893657 0.258128 0.147305
O O6 0.985840 0.132339 0.498689
O O7 0.006827 0.619156 0.526412
O O8 0.118934 0.706800 0.382576
#
# Coordination Sequence:
#
# PCOD9257372 Si02
#       6
#     8   8   4   4   4   4
#     4  10  19  30  48  75 105 138 180 232 282 325
#     4  10  18  31  52  79 112 147 184 230 286 341
#     4  10  19  34  54  77 112 153 187 230 276 338
#     4  10  18  32  52  78 108 142 184 236 280 326
#     4  10  22  38  58  84 118 158 190 234 288 346
#     4  10  23  38  54  79 112 153 197 228 278 342
#
# _framework density 30.833931
#
# number of rings (size 3 to 8) (size 9 to 14) (size 15 to 20)
#    0.000    2.000    0.000    8.250    0.000    8.000 
#    0.000    0.000    0.000    0.000    0.000    7.000 
#    0.000    0.000    0.000    0.750    0.000    0.000 
#
# Total GULP energy -89212.522920 kJ/mol
# GULP energy per Si atom -5575.782683 kJ/mol
# Density = 3.076375 g / cm^3
# Si number density = 30.833931 Si / 1000 Ang^3
#
#
#
# Elastic Constant Matrix: (Units=GPa)
#
#
# Indices 1 2 3 4 5 6 
#
# 1 191.7349 50.7699 49.9278 0.0000 -48.7215 0.0000
# 2 50.7699 91.6305 45.9797 0.0000 -5.6205 0.0000
# 3 49.9278 45.9797 223.3278 0.0000 -56.3887 0.0000
# 4 0.0000 0.0000 0.0000 38.3206 0.0000 -19.7986
# 5 -48.7215 -5.6205 -56.3887 0.0000 70.8120 0.0000
# 6 0.0000 0.0000 0.0000 -19.7986 0.0000 49.9211
#
#
#
# Elastic Compliance Matrix: (Units=1/GPa)
#
#
# Indices 1 2 3 4 5 6 
#
# 1 0.007494 -0.004073 0.000480 0.000000 0.005215 0.000000
# 2 -0.004073 0.014479 -0.003114 0.000000 -0.004133 0.000000
# 3 0.000480 -0.003114 0.006299 0.000000 0.005099 0.000000
# 4 0.000000 0.000000 0.000000 0.032821 0.000000 0.013017
# 5 0.005215 -0.004133 0.005099 0.000000 0.021443 0.000000
# 6 0.000000 0.000000 0.000000 0.013017 0.000000 0.025194
#
#
# Mechanical properties :
#
#
# Convention : Reuss Voigt Hill
#
# Bulk Modulus (GPa) = 67.30343 88.89422 78.09882
# Shear Modulus (GPa) = 39.65171 55.81178 47.73174
#
# Velocity S-wave (km/s) = 3.58994 4.25912 3.93877
# Velocity P-wave (km/s) = 6.24969 7.28556 6.78742
#
# Compressibility (1/GPa) = 0.01485808
#
# Stress axis : x y z
#
# Youngs Moduli (GPa) = 133.43253 69.06342 158.75466
#
# Poissons Ratio (x) = 0.28132 -0.07621
# Poissons Ratio (y) = 0.54353 0.49436
# Poissons Ratio (z) = -0.06405 0.21506
#
# Static dielectric constant tensor:
#      x y z
#    x 3.543370 0.000000 -0.082320 
#    y 0.000000 2.411850 0.000000 
#    z -0.082320 0.000000 2.809150 
# 
# From -- ./inp_files/6707.got.cif
#   From: 2010.05.17/outbox.cif.g08.bks.cpg/sg15_4_cif.got.tgz:6707.got - 2010.06.03 18:47:42.
