data_PCOD9257773
_publ_section_title
;
Structure prediction by ZEFSAII (Michael W. Deem and Ramdas Pophale) SiO2 
 PCOD9257773
Probable space group: C 2/C
;
_chemical_formula_sum "Si O2"
_cell_formula_units_Z 48
_cell_length_a 19.712583
_cell_length_b 7.621540
_cell_length_c 27.206116
_cell_angle_alpha 90.000000
_cell_angle_beta 146.423519
_cell_angle_gamma 90.000000
_cell_volume 2260.564471
_symmetry_space_group_name_H-M "C 2/C"
_symmetry_group_IT_number 15
_symmetry_cell_setting 'monoclinic'
loop_
_space_group_symop_operation_xyz
x,y,z
-x,y,1/2-z
-x,-y,-z
x,-y,1/2+z
1/2+x,1/2+y,z
1/2-x,1/2+y,1/2-z
1/2-x,1/2-y,-z
1/2+x,1/2-y,1/2+z
loop_
_atom_site_type_symbol
_atom_site_label
_atom_site_fract_x
_atom_site_fract_y
_atom_site_fract_z
Si Si1 0.975375 0.759074 0.458085
Si Si2 0.239558 0.192574 0.077596
Si Si3 0.761986 0.936728 0.270199
Si Si4 0.990674 0.630427 0.917123
Si Si5 0.362833 0.937415 0.566375
Si Si6 0.120553 0.752170 0.239136
O O1 0.858276 0.856147 0.366182
O O2 0.975523 0.563298 0.433834
O O3 0.105678 0.838004 0.519862
O O4 0.972149 0.748400 0.514782
O O5 0.293828 0.039502 0.076120
O O6 0.331456 0.247561 0.176348
O O7 0.220389 0.346531 0.025708
O O8 0.640715 0.823215 0.184003
O O9 0.838847 0.928561 0.265233
O O10 0.696558 0.100955 0.256354
O O11 0.082844 0.606853 0.927811
O O12 0.479214 0.806496 0.647512
#
# Coordination Sequence:
#
# PCOD9257773 Si02
#       6
#     8   8   8   8   8   8
#     4  10  18  32  54  81 106 141 179 225 277 322
#     4  10  18  32  53  80 104 135 188 225 263 321
#     4  11  19  34  51  81 110 137 180 227 274 321
#     4   9  18  33  52  77 113 142 171 222 290 324
#     4   9  19  34  52  76 111 143 173 224 282 326
#     4  11  21  33  53  82 109 141 177 228 275 327
#
# _framework density 21.233633999999999
#
# number of rings (size 3 to 8) (size 9 to 14) (size 15 to 20)
#    0.000    2.000    6.667    0.500    0.000    0.667 
#    0.000    0.000    0.000    1.000    8.667    0.000 
#    0.000    0.000    0.000    0.000    0.000    0.000 
#
# Total GULP energy -133777.418351 kJ/mol
# GULP energy per Si atom -5574.059098 kJ/mol
# Density = 2.118531 g / cm^3
# Si number density = 21.233634 Si / 1000 Ang^3
#
#
#
# Elastic Constant Matrix: (Units=GPa)
#
#
# Indices 1 2 3 4 5 6 
#
# 1 128.8597 20.3383 71.1474 0.0000 -12.1326 -0.0001
# 2 20.3383 22.8730 17.2462 0.0000 -0.7134 0.0003
# 3 71.1474 17.2462 134.3029 0.0000 -23.1843 -0.0001
# 4 0.0000 0.0000 0.0000 24.0940 0.0000 4.1574
# 5 -12.1326 -0.7134 -23.1843 0.0000 34.4296 0.0001
# 6 -0.0001 0.0003 -0.0001 4.1574 0.0001 25.5786
#
#
#
# Elastic Compliance Matrix: (Units=1/GPa)
#
#
# Indices 1 2 3 4 5 6 
#
# 1 0.011757 -0.006421 -0.005331 0.000000 0.000420 0.000000
# 2 -0.006421 0.052312 -0.003982 0.000000 -0.003860 -0.000001
# 3 -0.005331 -0.003982 0.011816 0.000000 0.005996 0.000000
# 4 0.000000 0.000000 0.000000 0.042702 0.000000 -0.006941
# 5 0.000420 -0.003860 0.005996 0.000000 0.033150 0.000000
# 6 0.000000 -0.000001 0.000000 -0.006941 0.000000 0.040223
#
#
# Mechanical properties :
#
#
# Convention : Reuss Voigt Hill
#
# Bulk Modulus (GPa) = 22.51458 55.94439 39.22949
# Shear Modulus (GPa) = 20.98769 28.64067 24.81418
#
# Velocity S-wave (km/s) = 3.14732 3.67663 3.42223
# Velocity P-wave (km/s) = 4.88199 6.66542 5.84216
#
# Compressibility (1/GPa) = 0.04441566
#
# Stress axis : x y z
#
# Youngs Moduli (GPa) = 85.05631 19.11623 84.62751
#
# Poissons Ratio (x) = 0.12275 0.45117
# Poissons Ratio (y) = 0.54617 0.33701
# Poissons Ratio (z) = 0.45345 0.07613
#
# Static dielectric constant tensor:
#      x y z
#    x 1.818850 0.000000 0.011760 
#    y 0.000000 1.921400 0.000000 
#    z 0.011760 0.000000 1.762660 
# 
# From -- ./inp_files/317312.got.cif
#   From: 2010.05.17/outbox.cif.g08.bks.cpg/sg15_159_cif.got.tgz:317312.got - 2010.06.03 18:47:42.
