data_PCOD9257485
_publ_section_title
;
Structure prediction by ZEFSAII (Michael W. Deem and Ramdas Pophale) SiO2 
 PCOD9257485
Probable space group: C 2/C
;
_chemical_formula_sum "Si O2"
_cell_formula_units_Z 64
_cell_length_a 22.058869
_cell_length_b 8.728591
_cell_length_c 20.298826
_cell_angle_alpha 90.000000
_cell_angle_beta 52.689791
_cell_angle_gamma 90.000000
_cell_volume 3108.601495
_symmetry_space_group_name_H-M "C 2/C"
_symmetry_group_IT_number 15
_symmetry_cell_setting 'monoclinic'
loop_
_space_group_symop_operation_xyz
x,y,z
-x,y,1/2-z
-x,-y,-z
x,-y,1/2+z
1/2+x,1/2+y,z
1/2-x,1/2+y,1/2-z
1/2-x,1/2-y,-z
1/2+x,1/2-y,1/2+z
loop_
_atom_site_type_symbol
_atom_site_label
_atom_site_fract_x
_atom_site_fract_y
_atom_site_fract_z
Si Si1 0.651038 0.440768 0.922921
Si Si2 0.757376 0.234280 0.244340
Si Si3 0.179470 0.847208 0.519946
Si Si4 0.817891 0.168080 0.912250
Si Si5 0.082119 0.800662 0.392260
Si Si6 0.590572 0.105984 0.512244
Si Si7 0.059424 0.718754 0.082407
Si Si8 0.244158 0.510470 0.844569
O O1 0.712233 0.367907 0.835209
O O2 0.690139 0.571746 0.941849
O O3 0.590147 0.531278 0.918597
O O4 0.611581 0.312677 0.994661
O O5 0.666869 0.251978 0.314670
O O6 0.784613 0.401548 0.202283
O O7 0.785115 0.143065 0.291195
O O8 0.250000 0.750000 0.500000
O O9 0.108185 0.735555 0.554839
O O10 0.167972 0.994404 0.572640
O O11 0.893888 0.261188 0.880724
O O12 0.792259 0.133463 0.854779
O O13 0.750000 0.250000 0.000000
O O14 0.057486 0.687500 0.468756
O O15 0.022939 0.793489 0.372013
O O16 0.550645 0.957917 0.567885
O O17 0.673835 0.042172 0.435464
#
# Coordination Sequence:
#
# PCOD9257485 Si02
#       8
#     8   8   8   8   8   8   8   8
#     4  10  20  35  57  81 114 153 196 243 297 356
#     4  11  21  36  56  79 117 149 194 238 292 357
#     4  10  18  31  55  87 113 137 189 256 295 336
#     4  11  20  35  58  85 117 151 198 244 301 359
#     4  10  22  35  53  86 118 152 193 246 301 354
#     4  10  19  33  55  84 115 142 189 243 297 345
#     4  11  20  36  58  85 116 151 194 249 303 355
#     4  11  20  35  56  84 110 149 195 240 290 352
#
# _framework density 20.588037
#
# number of rings (size 3 to 8) (size 9 to 14) (size 15 to 20)
#    0.000    1.500    5.000    1.500    0.000    0.000 
#    0.000    0.625    0.000    0.000    0.000    0.000 
#    0.000    0.000    0.000    0.000    0.000    0.000 
#
# Total GULP energy -178305.892491 kJ/mol
# GULP energy per Si atom -5572.059140 kJ/mol
# Density = 2.054118 g / cm^3
# Si number density = 20.588037 Si / 1000 Ang^3
#
#
#
# Elastic Constant Matrix: (Units=GPa)
#
#
# Indices 1 2 3 4 5 6 
#
# 1 75.5808 6.0004 -4.7958 0.0001 2.8661 0.0003
# 2 6.0004 98.3132 5.8896 0.0000 7.6618 0.0000
# 3 -4.7958 5.8896 31.3306 0.0001 1.0121 0.0000
# 4 0.0001 0.0000 0.0001 37.9923 0.0000 14.0293
# 5 2.8661 7.6618 1.0121 0.0000 8.2302 0.0000
# 6 0.0003 0.0000 0.0000 14.0293 0.0000 25.7801
#
#
#
# Elastic Compliance Matrix: (Units=1/GPa)
#
#
# Indices 1 2 3 4 5 6 
#
# 1 0.013597 -0.000624 0.002342 0.000000 -0.004442 0.000000
# 2 -0.000624 0.011091 -0.001861 0.000000 -0.009879 0.000000
# 3 0.002342 -0.001861 0.032726 0.000000 -0.003108 0.000000
# 4 0.000000 0.000000 0.000000 0.032941 0.000000 -0.017926
# 5 -0.004442 -0.009879 -0.003108 0.000000 0.132630 0.000000
# 6 0.000000 0.000000 0.000000 -0.017926 0.000000 0.048545
#
#
# Mechanical properties :
#
#
# Convention : Reuss Voigt Hill
#
# Bulk Modulus (GPa) = 17.50432 24.37922 20.94177
# Shear Modulus (GPa) = 17.19047 27.60923 22.39985
#
# Velocity S-wave (km/s) = 2.89273 3.66598 3.30207
# Velocity P-wave (km/s) = 4.43596 5.45769 4.97314
#
# Compressibility (1/GPa) = 0.05712877
#
# Stress axis : x y z
#
# Youngs Moduli (GPa) = 73.54302 90.16290 30.55628
#
# Poissons Ratio (x) = 0.05626 -0.07157
# Poissons Ratio (y) = 0.04589 0.05687
# Poissons Ratio (z) = -0.17225 0.16782
#
# Static dielectric constant tensor:
#      x y z
#    x 1.829350 0.000000 0.063050 
#    y 0.000000 1.832740 0.000000 
#    z 0.063050 0.000000 1.738650 
# 
# From -- ./inp_files/251897.got.cif
#   From: 2010.05.17/outbox.cif.g08.bks.cpg/sg15_126_cif.got.tgz:251897.got - 2010.06.03 18:47:42.
