data_PCOD9257869
_publ_section_title
;
Structure prediction by ZEFSAII (Michael W. Deem and Ramdas Pophale) SiO2 
 PCOD9257869
Probable space group: C 2/C
;
_chemical_formula_sum "Si O2"
_cell_formula_units_Z 52
_cell_length_a 19.367322
_cell_length_b 8.484655
_cell_length_c 17.005546
_cell_angle_alpha 90.000000
_cell_angle_beta 104.909794
_cell_angle_gamma 90.000000
_cell_volume 2700.354322
_symmetry_space_group_name_H-M "C 2/C"
_symmetry_group_IT_number 15
_symmetry_cell_setting 'monoclinic'
loop_
_space_group_symop_operation_xyz
x,y,z
-x,y,1/2-z
-x,-y,-z
x,-y,1/2+z
1/2+x,1/2+y,z
1/2-x,1/2+y,1/2-z
1/2-x,1/2-y,-z
1/2+x,1/2-y,1/2+z
loop_
_atom_site_type_symbol
_atom_site_label
_atom_site_fract_x
_atom_site_fract_y
_atom_site_fract_z
Si Si1 0.335691 0.307152 0.136867
Si Si2 0.096558 0.162554 0.006812
Si Si3 0.107922 0.597385 0.212461
Si Si4 0.679415 0.814604 0.161758
Si Si5 0.896482 0.106381 0.241357
Si Si6 0.440463 0.604053 0.893070
Si Si7 0.500000 0.124904 0.750000
O O1 0.350270 0.304676 0.049025
O O2 0.376274 0.169528 0.196950
O O3 0.253961 0.297560 0.139829
O O4 0.367932 0.472844 0.176203
O O5 0.016603 0.159352 0.948717
O O6 0.115652 0.287041 0.080257
O O7 0.101450 0.993037 0.052174
O O8 0.169318 0.482120 0.200082
O O9 0.099461 0.744960 0.152658
O O10 0.036497 0.490581 0.197581
O O11 0.666336 0.683224 0.224742
O O12 0.936610 0.252030 0.211675
O O13 0.946827 0.016914 0.320731
#
# Coordination Sequence:
#
# PCOD9257869 Si02
#       7
#     8   8   8   8   8   8   4
#     4  11  20  36  57  79 105 146 185 213 257 324
#     4  10  20  34  56  78 108 143 178 221 265 318
#     4  10  21  36  58  81 108 138 179 226 263 313
#     4  10  21  36  52  80 113 144 173 216 271 318
#     4   9  19  34  56  77 107 140 178 226 264 314
#     4   9  19  37  55  79 106 142 178 216 277 316
#     4  10  18  32  54  86 102 124 178 230 270 294
#
# _framework density 19.256730999999998
#
# number of rings (size 3 to 8) (size 9 to 14) (size 15 to 20)
#    0.000    2.154    0.000    3.231    0.000    4.308 
#    0.000    6.923    0.000    0.000    0.000    0.000 
#    0.000    0.000    0.000    0.000    0.000    0.000 
#
# Total GULP energy -144936.471529 kJ/mol
# GULP energy per Si atom -5574.479674 kJ/mol
# Density = 1.921290 g / cm^3
# Si number density = 19.256731 Si / 1000 Ang^3
#
#
#
# Elastic Constant Matrix: (Units=GPa)
#
#
# Indices 1 2 3 4 5 6 
#
# 1 67.3806 15.9084 2.6423 0.0000 -13.7821 0.0000
# 2 15.9084 93.5152 28.1288 0.0000 -5.4034 0.0000
# 3 2.6423 28.1288 59.0971 0.0000 -10.0472 0.0000
# 4 0.0000 0.0000 0.0000 10.8460 0.0000 -3.3232
# 5 -13.7821 -5.4034 -10.0472 0.0000 26.9946 0.0000
# 6 0.0000 0.0000 0.0000 -3.3232 0.0000 24.5858
#
#
#
# Elastic Compliance Matrix: (Units=1/GPa)
#
#
# Indices 1 2 3 4 5 6 
#
# 1 0.017340 -0.003100 0.002242 0.000000 0.009067 0.000000
# 2 -0.003100 0.013037 -0.006290 0.000000 -0.001314 0.000000
# 3 0.002242 -0.006290 0.021133 0.000000 0.007751 0.000000
# 4 0.000000 0.000000 0.000000 0.096183 0.000000 0.013001
# 5 0.009067 -0.001314 0.007751 0.000000 0.044295 0.000000
# 6 0.000000 0.000000 0.000000 0.013001 0.000000 0.042431
#
#
# Mechanical properties :
#
#
# Convention : Reuss Voigt Hill
#
# Bulk Modulus (GPa) = 26.87290 34.81687 30.84489
# Shear Modulus (GPa) = 19.14829 24.03952 21.59390
#
# Velocity S-wave (km/s) = 3.15678 3.53706 3.35232
# Velocity P-wave (km/s) = 5.22230 5.89921 5.57104
#
# Compressibility (1/GPa) = 0.03721221
#
# Stress axis : x y z
#
# Youngs Moduli (GPa) = 57.67153 76.70527 47.31996
#
# Poissons Ratio (x) = 0.23780 -0.10608
# Poissons Ratio (y) = 0.17879 0.29765
# Poissons Ratio (z) = -0.12929 0.48248
#
# Static dielectric constant tensor:
#      x y z
#    x 1.697020 0.000000 0.000210 
#    y 0.000000 1.659210 0.000000 
#    z 0.000210 0.000000 1.661140 
# 
# From -- ./inp_files/166366.got.cif
#   From: 2010.05.17/outbox.cif.g08.bks.cpg/sg15_84_cif.got.tgz:166366.got - 2010.06.03 18:47:42.
