data_PCOD9257661
_publ_section_title
;
Structure prediction by ZEFSAII (Michael W. Deem and Ramdas Pophale) SiO2 
 PCOD9257661
Probable space group: C 2/C
;
_chemical_formula_sum "Si O2"
_cell_formula_units_Z 40
_cell_length_a 11.733571
_cell_length_b 13.926670
_cell_length_c 18.281524
_cell_angle_alpha 90.000000
_cell_angle_beta 142.795960
_cell_angle_gamma 90.000000
_cell_volume 1806.332664
_symmetry_space_group_name_H-M "C 2/C"
_symmetry_group_IT_number 15
_symmetry_cell_setting 'monoclinic'
loop_
_space_group_symop_operation_xyz
x,y,z
-x,y,1/2-z
-x,-y,-z
x,-y,1/2+z
1/2+x,1/2+y,z
1/2-x,1/2+y,1/2-z
1/2-x,1/2-y,-z
1/2+x,1/2-y,1/2+z
loop_
_atom_site_type_symbol
_atom_site_label
_atom_site_fract_x
_atom_site_fract_y
_atom_site_fract_z
Si Si1 0.814024 0.042258 0.366652
Si Si2 0.788108 0.857890 0.995249
Si Si3 0.261544 0.357976 0.269289
Si Si4 0.664088 0.352484 0.774387
Si Si5 0.733362 0.542172 0.872314
O O1 0.726240 0.112740 0.382302
O O2 0.875741 0.097407 0.324478
O O3 0.692360 0.949714 0.280814
O O4 0.000000 0.000000 0.500000
O O5 0.709131 0.928411 0.017164
O O6 0.012994 0.866399 0.114347
O O7 0.750000 0.750000 0.000000
O O8 0.222821 0.254551 0.282974
O O9 0.205094 0.379512 0.156626
O O10 0.500000 0.340246 0.750000
O O11 0.792748 0.434980 0.878429
O O12 0.500000 0.540766 0.750000
#
# Coordination Sequence:
#
# PCOD9257661 Si02
#       5
#     8   8   8   8   8
#     4   9  18  33  51  72  99 130 165 198 239 298
#     4  10  18  32  52  72  93 125 164 204 244 286
#     4   9  18  32  49  72  97 127 162 199 240 292
#     4  10  18  32  51  70  96 131 163 195 240 294
#     4   8  16  31  50  68  93 127 160 190 240 302
#
# _framework density 22.144316
#
# number of rings (size 3 to 8) (size 9 to 14) (size 15 to 20)
#    0.000    2.800    0.000    4.800    0.000    0.000 
#    0.000   14.000    0.000    0.000    0.000    0.000 
#    0.000    0.000    0.000    0.000    0.000    0.000 
#
# Total GULP energy -111441.395668 kJ/mol
# GULP energy per Si atom -5572.069783 kJ/mol
# Density = 2.209391 g / cm^3
# Si number density = 22.144316 Si / 1000 Ang^3
#
#
#
# Elastic Constant Matrix: (Units=GPa)
#
#
# Indices 1 2 3 4 5 6 
#
# 1 102.8790 80.3615 55.4765 0.0000 -48.3071 0.0000
# 2 80.3615 185.3434 37.3842 0.0000 -46.1059 0.0000
# 3 55.4765 37.3842 67.2898 0.0001 -39.3014 0.0001
# 4 0.0000 0.0000 0.0001 17.9319 0.0000 -13.9284
# 5 -48.3071 -46.1059 -39.3014 0.0000 44.4675 0.0000
# 6 0.0000 0.0000 0.0001 -13.9284 0.0000 49.6151
#
#
#
# Elastic Compliance Matrix: (Units=1/GPa)
#
#
# Indices 1 2 3 4 5 6 
#
# 1 0.026243 -0.006044 -0.010928 0.000000 0.012584 0.000000
# 2 -0.006044 0.008681 0.003270 0.000000 0.005326 0.000000
# 3 -0.010928 0.003270 0.035347 0.000000 0.022759 0.000000
# 4 0.000000 0.000000 0.000000 0.071317 0.000000 0.020021
# 5 0.012584 0.005326 0.022759 0.000000 0.061795 0.000000
# 6 0.000000 0.000000 0.000000 0.020021 0.000000 0.025776
#
#
# Mechanical properties :
#
#
# Convention : Reuss Voigt Hill
#
# Bulk Modulus (GPa) = 23.32800 77.99518 50.66159
# Shear Modulus (GPa) = 18.46032 34.55557 26.50795
#
# Velocity S-wave (km/s) = 2.89041 3.95457 3.46360
# Velocity P-wave (km/s) = 4.65797 7.49328 6.23883
#
# Compressibility (1/GPa) = 0.04286693
#
# Stress axis : x y z
#
# Youngs Moduli (GPa) = 38.10581 115.19350 28.29125
#
# Poissons Ratio (x) = 0.69621 0.30917
# Poissons Ratio (y) = 0.23031 -0.09252
# Poissons Ratio (z) = 0.41643 -0.37672
#
# Static dielectric constant tensor:
#      x y z
#    x 1.641580 0.000000 -0.040830 
#    y 0.000000 1.916810 0.000000 
#    z -0.040830 0.000000 1.822750 
# 
# From -- ./inp_files/85482.got.cif
#   From: 2010.05.17/outbox.cif.g08.bks.cpg/sg15_43_cif.got.tgz:85482.got - 2010.06.03 18:47:42.
