data_PCOD9257078
_publ_section_title
;
Structure prediction by ZEFSAII (Michael W. Deem and Ramdas Pophale) SiO2 
 PCOD9257078
Probable space group: C 2/C
;
_chemical_formula_sum "Si O2"
_cell_formula_units_Z 48
_cell_length_a 25.543647
_cell_length_b 11.746041
_cell_length_c 8.034858
_cell_angle_alpha 90.000000
_cell_angle_beta 83.514744
_cell_angle_gamma 90.000000
_cell_volume 2395.325963
_symmetry_space_group_name_H-M "C 2/C"
_symmetry_group_IT_number 15
_symmetry_cell_setting 'monoclinic'
loop_
_space_group_symop_operation_xyz
x,y,z
-x,y,1/2-z
-x,-y,-z
x,-y,1/2+z
1/2+x,1/2+y,z
1/2-x,1/2+y,1/2-z
1/2-x,1/2-y,-z
1/2+x,1/2-y,1/2+z
loop_
_atom_site_type_symbol
_atom_site_label
_atom_site_fract_x
_atom_site_fract_y
_atom_site_fract_z
Si Si1 0.218707 0.673347 0.216947
Si Si2 0.819464 0.103679 0.647971
Si Si3 0.459000 0.037687 0.377699
Si Si4 0.159087 0.856929 0.734765
Si Si5 0.106243 0.634394 0.816966
Si Si6 0.297360 0.044127 0.934060
O O1 0.188177 0.792271 0.222348
O O2 0.281848 0.681651 0.225820
O O3 0.198493 0.606201 0.390240
O O4 0.205700 0.592833 0.066336
O O5 0.843600 0.145054 0.465151
O O6 0.759652 0.074874 0.617998
O O7 0.844836 0.988595 0.708026
O O8 0.500000 0.110248 0.250000
O O9 0.410724 0.095147 0.492292
O O10 0.500000 0.000000 0.500000
O O11 0.436676 0.928155 0.286786
O O12 0.115240 0.769477 0.813533
O O13 0.158972 0.587628 0.709326
#
# Coordination Sequence:
#
# PCOD9257078 Si02
#       6
#     8   8   8   8   8   8
#     4  10  18  34  47  73 121 155 194 224 256 296
#     4  10  19  36  46  73 128 154 193 217 251 300
#     4   9  21  38  58  87 110 128 163 240 306 330
#     4  10  20  34  51  77 108 169 187 220 256 307
#     4  11  18  35  59  83 113 136 186 216 280 345
#     4  10  18  30  53  79 110 158 185 223 264 298
#
# _framework density 20.039027000000001
#
# number of rings (size 3 to 8) (size 9 to 14) (size 15 to 20)
#    0.000    2.000    3.333    2.000    0.000    0.000 
#    6.000    3.333    0.000    0.000    0.000   15.167 
#    0.000    0.000    0.000    0.000    0.000    0.000 
#
# Total GULP energy -133758.044484 kJ/mol
# GULP energy per Si atom -5573.251853 kJ/mol
# Density = 1.999342 g / cm^3
# Si number density = 20.039027 Si / 1000 Ang^3
#
#
#
# Elastic Constant Matrix: (Units=GPa)
#
#
# Indices 1 2 3 4 5 6 
#
# 1 46.7505 22.4018 26.8310 0.0000 -12.4649 0.0000
# 2 22.4018 147.5059 31.2415 0.0000 -0.1398 0.0000
# 3 26.8310 31.2415 78.8929 0.0000 -23.2424 0.0000
# 4 0.0000 0.0000 0.0000 30.8406 0.0000 -3.5286
# 5 -12.4649 -0.1398 -23.2424 0.0000 25.2598 0.0000
# 6 0.0000 0.0000 0.0000 -3.5286 0.0000 12.0381
#
#
#
# Elastic Compliance Matrix: (Units=1/GPa)
#
#
# Indices 1 2 3 4 5 6 
#
# 1 0.028579 -0.003067 -0.005975 0.000000 0.008588 0.000000
# 2 -0.003067 0.007982 -0.003499 0.000000 -0.004689 0.000000
# 3 -0.005975 -0.003499 0.020879 0.000000 0.016243 0.000000
# 4 0.000000 0.000000 0.000000 0.033550 0.000000 0.009834
# 5 0.008588 -0.004689 0.016243 0.000000 0.058747 0.000000
# 6 0.000000 0.000000 0.000000 0.009834 0.000000 0.085952
#
#
# Mechanical properties :
#
#
# Convention : Reuss Voigt Hill
#
# Bulk Modulus (GPa) = 30.90498 48.23310 39.56904
# Shear Modulus (GPa) = 18.41250 26.47271 22.44260
#
# Velocity S-wave (km/s) = 3.03451 3.63858 3.35019
# Velocity P-wave (km/s) = 5.26627 6.46329 5.89524
#
# Compressibility (1/GPa) = 0.03235725
#
# Stress axis : x y z
#
# Youngs Moduli (GPa) = 34.99132 125.28497 47.89610
#
# Poissons Ratio (x) = 0.38420 0.28618
# Poissons Ratio (y) = 0.10730 0.16760
# Poissons Ratio (z) = 0.20907 0.43840
#
# Static dielectric constant tensor:
#      x y z
#    x 1.702650 0.000000 -0.003270 
#    y 0.000000 1.788340 0.000000 
#    z -0.003270 0.000000 1.745390 
# 
# From -- ./inp_files/60526.got.cif
#   From: 2010.05.17/outbox.cif.g08.bks.cpg/sg15_31_cif.got.tgz:60526.got - 2010.06.03 18:47:42.
