data_PCOD9257081
_publ_section_title
;
Structure prediction by ZEFSAII (Michael W. Deem and Ramdas Pophale) SiO2 
 PCOD9257081
Probable space group: C 2/C
;
_chemical_formula_sum "Si O2"
_cell_formula_units_Z 60
_cell_length_a 27.599903
_cell_length_b 18.877389
_cell_length_c 15.628133
_cell_angle_alpha 90.000000
_cell_angle_beta 161.353279
_cell_angle_gamma 90.000000
_cell_volume 2603.411073
_symmetry_space_group_name_H-M "C 2/C"
_symmetry_group_IT_number 15
_symmetry_cell_setting 'monoclinic'
loop_
_space_group_symop_operation_xyz
x,y,z
-x,y,1/2-z
-x,-y,-z
x,-y,1/2+z
1/2+x,1/2+y,z
1/2-x,1/2+y,1/2-z
1/2-x,1/2-y,-z
1/2+x,1/2-y,1/2+z
loop_
_atom_site_type_symbol
_atom_site_label
_atom_site_fract_x
_atom_site_fract_y
_atom_site_fract_z
Si Si1 0.500000 0.445688 0.250000
Si Si2 0.130043 0.367709 0.144718
Si Si3 0.904199 0.269567 0.665653
Si Si4 0.819985 0.513631 0.348706
Si Si5 0.132799 0.813060 0.087603
Si Si6 0.950597 0.655871 0.508059
Si Si7 0.132492 0.950463 0.184264
Si Si8 0.826965 0.132812 0.588423
O O1 0.659638 0.482319 0.529105
O O2 0.525890 0.401467 0.208049
O O3 0.104856 0.449076 0.076196
O O4 0.288661 0.336664 0.371025
O O5 0.005164 0.327278 0.879643
O O6 0.093515 0.353730 0.183269
O O7 0.768071 0.300512 0.382582
O O8 0.876152 0.211968 0.692109
O O9 0.000000 0.233026 0.750000
O O10 0.915897 0.586403 0.508187
O O11 0.759721 0.489165 0.340395
O O12 0.053963 0.734846 0.957124
O O13 0.061561 0.885489 0.008166
O O14 0.804584 0.647064 0.200219
O O15 0.213255 0.916658 0.401586
O O16 0.000000 0.000000 0.000000
#
# Coordination Sequence:
#
# PCOD9257081 Si02
#       8
#     4   8   8   8   8   8   8   8
#     4  10  18  34  52  70 104 140 190 212 258 320
#     4  10  19  31  48  76 112 134 175 214 260 318
#     4   9  16  29  51  78 115 138 163 205 262 343
#     4  10  22  34  49  75 106 144 183 225 263 311
#     4   9  20  32  50  82 110 144 171 207 270 330
#     4  10  20  35  55  76 111 149 178 211 265 334
#     4  11  20  31  48  77 117 133 175 225 270 317
#     4  10  18  30  53  80 107 144 173 208 272 329
#
# _framework density 23.046686999999999
#
# number of rings (size 3 to 8) (size 9 to 14) (size 15 to 20)
#    0.000    2.133    2.000    2.000    1.867    4.267 
#    0.000    0.000    0.000    0.000    0.000    8.400 
#   68.000    0.133    0.000    0.000    0.000    0.000 
#
# Total GULP energy -167093.531179 kJ/mol
# GULP energy per Si atom -5569.784373 kJ/mol
# Density = 2.299423 g / cm^3
# Si number density = 23.046687 Si / 1000 Ang^3
#
#
#
# Elastic Constant Matrix: (Units=GPa)
#
#
# Indices 1 2 3 4 5 6 
#
# 1 127.2438 78.3416 5.8509 0.0000 40.5346 0.0000
# 2 78.3416 167.6140 14.5224 0.0000 26.1494 0.0000
# 3 5.8509 14.5224 12.4866 0.0000 6.6459 0.0000
# 4 0.0000 0.0000 0.0000 8.3367 0.0000 -28.5336
# 5 40.5346 26.1494 6.6459 0.0000 24.8589 0.0000
# 6 0.0000 0.0000 0.0000 -28.5336 0.0000 -93.1505
#
#
#
# Elastic Compliance Matrix: (Units=1/GPa)
#
#
# Indices 1 2 3 4 5 6 
#
# 1 0.021086 -0.006133 0.014129 0.000000 -0.031709 0.000000
# 2 -0.006133 0.009202 -0.009326 0.000000 0.002814 0.000000
# 3 0.014129 -0.009326 0.106508 0.000000 -0.041703 0.000000
# 4 0.000000 0.000000 0.000000 0.058558 0.000000 -0.017937
# 5 -0.031709 0.002814 -0.041703 0.000000 0.100121 0.000000
# 6 0.000000 0.000000 0.000000 -0.017937 0.000000 -0.005241
#
#
# Mechanical properties :
#
#
# Convention : Reuss Voigt Hill
#
# Bulk Modulus (GPa) = 7.45507 56.08602 31.77054
# Shear Modulus (GPa) = 14.81020 1.91765 8.36392
#
# Velocity S-wave (km/s) = 2.53774 0.91317 1.90709
# Velocity P-wave (km/s) = 3.43928 5.04980 4.32025
#
# Compressibility (1/GPa) = 0.13413696
#
# Stress axis : x y z
#
# Youngs Moduli (GPa) = 47.42391 108.67777 9.38897
#
# Poissons Ratio (x) = 0.66650 -0.13266
# Poissons Ratio (y) = 0.29084 0.08756
# Poissons Ratio (z) = -0.67006 1.01351
#
# Static dielectric constant tensor:
#      x y z
#    x 1.977650 0.000000 0.038830 
#    y 0.000000 1.954180 0.000000 
#    z 0.038830 0.000000 1.903790 
# 
# From -- ./inp_files/225793.got.cif
#   From: 2010.05.17/outbox.cif.g08.bks.cpg/sg15_113_cif.got.tgz:225793.got - 2010.06.03 18:47:42.
