data_PCOD9257508
_publ_section_title
;
Structure prediction by ZEFSAII (Michael W. Deem and Ramdas Pophale) SiO2 
 PCOD9257508
Probable space group: C 2/C
;
_chemical_formula_sum "Si O2"
_cell_formula_units_Z 48
_cell_length_a 10.584151
_cell_length_b 16.969071
_cell_length_c 13.001080
_cell_angle_alpha 90.000000
_cell_angle_beta 83.913906
_cell_angle_gamma 90.000000
_cell_volume 2321.874750
_symmetry_space_group_name_H-M "C 2/C"
_symmetry_group_IT_number 15
_symmetry_cell_setting 'monoclinic'
loop_
_space_group_symop_operation_xyz
x,y,z
-x,y,1/2-z
-x,-y,-z
x,-y,1/2+z
1/2+x,1/2+y,z
1/2-x,1/2+y,1/2-z
1/2-x,1/2-y,-z
1/2+x,1/2-y,1/2+z
loop_
_atom_site_type_symbol
_atom_site_label
_atom_site_fract_x
_atom_site_fract_y
_atom_site_fract_z
Si Si1 0.425668 0.876194 0.969996
Si Si2 0.841721 0.919632 0.585866
Si Si3 0.799017 0.105852 0.309927
Si Si4 0.079736 0.484044 0.341883
Si Si5 0.848846 0.741721 0.086712
Si Si6 0.602224 0.592571 0.963424
O O1 0.287068 0.873921 0.930836
O O2 0.519046 0.801091 0.956945
O O3 0.500034 0.946831 0.905619
O O4 0.405705 0.909526 0.085868
O O5 0.878874 0.893583 0.698060
O O6 0.950525 0.909950 0.490797
O O7 0.829770 0.014698 0.584272
O O8 0.713721 0.185081 0.323537
O O9 0.854945 0.100750 0.420329
O O10 0.710265 0.028710 0.306363
O O11 0.000000 0.461198 0.250000
O O12 0.750000 0.750000 0.000000
O O13 0.869298 0.832708 0.109904
#
# Coordination Sequence:
#
# PCOD9257508 Si02
#       6
#     8   8   8   8   8   8
#     4  10  20  34  58  88 119 158 200 255 309 360
#     4  11  21  36  66  86 121 165 208 247 302 375
#     4  10  19  37  62  87 117 159 205 250 309 367
#     4  10  18  31  56  87 115 149 206 257 295 359
#     4   9  21  38  59  82 122 154 196 257 314 355
#     4  10  22  40  58  88 125 164 200 252 310 371
#
# _framework density 20.67295
#
# number of rings (size 3 to 8) (size 9 to 14) (size 15 to 20)
#    0.000    2.000    3.333    0.500    2.333    0.667 
#    0.000    5.000   14.667    0.000    0.000    0.000 
#    0.000    0.000    0.000    0.000    0.000    0.000 
#
# Total GULP energy -133711.316064 kJ/mol
# GULP energy per Si atom -5571.304836 kJ/mol
# Density = 2.062590 g / cm^3
# Si number density = 20.672950 Si / 1000 Ang^3
#
#
#
# Elastic Constant Matrix: (Units=GPa)
#
#
# Indices 1 2 3 4 5 6 
#
# 1 84.0578 18.7617 5.3899 0.0000 8.3155 0.0000
# 2 18.7617 91.0380 28.1218 0.0000 5.7779 0.0000
# 3 5.3899 28.1218 74.6894 0.0000 4.0014 0.0000
# 4 0.0000 0.0000 0.0000 3.2598 0.0000 6.8283
# 5 8.3155 5.7779 4.0014 0.0000 26.8315 0.0000
# 6 0.0000 0.0000 0.0000 6.8283 0.0000 22.2430
#
#
#
# Elastic Compliance Matrix: (Units=1/GPa)
#
#
# Indices 1 2 3 4 5 6 
#
# 1 0.012778 -0.002474 0.000195 0.000000 -0.003456 0.000000
# 2 -0.002474 0.013016 -0.004650 0.000000 -0.001343 0.000000
# 3 0.000195 -0.004650 0.015197 0.000000 -0.001325 0.000000
# 4 0.000000 0.000000 0.000000 0.859401 0.000000 -0.263823
# 5 -0.003456 -0.001343 -0.001325 0.000000 0.038828 0.000000
# 6 0.000000 0.000000 0.000000 -0.263823 0.000000 0.125948
#
#
# Mechanical properties :
#
#
# Convention : Reuss Voigt Hill
#
# Bulk Modulus (GPa) = 36.85788 39.37022 38.11405
# Shear Modulus (GPa) = 4.59529 23.63430 14.11479
#
# Velocity S-wave (km/s) = 1.49254 3.38486 2.61581
# Velocity P-wave (km/s) = 4.56486 5.86192 5.25357
#
# Compressibility (1/GPa) = 0.02713124
#
# Stress axis : x y z
#
# Youngs Moduli (GPa) = 78.25790 76.82852 65.80400
#
# Poissons Ratio (x) = 0.19009 -0.01281
# Poissons Ratio (y) = 0.19362 0.30601
# Poissons Ratio (z) = -0.01523 0.35727
#
# Static dielectric constant tensor:
#      x y z
#    x 1.825040 0.000000 0.004110 
#    y 0.000000 1.746830 0.000000 
#    z 0.004110 0.000000 1.727860 
# 
# From -- ./inp_files/143550.got.cif
#   From: 2010.05.17/outbox.cif.g08.bks.cpg/sg15_72_cif.got.tgz:143550.got - 2010.06.03 18:47:42.
