data_PCOD9257917
_publ_section_title
;
Structure prediction by ZEFSAII (Michael W. Deem and Ramdas Pophale) SiO2 
 PCOD9257917
Probable space group: C 2/C
;
_chemical_formula_sum "Si O2"
_cell_formula_units_Z 40
_cell_length_a 7.714875
_cell_length_b 27.340723
_cell_length_c 9.544690
_cell_angle_alpha 90.000000
_cell_angle_beta 46.526129
_cell_angle_gamma 90.000000
_cell_volume 1461.001911
_symmetry_space_group_name_H-M "C 2/C"
_symmetry_group_IT_number 15
_symmetry_cell_setting 'monoclinic'
loop_
_space_group_symop_operation_xyz
x,y,z
-x,y,1/2-z
-x,-y,-z
x,-y,1/2+z
1/2+x,1/2+y,z
1/2-x,1/2+y,1/2-z
1/2-x,1/2-y,-z
1/2+x,1/2-y,1/2+z
loop_
_atom_site_type_symbol
_atom_site_label
_atom_site_fract_x
_atom_site_fract_y
_atom_site_fract_z
Si Si1 0.405151 0.289978 0.089737
Si Si2 0.475838 0.922676 0.486744
Si Si3 0.362789 0.547826 0.529966
Si Si4 0.112760 0.310769 0.991486
Si Si5 0.341872 0.617048 0.978466
O O1 0.337127 0.296274 0.964368
O O2 0.625308 0.324684 0.010228
O O3 0.156403 0.308339 0.294432
O O4 0.409997 0.231840 0.111934
O O5 0.262125 0.957299 0.552032
O O6 0.669692 0.936904 0.257995
O O7 0.367474 0.868322 0.535608
O O8 0.614949 0.914811 0.554386
O O9 0.500000 0.500000 0.500000
O O10 0.548413 0.591909 0.446252
O O11 0.500000 0.612151 0.750000
#
# Coordination Sequence:
#
# PCOD9257917 Si02
#       5
#     8   8   8   8   8
#     4  10  18  32  55  89 118 163 208 237 299 356
#     4  10  19  36  57  86 118 152 201 244 318 363
#     4  10  19  34  59  83 110 153 202 255 306 362
#     4  10  18  33  59  86 121 166 199 245 295 373
#     4  10  18  33  57  84 116 157 197 248 297 366
#
# _framework density 27.378471999999999
#
# number of rings (size 3 to 8) (size 9 to 14) (size 15 to 20)
#    0.000    2.000    6.000    1.200    0.000    1.600 
#    0.000    0.000    0.000   12.000    0.000    0.000 
#    0.000    0.000    0.000    0.000    0.000    0.000 
#
# Total GULP energy -111492.553828 kJ/mol
# GULP energy per Si atom -5574.627691 kJ/mol
# Density = 2.731616 g / cm^3
# Si number density = 27.378472 Si / 1000 Ang^3
#
#
#
# Elastic Constant Matrix: (Units=GPa)
#
#
# Indices 1 2 3 4 5 6 
#
# 1 173.6318 44.9651 49.7279 0.0000 -18.1684 0.0000
# 2 44.9651 136.3579 33.8443 0.0000 -12.0284 0.0000
# 3 49.7279 33.8443 96.7642 0.0000 6.9289 0.0000
# 4 0.0000 0.0000 0.0000 9.1966 0.0000 11.2394
# 5 -18.1684 -12.0284 6.9289 0.0000 24.8112 0.0000
# 6 0.0000 0.0000 0.0000 11.2394 0.0000 42.3351
#
#
#
# Elastic Compliance Matrix: (Units=1/GPa)
#
#
# Indices 1 2 3 4 5 6 
#
# 1 0.007886 -0.000997 -0.004166 0.000000 0.006455 0.000000
# 2 -0.000997 0.008752 -0.002857 0.000000 0.004311 0.000000
# 3 -0.004166 -0.002857 0.014074 0.000000 -0.008366 0.000000
# 4 0.000000 0.000000 0.000000 0.160961 0.000000 -0.042733
# 5 0.006455 0.004311 -0.008366 0.000000 0.049457 0.000000
# 6 0.000000 0.000000 0.000000 -0.042733 0.000000 0.034966
#
#
# Mechanical properties :
#
#
# Convention : Reuss Voigt Hill
#
# Bulk Modulus (GPa) = 68.16309 73.75873 70.96091
# Shear Modulus (GPa) = 16.83341 33.81635 25.32488
#
# Velocity S-wave (km/s) = 2.48229 3.51827 3.04467
# Velocity P-wave (km/s) = 5.75902 6.59570 6.19151
#
# Compressibility (1/GPa) = 0.01467070
#
# Stress axis : x y z
#
# Youngs Moduli (GPa) = 126.80463 114.26117 71.05339
#
# Poissons Ratio (x) = 0.11392 0.29603
# Poissons Ratio (y) = 0.12643 0.20302
# Poissons Ratio (z) = 0.52830 0.32648
#
# Static dielectric constant tensor:
#      x y z
#    x 2.287700 0.000000 -0.118180 
#    y 0.000000 2.104150 0.000000 
#    z -0.118180 0.000000 2.347940 
# 
# From -- ./inp_files/136768.got.cif
#   From: 2010.05.17/outbox.cif.g08.bks.cpg/sg15_69_cif.got.tgz:136768.got - 2010.06.03 18:47:42.
