data_PCOD9257868
_publ_section_title
;
Structure prediction by ZEFSAII (Michael W. Deem and Ramdas Pophale) SiO2 
 PCOD9257868
Probable space group: C 2/C
;
_chemical_formula_sum "Si O2"
_cell_formula_units_Z 64
_cell_length_a 15.391265
_cell_length_b 19.955608
_cell_length_c 21.831304
_cell_angle_alpha 90.000000
_cell_angle_beta 153.992377
_cell_angle_gamma 90.000000
_cell_volume 2940.216890
_symmetry_space_group_name_H-M "C 2/C"
_symmetry_group_IT_number 15
_symmetry_cell_setting 'monoclinic'
loop_
_space_group_symop_operation_xyz
x,y,z
-x,y,1/2-z
-x,-y,-z
x,-y,1/2+z
1/2+x,1/2+y,z
1/2-x,1/2+y,1/2-z
1/2-x,1/2-y,-z
1/2+x,1/2-y,1/2+z
loop_
_atom_site_type_symbol
_atom_site_label
_atom_site_fract_x
_atom_site_fract_y
_atom_site_fract_z
Si Si1 0.972369 0.678333 0.483624
Si Si2 0.427991 0.330350 0.312137
Si Si3 0.468159 0.325466 0.485081
Si Si4 0.932650 0.317352 0.812015
Si Si5 0.395186 0.470726 0.104356
Si Si6 0.198199 0.542470 0.136754
Si Si7 0.526107 0.039069 0.157056
Si Si8 0.177524 0.966818 0.073977
O O1 0.892855 0.750861 0.452981
O O2 0.982390 0.681134 0.415861
O O3 0.835217 0.615688 0.412406
O O4 0.193580 0.665511 0.648894
O O5 0.454046 0.334636 0.402376
O O6 0.497737 0.256974 0.332659
O O7 0.540722 0.393000 0.354662
O O8 0.698253 0.322416 0.650303
O O9 0.359588 0.387349 0.448379
O O10 0.011912 0.387731 0.836666
O O11 0.592530 0.510449 0.246342
O O12 0.336908 0.497550 0.000178
O O13 0.185978 0.480958 0.004883
O O14 0.184446 0.548594 0.202688
O O15 0.000000 0.500000 0.000000
O O16 0.621620 0.986896 0.263865
O O17 0.000000 0.000000 0.000000
#
# Coordination Sequence:
#
# PCOD9257868 Si02
#       8
#     8   8   8   8   8   8   8   8
#     4   9  19  33  56  87 113 152 199 236 294 359
#     4  10  18  32  54  85 118 159 192 229 291 363
#     4  10  18  33  60  83 113 156 198 241 295 349
#     4   9  18  34  52  81 124 155 189 234 287 360
#     4  12  23  36  60  89 117 156 198 245 299 348
#     4  11  21  39  59  82 118 155 193 239 289 358
#     4  11  23  37  57  89 119 152 196 246 293 349
#     4  12  19  36  61  84 116 153 199 248 291 344
#
# _framework density 21.767102000000001
#
# number of rings (size 3 to 8) (size 9 to 14) (size 15 to 20)
#    0.000    1.500    5.000    1.125    0.000    1.000 
#    0.000    0.000    0.000    5.250    3.250    0.000 
#    0.000    0.000    0.000    0.000    0.000    0.000 
#
# Total GULP energy -178702.093887 kJ/mol
# GULP energy per Si atom -5584.440434 kJ/mol
# Density = 2.171756 g / cm^3
# Si number density = 21.767102 Si / 1000 Ang^3
#
#
#
# Elastic Constant Matrix: (Units=GPa)
#
#
# Indices 1 2 3 4 5 6 
#
# 1 52.8325 7.2914 26.2253 0.0023 -1.8645 0.0001
# 2 7.2914 181.3697 67.0627 0.0077 12.7826 -0.0016
# 3 26.2253 67.0627 157.9402 0.0488 -5.6275 -0.0212
# 4 0.0023 0.0077 0.0488 27.5189 -0.0026 -4.2051
# 5 -1.8645 12.7826 -5.6275 -0.0026 40.1603 -0.0004
# 6 0.0001 -0.0016 -0.0212 -4.2051 -0.0004 -0.0565
#
#
#
# Elastic Compliance Matrix: (Units=1/GPa)
#
#
# Indices 1 2 3 4 5 6 
#
# 1 0.020672 0.000490 -0.003630 0.000017 0.000295 0.000084
# 2 0.000490 0.006808 -0.003064 0.000012 -0.002574 0.000060
# 3 -0.003630 -0.003064 0.008305 -0.000039 0.001970 -0.000167
# 4 0.000017 0.000012 -0.000039 0.002937 -0.000011 -0.218590
# 5 0.000295 -0.002574 0.001970 -0.000011 0.026009 -0.000067
# 6 0.000084 0.000060 -0.000167 -0.218590 -0.000067 -1.430503
#
#
# Mechanical properties :
#
#
# Convention : Reuss Voigt Hill
#
# Bulk Modulus (GPa) = 42.77421 65.92236 54.34829
# Shear Modulus (GPa) = -3.71590 32.96207 14.62309
#
# Velocity S-wave (km/s) = -1.30798 3.89563 2.59472
# Velocity P-wave (km/s) = 4.17282 7.11236 5.83087
#
# Compressibility (1/GPa) = 0.02337857
#
# Stress axis : x y z
#
# Youngs Moduli (GPa) = 48.37347 146.88227 120.40232
#
# Poissons Ratio (x) = -0.07204 0.43710
# Poissons Ratio (y) = -0.02373 0.36891
# Poissons Ratio (z) = 0.17561 0.45004
#
# Static dielectric constant tensor:
#      x y z
#    x 2.062520 0.000010 0.032260 
#    y 0.000010 1.858700 -0.000010 
#    z 0.032260 -0.000010 1.810930 
# 
# From -- ./inp_files/299528.got.cif
#   From: 2010.05.17/outbox.cif.g08.bks.cpg/sg15_150_cif.got.tgz:299528.got - 2010.06.03 18:47:42.
