data_PCOD9257424
_publ_section_title
;
Structure prediction by ZEFSAII (Michael W. Deem and Ramdas Pophale) SiO2 
 PCOD9257424
Probable space group: C 2/C
;
_chemical_formula_sum "Si O2"
_cell_formula_units_Z 48
_cell_length_a 17.413815
_cell_length_b 6.671868
_cell_length_c 20.438896
_cell_angle_alpha 90.000000
_cell_angle_beta 135.604328
_cell_angle_gamma 90.000000
_cell_volume 1661.324318
_symmetry_space_group_name_H-M "C 2/C"
_symmetry_group_IT_number 15
_symmetry_cell_setting 'monoclinic'
loop_
_space_group_symop_operation_xyz
x,y,z
-x,y,1/2-z
-x,-y,-z
x,-y,1/2+z
1/2+x,1/2+y,z
1/2-x,1/2+y,1/2-z
1/2-x,1/2-y,-z
1/2+x,1/2-y,1/2+z
loop_
_atom_site_type_symbol
_atom_site_label
_atom_site_fract_x
_atom_site_fract_y
_atom_site_fract_z
Si Si1 0.263249 0.581388 0.606819
Si Si2 0.442442 0.486713 0.803996
Si Si3 0.114848 0.464981 0.140233
Si Si4 0.881333 0.077724 0.903273
Si Si5 0.902963 0.582932 0.230944
Si Si6 0.616524 0.229604 0.970693
O O1 0.359111 0.441679 0.695383
O O2 0.184425 0.627318 0.622415
O O3 0.320631 0.795695 0.633519
O O4 0.201283 0.453060 0.514463
O O5 0.372352 0.458907 0.828816
O O6 0.462363 0.723215 0.802619
O O7 0.554669 0.368373 0.881060
O O8 0.147893 0.462730 0.238265
O O9 0.118992 0.697472 0.124319
O O10 0.990292 0.387294 0.064969
O O11 0.829446 0.121809 0.942854
O O12 0.000000 0.000000 0.000000
O O13 0.000000 0.478463 0.250000
#
# Coordination Sequence:
#
# PCOD9257424 Si02
#       6
#     8   8   8   8   8   8
#     4   9  19  32  56  82 113 145 194 227 289 332
#     4   8  18  31  55  76 116 149 184 228 287 342
#     4  10  19  31  54  82 111 143 191 244 277 327
#     4   8  14  28  45  75 108 141 175 219 286 327
#     4   9  20  39  57  76 116 162 187 224 292 352
#     4  10  18  31  53  85 113 139 190 251 281 325
#
# _framework density 28.892613000000001
#
# number of rings (size 3 to 8) (size 9 to 14) (size 15 to 20)
#    1.000    2.000    0.000    2.000    2.333    0.000 
#    0.000    2.500    3.667    0.000    0.000    0.000 
#    0.000    0.000    0.000    0.000    0.000    0.000 
#
# Total GULP energy -133751.568355 kJ/mol
# GULP energy per Si atom -5572.982015 kJ/mol
# Density = 2.882685 g / cm^3
# Si number density = 28.892613 Si / 1000 Ang^3
#
#
#
# Elastic Constant Matrix: (Units=GPa)
#
#
# Indices 1 2 3 4 5 6 
#
# 1 140.8823 28.4335 26.2142 0.0000 -4.9167 0.0000
# 2 28.4335 84.0199 39.5294 0.0000 0.3415 0.0000
# 3 26.2142 39.5294 122.6979 0.0000 -8.8708 0.0000
# 4 0.0000 0.0000 0.0000 68.1026 0.0000 -5.9742
# 5 -4.9167 0.3415 -8.8708 0.0000 30.5613 0.0000
# 6 0.0000 0.0000 0.0000 -5.9742 0.0000 11.6426
#
#
#
# Elastic Compliance Matrix: (Units=1/GPa)
#
#
# Indices 1 2 3 4 5 6 
#
# 1 0.007742 -0.002217 -0.000866 0.000000 0.001019 0.000000
# 2 -0.002217 0.014731 -0.004402 0.000000 -0.001799 0.000000
# 3 -0.000866 -0.004402 0.009956 0.000000 0.002800 0.000000
# 4 0.000000 0.000000 0.000000 0.015376 0.000000 0.007890
# 5 0.001019 -0.001799 0.002800 0.000000 0.033718 0.000000
# 6 0.000000 0.000000 0.000000 0.007890 0.000000 0.089940
#
#
# Mechanical properties :
#
#
# Convention : Reuss Voigt Hill
#
# Bulk Modulus (GPa) = 57.27933 59.55047 58.41490
# Shear Modulus (GPa) = 26.00755 38.95616 32.48185
#
# Velocity S-wave (km/s) = 3.00350 3.67592 3.35659
# Velocity P-wave (km/s) = 5.64765 6.21870 5.94004
#
# Compressibility (1/GPa) = 0.01745831
#
# Stress axis : x y z
#
# Youngs Moduli (GPa) = 129.16133 67.88619 100.44349
#
# Poissons Ratio (x) = 0.15048 0.08702
# Poissons Ratio (y) = 0.28630 0.44217
# Poissons Ratio (z) = 0.11190 0.29885
#
# Static dielectric constant tensor:
#      x y z
#    x 2.414290 0.000000 0.034440 
#    y 0.000000 2.292780 0.000000 
#    z 0.034440 0.000000 2.337560 
# 
# From -- ./inp_files/300276.got.cif
#   From: 2010.05.17/outbox.cif.g08.bks.cpg/sg15_151_cif.got.tgz:300276.got - 2010.06.03 18:47:42.
