data_PCOD9257739
_publ_section_title
;
Structure prediction by ZEFSAII (Michael W. Deem and Ramdas Pophale) SiO2 
 PCOD9257739
Probable space group: C 2/C
;
_chemical_formula_sum "Si O2"
_cell_formula_units_Z 52
_cell_length_a 8.960422
_cell_length_b 16.578701
_cell_length_c 23.411460
_cell_angle_alpha 90.000000
_cell_angle_beta 42.372080
_cell_angle_gamma 90.000000
_cell_volume 2343.852515
_symmetry_space_group_name_H-M "C 2/C"
_symmetry_group_IT_number 15
_symmetry_cell_setting 'monoclinic'
loop_
_space_group_symop_operation_xyz
x,y,z
-x,y,1/2-z
-x,-y,-z
x,-y,1/2+z
1/2+x,1/2+y,z
1/2-x,1/2+y,1/2-z
1/2-x,1/2-y,-z
1/2+x,1/2-y,1/2+z
loop_
_atom_site_type_symbol
_atom_site_label
_atom_site_fract_x
_atom_site_fract_y
_atom_site_fract_z
Si Si1 0.863663 0.744451 0.598311
Si Si2 0.229634 0.569083 0.875004
Si Si3 0.270513 0.578130 0.132122
Si Si4 0.786498 0.058393 0.447963
Si Si5 0.778434 0.230347 0.403673
Si Si6 0.000000 0.665290 0.750000
Si Si7 0.866307 0.486233 0.215958
O O1 0.035740 0.740776 0.602994
O O2 0.032282 0.746774 0.496869
O O3 0.720191 0.663635 0.639283
O O4 0.727692 0.827001 0.638960
O O5 0.325198 0.523176 0.902269
O O6 0.264164 0.524552 0.805324
O O7 0.962382 0.563704 0.959060
O O8 0.534553 0.568908 0.052713
O O9 0.227473 0.545601 0.208786
O O10 0.111890 0.524479 0.137942
O O11 0.807083 0.133678 0.398149
O O12 0.830389 0.276971 0.331161
O O13 0.890656 0.602487 0.736494
#
# Coordination Sequence:
#
# PCOD9257739 Si02
#       7
#     8   8   8   8   8   4   8
#     4   9  17  34  59  78 108 151 189 221 273 349
#     4  10  19  37  59  83 115 145 184 233 285 329
#     4   9  20  37  54  82 110 146 192 223 279 335
#     4   9  20  35  60  85 108 147 191 229 274 345
#     4   9  17  31  56  85 106 146 192 223 273 332
#     4  10  18  32  52  82 114 138 184 242 260 328
#     4  10  22  37  53  81 119 145 184 240 287 324
#
# _framework density 22.185694999999999
#
# number of rings (size 3 to 8) (size 9 to 14) (size 15 to 20)
#    0.000    2.769    1.538    0.923    0.000    3.692 
#    2.769    3.077    3.385    2.769    0.000    0.000 
#    0.000    0.000    0.000    0.000    0.000    0.000 
#
# Total GULP energy -145126.142589 kJ/mol
# GULP energy per Si atom -5581.774715 kJ/mol
# Density = 2.213520 g / cm^3
# Si number density = 22.185695 Si / 1000 Ang^3
#
#
#
# Elastic Constant Matrix: (Units=GPa)
#
#
# Indices 1 2 3 4 5 6 
#
# 1 59.6953 29.4896 2.8806 0.0059 -8.3775 -0.0015
# 2 29.4896 158.6224 42.0372 0.0017 6.6373 -0.0018
# 3 2.8806 42.0372 52.9728 0.0062 0.8205 0.0012
# 4 0.0059 0.0017 0.0062 31.8672 -0.0080 -1.3174
# 5 -8.3775 6.6373 0.8205 -0.0080 20.8525 0.0012
# 6 -0.0015 -0.0018 0.0012 -1.3174 0.0012 6.3271
#
#
#
# Elastic Compliance Matrix: (Units=1/GPa)
#
#
# Indices 1 2 3 4 5 6 
#
# 1 0.020395 -0.004890 0.002622 -0.000002 0.009647 0.000001
# 2 -0.004890 0.009267 -0.007016 0.000001 -0.004638 0.000004
# 3 0.002622 -0.007016 0.024267 -0.000005 0.002332 -0.000007
# 4 -0.000002 0.000001 -0.000005 0.031653 0.000011 0.006590
# 5 0.009647 -0.004638 0.002332 0.000011 0.053216 -0.000007
# 6 0.000001 0.000004 -0.000007 0.006590 -0.000007 0.159423
#
#
# Mechanical properties :
#
#
# Convention : Reuss Voigt Hill
#
# Bulk Modulus (GPa) = 28.28046 46.67839 37.47943
# Shear Modulus (GPa) = 15.21724 24.93489 20.07607
#
# Velocity S-wave (km/s) = 2.62182 3.35612 3.01144
# Velocity P-wave (km/s) = 4.68402 6.00863 5.38719
#
# Compressibility (1/GPa) = 0.03536010
#
# Stress axis : x y z
#
# Youngs Moduli (GPa) = 49.03217 107.91149 41.20891
#
# Poissons Ratio (x) = 0.52771 -0.10806
# Poissons Ratio (y) = 0.23978 0.28912
# Poissons Ratio (z) = -0.12857 0.75711
#
# Static dielectric constant tensor:
#      x y z
#    x 1.811930 0.000000 -0.054480 
#    y 0.000000 1.812860 0.000000 
#    z -0.054480 0.000000 1.913090 
# 
# From -- ./inp_files/292659.got.cif
#   From: 2010.05.17/outbox.cif.g08.bks.cpg/sg15_147_cif.got.tgz:292659.got - 2010.06.03 18:47:42.
