data_PCOD9257590
_publ_section_title
;
Structure prediction by ZEFSAII (Michael W. Deem and Ramdas Pophale) SiO2 
 PCOD9257590
Probable space group: C 2/C
;
_chemical_formula_sum "Si O2"
_cell_formula_units_Z 40
_cell_length_a 22.233092
_cell_length_b 12.083812
_cell_length_c 19.191591
_cell_angle_alpha 90.000000
_cell_angle_beta 158.385864
_cell_angle_gamma 90.000000
_cell_volume 1899.241184
_symmetry_space_group_name_H-M "C 2/C"
_symmetry_group_IT_number 15
_symmetry_cell_setting 'monoclinic'
loop_
_space_group_symop_operation_xyz
x,y,z
-x,y,1/2-z
-x,-y,-z
x,-y,1/2+z
1/2+x,1/2+y,z
1/2-x,1/2+y,1/2-z
1/2-x,1/2-y,-z
1/2+x,1/2-y,1/2+z
loop_
_atom_site_type_symbol
_atom_site_label
_atom_site_fract_x
_atom_site_fract_y
_atom_site_fract_z
Si Si1 0.343620 0.141136 0.381702
Si Si2 0.894386 0.913562 0.984362
Si Si3 0.370557 0.820492 0.408145
Si Si4 0.246161 0.005060 0.886117
Si Si5 0.197220 0.872063 0.467356
O O1 0.513418 0.129426 0.525569
O O2 0.280372 0.263888 0.295092
O O3 0.212905 0.063651 0.199217
O O4 0.325289 0.106551 0.441578
O O5 0.049343 0.990593 0.163179
O O6 0.774923 0.903181 0.922250
O O7 0.955091 0.787144 0.035888
O O8 0.321973 0.900755 0.417811
O O9 0.271623 0.041133 0.992995
O O10 0.250000 0.750000 0.500000
O O11 0.000000 0.875365 0.250000
#
# Coordination Sequence:
#
# PCOD9257590 Si02
#       5
#     8   8   8   8   8
#     4  10  20  31  51  73 104 133 172 206 250 299
#     4   9  18  32  48  70 103 134 157 204 254 295
#     4  10  18  32  48  72 106 130 165 209 254 284
#     4  11  19  32  49  77 102 135 172 201 252 308
#     4  10  19  29  48  71 103 131 156 198 255 302
#
# _framework density 21.061043000000002
#
# number of rings (size 3 to 8) (size 9 to 14) (size 15 to 20)
#    1.200    0.800    4.000    1.200    2.800    0.000 
#    0.000    0.000    0.000    0.000    0.000   22.400 
#    0.000    0.000    0.000    0.000    0.000    0.000 
#
# Total GULP energy -111474.474399 kJ/mol
# GULP energy per Si atom -5573.723720 kJ/mol
# Density = 2.101311 g / cm^3
# Si number density = 21.061043 Si / 1000 Ang^3
#
#
#
# Elastic Constant Matrix: (Units=GPa)
#
#
# Indices 1 2 3 4 5 6 
#
# 1 156.2165 21.3009 7.9288 -0.0003 20.3787 -0.0001
# 2 21.3009 25.6625 -2.9927 -0.0006 9.0452 -0.0004
# 3 7.9288 -2.9927 20.1709 -0.0002 15.3939 -0.0002
# 4 -0.0003 -0.0006 -0.0002 14.9614 -0.0002 5.5351
# 5 20.3787 9.0452 15.3939 -0.0002 29.8693 -0.0001
# 6 -0.0001 -0.0004 -0.0002 5.5351 -0.0001 44.1107
#
#
#
# Elastic Compliance Matrix: (Units=1/GPa)
#
#
# Indices 1 2 3 4 5 6 
#
# 1 0.007593 -0.005661 -0.001944 0.000000 -0.002465 0.000000
# 2 -0.005661 0.059360 0.035939 0.000002 -0.032636 0.000000
# 3 -0.001944 0.035939 0.103789 0.000002 -0.063048 0.000000
# 4 0.000000 0.000002 0.000002 0.070092 -0.000001 -0.008795
# 5 -0.002465 -0.032636 -0.063048 -0.000001 0.077537 0.000000
# 6 0.000000 0.000000 0.000000 -0.008795 0.000000 0.023774
#
#
# Mechanical properties :
#
#
# Convention : Reuss Voigt Hill
#
# Bulk Modulus (GPa) = 4.39730 28.28041 16.33885
# Shear Modulus (GPa) = 13.83966 29.50915 21.67441
#
# Velocity S-wave (km/s) = 2.56622 3.74722 3.21148
# Velocity P-wave (km/s) = 3.29743 5.67267 4.63963
#
# Compressibility (1/GPa) = 0.22741250
#
# Stress axis : x y z
#
# Youngs Moduli (GPa) = 131.69288 16.84626 9.63493
#
# Poissons Ratio (x) = 0.09536 0.01873
# Poissons Ratio (y) = 0.74548 -0.34627
# Poissons Ratio (z) = 0.25596 -0.60544
#
# Static dielectric constant tensor:
#      x y z
#    x 1.766800 0.000000 -0.023300 
#    y 0.000000 1.814450 0.000000 
#    z -0.023300 0.000000 1.808830 
# 
# From -- ./inp_files/65276.got.cif
#   From: 2010.05.17/outbox.cif.g08.bks.cpg/sg15_33_cif.got.tgz:65276.got - 2010.06.03 18:47:42.
