data_PCOD9257937
_publ_section_title
;
Structure prediction by ZEFSAII (Michael W. Deem and Ramdas Pophale) SiO2 
 PCOD9257937
Probable space group: C 2/C
;
_chemical_formula_sum "Si O2"
_cell_formula_units_Z 36
_cell_length_a 9.669789
_cell_length_b 22.463887
_cell_length_c 7.917650
_cell_angle_alpha 90.000000
_cell_angle_beta 128.745779
_cell_angle_gamma 90.000000
_cell_volume 1341.387205
_symmetry_space_group_name_H-M "C 2/C"
_symmetry_group_IT_number 15
_symmetry_cell_setting 'monoclinic'
loop_
_space_group_symop_operation_xyz
x,y,z
-x,y,1/2-z
-x,-y,-z
x,-y,1/2+z
1/2+x,1/2+y,z
1/2-x,1/2+y,1/2-z
1/2-x,1/2-y,-z
1/2+x,1/2-y,1/2+z
loop_
_atom_site_type_symbol
_atom_site_label
_atom_site_fract_x
_atom_site_fract_y
_atom_site_fract_z
Si Si1 0.217592 0.372894 0.599388
Si Si2 0.705513 0.923772 0.919507
Si Si3 0.513308 0.761220 0.060104
Si Si4 0.500000 0.039319 0.750000
Si Si5 0.841885 0.151766 0.819962
O O1 0.306191 0.402972 0.827857
O O2 0.150682 0.306962 0.591380
O O3 0.046029 0.415968 0.435276
O O4 0.311726 0.370316 0.490038
O O5 0.500000 0.898721 0.750000
O O6 0.665384 0.994119 0.875658
O O7 0.811753 0.900209 0.161708
O O8 0.500000 0.746970 0.250000
O O9 0.680201 0.802602 0.156808
O O10 0.499126 0.700532 0.945932
#
# Coordination Sequence:
#
# PCOD9257937 Si02
#       5
#     8   8   8   4   8
#     4  11  18  33  52  78 115 142 180 232 280 325
#     4  10  21  32  51  86 114 144 181 231 292 324
#     4  10  19  36  57  81 113 150 187 228 280 333
#     4  10  18  32  56  80 120 140 184 240 286 320
#     4  11  22  37  55  83 119 149 186 227 281 339
#
# _framework density 26.837890999999999
#
# number of rings (size 3 to 8) (size 9 to 14) (size 15 to 20)
#    0.667    0.889    5.556    3.333    3.111    0.889 
#    0.000    0.000    0.000    0.000    0.000    6.222 
#    0.000    0.000    0.000    0.000    0.000    0.000 
#
# Total GULP energy -100646.614930 kJ/mol
# GULP energy per Si atom -5591.478607 kJ/mol
# Density = 2.677681 g / cm^3
# Si number density = 26.837891 Si / 1000 Ang^3
#
#
#
# Elastic Constant Matrix: (Units=GPa)
#
#
# Indices 1 2 3 4 5 6 
#
# 1 76.3268 26.0532 29.6016 0.0000 -2.7757 0.0000
# 2 26.0532 188.5415 59.8590 0.0000 -13.3251 0.0000
# 3 29.6016 59.8590 104.1388 0.0000 -38.0178 0.0000
# 4 0.0000 0.0000 0.0000 59.1828 0.0000 23.7993
# 5 -2.7757 -13.3251 -38.0178 0.0000 46.4311 0.0000
# 6 0.0000 0.0000 0.0000 23.7993 0.0000 13.7900
#
#
#
# Elastic Compliance Matrix: (Units=1/GPa)
#
#
# Indices 1 2 3 4 5 6 
#
# 1 0.015241 -0.000696 -0.005238 0.000000 -0.003578 0.000000
# 2 -0.000696 0.006615 -0.004175 0.000000 -0.001561 0.000000
# 3 -0.005238 -0.004175 0.018456 0.000000 0.013601 0.000000
# 4 0.000000 0.000000 0.000000 0.055220 0.000000 -0.095300
# 5 -0.003578 -0.001561 0.013601 0.000000 0.032012 0.000000
# 6 0.000000 0.000000 0.000000 -0.095300 0.000000 0.236988
#
#
# Mechanical properties :
#
#
# Convention : Reuss Voigt Hill
#
# Bulk Modulus (GPa) = 49.76448 66.67055 58.21751
# Shear Modulus (GPa) = 12.77312 40.78035 26.77674
#
# Velocity S-wave (km/s) = 2.18396 3.90231 3.16210
# Velocity P-wave (km/s) = 4.99424 6.72309 5.92209
#
# Compressibility (1/GPa) = 0.02009465
#
# Stress axis : x y z
#
# Youngs Moduli (GPa) = 65.61464 151.17127 54.18185
#
# Poissons Ratio (x) = 0.10518 0.28382
# Poissons Ratio (y) = 0.04565 0.22618
# Poissons Ratio (z) = 0.34371 0.63107
#
# Static dielectric constant tensor:
#      x y z
#    x 2.205270 0.000000 0.083970 
#    y 0.000000 2.016020 0.000000 
#    z 0.083970 0.000000 2.253680 
# 
# From -- ./inp_files/41888.got.cif
#   From: 2010.05.17/outbox.cif.g08.bks.cpg/sg15_21_cif.got.tgz:41888.got - 2010.06.03 18:47:42.
