data_PCOD9257753
_publ_section_title
;
Structure prediction by ZEFSAII (Michael W. Deem and Ramdas Pophale) SiO2 
 PCOD9257753
Probable space group: C 2/C
;
_chemical_formula_sum "Si O2"
_cell_formula_units_Z 60
_cell_length_a 25.754751
_cell_length_b 9.287078
_cell_length_c 20.179853
_cell_angle_alpha 90.000000
_cell_angle_beta 143.939699
_cell_angle_gamma 90.000000
_cell_volume 2841.198289
_symmetry_space_group_name_H-M "C 2/C"
_symmetry_group_IT_number 15
_symmetry_cell_setting 'monoclinic'
loop_
_space_group_symop_operation_xyz
x,y,z
-x,y,1/2-z
-x,-y,-z
x,-y,1/2+z
1/2+x,1/2+y,z
1/2-x,1/2+y,1/2-z
1/2-x,1/2-y,-z
1/2+x,1/2-y,1/2+z
loop_
_atom_site_type_symbol
_atom_site_label
_atom_site_fract_x
_atom_site_fract_y
_atom_site_fract_z
Si Si1 0.656541 0.744611 0.204603
Si Si2 0.289510 0.176561 0.141416
Si Si3 0.760059 0.165681 0.078176
Si Si4 0.000000 0.267702 0.750000
Si Si5 0.478550 0.603845 0.038951
Si Si6 0.783758 0.026784 0.818525
Si Si7 0.404773 0.575972 0.747688
Si Si8 0.653661 0.911595 0.946357
O O1 0.706854 0.759944 0.326709
O O2 0.550595 0.733452 0.105493
O O3 0.686169 0.590258 0.205404
O O4 0.703143 0.871569 0.211591
O O5 0.251668 0.068906 0.156677
O O6 0.361901 0.291575 0.245180
O O7 0.325237 0.093685 0.111903
O O8 0.213774 0.286261 0.039007
O O9 0.834616 0.042251 0.153963
O O10 0.750000 0.250000 0.000000
O O11 0.673793 0.067271 0.996972
O O12 0.930617 0.161930 0.709752
O O13 0.947046 0.367952 0.645830
O O14 0.513463 0.508008 0.136602
O O15 0.500000 0.500000 0.000000
O O16 0.372638 0.617269 0.929370
#
# Coordination Sequence:
#
# PCOD9257753 Si02
#       8
#     8   8   8   4   8   8   8   8
#     4  10  24  39  60  90 118 159 208 250 306 364
#     4   9  18  32  58  83 112 150 200 237 297 356
#     4  10  20  37  57  78 119 152 197 245 301 356
#     4  10  18  32  52  88 114 148 196 244 298 358
#     4   9  20  38  58  82 118 153 202 244 298 358
#     4  11  22  39  65  84 120 163 204 249 311 363
#     4   9  19  34  57  85 119 154 196 248 295 362
#     4   9  18  32  54  84 113 150 192 242 291 355
#
# _framework density 21.117850000000001
#
# number of rings (size 3 to 8) (size 9 to 14) (size 15 to 20)
#    0.000    2.400    0.000    2.400    7.467    1.067 
#    0.000    6.667    0.000    0.000    0.000    0.000 
#    0.000    0.000    0.000    0.000    0.000    0.000 
#
# Total GULP energy -167021.260880 kJ/mol
# GULP energy per Si atom -5567.375363 kJ/mol
# Density = 2.106979 g / cm^3
# Si number density = 21.117850 Si / 1000 Ang^3
#
#
#
# Elastic Constant Matrix: (Units=GPa)
#
#
# Indices 1 2 3 4 5 6 
#
# 1 41.1172 11.8490 2.1933 0.0000 6.6692 0.0000
# 2 11.8490 64.9867 14.6849 0.0000 10.8522 0.0000
# 3 2.1933 14.6849 39.3417 0.0000 4.2223 0.0000
# 4 0.0000 0.0000 0.0000 5.2418 0.0000 -2.8004
# 5 6.6692 10.8522 4.2223 0.0000 30.9428 0.0000
# 6 0.0000 0.0000 0.0000 -2.8004 0.0000 29.5979
#
#
#
# Elastic Compliance Matrix: (Units=1/GPa)
#
#
# Indices 1 2 3 4 5 6 
#
# 1 0.026188 -0.004192 0.000561 0.000000 -0.004251 0.000000
# 2 -0.004192 0.018313 -0.006099 0.000000 -0.004687 0.000000
# 3 0.000561 -0.006099 0.027855 0.000000 -0.001783 0.000000
# 4 0.000000 0.000000 0.000000 0.200931 0.000000 0.019011
# 5 -0.004251 -0.004687 -0.001783 0.000000 0.035121 0.000000
# 6 0.000000 0.000000 0.000000 0.019011 0.000000 0.035585
#
#
# Mechanical properties :
#
#
# Convention : Reuss Voigt Hill
#
# Bulk Modulus (GPa) = 18.90486 22.54445 20.72466
# Shear Modulus (GPa) = 13.12045 20.93771 17.02908
#
# Velocity S-wave (km/s) = 2.49529 3.15218 2.84277
# Velocity P-wave (km/s) = 4.15613 4.89357 4.53985
#
# Compressibility (1/GPa) = 0.05289644
#
# Stress axis : x y z
#
# Youngs Moduli (GPa) = 38.18509 54.60633 35.90038
#
# Poissons Ratio (x) = 0.22890 -0.02014
# Poissons Ratio (y) = 0.16006 0.21895
# Poissons Ratio (z) = -0.02142 0.33304
#
# Static dielectric constant tensor:
#      x y z
#    x 1.775880 0.000000 0.105130 
#    y 0.000000 2.044570 0.000000 
#    z 0.105130 0.000000 1.700180 
# 
# From -- ./inp_files/284321.got.cif
#   From: 2010.05.17/outbox.cif.g08.bks.cpg/sg15_143_cif.got.tgz:284321.got - 2010.06.03 18:47:42.
