data_PCOD9257441
_publ_section_title
;
Structure prediction by ZEFSAII (Michael W. Deem and Ramdas Pophale) SiO2 
 PCOD9257441
Probable space group: C 2/C
;
_chemical_formula_sum "Si O2"
_cell_formula_units_Z 52
_cell_length_a 9.279376
_cell_length_b 9.943703
_cell_length_c 28.537771
_cell_angle_alpha 90.000000
_cell_angle_beta 133.395624
_cell_angle_gamma 90.000000
_cell_volume 1913.368342
_symmetry_space_group_name_H-M "C 2/C"
_symmetry_group_IT_number 15
_symmetry_cell_setting 'monoclinic'
loop_
_space_group_symop_operation_xyz
x,y,z
-x,y,1/2-z
-x,-y,-z
x,-y,1/2+z
1/2+x,1/2+y,z
1/2-x,1/2+y,1/2-z
1/2-x,1/2-y,-z
1/2+x,1/2-y,1/2+z
loop_
_atom_site_type_symbol
_atom_site_label
_atom_site_fract_x
_atom_site_fract_y
_atom_site_fract_z
Si Si1 0.270161 0.528073 0.485752
Si Si2 0.000000 0.552587 0.250000
Si Si3 0.556544 0.810368 0.012520
Si Si4 0.717484 0.864626 0.221510
Si Si5 0.104521 0.014005 0.126871
Si Si6 0.192087 0.313612 0.392926
Si Si7 0.130143 0.117067 0.843060
O O1 0.352684 0.670678 0.487003
O O2 0.115811 0.569158 0.490851
O O3 0.454712 0.451247 0.551234
O O4 0.179650 0.444361 0.423563
O O5 0.881479 0.464669 0.262928
O O6 0.800918 0.603658 0.178734
O O7 0.324374 0.786903 0.952812
O O8 0.676833 0.829214 0.087065
O O9 0.529626 0.770710 0.168558
O O10 0.789646 0.933228 0.189152
O O11 0.923790 0.799875 0.285801
O O12 0.194783 0.868745 0.128186
O O13 0.969417 0.984719 0.141854
#
# Coordination Sequence:
#
# PCOD9257441 Si02
#       7
#     8   4   8   8   8   8   8
#     4   9  17  30  51  80 109 140 183 234 283 335
#     4   8  14  26  46  70  92 130 182 218 258 330
#     4   9  17  30  52  79 109 143 183 232 284 338
#     4   9  18  31  51  74 101 138 180 222 275 340
#     4   8  14  26  45  71  98 131 175 221 269 326
#     4  10  18  31  54  81 106 142 189 232 278 340
#     4   9  17  31  50  73 104 140 175 219 280 340
#
# _framework density 27.177205000000001
#
# number of rings (size 3 to 8) (size 9 to 14) (size 15 to 20)
#    0.000    3.077    0.000    2.769    0.000    0.615 
#    0.000    3.077    0.000   33.231    0.000    0.000 
#    0.000    0.000    0.000    0.000    0.000    1.846 
#
# Total GULP energy -145227.024881 kJ/mol
# GULP energy per Si atom -5585.654803 kJ/mol
# Density = 2.711535 g / cm^3
# Si number density = 27.177205 Si / 1000 Ang^3
#
#
#
# Elastic Constant Matrix: (Units=GPa)
#
#
# Indices 1 2 3 4 5 6 
#
# 1 190.0633 43.0973 49.1023 0.0000 -14.7248 0.0000
# 2 43.0973 63.1315 31.4847 0.0000 5.3617 0.0000
# 3 49.1023 31.4847 159.2173 0.0000 12.7439 0.0000
# 4 0.0000 0.0000 0.0000 18.4761 0.0000 13.2363
# 5 -14.7248 5.3617 12.7439 0.0000 60.9018 0.0000
# 6 0.0000 0.0000 0.0000 13.2363 0.0000 38.2493
#
#
#
# Elastic Compliance Matrix: (Units=1/GPa)
#
#
# Indices 1 2 3 4 5 6 
#
# 1 0.006738 -0.004068 -0.001457 0.000000 0.002292 0.000000
# 2 -0.004068 0.020070 -0.002537 0.000000 -0.002220 0.000000
# 3 -0.001457 -0.002537 0.007365 0.000000 -0.001670 0.000000
# 4 0.000000 0.000000 0.000000 0.071965 0.000000 -0.024904
# 5 0.002292 -0.002220 -0.001670 0.000000 0.017519 0.000000
# 6 0.000000 0.000000 0.000000 -0.024904 0.000000 0.034762
#
#
# Mechanical properties :
#
#
# Convention : Reuss Voigt Hill
#
# Bulk Modulus (GPa) = 55.39931 73.30897 64.35414
# Shear Modulus (GPa) = 27.69172 42.77397 35.23284
#
# Velocity S-wave (km/s) = 3.19553 3.97153 3.60448
# Velocity P-wave (km/s) = 5.83472 6.93280 6.40733
#
# Compressibility (1/GPa) = 0.01805077
#
# Stress axis : x y z
#
# Youngs Moduli (GPa) = 148.41800 49.82469 135.77040
#
# Poissons Ratio (x) = 0.20267 0.19782
# Poissons Ratio (y) = 0.60371 0.34441
# Poissons Ratio (z) = 0.21625 0.12639
#
# Static dielectric constant tensor:
#      x y z
#    x 2.117300 0.000000 0.009610 
#    y 0.000000 2.158740 0.000000 
#    z 0.009610 0.000000 2.181400 
# 
# From -- ./inp_files/307661.got.cif
#   From: 2010.05.17/outbox.cif.g08.bks.cpg/sg15_154_cif.got.tgz:307661.got - 2010.06.03 18:47:42.
