data_PCOD9257609
_publ_section_title
;
Structure prediction by ZEFSAII (Michael W. Deem and Ramdas Pophale) SiO2 
 PCOD9257609
Probable space group: C 2/C
;
_chemical_formula_sum "Si O2"
_cell_formula_units_Z 56
_cell_length_a 26.230897
_cell_length_b 11.555844
_cell_length_c 9.745812
_cell_angle_alpha 90.000000
_cell_angle_beta 50.559056
_cell_angle_gamma 90.000000
_cell_volume 2281.431919
_symmetry_space_group_name_H-M "C 2/C"
_symmetry_group_IT_number 15
_symmetry_cell_setting 'monoclinic'
loop_
_space_group_symop_operation_xyz
x,y,z
-x,y,1/2-z
-x,-y,-z
x,-y,1/2+z
1/2+x,1/2+y,z
1/2-x,1/2+y,1/2-z
1/2-x,1/2-y,-z
1/2+x,1/2-y,1/2+z
loop_
_atom_site_type_symbol
_atom_site_label
_atom_site_fract_x
_atom_site_fract_y
_atom_site_fract_z
Si Si1 0.676649 0.178223 0.504461
Si Si2 0.936008 0.142667 0.315240
Si Si3 0.225571 0.101137 0.642060
Si Si4 0.413920 0.475258 0.129789
Si Si5 0.337905 0.861861 0.759808
Si Si6 0.428618 0.252238 0.302454
Si Si7 0.687489 0.794531 0.285888
O O1 0.633135 0.294036 0.557834
O O2 0.652498 0.105409 0.414704
O O3 0.661715 0.152125 0.688008
O O4 0.754631 0.202244 0.351592
O O5 0.935287 0.047843 0.437981
O O6 0.000000 0.216826 0.250000
O O7 0.941643 0.087746 0.156261
O O8 0.164979 0.015490 0.742840
O O9 0.276964 0.074341 0.434573
O O10 0.191771 0.228713 0.685993
O O11 0.270882 0.113867 0.696980
O O12 0.428766 0.367745 0.207260
O O13 0.402654 0.849137 0.743086
O O14 0.500000 0.235691 0.250000
O O15 0.370847 0.255017 0.518120
#
# Coordination Sequence:
#
# PCOD9257609 Si02
#       7
#     8   8   8   8   8   8   8
#     4  10  18  32  49  71  93 121 168 216 254 282
#     4  12  25  35  47  66 102 144 179 200 235 283
#     4   8  14  32  51  65  86 123 161 207 253 289
#     4  11  22  37  46  65  99 140 178 207 228 289
#     4   8  14  29  49  69  89 117 155 205 253 292
#     4  10  19  31  50  70  98 132 167 196 249 302
#     4   9  18  30  52  72  89 120 163 215 263 297
#
# _framework density 24.545988999999999
#
# number of rings (size 3 to 8) (size 9 to 14) (size 15 to 20)
#    0.000    2.286    4.286    3.429    4.000    0.000 
#    0.000    0.000    0.000    0.000    0.000    0.000 
#    0.000    4.571    0.000    3.857    0.000    0.571 
#
# Total GULP energy -156354.759569 kJ/mol
# GULP energy per Si atom -5584.098556 kJ/mol
# Density = 2.449012 g / cm^3
# Si number density = 24.545989 Si / 1000 Ang^3
#
#
#
# Elastic Constant Matrix: (Units=GPa)
#
#
# Indices 1 2 3 4 5 6 
#
# 1 166.5277 16.5408 79.5348 0.0000 2.1703 0.0000
# 2 16.5408 30.9164 11.0107 0.0000 -11.1821 0.0000
# 3 79.5348 11.0107 143.7706 0.0000 18.5055 0.0000
# 4 0.0000 0.0000 0.0000 8.3410 0.0000 -4.8011
# 5 2.1703 -11.1821 18.5055 0.0000 55.3384 0.0000
# 6 0.0000 0.0000 0.0000 -4.8011 0.0000 15.8342
#
#
#
# Elastic Compliance Matrix: (Units=1/GPa)
#
#
# Indices 1 2 3 4 5 6 
#
# 1 0.008431 -0.002656 -0.004545 0.000000 0.000652 0.000000
# 2 -0.002656 0.037771 -0.002528 0.000000 0.008582 0.000000
# 3 -0.004545 -0.002528 0.010143 0.000000 -0.003724 0.000000
# 4 0.000000 0.000000 0.000000 0.145237 0.000000 0.044037
# 5 0.000652 0.008582 -0.003724 0.000000 0.021025 0.000000
# 6 0.000000 0.000000 0.000000 0.044037 0.000000 0.076507
#
#
# Mechanical properties :
#
#
# Convention : Reuss Voigt Hill
#
# Bulk Modulus (GPa) = 27.10993 61.70970 44.40981
# Shear Modulus (GPa) = 15.11193 31.51129 23.31161
#
# Velocity S-wave (km/s) = 2.48394 3.58685 3.08508
# Velocity P-wave (km/s) = 4.39262 6.50761 5.55176
#
# Compressibility (1/GPa) = 0.03688685
#
# Stress axis : x y z
#
# Youngs Moduli (GPa) = 118.61208 26.47563 98.59445
#
# Poissons Ratio (x) = 0.07032 0.44807
# Poissons Ratio (y) = 0.31506 0.24923
# Poissons Ratio (z) = 0.53904 0.06693
#
# Static dielectric constant tensor:
#      x y z
#    x 1.993810 0.000000 -0.004140 
#    y 0.000000 2.021210 0.000000 
#    z -0.004140 0.000000 2.017150 
# 
# From -- ./inp_files/63227.got.cif
#   From: 2010.05.17/outbox.cif.g08.bks.cpg/sg15_32_cif.got.tgz:63227.got - 2010.06.03 18:47:42.
