data_PCOD9257764
_publ_section_title
;
Structure prediction by ZEFSAII (Michael W. Deem and Ramdas Pophale) SiO2 
 PCOD9257764
Probable space group: C 2/C
;
_chemical_formula_sum "Si O2"
_cell_formula_units_Z 56
_cell_length_a 18.461076
_cell_length_b 20.276257
_cell_length_c 13.000796
_cell_angle_alpha 90.000000
_cell_angle_beta 136.531167
_cell_angle_gamma 90.000000
_cell_volume 3347.941511
_symmetry_space_group_name_H-M "C 2/C"
_symmetry_group_IT_number 15
_symmetry_cell_setting 'monoclinic'
loop_
_space_group_symop_operation_xyz
x,y,z
-x,y,1/2-z
-x,-y,-z
x,-y,1/2+z
1/2+x,1/2+y,z
1/2-x,1/2+y,1/2-z
1/2-x,1/2-y,-z
1/2+x,1/2-y,1/2+z
loop_
_atom_site_type_symbol
_atom_site_label
_atom_site_fract_x
_atom_site_fract_y
_atom_site_fract_z
Si Si1 0.480682 0.686643 0.611170
Si Si2 0.889501 0.933156 0.578434
Si Si3 0.282117 0.628151 0.161122
Si Si4 0.139415 0.734831 0.667492
Si Si5 0.553040 0.817853 0.412720
Si Si6 0.131754 0.811952 0.079773
Si Si7 0.909874 0.953689 0.959376
O O1 0.500000 0.698910 0.750000
O O2 0.387707 0.732224 0.469728
O O3 0.576275 0.702138 0.631260
O O4 0.456441 0.609781 0.565817
O O5 0.810737 0.900036 0.578654
O O6 0.906700 0.880219 0.505955
O O7 0.000000 0.944958 0.750000
O O8 0.854441 0.999871 0.486770
O O9 0.338795 0.699579 0.239191
O O10 0.332055 0.576978 0.293965
O O11 0.156554 0.639061 0.043870
O O12 0.244415 0.692565 0.778000
O O13 0.043052 0.689929 0.606545
O O14 0.500000 0.834867 0.250000
O O15 0.599019 0.743448 0.463304
O O16 0.000000 0.000000 0.000000
#
# Coordination Sequence:
#
# PCOD9257764 Si02
#       7
#     8   8   8   8   8   8   8
#     4  10  20  33  50  75 105 137 176 214 259 311
#     4  12  19  29  53  77 106 133 167 212 266 319
#     4  10  21  33  51  82 107 137 174 213 271 314
#     4   9  19  35  52  76 110 137 170 218 259 315
#     4  10  18  32  53  77 108 135 171 216 266 315
#     4  10  19  31  51  79 106 138 172 209 269 319
#     4  11  20  34  49  75 108 134 168 220 264 312
#
# _framework density 16.726696
#
# number of rings (size 3 to 8) (size 9 to 14) (size 15 to 20)
#    0.000    1.714    2.857    4.286    0.000    2.857 
#    0.000    0.000    0.000    3.429    0.000    0.000 
#    0.000    0.000    0.000    0.000    0.000    0.000 
#
# Total GULP energy -156020.866954 kJ/mol
# GULP energy per Si atom -5572.173820 kJ/mol
# Density = 1.668863 g / cm^3
# Si number density = 16.726696 Si / 1000 Ang^3
#
#
#
# Elastic Constant Matrix: (Units=GPa)
#
#
# Indices 1 2 3 4 5 6 
#
# 1 55.1193 15.2483 43.8696 0.0000 0.5912 0.0000
# 2 15.2483 47.7068 28.0372 0.0000 -0.3943 0.0000
# 3 43.8696 28.0372 100.3536 0.0000 -2.2363 0.0000
# 4 0.0000 0.0000 0.0000 13.4920 0.0000 3.5084
# 5 0.5912 -0.3943 -2.2363 0.0000 33.5977 0.0000
# 6 0.0000 0.0000 0.0000 3.5084 0.0000 16.9109
#
#
#
# Elastic Compliance Matrix: (Units=1/GPa)
#
#
# Indices 1 2 3 4 5 6 
#
# 1 0.028054 -0.002097 -0.011707 0.000000 -0.001297 0.000000
# 2 -0.002097 0.025237 -0.006136 0.000000 -0.000075 0.000000
# 3 -0.011707 -0.006136 0.016824 0.000000 0.001254 0.000000
# 4 0.000000 0.000000 0.000000 0.078345 0.000000 -0.016254
# 5 -0.001297 -0.000075 0.001254 0.000000 0.029869 0.000000
# 6 0.000000 0.000000 0.000000 -0.016254 0.000000 0.062506
#
#
# Mechanical properties :
#
#
# Convention : Reuss Voigt Hill
#
# Bulk Modulus (GPa) = 33.07321 41.94331 37.50826
# Shear Modulus (GPa) = 17.19434 20.53511 18.86472
#
# Velocity S-wave (km/s) = 3.20966 3.50763 3.36195
# Velocity P-wave (km/s) = 5.79237 6.44475 6.12725
#
# Compressibility (1/GPa) = 0.03023595
#
# Stress axis : x y z
#
# Youngs Moduli (GPa) = 35.64545 39.62434 59.43719
#
# Poissons Ratio (x) = 0.08311 0.69582
# Poissons Ratio (y) = 0.07477 0.36468
# Poissons Ratio (z) = 0.41729 0.24312
#
# Static dielectric constant tensor:
#      x y z
#    x 1.595330 0.000000 -0.002760 
#    y 0.000000 1.559070 0.000000 
#    z -0.002760 0.000000 1.567070 
# 
# From -- ./inp_files/106747.got.cif
#   From: 2010.05.17/outbox.cif.g08.bks.cpg/sg15_54_cif.got.tgz:106747.got - 2010.06.03 18:47:42.
