data_PCOD9257708
_publ_section_title
;
Structure prediction by ZEFSAII (Michael W. Deem and Ramdas Pophale) SiO2 
 PCOD9257708
Probable space group: C 2/C
;
_chemical_formula_sum "Si O2"
_cell_formula_units_Z 56
_cell_length_a 23.643167
_cell_length_b 10.047221
_cell_length_c 13.501036
_cell_angle_alpha 90.000000
_cell_angle_beta 119.766623
_cell_angle_gamma 90.000000
_cell_volume 2783.978324
_symmetry_space_group_name_H-M "C 2/C"
_symmetry_group_IT_number 15
_symmetry_cell_setting 'monoclinic'
loop_
_space_group_symop_operation_xyz
x,y,z
-x,y,1/2-z
-x,-y,-z
x,-y,1/2+z
1/2+x,1/2+y,z
1/2-x,1/2+y,1/2-z
1/2-x,1/2-y,-z
1/2+x,1/2-y,1/2+z
loop_
_atom_site_type_symbol
_atom_site_label
_atom_site_fract_x
_atom_site_fract_y
_atom_site_fract_z
Si Si1 0.842918 0.783762 0.898066
Si Si2 0.202576 0.209052 0.827682
Si Si3 0.243035 0.943839 0.979453
Si Si4 0.070129 0.893089 0.849448
Si Si5 0.648124 0.419527 0.087323
Si Si6 0.423754 0.285620 0.159469
Si Si7 0.172217 0.287415 0.326177
O O1 0.838690 0.689498 0.798919
O O2 0.860368 0.932524 0.877223
O O3 0.769372 0.792600 0.878733
O O4 0.896518 0.747299 0.026865
O O5 0.179744 0.169324 0.698139
O O6 0.136300 0.260295 0.822144
O O7 0.228153 0.077615 0.908123
O O8 0.193657 0.932226 0.029609
O O9 0.311237 0.915308 0.092888
O O10 0.230992 0.820116 0.894076
O O11 0.114987 0.796555 0.824712
O O12 0.000000 0.861865 0.750000
O O13 0.079842 0.051903 0.838992
O O14 0.082207 0.871249 0.977193
O O15 0.500000 0.250521 0.250000
#
# Coordination Sequence:
#
# PCOD9257708 Si02
#       7
#     8   8   8   8   8   8   8
#     4  11  20  32  56  80 103 140 177 212 263 316
#     4  12  20  34  55  81 106 139 173 219 264 309
#     4  10  19  32  49  75 110 130 166 221 261 298
#     4   9  18  33  52  76 110 142 172 209 261 317
#     4  10  19  32  50  80 106 132 174 215 261 309
#     4  10  21  35  49  76 114 140 171 213 262 315
#     4  10  18  32  52  76 105 137 169 216 260 305
#
# _framework density 20.115099000000001
#
# number of rings (size 3 to 8) (size 9 to 14) (size 15 to 20)
#    0.000    1.714    7.143    0.429    0.000    1.143 
#    0.000    4.286    0.000    0.857    0.000    3.000 
#    0.000    0.000    0.000    0.000    0.000    0.000 
#
# Total GULP energy -155930.490907 kJ/mol
# GULP energy per Si atom -5568.946104 kJ/mol
# Density = 2.006932 g / cm^3
# Si number density = 20.115099 Si / 1000 Ang^3
#
#
#
# Elastic Constant Matrix: (Units=GPa)
#
#
# Indices 1 2 3 4 5 6 
#
# 1 55.8876 14.8518 61.8396 0.0000 17.3981 0.0000
# 2 14.8518 22.4697 26.7484 0.0000 6.5083 0.0000
# 3 61.8396 26.7484 185.4230 0.0000 19.3421 0.0000
# 4 0.0000 0.0000 0.0000 17.6841 0.0000 0.7893
# 5 17.3981 6.5083 19.3421 0.0000 33.8365 0.0000
# 6 0.0000 0.0000 0.0000 0.7893 0.0000 19.0913
#
#
#
# Elastic Compliance Matrix: (Units=1/GPa)
#
#
# Indices 1 2 3 4 5 6 
#
# 1 0.032996 -0.008444 -0.008705 0.000000 -0.010366 0.000000
# 2 -0.008444 0.057177 -0.005038 0.000000 -0.003776 0.000000
# 3 -0.008705 -0.005038 0.008991 0.000000 0.000305 0.000000
# 4 0.000000 0.000000 0.000000 0.056653 0.000000 -0.002342
# 5 -0.010366 -0.003776 0.000305 0.000000 0.035435 0.000000
# 6 0.000000 0.000000 0.000000 -0.002342 0.000000 0.052477
#
#
# Mechanical properties :
#
#
# Convention : Reuss Voigt Hill
#
# Bulk Modulus (GPa) = 18.25171 52.29553 35.27362
# Shear Modulus (GPa) = 16.32032 24.81174 20.56603
#
# Velocity S-wave (km/s) = 2.85150 3.51592 3.20100
# Velocity P-wave (km/s) = 4.46484 6.52202 5.58890
#
# Compressibility (1/GPa) = 0.05478937
#
# Stress axis : x y z
#
# Youngs Moduli (GPa) = 30.30668 17.48959 111.22084
#
# Poissons Ratio (x) = 0.14769 0.96817
# Poissons Ratio (y) = 0.25592 0.56033
# Poissons Ratio (z) = 0.26382 0.08811
#
# Static dielectric constant tensor:
#      x y z
#    x 1.782600 0.000000 0.039170 
#    y 0.000000 1.723770 0.000000 
#    z 0.039170 0.000000 1.801960 
# 
# From -- ./inp_files/177959.got.cif
#   From: 2010.05.17/outbox.cif.g08.bks.cpg/sg15_89_cif.got.tgz:177959.got - 2010.06.03 18:47:42.
