data_PCOD9257341
_publ_section_title
;
Structure prediction by ZEFSAII (Michael W. Deem and Ramdas Pophale) SiO2 
 PCOD9257341
Probable space group: C 2/C
;
_chemical_formula_sum "Si O2"
_cell_formula_units_Z 60
_cell_length_a 19.162145
_cell_length_b 21.063174
_cell_length_c 13.608527
_cell_angle_alpha 90.000000
_cell_angle_beta 33.284542
_cell_angle_gamma 90.000000
_cell_volume 3014.331593
_symmetry_space_group_name_H-M "C 2/C"
_symmetry_group_IT_number 15
_symmetry_cell_setting 'monoclinic'
loop_
_space_group_symop_operation_xyz
x,y,z
-x,y,1/2-z
-x,-y,-z
x,-y,1/2+z
1/2+x,1/2+y,z
1/2-x,1/2+y,1/2-z
1/2-x,1/2-y,-z
1/2+x,1/2-y,1/2+z
loop_
_atom_site_type_symbol
_atom_site_label
_atom_site_fract_x
_atom_site_fract_y
_atom_site_fract_z
Si Si1 0.000000 0.471128 0.750000
Si Si2 0.157382 0.562839 0.707107
Si Si3 0.989714 0.950493 0.148788
Si Si4 0.612180 0.203057 0.739979
Si Si5 0.286746 0.395828 0.744290
Si Si6 0.276149 0.038128 0.644378
Si Si7 0.660267 0.776240 0.951461
Si Si8 0.909328 0.090997 0.285659
O O1 0.072909 0.511384 0.749101
O O2 0.112180 0.436769 0.557851
O O3 0.084767 0.629282 0.790469
O O4 0.195947 0.550526 0.774283
O O5 0.286402 0.570509 0.492117
O O6 0.859910 0.938529 0.239338
O O7 0.000000 0.929431 0.250000
O O8 0.984291 0.027680 0.161800
O O9 0.114557 0.921857 0.951517
O O10 0.648838 0.204727 0.581005
O O11 0.728346 0.224483 0.672509
O O12 0.482848 0.241672 0.908579
O O13 0.221820 0.460393 0.861615
O O14 0.197929 0.335362 0.836145
O O15 0.370456 0.371556 0.736846
O O16 0.000000 0.129323 0.250000
#
# Coordination Sequence:
#
# PCOD9257341 Si02
#       8
#     4   8   8   8   8   8   8   8
#     4  12  22  36  52  80 122 160 198 234 296 352
#     4  12  21  37  57  83 122 159 197 240 293 360
#     4  10  20  36  53  81 116 151 196 243 292 350
#     4  10  21  38  57  85 123 154 198 249 295 359
#     4  11  19  34  57  83 115 156 191 241 297 357
#     4  11  22  35  55  84 117 160 197 237 291 364
#     4  10  21  38  58  86 118 159 200 245 302 354
#     4  10  18  31  51  80 114 147 190 237 286 350
#
# _framework density 19.904910999999998
#
# number of rings (size 3 to 8) (size 9 to 14) (size 15 to 20)
#    0.000    1.333    4.000    6.000    0.000    2.133 
#    0.000    0.000    0.000    0.000    1.733    1.867 
#    0.000    0.000    0.000    0.000    0.000    0.000 
#
# Total GULP energy -167191.571949 kJ/mol
# GULP energy per Si atom -5573.052398 kJ/mol
# Density = 1.985961 g / cm^3
# Si number density = 19.904911 Si / 1000 Ang^3
#
#
#
# Elastic Constant Matrix: (Units=GPa)
#
#
# Indices 1 2 3 4 5 6 
#
# 1 101.1509 -4.5592 25.8123 0.0003 6.8545 -0.0002
# 2 -4.5592 27.0270 15.0079 0.0001 -0.8687 0.0000
# 3 25.8123 15.0079 119.1167 0.0004 4.0126 -0.0003
# 4 0.0003 0.0001 0.0004 20.7474 -0.0003 -2.1053
# 5 6.8545 -0.8687 4.0126 -0.0003 30.0918 0.0002
# 6 -0.0002 0.0000 -0.0003 -2.1053 0.0002 13.8495
#
#
#
# Elastic Compliance Matrix: (Units=1/GPa)
#
#
# Indices 1 2 3 4 5 6 
#
# 1 0.010858 0.003264 -0.002696 0.000000 -0.002020 0.000000
# 2 0.003264 0.040865 -0.005897 0.000000 0.001223 0.000000
# 3 -0.002696 -0.005897 0.009751 0.000000 -0.000856 0.000000
# 4 0.000000 0.000000 0.000000 0.048954 0.000000 0.007441
# 5 -0.002020 0.001223 -0.000856 0.000000 0.033841 -0.000001
# 6 0.000000 0.000000 0.000000 0.007441 -0.000001 0.073336
#
#
# Mechanical properties :
#
#
# Convention : Reuss Voigt Hill
#
# Bulk Modulus (GPa) = 19.67916 35.53519 27.60718
# Shear Modulus (GPa) = 20.39134 27.00665 23.69899
#
# Velocity S-wave (km/s) = 3.20416 3.68745 3.45427
# Velocity P-wave (km/s) = 4.85766 6.00175 5.45975
#
# Compressibility (1/GPa) = 0.05081518
#
# Stress axis : x y z
#
# Youngs Moduli (GPa) = 92.09620 24.47112 102.55119
#
# Poissons Ratio (x) = -0.07987 0.27649
# Poissons Ratio (y) = -0.30059 0.60476
# Poissons Ratio (z) = 0.24831 0.14431
#
# Static dielectric constant tensor:
#      x y z
#    x 1.786710 0.000000 -0.052740 
#    y 0.000000 1.752720 0.000000 
#    z -0.052740 0.000000 1.780800 
# 
# From -- ./inp_files/169621.got.cif
#   From: 2010.05.17/outbox.cif.g08.bks.cpg/sg15_85_cif.got.tgz:169621.got - 2010.06.03 18:47:42.
