data_PCOD9257959
_publ_section_title
;
Structure prediction by ZEFSAII (Michael W. Deem and Ramdas Pophale) SiO2 
 PCOD9257959
Probable space group: C 2/C
;
_chemical_formula_sum "Si O2"
_cell_formula_units_Z 52
_cell_length_a 14.507125
_cell_length_b 22.016979
_cell_length_c 25.933267
_cell_angle_alpha 90.000000
_cell_angle_beta 158.619128
_cell_angle_gamma 90.000000
_cell_volume 3019.759788
_symmetry_space_group_name_H-M "C 2/C"
_symmetry_group_IT_number 15
_symmetry_cell_setting 'monoclinic'
loop_
_space_group_symop_operation_xyz
x,y,z
-x,y,1/2-z
-x,-y,-z
x,-y,1/2+z
1/2+x,1/2+y,z
1/2-x,1/2+y,1/2-z
1/2-x,1/2-y,-z
1/2+x,1/2-y,1/2+z
loop_
_atom_site_type_symbol
_atom_site_label
_atom_site_fract_x
_atom_site_fract_y
_atom_site_fract_z
Si Si1 0.500000 0.148571 0.250000
Si Si2 0.617604 0.859566 0.213149
Si Si3 0.559316 0.431676 0.474395
Si Si4 0.238286 0.226007 0.311741
Si Si5 0.850277 0.291873 0.982320
Si Si6 0.850677 0.069897 0.981466
Si Si7 0.818452 0.179557 0.322901
O O1 0.691282 0.106384 0.382112
O O2 0.656664 0.186554 0.290261
O O3 0.706340 0.798942 0.290387
O O4 0.868686 0.899104 0.336349
O O5 0.496896 0.837193 0.096408
O O6 0.406651 0.897813 0.134462
O O7 0.631307 0.499307 0.494897
O O8 0.402048 0.431109 0.446688
O O9 0.387781 0.206147 0.440319
O O10 0.330916 0.199128 0.305871
O O11 0.949394 0.202421 0.165971
O O12 0.943522 0.225131 0.048406
O O13 0.074223 0.111400 0.121499
#
# Coordination Sequence:
#
# PCOD9257959 Si02
#       7
#     4   8   8   8   8   8   8
#     4  10  22  36  48  78 114 146 178 200 268 348
#     4  11  19  34  55  80 108 137 174 230 265 314
#     4  10  23  31  49  75 110 144 175 210 267 325
#     4  10  18  32  56  85 108 131 177 231 274 304
#     4  10  19  32  54  85 103 135 182 221 275 311
#     4  10  19  32  49  78 105 138 174 216 270 310
#     4  10  18  35  50  78 112 141 169 220 264 326
#
# _framework density 17.219912999999998
#
# number of rings (size 3 to 8) (size 9 to 14) (size 15 to 20)
#    0.000    1.846    3.077    3.231    8.615    0.000 
#    0.000    6.923    0.000    0.923    4.000    0.000 
#    0.000    0.000    0.000    0.000    0.000    0.000 
#
# Total GULP energy -144954.439779 kJ/mol
# GULP energy per Si atom -5575.170761 kJ/mol
# Density = 1.718072 g / cm^3
# Si number density = 17.219913 Si / 1000 Ang^3
#
#
#
# Elastic Constant Matrix: (Units=GPa)
#
#
# Indices 1 2 3 4 5 6 
#
# 1 61.6684 29.0789 19.0214 -0.0117 -10.7288 -0.0060
# 2 29.0789 83.5844 32.1473 0.0049 -8.4397 -0.0097
# 3 19.0214 32.1473 68.6589 -0.0449 -9.8969 -0.0186
# 4 -0.0117 0.0049 -0.0449 9.8534 -0.0126 -1.6484
# 5 -10.7288 -8.4397 -9.8969 -0.0126 25.5764 0.0005
# 6 -0.0060 -0.0097 -0.0186 -1.6484 0.0005 21.7747
#
#
#
# Elastic Compliance Matrix: (Units=1/GPa)
#
#
# Indices 1 2 3 4 5 6 
#
# 1 0.020622 -0.005742 -0.002172 0.000026 0.005915 0.000003
# 2 -0.005742 0.016319 -0.005953 -0.000042 0.000673 -0.000003
# 3 -0.002172 -0.005953 0.018576 0.000094 0.004312 0.000020
# 4 0.000026 -0.000042 0.000094 0.102790 0.000084 0.007782
# 5 0.005915 0.000673 0.004312 0.000084 0.043471 0.000011
# 6 0.000003 -0.000003 0.000020 0.007782 0.000011 0.046514
#
#
# Mechanical properties :
#
#
# Convention : Reuss Voigt Hill
#
# Bulk Modulus (GPa) = 35.99353 41.60078 38.79715
# Shear Modulus (GPa) = 17.52622 20.35184 18.93903
#
# Velocity S-wave (km/s) = 3.19374 3.44158 3.31997
# Velocity P-wave (km/s) = 5.87772 6.32484 6.10537
#
# Compressibility (1/GPa) = 0.02778277
#
# Stress axis : x y z
#
# Youngs Moduli (GPa) = 48.49110 61.27787 53.83399
#
# Poissons Ratio (x) = 0.35184 0.11694
# Poissons Ratio (y) = 0.27842 0.32049
# Poissons Ratio (z) = 0.10533 0.36480
#
# Static dielectric constant tensor:
#      x y z
#    x 1.626410 0.000000 0.001380 
#    y 0.000000 1.587520 -0.000010 
#    z 0.001380 -0.000010 1.617210 
# 
# From -- ./inp_files/296976.got.cif
#   From: 2010.05.17/outbox.cif.g08.bks.cpg/sg15_149_cif.got.tgz:296976.got - 2010.06.03 18:47:42.
