data_PCOD9257513
_publ_section_title
;
Structure prediction by ZEFSAII (Michael W. Deem and Ramdas Pophale) SiO2 
 PCOD9257513
Probable space group: C 2/C
;
_chemical_formula_sum "Si O2"
_cell_formula_units_Z 48
_cell_length_a 9.982699
_cell_length_b 11.765575
_cell_length_c 16.652755
_cell_angle_alpha 90.000000
_cell_angle_beta 110.351510
_cell_angle_gamma 90.000000
_cell_volume 1833.808622
_symmetry_space_group_name_H-M "C 2/C"
_symmetry_group_IT_number 15
_symmetry_cell_setting 'monoclinic'
loop_
_space_group_symop_operation_xyz
x,y,z
-x,y,1/2-z
-x,-y,-z
x,-y,1/2+z
1/2+x,1/2+y,z
1/2-x,1/2+y,1/2-z
1/2-x,1/2-y,-z
1/2+x,1/2-y,1/2+z
loop_
_atom_site_type_symbol
_atom_site_label
_atom_site_fract_x
_atom_site_fract_y
_atom_site_fract_z
Si Si1 0.205798 0.782894 0.899231
Si Si2 0.656319 0.807282 0.811476
Si Si3 0.483467 0.251456 0.058118
Si Si4 0.138055 0.010926 0.938764
Si Si5 0.367150 0.869841 0.377237
Si Si6 0.357007 0.962910 0.130272
O O1 0.360235 0.798339 0.889831
O O2 0.147922 0.669073 0.847501
O O3 0.101159 0.889416 0.890857
O O4 0.250000 0.750000 0.000000
O O5 0.500000 0.769191 0.750000
O O6 0.634689 0.792112 0.903750
O O7 0.784777 0.728167 0.810152
O O8 0.672275 0.942883 0.808531
O O9 0.473891 0.389821 0.060686
O O10 0.445389 0.201490 0.963818
O O11 0.238322 0.063781 0.891591
O O12 0.241278 0.985460 0.036030
O O13 0.481719 0.960786 0.369831
#
# Coordination Sequence:
#
# PCOD9257513 Si02
#       6
#     8   8   8   8   8   8
#     4  10  21  31  54  93 124 146 188 247 306 358
#     4  11  24  41  59  83 117 158 206 246 299 366
#     4  11  19  36  62  87 120 154 198 253 298 353
#     4  10  18  31  56  90 115 147 189 246 298 341
#     4  11  19  36  65  87 109 154 205 250 293 356
#     4  11  20  35  59  86 122 149 192 246 305 353
#
# _framework density 26.175032999999999
#
# number of rings (size 3 to 8) (size 9 to 14) (size 15 to 20)
#    0.000    1.333    6.667    2.500    0.000    4.000 
#    3.000    0.000    0.000    1.000    0.000    0.000 
#    0.000    0.000    0.000    0.000    0.000    0.000 
#
# Total GULP energy -134051.879581 kJ/mol
# GULP energy per Si atom -5585.494983 kJ/mol
# Density = 2.611546 g / cm^3
# Si number density = 26.175033 Si / 1000 Ang^3
#
#
#
# Elastic Constant Matrix: (Units=GPa)
#
#
# Indices 1 2 3 4 5 6 
#
# 1 63.4538 14.4281 -1.4061 0.0000 -5.6087 0.0000
# 2 14.4281 147.5953 12.7535 0.0000 -0.6698 0.0000
# 3 -1.4061 12.7535 59.3219 0.0000 2.5602 0.0000
# 4 0.0000 0.0000 0.0000 9.8967 0.0000 17.2945
# 5 -5.6087 -0.6698 2.5602 0.0000 25.8838 0.0000
# 6 0.0000 0.0000 0.0000 17.2945 0.0000 34.6594
#
#
#
# Elastic Compliance Matrix: (Units=1/GPa)
#
#
# Indices 1 2 3 4 5 6 
#
# 1 0.016453 -0.001644 0.000594 0.000000 0.003464 0.000000
# 2 -0.001644 0.007071 -0.001558 0.000000 -0.000019 0.000000
# 3 0.000594 -0.001558 0.017276 0.000000 -0.001620 0.000000
# 4 0.000000 0.000000 0.000000 0.789311 0.000000 -0.393854
# 5 0.003464 -0.000019 -0.001620 0.000000 0.039545 0.000000
# 6 0.000000 0.000000 0.000000 -0.393854 0.000000 0.225380
#
#
# Mechanical properties :
#
#
# Convention : Reuss Voigt Hill
#
# Bulk Modulus (GPa) = 28.10337 35.76909 31.93623
# Shear Modulus (GPa) = 4.49595 30.39433 17.44514
#
# Velocity S-wave (km/s) = 1.31201 3.41133 2.58443
# Velocity P-wave (km/s) = 3.61320 5.40474 4.59709
#
# Compressibility (1/GPa) = 0.03558292
#
# Stress axis : x y z
#
# Youngs Moduli (GPa) = 60.78056 141.43190 57.88310
#
# Poissons Ratio (x) = 0.23250 -0.03438
# Poissons Ratio (y) = 0.09992 0.09019
# Poissons Ratio (z) = -0.03610 0.22038
#
# Static dielectric constant tensor:
#      x y z
#    x 2.222410 0.000000 -0.029320 
#    y 0.000000 2.214210 0.000000 
#    z -0.029320 0.000000 2.078260 
# 
# From -- ./inp_files/196126.got.cif
#   From: 2010.05.17/outbox.cif.g08.bks.cpg/sg15_99_cif.got.tgz:196126.got - 2010.06.03 18:47:42.
