data_PCOD9257275
_publ_section_title
;
Structure prediction by ZEFSAII (Michael W. Deem and Ramdas Pophale) SiO2 
 PCOD9257275
Probable space group: C 2/C
;
_chemical_formula_sum "Si O2"
_cell_formula_units_Z 64
_cell_length_a 12.335907
_cell_length_b 20.893563
_cell_length_c 18.760758
_cell_angle_alpha 90.000000
_cell_angle_beta 42.247580
_cell_angle_gamma 90.000000
_cell_volume 3251.023025
_symmetry_space_group_name_H-M "C 2/C"
_symmetry_group_IT_number 15
_symmetry_cell_setting 'monoclinic'
loop_
_space_group_symop_operation_xyz
x,y,z
-x,y,1/2-z
-x,-y,-z
x,-y,1/2+z
1/2+x,1/2+y,z
1/2-x,1/2+y,1/2-z
1/2-x,1/2-y,-z
1/2+x,1/2-y,1/2+z
loop_
_atom_site_type_symbol
_atom_site_label
_atom_site_fract_x
_atom_site_fract_y
_atom_site_fract_z
Si Si1 0.160569 0.001490 0.523854
Si Si2 0.171829 0.354772 0.702019
Si Si3 0.318941 0.000244 0.806017
Si Si4 0.327020 0.860539 0.091308
Si Si5 0.375896 0.056201 0.038540
Si Si6 0.180816 0.982116 0.232912
Si Si7 0.899200 0.773910 0.223828
Si Si8 0.318620 0.346151 0.485978
O O1 0.188524 0.978668 0.428947
O O2 0.197923 0.077110 0.500896
O O3 0.290882 0.962514 0.506448
O O4 0.990850 0.003561 0.647707
O O5 0.224032 0.426420 0.694719
O O6 0.141472 0.299582 0.774345
O O7 0.272376 0.324583 0.587612
O O8 0.000000 0.367323 0.750000
O O9 0.500000 0.005089 0.750000
O O10 0.297939 0.036015 0.741719
O O11 0.264800 0.810263 0.178810
O O12 0.989354 0.815530 0.382270
O O13 0.206161 0.922526 0.165288
O O14 0.510159 0.882615 0.012527
O O15 0.238230 0.045641 0.164254
O O16 0.500000 0.000000 0.000000
O O17 0.704945 0.833374 0.472720
O O18 0.000000 0.772916 0.250000
#
# Coordination Sequence:
#
# PCOD9257275 Si02
#       8
#     8   8   8   8   8   8   8   8
#     4  11  19  33  50  71 102 137 168 207 254 311
#     4   9  20  32  47  70 102 136 171 202 254 301
#     4  10  21  34  49  71 107 137 165 206 259 305
#     4  10  19  29  49  69  97 128 171 207 243 292
#     4  10  19  28  48  72  97 128 170 206 249 298
#     4  11  20  31  49  74  97 139 169 210 250 311
#     4   9  18  31  47  71  95 135 171 202 241 305
#     4  10  18  31  50  69  99 141 169 203 245 303
#
# _framework density 19.686112000000001
#
# number of rings (size 3 to 8) (size 9 to 14) (size 15 to 20)
#    0.000    2.000    3.750    2.250    3.500    4.500 
#    0.000    0.000    0.000    0.000    0.000    0.875 
#    0.000    4.000    0.000    0.000    0.000    0.000 
#
# Total GULP energy -178186.051759 kJ/mol
# GULP energy per Si atom -5568.314117 kJ/mol
# Density = 1.964131 g / cm^3
# Si number density = 19.686112 Si / 1000 Ang^3
#
#
#
# Elastic Constant Matrix: (Units=GPa)
#
#
# Indices 1 2 3 4 5 6 
#
# 1 48.7378 3.7611 -1.2758 0.0026 5.3221 -0.0030
# 2 3.7611 30.6451 5.0666 0.0015 -5.0825 -0.0019
# 3 -1.2758 5.0666 71.1156 0.0037 5.0496 -0.0036
# 4 0.0026 0.0015 0.0037 20.9520 -0.0022 8.4900
# 5 5.3221 -5.0825 5.0496 -0.0022 29.0741 0.0025
# 6 -0.0030 -0.0019 -0.0036 8.4900 0.0025 -24.7498
#
#
#
# Elastic Compliance Matrix: (Units=1/GPa)
#
#
# Indices 1 2 3 4 5 6 
#
# 1 0.021330 -0.003557 0.000969 -0.000002 -0.004695 -0.000003
# 2 -0.003557 0.034778 -0.003057 0.000000 0.007262 -0.000001
# 3 0.000969 -0.003057 0.014526 -0.000002 -0.003235 -0.000003
# 4 -0.000002 0.000000 -0.000002 0.041904 0.000002 0.014374
# 5 -0.004695 0.007262 -0.003235 0.000002 0.037085 0.000005
# 6 -0.000003 -0.000001 -0.000003 0.014374 0.000005 -0.035473
#
#
# Mechanical properties :
#
#
# Convention : Reuss Voigt Hill
#
# Bulk Modulus (GPa) = 16.85038 18.40025 17.62532
# Shear Modulus (GPa) = 34.43019 14.58503 24.50761
#
# Velocity S-wave (km/s) = 4.18659 2.72486 3.53217
# Velocity P-wave (km/s) = 5.65227 4.38941 5.06039
#
# Compressibility (1/GPa) = 0.05934584
#
# Stress axis : x y z
#
# Youngs Moduli (GPa) = 46.88127 28.75390 68.83972
#
# Poissons Ratio (x) = 0.10227 -0.06673
# Poissons Ratio (y) = 0.16675 0.21045
# Poissons Ratio (z) = -0.04545 0.08791
#
# Static dielectric constant tensor:
#      x y z
#    x 1.758650 0.000000 -0.058180 
#    y 0.000000 1.757200 0.000000 
#    z -0.058180 0.000000 1.860250 
# 
# From -- ./inp_files/240685.got.cif
#   From: 2010.05.17/outbox.cif.g08.bks.cpg/sg15_121_cif.got.tgz:240685.got - 2010.06.03 18:47:42.
