data_PCOD9257433
_publ_section_title
;
Structure prediction by ZEFSAII (Michael W. Deem and Ramdas Pophale) SiO2 
 PCOD9257433
Probable space group: C 2/C
;
_chemical_formula_sum "Si O2"
_cell_formula_units_Z 56
_cell_length_a 20.694086
_cell_length_b 11.879237
_cell_length_c 27.220407
_cell_angle_alpha 90.000000
_cell_angle_beta 30.437299
_cell_angle_gamma 90.000000
_cell_volume 3389.927689
_symmetry_space_group_name_H-M "C 2/C"
_symmetry_group_IT_number 15
_symmetry_cell_setting 'monoclinic'
loop_
_space_group_symop_operation_xyz
x,y,z
-x,y,1/2-z
-x,-y,-z
x,-y,1/2+z
1/2+x,1/2+y,z
1/2-x,1/2+y,1/2-z
1/2-x,1/2-y,-z
1/2+x,1/2-y,1/2+z
loop_
_atom_site_type_symbol
_atom_site_label
_atom_site_fract_x
_atom_site_fract_y
_atom_site_fract_z
Si Si1 0.490058 0.514870 0.065836
Si Si2 0.789033 0.535369 0.732137
Si Si3 0.886664 0.349915 0.941849
Si Si4 0.398643 0.749986 0.104309
Si Si5 0.771791 0.893436 0.541861
Si Si6 0.652849 0.877357 0.721580
Si Si7 0.027976 0.599661 0.444738
O O1 0.362625 0.451749 0.167689
O O2 0.463485 0.647294 0.090378
O O3 0.500000 0.500000 0.000000
O O4 0.612378 0.468831 0.014087
O O5 0.857786 0.645159 0.665248
O O6 0.830330 0.494715 0.759430
O O7 0.834498 0.428322 0.668756
O O8 0.794812 0.420550 0.966348
O O9 0.017322 0.327462 0.826248
O O10 0.931477 0.408417 0.962353
O O11 0.823207 0.233037 0.999524
O O12 0.270610 0.700076 0.162979
O O13 0.494452 0.790048 0.998003
O O14 0.669931 0.892625 0.652671
O O15 0.000000 0.500000 0.500000
#
# Coordination Sequence:
#
# PCOD9257433 Si02
#       7
#     8   8   8   8   8   8   8
#     4  11  19  32  49  75 110 137 174 218 257 313
#     4   9  19  31  50  75 103 141 174 220 260 312
#     4  10  20  32  52  75 109 140 169 207 268 321
#     4  10  18  31  54  76 105 135 179 217 266 306
#     4  11  20  33  49  79 111 138 170 213 267 318
#     4  10  18  33  50  76 107 138 174 217 256 326
#     4   9  17  33  53  74 101 132 178 215 256 310
#
# _framework density 16.519527
#
# number of rings (size 3 to 8) (size 9 to 14) (size 15 to 20)
#    0.000    2.000    4.286    1.286    0.000    2.286 
#    0.000    0.000    0.000    7.714    0.000    0.000 
#    0.000    0.000    0.000    0.000    0.000    0.000 
#
# Total GULP energy -155908.137998 kJ/mol
# GULP energy per Si atom -5568.147786 kJ/mol
# Density = 1.648193 g / cm^3
# Si number density = 16.519527 Si / 1000 Ang^3
#
#
#
# Elastic Constant Matrix: (Units=GPa)
#
#
# Indices 1 2 3 4 5 6 
#
# 1 84.6215 31.3330 33.4788 0.0000 10.4217 0.0000
# 2 31.3330 64.3133 23.0564 -0.0001 9.3583 0.0000
# 3 33.4788 23.0564 89.2735 -0.0004 10.2330 0.0000
# 4 0.0000 -0.0001 -0.0004 27.9648 -0.0001 -0.1547
# 5 10.4217 9.3583 10.2330 -0.0001 20.2630 0.0000
# 6 0.0000 0.0000 0.0000 -0.1547 0.0000 17.9434
#
#
#
# Elastic Compliance Matrix: (Units=1/GPa)
#
#
# Indices 1 2 3 4 5 6 
#
# 1 0.016029 -0.005831 -0.004107 0.000000 -0.003477 0.000000
# 2 -0.005831 0.019980 -0.002398 0.000000 -0.005017 0.000000
# 3 -0.004107 -0.002398 0.013790 0.000000 -0.003744 0.000000
# 4 0.000000 0.000000 0.000000 0.035761 0.000000 0.000308
# 5 -0.003477 -0.005017 -0.003744 0.000000 0.055348 0.000000
# 6 0.000000 0.000000 0.000000 0.000308 0.000000 0.055734
#
#
# Mechanical properties :
#
#
# Convention : Reuss Voigt Hill
#
# Bulk Modulus (GPa) = 39.79766 45.99384 42.89575
# Shear Modulus (GPa) = 21.76855 23.25691 22.51273
#
# Velocity S-wave (km/s) = 3.63402 3.75619 3.69561
# Velocity P-wave (km/s) = 6.46155 6.83480 6.65080
#
# Compressibility (1/GPa) = 0.02512711
#
# Stress axis : x y z
#
# Youngs Moduli (GPa) = 62.38518 50.05106 72.51539
#
# Poissons Ratio (x) = 0.29186 0.29780
# Poissons Ratio (y) = 0.36378 0.17391
# Poissons Ratio (z) = 0.25620 0.12003
#
# Static dielectric constant tensor:
#      x y z
#    x 1.562650 0.000000 0.007080 
#    y 0.000000 1.570500 0.000000 
#    z 0.007080 0.000000 1.607690 
# 
# From -- ./inp_files/279777.got.cif
#   From: 2010.05.17/outbox.cif.g08.bks.cpg/sg15_140_cif.got.tgz:279777.got - 2010.06.03 18:47:42.
