data_PCOD9257199
_publ_section_title
;
Structure prediction by ZEFSAII (Michael W. Deem and Ramdas Pophale) SiO2 
 PCOD9257199
Probable space group: C 2/C
;
_chemical_formula_sum "Si O2"
_cell_formula_units_Z 44
_cell_length_a 16.282566
_cell_length_b 6.071180
_cell_length_c 18.407965
_cell_angle_alpha 90.000000
_cell_angle_beta 110.065057
_cell_angle_gamma 90.000000
_cell_volume 1709.258520
_symmetry_space_group_name_H-M "C 2/C"
_symmetry_group_IT_number 15
_symmetry_cell_setting 'monoclinic'
loop_
_space_group_symop_operation_xyz
x,y,z
-x,y,1/2-z
-x,-y,-z
x,-y,1/2+z
1/2+x,1/2+y,z
1/2-x,1/2+y,1/2-z
1/2-x,1/2-y,-z
1/2+x,1/2-y,1/2+z
loop_
_atom_site_type_symbol
_atom_site_label
_atom_site_fract_x
_atom_site_fract_y
_atom_site_fract_z
Si Si1 0.594989 0.269170 0.380805
Si Si2 0.967978 0.625088 0.877336
Si Si3 0.387831 0.652666 0.009756
Si Si4 0.207910 0.625991 0.735781
Si Si5 0.000000 0.058746 0.250000
Si Si6 0.284567 0.090903 0.604770
O O1 0.591458 0.417112 0.450909
O O2 0.578169 0.401313 0.301542
O O3 0.517877 0.091159 0.364943
O O4 0.689538 0.156899 0.406781
O O5 0.864313 0.600526 0.849186
O O6 0.022347 0.712997 0.963048
O O7 0.979984 0.805030 0.816525
O O8 0.331413 0.766513 0.057247
O O9 0.318917 0.635517 0.923921
O O10 0.252412 0.377932 0.756014
O O11 0.168892 0.636645 0.805400
#
# Coordination Sequence:
#
# PCOD9257199 Si02
#       6
#     8   8   8   8   4   8
#     4  10  18  32  64  92 123 155 199 278 334 376
#     4  10  21  38  57  92 119 162 218 259 329 373
#     4   9  20  37  70  96 125 154 200 290 332 381
#     4  12  29  45  64  89 131 185 222 261 306 388
#     4  10  18  30  60  90 122 156 198 286 318 382
#     4  10  21  40  61 100 126 160 216 258 337 380
#
# _framework density 25.742158
#
# number of rings (size 3 to 8) (size 9 to 14) (size 15 to 20)
#    0.000    1.818    0.000    5.455   10.182    0.000 
#    0.000    1.818    0.000    0.000    0.000    0.000 
#    0.000    0.000    0.000    0.000    0.000    0.000 
#
# Total GULP energy -122792.569162 kJ/mol
# GULP energy per Si atom -5581.480416 kJ/mol
# Density = 2.568357 g / cm^3
# Si number density = 25.742158 Si / 1000 Ang^3
#
#
#
# Elastic Constant Matrix: (Units=GPa)
#
#
# Indices 1 2 3 4 5 6 
#
# 1 46.1594 41.6976 36.9128 0.0000 29.6045 0.0000
# 2 41.6976 146.7753 32.6505 0.0000 23.6668 0.0000
# 3 36.9128 32.6505 75.3515 0.0000 43.2489 0.0000
# 4 0.0000 0.0000 0.0000 18.1161 0.0000 -22.7676
# 5 29.6045 23.6668 43.2489 0.0000 60.2331 0.0000
# 6 0.0000 0.0000 0.0000 -22.7676 0.0000 -7.0435
#
#
#
# Elastic Compliance Matrix: (Units=1/GPa)
#
#
# Indices 1 2 3 4 5 6 
#
# 1 0.046481 -0.008642 -0.013373 0.000000 -0.009847 0.000000
# 2 -0.008642 0.009186 -0.000192 0.000000 0.000776 0.000000
# 3 -0.013373 -0.000192 0.027369 0.000000 -0.013003 0.000000
# 4 0.000000 0.000000 0.000000 0.010904 0.000000 -0.035246
# 5 -0.009847 0.000776 -0.013003 0.000000 0.030474 0.000000
# 6 0.000000 0.000000 0.000000 -0.035246 0.000000 -0.028045
#
#
# Mechanical properties :
#
#
# Convention : Reuss Voigt Hill
#
# Bulk Modulus (GPa) = 25.89294 54.53423 40.21358
# Shear Modulus (GPa) = 32.54021 24.72950 28.63485
#
# Velocity S-wave (km/s) = 3.55925 3.10282 3.33884
# Velocity P-wave (km/s) = 5.19340 5.83673 5.52444
#
# Compressibility (1/GPa) = 0.03862057
#
# Stress axis : x y z
#
# Youngs Moduli (GPa) = 21.51439 108.86270 36.53780
#
# Poissons Ratio (x) = 0.94080 0.48861
# Poissons Ratio (y) = 0.18593 0.00703
# Poissons Ratio (z) = 0.28771 0.02095
#
# Static dielectric constant tensor:
#      x y z
#    x 2.123700 0.000000 0.068220 
#    y 0.000000 2.105440 0.000000 
#    z 0.068220 0.000000 1.992950 
# 
# From -- ./inp_files/246390.got.cif
#   From: 2010.05.17/outbox.cif.g08.bks.cpg/sg15_124_cif.got.tgz:246390.got - 2010.06.03 18:47:42.
