data_PCOD9257735
_publ_section_title
;
Structure prediction by ZEFSAII (Michael W. Deem and Ramdas Pophale) SiO2 
 PCOD9257735
Probable space group: C 2/C
;
_chemical_formula_sum "Si O2"
_cell_formula_units_Z 48
_cell_length_a 7.853973
_cell_length_b 14.495839
_cell_length_c 23.632811
_cell_angle_alpha 90.000000
_cell_angle_beta 136.541060
_cell_angle_gamma 90.000000
_cell_volume 1850.683459
_symmetry_space_group_name_H-M "C 2/C"
_symmetry_group_IT_number 15
_symmetry_cell_setting 'monoclinic'
loop_
_space_group_symop_operation_xyz
x,y,z
-x,y,1/2-z
-x,-y,-z
x,-y,1/2+z
1/2+x,1/2+y,z
1/2-x,1/2+y,1/2-z
1/2-x,1/2-y,-z
1/2+x,1/2-y,1/2+z
loop_
_atom_site_type_symbol
_atom_site_label
_atom_site_fract_x
_atom_site_fract_y
_atom_site_fract_z
Si Si1 0.263506 0.077730 0.295388
Si Si2 0.948468 0.749865 0.927899
Si Si3 0.031898 0.927079 0.621614
Si Si4 0.663439 0.124388 0.702093
Si Si5 0.130932 0.128145 0.628342
Si Si6 0.951628 0.671421 0.441186
O O1 0.260829 0.969822 0.310115
O O2 0.000000 0.123407 0.250000
O O3 0.239175 0.076059 0.221519
O O4 0.470451 0.124231 0.384387
O O5 0.890215 0.857759 0.909130
O O6 0.855160 0.704946 0.847531
O O7 0.250000 0.750000 0.000000
O O8 0.869832 0.685133 0.961492
O O9 0.781598 0.885091 0.588892
O O10 0.987165 0.031217 0.590595
O O11 0.397720 0.103289 0.665419
O O12 0.831417 0.149888 0.796121
O O13 0.074063 0.220607 0.580468
#
# Coordination Sequence:
#
# PCOD9257735 Si02
#       6
#     8   8   8   8   8   8
#     4   9  19  34  56  77 104 143 181 226 275 321
#     4  10  18  32  52  82 108 142 182 219 273 332
#     4   9  18  32  53  81 104 134 186 226 259 317
#     4  10  19  33  55  81 106 137 187 227 269 327
#     4  10  19  32  58  79 103 140 184 228 264 316
#     4  10  19  33  54  79 104 143 179 216 275 328
#
# _framework density 25.936364000000001
#
# number of rings (size 3 to 8) (size 9 to 14) (size 15 to 20)
#    0.000    2.333    3.333    1.000    4.667    1.333 
#    0.000    0.000   18.333    1.000    0.000    0.000 
#    0.000    0.000    0.000    0.000    0.000    0.000 
#
# Total GULP energy -133953.004338 kJ/mol
# GULP energy per Si atom -5581.375181 kJ/mol
# Density = 2.587733 g / cm^3
# Si number density = 25.936364 Si / 1000 Ang^3
#
#
#
# Elastic Constant Matrix: (Units=GPa)
#
#
# Indices 1 2 3 4 5 6 
#
# 1 102.6104 27.7611 5.4848 0.0000 2.6360 0.0000
# 2 27.7611 156.1907 49.6007 0.0000 -10.4830 0.0000
# 3 5.4848 49.6007 75.6347 0.0001 -4.4786 0.0000
# 4 0.0000 0.0000 0.0001 5.1648 0.0000 -3.3276
# 5 2.6360 -10.4830 -4.4786 0.0000 9.1735 0.0000
# 6 0.0000 0.0000 0.0000 -3.3276 0.0000 31.0162
#
#
#
# Elastic Compliance Matrix: (Units=1/GPa)
#
#
# Indices 1 2 3 4 5 6 
#
# 1 0.010508 -0.002390 0.000479 0.000000 -0.005517 0.000000
# 2 -0.002390 0.009071 -0.005273 0.000000 0.008478 0.000000
# 3 0.000479 -0.005273 0.016765 0.000000 0.002021 0.000000
# 4 0.000000 0.000000 0.000000 0.207997 0.000000 0.022315
# 5 -0.005517 0.008478 0.002021 0.000000 0.121270 0.000000
# 6 0.000000 0.000000 0.000000 0.022315 0.000000 0.034635
#
#
# Mechanical properties :
#
#
# Convention : Reuss Voigt Hill
#
# Bulk Modulus (GPa) = 45.50733 55.56988 50.53861
# Shear Modulus (GPa) = 11.85000 25.84350 18.84675
#
# Velocity S-wave (km/s) = 2.13981 3.16004 2.69858
# Velocity P-wave (km/s) = 4.86713 5.89800 5.40719
#
# Compressibility (1/GPa) = 0.02197448
#
# Stress axis : x y z
#
# Youngs Moduli (GPa) = 95.16224 110.24311 59.64960
#
# Poissons Ratio (x) = 0.26348 -0.02855
# Poissons Ratio (y) = 0.22744 0.31455
# Poissons Ratio (z) = -0.04555 0.58134
#
# Static dielectric constant tensor:
#      x y z
#    x 2.263460 0.000000 0.052970 
#    y 0.000000 1.981690 0.000000 
#    z 0.052970 0.000000 2.070800 
# 
# From -- ./inp_files/292103.got.cif
#   From: 2010.05.17/outbox.cif.g08.bks.cpg/sg15_147_cif.got.tgz:292103.got - 2010.06.03 18:47:42.
