data_PCOD9257737
_publ_section_title
;
Structure prediction by ZEFSAII (Michael W. Deem and Ramdas Pophale) SiO2 
 PCOD9257737
Probable space group: C 2/C
;
_chemical_formula_sum "Si O2"
_cell_formula_units_Z 56
_cell_length_a 7.150871
_cell_length_b 21.530525
_cell_length_c 23.678165
_cell_angle_alpha 90.000000
_cell_angle_beta 54.190849
_cell_angle_gamma 90.000000
_cell_volume 2956.423184
_symmetry_space_group_name_H-M "C 2/C"
_symmetry_group_IT_number 15
_symmetry_cell_setting 'monoclinic'
loop_
_space_group_symop_operation_xyz
x,y,z
-x,y,1/2-z
-x,-y,-z
x,-y,1/2+z
1/2+x,1/2+y,z
1/2-x,1/2+y,1/2-z
1/2-x,1/2-y,-z
1/2+x,1/2-y,1/2+z
loop_
_atom_site_type_symbol
_atom_site_label
_atom_site_fract_x
_atom_site_fract_y
_atom_site_fract_z
Si Si1 0.834185 0.965418 0.485683
Si Si2 0.847511 0.493422 0.095447
Si Si3 0.320264 0.857257 0.232557
Si Si4 0.165240 0.251449 0.600938
Si Si5 0.983650 0.356997 0.423807
Si Si6 0.498591 0.328095 0.034948
Si Si7 0.000000 0.747696 0.250000
Si Si8 0.500000 0.458348 0.250000
O O1 0.812854 0.003082 0.430746
O O2 0.937068 0.897300 0.457339
O O3 0.573756 0.963911 0.556924
O O4 0.000000 0.000000 0.500000
O O5 0.691179 0.493654 0.179226
O O6 0.954935 0.424522 0.062859
O O7 0.500000 0.855263 0.250000
O O8 0.459639 0.869917 0.151366
O O9 0.129451 0.911337 0.270362
O O10 0.192209 0.793195 0.242566
O O11 0.346147 0.195688 0.582814
O O12 0.292722 0.300578 0.538828
O O13 0.975784 0.216850 0.594139
O O14 0.094869 0.280528 0.674346
O O15 0.722858 0.333034 0.466909
#
# Coordination Sequence:
#
# PCOD9257737 Si02
#       8
#     8   8   8   8   8   8   4   4
#     4  11  22  37  58  80 111 152 188 225 274 332
#     4  10  21  36  56  82 112 145 183 234 278 328
#     4   9  17  26  49  79 108 138 166 220 282 332
#     4  10  21  35  54  82 110 144 175 234 270 333
#     4  10  18  32  52  82 111 134 177 228 277 321
#     4  11  21  34  57  82 109 143 190 220 276 328
#     4   9  18  34  50  74 112 142 176 217 286 320
#     4   9  20  32  52  80 112 138 176 233 284 322
#
# _framework density 18.941808999999999
#
# number of rings (size 3 to 8) (size 9 to 14) (size 15 to 20)
#    0.000    2.000    2.857    2.143    2.000    0.000 
#    0.000    0.000    3.143    0.000    0.000    0.000 
#    0.000    0.000    0.000    0.000    0.000    0.000 
#
# Total GULP energy -155927.314097 kJ/mol
# GULP energy per Si atom -5568.832646 kJ/mol
# Density = 1.889870 g / cm^3
# Si number density = 18.941809 Si / 1000 Ang^3
#
#
#
# Elastic Constant Matrix: (Units=GPa)
#
#
# Indices 1 2 3 4 5 6 
#
# 1 110.7512 -1.6801 2.3585 0.0000 11.9317 0.0000
# 2 -1.6801 14.5489 -2.1533 0.0000 0.7741 0.0000
# 3 2.3585 -2.1533 78.9737 0.0000 7.4640 0.0000
# 4 0.0000 0.0000 0.0000 18.0618 0.0000 -0.6126
# 5 11.9317 0.7741 7.4640 0.0000 27.3110 0.0000
# 6 0.0000 0.0000 0.0000 -0.6126 0.0000 17.0735
#
#
#
# Elastic Compliance Matrix: (Units=1/GPa)
#
#
# Indices 1 2 3 4 5 6 
#
# 1 0.009502 0.001345 0.000153 0.000000 -0.004231 0.000000
# 2 0.001345 0.069374 0.002148 0.000000 -0.003141 0.000000
# 3 0.000153 0.002148 0.013066 0.000000 -0.003699 0.000000
# 4 0.000000 0.000000 0.000000 0.055433 0.000000 0.001989
# 5 -0.004231 -0.003141 -0.003699 0.000000 0.039564 0.000000
# 6 0.000000 0.000000 0.000000 0.001989 0.000000 0.058642
#
#
# Mechanical properties :
#
#
# Convention : Reuss Voigt Hill
#
# Bulk Modulus (GPa) = 10.07714 22.36933 16.22324
# Shear Modulus (GPa) = 18.42529 26.20587 22.31558
#
# Velocity S-wave (km/s) = 3.12225 3.72357 3.43609
# Velocity P-wave (km/s) = 4.28130 5.50652 4.93210
#
# Compressibility (1/GPa) = 0.09923452
#
# Stress axis : x y z
#
# Youngs Moduli (GPa) = 105.23828 14.41462 76.53448
#
# Poissons Ratio (x) = -0.01939 -0.01170
# Poissons Ratio (y) = -0.14155 -0.16442
# Poissons Ratio (z) = -0.01608 -0.03097
#
# Static dielectric constant tensor:
#      x y z
#    x 1.750420 0.000000 -0.018170 
#    y 0.000000 1.660110 0.000000 
#    z -0.018170 0.000000 1.763970 
# 
# From -- ./inp_files/261908.got.cif
#   From: 2010.05.17/outbox.cif.g08.bks.cpg/sg15_131_cif.got.tgz:261908.got - 2010.06.03 18:47:42.
