data_PCOD9257290
_publ_section_title
;
Structure prediction by ZEFSAII (Michael W. Deem and Ramdas Pophale) SiO2 
 PCOD9257290
Probable space group: C 2/C
;
_chemical_formula_sum "Si O2"
_cell_formula_units_Z 64
_cell_length_a 17.557056
_cell_length_b 23.182408
_cell_length_c 26.447299
_cell_angle_alpha 90.000000
_cell_angle_beta 160.185381
_cell_angle_gamma 90.000000
_cell_volume 3648.909104
_symmetry_space_group_name_H-M "C 2/C"
_symmetry_group_IT_number 15
_symmetry_cell_setting 'monoclinic'
loop_
_space_group_symop_operation_xyz
x,y,z
-x,y,1/2-z
-x,-y,-z
x,-y,1/2+z
1/2+x,1/2+y,z
1/2-x,1/2+y,1/2-z
1/2-x,1/2-y,-z
1/2+x,1/2-y,1/2+z
loop_
_atom_site_type_symbol
_atom_site_label
_atom_site_fract_x
_atom_site_fract_y
_atom_site_fract_z
Si Si1 0.159952 0.864959 0.118131
Si Si2 0.828768 0.484185 0.848472
Si Si3 0.914163 0.941016 0.644483
Si Si4 0.650559 0.168222 0.965028
Si Si5 0.717590 0.981554 0.357456
Si Si6 0.764923 0.214589 0.928704
Si Si7 0.967402 0.929256 0.084067
Si Si8 0.417155 0.960598 0.591000
O O1 0.403347 0.852246 0.294689
O O2 0.165421 0.928050 0.095727
O O3 0.127314 0.818699 0.052179
O O4 0.000238 0.875546 0.066814
O O5 0.628798 0.442978 0.742622
O O6 0.700725 0.543357 0.750682
O O7 0.965504 0.453061 0.889357
O O8 0.000000 0.500000 0.000000
O O9 0.801346 0.880324 0.585018
O O10 0.000000 0.968968 0.750000
O O11 0.717230 0.979293 0.498453
O O12 0.769775 0.180669 0.985198
O O13 0.640232 0.223354 0.995326
O O14 0.500000 0.956161 0.250000
O O15 0.868135 0.017134 0.489806
O O16 0.614107 0.027761 0.253922
O O17 0.500000 0.221226 0.750000
O O18 0.777658 0.919334 0.008636
#
# Coordination Sequence:
#
# PCOD9257290 Si02
#       8
#     8   8   8   8   8   8   8   8
#     4  11  19  32  53  74 109 146 175 223 284 321
#     4  11  21  33  47  73 111 155 189 211 257 325
#     4  11  20  30  50  70 103 152 182 217 261 326
#     4  10  19  34  49  74 106 135 185 224 278 327
#     4  10  18  31  50  77 110 144 178 212 266 332
#     4   9  20  32  50  74 102 136 176 237 278 331
#     4  10  22  31  52  78 108 152 185 220 265 333
#     4  10  20  34  46  75 111 147 182 222 255 321
#
# _framework density 17.539487999999999
#
# number of rings (size 3 to 8) (size 9 to 14) (size 15 to 20)
#    0.000    1.750    3.750    1.875    3.500    0.000 
#    0.000    0.000    0.000    0.000    0.000    0.000 
#    0.000   57.000    0.000    0.000    0.000    0.000 
#
# Total GULP energy -178263.548946 kJ/mol
# GULP energy per Si atom -5570.735905 kJ/mol
# Density = 1.749957 g / cm^3
# Si number density = 17.539488 Si / 1000 Ang^3
#
#
#
# Elastic Constant Matrix: (Units=GPa)
#
#
# Indices 1 2 3 4 5 6 
#
# 1 123.5652 18.5287 23.0680 -0.0099 18.4420 0.0254
# 2 18.5287 34.1159 11.0921 -0.0319 6.7243 -0.0074
# 3 23.0680 11.0921 70.1705 -0.1510 -11.4615 0.0556
# 4 -0.0099 -0.0319 -0.1510 10.5406 0.0011 -0.9355
# 5 18.4420 6.7243 -11.4615 0.0011 36.3055 0.0288
# 6 0.0254 -0.0074 0.0556 -0.9355 0.0288 14.4112
#
#
#
# Elastic Compliance Matrix: (Units=1/GPa)
#
#
# Indices 1 2 3 4 5 6 
#
# 1 0.010127 -0.003139 -0.003773 -0.000053 -0.005754 0.000003
# 2 -0.003139 0.034035 -0.005395 0.000029 -0.006412 0.000059
# 3 -0.003773 -0.005395 0.017735 0.000227 0.008515 -0.000067
# 4 -0.000053 0.000029 0.000227 0.095425 0.000086 0.006194
# 5 -0.005754 -0.006412 0.008515 0.000086 0.034342 -0.000089
# 6 0.000003 0.000059 -0.000067 0.006194 -0.000089 0.069793
#
#
# Mechanical properties :
#
#
# Convention : Reuss Voigt Hill
#
# Bulk Modulus (GPa) = 26.82237 37.02546 31.92392
# Shear Modulus (GPa) = 16.75045 23.92898 20.33971
#
# Velocity S-wave (km/s) = 3.09368 3.69764 3.40906
# Velocity P-wave (km/s) = 5.29971 6.27580 5.80829
#
# Compressibility (1/GPa) = 0.03728232
#
# Stress axis : x y z
#
# Youngs Moduli (GPa) = 98.74920 29.38149 56.38423
#
# Poissons Ratio (x) = 0.09224 0.21272
# Poissons Ratio (y) = 0.31000 0.30422
# Poissons Ratio (z) = 0.37255 0.15853
#
# Static dielectric constant tensor:
#      x y z
#    x 1.692670 0.000010 0.010020 
#    y 0.000010 1.591280 0.000000 
#    z 0.010020 0.000000 1.604210 
# 
# From -- ./inp_files/299598.got.cif
#   From: 2010.05.17/outbox.cif.g08.bks.cpg/sg15_150_cif.got.tgz:299598.got - 2010.06.03 18:47:42.
