data_PCOD9257005
_publ_section_title
;
Structure prediction by ZEFSAII (Michael W. Deem and Ramdas Pophale) SiO2 
 PCOD9257005
Probable space group: C 2/C
;
_chemical_formula_sum "Si O2"
_cell_formula_units_Z 40
_cell_length_a 32.097965
_cell_length_b 9.254924
_cell_length_c 5.539191
_cell_angle_alpha 90.000000
_cell_angle_beta 79.785540
_cell_angle_gamma 90.000000
_cell_volume 1619.415843
_symmetry_space_group_name_H-M "C 2/C"
_symmetry_group_IT_number 15
_symmetry_cell_setting 'monoclinic'
loop_
_space_group_symop_operation_xyz
x,y,z
-x,y,1/2-z
-x,-y,-z
x,-y,1/2+z
1/2+x,1/2+y,z
1/2-x,1/2+y,1/2-z
1/2-x,1/2-y,-z
1/2+x,1/2-y,1/2+z
loop_
_atom_site_type_symbol
_atom_site_label
_atom_site_fract_x
_atom_site_fract_y
_atom_site_fract_z
Si Si1 0.297010 0.277814 0.360443
Si Si2 0.359376 0.003143 0.262806
Si Si3 0.920837 0.847480 0.904997
Si Si4 0.048071 0.824050 0.126854
Si Si5 0.327028 0.317961 0.830462
O O1 0.250000 0.250000 0.500000
O O2 0.317159 0.364994 0.566424
O O3 0.326634 0.136163 0.301126
O O4 0.295758 0.339595 0.089072
O O5 0.332335 0.855457 0.293805
O O6 0.384108 0.998864 0.487465
O O7 0.941118 0.767969 0.652222
O O8 0.872633 0.871008 0.875004
O O9 0.943706 0.002780 0.907739
O O10 0.923853 0.779368 0.169316
O O11 0.000000 0.797423 0.250000
#
# Coordination Sequence:
#
# PCOD9257005 Si02
#       5
#     8   8   8   8   8
#     4  10  19  33  53  70  98 130 174 218 257 308
#     4   8  16  30  49  67  92 120 160 207 253 290
#     4  10  18  30  51  73 105 132 172 204 251 301
#     4  10  19  33  53  74 109 140 163 201 258 316
#     4  10  19  32  52  72 100 129 166 220 250 305
#
# _framework density 24.700267
#
# number of rings (size 3 to 8) (size 9 to 14) (size 15 to 20)
#    0.000    2.400    0.000    4.800    0.000    0.000 
#    0.000    0.000   79.200    0.000    0.000    0.000 
#    0.000  244.800    0.000    0.000    0.000    0.000 
#
# Total GULP energy -111594.593215 kJ/mol
# GULP energy per Si atom -5579.729661 kJ/mol
# Density = 2.464405 g / cm^3
# Si number density = 24.700267 Si / 1000 Ang^3
#
#
#
# Elastic Constant Matrix: (Units=GPa)
#
#
# Indices 1 2 3 4 5 6 
#
# 1 66.2648 -10.9065 3.2983 0.0000 -5.0090 0.0000
# 2 -10.9065 83.2674 1.4497 0.0000 5.5335 0.0000
# 3 3.2983 1.4497 248.1500 0.0000 13.9731 0.0000
# 4 0.0000 0.0000 0.0000 -23.0020 0.0000 12.8734
# 5 -5.0090 5.5335 13.9731 0.0000 50.6581 0.0000
# 6 0.0000 0.0000 0.0000 12.8734 0.0000 18.0762
#
#
#
# Elastic Compliance Matrix: (Units=1/GPa)
#
#
# Indices 1 2 3 4 5 6 
#
# 1 0.015532 0.001946 -0.000297 0.000000 0.001405 0.000000
# 2 0.001946 0.012341 -0.000033 0.000000 -0.001146 0.000000
# 3 -0.000297 -0.000033 0.004099 0.000000 -0.001156 0.000000
# 4 0.000000 0.000000 0.000000 -0.031085 0.000000 0.022138
# 5 0.001405 -0.001146 -0.001156 0.000000 0.020323 0.000000
# 6 0.000000 0.000000 0.000000 0.022138 0.000000 0.039555
#
#
# Mechanical properties :
#
#
# Convention : Reuss Voigt Hill
#
# Bulk Modulus (GPa) = 28.40558 42.81835 35.61196
# Shear Modulus (GPa) = 72.18190 36.06919 54.12554
#
# Velocity S-wave (km/s) = 5.41171 3.82550 4.68620
# Velocity P-wave (km/s) = 7.11153 6.07334 6.61284
#
# Compressibility (1/GPa) = 0.03520435
#
# Stress axis : x y z
#
# Youngs Moduli (GPa) = 64.38198 81.02943 243.95743
#
# Poissons Ratio (x) = -0.15770 0.07244
# Poissons Ratio (y) = -0.12530 0.00815
# Poissons Ratio (z) = 0.01912 0.00271
#
# Static dielectric constant tensor:
#      x y z
#    x 1.906220 0.000000 0.054710 
#    y 0.000000 2.076920 0.000000 
#    z 0.054710 0.000000 2.097460 
# 
# From -- ./inp_files/16723.got.cif
#   From: 2010.05.17/outbox.cif.g08.bks.cpg/sg15_9_cif.got.tgz:16723.got - 2010.06.03 18:47:42.
