data_PCOD9257980
_publ_section_title
;
Structure prediction by ZEFSAII (Michael W. Deem and Ramdas Pophale) SiO2 
 PCOD9257980
Probable space group: C 2/C
;
_chemical_formula_sum "Si O2"
_cell_formula_units_Z 44
_cell_length_a 7.271641
_cell_length_b 20.017628
_cell_length_c 12.537893
_cell_angle_alpha 90.000000
_cell_angle_beta 100.619360
_cell_angle_gamma 90.000000
_cell_volume 1793.771289
_symmetry_space_group_name_H-M "C 2/C"
_symmetry_group_IT_number 15
_symmetry_cell_setting 'monoclinic'
loop_
_space_group_symop_operation_xyz
x,y,z
-x,y,1/2-z
-x,-y,-z
x,-y,1/2+z
1/2+x,1/2+y,z
1/2-x,1/2+y,1/2-z
1/2-x,1/2-y,-z
1/2+x,1/2-y,1/2+z
loop_
_atom_site_type_symbol
_atom_site_label
_atom_site_fract_x
_atom_site_fract_y
_atom_site_fract_z
Si Si1 0.282036 0.608735 0.739628
Si Si2 0.000000 0.052355 0.250000
Si Si3 0.376193 0.625429 0.413965
Si Si4 0.691843 0.124503 0.973950
Si Si5 0.084905 0.733453 0.638526
Si Si6 0.273804 0.984865 0.434661
O O1 0.500000 0.597926 0.750000
O O2 0.230752 0.607581 0.855837
O O3 0.239576 0.679140 0.682841
O O4 0.160405 0.554928 0.662416
O O5 0.844756 0.097208 0.291151
O O6 0.919214 0.014231 0.138874
O O7 0.601217 0.636405 0.455896
O O8 0.320266 0.702695 0.406031
O O9 0.287130 0.571793 0.485948
O O10 0.562575 0.190806 0.951106
O O11 0.624390 0.053761 0.019891
O O12 0.000000 0.749567 0.750000
#
# Coordination Sequence:
#
# PCOD9257980 Si02
#       6
#     8   4   8   8   8   8
#     4  11  21  39  59  85 119 153 194 243 301 345
#     4  10  18  32  56  90 110 146 192 246 276 340
#     4  11  19  35  61  87 115 154 202 236 291 360
#     4  10  21  38  61  87 114 155 198 244 291 351
#     4  10  23  39  57  85 122 158 194 242 294 357
#     4  11  20  34  61  89 116 148 200 243 290 350
#
# _framework density 24.529326000000001
#
# number of rings (size 3 to 8) (size 9 to 14) (size 15 to 20)
#    0.000    1.455    3.636    3.818    0.000    1.455 
#    0.000    0.000    0.000    5.455    0.000    0.000 
#    0.000    0.000    0.000    0.000    0.000    0.000 
#
# Total GULP energy -122611.434417 kJ/mol
# GULP energy per Si atom -5573.247019 kJ/mol
# Density = 2.447350 g / cm^3
# Si number density = 24.529326 Si / 1000 Ang^3
#
#
#
# Elastic Constant Matrix: (Units=GPa)
#
#
# Indices 1 2 3 4 5 6 
#
# 1 51.2131 0.6678 0.1920 0.0000 7.6550 0.0000
# 2 0.6678 154.5028 38.1075 0.0000 -8.6329 0.0000
# 3 0.1920 38.1075 71.2637 0.0000 -0.8512 0.0000
# 4 0.0000 0.0000 0.0000 302.4968 0.0000 56.5346
# 5 7.6550 -8.6329 -0.8512 0.0000 29.6057 0.0000
# 6 0.0000 0.0000 0.0000 56.5346 0.0000 42.0698
#
#
#
# Elastic Compliance Matrix: (Units=1/GPa)
#
#
# Indices 1 2 3 4 5 6 
#
# 1 0.020335 -0.000413 0.000102 0.000000 -0.005375 0.000000
# 2 -0.000413 0.007592 -0.004032 0.000000 0.002205 0.000000
# 3 0.000102 -0.004032 0.016179 0.000000 -0.000737 0.000000
# 4 0.000000 0.000000 0.000000 0.004415 0.000000 -0.005932
# 5 -0.005375 0.002205 -0.000737 0.000000 0.035789 0.000000
# 6 0.000000 0.000000 0.000000 -0.005932 0.000000 0.031742
#
#
# Mechanical properties :
#
#
# Convention : Reuss Voigt Hill
#
# Bulk Modulus (GPa) = 28.23345 39.43492 33.83419
# Shear Modulus (GPa) = 36.61793 90.70196 63.65994
#
# Velocity S-wave (km/s) = 3.86790 6.08746 5.09989
# Velocity P-wave (km/s) = 5.61093 8.09451 6.96433
#
# Compressibility (1/GPa) = 0.03541898
#
# Stress axis : x y z
#
# Youngs Moduli (GPa) = 49.17692 131.71951 61.80661
#
# Poissons Ratio (x) = 0.05446 -0.00631
# Poissons Ratio (y) = 0.02033 0.24922
# Poissons Ratio (z) = -0.00502 0.53112
#
# Static dielectric constant tensor:
#      x y z
#    x 2.512940 0.000000 0.084990 
#    y 0.000000 2.113710 0.000000 
#    z 0.084990 0.000000 2.004130 
# 
# From -- ./inp_files/78392.got.cif
#   From: 2010.05.17/outbox.cif.g08.bks.cpg/sg15_40_cif.got.tgz:78392.got - 2010.06.03 18:47:42.
