data_PCOD9257173
_publ_section_title
;
Structure prediction by ZEFSAII (Michael W. Deem and Ramdas Pophale) SiO2 
 PCOD9257173
Probable space group: C 2/C
;
_chemical_formula_sum "Si O2"
_cell_formula_units_Z 56
_cell_length_a 17.172792
_cell_length_b 11.348990
_cell_length_c 14.224019
_cell_angle_alpha 90.000000
_cell_angle_beta 129.048027
_cell_angle_gamma 90.000000
_cell_volume 2152.920515
_symmetry_space_group_name_H-M "C 2/C"
_symmetry_group_IT_number 15
_symmetry_cell_setting 'monoclinic'
loop_
_space_group_symop_operation_xyz
x,y,z
-x,y,1/2-z
-x,-y,-z
x,-y,1/2+z
1/2+x,1/2+y,z
1/2-x,1/2+y,1/2-z
1/2-x,1/2-y,-z
1/2+x,1/2-y,1/2+z
loop_
_atom_site_type_symbol
_atom_site_label
_atom_site_fract_x
_atom_site_fract_y
_atom_site_fract_z
Si Si1 0.607832 0.563605 0.341782
Si Si2 0.625869 0.078438 0.705489
Si Si3 0.154178 0.898982 0.205090
Si Si4 0.962190 0.398622 0.555563
Si Si5 0.941385 0.144877 0.547088
Si Si6 0.175648 0.562194 0.931843
Si Si7 0.230159 0.314135 0.884870
O O1 0.500000 0.627264 0.250000
O O2 0.639602 0.504153 0.267768
O O3 0.579146 0.455260 0.390746
O O4 0.715003 0.613465 0.460008
O O5 0.743983 0.083965 0.773843
O O6 0.567962 0.137474 0.573342
O O7 0.571575 0.951636 0.651677
O O8 0.616001 0.129029 0.803630
O O9 0.172918 0.780175 0.279222
O O10 0.045808 0.882325 0.073994
O O11 0.953319 0.275221 0.602358
O O12 0.889615 0.507075 0.532698
O O13 0.835869 0.155291 0.414350
O O14 0.192059 0.439778 0.888452
O O15 0.250000 0.250000 0.000000
#
# Coordination Sequence:
#
# PCOD9257173 Si02
#       7
#     8   8   8   8   8   8   8
#     4   9  17  30  52  79 109 146 172 216 278 327
#     4  11  23  31  50  81 119 149 174 219 281 342
#     4  11  18  32  47  75 121 136 175 218 272 337
#     4  11  20  37  51  81 119 140 178 232 278 325
#     4  10  18  30  57  78 102 149 171 224 286 323
#     4  11  19  34  55  82 114 144 180 220 285 336
#     4  11  16  30  52  81 109 135 174 227 277 330
#
# _framework density 26.011178999999998
#
# number of rings (size 3 to 8) (size 9 to 14) (size 15 to 20)
#    0.000    1.429    7.143    1.286    0.000    2.286 
#    0.000    6.429    0.000    0.000    0.000   16.000 
#    0.000    0.000    0.000    0.000    0.000    0.000 
#
# Total GULP energy -156098.697588 kJ/mol
# GULP energy per Si atom -5574.953485 kJ/mol
# Density = 2.595198 g / cm^3
# Si number density = 26.011179 Si / 1000 Ang^3
#
#
#
# Elastic Constant Matrix: (Units=GPa)
#
#
# Indices 1 2 3 4 5 6 
#
# 1 109.5921 26.7909 34.9215 0.0000 40.7862 0.0000
# 2 26.7909 50.6940 17.5896 0.0000 2.1588 0.0000
# 3 34.9215 17.5896 135.8815 0.0000 17.8166 0.0000
# 4 0.0000 0.0000 0.0000 23.5253 0.0000 12.7368
# 5 40.7862 2.1588 17.8166 0.0000 32.9013 0.0000
# 6 0.0000 0.0000 0.0000 12.7368 0.0000 37.0876
#
#
#
# Elastic Compliance Matrix: (Units=1/GPa)
#
#
# Indices 1 2 3 4 5 6 
#
# 1 0.021132 -0.009797 -0.000874 0.000000 -0.025080 0.000000
# 2 -0.009797 0.025196 -0.002281 0.000000 0.011727 0.000000
# 3 -0.000874 -0.002281 0.008307 0.000000 -0.003265 0.000000
# 4 0.000000 0.000000 0.000000 0.052216 0.000000 -0.017932
# 5 -0.025080 0.011727 -0.003265 0.000000 0.062484 0.000000
# 6 0.000000 0.000000 0.000000 -0.017932 0.000000 0.033122
#
#
# Mechanical properties :
#
#
# Convention : Reuss Voigt Hill
#
# Bulk Modulus (GPa) = 34.80578 50.53016 42.66797
# Shear Modulus (GPa) = 21.01382 33.16053 27.08717
#
# Velocity S-wave (km/s) = 2.84540 3.57439 3.23052
# Velocity P-wave (km/s) = 4.91988 6.04181 5.50948
#
# Compressibility (1/GPa) = 0.02873086
#
# Stress axis : x y z
#
# Youngs Moduli (GPa) = 47.32108 39.68921 120.37326
#
# Poissons Ratio (x) = 0.38882 0.10524
# Poissons Ratio (y) = 0.46359 0.27462
# Poissons Ratio (z) = 0.04137 0.09055
#
# Static dielectric constant tensor:
#      x y z
#    x 2.159190 0.000000 -0.030640 
#    y 0.000000 2.183810 0.000000 
#    z -0.030640 0.000000 2.177310 
# 
# From -- ./inp_files/162331.got.cif
#   From: 2010.05.17/outbox.cif.g08.bks.cpg/sg15_82_cif.got.tgz:162331.got - 2010.06.03 18:47:42.
