data_PCOD9257117
_publ_section_title
;
Structure prediction by ZEFSAII (Michael W. Deem and Ramdas Pophale) SiO2 
 PCOD9257117
Probable space group: C 2/C
;
_chemical_formula_sum "Si O2"
_cell_formula_units_Z 64
_cell_length_a 25.116291
_cell_length_b 9.652656
_cell_length_c 19.334736
_cell_angle_alpha 90.000000
_cell_angle_beta 49.488160
_cell_angle_gamma 90.000000
_cell_volume 3563.768060
_symmetry_space_group_name_H-M "C 2/C"
_symmetry_group_IT_number 15
_symmetry_cell_setting 'monoclinic'
loop_
_space_group_symop_operation_xyz
x,y,z
-x,y,1/2-z
-x,-y,-z
x,-y,1/2+z
1/2+x,1/2+y,z
1/2-x,1/2+y,1/2-z
1/2-x,1/2-y,-z
1/2+x,1/2-y,1/2+z
loop_
_atom_site_type_symbol
_atom_site_label
_atom_site_fract_x
_atom_site_fract_y
_atom_site_fract_z
Si Si1 0.085457 0.507440 0.007477
Si Si2 0.179415 0.972277 0.883977
Si Si3 0.065694 0.618106 0.868360
Si Si4 0.815954 0.131963 0.868330
Si Si5 0.842974 0.124958 0.249967
Si Si6 0.186623 0.722195 0.383940
Si Si7 0.842949 0.257369 0.992496
Si Si8 0.661765 0.875037 0.750004
O O1 0.084487 0.587360 0.933645
O O2 0.150093 0.401330 0.955517
O O3 0.097885 0.625026 0.054218
O O4 0.016152 0.414557 0.069992
O O5 0.163134 0.960646 0.816520
O O6 0.262077 0.943750 0.823785
O O7 0.162757 0.125052 0.924492
O O8 0.144368 0.848787 0.955579
O O9 0.094732 0.764231 0.815194
O O10 0.105566 0.495566 0.794886
O O11 0.836165 0.164554 0.929962
O O12 0.849560 0.254526 0.794872
O O13 0.840080 0.985856 0.815142
O O14 0.731867 0.162736 0.933641
O O15 0.770374 0.210580 0.316441
O O16 0.164123 0.693695 0.323790
#
# Coordination Sequence:
#
# PCOD9257117 Si02
#       8
#     8   8   8   8   8   8   8   8
#     4  10  20  36  54  82 118 155 189 238 299 355
#     4  10  18  30  54  83 114 145 189 242 296 333
#     4  10  20  34  56  84 115 148 196 241 293 348
#     4  10  20  34  56  84 115 148 196 241 293 348
#     4  11  18  32  56  88 114 147 193 254 286 341
#     4  10  18  30  54  83 114 145 189 242 296 333
#     4  10  20  36  54  82 118 155 189 238 299 355
#     4   9  18  30  51  82 109 143 190 237 284 347
#
# _framework density 17.958518999999999
#
# number of rings (size 3 to 8) (size 9 to 14) (size 15 to 20)
#    0.000    2.000    5.000    0.000    0.000    0.000 
#    0.000    4.375    0.000    0.000    0.000    0.000 
#    0.000    0.000    0.000    0.000    0.000    0.000 
#
# Total GULP energy -178255.824713 kJ/mol
# GULP energy per Si atom -5570.494522 kJ/mol
# Density = 1.791764 g / cm^3
# Si number density = 17.958519 Si / 1000 Ang^3
#
#
#
# Elastic Constant Matrix: (Units=GPa)
#
#
# Indices 1 2 3 4 5 6 
#
# 1 29.8908 37.0877 15.3215 0.0000 -0.6343 -0.0003
# 2 37.0877 124.4331 43.1788 0.0001 0.3581 -0.0016
# 3 15.3215 43.1788 49.5629 -0.0003 1.6663 -0.0002
# 4 0.0000 0.0001 -0.0003 35.8403 0.0008 1.5159
# 5 -0.6343 0.3581 1.6663 0.0008 0.8334 -0.0003
# 6 -0.0003 -0.0016 -0.0002 1.5159 -0.0003 5.1402
#
#
#
# Elastic Compliance Matrix: (Units=1/GPa)
#
#
# Indices 1 2 3 4 5 6 
#
# 1 0.056447 -0.014643 -0.006806 -0.000002 0.062864 0.000002
# 2 -0.014643 0.015525 -0.009005 0.000000 0.000189 0.000004
# 3 -0.006806 -0.009005 0.032344 0.000002 -0.065982 -0.000007
# 4 -0.000002 0.000000 0.000002 0.028254 -0.000035 -0.008332
# 5 0.062864 0.000189 -0.065982 -0.000035 1.379668 0.000092
# 6 0.000002 0.000004 -0.000007 -0.008332 0.000092 0.197002
#
#
# Mechanical properties :
#
#
# Convention : Reuss Voigt Hill
#
# Bulk Modulus (GPa) = 23.03765 43.89587 33.46676
# Shear Modulus (GPa) = 2.80172 15.58269 9.19221
#
# Velocity S-wave (km/s) = 1.25040 2.94888 2.26488
# Velocity P-wave (km/s) = 3.86533 6.00754 5.05130
#
# Compressibility (1/GPa) = 0.04340721
#
# Stress axis : x y z
#
# Youngs Moduli (GPa) = 17.71579 64.41137 30.91791
#
# Poissons Ratio (x) = 0.94320 0.21042
# Poissons Ratio (y) = 0.25942 0.27842
# Poissons Ratio (z) = 0.12057 0.58003
#
# Static dielectric constant tensor:
#      x y z
#    x 1.610710 0.000000 0.001450 
#    y 0.000000 1.616740 0.000000 
#    z 0.001450 0.000000 1.640510 
# 
# From -- ./inp_files/255022.got.cif
#   From: 2010.05.17/outbox.cif.g08.bks.cpg/sg15_128_cif.got.tgz:255022.got - 2010.06.03 18:47:42.
