data_PCOD9257564
_publ_section_title
;
Structure prediction by ZEFSAII (Michael W. Deem and Ramdas Pophale) SiO2 
 PCOD9257564
Probable space group: C 2/C
;
_chemical_formula_sum "Si O2"
_cell_formula_units_Z 44
_cell_length_a 11.200235
_cell_length_b 25.834149
_cell_length_c 10.793974
_cell_angle_alpha 90.000000
_cell_angle_beta 145.558420
_cell_angle_gamma 90.000000
_cell_volume 1766.386285
_symmetry_space_group_name_H-M "C 2/C"
_symmetry_group_IT_number 15
_symmetry_cell_setting 'monoclinic'
loop_
_space_group_symop_operation_xyz
x,y,z
-x,y,1/2-z
-x,-y,-z
x,-y,1/2+z
1/2+x,1/2+y,z
1/2-x,1/2+y,1/2-z
1/2-x,1/2-y,-z
1/2+x,1/2-y,1/2+z
loop_
_atom_site_type_symbol
_atom_site_label
_atom_site_fract_x
_atom_site_fract_y
_atom_site_fract_z
Si Si1 0.120503 0.116417 0.041677
Si Si2 0.500000 0.844487 0.250000
Si Si3 0.665532 0.526872 0.731533
Si Si4 0.391161 0.067956 0.470227
Si Si5 0.601935 0.270444 0.448431
Si Si6 0.072558 0.196342 0.451557
O O1 0.318108 0.086204 0.269757
O O2 0.165009 0.167873 0.001648
O O3 0.007254 0.140455 0.066578
O O4 0.956979 0.078417 0.836493
O O5 0.607587 0.882780 0.440798
O O6 0.677610 0.810014 0.339374
O O7 0.500000 0.500000 0.500000
O O8 0.873915 0.545936 0.839302
O O9 0.745457 0.480385 0.887803
O O10 0.517089 0.265938 0.518835
O O11 0.347318 0.258768 0.167570
O O12 0.000000 0.205403 0.250000
#
# Coordination Sequence:
#
# PCOD9257564 Si02
#       6
#     8   4   8   8   8   8
#     4   9  19  38  65  92 138 186 238 295 363 431
#     4  12  18  34  66 104 138 190 242 302 372 432
#     4   9  18  34  54  93 143 191 238 286 351 427
#     4  10  18  31  60  94 141 189 237 288 356 429
#     4  10  23  49  73 100 138 188 238 304 385 458
#     4  10  21  40  72 103 139 181 238 307 374 443
#
# _framework density 24.909614000000001
#
# number of rings (size 3 to 8) (size 9 to 14) (size 15 to 20)
#    1.091    1.091    3.636    0.000    0.000    0.000 
#    9.818    6.364    0.000    0.000    0.000    0.000 
#    0.000    0.000    0.000    0.000    0.000    0.000 
#
# Total GULP energy -122675.387067 kJ/mol
# GULP energy per Si atom -5576.153958 kJ/mol
# Density = 2.485292 g / cm^3
# Si number density = 24.909614 Si / 1000 Ang^3
#
#
#
# Elastic Constant Matrix: (Units=GPa)
#
#
# Indices 1 2 3 4 5 6 
#
# 1 174.3316 60.8385 83.6522 0.0000 -1.3563 0.0000
# 2 60.8385 163.0704 76.8314 0.0000 1.3518 0.0000
# 3 83.6522 76.8314 161.9798 0.0000 7.0119 0.0000
# 4 0.0000 0.0000 0.0000 73.4366 0.0000 -52.9262
# 5 -1.3563 1.3518 7.0119 0.0000 42.7796 0.0000
# 6 0.0000 0.0000 0.0000 -52.9262 0.0000 112.7523
#
#
#
# Elastic Compliance Matrix: (Units=1/GPa)
#
#
# Indices 1 2 3 4 5 6 
#
# 1 0.007869 -0.001301 -0.003484 0.000000 0.000862 0.000000
# 2 -0.001301 0.008118 -0.003188 0.000000 0.000225 0.000000
# 3 -0.003484 -0.003188 0.009553 0.000000 -0.001576 0.000000
# 4 0.000000 0.000000 0.000000 0.020579 0.000000 0.009660
# 5 0.000862 0.000225 -0.001576 0.000000 0.023654 0.000000
# 6 0.000000 0.000000 0.000000 0.009660 0.000000 0.013403
#
#
# Mechanical properties :
#
#
# Convention : Reuss Voigt Hill
#
# Bulk Modulus (GPa) = 104.23981 104.66955 104.45468
# Shear Modulus (GPa) = 48.86571 64.33101 56.59836
#
# Velocity S-wave (km/s) = 4.43394 5.08742 4.77188
# Velocity P-wave (km/s) = 8.25537 8.75329 8.50797
#
# Compressibility (1/GPa) = 0.00959326
#
# Stress axis : x y z
#
# Youngs Moduli (GPa) = 127.08569 123.18025 104.67704
#
# Poissons Ratio (x) = 0.16031 0.36466
# Poissons Ratio (y) = 0.16540 0.33374
# Poissons Ratio (z) = 0.44272 0.39273
#
# Static dielectric constant tensor:
#      x y z
#    x 1.943640 0.000000 -0.009680 
#    y 0.000000 2.001320 0.000000 
#    z -0.009680 0.000000 2.053580 
# 
# From -- ./inp_files/212246.got.cif
#   From: 2010.05.17/outbox.cif.g08.bks.cpg/sg15_107_cif.got.tgz:212246.got - 2010.06.03 18:47:42.
