data_PCOD9257789
_publ_section_title
;
Structure prediction by ZEFSAII (Michael W. Deem and Ramdas Pophale) SiO2 
 PCOD9257789
Probable space group: C 2/C
;
_chemical_formula_sum "Si O2"
_cell_formula_units_Z 60
_cell_length_a 22.031772
_cell_length_b 14.780036
_cell_length_c 12.192042
_cell_angle_alpha 90.000000
_cell_angle_beta 49.574796
_cell_angle_gamma 90.000000
_cell_volume 3022.250528
_symmetry_space_group_name_H-M "C 2/C"
_symmetry_group_IT_number 15
_symmetry_cell_setting 'monoclinic'
loop_
_space_group_symop_operation_xyz
x,y,z
-x,y,1/2-z
-x,-y,-z
x,-y,1/2+z
1/2+x,1/2+y,z
1/2-x,1/2+y,1/2-z
1/2-x,1/2-y,-z
1/2+x,1/2-y,1/2+z
loop_
_atom_site_type_symbol
_atom_site_label
_atom_site_fract_x
_atom_site_fract_y
_atom_site_fract_z
Si Si1 0.618403 0.741625 0.226768
Si Si2 0.236517 0.643856 0.010597
Si Si3 0.662075 0.513946 0.998735
Si Si4 0.992666 0.607567 0.629932
Si Si5 0.739545 0.138852 0.452457
Si Si6 0.395692 0.942334 0.684661
Si Si7 0.000000 0.898180 0.750000
Si Si8 0.772844 0.529302 0.681022
O O1 0.571501 0.821126 0.340659
O O2 0.692114 0.690242 0.197014
O O3 0.551854 0.669372 0.266544
O O4 0.669304 0.794498 0.071743
O O5 0.306284 0.578698 0.980585
O O6 0.157274 0.615619 0.170869
O O7 0.250000 0.750000 0.000000
O O8 0.226772 0.615976 0.895233
O O9 0.689498 0.515145 0.840652
O O10 0.711784 0.594601 0.002332
O O11 0.569328 0.538637 0.118239
O O12 0.963360 0.503579 0.660973
O O13 0.000000 0.631576 0.750000
O O14 0.066470 0.612523 0.460603
O O15 0.709270 0.053077 0.422428
O O16 0.336969 0.016776 0.700562
#
# Coordination Sequence:
#
# PCOD9257789 Si02
#       8
#     8   8   8   8   8   8   4   8
#     4  10  18  32  53  86 113 141 191 238 291 342
#     4  10  21  40  59  83 115 157 209 245 286 363
#     4   9  20  39  57  85 115 158 195 241 310 362
#     4  11  20  35  57  85 123 150 184 249 304 360
#     4   9  19  35  56  82 119 147 192 247 289 350
#     4  10  22  36  57  85 117 156 193 237 314 357
#     4  10  20  34  58  84 120 146 182 246 304 354
#     4  10  19  38  61  78 113 159 195 244 295 354
#
# _framework density 19.852755999999999
#
# number of rings (size 3 to 8) (size 9 to 14) (size 15 to 20)
#    0.000    2.133    0.667    4.000    0.000    1.067 
#   16.800    7.333    4.400    0.000    0.000    0.000 
#    0.000    0.000    0.000    0.000    0.000    0.000 
#
# Total GULP energy -167085.893762 kJ/mol
# GULP energy per Si atom -5569.529792 kJ/mol
# Density = 1.980757 g / cm^3
# Si number density = 19.852756 Si / 1000 Ang^3
#
#
#
# Elastic Constant Matrix: (Units=GPa)
#
#
# Indices 1 2 3 4 5 6 
#
# 1 27.8859 4.5263 19.5013 0.0000 -15.2005 0.0000
# 2 4.5263 102.2666 26.6432 0.0000 -6.4038 0.0000
# 3 19.5013 26.6432 103.9589 0.0000 -21.4828 0.0000
# 4 0.0000 0.0000 0.0000 20.8479 0.0000 -11.6871
# 5 -15.2005 -6.4038 -21.4828 0.0000 33.7516 0.0000
# 6 0.0000 0.0000 0.0000 -11.6871 0.0000 14.7993
#
#
#
# Elastic Compliance Matrix: (Units=1/GPa)
#
#
# Indices 1 2 3 4 5 6 
#
# 1 0.050091 0.000427 -0.005558 0.000000 0.019102 0.000000
# 2 0.000427 0.010485 -0.002667 0.000000 0.000484 0.000000
# 3 -0.005558 -0.002667 0.012348 0.000000 0.004850 0.000000
# 4 0.000000 0.000000 0.000000 0.086070 0.000000 0.067971
# 5 0.019102 0.000484 0.004850 0.000000 0.041410 0.000000
# 6 0.000000 0.000000 0.000000 0.067971 0.000000 0.121248
#
#
# Mechanical properties :
#
#
# Convention : Reuss Voigt Hill
#
# Bulk Modulus (GPa) = 17.44399 37.27257 27.35828
# Shear Modulus (GPa) = 14.03089 26.10913 20.07001
#
# Velocity S-wave (km/s) = 2.66136 3.63042 3.18298
# Velocity P-wave (km/s) = 4.27195 6.03229 5.22676
#
# Compressibility (1/GPa) = 0.05732633
#
# Stress axis : x y z
#
# Youngs Moduli (GPa) = 19.96373 95.37767 80.98706
#
# Poissons Ratio (x) = -0.04075 0.45016
# Poissons Ratio (y) = -0.00853 0.21601
# Poissons Ratio (z) = 0.11097 0.25439
#
# Static dielectric constant tensor:
#      x y z
#    x 1.774080 0.000000 -0.016630 
#    y 0.000000 1.711790 0.000000 
#    z -0.016630 0.000000 1.723650 
# 
# From -- ./inp_files/118769.got.cif
#   From: 2010.05.17/outbox.cif.g08.bks.cpg/sg15_60_cif.got.tgz:118769.got - 2010.06.03 18:47:42.
