data_PCOD9257137
_publ_section_title
;
Structure prediction by ZEFSAII (Michael W. Deem and Ramdas Pophale) SiO2 
 PCOD9257137
Probable space group: C 2/C
;
_chemical_formula_sum "Si O2"
_cell_formula_units_Z 64
_cell_length_a 20.806231
_cell_length_b 15.754986
_cell_length_c 10.120077
_cell_angle_alpha 90.000000
_cell_angle_beta 100.435448
_cell_angle_gamma 90.000000
_cell_volume 3262.509445
_symmetry_space_group_name_H-M "C 2/C"
_symmetry_group_IT_number 15
_symmetry_cell_setting 'monoclinic'
loop_
_space_group_symop_operation_xyz
x,y,z
-x,y,1/2-z
-x,-y,-z
x,-y,1/2+z
1/2+x,1/2+y,z
1/2-x,1/2+y,1/2-z
1/2-x,1/2-y,-z
1/2+x,1/2-y,1/2+z
loop_
_atom_site_type_symbol
_atom_site_label
_atom_site_fract_x
_atom_site_fract_y
_atom_site_fract_z
Si Si1 0.447797 0.191658 0.417699
Si Si2 0.288433 0.960983 0.034949
Si Si3 0.657666 0.396793 0.909678
Si Si4 0.053538 0.363775 0.153872
Si Si5 0.651763 0.788574 0.370418
Si Si6 0.944742 0.935215 0.828254
Si Si7 0.631543 0.039313 0.207781
Si Si8 0.461232 0.381960 0.424701
O O1 0.515510 0.157410 0.505456
O O2 0.398510 0.200291 0.525344
O O3 0.413967 0.122765 0.310895
O O4 0.456819 0.287032 0.368599
O O5 0.302229 0.870064 0.109104
O O6 0.324034 0.027304 0.145307
O O7 0.211390 0.962847 0.979261
O O8 0.323112 0.959441 0.905409
O O9 0.685388 0.301656 0.902520
O O10 0.625458 0.416134 0.756470
O O11 0.597711 0.392020 0.990385
O O12 0.107982 0.296047 0.221447
O O13 0.086140 0.456340 0.171982
O O14 0.000000 0.362566 0.250000
O O15 0.000000 0.898793 0.750000
O O16 0.950747 0.036809 0.830412
O O17 0.969282 0.898672 0.976564
#
# Coordination Sequence:
#
# PCOD9257137 Si02
#       8
#     8   8   8   8   8   8   8   8
#     4   9  16  29  51  74 101 135 166 214 269 312
#     4  10  21  34  52  74 110 142 178 216 252 305
#     4  10  18  30  55  73  96 136 176 215 270 304
#     4   9  16  30  54  78 107 134 168 219 276 310
#     4   8  16  30  48  80  99 123 173 230 255 298
#     4   9  18  32  49  75 101 122 163 222 270 318
#     4  10  21  35  49  78 112 140 181 218 249 312
#     4   9  18  32  51  76 101 126 168 223 268 317
#
# _framework density 19.616800999999999
#
# number of rings (size 3 to 8) (size 9 to 14) (size 15 to 20)
#    0.000    2.750    0.000    2.250    1.750    3.000 
#    0.000    1.875    0.000    2.250    0.000    0.000 
#    0.000    0.000    0.000    0.000    0.000    0.000 
#
# Total GULP energy -178273.583085 kJ/mol
# GULP energy per Si atom -5571.049471 kJ/mol
# Density = 1.957215 g / cm^3
# Si number density = 19.616801 Si / 1000 Ang^3
#
#
#
# Elastic Constant Matrix: (Units=GPa)
#
#
# Indices 1 2 3 4 5 6 
#
# 1 43.8413 9.5728 30.4723 0.0000 24.6662 0.0000
# 2 9.5728 82.8177 23.5124 0.0000 17.6013 0.0000
# 3 30.4723 23.5124 52.4198 0.0000 25.3643 0.0000
# 4 0.0000 0.0000 0.0000 23.4073 0.0000 4.4952
# 5 24.6662 17.6013 25.3643 0.0000 32.4432 0.0000
# 6 0.0000 0.0000 0.0000 4.4952 0.0000 19.1618
#
#
#
# Elastic Compliance Matrix: (Units=1/GPa)
#
#
# Indices 1 2 3 4 5 6 
#
# 1 0.048736 0.004958 -0.018215 0.000000 -0.025503 0.000000
# 2 0.004958 0.014719 -0.006106 0.000000 -0.006981 0.000000
# 3 -0.018215 -0.006106 0.038765 0.000000 -0.013145 0.000000
# 4 0.000000 0.000000 0.000000 0.044737 0.000000 -0.010495
# 5 -0.025503 -0.006981 -0.013145 0.000000 0.064277 0.000000
# 6 0.000000 0.000000 0.000000 -0.010495 0.000000 0.054649
#
#
# Mechanical properties :
#
#
# Convention : Reuss Voigt Hill
#
# Bulk Modulus (GPa) = 15.74962 34.02152 24.88557
# Shear Modulus (GPa) = 15.34812 22.70389 19.02600
#
# Velocity S-wave (km/s) = 2.80017 3.40570 3.11767
# Velocity P-wave (km/s) = 4.30124 5.73113 5.06688
#
# Compressibility (1/GPa) = 0.06349360
#
# Stress axis : x y z
#
# Youngs Moduli (GPa) = 20.51886 67.93980 25.79670
#
# Poissons Ratio (x) = -0.33685 0.46988
# Poissons Ratio (y) = -0.10173 0.15752
# Poissons Ratio (z) = 0.37374 0.41486
#
# Static dielectric constant tensor:
#      x y z
#    x 1.706570 0.000000 0.004370 
#    y 0.000000 1.702950 0.000000 
#    z 0.004370 0.000000 1.715630 
# 
# From -- ./inp_files/118560.got.cif
#   From: 2010.05.17/outbox.cif.g08.bks.cpg/sg15_60_cif.got.tgz:118560.got - 2010.06.03 18:47:42.
