data_PCOD9257197
_publ_section_title
;
Structure prediction by ZEFSAII (Michael W. Deem and Ramdas Pophale) SiO2 
 PCOD9257197
Probable space group: C 2/C
;
_chemical_formula_sum "Si O2"
_cell_formula_units_Z 28
_cell_length_a 16.083320
_cell_length_b 10.312335
_cell_length_c 9.573832
_cell_angle_alpha 90.000000
_cell_angle_beta 39.649325
_cell_angle_gamma 90.000000
_cell_volume 1013.207664
_symmetry_space_group_name_H-M "C 2/C"
_symmetry_group_IT_number 15
_symmetry_cell_setting 'monoclinic'
loop_
_space_group_symop_operation_xyz
x,y,z
-x,y,1/2-z
-x,-y,-z
x,-y,1/2+z
1/2+x,1/2+y,z
1/2-x,1/2+y,1/2-z
1/2-x,1/2-y,-z
1/2+x,1/2-y,1/2+z
loop_
_atom_site_type_symbol
_atom_site_label
_atom_site_fract_x
_atom_site_fract_y
_atom_site_fract_z
Si Si1 0.586318 0.245663 0.925588
Si Si2 0.628377 0.898920 0.634266
Si Si3 0.630467 0.494232 0.003293
Si Si4 0.000000 0.755841 0.750000
O O1 0.629154 0.396634 0.873548
O O2 0.583177 0.200563 0.770686
O O3 0.444063 0.205445 0.172211
O O4 0.670214 0.168996 0.934772
O O5 0.500000 0.979859 0.750000
O O6 0.743561 0.962568 0.568857
O O7 0.500000 0.444049 0.250000
O O8 0.598361 0.645661 0.040424
#
# Coordination Sequence:
#
# PCOD9257197 Si02
#       4
#     8   8   8   4
#     4   9  18  31  55  80 109 140 186 222 271 327
#     4   8  18  33  59  78 103 148 193 212 261 344
#     4  10  18  30  60  82 103 141 196 220 258 333
#     4  10  20  32  54  88 110 134 182 238 276 308
#
# _framework density 27.635007000000002
#
# number of rings (size 3 to 8) (size 9 to 14) (size 15 to 20)
#    2.571    0.000    2.857    1.714    0.000    0.000 
#    0.000    1.429    0.000    5.143    0.000    0.000 
#    0.000    0.000    0.000    0.000    0.000    0.000 
#
# Total GULP energy -78003.410351 kJ/mol
# GULP energy per Si atom -5571.672168 kJ/mol
# Density = 2.757211 g / cm^3
# Si number density = 27.635007 Si / 1000 Ang^3
#
#
#
# Elastic Constant Matrix: (Units=GPa)
#
#
# Indices 1 2 3 4 5 6 
#
# 1 222.7930 60.7022 63.0222 0.0000 -3.0504 0.0000
# 2 60.7022 39.8196 24.8756 0.0000 11.7055 0.0000
# 3 63.0222 24.8756 83.4838 0.0000 -8.6190 0.0000
# 4 0.0000 0.0000 0.0000 13.2146 0.0000 -14.8266
# 5 -3.0504 11.7055 -8.6190 0.0000 66.0446 0.0000
# 6 0.0000 0.0000 0.0000 -14.8266 0.0000 16.9444
#
#
#
# Elastic Compliance Matrix: (Units=1/GPa)
#
#
# Indices 1 2 3 4 5 6 
#
# 1 0.008536 -0.012000 -0.002643 0.000000 0.002176 0.000000
# 2 -0.012000 0.051024 -0.007233 0.000000 -0.010542 0.000000
# 3 -0.002643 -0.007233 0.016470 0.000000 0.003309 0.000000
# 4 0.000000 0.000000 0.000000 4.147326 0.000000 3.628968
# 5 0.002176 -0.010542 0.003309 0.000000 0.017542 0.000000
# 6 0.000000 0.000000 0.000000 3.628968 0.000000 3.234415
#
#
# Mechanical properties :
#
#
# Convention : Reuss Voigt Hill
#
# Bulk Modulus (GPa) = 30.98121 71.47740 51.22931
# Shear Modulus (GPa) = 0.66403 32.40712 16.53557
#
# Velocity S-wave (km/s) = 0.49072 3.42816 2.44879
# Velocity P-wave (km/s) = 3.39945 6.44908 5.15495
#
# Compressibility (1/GPa) = 0.03227763
#
# Stress axis : x y z
#
# Youngs Moduli (GPa) = 117.15671 19.59849 60.71470
#
# Poissons Ratio (x) = 0.23519 0.16047
# Poissons Ratio (y) = 1.40593 0.43914
# Poissons Ratio (z) = 0.30966 0.14175
#
# Static dielectric constant tensor:
#      x y z
#    x 2.074020 0.000000 -0.035810 
#    y 0.000000 2.345950 0.000000 
#    z -0.035810 0.000000 2.125580 
# 
# From -- ./inp_files/37775.got.cif
#   From: 2010.05.17/outbox.cif.g08.bks.cpg/sg15_19_cif.got.tgz:37775.got - 2010.06.03 18:47:42.
