data_PCOD9257981
_publ_section_title
;
Structure prediction by ZEFSAII (Michael W. Deem and Ramdas Pophale) SiO2 
 PCOD9257981
Probable space group: C 2/C
;
_chemical_formula_sum "Si O2"
_cell_formula_units_Z 56
_cell_length_a 8.092894
_cell_length_b 19.076416
_cell_length_c 18.713384
_cell_angle_alpha 90.000000
_cell_angle_beta 110.421711
_cell_angle_gamma 90.000000
_cell_volume 2707.459698
_symmetry_space_group_name_H-M "C 2/C"
_symmetry_group_IT_number 15
_symmetry_cell_setting 'monoclinic'
loop_
_space_group_symop_operation_xyz
x,y,z
-x,y,1/2-z
-x,-y,-z
x,-y,1/2+z
1/2+x,1/2+y,z
1/2-x,1/2+y,1/2-z
1/2-x,1/2-y,-z
1/2+x,1/2-y,1/2+z
loop_
_atom_site_type_symbol
_atom_site_label
_atom_site_fract_x
_atom_site_fract_y
_atom_site_fract_z
Si Si1 0.088030 0.655390 0.614347
Si Si2 0.281961 0.823038 0.807774
Si Si3 0.650061 0.219747 0.398254
Si Si4 0.085147 0.932321 0.336269
Si Si5 0.761647 0.329812 0.973854
Si Si6 0.000000 0.294040 0.250000
Si Si7 0.051409 0.848664 0.474957
Si Si8 0.500000 0.432538 0.750000
O O1 0.211082 0.724717 0.616475
O O2 0.212478 0.588764 0.638657
O O3 0.948028 0.644489 0.531077
O O4 0.990182 0.665221 0.674528
O O5 0.490601 0.813087 0.829020
O O6 0.168535 0.885304 0.755540
O O7 0.174594 0.753415 0.771450
O O8 0.248320 0.834477 0.887380
O O9 0.763124 0.159749 0.454907
O O10 0.547580 0.270522 0.438911
O O11 0.031438 0.899311 0.403823
O O12 0.000000 0.900158 0.250000
O O13 0.952959 0.014046 0.178913
O O14 0.598638 0.364342 0.990603
O O15 0.750000 0.250000 0.000000
#
# Coordination Sequence:
#
# PCOD9257981 Si02
#       8
#     8   8   8   8   8   4   8   4
#     4  11  22  33  58  95 121 151 192 244 303 369
#     4  11  21  36  59  81 120 162 187 252 297 366
#     4  10  18  32  56  90 118 143 188 237 313 356
#     4   9  22  39  59  76 117 160 203 250 279 345
#     4  12  19  35  56  92 129 146 184 243 318 368
#     4  11  22  32  56  94 122 153 186 238 334 355
#     4  10  18  33  58  88 118 147 184 247 302 360
#     4   9  24  44  56  78 116 167 220 234 292 335
#
# _framework density 20.683595
#
# number of rings (size 3 to 8) (size 9 to 14) (size 15 to 20)
#    0.429    1.143    4.286    1.714    6.000    0.000 
#    0.000    3.571    0.000   13.714    0.000    0.000 
#    0.000    0.000    0.000    0.000    0.000    0.000 
#
# Total GULP energy -156098.135919 kJ/mol
# GULP energy per Si atom -5574.933426 kJ/mol
# Density = 2.063652 g / cm^3
# Si number density = 20.683595 Si / 1000 Ang^3
#
#
#
# Elastic Constant Matrix: (Units=GPa)
#
#
# Indices 1 2 3 4 5 6 
#
# 1 76.1638 15.3667 24.9135 0.0000 14.6522 0.0000
# 2 15.3667 39.1627 11.3087 0.0000 9.8600 0.0000
# 3 24.9135 11.3087 80.3432 0.0000 7.1922 0.0000
# 4 0.0000 0.0000 0.0000 2.1878 0.0000 -28.2266
# 5 14.6522 9.8600 7.1922 0.0000 51.8198 0.0000
# 6 0.0000 0.0000 0.0000 -28.2266 0.0000 -38.0019
#
#
#
# Elastic Compliance Matrix: (Units=1/GPa)
#
#
# Indices 1 2 3 4 5 6 
#
# 1 0.015922 -0.004291 -0.004054 0.000000 -0.003123 0.000000
# 2 -0.004291 0.028902 -0.002384 0.000000 -0.003955 0.000000
# 3 -0.004054 -0.002384 0.014071 0.000000 -0.000353 0.000000
# 4 0.000000 0.000000 0.000000 0.043190 0.000000 -0.032080
# 5 -0.003123 -0.003955 -0.000353 0.000000 0.020982 0.000000
# 6 0.000000 0.000000 0.000000 -0.032080 0.000000 -0.002486
#
#
# Mechanical properties :
#
#
# Convention : Reuss Voigt Hill
#
# Bulk Modulus (GPa) = 26.71005 33.20525 29.95765
# Shear Modulus (GPa) = 32.35902 12.80654 22.58278
#
# Velocity S-wave (km/s) = 3.95964 2.49100 3.30786
# Velocity P-wave (km/s) = 5.81779 4.93581 5.39485
#
# Compressibility (1/GPa) = 0.03743909
#
# Stress axis : x y z
#
# Youngs Moduli (GPa) = 62.80597 34.59939 71.06948
#
# Poissons Ratio (x) = 0.14845 0.28810
# Poissons Ratio (y) = 0.26948 0.16940
# Poissons Ratio (z) = 0.25460 0.08247
#
# Static dielectric constant tensor:
#      x y z
#    x 2.708430 0.000000 1.353000 
#    y 0.000000 1.738030 0.000000 
#    z 1.353000 0.000000 3.902720 
# 
# From -- ./inp_files/193074.got.cif
#   From: 2010.05.17/outbox.cif.g08.bks.cpg/sg15_97_cif.got.tgz:193074.got - 2010.06.03 18:47:42.
