data_PCOD9257353
_publ_section_title
;
Structure prediction by ZEFSAII (Michael W. Deem and Ramdas Pophale) SiO2 
 PCOD9257353
Probable space group: C 2/C
;
_chemical_formula_sum "Si O2"
_cell_formula_units_Z 48
_cell_length_a 9.726181
_cell_length_b 16.613627
_cell_length_c 19.901309
_cell_angle_alpha 90.000000
_cell_angle_beta 41.918131
_cell_angle_gamma 90.000000
_cell_volume 2148.370361
_symmetry_space_group_name_H-M "C 2/C"
_symmetry_group_IT_number 15
_symmetry_cell_setting 'monoclinic'
loop_
_space_group_symop_operation_xyz
x,y,z
-x,y,1/2-z
-x,-y,-z
x,-y,1/2+z
1/2+x,1/2+y,z
1/2-x,1/2+y,1/2-z
1/2-x,1/2-y,-z
1/2+x,1/2-y,1/2+z
loop_
_atom_site_type_symbol
_atom_site_label
_atom_site_fract_x
_atom_site_fract_y
_atom_site_fract_z
Si Si1 0.127170 0.670381 0.307347
Si Si2 0.798596 0.773514 0.558836
Si Si3 0.221163 0.928971 0.628674
Si Si4 0.743771 0.395142 0.152408
Si Si5 0.589616 0.817638 0.289480
Si Si6 0.039345 0.169644 0.083431
O O1 0.133374 0.622283 0.374956
O O2 0.205880 0.762074 0.292849
O O3 0.314180 0.639956 0.192851
O O4 0.906885 0.674342 0.353519
O O5 0.750000 0.750000 0.500000
O O6 0.798011 0.688803 0.597970
O O7 0.995676 0.818592 0.520101
O O8 0.000000 0.924532 0.750000
O O9 0.196009 0.888950 0.564560
O O10 0.285022 0.021425 0.600926
O O11 0.500000 0.391855 0.250000
O O12 0.852950 0.392169 0.185109
O O13 0.500000 0.836169 0.250000
O O14 0.441159 0.756184 0.385135
#
# Coordination Sequence:
#
# PCOD9257353 Si02
#       6
#     8   8   8   8   8   8
#     4   9  15  31  51  72  92 126 154 203 248 292
#     4  11  20  31  48  72  98 135 173 197 233 289
#     4   9  16  30  53  75  91 121 164 198 253 299
#     4  10  18  31  52  75  97 123 158 211 246 284
#     4   9  14  27  51  74  95 116 154 200 250 283
#     4   8  15  30  51  71  92 125 160 198 243 296
#
# _framework density 22.342514999999999
#
# number of rings (size 3 to 8) (size 9 to 14) (size 15 to 20)
#    1.000    1.667    3.333    0.500    0.000    0.000 
#    0.000    7.500    0.000    0.000    0.000    0.000 
#    0.000    0.000    0.000    0.000    0.000    0.000 
#
# Total GULP energy -133691.756264 kJ/mol
# GULP energy per Si atom -5570.489844 kJ/mol
# Density = 2.229166 g / cm^3
# Si number density = 22.342515 Si / 1000 Ang^3
#
#
#
# Elastic Constant Matrix: (Units=GPa)
#
#
# Indices 1 2 3 4 5 6 
#
# 1 182.1276 55.0210 18.4296 -0.0020 41.0128 0.0006
# 2 55.0210 92.8607 -4.4728 -0.0030 10.2229 0.0015
# 3 18.4296 -4.4728 30.1020 -0.0070 8.5438 0.0050
# 4 -0.0020 -0.0030 -0.0070 8.4544 0.0026 11.2554
# 5 41.0128 10.2229 8.5438 0.0026 41.1750 -0.0016
# 6 0.0006 0.0015 0.0050 11.2554 -0.0016 25.6332
#
#
#
# Elastic Compliance Matrix: (Units=1/GPa)
#
#
# Indices 1 2 3 4 5 6 
#
# 1 0.008868 -0.004709 -0.004201 -0.000004 -0.006792 0.000002
# 2 -0.004709 0.013763 0.004852 0.000024 0.000266 -0.000012
# 3 -0.004201 0.004852 0.037900 0.000107 -0.004884 -0.000055
# 4 -0.000004 0.000024 0.000107 0.284721 -0.000047 -0.125020
# 5 -0.006792 0.000266 -0.004884 -0.000047 0.031999 0.000024
# 6 0.000002 -0.000012 -0.000055 -0.125020 0.000024 0.093907
#
#
# Mechanical properties :
#
#
# Convention : Reuss Voigt Hill
#
# Bulk Modulus (GPa) = 19.07821 49.22732 34.15276
# Shear Modulus (GPa) = 10.06550 30.79333 20.42942
#
# Velocity S-wave (km/s) = 2.12482 3.71649 3.02714
# Velocity P-wave (km/s) = 3.81803 6.36375 5.24760
#
# Compressibility (1/GPa) = 0.05241583
#
# Stress axis : x y z
#
# Youngs Moduli (GPa) = 112.76726 72.65693 26.38530
#
# Poissons Ratio (x) = 0.34214 0.11085
# Poissons Ratio (y) = 0.53101 -0.12803
# Poissons Ratio (z) = 0.47375 -0.35256
#
# Static dielectric constant tensor:
#      x y z
#    x 1.807660 0.000000 -0.013310 
#    y 0.000000 1.785350 0.000000 
#    z -0.013310 0.000000 1.940570 
# 
# From -- ./inp_files/232009.got.cif
#   From: 2010.05.17/outbox.cif.g08.bks.cpg/sg15_117_cif.got.tgz:232009.got - 2010.06.03 18:47:42.
