data_PCOD9257558
_publ_section_title
;
Structure prediction by ZEFSAII (Michael W. Deem and Ramdas Pophale) SiO2 
 PCOD9257558
Probable space group: C 2/C
;
_chemical_formula_sum "Si O2"
_cell_formula_units_Z 48
_cell_length_a 14.496736
_cell_length_b 28.903280
_cell_length_c 8.753035
_cell_angle_alpha 90.000000
_cell_angle_beta 38.458846
_cell_angle_gamma 90.000000
_cell_volume 2281.041246
_symmetry_space_group_name_H-M "C 2/C"
_symmetry_group_IT_number 15
_symmetry_cell_setting 'monoclinic'
loop_
_space_group_symop_operation_xyz
x,y,z
-x,y,1/2-z
-x,-y,-z
x,-y,1/2+z
1/2+x,1/2+y,z
1/2-x,1/2+y,1/2-z
1/2-x,1/2-y,-z
1/2+x,1/2-y,1/2+z
loop_
_atom_site_type_symbol
_atom_site_label
_atom_site_fract_x
_atom_site_fract_y
_atom_site_fract_z
Si Si1 0.967933 0.196293 0.125239
Si Si2 0.397858 0.775055 0.750672
Si Si3 0.544066 0.596771 0.013321
Si Si4 0.162115 0.976238 0.129921
Si Si5 0.755875 0.436898 0.707193
Si Si6 0.355473 0.839640 0.527384
O O1 0.799341 0.177592 0.344607
O O2 0.000000 0.215845 0.250000
O O3 0.075572 0.151380 0.964177
O O4 0.003183 0.235175 0.957620
O O5 0.500000 0.795025 0.750000
O O6 0.356724 0.815567 0.689202
O O7 0.250000 0.750000 0.000000
O O8 0.500000 0.588059 0.250000
O O9 0.399622 0.590522 0.095681
O O10 0.647541 0.559571 0.792577
O O11 0.000000 0.982834 0.250000
O O12 0.226545 0.022920 0.121151
O O13 0.268962 0.958074 0.858178
O O14 0.864432 0.395339 0.527929
O O15 0.500000 0.823768 0.250000
#
# Coordination Sequence:
#
# PCOD9257558 Si02
#       6
#     8   8   8   8   8   8
#     4  10  23  41  67 100 132 177 220 271 328 400
#     4  12  26  44  71 100 137 169 220 272 338 398
#     4   9  17  31  56  92 130 163 213 270 327 378
#     4  10  18  31  59  89 132 166 222 274 325 382
#     4  10  20  35  57  90 123 170 216 268 326 384
#     4  11  26  46  66  95 137 179 220 272 336 401
#
# _framework density 21.043022000000001
#
# number of rings (size 3 to 8) (size 9 to 14) (size 15 to 20)
#    0.000    1.667    1.667    4.000    4.667    2.667 
#    0.000    2.500    0.000    0.000    0.000    0.000 
#    0.000    0.000    0.000    0.000    0.000    0.000 
#
# Total GULP energy -133762.616402 kJ/mol
# GULP energy per Si atom -5573.442350 kJ/mol
# Density = 2.099513 g / cm^3
# Si number density = 21.043022 Si / 1000 Ang^3
#
#
#
# Elastic Constant Matrix: (Units=GPa)
#
#
# Indices 1 2 3 4 5 6 
#
# 1 96.4050 34.2518 37.0830 0.0000 20.6015 0.0000
# 2 34.2518 112.9792 31.0339 0.0000 8.4524 0.0000
# 3 37.0830 31.0339 77.9104 0.0000 2.8306 0.0000
# 4 0.0000 0.0000 0.0000 52.7446 0.0000 91.8647
# 5 20.6015 8.4524 2.8306 0.0000 26.2819 0.0000
# 6 0.0000 0.0000 0.0000 91.8647 0.0000 235.5475
#
#
#
# Elastic Compliance Matrix: (Units=1/GPa)
#
#
# Indices 1 2 3 4 5 6 
#
# 1 0.015980 -0.002285 -0.006292 0.000000 -0.011114 0.000000
# 2 -0.002285 0.010472 -0.003038 0.000000 -0.001250 0.000000
# 3 -0.006292 -0.003038 0.016892 0.000000 0.004090 0.000000
# 4 0.000000 0.000000 0.000000 0.059113 0.000000 -0.023054
# 5 -0.011114 -0.001250 0.004090 0.000000 0.046722 0.000000
# 6 0.000000 0.000000 0.000000 -0.023054 0.000000 0.013237
#
#
# Mechanical properties :
#
#
# Convention : Reuss Voigt Hill
#
# Bulk Modulus (GPa) = 49.71880 54.67023 52.19451
# Shear Modulus (GPa) = 25.99428 75.24318 50.61873
#
# Velocity S-wave (km/s) = 3.51849 5.98619 4.90990
# Velocity P-wave (km/s) = 6.33915 8.59162 7.54986
#
# Compressibility (1/GPa) = 0.02011312
#
# Stress axis : x y z
#
# Youngs Moduli (GPa) = 62.57836 95.49304 59.20033
#
# Poissons Ratio (x) = 0.21818 0.37249
# Poissons Ratio (y) = 0.14298 0.17987
# Poissons Ratio (z) = 0.39375 0.29014
#
# Static dielectric constant tensor:
#      x y z
#    x 1.761840 0.000000 -0.016510 
#    y 0.000000 1.835300 0.000000 
#    z -0.016510 0.000000 1.842190 
# 
# From -- ./inp_files/43812.got.cif
#   From: 2010.05.17/outbox.cif.g08.bks.cpg/sg15_22_cif.got.tgz:43812.got - 2010.06.03 18:47:42.
