data_PCOD9257083
_publ_section_title
;
Structure prediction by ZEFSAII (Michael W. Deem and Ramdas Pophale) SiO2 
 PCOD9257083
Probable space group: C 2/C
;
_chemical_formula_sum "Si O2"
_cell_formula_units_Z 60
_cell_length_a 16.255840
_cell_length_b 24.057330
_cell_length_c 13.988774
_cell_angle_alpha 90.000000
_cell_angle_beta 38.444352
_cell_angle_gamma 90.000000
_cell_volume 3401.380774
_symmetry_space_group_name_H-M "C 2/C"
_symmetry_group_IT_number 15
_symmetry_cell_setting 'monoclinic'
loop_
_space_group_symop_operation_xyz
x,y,z
-x,y,1/2-z
-x,-y,-z
x,-y,1/2+z
1/2+x,1/2+y,z
1/2-x,1/2+y,1/2-z
1/2-x,1/2-y,-z
1/2+x,1/2-y,1/2+z
loop_
_atom_site_type_symbol
_atom_site_label
_atom_site_fract_x
_atom_site_fract_y
_atom_site_fract_z
Si Si1 0.637745 0.082855 0.948254
Si Si2 0.056603 0.930769 0.303400
Si Si3 0.180431 0.298637 0.681719
Si Si4 0.500000 0.980604 0.750000
Si Si5 0.715547 0.022316 0.689111
Si Si6 0.115112 0.702511 0.022243
Si Si7 0.499210 0.557700 0.364528
Si Si8 0.325976 0.399670 0.640448
O O1 0.791876 0.084274 0.835357
O O2 0.636732 0.048629 0.850280
O O3 0.555333 0.055627 0.110329
O O4 0.602538 0.147272 0.970792
O O5 0.000000 0.928895 0.250000
O O6 0.958114 0.894489 0.455836
O O7 0.046290 0.994835 0.345078
O O8 0.168541 0.314713 0.579771
O O9 0.286485 0.250241 0.599888
O O10 0.225421 0.351396 0.703070
O O11 0.034342 0.275950 0.835313
O O12 0.620361 0.016263 0.684180
O O13 0.848849 0.057496 0.542935
O O14 0.760519 0.959323 0.674345
O O15 0.500000 0.564680 0.250000
O O16 0.608386 0.596682 0.314724
#
# Coordination Sequence:
#
# PCOD9257083 Si02
#       8
#     8   8   8   4   8   8   8   8
#     4  12  21  37  54  80 118 154 195 233 283 344
#     4  10  18  30  53  80 110 148 182 230 277 340
#     4  10  22  38  58  83 117 153 193 236 290 344
#     4  12  24  34  52  78 120 160 188 238 284 338
#     4  11  22  36  54  83 114 157 195 229 288 351
#     4  10  22  38  55  84 118 152 192 238 284 346
#     4  10  19  35  54  82 115 145 191 239 283 344
#     4  11  19  35  57  84 113 146 191 232 290 345
#
# _framework density 17.639894999999999
#
# number of rings (size 3 to 8) (size 9 to 14) (size 15 to 20)
#    0.000    1.333    2.667    6.800    1.867    0.000 
#    0.000    0.000    0.000    0.000    1.733    1.867 
#    0.000    0.000    0.000    0.000    0.000    0.000 
#
# Total GULP energy -167356.203215 kJ/mol
# GULP energy per Si atom -5578.540107 kJ/mol
# Density = 1.759975 g / cm^3
# Si number density = 17.639895 Si / 1000 Ang^3
#
#
#
# Elastic Constant Matrix: (Units=GPa)
#
#
# Indices 1 2 3 4 5 6 
#
# 1 107.1319 33.2786 25.9217 -0.0005 -8.2574 0.0012
# 2 33.2786 60.0777 32.0063 0.0000 -3.3026 0.0008
# 3 25.9217 32.0063 82.1419 -0.0009 1.2731 -0.0003
# 4 -0.0005 0.0000 -0.0009 18.9960 0.0001 -3.7407
# 5 -8.2574 -3.3026 1.2731 0.0001 27.8586 -0.0010
# 6 0.0012 0.0008 -0.0003 -3.7407 -0.0010 33.8519
#
#
#
# Elastic Compliance Matrix: (Units=1/GPa)
#
#
# Indices 1 2 3 4 5 6 
#
# 1 0.011630 -0.005433 -0.001598 0.000000 0.002876 0.000000
# 2 -0.005433 0.023775 -0.007573 -0.000001 0.001554 0.000000
# 3 -0.001598 -0.007573 0.015662 0.000001 -0.002087 0.000000
# 4 0.000000 -0.000001 0.000001 0.053814 0.000000 0.005947
# 5 0.002876 0.001554 -0.002087 0.000000 0.037028 0.000001
# 6 0.000000 0.000000 0.000000 0.005947 0.000001 0.030198
#
#
# Mechanical properties :
#
#
# Convention : Reuss Voigt Hill
#
# Bulk Modulus (GPa) = 45.74926 47.97386 46.86156
# Shear Modulus (GPa) = 23.96939 26.68431 25.32685
#
# Velocity S-wave (km/s) = 3.69021 3.89360 3.79327
# Velocity P-wave (km/s) = 6.64442 6.88975 6.76820
#
# Compressibility (1/GPa) = 0.02185828
#
# Stress axis : x y z
#
# Youngs Moduli (GPa) = 85.98281 42.06159 63.85069
#
# Poissons Ratio (x) = 0.22852 0.10202
# Poissons Ratio (y) = 0.46714 0.48356
# Poissons Ratio (z) = 0.13739 0.31855
#
# Static dielectric constant tensor:
#      x y z
#    x 1.614150 0.000000 -0.017570 
#    y 0.000000 1.603660 0.000000 
#    z -0.017570 0.000000 1.637340 
# 
# From -- ./inp_files/163538.got.cif
#   From: 2010.05.17/outbox.cif.g08.bks.cpg/sg15_82_cif.got.tgz:163538.got - 2010.06.03 18:47:42.
