data_PCOD9257783
_publ_section_title
;
Structure prediction by ZEFSAII (Michael W. Deem and Ramdas Pophale) SiO2 
 PCOD9257783
Probable space group: C 2/C
;
_chemical_formula_sum "Si O2"
_cell_formula_units_Z 56
_cell_length_a 9.294839
_cell_length_b 22.922748
_cell_length_c 16.205027
_cell_angle_alpha 90.000000
_cell_angle_beta 46.539663
_cell_angle_gamma 90.000000
_cell_volume 2506.141666
_symmetry_space_group_name_H-M "C 2/C"
_symmetry_group_IT_number 15
_symmetry_cell_setting 'monoclinic'
loop_
_space_group_symop_operation_xyz
x,y,z
-x,y,1/2-z
-x,-y,-z
x,-y,1/2+z
1/2+x,1/2+y,z
1/2-x,1/2+y,1/2-z
1/2-x,1/2-y,-z
1/2+x,1/2-y,1/2+z
loop_
_atom_site_type_symbol
_atom_site_label
_atom_site_fract_x
_atom_site_fract_y
_atom_site_fract_z
Si Si1 0.512127 0.908940 0.060817
Si Si2 0.624636 0.779985 0.627307
Si Si3 0.720948 0.718782 0.839395
Si Si4 0.500147 0.771062 0.077716
Si Si5 0.793327 0.600332 0.490623
Si Si6 0.857981 0.910818 0.178068
Si Si7 0.304525 0.010369 0.883377
O O1 0.547879 0.839823 0.056124
O O2 0.471597 0.918256 0.980411
O O3 0.303729 0.921501 0.188497
O O4 0.669168 0.949410 0.045409
O O5 0.500000 0.807850 0.750000
O O6 0.468938 0.740600 0.638855
O O7 0.803926 0.745374 0.600003
O O8 0.688095 0.833917 0.546934
O O9 0.908798 0.738982 0.707247
O O10 0.715421 0.648527 0.838570
O O11 0.672489 0.739867 0.952807
O O12 0.581267 0.597161 0.619123
O O13 0.789426 0.555903 0.416506
O O14 0.859477 0.962921 0.111561
O O15 0.500000 0.018145 0.750000
#
# Coordination Sequence:
#
# PCOD9257783 Si02
#       7
#     8   8   8   8   8   8   8
#     4  10  21  36  57  81 113 148 192 234 284 343
#     4  10  19  29  51  86 116 139 178 237 300 335
#     4  10  18  32  53  83 115 148 184 236 286 341
#     4  10  18  32  53  83 115 148 184 236 286 341
#     4  12  19  34  60  82 109 140 192 240 283 326
#     4  10  21  36  57  81 113 148 192 234 284 343
#     4  10  23  40  53  79 114 156 190 227 286 350
#
# _framework density 22.345103999999999
#
# number of rings (size 3 to 8) (size 9 to 14) (size 15 to 20)
#    0.000    1.714    2.857    3.000    0.000    2.286 
#    0.000    0.714    0.000    1.714    0.000    0.000 
#    0.000    0.000    0.000    0.000    0.000    0.000 
#
# Total GULP energy -156193.715591 kJ/mol
# GULP energy per Si atom -5578.346985 kJ/mol
# Density = 2.229425 g / cm^3
# Si number density = 22.345104 Si / 1000 Ang^3
#
#
#
# Elastic Constant Matrix: (Units=GPa)
#
#
# Indices 1 2 3 4 5 6 
#
# 1 32.4105 4.7373 31.7673 0.0000 6.1655 0.0000
# 2 4.7373 80.4558 14.0867 0.0000 10.5290 0.0000
# 3 31.7673 14.0867 112.8451 0.0000 14.0941 0.0000
# 4 0.0000 0.0000 0.0000 30.2669 0.0000 8.7804
# 5 6.1655 10.5290 14.0941 0.0000 37.5486 0.0000
# 6 0.0000 0.0000 0.0000 8.7804 0.0000 22.0414
#
#
#
# Elastic Compliance Matrix: (Units=1/GPa)
#
#
# Indices 1 2 3 4 5 6 
#
# 1 0.042860 -0.000131 -0.011724 0.000000 -0.002600 0.000000
# 2 -0.000131 0.013064 -0.001195 0.000000 -0.003193 0.000000
# 3 -0.011724 -0.001195 0.012621 0.000000 -0.002477 0.000000
# 4 0.000000 0.000000 0.000000 0.037356 0.000000 -0.014881
# 5 -0.002600 -0.003193 -0.002477 0.000000 0.028884 0.000000
# 6 0.000000 0.000000 0.000000 -0.014881 0.000000 0.051297
#
#
# Mechanical properties :
#
#
# Convention : Reuss Voigt Hill
#
# Bulk Modulus (GPa) = 23.56040 36.32154 29.94097
# Shear Modulus (GPa) = 22.09152 29.64605 25.86878
#
# Velocity S-wave (km/s) = 3.14769 3.64639 3.40618
# Velocity P-wave (km/s) = 4.87621 5.83252 5.37567
#
# Compressibility (1/GPa) = 0.04244410
#
# Stress axis : x y z
#
# Youngs Moduli (GPa) = 23.33191 76.54608 79.23387
#
# Poissons Ratio (x) = 0.00999 0.92898
# Poissons Ratio (y) = 0.00305 0.09470
# Poissons Ratio (z) = 0.27355 0.09149
#
# Static dielectric constant tensor:
#      x y z
#    x 1.905200 0.000000 0.001080 
#    y 0.000000 1.753820 0.000000 
#    z 0.001080 0.000000 1.876850 
# 
# From -- ./inp_files/137714.got.cif
#   From: 2010.05.17/outbox.cif.g08.bks.cpg/sg15_69_cif.got.tgz:137714.got - 2010.06.03 18:47:42.
