data_PCOD9257721
_publ_section_title
;
Structure prediction by ZEFSAII (Michael W. Deem and Ramdas Pophale) SiO2 
 PCOD9257721
Probable space group: C 2/C
;
_chemical_formula_sum "Si O2"
_cell_formula_units_Z 60
_cell_length_a 15.415621
_cell_length_b 14.202152
_cell_length_c 22.019097
_cell_angle_alpha 90.000000
_cell_angle_beta 145.838788
_cell_angle_gamma 90.000000
_cell_volume 2706.964081
_symmetry_space_group_name_H-M "C 2/C"
_symmetry_group_IT_number 15
_symmetry_cell_setting 'monoclinic'
loop_
_space_group_symop_operation_xyz
x,y,z
-x,y,1/2-z
-x,-y,-z
x,-y,1/2+z
1/2+x,1/2+y,z
1/2-x,1/2+y,1/2-z
1/2-x,1/2-y,-z
1/2+x,1/2-y,1/2+z
loop_
_atom_site_type_symbol
_atom_site_label
_atom_site_fract_x
_atom_site_fract_y
_atom_site_fract_z
Si Si1 0.257338 0.458250 0.253907
Si Si2 0.533463 0.763037 0.965783
Si Si3 0.091657 0.497397 0.400317
Si Si4 0.500000 0.147545 0.750000
Si Si5 0.299139 0.246229 0.732132
Si Si6 0.334739 0.961363 0.428357
Si Si7 0.996720 0.302548 0.813589
Si Si8 0.858418 0.133839 0.371903
O O1 0.262537 0.347899 0.270020
O O2 0.276887 0.477130 0.193570
O O3 0.363315 0.525265 0.356303
O O4 0.082420 0.484551 0.173756
O O5 0.358364 0.800350 0.874669
O O6 0.552771 0.747314 0.905187
O O7 0.642914 0.848934 0.049053
O O8 0.555845 0.672223 0.019927
O O9 0.100814 0.419126 0.353389
O O10 0.193913 0.496223 0.520936
O O11 0.095172 0.600215 0.371332
O O12 0.390600 0.211131 0.727414
O O13 0.403339 0.304972 0.838793
O O14 0.500000 0.000000 0.500000
O O15 0.820273 0.335206 0.721759
O O16 0.000000 0.255522 0.750000
#
# Coordination Sequence:
#
# PCOD9257721 Si02
#       8
#     8   8   8   4   8   8   8   8
#     4   9  17  31  55  75 103 142 176 231 271 322
#     4  10  20  33  53  81 115 143 185 227 276 344
#     4   8  15  26  49  78 101 127 183 231 271 311
#     4  10  18  32  52  78 114 142 182 248 270 316
#     4  10  20  35  54  81 110 146 188 228 281 324
#     4   9  15  29  53  77  99 136 188 231 269 313
#     4   9  17  31  52  80 110 137 177 232 277 317
#     4  10  20  35  54  82 109 143 186 231 274 333
#
# _framework density 22.165051999999999
#
# number of rings (size 3 to 8) (size 9 to 14) (size 15 to 20)
#    0.000    2.667    2.000    2.400    0.000    1.067 
#    0.000    0.667    0.000    0.000    6.933    0.000 
#    0.000    0.000    0.000    0.000    0.000    0.000 
#
# Total GULP energy -167313.444424 kJ/mol
# GULP energy per Si atom -5577.114814 kJ/mol
# Density = 2.211460 g / cm^3
# Si number density = 22.165052 Si / 1000 Ang^3
#
#
#
# Elastic Constant Matrix: (Units=GPa)
#
#
# Indices 1 2 3 4 5 6 
#
# 1 60.7268 12.1058 23.9535 0.0001 -33.0384 0.0001
# 2 12.1058 67.0352 10.5661 0.0001 -13.7083 0.0001
# 3 23.9535 10.5661 66.9674 0.0003 -29.5935 0.0002
# 4 0.0001 0.0001 0.0003 21.2679 0.0002 4.0193
# 5 -33.0384 -13.7083 -29.5935 0.0002 31.9191 0.0001
# 6 0.0001 0.0001 0.0002 4.0193 0.0001 5.9340
#
#
#
# Elastic Compliance Matrix: (Units=1/GPa)
#
#
# Indices 1 2 3 4 5 6 
#
# 1 0.039520 0.001583 0.006762 -0.000001 0.047855 -0.000001
# 2 0.001583 0.016448 0.001159 0.000000 0.009778 0.000000
# 3 0.006762 0.001159 0.026502 0.000000 0.032068 -0.000001
# 4 -0.000001 0.000000 0.000000 0.053922 -0.000001 -0.036523
# 5 0.047855 0.009778 0.032068 -0.000001 0.114794 -0.000003
# 6 -0.000001 0.000000 -0.000001 -0.036523 -0.000003 0.193259
#
#
# Mechanical properties :
#
#
# Convention : Reuss Voigt Hill
#
# Bulk Modulus (GPa) = 9.85416 31.99781 20.92599
# Shear Modulus (GPa) = 10.88704 21.69780 16.29242
#
# Velocity S-wave (km/s) = 2.21866 3.13216 2.71412
# Velocity P-wave (km/s) = 3.31945 5.24863 4.39129
#
# Compressibility (1/GPa) = 0.10147997
#
# Stress axis : x y z
#
# Youngs Moduli (GPa) = 25.30373 60.79630 37.73248
#
# Poissons Ratio (x) = -0.09627 -0.25514
# Poissons Ratio (y) = -0.04007 -0.04375
# Poissons Ratio (z) = -0.17110 -0.07049
#
# Static dielectric constant tensor:
#      x y z
#    x 1.828340 0.000000 -0.007940 
#    y 0.000000 1.845880 0.000000 
#    z -0.007940 0.000000 1.868190 
# 
# From -- ./inp_files/248992.got.cif
#   From: 2010.05.17/outbox.cif.g08.bks.cpg/sg15_125_cif.got.tgz:248992.got - 2010.06.03 18:47:42.
