data_PCOD9257130
_publ_section_title
;
Structure prediction by ZEFSAII (Michael W. Deem and Ramdas Pophale) SiO2 
 PCOD9257130
Probable space group: C 2/C
;
_chemical_formula_sum "Si O2"
_cell_formula_units_Z 52
_cell_length_a 10.457107
_cell_length_b 28.972169
_cell_length_c 7.552576
_cell_angle_alpha 90.000000
_cell_angle_beta 85.469984
_cell_angle_gamma 90.000000
_cell_volume 2281.018708
_symmetry_space_group_name_H-M "C 2/C"
_symmetry_group_IT_number 15
_symmetry_cell_setting 'monoclinic'
loop_
_space_group_symop_operation_xyz
x,y,z
-x,y,1/2-z
-x,-y,-z
x,-y,1/2+z
1/2+x,1/2+y,z
1/2-x,1/2+y,1/2-z
1/2-x,1/2-y,-z
1/2+x,1/2-y,1/2+z
loop_
_atom_site_type_symbol
_atom_site_label
_atom_site_fract_x
_atom_site_fract_y
_atom_site_fract_z
Si Si1 0.263644 0.151802 0.595712
Si Si2 0.349870 0.966448 0.824537
Si Si3 0.671917 0.236172 0.685496
Si Si4 0.000000 0.820487 0.750000
Si Si5 0.851956 0.567070 0.725268
Si Si6 0.534805 0.823753 0.930150
Si Si7 0.215319 0.879061 0.719062
O O1 0.253880 0.202132 0.687328
O O2 0.263667 0.112246 0.745729
O O3 0.408283 0.149372 0.500314
O O4 0.186906 0.137270 0.428137
O O5 0.500000 0.962701 0.750000
O O6 0.255411 0.932745 0.724913
O O7 0.315935 0.020456 0.830536
O O8 0.344412 0.948713 0.023604
O O9 0.750000 0.250000 0.500000
O O10 0.611458 0.281628 0.781454
O O11 0.565425 0.207095 0.592670
O O12 0.907728 0.856936 0.864642
O O13 0.000000 0.578129 0.750000
O O14 0.500000 0.797986 0.750000
O O15 0.656514 0.854839 0.869606
#
# Coordination Sequence:
#
# PCOD9257130 Si02
#       7
#     8   8   8   4   8   8   8
#     4  10  21  37  59  85 124 147 188 244 298 346
#     4  10  19  33  55  90 117 146 190 233 297 352
#     4  12  23  37  56  88 112 152 195 234 293 344
#     4  12  24  40  58  80 118 152 204 236 280 346
#     4  10  18  30  54  89 118 146 176 239 300 345
#     4  10  19  34  57  83 113 150 186 235 291 344
#     4  10  22  38  58  82 115 160 194 236 289 341
#
# _framework density 22.796834
#
# number of rings (size 3 to 8) (size 9 to 14) (size 15 to 20)
#    0.000    1.538    3.077    5.077    0.000    3.077 
#    0.000    0.000    0.000    3.692    0.000    0.000 
#    0.000    0.000    0.000    0.000    0.000    0.000 
#
# Total GULP energy -144751.845672 kJ/mol
# GULP energy per Si atom -5567.378680 kJ/mol
# Density = 2.274495 g / cm^3
# Si number density = 22.796834 Si / 1000 Ang^3
#
#
#
# Elastic Constant Matrix: (Units=GPa)
#
#
# Indices 1 2 3 4 5 6 
#
# 1 56.6971 18.2524 9.4928 0.0000 -8.8049 0.0000
# 2 18.2524 119.5637 33.2918 0.0000 3.8256 0.0000
# 3 9.4928 33.2918 83.3074 0.0000 -1.8039 0.0000
# 4 0.0000 0.0000 0.0000 37.2875 0.0000 10.6754
# 5 -8.8049 3.8256 -1.8039 0.0000 23.1494 0.0000
# 6 0.0000 0.0000 0.0000 10.6754 0.0000 7.7081
#
#
#
# Elastic Compliance Matrix: (Units=1/GPa)
#
#
# Indices 1 2 3 4 5 6 
#
# 1 0.020024 -0.003069 -0.000881 0.000000 0.008055 0.000000
# 2 -0.003069 0.009961 -0.003698 0.000000 -0.003102 0.000000
# 3 -0.000881 -0.003698 0.013611 0.000000 0.001337 0.000000
# 4 0.000000 0.000000 0.000000 0.044439 0.000000 -0.061546
# 5 0.008055 -0.003102 0.001337 0.000000 0.046878 0.000000
# 6 0.000000 0.000000 0.000000 -0.061546 0.000000 0.214972
#
#
# Mechanical properties :
#
#
# Convention : Reuss Voigt Hill
#
# Bulk Modulus (GPa) = 35.33598 42.40466 38.87032
# Shear Modulus (GPa) = 13.34705 26.86442 20.10573
#
# Velocity S-wave (km/s) = 2.42229 3.43655 2.97299
# Velocity P-wave (km/s) = 4.83295 5.86413 5.37333
#
# Compressibility (1/GPa) = 0.02829977
#
# Stress axis : x y z
#
# Youngs Moduli (GPa) = 49.94000 100.38863 73.47029
#
# Poissons Ratio (x) = 0.30813 0.06471
# Poissons Ratio (y) = 0.15328 0.27171
# Poissons Ratio (z) = 0.04398 0.37126
#
# Static dielectric constant tensor:
#      x y z
#    x 1.780840 0.000000 0.074960 
#    y 0.000000 1.959550 0.000000 
#    z 0.074960 0.000000 1.968820 
# 
# From -- ./inp_files/34813.got.cif
#   From: 2010.05.17/outbox.cif.g08.bks.cpg/sg15_18_cif.got.tgz:34813.got - 2010.06.03 18:47:42.
