data_PCOD9257063
_publ_section_title
;
Structure prediction by ZEFSAII (Michael W. Deem and Ramdas Pophale) SiO2 
 PCOD9257063
Probable space group: C 2/C
;
_chemical_formula_sum "Si O2"
_cell_formula_units_Z 40
_cell_length_a 12.399002
_cell_length_b 21.112728
_cell_length_c 7.395599
_cell_angle_alpha 90.000000
_cell_angle_beta 126.149358
_cell_angle_gamma 90.000000
_cell_volume 1563.281887
_symmetry_space_group_name_H-M "C 2/C"
_symmetry_group_IT_number 15
_symmetry_cell_setting 'monoclinic'
loop_
_space_group_symop_operation_xyz
x,y,z
-x,y,1/2-z
-x,-y,-z
x,-y,1/2+z
1/2+x,1/2+y,z
1/2-x,1/2+y,1/2-z
1/2-x,1/2-y,-z
1/2+x,1/2-y,1/2+z
loop_
_atom_site_type_symbol
_atom_site_label
_atom_site_fract_x
_atom_site_fract_y
_atom_site_fract_z
Si Si1 0.644331 0.992796 0.358526
Si Si2 0.784362 0.093685 0.686277
Si Si3 0.543541 0.338508 0.585661
Si Si4 0.405142 0.804321 0.411273
Si Si5 0.841141 0.364641 0.953220
O O1 0.500000 0.026444 0.250000
O O2 0.703293 0.945954 0.261802
O O3 0.620803 0.937817 0.485758
O O4 0.761172 0.043368 0.506066
O O5 0.705419 0.159392 0.583454
O O6 0.932799 0.116028 0.886441
O O7 0.500000 0.327648 0.750000
O O8 0.569875 0.269119 0.530277
O O9 0.690279 0.366101 0.744346
O O10 0.549877 0.835324 0.569340
O O11 0.356789 0.822083 0.154570
#
# Coordination Sequence:
#
# PCOD9257063 Si02
#       5
#     8   8   8   8   8
#     4  11  21  39  59  87 118 153 205 242 287 358
#     4  11  24  37  62  90 118 159 193 243 303 349
#     4  12  19  32  54  92 124 147 190 253 303 341
#     4  10  18  32  55  86 116 153 195 248 293 335
#     4  10  18  30  52  83 117 150 185 244 295 333
#
# _framework density 25.587197
#
# number of rings (size 3 to 8) (size 9 to 14) (size 15 to 20)
#    0.000    1.200   10.000    2.400    0.000    0.800 
#    0.000    0.000    0.000    1.200    0.000    0.000 
#    0.000    0.000    0.000    0.000    0.000    0.000 
#
# Total GULP energy -111699.770146 kJ/mol
# GULP energy per Si atom -5584.988507 kJ/mol
# Density = 2.552896 g / cm^3
# Si number density = 25.587197 Si / 1000 Ang^3
#
#
#
# Elastic Constant Matrix: (Units=GPa)
#
#
# Indices 1 2 3 4 5 6 
#
# 1 61.5463 9.5274 38.5864 0.0000 10.6251 0.0000
# 2 9.5274 116.0430 50.6570 0.0000 0.2783 0.0000
# 3 38.5864 50.6570 172.7140 0.0000 40.1511 0.0000
# 4 0.0000 0.0000 0.0000 -15.0786 0.0000 -19.3085
# 5 10.6251 0.2783 40.1511 0.0000 39.9025 0.0000
# 6 0.0000 0.0000 0.0000 -19.3085 0.0000 20.3195
#
#
#
# Elastic Compliance Matrix: (Units=1/GPa)
#
#
# Indices 1 2 3 4 5 6 
#
# 1 0.018932 0.000228 -0.004078 0.000000 -0.000939 0.000000
# 2 0.000228 0.010327 -0.003980 0.000000 0.003872 0.000000
# 3 -0.004078 -0.003980 0.009933 0.000000 -0.008881 0.000000
# 4 0.000000 0.000000 0.000000 -0.029916 0.000000 -0.028428
# 5 -0.000939 0.003872 -0.008881 0.000000 0.034221 0.000000
# 6 0.000000 0.000000 0.000000 -0.028428 0.000000 0.022200
#
#
# Mechanical properties :
#
#
# Convention : Reuss Voigt Hill
#
# Bulk Modulus (GPa) = 42.49624 60.87166 51.68395
# Shear Modulus (GPa) = 56.05401 25.79750 40.92576
#
# Velocity S-wave (km/s) = 4.68557 3.17869 4.00367
# Velocity P-wave (km/s) = 6.77623 6.10849 6.45100
#
# Compressibility (1/GPa) = 0.02353150
#
# Stress axis : x y z
#
# Youngs Moduli (GPa) = 52.82194 96.83475 100.67471
#
# Poissons Ratio (x) = -0.02210 0.41057
# Poissons Ratio (y) = -0.01205 0.40068
# Poissons Ratio (z) = 0.21542 0.38540
#
# Static dielectric constant tensor:
#      x y z
#    x 2.102280 0.000000 -0.256370 
#    y 0.000000 1.945870 0.000000 
#    z -0.256370 0.000000 2.265250 
# 
# From -- ./inp_files/107579.got.cif
#   From: 2010.05.17/outbox.cif.g08.bks.cpg/sg15_54_cif.got.tgz:107579.got - 2010.06.03 18:47:42.
