data_PCOD9257847
_publ_section_title
;
Structure prediction by ZEFSAII (Michael W. Deem and Ramdas Pophale) SiO2 
 PCOD9257847
Probable space group: C 2/C
;
_chemical_formula_sum "Si O2"
_cell_formula_units_Z 40
_cell_length_a 12.014100
_cell_length_b 18.538080
_cell_length_c 8.812115
_cell_angle_alpha 90.000000
_cell_angle_beta 79.677249
_cell_angle_gamma 90.000000
_cell_volume 1930.852648
_symmetry_space_group_name_H-M "C 2/C"
_symmetry_group_IT_number 15
_symmetry_cell_setting 'monoclinic'
loop_
_space_group_symop_operation_xyz
x,y,z
-x,y,1/2-z
-x,-y,-z
x,-y,1/2+z
1/2+x,1/2+y,z
1/2-x,1/2+y,1/2-z
1/2-x,1/2-y,-z
1/2+x,1/2-y,1/2+z
loop_
_atom_site_type_symbol
_atom_site_label
_atom_site_fract_x
_atom_site_fract_y
_atom_site_fract_z
Si Si1 0.564798 0.067237 0.058775
Si Si2 0.683924 0.041905 0.731310
Si Si3 0.389887 0.681938 0.384105
Si Si4 0.065447 0.058669 0.885645
Si Si5 0.362058 0.158350 0.023473
O O1 0.656510 0.076607 0.901420
O O2 0.476025 0.132910 0.082179
O O3 0.500000 0.000000 0.000000
O O4 0.620719 0.031888 0.194670
O O5 0.815239 0.025407 0.691888
O O6 0.653104 0.100600 0.609865
O O7 0.500000 0.674091 0.250000
O O8 0.411251 0.628251 0.518384
O O9 0.382970 0.763765 0.444816
O O10 0.260490 0.662419 0.361264
O O11 0.000000 0.078042 0.750000
O O12 0.000000 0.000000 0.000000
#
# Coordination Sequence:
#
# PCOD9257847 Si02
#       5
#     8   8   8   8   8
#     4  10  18  32  54  83 112 145 187 234 285 334
#     4  10  20  35  57  82 112 151 191 237 286 336
#     4  10  20  37  61  86 114 154 193 231 287 348
#     4  11  23  39  58  82 114 152 195 239 286 346
#     4   9  19  35  59  86 117 152 190 232 285 346
#
# _framework density 20.716235999999999
#
# number of rings (size 3 to 8) (size 9 to 14) (size 15 to 20)
#    0.000    2.000    0.000    5.400    0.000    3.200 
#    0.000    6.000    0.000   25.200    0.000    0.000 
#    0.000    0.000    0.000    0.000    0.000    0.000 
#
# Total GULP energy -111515.171277 kJ/mol
# GULP energy per Si atom -5575.758564 kJ/mol
# Density = 2.066909 g / cm^3
# Si number density = 20.716236 Si / 1000 Ang^3
#
#
#
# Elastic Constant Matrix: (Units=GPa)
#
#
# Indices 1 2 3 4 5 6 
#
# 1 160.9150 46.3500 62.8447 0.0000 -21.0384 0.0000
# 2 46.3500 86.5152 11.7347 0.0000 -3.3122 0.0000
# 3 62.8447 11.7347 91.0590 0.0000 -21.0574 0.0000
# 4 0.0000 0.0000 0.0000 20.0684 0.0000 -4.0180
# 5 -21.0384 -3.3122 -21.0574 0.0000 36.3297 0.0000
# 6 0.0000 0.0000 0.0000 -4.0180 0.0000 34.3283
#
#
#
# Elastic Compliance Matrix: (Units=1/GPa)
#
#
# Indices 1 2 3 4 5 6 
#
# 1 0.010092 -0.004527 -0.005919 0.000000 0.002001 0.000000
# 2 -0.004527 0.013797 0.001191 0.000000 -0.000674 0.000000
# 3 -0.005919 0.001191 0.016335 0.000000 0.006149 0.000000
# 4 0.000000 0.000000 0.000000 0.051025 0.000000 0.005972
# 5 0.002001 -0.000674 0.006149 0.000000 0.032187 0.000000
# 6 0.000000 0.000000 0.000000 0.005972 0.000000 0.029829
#
#
# Mechanical properties :
#
#
# Convention : Reuss Voigt Hill
#
# Bulk Modulus (GPa) = 46.05468 64.48312 55.26890
# Shear Modulus (GPa) = 27.93087 32.64927 30.29007
#
# Velocity S-wave (km/s) = 3.67585 3.97422 3.82794
# Velocity P-wave (km/s) = 6.34786 7.22867 6.80254
#
# Compressibility (1/GPa) = 0.02171332
#
# Stress axis : x y z
#
# Youngs Moduli (GPa) = 99.09309 72.48093 61.21724
#
# Poissons Ratio (x) = 0.32813 0.36232
# Poissons Ratio (y) = 0.44860 -0.07289
# Poissons Ratio (z) = 0.58650 -0.08630
#
# Static dielectric constant tensor:
#      x y z
#    x 1.845470 0.000000 -0.025760 
#    y 0.000000 1.716650 0.000000 
#    z -0.025760 0.000000 1.944140 
# 
# From -- ./inp_files/29046.got.cif
#   From: 2010.05.17/outbox.cif.g08.bks.cpg/sg15_15_cif.got.tgz:29046.got - 2010.06.03 18:47:42.
