data_PCOD9257253
_publ_section_title
;
Structure prediction by ZEFSAII (Michael W. Deem and Ramdas Pophale) SiO2 
 PCOD9257253
Probable space group: C 2/C
;
_chemical_formula_sum "Si O2"
_cell_formula_units_Z 56
_cell_length_a 27.982096
_cell_length_b 12.779974
_cell_length_c 8.001519
_cell_angle_alpha 90.000000
_cell_angle_beta 129.264248
_cell_angle_gamma 90.000000
_cell_volume 2215.417653
_symmetry_space_group_name_H-M "C 2/C"
_symmetry_group_IT_number 15
_symmetry_cell_setting 'monoclinic'
loop_
_space_group_symop_operation_xyz
x,y,z
-x,y,1/2-z
-x,-y,-z
x,-y,1/2+z
1/2+x,1/2+y,z
1/2-x,1/2+y,1/2-z
1/2-x,1/2-y,-z
1/2+x,1/2-y,1/2+z
loop_
_atom_site_type_symbol
_atom_site_label
_atom_site_fract_x
_atom_site_fract_y
_atom_site_fract_z
Si Si1 0.653112 0.884904 0.072110
Si Si2 0.258416 0.626758 0.044172
Si Si3 0.217194 0.817631 0.571121
Si Si4 0.603965 0.392179 0.143275
Si Si5 0.436700 0.157006 0.828607
Si Si6 0.898485 0.105790 0.253601
Si Si7 0.577808 0.147742 0.091250
O O1 0.713575 0.925456 0.308539
O O2 0.675774 0.767578 0.076158
O O3 0.599960 0.887678 0.094367
O O4 0.623086 0.910019 0.823591
O O5 0.331016 0.607016 0.188029
O O6 0.250000 0.750000 0.000000
O O7 0.241574 0.621322 0.203035
O O8 0.250000 0.750000 0.500000
O O9 0.169998 0.894305 0.378976
O O10 0.569565 0.497727 0.121070
O O11 0.613083 0.399812 0.967848
O O12 0.579371 0.275005 0.121459
O O13 0.432400 0.283278 0.851286
O O14 0.409902 0.135136 0.581231
O O15 0.507196 0.120505 0.975308
#
# Coordination Sequence:
#
# PCOD9257253 Si02
#       7
#     8   8   8   8   8   8   8
#     4  10  19  31  52  70  96 129 172 217 261 302
#     4  10  18  31  49  72  93 127 172 216 261 311
#     4  10  19  31  51  73  95 129 171 207 267 313
#     4  10  21  32  48  70 100 139 174 216 251 304
#     4  10  19  35  50  69 101 137 179 225 244 305
#     4  11  20  33  48  70 101 135 183 210 262 302
#     4   9  21  34  49  72  98 138 182 215 258 291
#
# _framework density 25.277403
#
# number of rings (size 3 to 8) (size 9 to 14) (size 15 to 20)
#    0.000    2.000    2.857    3.000    6.000    0.571 
#    0.000    0.000    0.000    0.000    0.000    0.000 
#    0.000    0.000    0.000   63.000    8.000    3.143 
#
# Total GULP energy -156181.541971 kJ/mol
# GULP energy per Si atom -5577.912213 kJ/mol
# Density = 2.521987 g / cm^3
# Si number density = 25.277403 Si / 1000 Ang^3
#
#
#
# Elastic Constant Matrix: (Units=GPa)
#
#
# Indices 1 2 3 4 5 6 
#
# 1 110.5807 32.3211 33.0180 0.0000 -10.6999 0.0000
# 2 32.3211 111.9552 19.5960 0.0000 -17.1792 0.0000
# 3 33.0180 19.5960 118.8778 0.0000 -21.1629 0.0000
# 4 0.0000 0.0000 0.0000 12.9149 0.0000 -17.8890
# 5 -10.6999 -17.1792 -21.1629 0.0000 40.9723 0.0000
# 6 0.0000 0.0000 0.0000 -17.8890 0.0000 18.8065
#
#
#
# Elastic Compliance Matrix: (Units=1/GPa)
#
#
# Indices 1 2 3 4 5 6 
#
# 1 0.010559 -0.002556 -0.002435 0.000000 0.000428 0.000000
# 2 -0.002556 0.010263 -0.000368 0.000000 0.003445 0.000000
# 3 -0.002435 -0.000368 0.009921 0.000000 0.004334 0.000000
# 4 0.000000 0.000000 0.000000 -0.243816 0.000000 -0.231922
# 5 0.000428 0.003445 0.004334 0.000000 0.028202 0.000000
# 6 0.000000 0.000000 0.000000 -0.231922 0.000000 -0.167434
#
#
# Mechanical properties :
#
#
# Convention : Reuss Voigt Hill
#
# Bulk Modulus (GPa) = 49.94307 56.80932 53.37619
# Shear Modulus (GPa) = -14.92929 31.63730 8.35401
#
# Velocity S-wave (km/s) = -2.43290 3.54164 1.81992
# Velocity P-wave (km/s) = 3.45092 6.26478 5.05748
#
# Compressibility (1/GPa) = 0.02002280
#
# Stress axis : x y z
#
# Youngs Moduli (GPa) = 94.70709 97.43409 100.80043
#
# Poissons Ratio (x) = 0.24908 0.24546
# Poissons Ratio (y) = 0.24211 0.03714
# Poissons Ratio (z) = 0.23063 0.03590
#
# Static dielectric constant tensor:
#      x y z
#    x 1.952390 0.000000 -0.015330 
#    y 0.000000 2.023220 0.000000 
#    z -0.015330 0.000000 2.049350 
# 
# From -- ./inp_files/66907.got.cif
#   From: 2010.05.17/outbox.cif.g08.bks.cpg/sg15_34_cif.got.tgz:66907.got - 2010.06.03 18:47:42.
