data_PCOD9257542
_publ_section_title
;
Structure prediction by ZEFSAII (Michael W. Deem and Ramdas Pophale) SiO2 
 PCOD9257542
Probable space group: C 2/C
;
_chemical_formula_sum "Si O2"
_cell_formula_units_Z 52
_cell_length_a 14.716303
_cell_length_b 18.345755
_cell_length_c 8.013114
_cell_angle_alpha 90.000000
_cell_angle_beta 73.232625
_cell_angle_gamma 90.000000
_cell_volume 2071.415022
_symmetry_space_group_name_H-M "C 2/C"
_symmetry_group_IT_number 15
_symmetry_cell_setting 'monoclinic'
loop_
_space_group_symop_operation_xyz
x,y,z
-x,y,1/2-z
-x,-y,-z
x,-y,1/2+z
1/2+x,1/2+y,z
1/2-x,1/2+y,1/2-z
1/2-x,1/2-y,-z
1/2+x,1/2-y,1/2+z
loop_
_atom_site_type_symbol
_atom_site_label
_atom_site_fract_x
_atom_site_fract_y
_atom_site_fract_z
Si Si1 0.787957 0.159149 0.842306
Si Si2 0.870489 0.758792 0.631783
Si Si3 0.562351 0.247689 0.377646
Si Si4 0.879982 0.414264 0.612730
Si Si5 0.156630 0.097484 0.203996
Si Si6 0.405676 0.461972 0.407734
Si Si7 0.500000 0.968553 0.250000
O O1 0.681655 0.180967 0.850323
O O2 0.817669 0.076741 0.858238
O O3 0.851969 0.196376 0.666759
O O4 0.822112 0.199469 0.996603
O O5 0.982513 0.750057 0.559212
O O6 0.850044 0.815290 0.790029
O O7 0.500000 0.268573 0.250000
O O8 0.601093 0.166664 0.328141
O O9 0.767716 0.421289 0.653764
O O10 0.924364 0.477319 0.703089
O O11 0.939949 0.421603 0.411570
O O12 0.101852 0.069222 0.401317
O O13 0.110666 0.048470 0.084968
O O14 0.500000 0.444265 0.250000
#
# Coordination Sequence:
#
# PCOD9257542 Si02
#       7
#     8   8   8   8   8   8   4
#     4   9  17  32  53  86 117 148 201 250 292 351
#     4   9  18  31  56  86 115 153 199 251 296 351
#     4  10  18  31  58  85 115 151 202 250 299 349
#     4  11  21  39  59  88 119 161 197 254 301 373
#     4  11  22  39  63  90 123 160 207 251 310 368
#     4  11  23  38  62  92 125 160 204 257 310 365
#     4  10  24  36  58  88 124 156 204 240 314 362
#
# _framework density 25.10361
#
# number of rings (size 3 to 8) (size 9 to 14) (size 15 to 20)
#    0.000    1.846    2.308    3.692    2.154    2.462 
#    0.000    0.000    5.077    1.846    0.000    0.000 
#    0.000    0.000    0.000    0.000    0.000    0.000 
#
# Total GULP energy -145431.799425 kJ/mol
# GULP energy per Si atom -5593.530747 kJ/mol
# Density = 2.504647 g / cm^3
# Si number density = 25.103610 Si / 1000 Ang^3
#
#
#
# Elastic Constant Matrix: (Units=GPa)
#
#
# Indices 1 2 3 4 5 6 
#
# 1 64.5020 1.8659 19.2486 0.0000 -23.6089 0.0000
# 2 1.8659 70.7205 -8.8092 0.0000 -2.4148 0.0000
# 3 19.2486 -8.8092 62.4773 0.0000 -0.2138 0.0000
# 4 0.0000 0.0000 0.0000 1.7045 0.0000 -8.9548
# 5 -23.6089 -2.4148 -0.2138 0.0000 32.1764 0.0000
# 6 0.0000 0.0000 0.0000 -8.9548 0.0000 17.9437
#
#
#
# Elastic Compliance Matrix: (Units=1/GPa)
#
#
# Indices 1 2 3 4 5 6 
#
# 1 0.024253 -0.000977 -0.007549 0.000000 0.017671 0.000000
# 2 -0.000977 0.014471 0.002343 0.000000 0.000385 0.000000
# 3 -0.007549 0.002343 0.018644 0.000000 -0.005239 0.000000
# 4 0.000000 0.000000 0.000000 -0.361749 0.000000 -0.180530
# 5 0.017671 0.000385 -0.005239 0.000000 0.044039 0.000000
# 6 0.000000 0.000000 0.000000 -0.180530 0.000000 -0.034363
#
#
# Mechanical properties :
#
#
# Convention : Reuss Voigt Hill
#
# Bulk Modulus (GPa) = 22.22191 24.70116 23.46153
# Shear Modulus (GPa) = -18.70290 22.72456 2.01083
#
# Velocity S-wave (km/s) = -2.73248 3.01197 0.89596
# Velocity P-wave (km/s) = 1.04114 4.68583 3.23056
#
# Compressibility (1/GPa) = 0.04500064
#
# Stress axis : x y z
#
# Youngs Moduli (GPa) = 41.23282 69.10430 53.63655
#
# Poissons Ratio (x) = 0.06750 0.40491
# Poissons Ratio (y) = 0.04028 -0.12565
# Poissons Ratio (z) = 0.31127 -0.16189
#
# Static dielectric constant tensor:
#      x y z
#    x 1.964650 0.000000 0.022720 
#    y 0.000000 1.963520 0.000000 
#    z 0.022720 0.000000 2.094470 
# 
# From -- ./inp_files/50569.got.cif
#   From: 2010.05.17/outbox.cif.g08.bks.cpg/sg15_26_cif.got.tgz:50569.got - 2010.06.03 18:47:42.
