data_PCOD9257484
_publ_section_title
;
Structure prediction by ZEFSAII (Michael W. Deem and Ramdas Pophale) SiO2 
 PCOD9257484
Probable space group: C 2/C
;
_chemical_formula_sum "Si O2"
_cell_formula_units_Z 48
_cell_length_a 24.755024
_cell_length_b 11.901203
_cell_length_c 8.404608
_cell_angle_alpha 90.000000
_cell_angle_beta 106.135729
_cell_angle_gamma 90.000000
_cell_volume 2378.575760
_symmetry_space_group_name_H-M "C 2/C"
_symmetry_group_IT_number 15
_symmetry_cell_setting 'monoclinic'
loop_
_space_group_symop_operation_xyz
x,y,z
-x,y,1/2-z
-x,-y,-z
x,-y,1/2+z
1/2+x,1/2+y,z
1/2-x,1/2+y,1/2-z
1/2-x,1/2-y,-z
1/2+x,1/2-y,1/2+z
loop_
_atom_site_type_symbol
_atom_site_label
_atom_site_fract_x
_atom_site_fract_y
_atom_site_fract_z
Si Si1 0.884458 0.485889 0.964921
Si Si2 0.311694 0.891209 0.158474
Si Si3 0.648258 0.664067 0.689300
Si Si4 0.242570 0.792148 0.677431
Si Si5 0.936557 0.341255 0.749873
Si Si6 0.804996 0.994198 0.506096
O O1 0.832426 0.520351 0.809554
O O2 0.930961 0.429711 0.891080
O O3 0.862666 0.397280 0.077218
O O4 0.904615 0.596164 0.077564
O O5 0.298840 0.780865 0.247946
O O6 0.253929 0.926920 0.023338
O O7 0.695782 0.760684 0.709021
O O8 0.594932 0.729062 0.715716
O O9 0.649562 0.592501 0.527863
O O10 0.670678 0.571832 0.834911
O O11 0.250000 0.750000 0.500000
O O12 0.216257 0.914018 0.640813
O O13 0.000000 0.320853 0.750000
#
# Coordination Sequence:
#
# PCOD9257484 Si02
#       6
#     8   8   8   8   8   8
#     4  10  20  35  58  86 111 139 181 240 301 350
#     4  10  18  31  55  86 116 144 178 224 289 361
#     4  10  21  35  55  81 115 154 191 230 278 334
#     4   9  16  29  50  78 112 148 177 214 272 337
#     4  11  23  41  60  81 109 149 199 250 292 331
#     4  10  19  33  53  82 119 154 182 218 276 349
#
# _framework density 20.180145
#
# number of rings (size 3 to 8) (size 9 to 14) (size 15 to 20)
#    0.000    2.000    0.000    7.500    0.000    1.333 
#    0.000    5.000    0.000    0.000    0.000    0.000 
#    0.000    0.000    0.000    0.000    0.000    0.000 
#
# Total GULP energy -133848.672230 kJ/mol
# GULP energy per Si atom -5577.028010 kJ/mol
# Density = 2.013421 g / cm^3
# Si number density = 20.180145 Si / 1000 Ang^3
#
#
#
# Elastic Constant Matrix: (Units=GPa)
#
#
# Indices 1 2 3 4 5 6 
#
# 1 129.2750 42.1522 18.2530 0.0000 -17.5895 0.0000
# 2 42.1522 84.3533 19.6962 0.0000 -11.0424 0.0000
# 3 18.2530 19.6962 53.0141 0.0000 -9.4636 0.0000
# 4 0.0000 0.0000 0.0000 38.5868 0.0000 -14.3837
# 5 -17.5895 -11.0424 -9.4636 0.0000 20.7323 0.0000
# 6 0.0000 0.0000 0.0000 -14.3837 0.0000 38.3093
#
#
#
# Elastic Compliance Matrix: (Units=1/GPa)
#
#
# Indices 1 2 3 4 5 6 
#
# 1 0.009971 -0.004000 -0.000890 0.000000 0.005923 0.000000
# 2 -0.004000 0.015107 -0.003707 0.000000 0.002961 0.000000
# 3 -0.000890 -0.003707 0.021839 0.000000 0.007239 0.000000
# 4 0.000000 0.000000 0.000000 0.030133 0.000000 0.011314
# 5 0.005923 0.002961 0.007239 0.000000 0.058141 0.000000
# 6 0.000000 0.000000 0.000000 0.011314 0.000000 0.030351
#
#
# Mechanical properties :
#
#
# Convention : Reuss Voigt Hill
#
# Bulk Modulus (GPa) = 33.64285 47.42724 40.53505
# Shear Modulus (GPa) = 25.95486 31.96174 28.95830
#
# Velocity S-wave (km/s) = 3.59020 3.98404 3.79224
# Velocity P-wave (km/s) = 5.82181 6.68703 6.26937
#
# Compressibility (1/GPa) = 0.02972399
#
# Stress axis : x y z
#
# Youngs Moduli (GPa) = 100.28961 66.19602 45.78998
#
# Poissons Ratio (x) = 0.26475 0.04074
# Poissons Ratio (y) = 0.40111 0.16974
# Poissons Ratio (z) = 0.08924 0.24539
#
# Static dielectric constant tensor:
#      x y z
#    x 1.747600 0.000000 -0.054220 
#    y 0.000000 1.774110 0.000000 
#    z -0.054220 0.000000 1.796790 
# 
# From -- ./inp_files/60510.got.cif
#   From: 2010.05.17/outbox.cif.g08.bks.cpg/sg15_31_cif.got.tgz:60510.got - 2010.06.03 18:47:42.
