data_PCOD9257003
_publ_section_title
;
Structure prediction by ZEFSAII (Michael W. Deem and Ramdas Pophale) SiO2 
 PCOD9257003
Probable space group: C 2/C
;
_chemical_formula_sum "Si O2"
_cell_formula_units_Z 64
_cell_length_a 16.251389
_cell_length_b 27.203271
_cell_length_c 9.036902
_cell_angle_alpha 90.000000
_cell_angle_beta 57.906032
_cell_angle_gamma 90.000000
_cell_volume 3384.587800
_symmetry_space_group_name_H-M "C 2/C"
_symmetry_group_IT_number 15
_symmetry_cell_setting 'monoclinic'
loop_
_space_group_symop_operation_xyz
x,y,z
-x,y,1/2-z
-x,-y,-z
x,-y,1/2+z
1/2+x,1/2+y,z
1/2-x,1/2+y,1/2-z
1/2-x,1/2-y,-z
1/2+x,1/2-y,1/2+z
loop_
_atom_site_type_symbol
_atom_site_label
_atom_site_fract_x
_atom_site_fract_y
_atom_site_fract_z
Si Si1 0.709331 0.395155 0.013872
Si Si2 0.312741 0.395283 0.969586
Si Si3 0.208460 0.183572 0.763976
Si Si4 0.423840 0.758400 0.519701
Si Si5 0.699658 0.847452 0.839957
Si Si6 0.149539 0.035603 0.826624
Si Si7 0.569177 0.573403 0.414558
Si Si8 0.355274 0.740410 0.249974
O O1 0.723117 0.349347 0.108050
O O2 0.700673 0.442206 0.131787
O O3 0.786618 0.384537 0.810008
O O4 0.609825 0.396833 0.014856
O O5 0.218517 0.379154 0.968166
O O6 0.399718 0.400481 0.767508
O O7 0.332096 0.353274 0.071863
O O8 0.297715 0.444837 0.077023
O O9 0.131427 0.226164 0.806902
O O10 0.302279 0.211368 0.737003
O O11 0.397874 0.815375 0.568617
O O12 0.370313 0.745386 0.413448
O O13 0.534371 0.741890 0.410509
O O14 0.788025 0.806122 0.767086
O O15 0.129554 0.977857 0.846829
O O16 0.041940 0.059788 0.950564
#
# Coordination Sequence:
#
# PCOD9257003 Si02
#       8
#     8   8   8   8   8   8   8   8
#     4  10  22  32  49  70 106 139 164 209 257 290
#     4  10  18  30  51  66  94 135 168 207 247 288
#     4  10  19  36  48  74 106 133 174 218 245 297
#     4  10  19  32  54  75 100 138 175 213 257 299
#     4  10  19  36  48  74 106 133 174 218 245 297
#     4  10  20  33  48  71 102 134 169 207 251 308
#     4  10  20  33  48  71 102 134 169 207 251 308
#     4  10  19  32  54  75 100 138 175 213 257 299
#
# _framework density 18.909244999999999
#
# number of rings (size 3 to 8) (size 9 to 14) (size 15 to 20)
#    0.000    2.000    2.500    2.250    0.000   10.000 
#    0.000    1.875    0.000    0.000    0.000    0.000 
#    0.000   70.000    0.000    0.000    0.000    0.000 
#
# Total GULP energy -178300.223517 kJ/mol
# GULP energy per Si atom -5571.881985 kJ/mol
# Density = 1.886621 g / cm^3
# Si number density = 18.909245 Si / 1000 Ang^3
#
#
#
# Elastic Constant Matrix: (Units=GPa)
#
#
# Indices 1 2 3 4 5 6 
#
# 1 42.1693 10.0037 6.6401 0.0000 4.4198 0.0000
# 2 10.0037 43.7996 0.6978 0.0000 13.0863 0.0000
# 3 6.6401 0.6978 44.7190 0.0000 17.7837 0.0000
# 4 0.0000 0.0000 0.0000 24.4350 0.0000 -4.7099
# 5 4.4198 13.0863 17.7837 0.0000 21.4293 0.0000
# 6 0.0000 0.0000 0.0000 -4.7099 0.0000 22.8525
#
#
#
# Elastic Compliance Matrix: (Units=1/GPa)
#
#
# Indices 1 2 3 4 5 6 
#
# 1 0.025755 -0.006616 -0.004799 0.000000 0.002711 0.000000
# 2 -0.006616 0.032601 0.011714 0.000000 -0.028265 0.000000
# 3 -0.004799 0.011714 0.037826 0.000000 -0.037555 0.000000
# 4 0.000000 0.000000 0.000000 0.042618 0.000000 0.008784
# 5 0.002711 -0.028265 -0.037555 0.000000 0.094533 0.000000
# 6 0.000000 0.000000 0.000000 0.008784 0.000000 0.045569
#
#
# Mechanical properties :
#
#
# Convention : Reuss Voigt Hill
#
# Bulk Modulus (GPa) = 10.33267 18.37455 14.35361
# Shear Modulus (GPa) = 16.09976 21.29979 18.69977
#
# Velocity S-wave (km/s) = 2.92108 3.35986 3.14813
# Velocity P-wave (km/s) = 4.10526 4.97894 4.56306
#
# Compressibility (1/GPa) = 0.09678042
#
# Stress axis : x y z
#
# Youngs Moduli (GPa) = 38.82754 30.67430 26.43654
#
# Poissons Ratio (x) = 0.20293 0.12687
# Poissons Ratio (y) = 0.25687 -0.30968
# Poissons Ratio (z) = 0.18633 -0.35932
#
# Static dielectric constant tensor:
#      x y z
#    x 1.658580 0.000000 0.014330 
#    y 0.000000 1.699410 0.000000 
#    z 0.014330 0.000000 1.710880 
# 
# From -- ./inp_files/43502.got.cif
#   From: 2010.05.17/outbox.cif.g08.bks.cpg/sg15_22_cif.got.tgz:43502.got - 2010.06.03 18:47:42.
