data_PCOD9257407
_publ_section_title
;
Structure prediction by ZEFSAII (Michael W. Deem and Ramdas Pophale) SiO2 
 PCOD9257407
Probable space group: C 2/C
;
_chemical_formula_sum "Si O2"
_cell_formula_units_Z 56
_cell_length_a 9.352562
_cell_length_b 17.063571
_cell_length_c 32.359881
_cell_angle_alpha 90.000000
_cell_angle_beta 145.223317
_cell_angle_gamma 90.000000
_cell_volume 2945.582746
_symmetry_space_group_name_H-M "C 2/C"
_symmetry_group_IT_number 15
_symmetry_cell_setting 'monoclinic'
loop_
_space_group_symop_operation_xyz
x,y,z
-x,y,1/2-z
-x,-y,-z
x,-y,1/2+z
1/2+x,1/2+y,z
1/2-x,1/2+y,1/2-z
1/2-x,1/2-y,-z
1/2+x,1/2-y,1/2+z
loop_
_atom_site_type_symbol
_atom_site_label
_atom_site_fract_x
_atom_site_fract_y
_atom_site_fract_z
Si Si1 0.384510 0.271646 0.988745
Si Si2 0.794145 0.447570 0.329174
Si Si3 0.014776 0.389454 0.621657
Si Si4 0.615947 0.158841 0.237107
Si Si5 0.647453 0.272875 0.853507
Si Si6 0.109012 0.615862 0.735849
Si Si7 0.351605 0.316251 0.143865
O O1 0.298261 0.214811 0.931253
O O2 0.267264 0.356474 0.950136
O O3 0.250000 0.250000 0.000000
O O4 0.674287 0.259083 0.067826
O O5 0.500000 0.465483 0.250000
O O6 0.928506 0.523297 0.379821
O O7 0.912290 0.426346 0.313077
O O8 0.794530 0.372524 0.359374
O O9 0.087629 0.385861 0.687198
O O10 0.193529 0.328287 0.639598
O O11 0.500000 0.120073 0.250000
O O12 0.461748 0.240086 0.193425
O O13 0.906193 0.180247 0.312035
O O14 0.541716 0.197412 0.804641
O O15 0.401201 0.636311 0.811450
O O16 0.000000 0.573814 0.750000
#
# Coordination Sequence:
#
# PCOD9257407 Si02
#       7
#     8   8   8   8   8   8   8
#     4   9  18  33  55  80 104 137 180 219 255 309
#     4  10  20  34  52  77 106 137 172 215 267 314
#     4  10  20  35  55  79 106 135 173 221 262 304
#     4  10  18  31  53  80 104 131 174 221 259 305
#     4  10  18  33  56  78 101 138 180 213 253 311
#     4  10  18  31  54  78 103 137 177 216 257 310
#     4   9  18  33  52  76 106 139 174 213 260 317
#
# _framework density 19.011517000000001
#
# number of rings (size 3 to 8) (size 9 to 14) (size 15 to 20)
#    0.000    2.286    0.000    6.857    0.000    0.571 
#    0.000   10.000    0.000    1.714    0.000    0.000 
#    0.000    0.000    0.000    0.000    0.000    0.000 
#
# Total GULP energy -156188.834504 kJ/mol
# GULP energy per Si atom -5578.172661 kJ/mol
# Density = 1.896825 g / cm^3
# Si number density = 19.011517 Si / 1000 Ang^3
#
#
#
# Elastic Constant Matrix: (Units=GPa)
#
#
# Indices 1 2 3 4 5 6 
#
# 1 100.0728 29.2202 31.4667 0.0001 -17.6957 0.0000
# 2 29.2202 80.1608 10.7727 0.0001 -6.7480 0.0000
# 3 31.4667 10.7727 109.1534 0.0004 -7.2460 0.0001
# 4 0.0001 0.0001 0.0004 10.6642 0.0001 -3.6706
# 5 -17.6957 -6.7480 -7.2460 0.0001 13.2357 0.0000
# 6 0.0000 0.0000 0.0001 -3.6706 0.0000 15.0236
#
#
#
# Elastic Compliance Matrix: (Units=1/GPa)
#
#
# Indices 1 2 3 4 5 6 
#
# 1 0.014858 -0.003651 -0.002831 0.000000 0.016454 0.000000
# 2 -0.003651 0.014013 -0.000187 0.000000 0.002161 0.000000
# 3 -0.002831 -0.000187 0.010106 0.000000 0.001652 0.000000
# 4 0.000000 0.000000 0.000000 0.102381 -0.000001 0.025014
# 5 0.016454 0.002161 0.001652 -0.000001 0.099558 0.000000
# 6 0.000000 0.000000 0.000000 0.025014 0.000000 0.072673
#
#
# Mechanical properties :
#
#
# Convention : Reuss Voigt Hill
#
# Bulk Modulus (GPa) = 39.00202 48.03402 43.51802
# Shear Modulus (GPa) = 14.90435 22.31321 18.60878
#
# Velocity S-wave (km/s) = 2.80297 3.42960 3.13200
# Velocity P-wave (km/s) = 5.57091 6.40340 6.00160
#
# Compressibility (1/GPa) = 0.02563970
#
# Stress axis : x y z
#
# Youngs Moduli (GPa) = 67.30233 71.36381 98.95468
#
# Poissons Ratio (x) = 0.26052 0.28012
# Poissons Ratio (y) = 0.24569 0.01851
# Poissons Ratio (z) = 0.19052 0.01335
#
# Static dielectric constant tensor:
#      x y z
#    x 1.695130 0.000000 0.008520 
#    y 0.000000 1.666390 0.000000 
#    z 0.008520 0.000000 1.667300 
# 
# From -- ./inp_files/308661.got.cif
#   From: 2010.05.17/outbox.cif.g08.bks.cpg/sg15_155_cif.got.tgz:308661.got - 2010.06.03 18:47:42.
