data_PCOD9257654
_publ_section_title
;
Structure prediction by ZEFSAII (Michael W. Deem and Ramdas Pophale) SiO2 
 PCOD9257654
Probable space group: C 2/C
;
_chemical_formula_sum "Si O2"
_cell_formula_units_Z 52
_cell_length_a 14.744529
_cell_length_b 8.412072
_cell_length_c 19.424646
_cell_angle_alpha 90.000000
_cell_angle_beta 125.879270
_cell_angle_gamma 90.000000
_cell_volume 1952.126886
_symmetry_space_group_name_H-M "C 2/C"
_symmetry_group_IT_number 15
_symmetry_cell_setting 'monoclinic'
loop_
_space_group_symop_operation_xyz
x,y,z
-x,y,1/2-z
-x,-y,-z
x,-y,1/2+z
1/2+x,1/2+y,z
1/2-x,1/2+y,1/2-z
1/2-x,1/2-y,-z
1/2+x,1/2-y,1/2+z
loop_
_atom_site_type_symbol
_atom_site_label
_atom_site_fract_x
_atom_site_fract_y
_atom_site_fract_z
Si Si1 0.995202 0.742983 0.954660
Si Si2 0.510901 0.254442 0.172463
Si Si3 0.701966 0.575681 0.960038
Si Si4 0.000000 0.213895 0.250000
Si Si5 0.382441 0.924447 0.109950
Si Si6 0.363656 0.529977 0.304304
Si Si7 0.669867 0.058322 0.115893
O O1 0.914878 0.893513 0.898249
O O2 0.907169 0.598751 0.918112
O O3 0.076104 0.704274 0.926399
O O4 0.083322 0.701740 0.055995
O O5 0.500000 0.259181 0.250000
O O6 0.425441 0.380214 0.100438
O O7 0.462688 0.078543 0.134510
O O8 0.624734 0.341106 0.202384
O O9 0.745577 0.488946 0.909953
O O10 0.750000 0.750000 0.000000
O O11 0.754987 0.470239 0.043059
O O12 0.901772 0.339014 0.189479
O O13 0.944566 0.108310 0.282946
O O14 0.240226 0.567656 0.218092
#
# Coordination Sequence:
#
# PCOD9257654 Si02
#       7
#     8   8   8   4   8   8   8
#     4   9  22  38  57  80 108 153 189 223 276 342
#     4  11  18  32  53  81 110 141 176 232 281 314
#     4   9  18  32  54  80 103 143 182 221 279 329
#     4  10  18  32  50  82 112 136 186 228 268 330
#     4   9  19  33  53  76 110 148 183 219 274 338
#     4  11  21  34  58  86 110 146 187 234 284 323
#     4  10  19  39  57  76 116 149 184 232 278 329
#
# _framework density 26.637613999999999
#
# number of rings (size 3 to 8) (size 9 to 14) (size 15 to 20)
#    0.000    2.154    3.077    0.000    0.000    2.462 
#    0.000    4.615    0.000   15.692    0.000    0.000 
#    0.000    0.000    0.000    0.000    0.000    0.000 
#
# Total GULP energy -144926.309161 kJ/mol
# GULP energy per Si atom -5574.088814 kJ/mol
# Density = 2.657699 g / cm^3
# Si number density = 26.637614 Si / 1000 Ang^3
#
#
#
# Elastic Constant Matrix: (Units=GPa)
#
#
# Indices 1 2 3 4 5 6 
#
# 1 30.2533 31.7324 1.9448 0.0000 7.2563 0.0000
# 2 31.7324 137.5248 70.0294 0.0000 7.0761 0.0000
# 3 1.9448 70.0294 147.2727 0.0000 18.1374 0.0000
# 4 0.0000 0.0000 0.0000 61.1337 0.0000 -0.8422
# 5 7.2563 7.0761 18.1374 0.0000 25.9242 0.0000
# 6 0.0000 0.0000 0.0000 -0.8422 0.0000 35.5284
#
#
#
# Elastic Compliance Matrix: (Units=1/GPa)
#
#
# Indices 1 2 3 4 5 6 
#
# 1 0.053303 -0.016006 0.008980 0.000000 -0.016834 0.000000
# 2 -0.016006 0.014410 -0.007341 0.000000 0.005682 0.000000
# 3 0.008980 -0.007341 0.011189 0.000000 -0.008338 0.000000
# 4 0.000000 0.000000 0.000000 0.016363 0.000000 0.000388
# 5 -0.016834 0.005682 -0.008338 0.000000 0.047568 0.000000
# 6 0.000000 0.000000 0.000000 0.000388 0.000000 0.028156
#
#
# Mechanical properties :
#
#
# Convention : Reuss Voigt Hill
#
# Bulk Modulus (GPa) = 19.93252 58.05157 38.99204
# Shear Modulus (GPa) = 23.10070 38.60690 30.85380
#
# Velocity S-wave (km/s) = 2.94806 3.81115 3.40704
# Velocity P-wave (km/s) = 4.36888 6.41926 5.49063
#
# Compressibility (1/GPa) = 0.05016927
#
# Stress axis : x y z
#
# Youngs Moduli (GPa) = 18.76082 69.39596 89.37433
#
# Poissons Ratio (x) = 1.11072 -0.80258
# Poissons Ratio (y) = 0.30028 0.65606
# Poissons Ratio (z) = -0.16847 0.50940
#
# Static dielectric constant tensor:
#      x y z
#    x 2.147070 0.000000 0.002000 
#    y 0.000000 2.083870 0.000000 
#    z 0.002000 0.000000 2.259140 
# 
# From -- ./inp_files/171387.got.cif
#   From: 2010.05.17/outbox.cif.g08.bks.cpg/sg15_86_cif.got.tgz:171387.got - 2010.06.03 18:47:42.
