data_PCOD9257364
_publ_section_title
;
Structure prediction by ZEFSAII (Michael W. Deem and Ramdas Pophale) SiO2 
 PCOD9257364
Probable space group: C 2/C
;
_chemical_formula_sum "Si O2"
_cell_formula_units_Z 64
_cell_length_a 22.074309
_cell_length_b 20.002025
_cell_length_c 9.118222
_cell_angle_alpha 90.000000
_cell_angle_beta 138.301286
_cell_angle_gamma 90.000000
_cell_volume 2678.134365
_symmetry_space_group_name_H-M "C 2/C"
_symmetry_group_IT_number 15
_symmetry_cell_setting 'monoclinic'
loop_
_space_group_symop_operation_xyz
x,y,z
-x,y,1/2-z
-x,-y,-z
x,-y,1/2+z
1/2+x,1/2+y,z
1/2-x,1/2+y,1/2-z
1/2-x,1/2-y,-z
1/2+x,1/2-y,1/2+z
loop_
_atom_site_type_symbol
_atom_site_label
_atom_site_fract_x
_atom_site_fract_y
_atom_site_fract_z
Si Si1 0.641423 0.074032 0.837152
Si Si2 0.168926 0.074072 0.653004
Si Si3 0.427045 0.352691 0.747006
Si Si4 0.349192 0.778957 0.220957
Si Si5 0.343574 0.426971 0.841078
Si Si6 0.640907 0.807784 0.912478
Si Si7 0.835657 0.834879 0.107030
Si Si8 0.881142 0.444885 0.546681
O O1 0.747908 0.068353 0.079047
O O2 0.591915 0.016602 0.841739
O O3 0.624746 0.153210 0.817404
O O4 0.617023 0.056334 0.625284
O O5 0.162305 0.125898 0.508751
O O6 0.124133 0.110372 0.710205
O O7 0.273593 0.063028 0.881488
O O8 0.134092 0.000105 0.554288
O O9 0.500000 0.359648 0.750000
O O10 0.417080 0.279508 0.794722
O O11 0.421603 0.403582 0.871693
O O12 0.347419 0.794432 0.391748
O O13 0.250000 0.750000 0.000000
O O14 0.330185 0.370723 0.940625
O O15 0.734866 0.819240 0.991113
O O16 0.583702 0.877257 0.807875
O O17 0.609916 0.734956 0.799397
#
# Coordination Sequence:
#
# PCOD9257364 Si02
#       8
#     8   8   8   8   8   8   8   8
#     4  10  19  30  54  80 115 140 179 225 284 325
#     4  10  21  34  50  77 109 149 191 221 260 325
#     4  12  24  39  56  80 111 151 192 226 271 327
#     4  11  18  37  57  80 108 145 184 228 278 326
#     4  11  20  35  55  77 111 154 184 227 272 312
#     4   9  18  29  50  78 108 136 180 226 278 326
#     4  10  18  31  52  77 105 145 186 227 270 315
#     4   9  18  30  47  82 111 139 174 228 274 330
#
# _framework density 23.897231999999999
#
# number of rings (size 3 to 8) (size 9 to 14) (size 15 to 20)
#    0.000    1.750    3.750    2.250    8.750    1.500 
#    0.000    0.625    0.000    0.000    0.000    3.500 
#    0.000    0.000    0.000    0.000    0.000    0.125 
#
# Total GULP energy -178442.606663 kJ/mol
# GULP energy per Si atom -5576.331458 kJ/mol
# Density = 2.384284 g / cm^3
# Si number density = 23.897232 Si / 1000 Ang^3
#
#
#
# Elastic Constant Matrix: (Units=GPa)
#
#
# Indices 1 2 3 4 5 6 
#
# 1 96.3469 52.7503 39.4576 0.0000 -20.5852 0.0000
# 2 52.7503 187.3992 37.4177 0.0000 -8.2795 0.0000
# 3 39.4576 37.4177 44.8959 0.0000 -13.7103 0.0000
# 4 0.0000 0.0000 0.0000 20.6198 0.0000 -32.7526
# 5 -20.5852 -8.2795 -13.7103 0.0000 25.2432 0.0000
# 6 0.0000 0.0000 0.0000 -32.7526 0.0000 0.1967
#
#
#
# Elastic Compliance Matrix: (Units=1/GPa)
#
#
# Indices 1 2 3 4 5 6 
#
# 1 0.018070 -0.002453 -0.011488 0.000000 0.007692 0.000000
# 2 -0.002453 0.006754 -0.004085 0.000000 -0.002004 0.000000
# 3 -0.011488 -0.004085 0.038968 0.000000 0.010457 0.000000
# 4 0.000000 0.000000 0.000000 -0.000184 0.000000 -0.030648
# 5 0.007692 -0.002004 0.010457 0.000000 0.050909 0.000000
# 6 0.000000 0.000000 0.000000 -0.030648 0.000000 -0.019295
#
#
# Mechanical properties :
#
#
# Convention : Reuss Voigt Hill
#
# Bulk Modulus (GPa) = 36.04883 65.32149 50.68516
# Shear Modulus (GPa) = 35.58166 22.47970 29.03068
#
# Velocity S-wave (km/s) = 3.86287 3.07038 3.48920
# Velocity P-wave (km/s) = 5.91721 6.32166 6.12277
#
# Compressibility (1/GPa) = 0.02774015
#
# Stress axis : x y z
#
# Youngs Moduli (GPa) = 55.33898 148.06554 25.66194
#
# Poissons Ratio (x) = 0.36319 0.29481
# Poissons Ratio (y) = 0.13574 0.10483
# Poissons Ratio (z) = 0.63575 0.60484
#
# Static dielectric constant tensor:
#      x y z
#    x 1.842100 0.000000 0.024600 
#    y 0.000000 1.960540 0.000000 
#    z 0.024600 0.000000 1.937940 
# 
# From -- ./inp_files/63268.got.cif
#   From: 2010.05.17/outbox.cif.g08.bks.cpg/sg15_32_cif.got.tgz:63268.got - 2010.06.03 18:47:42.
