data_PCOD9257754
_publ_section_title
;
Structure prediction by ZEFSAII (Michael W. Deem and Ramdas Pophale) SiO2 
 PCOD9257754
Probable space group: C 2/C
;
_chemical_formula_sum "Si O2"
_cell_formula_units_Z 48
_cell_length_a 7.859469
_cell_length_b 21.244287
_cell_length_c 15.703096
_cell_angle_alpha 90.000000
_cell_angle_beta 46.547391
_cell_angle_gamma 90.000000
_cell_volume 1903.371054
_symmetry_space_group_name_H-M "C 2/C"
_symmetry_group_IT_number 15
_symmetry_cell_setting 'monoclinic'
loop_
_space_group_symop_operation_xyz
x,y,z
-x,y,1/2-z
-x,-y,-z
x,-y,1/2+z
1/2+x,1/2+y,z
1/2-x,1/2+y,1/2-z
1/2-x,1/2-y,-z
1/2+x,1/2-y,1/2+z
loop_
_atom_site_type_symbol
_atom_site_label
_atom_site_fract_x
_atom_site_fract_y
_atom_site_fract_z
Si Si1 0.622837 0.531735 0.798295
Si Si2 0.360241 0.846189 0.142855
Si Si3 0.322924 0.342770 0.902113
Si Si4 0.307644 0.373978 0.492018
Si Si5 0.740253 0.288789 0.336109
Si Si6 0.691412 0.100912 0.276918
O O1 0.500000 0.518719 0.750000
O O2 0.784343 0.591040 0.718752
O O3 0.436327 0.558841 0.930788
O O4 0.760381 0.468864 0.774012
O O5 0.276425 0.853005 0.074037
O O6 0.230649 0.789293 0.235870
O O7 0.640114 0.841403 0.040817
O O8 0.272902 0.277684 0.870093
O O9 0.592414 0.356178 0.830091
O O10 0.244120 0.396309 0.861706
O O11 0.509049 0.324263 0.446323
O O12 0.080311 0.378528 0.630576
O O13 0.000000 0.319615 0.250000
#
# Coordination Sequence:
#
# PCOD9257754 Si02
#       6
#     8   8   8   8   8   8
#     4   9  16  30  55  84 121 142 186 243 301 349
#     4   9  21  36  60  88 113 157 197 240 296 343
#     4  10  20  35  53  90 119 153 189 247 291 342
#     4   9  21  36  58  88 114 158 194 245 294 344
#     4  11  21  40  57  80 122 161 200 232 292 359
#     4  10  18  32  52  91 119 143 189 247 302 332
#
# _framework density 25.218415
#
# number of rings (size 3 to 8) (size 9 to 14) (size 15 to 20)
#    0.000    2.333    3.333    1.500    2.333    5.333 
#    0.000    0.000    0.000    5.000    0.000    0.000 
#    0.000    0.000    0.000    0.000    0.000    0.000 
#
# Total GULP energy -134014.917411 kJ/mol
# GULP energy per Si atom -5583.954892 kJ/mol
# Density = 2.516102 g / cm^3
# Si number density = 25.218415 Si / 1000 Ang^3
#
#
#
# Elastic Constant Matrix: (Units=GPa)
#
#
# Indices 1 2 3 4 5 6 
#
# 1 76.2552 46.1136 50.8910 0.0000 -28.6463 0.0000
# 2 46.1136 144.7527 75.9742 0.0000 -25.5956 0.0000
# 3 50.8910 75.9742 264.2178 0.0000 -28.2172 0.0000
# 4 0.0000 0.0000 0.0000 22.5006 0.0000 -14.6738
# 5 -28.6463 -25.5956 -28.2172 0.0000 48.1732 0.0000
# 6 0.0000 0.0000 0.0000 -14.6738 0.0000 21.5443
#
#
#
# Elastic Compliance Matrix: (Units=1/GPa)
#
#
# Indices 1 2 3 4 5 6 
#
# 1 0.019934 -0.003861 -0.001795 0.000000 0.008751 0.000000
# 2 -0.003861 0.009358 -0.001772 0.000000 0.001638 0.000000
# 3 -0.001795 -0.001772 0.004721 0.000000 0.000756 0.000000
# 4 0.000000 0.000000 0.000000 0.079960 0.000000 0.054460
# 5 0.008751 0.001638 0.000756 0.000000 0.027276 0.000000
# 6 0.000000 0.000000 0.000000 0.054460 0.000000 0.083509
#
#
# Mechanical properties :
#
#
# Convention : Reuss Voigt Hill
#
# Bulk Modulus (GPa) = 52.20021 92.35371 72.27696
# Shear Modulus (GPa) = 20.32532 39.26009 29.79271
#
# Velocity S-wave (km/s) = 2.84204 3.94991 3.44086
# Velocity P-wave (km/s) = 5.61372 7.58310 6.67148
#
# Compressibility (1/GPa) = 0.01915701
#
# Stress axis : x y z
#
# Youngs Moduli (GPa) = 50.16587 106.85856 211.82796
#
# Poissons Ratio (x) = 0.41257 0.38017
# Poissons Ratio (y) = 0.19369 0.37542
# Poissons Ratio (z) = 0.09003 0.18938
#
# Static dielectric constant tensor:
#      x y z
#    x 2.209250 0.000000 0.027530 
#    y 0.000000 1.973690 0.000000 
#    z 0.027530 0.000000 2.000770 
# 
# From -- ./inp_files/293588.got.cif
#   From: 2010.05.17/outbox.cif.g08.bks.cpg/sg15_147_cif.got.tgz:293588.got - 2010.06.03 18:47:42.
