data_PCOD9257450
_publ_section_title
;
Structure prediction by ZEFSAII (Michael W. Deem and Ramdas Pophale) SiO2 
 PCOD9257450
Probable space group: C 2/C
;
_chemical_formula_sum "Si O2"
_cell_formula_units_Z 40
_cell_length_a 7.968106
_cell_length_b 13.454130
_cell_length_c 19.103364
_cell_angle_alpha 90.000000
_cell_angle_beta 53.567507
_cell_angle_gamma 90.000000
_cell_volume 1647.697428
_symmetry_space_group_name_H-M "C 2/C"
_symmetry_group_IT_number 15
_symmetry_cell_setting 'monoclinic'
loop_
_space_group_symop_operation_xyz
x,y,z
-x,y,1/2-z
-x,-y,-z
x,-y,1/2+z
1/2+x,1/2+y,z
1/2-x,1/2+y,1/2-z
1/2-x,1/2-y,-z
1/2+x,1/2-y,1/2+z
loop_
_atom_site_type_symbol
_atom_site_label
_atom_site_fract_x
_atom_site_fract_y
_atom_site_fract_z
Si Si1 0.211201 0.878262 0.672539
Si Si2 0.322478 0.167738 0.426400
Si Si3 0.842818 0.031140 0.927795
Si Si4 0.241698 0.190096 0.667403
Si Si5 0.706147 0.047655 0.735194
O O1 0.427694 0.824620 0.633859
O O2 0.000000 0.826490 0.750000
O O3 0.199103 0.923848 0.596939
O O4 0.220520 0.971975 0.723075
O O5 0.250000 0.250000 0.500000
O O6 0.251559 0.061089 0.473932
O O7 0.227310 0.202654 0.375768
O O8 0.734665 0.108729 0.900220
O O9 0.089635 0.055973 0.863779
O O10 0.354939 0.147333 0.707100
O O11 0.000000 0.186744 0.750000
O O12 0.500000 0.007995 0.750000
#
# Coordination Sequence:
#
# PCOD9257450 Si02
#       5
#     8   8   8   8   8
#     4   9  18  33  55  81 108 147 195 229 267 336
#     4  10  18  31  54  83 113 147 178 229 293 338
#     4   8  16  32  54  79 106 144 188 231 276 323
#     4   8  16  31  50  74 106 144 183 223 281 339
#     4   9  17  33  55  77 106 150 196 234 270 324
#
# _framework density 24.276302999999999
#
# number of rings (size 3 to 8) (size 9 to 14) (size 15 to 20)
#    0.000    3.200    0.000    3.000    0.000    0.800 
#    0.000   11.000    0.000    4.800    0.000    4.200 
#    0.000    0.000    0.000    1.200    0.000    0.000 
#
# Total GULP energy -111586.713463 kJ/mol
# GULP energy per Si atom -5579.335673 kJ/mol
# Density = 2.422105 g / cm^3
# Si number density = 24.276303 Si / 1000 Ang^3
#
#
#
# Elastic Constant Matrix: (Units=GPa)
#
#
# Indices 1 2 3 4 5 6 
#
# 1 75.6722 21.4883 15.5200 -0.0001 -16.0973 0.0001
# 2 21.4883 51.3504 16.2114 -0.0001 2.3727 0.0001
# 3 15.5200 16.2114 74.6547 0.0001 -19.6559 0.0000
# 4 -0.0001 -0.0001 0.0001 15.0463 0.0000 -4.1887
# 5 -16.0973 2.3727 -19.6559 0.0000 31.3511 0.0000
# 6 0.0001 0.0001 0.0000 -4.1887 0.0000 34.8864
#
#
#
# Elastic Compliance Matrix: (Units=1/GPa)
#
#
# Indices 1 2 3 4 5 6 
#
# 1 0.017474 -0.008015 0.000754 0.000000 0.010052 0.000000
# 2 -0.008015 0.025347 -0.006499 0.000000 -0.010108 0.000000
# 3 0.000754 -0.006499 0.017823 0.000000 0.012054 0.000000
# 4 0.000000 0.000000 0.000000 0.068760 0.000000 0.008256
# 5 0.010052 -0.010108 0.012054 0.000000 0.045380 0.000000
# 6 0.000000 0.000000 0.000000 0.008256 0.000000 0.029656
#
#
# Mechanical properties :
#
#
# Convention : Reuss Voigt Hill
#
# Bulk Modulus (GPa) = 30.18931 34.23518 32.21225
# Shear Modulus (GPa) = 20.57600 26.15394 23.36497
#
# Velocity S-wave (km/s) = 2.91447 3.28585 3.10572
# Velocity P-wave (km/s) = 4.87732 5.34123 5.11454
#
# Compressibility (1/GPa) = 0.03312431
#
# Stress axis : x y z
#
# Youngs Moduli (GPa) = 57.22652 39.45249 56.10681
#
# Poissons Ratio (x) = 0.31621 -0.04232
# Poissons Ratio (y) = 0.45867 0.36466
# Poissons Ratio (z) = -0.04316 0.25642
#
# Static dielectric constant tensor:
#      x y z
#    x 1.919670 0.000000 0.078480 
#    y 0.000000 2.015360 0.000000 
#    z 0.078480 0.000000 2.023720 
# 
# From -- ./inp_files/133840.got.cif
#   From: 2010.05.17/outbox.cif.g08.bks.cpg/sg15_67_cif.got.tgz:133840.got - 2010.06.03 18:47:42.
