data_PCOD9257399
_publ_section_title
;
Structure prediction by ZEFSAII (Michael W. Deem and Ramdas Pophale) SiO2 
 PCOD9257399
Probable space group: C 2/C
;
_chemical_formula_sum "Si O2"
_cell_formula_units_Z 48
_cell_length_a 15.211169
_cell_length_b 9.194130
_cell_length_c 18.959225
_cell_angle_alpha 90.000000
_cell_angle_beta 81.901916
_cell_angle_gamma 90.000000
_cell_volume 2625.073402
_symmetry_space_group_name_H-M "C 2/C"
_symmetry_group_IT_number 15
_symmetry_cell_setting 'monoclinic'
loop_
_space_group_symop_operation_xyz
x,y,z
-x,y,1/2-z
-x,-y,-z
x,-y,1/2+z
1/2+x,1/2+y,z
1/2-x,1/2+y,1/2-z
1/2-x,1/2-y,-z
1/2+x,1/2-y,1/2+z
loop_
_atom_site_type_symbol
_atom_site_label
_atom_site_fract_x
_atom_site_fract_y
_atom_site_fract_z
Si Si1 0.946474 0.172087 0.687088
Si Si2 0.454836 0.069023 0.387432
Si Si3 0.656851 0.059951 0.234440
Si Si4 0.634890 0.900381 0.377406
Si Si5 0.276374 0.919551 0.996271
Si Si6 0.666892 0.435196 0.879426
O O1 0.875482 0.290621 0.724786
O O2 0.000000 0.119255 0.750000
O O3 0.011784 0.266735 0.630276
O O4 0.900305 0.046247 0.648593
O O5 0.417636 0.020089 0.315153
O O6 0.372629 0.063629 0.449320
O O7 0.539389 0.974839 0.399869
O O8 0.747127 0.077508 0.181074
O O9 0.663073 0.941708 0.295194
O O10 0.707478 0.962366 0.424658
O O11 0.628876 0.727757 0.389296
O O12 0.204054 0.987866 0.951550
O O13 0.250000 0.750000 0.000000
#
# Coordination Sequence:
#
# PCOD9257399 Si02
#       6
#     8   8   8   8   8   8
#     4   9  18  32  50  73 100 130 162 203 252 292
#     4   9  18  34  53  71  98 132 165 201 245 294
#     4   9  18  33  52  72  99 133 165 199 243 294
#     4  10  18  31  53  76  97 129 168 202 238 290
#     4   9  19  34  52  72  98 133 167 199 244 296
#     4  10  19  32  51  76 101 127 164 206 243 288
#
# _framework density 18.285202999999999
#
# number of rings (size 3 to 8) (size 9 to 14) (size 15 to 20)
#    0.000    2.667    0.000    3.000    0.000    2.667 
#    0.000    6.667    0.000    4.000    0.000    0.000 
#    0.000    0.000    0.000    0.000    0.000    0.000 
#
# Total GULP energy -133750.095081 kJ/mol
# GULP energy per Si atom -5572.920628 kJ/mol
# Density = 1.824359 g / cm^3
# Si number density = 18.285203 Si / 1000 Ang^3
#
#
#
# Elastic Constant Matrix: (Units=GPa)
#
#
# Indices 1 2 3 4 5 6 
#
# 1 63.5790 29.6954 22.5843 0.0000 35.0108 0.0000
# 2 29.6954 46.6034 27.6711 0.0000 34.4384 0.0000
# 3 22.5843 27.6711 77.4111 0.0000 40.0330 0.0000
# 4 0.0000 0.0000 0.0000 21.1107 0.0000 11.7379
# 5 35.0108 34.4384 40.0330 0.0000 39.3089 0.0000
# 6 0.0000 0.0000 0.0000 11.7379 0.0000 22.8403
#
#
#
# Elastic Compliance Matrix: (Units=1/GPa)
#
#
# Indices 1 2 3 4 5 6 
#
# 1 0.037235 0.009019 0.015105 0.000000 -0.056448 0.000000
# 2 0.009019 0.069133 0.017183 0.000000 -0.086100 0.000000
# 3 0.015105 0.017183 0.036152 0.000000 -0.065325 0.000000
# 4 0.000000 0.000000 0.000000 0.066320 0.000000 -0.034083
# 5 -0.056448 -0.086100 -0.065325 0.000000 0.217676 0.000000
# 6 0.000000 0.000000 0.000000 -0.034083 0.000000 0.061298
#
#
# Mechanical properties :
#
#
# Convention : Reuss Voigt Hill
#
# Bulk Modulus (GPa) = 4.44181 38.61058 21.52620
# Shear Modulus (GPa) = 10.41137 23.82813 17.11975
#
# Velocity S-wave (km/s) = 2.38877 3.61382 3.06316
# Velocity P-wave (km/s) = 3.16903 6.21084 4.93038
#
# Compressibility (1/GPa) = 0.22513332
#
# Stress axis : x y z
#
# Youngs Moduli (GPa) = 26.85679 14.46481 27.66111
#
# Poissons Ratio (x) = -0.13046 -0.41783
# Poissons Ratio (y) = -0.24222 -0.47530
# Poissons Ratio (z) = -0.40568 -0.24855
#
# Static dielectric constant tensor:
#      x y z
#    x 1.636660 0.000000 0.007320 
#    y 0.000000 1.597870 0.000000 
#    z 0.007320 0.000000 1.671350 
# 
# From -- ./inp_files/202968.got.cif
#   From: 2010.05.17/outbox.cif.g08.bks.cpg/sg15_102_cif.got.tgz:202968.got - 2010.06.03 18:47:42.
