data_PCOD9257109
_publ_section_title
;
Structure prediction by ZEFSAII (Michael W. Deem and Ramdas Pophale) SiO2 
 PCOD9257109
Probable space group: C 2/C
;
_chemical_formula_sum "Si O2"
_cell_formula_units_Z 48
_cell_length_a 8.592323
_cell_length_b 13.309588
_cell_length_c 20.133615
_cell_angle_alpha 90.000000
_cell_angle_beta 130.939968
_cell_angle_gamma 90.000000
_cell_volume 1739.289866
_symmetry_space_group_name_H-M "C 2/C"
_symmetry_group_IT_number 15
_symmetry_cell_setting 'monoclinic'
loop_
_space_group_symop_operation_xyz
x,y,z
-x,y,1/2-z
-x,-y,-z
x,-y,1/2+z
1/2+x,1/2+y,z
1/2-x,1/2+y,1/2-z
1/2-x,1/2-y,-z
1/2+x,1/2-y,1/2+z
loop_
_atom_site_type_symbol
_atom_site_label
_atom_site_fract_x
_atom_site_fract_y
_atom_site_fract_z
Si Si1 0.869790 0.124993 0.580698
Si Si2 0.197941 0.510745 0.421819
Si Si3 0.599584 0.755732 0.170680
Si Si4 0.500000 0.926750 0.250000
Si Si5 0.901337 0.336114 0.001761
Si Si6 0.644849 0.171073 0.153094
Si Si7 0.500000 0.624359 0.750000
O O1 0.626203 0.134417 0.531513
O O2 0.994932 0.230299 0.615017
O O3 0.969839 0.067451 0.671901
O O4 0.871363 0.079362 0.506484
O O5 0.186252 0.485438 0.339694
O O6 0.172942 0.421907 0.468838
O O7 0.986704 0.573557 0.368876
O O8 0.548726 0.850415 0.204029
O O9 0.456534 0.744037 0.066265
O O10 0.678427 0.673290 0.242997
O O11 0.809103 0.799932 0.197390
O O12 0.771731 0.322652 0.898582
#
# Coordination Sequence:
#
# PCOD9257109 Si02
#       7
#     8   8   8   4   8   8   4
#     4   9  16  28  50  79 102 128 171 216 250 295
#     4  10  19  31  51  75 103 139 171 205 256 313
#     4   9  19  35  53  76 105 139 172 212 259 306
#     4  10  22  37  52  75 110 140 170 214 264 307
#     4   9  17  31  50  74 104 136 168 207 257 311
#     4  10  18  30  54  79  99 130 177 218 247 296
#     4   8  16  31  52  73 100 134 168 208 250 297
#
# _framework density 27.597470000000001
#
# number of rings (size 3 to 8) (size 9 to 14) (size 15 to 20)
#    0.000    2.667    0.000    4.000    0.000    5.333 
#    0.000    6.667    0.000   28.000    0.000    0.000 
#    0.000    0.000    0.000    0.000    0.000    0.000 
#
# Total GULP energy -133956.925642 kJ/mol
# GULP energy per Si atom -5581.538568 kJ/mol
# Density = 2.753466 g / cm^3
# Si number density = 27.597470 Si / 1000 Ang^3
#
#
#
# Elastic Constant Matrix: (Units=GPa)
#
#
# Indices 1 2 3 4 5 6 
#
# 1 47.9769 9.1907 21.8688 0.0000 -12.8345 0.0000
# 2 9.1907 84.4674 54.0700 0.0000 -4.7230 0.0000
# 3 21.8688 54.0700 290.6416 0.0000 -7.4239 0.0000
# 4 0.0000 0.0000 0.0000 20.6863 0.0000 -1.9366
# 5 -12.8345 -4.7230 -7.4239 0.0000 44.5970 0.0000
# 6 0.0000 0.0000 0.0000 -1.9366 0.0000 29.0824
#
#
#
# Elastic Compliance Matrix: (Units=1/GPa)
#
#
# Indices 1 2 3 4 5 6 
#
# 1 0.023419 -0.001326 -0.001353 0.000000 0.006374 0.000000
# 2 -0.001326 0.013560 -0.002406 0.000000 0.000654 0.000000
# 3 -0.001353 -0.002406 0.003991 0.000000 0.000020 0.000000
# 4 0.000000 0.000000 0.000000 0.048644 0.000000 0.003239
# 5 0.006374 0.000654 0.000020 0.000000 0.024330 0.000000
# 6 0.000000 0.000000 0.000000 0.003239 0.000000 0.034601
#
#
# Mechanical properties :
#
#
# Convention : Reuss Voigt Hill
#
# Bulk Modulus (GPa) = 32.46729 65.92722 49.19725
# Shear Modulus (GPa) = 29.58912 41.40358 35.49635
#
# Velocity S-wave (km/s) = 3.27795 3.87753 3.59028
# Velocity P-wave (km/s) = 5.11045 6.63232 5.92049
#
# Compressibility (1/GPa) = 0.03080023
#
# Stress axis : x y z
#
# Youngs Moduli (GPa) = 42.70015 73.74636 250.58913
#
# Poissons Ratio (x) = 0.09778 0.33896
# Poissons Ratio (y) = 0.05662 0.60296
# Poissons Ratio (z) = 0.05776 0.17745
#
# Static dielectric constant tensor:
#      x y z
#    x 2.397430 0.000000 0.082030 
#    y 0.000000 2.240170 0.000000 
#    z 0.082030 0.000000 2.315730 
# 
# From -- ./inp_files/196154.got.cif
#   From: 2010.05.17/outbox.cif.g08.bks.cpg/sg15_99_cif.got.tgz:196154.got - 2010.06.03 18:47:42.
