data_PCOD9257006
_publ_section_title
;
Structure prediction by ZEFSAII (Michael W. Deem and Ramdas Pophale) SiO2 
 PCOD9257006
Probable space group: C 2/C
;
_chemical_formula_sum "Si O2"
_cell_formula_units_Z 60
_cell_length_a 22.036877
_cell_length_b 8.752985
_cell_length_c 13.934762
_cell_angle_alpha 90.000000
_cell_angle_beta 61.163693
_cell_angle_gamma 90.000000
_cell_volume 2354.564015
_symmetry_space_group_name_H-M "C 2/C"
_symmetry_group_IT_number 15
_symmetry_cell_setting 'monoclinic'
loop_
_space_group_symop_operation_xyz
x,y,z
-x,y,1/2-z
-x,-y,-z
x,-y,1/2+z
1/2+x,1/2+y,z
1/2-x,1/2+y,1/2-z
1/2-x,1/2-y,-z
1/2+x,1/2-y,1/2+z
loop_
_atom_site_type_symbol
_atom_site_label
_atom_site_fract_x
_atom_site_fract_y
_atom_site_fract_z
Si Si1 0.578385 0.153319 0.718621
Si Si2 0.625405 0.494065 0.627766
Si Si3 0.500000 0.725334 0.750000
Si Si4 0.129028 0.525617 0.491670
Si Si5 0.323738 0.443193 0.214781
Si Si6 0.107594 0.250569 0.395333
Si Si7 0.216755 0.802852 0.424189
Si Si8 0.041514 0.728870 0.423975
O O1 0.500000 0.128460 0.750000
O O2 0.593002 0.333855 0.689644
O O3 0.621945 0.055603 0.610007
O O4 0.599106 0.134410 0.811987
O O5 0.563267 0.614897 0.669249
O O6 0.678466 0.556798 0.667964
O O7 0.663552 0.433761 0.503894
O O8 0.477231 0.816001 0.671759
O O9 0.134768 0.350790 0.462148
O O10 0.188993 0.638039 0.411657
O O11 0.063967 0.600298 0.483709
O O12 0.343210 0.614287 0.170869
O O13 0.262703 0.379189 0.193166
O O14 0.393651 0.343621 0.137380
O O15 0.028849 0.198115 0.479405
O O16 0.250000 0.750000 0.500000
#
# Coordination Sequence:
#
# PCOD9257006 Si02
#       8
#     8   8   4   8   8   8   8   8
#     4  10  18  30  51  73 113 154 184 210 271 339
#     4   9  18  33  55  87 113 148 182 229 277 341
#     4  10  18  30  54  88 120 142 182 226 282 334
#     4  10  22  36  50  81 114 148 191 231 282 333
#     4   9  20  35  57  83 111 142 193 229 279 330
#     4  11  20  33  53  80 115 152 185 228 277 339
#     4  10  21  41  63  80 109 150 196 241 284 331
#     4  10  19  30  50  81 116 151 176 220 272 340
#
# _framework density 25.482424999999999
#
# number of rings (size 3 to 8) (size 9 to 14) (size 15 to 20)
#    0.000    2.133    2.000    1.600    0.000    1.067 
#    0.000    6.000    0.000    0.000    0.000    0.000 
#    0.000    0.000    0.000    0.000    0.000    0.000 
#
# Total GULP energy -167526.160051 kJ/mol
# GULP energy per Si atom -5584.205335 kJ/mol
# Density = 2.542443 g / cm^3
# Si number density = 25.482425 Si / 1000 Ang^3
#
#
#
# Elastic Constant Matrix: (Units=GPa)
#
#
# Indices 1 2 3 4 5 6 
#
# 1 94.6605 19.6436 25.1910 0.0000 25.1910 0.0000
# 2 19.6436 56.9151 20.0820 0.0000 14.7387 0.0000
# 3 25.1910 20.0820 91.5788 0.0000 24.4476 0.0000
# 4 0.0000 0.0000 0.0000 41.4526 0.0000 11.0220
# 5 25.1910 14.7387 24.4476 0.0000 43.8031 0.0000
# 6 0.0000 0.0000 0.0000 11.0220 0.0000 27.6063
#
#
#
# Elastic Compliance Matrix: (Units=1/GPa)
#
#
# Indices 1 2 3 4 5 6 
#
# 1 0.013022 -0.002460 -0.001486 0.000000 -0.005832 0.000000
# 2 -0.002460 0.020404 -0.002753 0.000000 -0.003914 0.000000
# 3 -0.001486 -0.002753 0.013462 0.000000 -0.005733 0.000000
# 4 0.000000 0.000000 0.000000 0.026989 0.000000 -0.010776
# 5 -0.005832 -0.003914 -0.005733 0.000000 0.030700 0.000000
# 6 0.000000 0.000000 0.000000 -0.010776 0.000000 0.040526
#
#
# Mechanical properties :
#
#
# Convention : Reuss Voigt Hill
#
# Bulk Modulus (GPa) = 29.85816 41.44307 35.65061
# Shear Modulus (GPa) = 29.47005 34.45494 31.96250
#
# Velocity S-wave (km/s) = 3.40440 3.68109 3.54545
# Velocity P-wave (km/s) = 5.21497 5.86225 5.54805
#
# Compressibility (1/GPa) = 0.03349168
#
# Stress axis : x y z
#
# Youngs Moduli (GPa) = 76.79371 49.01007 74.28140
#
# Poissons Ratio (x) = 0.12056 0.11036
# Poissons Ratio (y) = 0.18890 0.20447
# Poissons Ratio (z) = 0.11409 0.13491
#
# Static dielectric constant tensor:
#      x y z
#    x 2.122170 0.000000 -0.006050 
#    y 0.000000 1.951180 0.000000 
#    z -0.006050 0.000000 2.051550 
# 
# From -- ./inp_files/172336.got.cif
#   From: 2010.05.17/outbox.cif.g08.bks.cpg/sg15_87_cif.got.tgz:172336.got - 2010.06.03 18:47:42.
