data_PCOD9257421
_publ_section_title
;
Structure prediction by ZEFSAII (Michael W. Deem and Ramdas Pophale) SiO2 
 PCOD9257421
Probable space group: C 2/C
;
_chemical_formula_sum "Si O2"
_cell_formula_units_Z 52
_cell_length_a 23.047316
_cell_length_b 7.390560
_cell_length_c 14.364407
_cell_angle_alpha 90.000000
_cell_angle_beta 106.237608
_cell_angle_gamma 90.000000
_cell_volume 2349.127336
_symmetry_space_group_name_H-M "C 2/C"
_symmetry_group_IT_number 15
_symmetry_cell_setting 'monoclinic'
loop_
_space_group_symop_operation_xyz
x,y,z
-x,y,1/2-z
-x,-y,-z
x,-y,1/2+z
1/2+x,1/2+y,z
1/2-x,1/2+y,1/2-z
1/2-x,1/2-y,-z
1/2+x,1/2-y,1/2+z
loop_
_atom_site_type_symbol
_atom_site_label
_atom_site_fract_x
_atom_site_fract_y
_atom_site_fract_z
Si Si1 0.898745 0.571495 0.334121
Si Si2 0.080514 0.506657 0.449994
Si Si3 0.176643 0.577861 0.851275
Si Si4 0.500000 0.918062 0.750000
Si Si5 0.843918 0.837831 0.991120
Si Si6 0.198199 0.141119 0.654321
Si Si7 0.726442 0.339178 0.369181
O O1 0.930534 0.533693 0.447108
O O2 0.868647 0.410296 0.258349
O O3 0.943064 0.669926 0.278930
O O4 0.843196 0.690616 0.343149
O O5 0.137690 0.404464 0.427509
O O6 0.097562 0.721580 0.458132
O O7 0.028838 0.475053 0.350052
O O8 0.239531 0.682604 0.871540
O O9 0.200238 0.367990 0.857497
O O10 0.795079 0.689796 0.931580
O O11 0.842961 0.991817 0.913894
O O12 0.814055 0.926339 0.069122
O O13 0.220004 0.074941 0.765914
#
# Coordination Sequence:
#
# PCOD9257421 Si02
#       7
#     8   8   8   4   8   8   8
#     4  10  20  35  57  80 106 142 180 221 263 311
#     4  10  19  35  56  76 101 141 185 225 265 312
#     4   8  17  30  49  79 111 138 167 204 265 333
#     4  10  22  40  58  72 100 150 198 218 250 322
#     4   9  17  31  52  75 104 144 179 209 262 324
#     4  10  18  31  53  84 113 138 171 218 271 322
#     4   8  15  29  47  72 110 147 168 193 252 336
#
# _framework density 22.135878000000002
#
# number of rings (size 3 to 8) (size 9 to 14) (size 15 to 20)
#    0.000    2.769    0.000    3.231    0.000    0.615 
#    0.000    6.923    0.000    1.846    0.000    0.000 
#    0.000    0.000    0.000    0.000    0.000    0.000 
#
# Total GULP energy -144791.143446 kJ/mol
# GULP energy per Si atom -5568.890133 kJ/mol
# Density = 2.208550 g / cm^3
# Si number density = 22.135878 Si / 1000 Ang^3
#
#
#
# Elastic Constant Matrix: (Units=GPa)
#
#
# Indices 1 2 3 4 5 6 
#
# 1 83.8175 7.6319 37.3974 0.0000 -16.3426 0.0000
# 2 7.6319 14.4758 5.4838 0.0000 -10.5777 0.0000
# 3 37.3974 5.4838 153.2252 0.0000 -15.9756 0.0000
# 4 0.0000 0.0000 0.0000 25.6449 0.0000 -5.1835
# 5 -16.3426 -10.5777 -15.9756 0.0000 46.1357 0.0000
# 6 0.0000 0.0000 0.0000 -5.1835 0.0000 11.3902
#
#
#
# Elastic Compliance Matrix: (Units=1/GPa)
#
#
# Indices 1 2 3 4 5 6 
#
# 1 0.014246 -0.004138 -0.003010 0.000000 0.003055 0.000000
# 2 -0.004138 0.084340 -0.000151 0.000000 0.017819 0.000000
# 3 -0.003010 -0.000151 0.007420 0.000000 0.001468 0.000000
# 4 0.000000 0.000000 0.000000 0.042944 0.000000 0.019543
# 5 0.003055 0.017819 0.001468 0.000000 0.027351 0.000000
# 6 0.000000 0.000000 0.000000 0.019543 0.000000 0.096688
#
#
# Mechanical properties :
#
#
# Convention : Reuss Voigt Hill
#
# Bulk Modulus (GPa) = 10.93997 39.17164 25.05580
# Shear Modulus (GPa) = 15.72043 30.03452 22.87747
#
# Velocity S-wave (km/s) = 2.66781 3.68751 3.21830
# Velocity P-wave (km/s) = 3.80033 5.98871 5.01534
#
# Compressibility (1/GPa) = 0.09140793
#
# Stress axis : x y z
#
# Youngs Moduli (GPa) = 70.19338 11.85676 134.77870
#
# Poissons Ratio (x) = 0.04906 0.40574
# Poissons Ratio (y) = 0.29045 0.02031
# Poissons Ratio (z) = 0.21131 0.00179
#
# Static dielectric constant tensor:
#      x y z
#    x 1.908720 0.000000 0.038380 
#    y 0.000000 1.839490 0.000000 
#    z 0.038380 0.000000 1.906800 
# 
# From -- ./inp_files/166352.got.cif
#   From: 2010.05.17/outbox.cif.g08.bks.cpg/sg15_84_cif.got.tgz:166352.got - 2010.06.03 18:47:42.
