data_PCOD9257442
_publ_section_title
;
Structure prediction by ZEFSAII (Michael W. Deem and Ramdas Pophale) SiO2 
 PCOD9257442
Probable space group: C 2/C
;
_chemical_formula_sum "Si O2"
_cell_formula_units_Z 64
_cell_length_a 9.064980
_cell_length_b 24.559042
_cell_length_c 29.467258
_cell_angle_alpha 90.000000
_cell_angle_beta 148.135850
_cell_angle_gamma 90.000000
_cell_volume 3463.183012
_symmetry_space_group_name_H-M "C 2/C"
_symmetry_group_IT_number 15
_symmetry_cell_setting 'monoclinic'
loop_
_space_group_symop_operation_xyz
x,y,z
-x,y,1/2-z
-x,-y,-z
x,-y,1/2+z
1/2+x,1/2+y,z
1/2-x,1/2+y,1/2-z
1/2-x,1/2-y,-z
1/2+x,1/2-y,1/2+z
loop_
_atom_site_type_symbol
_atom_site_label
_atom_site_fract_x
_atom_site_fract_y
_atom_site_fract_z
Si Si1 0.375047 0.705358 0.166180
Si Si2 0.775129 0.502963 0.232447
Si Si3 0.747752 0.825708 0.350520
Si Si4 0.205422 0.435731 0.396510
Si Si5 0.825001 0.972670 0.044945
Si Si6 0.362697 0.855558 0.487638
Si Si7 0.688383 0.090664 0.996897
Si Si8 0.199931 0.121271 0.192915
O O1 0.500000 0.701555 0.250000
O O2 0.313100 0.768808 0.140394
O O3 0.594946 0.673719 0.192223
O O4 0.085023 0.675461 0.077272
O O5 0.514855 0.473533 0.140182
O O6 0.705196 0.565895 0.224657
O O7 0.000000 0.505790 0.250000
O O8 0.924708 0.469362 0.311016
O O9 0.500000 0.829966 0.250000
O O10 0.723780 0.880349 0.372868
O O11 0.059806 0.827257 0.410759
O O12 0.461064 0.471762 0.442413
O O13 0.206911 0.414468 0.448026
O O14 0.661956 0.916661 0.999341
O O15 0.645100 0.027298 0.998648
O O16 0.476145 0.867824 0.466246
O O17 0.984415 0.106774 0.096444
O O18 0.500000 0.130381 0.250000
#
# Coordination Sequence:
#
# PCOD9257442 Si02
#       8
#     8   8   8   8   8   8   8   8
#     4  10  22  38  57  81 105 141 192 232 272 334
#     4   8  15  30  52  76 107 145 181 218 269 329
#     4  10  21  40  59  76 103 144 193 236 273 325
#     4  10  18  31  54  81 107 144 188 221 263 333
#     4   9  17  31  52  77 109 149 181 216 267 326
#     4  10  20  36  56  78 112 147 177 229 286 322
#     4  10  20  32  50  84 117 141 177 225 278 334
#     4   9  19  36  54  77 113 145 175 227 288 333
#
# _framework density 18.480108000000001
#
# number of rings (size 3 to 8) (size 9 to 14) (size 15 to 20)
#    0.000    2.500    0.000    3.750    0.000    3.000 
#    0.000    7.500    0.000    0.000    0.000    0.000 
#    0.000    0.000    0.000    0.000    0.000    0.000 
#
# Total GULP energy -178216.543958 kJ/mol
# GULP energy per Si atom -5569.266999 kJ/mol
# Density = 1.843805 g / cm^3
# Si number density = 18.480108 Si / 1000 Ang^3
#
#
#
# Elastic Constant Matrix: (Units=GPa)
#
#
# Indices 1 2 3 4 5 6 
#
# 1 63.7008 32.6148 42.8886 0.0008 1.2768 0.0019
# 2 32.6148 111.9046 34.8325 0.0015 9.7327 0.0023
# 3 42.8886 34.8325 62.8391 0.0124 14.3450 -0.0004
# 4 0.0008 0.0015 0.0124 39.4694 -0.0009 3.0478
# 5 1.2768 9.7327 14.3450 -0.0009 20.2589 0.0020
# 6 0.0019 0.0023 -0.0004 3.0478 0.0020 28.4276
#
#
#
# Elastic Compliance Matrix: (Units=1/GPa)
#
#
# Indices 1 2 3 4 5 6 
#
# 1 0.034322 -0.003615 -0.025436 0.000008 0.017584 -0.000004
# 2 -0.003615 0.011202 -0.003060 0.000001 -0.002987 -0.000001
# 3 -0.025436 -0.003060 0.040876 -0.000013 -0.025870 0.000006
# 4 0.000008 0.000001 -0.000013 0.025548 0.000010 -0.002739
# 5 0.017584 -0.002987 -0.025870 0.000010 0.068006 -0.000007
# 6 -0.000004 -0.000001 0.000006 -0.002739 -0.000007 0.035471
#
#
# Mechanical properties :
#
#
# Convention : Reuss Voigt Hill
#
# Bulk Modulus (GPa) = 45.08931 51.01291 48.05111
# Shear Modulus (GPa) = 17.41920 26.17176 21.79548
#
# Velocity S-wave (km/s) = 3.07350 3.76734 3.43797
# Velocity P-wave (km/s) = 6.08662 6.82554 6.46664
#
# Compressibility (1/GPa) = 0.02217821
#
# Stress axis : x y z
#
# Youngs Moduli (GPa) = 29.13561 89.26831 24.46434
#
# Poissons Ratio (x) = 0.32273 0.62226
# Poissons Ratio (y) = 0.10533 0.07486
# Poissons Ratio (z) = 0.74108 0.27317
#
# Static dielectric constant tensor:
#      x y z
#    x 1.680610 0.000000 0.026610 
#    y 0.000000 1.644340 0.000000 
#    z 0.026610 0.000000 1.653600 
# 
# From -- ./inp_files/309129.got.cif
#   From: 2010.05.17/outbox.cif.g08.bks.cpg/sg15_155_cif.got.tgz:309129.got - 2010.06.03 18:47:42.
