data_PCOD9257211
_publ_section_title
;
Structure prediction by ZEFSAII (Michael W. Deem and Ramdas Pophale) SiO2 
 PCOD9257211
Probable space group: C 2/C
;
_chemical_formula_sum "Si O2"
_cell_formula_units_Z 44
_cell_length_a 20.424523
_cell_length_b 22.649693
_cell_length_c 16.805802
_cell_angle_alpha 90.000000
_cell_angle_beta 160.793390
_cell_angle_gamma 90.000000
_cell_volume 2557.626744
_symmetry_space_group_name_H-M "C 2/C"
_symmetry_group_IT_number 15
_symmetry_cell_setting 'monoclinic'
loop_
_space_group_symop_operation_xyz
x,y,z
-x,y,1/2-z
-x,-y,-z
x,-y,1/2+z
1/2+x,1/2+y,z
1/2-x,1/2+y,1/2-z
1/2-x,1/2-y,-z
1/2+x,1/2-y,1/2+z
loop_
_atom_site_type_symbol
_atom_site_label
_atom_site_fract_x
_atom_site_fract_y
_atom_site_fract_z
Si Si1 0.407017 0.020473 0.476922
Si Si2 0.500000 0.282523 0.250000
Si Si3 0.914373 0.679911 0.265666
Si Si4 0.260212 0.587843 0.626887
Si Si5 0.701996 0.388291 0.642749
Si Si6 0.282010 0.480967 0.987020
O O1 0.291273 0.080158 0.322804
O O2 0.500000 0.000000 0.500000
O O3 0.262306 0.968359 0.340279
O O4 0.592917 0.022129 0.751333
O O5 0.699677 0.320143 0.475048
O O6 0.503767 0.240502 0.332342
O O7 0.840039 0.665178 0.269698
O O8 0.074980 0.630730 0.428720
O O9 0.249457 0.557730 0.528273
O O10 0.466542 0.622039 0.879394
O O11 0.707501 0.436413 0.576354
O O12 0.500000 0.509426 0.250000
#
# Coordination Sequence:
#
# PCOD9257211 Si02
#       6
#     8   4   8   8   8   8
#     4  10  18  31  45  73  98 126 176 204 246 305
#     4  10  26  34  48  72  94 132 176 238 230 282
#     4  11  22  36  47  66  98 124 180 210 257 274
#     4  11  20  32  53  69  98 139 169 206 249 299
#     4  10  21  32  50  70  97 133 173 210 251 300
#     4   9  18  28  46  70  96 130 170 198 239 296
#
# _framework density 17.203448999999999
#
# number of rings (size 3 to 8) (size 9 to 14) (size 15 to 20)
#    0.000    1.818    3.636    2.182    8.909    0.000 
#    0.000    0.000    0.000    0.000    0.000    0.000 
#    0.000    0.000    0.000   11.455    0.364    1.273 
#
# Total GULP energy -122562.377955 kJ/mol
# GULP energy per Si atom -5571.017180 kJ/mol
# Density = 1.716429 g / cm^3
# Si number density = 17.203449 Si / 1000 Ang^3
#
#
#
# Elastic Constant Matrix: (Units=GPa)
#
#
# Indices 1 2 3 4 5 6 
#
# 1 53.4386 29.7770 30.1739 0.0000 10.9410 0.0000
# 2 29.7770 64.3990 38.8202 0.0000 0.0652 0.0000
# 3 30.1739 38.8202 130.8626 0.0000 17.1767 0.0000
# 4 0.0000 0.0000 0.0000 26.9384 0.0000 -2.7175
# 5 10.9410 0.0652 17.1767 0.0000 27.0622 0.0000
# 6 0.0000 0.0000 0.0000 -2.7175 0.0000 26.2617
#
#
#
# Elastic Compliance Matrix: (Units=1/GPa)
#
#
# Indices 1 2 3 4 5 6 
#
# 1 0.028589 -0.012260 -0.001573 0.000000 -0.010530 0.000000
# 2 -0.012260 0.024539 -0.005559 0.000000 0.008426 0.000000
# 3 -0.001573 -0.005559 0.010438 0.000000 -0.005976 0.000000
# 4 0.000000 0.000000 0.000000 0.037513 0.000000 0.003882
# 5 -0.010530 0.008426 -0.005976 0.000000 0.044982 0.000000
# 6 0.000000 0.000000 0.000000 0.003882 0.000000 0.038480
#
#
# Mechanical properties :
#
#
# Convention : Reuss Voigt Hill
#
# Bulk Modulus (GPa) = 40.35103 49.58248 44.96676
# Shear Modulus (GPa) = 21.59042 26.04775 23.81909
#
# Velocity S-wave (km/s) = 3.54645 3.89537 3.72499
# Velocity P-wave (km/s) = 6.34633 7.00826 6.68549
#
# Compressibility (1/GPa) = 0.02478252
#
# Stress axis : x y z
#
# Youngs Moduli (GPa) = 34.97889 40.75095 95.80833
#
# Poissons Ratio (x) = 0.49961 0.15068
# Poissons Ratio (y) = 0.42885 0.53256
# Poissons Ratio (z) = 0.05501 0.22652
#
# Static dielectric constant tensor:
#      x y z
#    x 1.638070 0.000000 0.036040 
#    y 0.000000 1.623570 0.000000 
#    z 0.036040 0.000000 1.661470 
# 
# From -- ./inp_files/216518.got.cif
#   From: 2010.05.17/outbox.cif.g08.bks.cpg/sg15_109_cif.got.tgz:216518.got - 2010.06.03 18:47:42.
