data_PCOD9257956
_publ_section_title
;
Structure prediction by ZEFSAII (Michael W. Deem and Ramdas Pophale) SiO2 
 PCOD9257956
Probable space group: C 2/C
;
_chemical_formula_sum "Si O2"
_cell_formula_units_Z 56
_cell_length_a 8.060852
_cell_length_b 21.600389
_cell_length_c 17.745618
_cell_angle_alpha 90.000000
_cell_angle_beta 125.120609
_cell_angle_gamma 90.000000
_cell_volume 2527.298865
_symmetry_space_group_name_H-M "C 2/C"
_symmetry_group_IT_number 15
_symmetry_cell_setting 'monoclinic'
loop_
_space_group_symop_operation_xyz
x,y,z
-x,y,1/2-z
-x,-y,-z
x,-y,1/2+z
1/2+x,1/2+y,z
1/2-x,1/2+y,1/2-z
1/2-x,1/2-y,-z
1/2+x,1/2-y,1/2+z
loop_
_atom_site_type_symbol
_atom_site_label
_atom_site_fract_x
_atom_site_fract_y
_atom_site_fract_z
Si Si1 0.941684 0.805459 0.151023
Si Si2 0.935231 0.049200 0.155290
Si Si3 0.980670 0.318869 0.032574
Si Si4 0.168773 0.949759 0.027466
Si Si5 0.654934 0.424714 0.186449
Si Si6 0.906557 0.549520 0.890266
Si Si7 0.188109 0.257801 0.356936
O O1 0.705860 0.789986 0.074575
O O2 0.000000 0.783233 0.250000
O O3 0.967850 0.880611 0.158664
O O4 0.122992 0.785607 0.142562
O O5 0.746381 0.002808 0.121733
O O6 0.000000 0.081590 0.250000
O O7 0.105669 0.997201 0.182721
O O8 0.899943 0.083597 0.067380
O O9 0.903801 0.296527 0.095535
O O10 0.025864 0.392206 0.041794
O O11 0.807533 0.298610 0.928815
O O12 0.197706 0.911469 0.110828
O O13 0.381346 0.983625 0.071284
O O14 0.000000 0.000000 0.000000
O O15 0.827331 0.416929 0.293203
O O16 0.000000 0.246685 0.250000
#
# Coordination Sequence:
#
# PCOD9257956 Si02
#       7
#     8   8   8   8   8   8   8
#     4  12  19  37  64  92 123 152 196 253 302 352
#     4   9  18  33  53  77 108 146 188 235 290 346
#     4  11  23  38  61  92 119 161 203 243 300 354
#     4  10  21  32  50  83 112 143 186 237 291 352
#     4  10  18  32  56  84 115 137 186 246 297 341
#     4  11  18  34  56  80 109 151 188 240 296 342
#     4  11  23  38  58  89 127 161 199 244 294 358
#
# _framework density 22.158044
#
# number of rings (size 3 to 8) (size 9 to 14) (size 15 to 20)
#    0.000    1.429    4.286    2.571    0.000    0.000 
#    0.000    0.714    0.000    0.000    0.000    0.000 
#    0.000    0.000    0.000    0.000    0.000    0.000 
#
# Total GULP energy -155918.706253 kJ/mol
# GULP energy per Si atom -5568.525223 kJ/mol
# Density = 2.210761 g / cm^3
# Si number density = 22.158044 Si / 1000 Ang^3
#
#
#
# Elastic Constant Matrix: (Units=GPa)
#
#
# Indices 1 2 3 4 5 6 
#
# 1 114.3588 14.8995 46.6336 0.0000 3.2965 0.0000
# 2 14.8995 28.2422 10.4464 0.0000 1.1635 0.0000
# 3 46.6336 10.4464 135.9170 0.0000 -20.6827 0.0000
# 4 0.0000 0.0000 0.0000 18.8379 0.0000 7.3849
# 5 3.2965 1.1635 -20.6827 0.0000 51.4254 0.0000
# 6 0.0000 0.0000 0.0000 7.3849 0.0000 30.1358
#
#
#
# Elastic Compliance Matrix: (Units=1/GPa)
#
#
# Indices 1 2 3 4 5 6 
#
# 1 0.010881 -0.004276 -0.003724 0.000000 -0.002098 0.000000
# 2 -0.004276 0.038334 -0.001672 0.000000 -0.001265 0.000000
# 3 -0.003724 -0.001672 0.009380 0.000000 0.004049 0.000000
# 4 0.000000 0.000000 0.000000 0.058726 0.000000 -0.014391
# 5 -0.002098 -0.001265 0.004049 0.000000 0.021237 0.000000
# 6 0.000000 0.000000 0.000000 -0.014391 0.000000 0.036710
#
#
# Mechanical properties :
#
#
# Convention : Reuss Voigt Hill
#
# Bulk Modulus (GPa) = 25.47700 46.94188 36.20944
# Shear Modulus (GPa) = 24.07375 33.84907 28.96141
#
# Velocity S-wave (km/s) = 3.29972 3.91272 3.61922
# Velocity P-wave (km/s) = 5.10297 6.45318 5.81738
#
# Compressibility (1/GPa) = 0.03925109
#
# Stress axis : x y z
#
# Youngs Moduli (GPa) = 91.90715 26.08618 106.61334
#
# Poissons Ratio (x) = 0.11155 0.39701
# Poissons Ratio (y) = 0.39303 0.17822
# Poissons Ratio (z) = 0.34224 0.04361
#
# Static dielectric constant tensor:
#      x y z
#    x 1.895390 0.000000 -0.018760 
#    y 0.000000 1.840810 0.000000 
#    z -0.018760 0.000000 1.896330 
# 
# From -- ./inp_files/193607.got.cif
#   From: 2010.05.17/outbox.cif.g08.bks.cpg/sg15_97_cif.got.tgz:193607.got - 2010.06.03 18:47:42.
