data_PCOD9257800
_publ_section_title
;
Structure prediction by ZEFSAII (Michael W. Deem and Ramdas Pophale) SiO2 
 PCOD9257800
Probable space group: C 2/C
;
_chemical_formula_sum "Si O2"
_cell_formula_units_Z 44
_cell_length_a 11.906279
_cell_length_b 15.006327
_cell_length_c 17.083260
_cell_angle_alpha 90.000000
_cell_angle_beta 35.184553
_cell_angle_gamma 90.000000
_cell_volume 1758.747545
_symmetry_space_group_name_H-M "C 2/C"
_symmetry_group_IT_number 15
_symmetry_cell_setting 'monoclinic'
loop_
_space_group_symop_operation_xyz
x,y,z
-x,y,1/2-z
-x,-y,-z
x,-y,1/2+z
1/2+x,1/2+y,z
1/2-x,1/2+y,1/2-z
1/2-x,1/2-y,-z
1/2+x,1/2-y,1/2+z
loop_
_atom_site_type_symbol
_atom_site_label
_atom_site_fract_x
_atom_site_fract_y
_atom_site_fract_z
Si Si1 0.094679 0.221995 0.471018
Si Si2 0.217697 0.641645 0.686567
Si Si3 0.412720 0.666340 0.208479
Si Si4 0.680692 0.075991 0.532374
Si Si5 0.500000 0.853398 0.750000
Si Si6 0.028272 0.415684 0.901475
O O1 0.084285 0.202127 0.383809
O O2 0.310625 0.203071 0.376858
O O3 0.045032 0.322218 0.522505
O O4 0.934978 0.152272 0.596526
O O5 0.165373 0.745992 0.701386
O O6 0.216193 0.582793 0.607638
O O7 0.041692 0.612986 0.842623
O O8 0.253549 0.587109 0.300503
O O9 0.629022 0.630399 0.103522
O O10 0.640987 0.989497 0.501105
O O11 0.552168 0.910952 0.794410
#
# Coordination Sequence:
#
# PCOD9257800 Si02
#       6
#     8   8   8   8   4   8
#     4   9  19  34  54  79 111 147 182 219 271 332
#     4   9  18  34  55  82 109 143 184 222 266 330
#     4   9  19  36  57  80 112 148 180 218 273 331
#     4  10  19  33  58  84 106 141 185 230 270 313
#     4  10  18  32  54  76 110 156 184 212 270 338
#     4  10  20  34  53  85 112 137 184 236 269 311
#
# _framework density 25.017802
#
# number of rings (size 3 to 8) (size 9 to 14) (size 15 to 20)
#    0.000    2.545    0.000    2.182    0.000    1.455 
#    0.000    9.091    0.000    6.545    0.000    0.000 
#    0.000    0.000    0.000    0.000    0.000    0.000 
#
# Total GULP energy -122565.005101 kJ/mol
# GULP energy per Si atom -5571.136596 kJ/mol
# Density = 2.496086 g / cm^3
# Si number density = 25.017802 Si / 1000 Ang^3
#
#
#
# Elastic Constant Matrix: (Units=GPa)
#
#
# Indices 1 2 3 4 5 6 
#
# 1 96.9741 36.6481 31.1805 -0.0007 -6.5787 0.0000
# 2 36.6481 90.3086 32.8856 -0.0029 -3.1464 0.0002
# 3 31.1805 32.8856 103.5945 -0.0065 -41.7075 0.0011
# 4 -0.0007 -0.0029 -0.0065 35.9284 0.0010 19.5030
# 5 -6.5787 -3.1464 -41.7075 0.0010 42.3078 0.0000
# 6 0.0000 0.0002 0.0011 19.5030 0.0000 7.4438
#
#
#
# Elastic Compliance Matrix: (Units=1/GPa)
#
#
# Indices 1 2 3 4 5 6 
#
# 1 0.012763 -0.004102 -0.003089 0.000002 -0.001366 -0.000005
# 2 -0.004102 0.014498 -0.005290 0.000000 -0.004774 0.000001
# 3 -0.003089 -0.005290 0.019748 -0.000009 0.018594 0.000022
# 4 0.000002 0.000000 -0.000009 -0.065920 -0.000007 0.172712
# 5 -0.001366 -0.004774 0.018594 -0.000007 0.041399 0.000016
# 6 -0.000005 0.000001 0.000022 0.172712 0.000016 -0.318169
#
#
# Mechanical properties :
#
#
# Convention : Reuss Voigt Hill
#
# Bulk Modulus (GPa) = 45.35804 54.70064 50.02934
# Shear Modulus (GPa) = -18.98468 29.81354 5.41443
#
# Velocity S-wave (km/s) = -2.75771 3.45584 1.47273
# Velocity P-wave (km/s) = 2.83368 6.15109 4.78882
#
# Compressibility (1/GPa) = 0.02204681
#
# Stress axis : x y z
#
# Youngs Moduli (GPa) = 78.35243 68.97668 50.63785
#
# Poissons Ratio (x) = 0.28294 0.15643
# Poissons Ratio (y) = 0.32140 0.26786
# Poissons Ratio (z) = 0.24205 0.36487
#
# Static dielectric constant tensor:
#      x y z
#    x 2.073690 0.000000 -0.005380 
#    y 0.000000 2.090370 0.000000 
#    z -0.005380 0.000000 2.082790 
# 
# From -- ./inp_files/274121.got.cif
#   From: 2010.05.17/outbox.cif.g08.bks.cpg/sg15_138_cif.got.tgz:274121.got - 2010.06.03 18:47:42.
