data_PCOD9257928
_publ_section_title
;
Structure prediction by ZEFSAII (Michael W. Deem and Ramdas Pophale) SiO2 
 PCOD9257928
Probable space group: C 2/C
;
_chemical_formula_sum "Si O2"
_cell_formula_units_Z 56
_cell_length_a 29.842152
_cell_length_b 16.835210
_cell_length_c 8.209788
_cell_angle_alpha 90.000000
_cell_angle_beta 135.897720
_cell_angle_gamma 90.000000
_cell_volume 2870.471731
_symmetry_space_group_name_H-M "C 2/C"
_symmetry_group_IT_number 15
_symmetry_cell_setting 'monoclinic'
loop_
_space_group_symop_operation_xyz
x,y,z
-x,y,1/2-z
-x,-y,-z
x,-y,1/2+z
1/2+x,1/2+y,z
1/2-x,1/2+y,1/2-z
1/2-x,1/2-y,-z
1/2+x,1/2-y,1/2+z
loop_
_atom_site_type_symbol
_atom_site_label
_atom_site_fract_x
_atom_site_fract_y
_atom_site_fract_z
Si Si1 0.373947 0.890880 0.180700
Si Si2 0.489651 0.909820 0.916289
Si Si3 0.682269 0.269528 0.910064
Si Si4 0.576096 0.379962 0.463487
Si Si5 0.712231 0.588448 0.723969
Si Si6 0.633311 0.471466 0.312457
Si Si7 0.353637 0.934133 0.510425
O O1 0.448788 0.866303 0.352515
O O2 0.335426 0.812098 0.048072
O O3 0.356766 0.911983 0.326503
O O4 0.361475 0.970728 0.047968
O O5 0.500000 0.906891 0.750000
O O6 0.415560 0.891838 0.753761
O O7 0.500000 0.000000 0.000000
O O8 0.624617 0.307909 0.645825
O O9 0.750000 0.250000 0.000000
O O10 0.693740 0.335624 0.073451
O O11 0.500000 0.358911 0.250000
O O12 0.595611 0.416029 0.339228
O O13 0.591128 0.455651 0.624843
O O14 0.691574 0.512672 0.562141
O O15 0.668057 0.579544 0.765357
O O16 0.788864 0.587839 0.934248
#
# Coordination Sequence:
#
# PCOD9257928 Si02
#       7
#     8   8   8   8   8   8   8
#     4  10  20  35  56  77 110 146 193 243 289 337
#     4   8  16  29  48  76 101 133 181 231 265 322
#     4  11  23  39  54  85 123 155 193 240 300 355
#     4  10  21  39  65  90 119 155 193 243 300 354
#     4  10  19  35  58  88 118 152 189 243 294 350
#     4   9  20  36  62  92 117 147 201 239 286 356
#     4  10  18  32  56  79 104 147 193 230 282 338
#
# _framework density 19.508989
#
# number of rings (size 3 to 8) (size 9 to 14) (size 15 to 20)
#    0.000    2.286    1.429    1.286    4.000    1.714 
#    0.000    2.143    0.000   12.000    0.000    0.000 
#    0.000    0.000    0.000    0.000    0.000    0.000 
#
# Total GULP energy -155924.459175 kJ/mol
# GULP energy per Si atom -5568.730685 kJ/mol
# Density = 1.946459 g / cm^3
# Si number density = 19.508989 Si / 1000 Ang^3
#
#
#
# Elastic Constant Matrix: (Units=GPa)
#
#
# Indices 1 2 3 4 5 6 
#
# 1 54.2719 35.6047 33.3363 0.0000 15.1274 0.0000
# 2 35.6047 57.5732 9.9880 0.0000 10.5961 0.0000
# 3 33.3363 9.9880 61.5069 0.0000 31.1559 0.0000
# 4 0.0000 0.0000 0.0000 6.5487 0.0000 -5.6135
# 5 15.1274 10.5961 31.1559 0.0000 36.3313 0.0000
# 6 0.0000 0.0000 0.0000 -5.6135 0.0000 13.6187
#
#
#
# Elastic Compliance Matrix: (Units=1/GPa)
#
#
# Indices 1 2 3 4 5 6 
#
# 1 0.053230 -0.029973 -0.030382 0.000000 0.012632 0.000000
# 2 -0.029973 0.035240 0.016632 0.000000 -0.012060 0.000000
# 3 -0.030382 0.016632 0.046098 0.000000 -0.031732 0.000000
# 4 0.000000 0.000000 0.000000 0.236134 0.000000 0.097333
# 5 0.012632 -0.012060 -0.031732 0.000000 0.052994 0.000000
# 6 0.000000 0.000000 0.000000 0.097333 0.000000 0.113548
#
#
# Mechanical properties :
#
#
# Convention : Reuss Voigt Hill
#
# Bulk Modulus (GPa) = 21.22185 36.80113 29.01149
# Shear Modulus (GPa) = 7.80766 17.59460 12.70113
#
# Velocity S-wave (km/s) = 2.00269 3.00638 2.55432
# Velocity P-wave (km/s) = 4.03104 5.56378 4.85824
#
# Compressibility (1/GPa) = 0.04712125
#
# Stress axis : x y z
#
# Youngs Moduli (GPa) = 18.78626 28.37718 21.69308
#
# Poissons Ratio (x) = 0.85055 0.65907
# Poissons Ratio (y) = 0.56308 -0.36079
# Poissons Ratio (z) = 0.57076 -0.47196
#
# Static dielectric constant tensor:
#      x y z
#    x 1.704540 0.000000 0.003360 
#    y 0.000000 1.635480 0.000000 
#    z 0.003360 0.000000 1.780410 
# 
# From -- ./inp_files/70517.got.cif
#   From: 2010.05.17/outbox.cif.g08.bks.cpg/sg15_36_cif.got.tgz:70517.got - 2010.06.03 18:47:42.
