data_PCOD9257810
_publ_section_title
;
Structure prediction by ZEFSAII (Michael W. Deem and Ramdas Pophale) SiO2 
 PCOD9257810
Probable space group: C 2/C
;
_chemical_formula_sum "Si O2"
_cell_formula_units_Z 56
_cell_length_a 9.513575
_cell_length_b 17.304493
_cell_length_c 15.856650
_cell_angle_alpha 90.000000
_cell_angle_beta 104.508098
_cell_angle_gamma 90.000000
_cell_volume 2527.200963
_symmetry_space_group_name_H-M "C 2/C"
_symmetry_group_IT_number 15
_symmetry_cell_setting 'monoclinic'
loop_
_space_group_symop_operation_xyz
x,y,z
-x,y,1/2-z
-x,-y,-z
x,-y,1/2+z
1/2+x,1/2+y,z
1/2-x,1/2+y,1/2-z
1/2-x,1/2-y,-z
1/2+x,1/2-y,1/2+z
loop_
_atom_site_type_symbol
_atom_site_label
_atom_site_fract_x
_atom_site_fract_y
_atom_site_fract_z
Si Si1 0.153780 0.816587 0.724820
Si Si2 0.082866 0.939166 0.353394
Si Si3 0.132034 0.514301 0.682172
Si Si4 0.900161 0.445209 0.042530
Si Si5 0.881345 0.765928 0.155374
Si Si6 0.312287 0.480735 0.868018
Si Si7 0.088705 0.648575 0.112711
O O1 0.224910 0.754528 0.671292
O O2 0.271578 0.818966 0.818070
O O3 0.000000 0.808272 0.750000
O O4 0.163157 0.896242 0.670498
O O5 0.968665 0.979954 0.395457
O O6 0.000000 0.938313 0.250000
O O7 0.231118 0.984354 0.360425
O O8 0.116815 0.851389 0.381901
O O9 0.208239 0.522469 0.782943
O O10 0.058692 0.430190 0.661679
O O11 0.012481 0.575205 0.634911
O O12 0.770644 0.497629 0.058966
O O13 0.870397 0.373803 0.976607
O O14 0.000000 0.500000 0.000000
O O15 0.000000 0.764556 0.250000
O O16 0.948809 0.702988 0.101867
#
# Coordination Sequence:
#
# PCOD9257810 Si02
#       7
#     8   8   8   8   8   8   8
#     4  10  18  32  55  80 101 130 176 221 256 303
#     4   9  18  34  54  77 103 133 171 216 264 305
#     4   9  17  32  53  77 101 132 178 218 251 306
#     4  10  19  31  49  77 107 138 175 215 256 306
#     4   9  18  34  55  75 104 139 169 210 264 311
#     4  10  18  32  54  78 104 137 174 217 260 304
#     4   9  18  33  51  74 105 139 172 209 257 311
#
# _framework density 22.158902000000001
#
# number of rings (size 3 to 8) (size 9 to 14) (size 15 to 20)
#    0.000    2.571    0.000    4.286    0.000    3.429 
#    0.000   15.000    0.000    0.000    0.000    0.000 
#    0.000    0.000    0.000    0.000    0.000    0.000 
#
# Total GULP energy -156025.398330 kJ/mol
# GULP energy per Si atom -5572.335655 kJ/mol
# Density = 2.210847 g / cm^3
# Si number density = 22.158902 Si / 1000 Ang^3
#
#
#
# Elastic Constant Matrix: (Units=GPa)
#
#
# Indices 1 2 3 4 5 6 
#
# 1 123.9016 28.0697 25.6270 0.0000 -39.0383 0.0000
# 2 28.0697 56.1824 3.6798 0.0000 -8.0080 0.0000
# 3 25.6270 3.6798 49.4234 0.0000 -12.6272 0.0000
# 4 0.0000 0.0000 0.0000 -8.0218 0.0000 11.7284
# 5 -39.0383 -8.0080 -12.6272 0.0000 37.2649 0.0000
# 6 0.0000 0.0000 0.0000 11.7284 0.0000 -36.1551
#
#
#
# Elastic Compliance Matrix: (Units=1/GPa)
#
#
# Indices 1 2 3 4 5 6 
#
# 1 0.013760 -0.004907 -0.003674 0.000000 0.012115 0.000000
# 2 -0.004907 0.020119 0.000917 0.000000 -0.000507 0.000000
# 3 -0.003674 0.000917 0.023140 0.000000 0.004189 0.000000
# 4 0.000000 0.000000 0.000000 -0.237121 0.000000 -0.076920
# 5 0.012115 -0.000507 0.004189 0.000000 0.040837 0.000000
# 6 0.000000 0.000000 0.000000 -0.076920 0.000000 -0.052611
#
#
# Mechanical properties :
#
#
# Convention : Reuss Voigt Hill
#
# Bulk Modulus (GPa) = 23.98620 38.25115 31.11867
# Shear Modulus (GPa) = -30.74064 10.09299 -10.32383
#
# Velocity S-wave (km/s) = -3.72866 2.13652 -2.16081
# Velocity P-wave (km/s) = 2.77293 4.83590 2.80150
#
# Compressibility (1/GPa) = 0.04169064
#
# Stress axis : x y z
#
# Youngs Moduli (GPa) = 72.67618 49.70536 43.21434
#
# Poissons Ratio (x) = 0.24391 0.15877
# Poissons Ratio (y) = 0.35663 -0.03963
# Poissons Ratio (z) = 0.26701 -0.04559
#
# Static dielectric constant tensor:
#      x y z
#    x 1.840390 0.000000 0.010280 
#    y 0.000000 1.845290 0.000000 
#    z 0.010280 0.000000 1.955280 
# 
# From -- ./inp_files/191645.got.cif
#   From: 2010.05.17/outbox.cif.g08.bks.cpg/sg15_96_cif.got.tgz:191645.got - 2010.06.03 18:47:42.
