data_PCOD9257150
_publ_section_title
;
Structure prediction by ZEFSAII (Michael W. Deem and Ramdas Pophale) SiO2 
 PCOD9257150
Probable space group: C 2/C
;
_chemical_formula_sum "Si O2"
_cell_formula_units_Z 64
_cell_length_a 17.985309
_cell_length_b 9.256165
_cell_length_c 29.365136
_cell_angle_alpha 90.000000
_cell_angle_beta 42.272115
_cell_angle_gamma 90.000000
_cell_volume 3288.302381
_symmetry_space_group_name_H-M "C 2/C"
_symmetry_group_IT_number 15
_symmetry_cell_setting 'monoclinic'
loop_
_space_group_symop_operation_xyz
x,y,z
-x,y,1/2-z
-x,-y,-z
x,-y,1/2+z
1/2+x,1/2+y,z
1/2-x,1/2+y,1/2-z
1/2-x,1/2-y,-z
1/2+x,1/2-y,1/2+z
loop_
_atom_site_type_symbol
_atom_site_label
_atom_site_fract_x
_atom_site_fract_y
_atom_site_fract_z
Si Si1 0.244867 0.372994 0.463552
Si Si2 0.486930 0.750251 0.446002
Si Si3 0.547277 0.185293 0.680438
Si Si4 0.365481 0.645746 0.043811
Si Si5 0.295335 0.676133 0.593861
Si Si6 0.569213 0.682474 0.880342
Si Si7 0.968974 0.051165 0.369400
Si Si8 0.479019 0.011690 0.395318
O O1 0.250000 0.250000 0.500000
O O2 0.211931 0.280342 0.434037
O O3 0.359200 0.458740 0.408167
O O4 0.143263 0.469382 0.527428
O O5 0.579199 0.666291 0.432313
O O6 0.387683 0.771196 0.526522
O O7 0.442625 0.656463 0.424029
O O8 0.534690 0.896280 0.403731
O O9 0.500000 0.137011 0.750000
O O10 0.675269 0.219662 0.632077
O O11 0.496831 0.336418 0.685149
O O12 0.531491 0.062351 0.649209
O O13 0.311255 0.488906 0.069164
O O14 0.464806 0.650518 0.961711
O O15 0.325396 0.682301 0.633894
O O16 0.561936 0.558825 0.845498
O O17 0.541347 0.836344 0.870243
#
# Coordination Sequence:
#
# PCOD9257150 Si02
#       8
#     8   8   8   8   8   8   8   8
#     4  11  18  29  54  91 119 143 173 222 285 348
#     4  10  18  32  54  91 116 148 173 222 292 355
#     4  11  26  42  56  75 109 153 203 242 271 318
#     4  10  18  30  55  91 127 140 170 220 287 355
#     4  11  19  35  59  83 116 153 183 219 286 344
#     4  10  19  34  58  89 116 142 177 223 286 351
#     4  11  19  36  57  81 117 145 184 229 280 341
#     4  10  21  34  57  83 118 145 182 233 284 329
#
# _framework density 19.46293
#
# number of rings (size 3 to 8) (size 9 to 14) (size 15 to 20)
#    0.000    1.500    5.000    3.000    0.000    7.500 
#    0.000    1.875    0.000    0.000    0.000    0.000 
#    0.000    0.000    0.000    0.000    0.000    0.000 
#
# Total GULP energy -178519.568136 kJ/mol
# GULP energy per Si atom -5578.736504 kJ/mol
# Density = 1.941863 g / cm^3
# Si number density = 19.462930 Si / 1000 Ang^3
#
#
#
# Elastic Constant Matrix: (Units=GPa)
#
#
# Indices 1 2 3 4 5 6 
#
# 1 80.6831 35.6664 10.3648 0.0000 19.0286 -0.0003
# 2 35.6664 102.2396 12.1333 0.0000 17.5537 -0.0001
# 3 10.3648 12.1333 12.0632 0.0000 16.6579 0.0000
# 4 0.0000 0.0000 0.0000 10.2669 0.0000 3.9759
# 5 19.0286 17.5537 16.6579 0.0000 13.8776 0.0000
# 6 -0.0003 -0.0001 0.0000 3.9759 0.0000 41.4429
#
#
#
# Elastic Compliance Matrix: (Units=1/GPa)
#
#
# Indices 1 2 3 4 5 6 
#
# 1 0.014945 -0.004255 -0.018713 0.000000 0.007351 0.000000
# 2 -0.004255 0.012310 -0.007177 0.000000 -0.001121 0.000000
# 3 -0.018713 -0.007177 -0.088552 0.000000 0.141029 0.000000
# 4 0.000000 0.000000 0.000000 0.101159 0.000000 -0.009705
# 5 0.007351 -0.001121 0.141029 0.000000 -0.105887 0.000000
# 6 0.000000 0.000000 0.000000 -0.009705 0.000000 0.025061
#
#
# Mechanical properties :
#
#
# Convention : Reuss Voigt Hill
#
# Bulk Modulus (GPa) = -8.22465 34.59055 13.18295
# Shear Modulus (GPa) = -235.80714 22.23888 -106.78413
#
# Velocity S-wave (km/s) = -11.01908 3.38394 -7.41515
# Velocity P-wave (km/s) = 12.88908 5.75145 8.15626
#
# Compressibility (1/GPa) = -0.12158567
#
# Stress axis : x y z
#
# Youngs Moduli (GPa) = 66.91065 81.23769 -11.29282
#
# Poissons Ratio (x) = 0.34568 -0.21132
# Poissons Ratio (y) = 0.28471 -0.08104
# Poissons Ratio (z) = 1.25207 0.58301
#
# Static dielectric constant tensor:
#      x y z
#    x 1.741180 0.000000 0.006750 
#    y 0.000000 1.788160 0.000000 
#    z 0.006750 0.000000 1.669500 
# 
# From -- ./inp_files/315670.got.cif
#   From: 2010.05.17/outbox.cif.g08.bks.cpg/sg15_158_cif.got.tgz:315670.got - 2010.06.03 18:47:42.
