data_PCOD9257020
_publ_section_title
;
Structure prediction by ZEFSAII (Michael W. Deem and Ramdas Pophale) SiO2 
 PCOD9257020
Probable space group: C 2/C
;
_chemical_formula_sum "Si O2"
_cell_formula_units_Z 48
_cell_length_a 5.649985
_cell_length_b 27.668852
_cell_length_c 14.056076
_cell_angle_alpha 90.000000
_cell_angle_beta 108.429156
_cell_angle_gamma 90.000000
_cell_volume 2084.675298
_symmetry_space_group_name_H-M "C 2/C"
_symmetry_group_IT_number 15
_symmetry_cell_setting 'monoclinic'
loop_
_space_group_symop_operation_xyz
x,y,z
-x,y,1/2-z
-x,-y,-z
x,-y,1/2+z
1/2+x,1/2+y,z
1/2-x,1/2+y,1/2-z
1/2-x,1/2-y,-z
1/2+x,1/2-y,1/2+z
loop_
_atom_site_type_symbol
_atom_site_label
_atom_site_fract_x
_atom_site_fract_y
_atom_site_fract_z
Si Si1 0.887176 0.719866 0.434038
Si Si2 0.104362 0.191439 0.894705
Si Si3 0.584241 0.536044 0.096335
Si Si4 0.389784 0.999310 0.878376
Si Si5 0.844225 0.867979 0.522847
Si Si6 0.889168 0.607210 0.840456
O O1 0.750000 0.750000 0.500000
O O2 0.724762 0.670837 0.403683
O O3 0.956620 0.757932 0.359338
O O4 0.150190 0.704232 0.512465
O O5 0.211338 0.153140 0.833450
O O6 0.926734 0.161779 0.941220
O O7 0.362599 0.531210 0.145175
O O8 0.555887 0.592203 0.065709
O O9 0.868856 0.520057 0.148905
O O10 0.500000 0.500000 0.000000
O O11 0.295547 0.052338 0.835242
O O12 0.500000 0.000000 0.000000
O O13 0.591514 0.892405 0.452054
O O14 0.000000 0.612532 0.750000
#
# Coordination Sequence:
#
# PCOD9257020 Si02
#       6
#     8   8   8   8   8   8
#     4   8  16  29  48  72 101 132 170 219 275 324
#     4   9  17  31  47  69 108 139 165 220 271 333
#     4  10  18  30  52  72 104 142 181 228 273 311
#     4  10  19  34  50  72 105 146 184 227 267 324
#     4  10  18  30  51  77 104 142 181 231 279 333
#     4  11  22  32  48  76 113 149 183 218 285 351
#
# _framework density 23.025169000000002
#
# number of rings (size 3 to 8) (size 9 to 14) (size 15 to 20)
#    0.000    2.333    3.333    2.000    2.333    0.667 
#    0.000    0.000    0.000    0.000    0.000    0.000 
#   30.000    1.333    0.000    0.000    0.000    0.000 
#
# Total GULP energy -133661.885809 kJ/mol
# GULP energy per Si atom -5569.245242 kJ/mol
# Density = 2.297276 g / cm^3
# Si number density = 23.025169 Si / 1000 Ang^3
#
#
#
# Elastic Constant Matrix: (Units=GPa)
#
#
# Indices 1 2 3 4 5 6 
#
# 1 74.3778 3.8679 24.9671 0.0000 -5.4509 0.0000
# 2 3.8679 140.3829 36.0007 0.0000 -12.7676 0.0000
# 3 24.9671 36.0007 53.7984 0.0000 5.8405 0.0000
# 4 0.0000 0.0000 0.0000 5.6891 0.0000 -28.3518
# 5 -5.4509 -12.7676 5.8405 0.0000 26.4761 0.0000
# 6 0.0000 0.0000 0.0000 -28.3518 0.0000 33.7893
#
#
#
# Elastic Compliance Matrix: (Units=1/GPa)
#
#
# Indices 1 2 3 4 5 6 
#
# 1 0.017511 0.003004 -0.010948 0.000000 0.007469 0.000000
# 2 0.003004 0.009991 -0.008883 0.000000 0.007396 0.000000
# 3 -0.010948 -0.008883 0.031067 0.000000 -0.013391 0.000000
# 4 0.000000 0.000000 0.000000 -0.055248 0.000000 -0.046357
# 5 0.007469 0.007396 -0.013391 0.000000 0.045828 0.000000
# 6 0.000000 0.000000 0.000000 -0.046357 0.000000 -0.009302
#
#
# Mechanical properties :
#
#
# Convention : Reuss Voigt Hill
#
# Bulk Modulus (GPa) = 40.13535 44.24781 42.19158
# Shear Modulus (GPa) = 61.11964 26.77244 43.94604
#
# Velocity S-wave (km/s) = 5.15775 3.41361 4.37350
# Velocity P-wave (km/s) = 7.27590 5.89880 6.62324
#
# Compressibility (1/GPa) = 0.02491569
#
# Stress axis : x y z
#
# Youngs Moduli (GPa) = 57.10685 100.08649 32.18851
#
# Poissons Ratio (x) = -0.30070 0.35240
# Poissons Ratio (y) = -0.17157 0.28594
# Poissons Ratio (z) = 0.62520 0.88909
#
# Static dielectric constant tensor:
#      x y z
#    x 1.864710 0.000000 -0.021280 
#    y 0.000000 2.320690 0.000000 
#    z -0.021280 0.000000 1.891220 
# 
# From -- ./inp_files/130043.got.cif
#   From: 2010.05.17/outbox.cif.g08.bks.cpg/sg15_66_cif.got.tgz:130043.got - 2010.06.03 18:47:42.
