data_PCOD9257517
_publ_section_title
;
Structure prediction by ZEFSAII (Michael W. Deem and Ramdas Pophale) SiO2 
 PCOD9257517
Probable space group: C 2/C
;
_chemical_formula_sum "Si O2"
_cell_formula_units_Z 32
_cell_length_a 17.598980
_cell_length_b 19.894584
_cell_length_c 9.630302
_cell_angle_alpha 90.000000
_cell_angle_beta 157.950744
_cell_angle_gamma 90.000000
_cell_volume 1265.786983
_symmetry_space_group_name_H-M "C 2/C"
_symmetry_group_IT_number 15
_symmetry_cell_setting 'monoclinic'
loop_
_space_group_symop_operation_xyz
x,y,z
-x,y,1/2-z
-x,-y,-z
x,-y,1/2+z
1/2+x,1/2+y,z
1/2-x,1/2+y,1/2-z
1/2-x,1/2-y,-z
1/2+x,1/2-y,1/2+z
loop_
_atom_site_type_symbol
_atom_site_label
_atom_site_fract_x
_atom_site_fract_y
_atom_site_fract_z
Si Si1 0.084527 0.226703 0.604075
Si Si2 0.743772 0.086654 0.660137
Si Si3 0.289473 0.336709 0.803074
Si Si4 0.782439 0.527219 0.180331
O O1 0.874607 0.199245 0.309578
O O2 0.250000 0.250000 0.000000
O O3 0.175772 0.161431 0.683886
O O4 0.104785 0.293115 0.548687
O O5 0.500000 0.090845 0.250000
O O6 0.803075 0.036029 0.881526
O O7 0.807831 0.058359 0.615646
O O8 0.500000 0.332831 0.250000
O O9 0.221200 0.413342 0.710996
O O10 0.000000 0.500000 0.500000
#
# Coordination Sequence:
#
# PCOD9257517 Si02
#       4
#     8   8   8   8
#     4  10  18  31  57  80 114 134 193 235 279 310
#     4  10  19  34  54  84 108 150 180 233 281 333
#     4  10  19  33  54  88 110 144 187 241 274 325
#     4  10  21  34  54  81 117 147 186 225 285 334
#
# _framework density 25.280716000000002
#
# number of rings (size 3 to 8) (size 9 to 14) (size 15 to 20)
#    0.000    2.000    5.000    2.250    3.500    1.000 
#    0.000    0.000    0.000    1.500    0.000    0.000 
#    0.000    0.000    0.000    0.000    0.000    0.000 
#
# Total GULP energy -89281.752316 kJ/mol
# GULP energy per Si atom -5580.109520 kJ/mol
# Density = 2.522318 g / cm^3
# Si number density = 25.280716 Si / 1000 Ang^3
#
#
#
# Elastic Constant Matrix: (Units=GPa)
#
#
# Indices 1 2 3 4 5 6 
#
# 1 69.7965 21.0905 24.3273 0.0000 35.7813 0.0000
# 2 21.0905 164.7868 14.8599 0.0000 40.7494 0.0000
# 3 24.3273 14.8599 90.9563 0.0000 24.9249 0.0000
# 4 0.0000 0.0000 0.0000 10.4435 0.0000 18.5855
# 5 35.7813 40.7494 24.9249 0.0000 44.1146 0.0000
# 6 0.0000 0.0000 0.0000 18.5855 0.0000 64.5351
#
#
#
# Elastic Compliance Matrix: (Units=1/GPa)
#
#
# Indices 1 2 3 4 5 6 
#
# 1 0.025315 0.002310 -0.001108 0.000000 -0.022041 0.000000
# 2 0.002310 0.008130 0.000740 0.000000 -0.009802 0.000000
# 3 -0.001108 0.000740 0.013146 0.000000 -0.007212 0.000000
# 4 0.000000 0.000000 0.000000 0.196421 0.000000 -0.056567
# 5 -0.022041 -0.009802 -0.007212 0.000000 0.053674 0.000000
# 6 0.000000 0.000000 0.000000 -0.056567 0.000000 0.031786
#
#
# Mechanical properties :
#
#
# Convention : Reuss Voigt Hill
#
# Bulk Modulus (GPa) = 19.81205 49.56611 34.68908
# Shear Modulus (GPa) = 14.64500 41.50278 28.07389
#
# Velocity S-wave (km/s) = 2.40947 4.05616 3.33601
# Velocity P-wave (km/s) = 3.94899 6.44867 5.34696
#
# Compressibility (1/GPa) = 0.05047432
#
# Stress axis : x y z
#
# Youngs Moduli (GPa) = 39.50281 123.00379 76.06756
#
# Poissons Ratio (x) = -0.28418 0.08431
# Poissons Ratio (y) = -0.09126 -0.05628
# Poissons Ratio (z) = 0.04378 -0.09100
#
# Static dielectric constant tensor:
#      x y z
#    x 2.102270 0.000000 -0.093180 
#    y 0.000000 1.950930 0.000000 
#    z -0.093180 0.000000 2.086350 
# 
# From -- ./inp_files/28315.got.cif
#   From: 2010.05.17/outbox.cif.g08.bks.cpg/sg15_15_cif.got.tgz:28315.got - 2010.06.03 18:47:42.
