data_PCOD9257761
_publ_section_title
;
Structure prediction by ZEFSAII (Michael W. Deem and Ramdas Pophale) SiO2 
 PCOD9257761
Probable space group: C 2/C
;
_chemical_formula_sum "Si O2"
_cell_formula_units_Z 64
_cell_length_a 20.579226
_cell_length_b 13.829768
_cell_length_c 31.510538
_cell_angle_alpha 90.000000
_cell_angle_beta 154.832125
_cell_angle_gamma 90.000000
_cell_volume 3813.874842
_symmetry_space_group_name_H-M "C 2/C"
_symmetry_group_IT_number 15
_symmetry_cell_setting 'monoclinic'
loop_
_space_group_symop_operation_xyz
x,y,z
-x,y,1/2-z
-x,-y,-z
x,-y,1/2+z
1/2+x,1/2+y,z
1/2-x,1/2+y,1/2-z
1/2-x,1/2-y,-z
1/2+x,1/2-y,1/2+z
loop_
_atom_site_type_symbol
_atom_site_label
_atom_site_fract_x
_atom_site_fract_y
_atom_site_fract_z
Si Si1 0.443105 0.554717 0.031772
Si Si2 0.112301 0.363393 0.205114
Si Si3 0.894176 0.882190 0.649893
Si Si4 0.815767 0.684827 0.578672
Si Si5 0.069812 0.544129 0.975578
Si Si6 0.452851 0.858024 0.947306
Si Si7 0.047065 0.866662 0.057540
Si Si8 0.126322 0.861430 0.710545
O O1 0.440218 0.440191 0.020782
O O2 0.589746 0.576475 0.147759
O O3 0.302740 0.607595 0.972792
O O4 0.459949 0.603740 0.995843
O O5 0.277806 0.381868 0.323037
O O6 0.114690 0.251488 0.191320
O O7 0.973390 0.363770 0.156932
O O8 0.059819 0.430507 0.135343
O O9 0.851462 0.769661 0.633403
O O10 0.734471 0.936555 0.552281
O O11 0.000000 0.920165 0.750000
O O12 0.995888 0.883842 0.668025
O O13 0.750000 0.750000 0.500000
O O14 0.052873 0.614757 0.006333
O O15 0.059313 0.436153 0.987314
O O16 0.491664 0.746473 0.962210
O O17 0.285854 0.875843 0.828357
#
# Coordination Sequence:
#
# PCOD9257761 Si02
#       8
#     8   8   8   8   8   8   8   8
#     4  11  20  35  52  77 107 144 172 215 267 312
#     4  10  19  33  51  80 104 134 167 221 264 310
#     4  11  19  30  51  82 105 126 161 223 271 311
#     4  11  19  31  54  82 104 132 168 224 269 310
#     4  11  19  32  51  77 108 132 172 216 266 308
#     4  10  21  32  50  77 101 142 171 213 256 314
#     4  10  23  35  51  75 109 145 178 210 257 324
#     4  10  18  32  53  77 107 129 171 216 265 309
#
# _framework density 16.780833999999999
#
# number of rings (size 3 to 8) (size 9 to 14) (size 15 to 20)
#    0.000    1.500    5.000    2.250    3.500    0.000 
#    0.000    0.000    0.000    3.000    6.500    0.000 
#    0.000    0.000    0.000    0.000    0.000    0.000 
#
# Total GULP energy -178414.179884 kJ/mol
# GULP energy per Si atom -5575.443121 kJ/mol
# Density = 1.674264 g / cm^3
# Si number density = 16.780834 Si / 1000 Ang^3
#
#
#
# Elastic Constant Matrix: (Units=GPa)
#
#
# Indices 1 2 3 4 5 6 
#
# 1 51.7171 46.9954 20.8131 -0.0002 -2.4614 -0.0002
# 2 46.9954 101.3250 26.8093 0.0063 7.8139 -0.0003
# 3 20.8131 26.8093 56.5737 0.0142 -8.3346 -0.0011
# 4 -0.0002 0.0063 0.0142 15.5692 -0.0020 0.2865
# 5 -2.4614 7.8139 -8.3346 -0.0020 29.2472 -0.0006
# 6 -0.0002 -0.0003 -0.0011 0.2865 -0.0006 27.8314
#
#
#
# Elastic Compliance Matrix: (Units=1/GPa)
#
#
# Indices 1 2 3 4 5 6 
#
# 1 0.035978 -0.015856 -0.004856 0.000012 0.005880 0.000000
# 2 -0.015856 0.018938 -0.004262 -0.000005 -0.007608 0.000000
# 3 -0.004856 -0.004262 0.022536 -0.000018 0.007152 0.000001
# 4 0.000012 -0.000005 -0.000018 0.064241 0.000002 -0.000661
# 5 0.005880 -0.007608 0.007152 0.000002 0.038757 0.000001
# 6 0.000000 0.000000 0.000001 -0.000661 0.000001 0.035937
#
#
# Mechanical properties :
#
#
# Convention : Reuss Voigt Hill
#
# Bulk Modulus (GPa) = 36.35793 44.31683 40.33738
# Shear Modulus (GPa) = 18.14862 22.19609 20.17235
#
# Velocity S-wave (km/s) = 3.29220 3.64085 3.47090
# Velocity P-wave (km/s) = 6.01372 6.64386 6.33663
#
# Compressibility (1/GPa) = 0.02750431
#
# Stress axis : x y z
#
# Youngs Moduli (GPa) = 27.79466 52.80500 44.37357
#
# Poissons Ratio (x) = 0.83725 0.21549
# Poissons Ratio (y) = 0.44070 0.18912
# Poissons Ratio (z) = 0.13498 0.22505
#
# Static dielectric constant tensor:
#      x y z
#    x 1.566350 0.000000 -0.018070 
#    y 0.000000 1.571650 0.000000 
#    z -0.018070 0.000000 1.607760 
# 
# From -- ./inp_files/316387.got.cif
#   From: 2010.05.17/outbox.cif.g08.bks.cpg/sg15_159_cif.got.tgz:316387.got - 2010.06.03 18:47:42.
