data_PCOD9257927
_publ_section_title
;
Structure prediction by ZEFSAII (Michael W. Deem and Ramdas Pophale) SiO2 
 PCOD9257927
Probable space group: C 2/C
;
_chemical_formula_sum "Si O2"
_cell_formula_units_Z 60
_cell_length_a 7.370224
_cell_length_b 12.214551
_cell_length_c 27.062011
_cell_angle_alpha 90.000000
_cell_angle_beta 74.318088
_cell_angle_gamma 90.000000
_cell_volume 2345.546376
_symmetry_space_group_name_H-M "C 2/C"
_symmetry_group_IT_number 15
_symmetry_cell_setting 'monoclinic'
loop_
_space_group_symop_operation_xyz
x,y,z
-x,y,1/2-z
-x,-y,-z
x,-y,1/2+z
1/2+x,1/2+y,z
1/2-x,1/2+y,1/2-z
1/2-x,1/2-y,-z
1/2+x,1/2-y,1/2+z
loop_
_atom_site_type_symbol
_atom_site_label
_atom_site_fract_x
_atom_site_fract_y
_atom_site_fract_z
Si Si1 0.741139 0.567227 0.012154
Si Si2 0.500000 0.721929 0.250000
Si Si3 0.869239 0.713619 0.859553
Si Si4 0.500158 0.548024 0.114940
Si Si5 0.932389 0.494030 0.172659
Si Si6 0.366131 0.900687 0.922457
Si Si7 0.544687 0.722452 0.957736
Si Si8 0.785811 0.974087 0.719093
O O1 0.654576 0.503966 0.065489
O O2 0.862765 0.670397 0.022337
O O3 0.853726 0.489393 0.967131
O O4 0.566292 0.625380 0.995510
O O5 0.625563 0.784820 0.200619
O O6 0.642878 0.646523 0.270408
O O7 0.680519 0.685587 0.902704
O O8 0.930407 0.831293 0.874459
O O9 0.019346 0.618335 0.858497
O O10 0.310085 0.571355 0.098810
O O11 0.446811 0.485181 0.169156
O O12 0.760731 0.478027 0.223420
O O13 0.951459 0.583107 0.127402
O O14 0.100385 0.525018 0.198675
O O15 0.365851 0.778960 0.945165
#
# Coordination Sequence:
#
# PCOD9257927 Si02
#       8
#     8   4   8   8   8   8   8   8
#     4  10  20  38  57  83 120 155 193 244 291 354
#     4  10  18  32  56  78 112 144 188 234 302 342
#     4  10  19  37  57  83 112 155 185 241 295 352
#     4   9  21  36  57  81 120 152 190 242 298 341
#     4  10  19  35  59  81 112 148 197 231 289 358
#     4  11  20  36  60  88 113 157 193 243 292 345
#     4  10  21  35  59  87 116 148 203 238 288 353
#     4   9  19  34  54  84 106 149 190 237 287 353
#
# _framework density 25.580394999999999
#
# number of rings (size 3 to 8) (size 9 to 14) (size 15 to 20)
#    0.000    2.133    1.333    2.400    0.000    0.533 
#    0.000    1.333    2.933    8.000    0.000    0.000 
#    0.000    0.000    0.000    0.000    0.000    0.000 
#
# Total GULP energy -167507.607420 kJ/mol
# GULP energy per Si atom -5583.586914 kJ/mol
# Density = 2.552217 g / cm^3
# Si number density = 25.580395 Si / 1000 Ang^3
#
#
#
# Elastic Constant Matrix: (Units=GPa)
#
#
# Indices 1 2 3 4 5 6 
#
# 1 64.7695 18.7902 24.4471 0.0000 22.9531 0.0000
# 2 18.7902 70.2749 39.1698 0.0000 -4.5922 0.0000
# 3 24.4471 39.1698 216.9526 0.0000 -29.5382 0.0000
# 4 0.0000 0.0000 0.0000 48.6696 0.0000 2.9748
# 5 22.9531 -4.5922 -29.5382 0.0000 34.6459 0.0000
# 6 0.0000 0.0000 0.0000 2.9748 0.0000 28.5488
#
#
#
# Elastic Compliance Matrix: (Units=1/GPa)
#
#
# Indices 1 2 3 4 5 6 
#
# 1 0.027418 -0.005963 -0.005197 0.000000 -0.023386 0.000000
# 2 -0.005963 0.017123 -0.001779 0.000000 0.004703 0.000000
# 3 -0.005197 -0.001779 0.006735 0.000000 0.008949 0.000000
# 4 0.000000 0.000000 0.000000 0.020678 0.000000 -0.002155
# 5 -0.023386 0.004703 0.008949 0.000000 0.052610 0.000000
# 6 0.000000 0.000000 0.000000 -0.002155 0.000000 0.035252
#
#
# Mechanical properties :
#
#
# Convention : Reuss Voigt Hill
#
# Bulk Modulus (GPa) = 39.37300 57.42348 48.39824
# Shear Modulus (GPa) = 25.75181 40.34551 33.04866
#
# Velocity S-wave (km/s) = 3.17630 3.97571 3.59827
# Velocity P-wave (km/s) = 5.37374 6.60091 6.01868
#
# Compressibility (1/GPa) = 0.02539811
#
# Stress axis : x y z
#
# Youngs Moduli (GPa) = 36.47182 58.40031 148.48673
#
# Poissons Ratio (x) = 0.34822 0.77171
# Poissons Ratio (y) = 0.21747 0.26421
# Poissons Ratio (z) = 0.18955 0.10391
#
# Static dielectric constant tensor:
#      x y z
#    x 2.127980 0.000000 -0.060190 
#    y 0.000000 2.013420 0.000000 
#    z -0.060190 0.000000 2.088570 
# 
# From -- ./inp_files/307464.got.cif
#   From: 2010.05.17/outbox.cif.g08.bks.cpg/sg15_154_cif.got.tgz:307464.got - 2010.06.03 18:47:42.
