data_PCOD9257733
_publ_section_title
;
Structure prediction by ZEFSAII (Michael W. Deem and Ramdas Pophale) SiO2 
 PCOD9257733
Probable space group: C 2/C
;
_chemical_formula_sum "Si O2"
_cell_formula_units_Z 56
_cell_length_a 17.395416
_cell_length_b 5.538825
_cell_length_c 26.166910
_cell_angle_alpha 90.000000
_cell_angle_beta 97.854709
_cell_angle_gamma 90.000000
_cell_volume 2497.531826
_symmetry_space_group_name_H-M "C 2/C"
_symmetry_group_IT_number 15
_symmetry_cell_setting 'monoclinic'
loop_
_space_group_symop_operation_xyz
x,y,z
-x,y,1/2-z
-x,-y,-z
x,-y,1/2+z
1/2+x,1/2+y,z
1/2-x,1/2+y,1/2-z
1/2-x,1/2-y,-z
1/2+x,1/2-y,1/2+z
loop_
_atom_site_type_symbol
_atom_site_label
_atom_site_fract_x
_atom_site_fract_y
_atom_site_fract_z
Si Si1 0.636899 0.785225 0.599039
Si Si2 0.318178 0.560037 0.993542
Si Si3 0.352936 0.889575 0.256897
Si Si4 0.944621 0.083377 0.195602
Si Si5 0.229487 0.162758 0.918561
Si Si6 0.488688 0.081395 0.331726
Si Si7 0.767840 0.897407 0.827033
O O1 0.621082 0.668937 0.541281
O O2 0.679455 0.599043 0.641348
O O3 0.704930 0.973924 0.592491
O O4 0.561838 0.881002 0.621549
O O5 0.275556 0.353956 0.957160
O O6 0.250000 0.750000 0.000000
O O7 0.336405 0.453061 0.051399
O O8 0.366697 0.672647 0.217121
O O9 0.427773 0.051819 0.278107
O O10 0.283849 0.034750 0.225730
O O11 0.328523 0.789343 0.309327
O O12 0.000000 0.081147 0.250000
O O13 0.960151 0.824348 0.171466
O O14 0.967888 0.321401 0.164475
O O15 0.209586 0.297035 0.864700
#
# Coordination Sequence:
#
# PCOD9257733 Si02
#       7
#     8   8   8   8   8   8   8
#     4  10  18  32  52  81 111 143 185 240 294 359
#     4   8  16  29  52  76 113 140 179 230 294 362
#     4  11  23  37  55  82 116 161 198 241 296 355
#     4  10  22  37  54  73 106 152 204 246 276 325
#     4   9  17  32  49  80 111 146 180 230 297 360
#     4  11  21  37  55  77 109 151 200 244 280 330
#     4  11  22  34  51  80 118 151 188 234 300 362
#
# _framework density 22.422135000000001
#
# number of rings (size 3 to 8) (size 9 to 14) (size 15 to 20)
#    0.000    2.000    1.429    3.857    2.000    1.143 
#    0.000    0.000    0.000    0.000    0.000    2.000 
#    0.000    0.000    0.000    0.000    0.000    0.000 
#
# Total GULP energy -156043.788374 kJ/mol
# GULP energy per Si atom -5572.992442 kJ/mol
# Density = 2.237110 g / cm^3
# Si number density = 22.422135 Si / 1000 Ang^3
#
#
#
# Elastic Constant Matrix: (Units=GPa)
#
#
# Indices 1 2 3 4 5 6 
#
# 1 49.9703 22.7357 35.9762 0.0000 -16.1794 0.0000
# 2 22.7357 112.6678 61.9832 0.0000 -11.2508 0.0000
# 3 35.9762 61.9832 109.4259 0.0000 -54.3763 0.0000
# 4 0.0000 0.0000 0.0000 43.9626 0.0000 -10.5426
# 5 -16.1794 -11.2508 -54.3763 0.0000 17.1493 0.0000
# 6 0.0000 0.0000 0.0000 -10.5426 0.0000 14.5866
#
#
#
# Elastic Compliance Matrix: (Units=1/GPa)
#
#
# Indices 1 2 3 4 5 6 
#
# 1 0.026210 -0.001289 -0.006915 0.000000 0.001955 0.000000
# 2 -0.001289 0.008664 0.003932 0.000000 0.016936 0.000000
# 3 -0.006915 0.003932 -0.012551 0.000000 -0.043740 0.000000
# 4 0.000000 0.000000 0.000000 0.027516 0.000000 0.019887
# 5 0.001955 0.016936 -0.043740 0.000000 -0.067424 0.000000
# 6 0.000000 0.000000 0.000000 0.019887 0.000000 0.082930
#
#
# Mechanical properties :
#
#
# Convention : Reuss Voigt Hill
#
# Bulk Modulus (GPa) = 72.57865 57.05047 64.81456
# Shear Modulus (GPa) = 63.70865 25.23096 44.46981
#
# Velocity S-wave (km/s) = 5.33619 3.35814 4.45826
# Velocity P-wave (km/s) = 8.39083 6.36673 7.44786
#
# Compressibility (1/GPa) = 0.01377816
#
# Stress axis : x y z
#
# Youngs Moduli (GPa) = 38.15304 115.42492 -79.67521
#
# Poissons Ratio (x) = 0.14883 -0.55099
# Poissons Ratio (y) = 0.04919 0.31332
# Poissons Ratio (z) = 0.26385 -0.45390
#
# Static dielectric constant tensor:
#      x y z
#    x 1.860500 0.000000 -0.044000 
#    y 0.000000 1.911060 0.000000 
#    z -0.044000 0.000000 1.870480 
# 
# From -- ./inp_files/299754.got.cif
#   From: 2010.05.17/outbox.cif.g08.bks.cpg/sg15_150_cif.got.tgz:299754.got - 2010.06.03 18:47:42.
