data_PCOD9257343
_publ_section_title
;
Structure prediction by ZEFSAII (Michael W. Deem and Ramdas Pophale) SiO2 
 PCOD9257343
Probable space group: C 2/C
;
_chemical_formula_sum "Si O2"
_cell_formula_units_Z 64
_cell_length_a 20.757305
_cell_length_b 8.653018
_cell_length_c 21.419259
_cell_angle_alpha 90.000000
_cell_angle_beta 107.109936
_cell_angle_gamma 90.000000
_cell_volume 3676.915859
_symmetry_space_group_name_H-M "C 2/C"
_symmetry_group_IT_number 15
_symmetry_cell_setting 'monoclinic'
loop_
_space_group_symop_operation_xyz
x,y,z
-x,y,1/2-z
-x,-y,-z
x,-y,1/2+z
1/2+x,1/2+y,z
1/2-x,1/2+y,1/2-z
1/2-x,1/2-y,-z
1/2+x,1/2-y,1/2+z
loop_
_atom_site_type_symbol
_atom_site_label
_atom_site_fract_x
_atom_site_fract_y
_atom_site_fract_z
Si Si1 0.218899 0.019924 0.976324
Si Si2 0.728613 0.199218 0.391124
Si Si3 0.805791 0.544412 0.231533
Si Si4 0.653302 0.872125 0.555103
Si Si5 0.646796 0.151490 0.645567
Si Si6 0.583041 0.614557 0.475169
Si Si7 0.824412 0.160119 0.824834
Si Si8 0.438490 0.454067 0.897755
O O1 0.200848 0.162089 0.925297
O O2 0.286390 0.937236 0.970491
O O3 0.153761 0.914334 0.961736
O O4 0.233886 0.089743 0.048776
O O5 0.678397 0.098883 0.334329
O O6 0.782207 0.280108 0.359737
O O7 0.846099 0.416661 0.282760
O O8 0.812774 0.699274 0.274387
O O9 0.730917 0.471005 0.204233
O O10 0.591367 0.790676 0.501761
O O11 0.683358 0.738876 0.609203
O O12 0.630480 0.010980 0.593785
O O13 0.595024 0.289999 0.625381
O O14 0.576743 0.506971 0.535195
O O15 0.518443 0.569234 0.416077
O O16 0.898300 0.081482 0.845588
#
# Coordination Sequence:
#
# PCOD9257343 Si02
#       8
#     8   8   8   8   8   8   8   8
#     4  10  19  33  54  79 112 134 172 218 257 328
#     4  10  18  31  53  84 105 135 168 216 273 309
#     4  11  18  30  54  80 106 134 171 221 276 298
#     4   9  20  31  52  83 107 133 171 216 267 312
#     4  10  18  32  51  82 111 129 172 223 262 310
#     4  10  19  33  52  76 107 147 169 211 269 314
#     4  10  18  31  51  83 105 130 173 222 266 308
#     4  10  19  33  52  76 111 136 177 216 260 320
#
# _framework density 17.405891
#
# number of rings (size 3 to 8) (size 9 to 14) (size 15 to 20)
#    0.000    2.000    3.750    1.125    0.000    0.500 
#    0.000    0.000    0.000    0.750    3.250    0.000 
#    0.000    0.000    0.000    0.000    0.000    0.000 
#
# Total GULP energy -178152.974487 kJ/mol
# GULP energy per Si atom -5567.280453 kJ/mol
# Density = 1.736627 g / cm^3
# Si number density = 17.405891 Si / 1000 Ang^3
#
#
#
# Elastic Constant Matrix: (Units=GPa)
#
#
# Indices 1 2 3 4 5 6 
#
# 1 13.3274 15.3468 3.2786 0.0000 6.8886 0.0000
# 2 15.3468 93.6153 33.0126 0.0000 11.2879 0.0000
# 3 3.2786 33.0126 57.6221 0.0000 4.7289 0.0000
# 4 0.0000 0.0000 0.0000 22.8915 0.0000 2.9902
# 5 6.8886 11.2879 4.7289 0.0000 18.0392 0.0000
# 6 0.0000 0.0000 0.0000 2.9902 0.0000 17.1320
#
#
#
# Elastic Compliance Matrix: (Units=1/GPa)
#
#
# Indices 1 2 3 4 5 6 
#
# 1 0.109070 -0.015852 0.005601 0.000000 -0.033199 0.000000
# 2 -0.015852 0.016482 -0.008371 0.000000 -0.002065 0.000000
# 3 0.005601 -0.008371 0.022052 0.000000 -0.002681 0.000000
# 4 0.000000 0.000000 0.000000 0.044704 0.000000 -0.007802
# 5 -0.033199 -0.002065 -0.002681 0.000000 0.070108 0.000000
# 6 0.000000 0.000000 0.000000 -0.007802 0.000000 0.059732
#
#
# Mechanical properties :
#
#
# Convention : Reuss Voigt Hill
#
# Bulk Modulus (GPa) = 9.06140 29.76008 19.41074
# Shear Modulus (GPa) = 12.62056 19.14100 15.88078
#
# Velocity S-wave (km/s) = 2.69564 3.31975 3.02384
# Velocity P-wave (km/s) = 3.86081 5.64173 4.83399
#
# Compressibility (1/GPa) = 0.11035827
#
# Stress axis : x y z
#
# Youngs Moduli (GPa) = 9.16841 60.67274 45.34764
#
# Poissons Ratio (x) = 0.96181 -0.25399
# Poissons Ratio (y) = 0.14534 0.37962
# Poissons Ratio (z) = -0.05135 0.50791
#
# Static dielectric constant tensor:
#      x y z
#    x 1.568660 0.000000 0.014480 
#    y 0.000000 1.628990 0.000000 
#    z 0.014480 0.000000 1.629750 
# 
# From -- ./inp_files/251606.got.cif
#   From: 2010.05.17/outbox.cif.g08.bks.cpg/sg15_126_cif.got.tgz:251606.got - 2010.06.03 18:47:42.
