data_PCOD9257774
_publ_section_title
;
Structure prediction by ZEFSAII (Michael W. Deem and Ramdas Pophale) SiO2 
 PCOD9257774
Probable space group: C 2/C
;
_chemical_formula_sum "Si O2"
_cell_formula_units_Z 52
_cell_length_a 17.954548
_cell_length_b 15.097952
_cell_length_c 22.079672
_cell_angle_alpha 90.000000
_cell_angle_beta 152.049813
_cell_angle_gamma 90.000000
_cell_volume 2805.327458
_symmetry_space_group_name_H-M "C 2/C"
_symmetry_group_IT_number 15
_symmetry_cell_setting 'monoclinic'
loop_
_space_group_symop_operation_xyz
x,y,z
-x,y,1/2-z
-x,-y,-z
x,-y,1/2+z
1/2+x,1/2+y,z
1/2-x,1/2+y,1/2-z
1/2-x,1/2-y,-z
1/2+x,1/2-y,1/2+z
loop_
_atom_site_type_symbol
_atom_site_label
_atom_site_fract_x
_atom_site_fract_y
_atom_site_fract_z
Si Si1 0.733783 0.063451 0.143329
Si Si2 0.000000 0.012533 0.750000
Si Si3 0.392110 0.871278 0.399991
Si Si4 0.845823 0.896262 0.851442
Si Si5 0.213309 0.267257 0.848158
Si Si6 0.580618 0.346564 0.405050
Si Si7 0.872551 0.896327 0.372012
O O1 0.808084 0.112341 0.254481
O O2 0.672988 0.966292 0.122511
O O3 0.573935 0.116240 0.012805
O O4 0.868582 0.044194 0.191052
O O5 0.904878 0.076293 0.634343
O O6 0.347304 0.802635 0.420793
O O7 0.284908 0.848424 0.264371
O O8 0.724695 0.846564 0.808164
O O9 0.836337 0.001022 0.858268
O O10 0.021678 0.863564 0.996416
O O11 0.045228 0.220708 0.715919
O O12 0.267467 0.301380 0.953233
O O13 0.489093 0.388624 0.397424
#
# Coordination Sequence:
#
# PCOD9257774 Si02
#       7
#     8   4   8   8   8   8   8
#     4  10  19  32  54  71  98 138 175 201 243 307
#     4  12  20  36  50  70 110 146 170 196 248 324
#     4   9  17  33  50  78  95 126 172 218 246 280
#     4   9  15  27  51  76  92 126 166 214 248 288
#     4  10  18  32  53  80 106 124 169 221 259 289
#     4  10  20  32  49  74 107 142 163 202 256 306
#     4   8  15  30  48  72  97 125 169 213 242 284
#
# _framework density 18.536161
#
# number of rings (size 3 to 8) (size 9 to 14) (size 15 to 20)
#    0.000    2.462    4.615    0.923    0.000    0.615 
#    0.000    0.000    0.000    1.846    0.000    0.000 
#    0.000    0.000    0.000    0.000    0.000    0.000 
#
# Total GULP energy -144820.627454 kJ/mol
# GULP energy per Si atom -5570.024133 kJ/mol
# Density = 1.849397 g / cm^3
# Si number density = 18.536161 Si / 1000 Ang^3
#
#
#
# Elastic Constant Matrix: (Units=GPa)
#
#
# Indices 1 2 3 4 5 6 
#
# 1 98.4059 23.5679 55.9132 0.0004 -6.1685 -0.0001
# 2 23.5679 32.0578 0.3449 -0.0013 -3.6186 0.0005
# 3 55.9132 0.3449 92.1574 0.0004 -8.2847 0.0007
# 4 0.0004 -0.0013 0.0004 20.7843 0.0001 -4.9637
# 5 -6.1685 -3.6186 -8.2847 0.0001 28.0043 0.0001
# 6 -0.0001 0.0005 0.0007 -4.9637 0.0001 27.0191
#
#
#
# Elastic Compliance Matrix: (Units=1/GPa)
#
#
# Indices 1 2 3 4 5 6 
#
# 1 0.021105 -0.015508 -0.012851 -0.000001 -0.001157 0.000001
# 2 -0.015508 0.043057 0.009699 0.000003 0.005017 -0.000001
# 3 -0.012851 0.009699 0.018974 0.000000 0.004036 -0.000001
# 4 -0.000001 0.000003 0.000000 0.050321 0.000000 0.009245
# 5 -0.001157 0.005017 0.004036 0.000000 0.037296 0.000000
# 6 0.000001 -0.000001 -0.000001 0.009245 0.000000 0.038709
#
#
# Mechanical properties :
#
#
# Convention : Reuss Voigt Hill
#
# Bulk Modulus (GPa) = 21.82639 42.47480 32.15059
# Shear Modulus (GPa) = 19.07991 24.68120 21.88056
#
# Velocity S-wave (km/s) = 3.21181 3.65295 3.43946
# Velocity P-wave (km/s) = 5.05518 6.38407 5.75809
#
# Compressibility (1/GPa) = 0.04581610
#
# Stress axis : x y z
#
# Youngs Moduli (GPa) = 47.38116 23.22509 52.70276
#
# Poissons Ratio (x) = 0.36018 0.67728
# Poissons Ratio (y) = 0.73480 -0.51116
# Poissons Ratio (z) = 0.60889 -0.22526
#
# Static dielectric constant tensor:
#      x y z
#    x 1.630630 0.000000 -0.016780 
#    y 0.000000 1.669690 0.000000 
#    z -0.016780 0.000000 1.714390 
# 
# From -- ./inp_files/206103.got.cif
#   From: 2010.05.17/outbox.cif.g08.bks.cpg/sg15_104_cif.got.tgz:206103.got - 2010.06.03 18:47:42.
