data_PCOD9257989
_publ_section_title
;
Structure prediction by ZEFSAII (Michael W. Deem and Ramdas Pophale) SiO2 
 PCOD9257989
Probable space group: C 2/C
;
_chemical_formula_sum "Si O2"
_cell_formula_units_Z 48
_cell_length_a 17.065247
_cell_length_b 8.041784
_cell_length_c 18.689893
_cell_angle_alpha 90.000000
_cell_angle_beta 93.728019
_cell_angle_gamma 90.000000
_cell_volume 2559.480535
_symmetry_space_group_name_H-M "C 2/C"
_symmetry_group_IT_number 15
_symmetry_cell_setting 'monoclinic'
loop_
_space_group_symop_operation_xyz
x,y,z
-x,y,1/2-z
-x,-y,-z
x,-y,1/2+z
1/2+x,1/2+y,z
1/2-x,1/2+y,1/2-z
1/2-x,1/2-y,-z
1/2+x,1/2-y,1/2+z
loop_
_atom_site_type_symbol
_atom_site_label
_atom_site_fract_x
_atom_site_fract_y
_atom_site_fract_z
Si Si1 0.095805 0.977411 0.678781
Si Si2 0.170161 0.387779 0.788333
Si Si3 0.280334 0.514902 0.060791
Si Si4 0.817616 0.343041 0.330874
Si Si5 0.420512 0.589376 0.666134
Si Si6 0.260062 0.390236 0.398860
O O1 0.112250 0.787821 0.657764
O O2 0.103785 0.982773 0.765283
O O3 0.162668 0.088154 0.645417
O O4 0.010286 0.047427 0.655784
O O5 0.163514 0.497967 0.716900
O O6 0.245210 0.261333 0.790385
O O7 0.096593 0.275756 0.806803
O O8 0.191754 0.515063 0.852702
O O9 0.215095 0.400858 0.094757
O O10 0.362885 0.453017 0.097785
O O11 0.263376 0.701776 0.087060
O O12 0.276308 0.520500 0.975442
#
# Coordination Sequence:
#
# PCOD9257989 Si02
#       6
#     8   8   8   8   8   8
#     4  10  21  36  53  77 108 138 174 217 265 314
#     4  10  18  32  57  81 105 136 178 222 261 311
#     4  10  20  35  55  78 105 139 179 218 259 312
#     4  10  18  32  57  81 105 136 178 222 261 311
#     4  10  21  36  53  77 108 138 174 217 265 314
#     4  10  20  35  55  78 105 139 179 218 259 312
#
# _framework density 18.753803999999999
#
# number of rings (size 3 to 8) (size 9 to 14) (size 15 to 20)
#    0.000    2.000    0.000    7.000    0.000    6.667 
#    0.000   11.667    0.000    4.000    0.000    0.000 
#    0.000    0.000    0.000    0.000    0.000    0.000 
#
# Total GULP energy -133991.279867 kJ/mol
# GULP energy per Si atom -5582.969994 kJ/mol
# Density = 1.871112 g / cm^3
# Si number density = 18.753804 Si / 1000 Ang^3
#
#
#
# Elastic Constant Matrix: (Units=GPa)
#
#
# Indices 1 2 3 4 5 6 
#
# 1 80.3395 28.5067 11.2860 0.0000 -8.8159 0.0000
# 2 28.5067 70.8918 -9.3292 0.0000 -11.7406 0.0000
# 3 11.2860 -9.3292 41.7419 0.0000 -4.6651 0.0000
# 4 0.0000 0.0000 0.0000 28.7479 0.0000 -0.8165
# 5 -8.8159 -11.7406 -4.6651 0.0000 12.3482 0.0000
# 6 0.0000 0.0000 0.0000 -0.8165 0.0000 27.1232
#
#
#
# Elastic Compliance Matrix: (Units=1/GPa)
#
#
# Indices 1 2 3 4 5 6 
#
# 1 0.015884 -0.006604 -0.005435 0.000000 0.003008 0.000000
# 2 -0.006604 0.020931 0.008521 0.000000 0.018405 0.000000
# 3 -0.005435 0.008521 0.029028 0.000000 0.015188 0.000000
# 4 0.000000 0.000000 0.000000 0.034815 0.000000 0.001048
# 5 0.003008 0.018405 0.015188 0.000000 0.106368 0.000000
# 6 0.000000 0.000000 0.000000 0.001048 0.000000 0.036900
#
#
# Mechanical properties :
#
#
# Convention : Reuss Voigt Hill
#
# Bulk Modulus (GPa) = 17.00486 28.21113 22.60800
# Shear Modulus (GPa) = 18.47983 24.47784 21.47884
#
# Velocity S-wave (km/s) = 3.14250 3.61670 3.38791
# Velocity P-wave (km/s) = 4.71743 5.70230 5.23309
#
# Compressibility (1/GPa) = 0.05880672
#
# Stress axis : x y z
#
# Youngs Moduli (GPa) = 62.95625 47.77576 34.44963
#
# Poissons Ratio (x) = 0.31552 0.18722
# Poissons Ratio (y) = 0.41578 -0.29353
# Poissons Ratio (z) = 0.34214 -0.40708
#
# Static dielectric constant tensor:
#      x y z
#    x 1.642530 0.000000 0.002350 
#    y 0.000000 1.681470 0.000000 
#    z 0.002350 0.000000 1.648620 
# 
# From -- ./inp_files/208705.got.cif
#   From: 2010.05.17/outbox.cif.g08.bks.cpg/sg15_105_cif.got.tgz:208705.got - 2010.06.03 18:47:42.
