data_PCOD9257251
_publ_section_title
;
Structure prediction by ZEFSAII (Michael W. Deem and Ramdas Pophale) SiO2 
 PCOD9257251
Probable space group: C 2/C
;
_chemical_formula_sum "Si O2"
_cell_formula_units_Z 64
_cell_length_a 28.952746
_cell_length_b 11.057462
_cell_length_c 9.937311
_cell_angle_alpha 90.000000
_cell_angle_beta 71.587497
_cell_angle_gamma 90.000000
_cell_volume 3018.505889
_symmetry_space_group_name_H-M "C 2/C"
_symmetry_group_IT_number 15
_symmetry_cell_setting 'monoclinic'
loop_
_space_group_symop_operation_xyz
x,y,z
-x,y,1/2-z
-x,-y,-z
x,-y,1/2+z
1/2+x,1/2+y,z
1/2-x,1/2+y,1/2-z
1/2-x,1/2-y,-z
1/2+x,1/2-y,1/2+z
loop_
_atom_site_type_symbol
_atom_site_label
_atom_site_fract_x
_atom_site_fract_y
_atom_site_fract_z
Si Si1 0.377040 0.153757 0.899589
Si Si2 0.531042 0.882884 0.857663
Si Si3 0.114745 0.369845 0.607220
Si Si4 0.308032 0.474743 0.855253
Si Si5 0.784932 0.291657 0.303392
Si Si6 0.170521 0.851328 0.406765
Si Si7 0.442516 0.156773 0.597269
Si Si8 0.720388 0.132847 0.987526
O O1 0.325247 0.157266 0.868185
O O2 0.419471 0.199186 0.758973
O O3 0.389736 0.014654 0.913475
O O4 0.365719 0.239313 0.036197
O O5 0.500000 0.910463 0.750000
O O6 0.578239 0.821092 0.752886
O O7 0.549525 0.011131 0.897837
O O8 0.496302 0.810819 0.992041
O O9 0.096755 0.313997 0.482763
O O10 0.169493 0.359042 0.608164
O O11 0.296449 0.351449 0.785464
O O12 0.328350 0.574814 0.733436
O O13 0.257353 0.523276 0.964793
O O14 0.339710 0.439399 0.955867
O O15 0.726888 0.306902 0.379614
O O16 0.793744 0.359177 0.155516
O O17 0.750000 0.250000 0.000000
#
# Coordination Sequence:
#
# PCOD9257251 Si02
#       8
#     8   8   8   8   8   8   8   8
#     4  10  18  31  49  72 100 141 184 213 268 331
#     4   8  16  29  49  74 104 138 166 209 274 333
#     4  10  18  31  49  75 107 143 176 219 269 325
#     4  10  20  35  49  67 100 142 183 231 270 300
#     4  10  19  33  50  66  98 140 187 224 269 322
#     4  10  20  33  51  70  98 143 187 228 269 324
#     4   9  16  30  49  74 105 141 166 213 267 330
#     4  11  21  32  47  75 104 139 184 227 261 316
#
# _framework density 21.202542999999999
#
# number of rings (size 3 to 8) (size 9 to 14) (size 15 to 20)
#    0.000    2.250    1.250    3.750    0.000    1.000 
#    9.000    0.000    0.000    0.000    0.000    0.000 
#    0.000   13.000    3.000    0.000    0.000    0.000 
#
# Total GULP energy -178372.139895 kJ/mol
# GULP energy per Si atom -5574.129372 kJ/mol
# Density = 2.115429 g / cm^3
# Si number density = 21.202543 Si / 1000 Ang^3
#
#
#
# Elastic Constant Matrix: (Units=GPa)
#
#
# Indices 1 2 3 4 5 6 
#
# 1 55.0324 6.3484 29.7099 0.0000 -10.3788 0.0000
# 2 6.3484 37.5955 9.8696 0.0000 -6.8654 0.0000
# 3 29.7099 9.8696 90.4828 0.0000 -27.3128 0.0000
# 4 0.0000 0.0000 0.0000 28.0420 0.0000 -0.1548
# 5 -10.3788 -6.8654 -27.3128 0.0000 41.6217 0.0000
# 6 0.0000 0.0000 0.0000 -0.1548 0.0000 14.4065
#
#
#
# Elastic Compliance Matrix: (Units=1/GPa)
#
#
# Indices 1 2 3 4 5 6 
#
# 1 0.022233 -0.001815 -0.006882 0.000000 0.000728 0.000000
# 2 -0.001815 0.027875 -0.001488 0.000000 0.003169 0.000000
# 3 -0.006882 -0.001488 0.016064 0.000000 0.008580 0.000000
# 4 0.000000 0.000000 0.000000 0.035663 0.000000 0.000383
# 5 0.000728 0.003169 0.008580 0.000000 0.030360 0.000000
# 6 0.000000 0.000000 0.000000 0.000383 0.000000 0.069417
#
#
# Mechanical properties :
#
#
# Convention : Reuss Voigt Hill
#
# Bulk Modulus (GPa) = 21.83333 30.55184 26.19259
# Shear Modulus (GPa) = 21.07482 25.95956 23.51719
#
# Velocity S-wave (km/s) = 3.15616 3.50288 3.33403
# Velocity P-wave (km/s) = 4.85815 5.54987 5.21549
#
# Compressibility (1/GPa) = 0.04580154
#
# Stress axis : x y z
#
# Youngs Moduli (GPa) = 44.97742 35.87486 62.25167
#
# Poissons Ratio (x) = 0.06510 0.42845
# Poissons Ratio (y) = 0.08161 0.09264
# Poissons Ratio (z) = 0.30956 0.05339
#
# Static dielectric constant tensor:
#      x y z
#    x 1.797670 0.000000 -0.039410 
#    y 0.000000 1.775170 0.000000 
#    z -0.039410 0.000000 1.879040 
# 
# From -- ./inp_files/117991.got.cif
#   From: 2010.05.17/outbox.cif.g08.bks.cpg/sg15_59_cif.got.tgz:117991.got - 2010.06.03 18:47:42.
