data_PCOD9257228
_publ_section_title
;
Structure prediction by ZEFSAII (Michael W. Deem and Ramdas Pophale) SiO2 
 PCOD9257228
Probable space group: C 2/C
;
_chemical_formula_sum "Si O2"
_cell_formula_units_Z 56
_cell_length_a 14.910174
_cell_length_b 23.883780
_cell_length_c 8.714548
_cell_angle_alpha 90.000000
_cell_angle_beta 65.805985
_cell_angle_gamma 90.000000
_cell_volume 2830.760059
_symmetry_space_group_name_H-M "C 2/C"
_symmetry_group_IT_number 15
_symmetry_cell_setting 'monoclinic'
loop_
_space_group_symop_operation_xyz
x,y,z
-x,y,1/2-z
-x,-y,-z
x,-y,1/2+z
1/2+x,1/2+y,z
1/2-x,1/2+y,1/2-z
1/2-x,1/2-y,-z
1/2+x,1/2-y,1/2+z
loop_
_atom_site_type_symbol
_atom_site_label
_atom_site_fract_x
_atom_site_fract_y
_atom_site_fract_z
Si Si1 0.235934 0.019669 0.286175
Si Si2 0.796135 0.240620 0.255753
Si Si3 0.846431 0.845273 0.144883
Si Si4 0.118732 0.309555 0.033087
Si Si5 0.982837 0.234124 0.943529
Si Si6 0.797060 0.418992 0.448437
Si Si7 0.883598 0.061774 0.848188
O O1 0.167026 0.052741 0.453137
O O2 0.301146 0.974011 0.335685
O O3 0.164126 0.984450 0.227947
O O4 0.291630 0.058982 0.126440
O O5 0.727874 0.294358 0.275621
O O6 0.862202 0.260924 0.353965
O O7 0.718501 0.193603 0.360362
O O8 0.870086 0.227308 0.068554
O O9 0.952210 0.817840 0.039356
O O10 0.800343 0.885984 0.047513
O O11 0.854745 0.879549 0.294836
O O12 0.027936 0.289517 0.994273
O O13 0.120340 0.370209 0.111233
O O14 0.000000 0.237526 0.750000
O O15 0.000000 0.056397 0.750000
#
# Coordination Sequence:
#
# PCOD9257228 Si02
#       7
#     8   8   8   8   8   8   8
#     4   9  19  32  50  73 101 136 173 218 264 309
#     4   9  19  37  54  76 108 141 180 219 255 313
#     4   9  20  35  52  77 108 142 177 212 260 312
#     4   9  19  35  56  78 104 142 181 213 261 318
#     4  11  22  34  52  82 113 141 175 219 262 310
#     4   9  18  35  54  77 102 133 175 216 261 315
#     4  10  18  31  47  71 104 137 174 215 260 311
#
# _framework density 19.782672999999999
#
# number of rings (size 3 to 8) (size 9 to 14) (size 15 to 20)
#    0.000    2.571    0.000    2.143    0.000    5.714 
#    0.000    8.571    0.000    0.000    0.000   47.000 
#    0.000    0.000    0.000    0.000    0.000    0.000 
#
# Total GULP energy -156081.331929 kJ/mol
# GULP energy per Si atom -5574.333283 kJ/mol
# Density = 1.973765 g / cm^3
# Si number density = 19.782673 Si / 1000 Ang^3
#
#
#
# Elastic Constant Matrix: (Units=GPa)
#
#
# Indices 1 2 3 4 5 6 
#
# 1 18.8160 6.5780 13.6972 0.0000 -2.9704 0.0000
# 2 6.5780 70.4358 8.5815 0.0000 3.6022 0.0000
# 3 13.6972 8.5815 90.7156 0.0000 -4.6600 0.0000
# 4 0.0000 0.0000 0.0000 10.6765 0.0000 3.3221
# 5 -2.9704 3.6022 -4.6600 0.0000 22.8066 0.0000
# 6 0.0000 0.0000 0.0000 3.3221 0.0000 10.9104
#
#
#
# Elastic Compliance Matrix: (Units=1/GPa)
#
#
# Indices 1 2 3 4 5 6 
#
# 1 0.062303 -0.005144 -0.008552 0.000000 0.007180 0.000000
# 2 -0.005144 0.014939 -0.000801 0.000000 -0.003193 0.000000
# 3 -0.008552 -0.000801 0.012471 0.000000 0.001561 0.000000
# 4 0.000000 0.000000 0.000000 0.103467 0.000000 -0.031505
# 5 0.007180 -0.003193 0.001561 0.000000 0.045605 0.000000
# 6 0.000000 0.000000 0.000000 -0.031505 0.000000 0.101248
#
#
# Mechanical properties :
#
#
# Convention : Reuss Voigt Hill
#
# Bulk Modulus (GPa) = 16.46899 26.40898 21.43898
# Shear Modulus (GPa) = 12.84473 18.95276 15.89874
#
# Velocity S-wave (km/s) = 2.55089 3.09859 2.83798
# Velocity P-wave (km/s) = 4.12541 5.11666 4.64754
#
# Compressibility (1/GPa) = 0.06072019
#
# Stress axis : x y z
#
# Youngs Moduli (GPa) = 16.05055 66.94106 80.18858
#
# Poissons Ratio (x) = 0.34433 0.68576
# Poissons Ratio (y) = 0.08256 0.06419
# Poissons Ratio (z) = 0.13726 0.05359
#
# Static dielectric constant tensor:
#      x y z
#    x 1.713290 0.000000 0.019440 
#    y 0.000000 1.737700 0.000000 
#    z 0.019440 0.000000 1.728740 
# 
# From -- ./inp_files/42548.got.cif
#   From: 2010.05.17/outbox.cif.g08.bks.cpg/sg15_22_cif.got.tgz:42548.got - 2010.06.03 18:47:42.
