data_PCOD9257214
_publ_section_title
;
Structure prediction by ZEFSAII (Michael W. Deem and Ramdas Pophale) SiO2 
 PCOD9257214
Probable space group: C 2/C
;
_chemical_formula_sum "Si O2"
_cell_formula_units_Z 64
_cell_length_a 13.477367
_cell_length_b 26.361658
_cell_length_c 11.645871
_cell_angle_alpha 90.000000
_cell_angle_beta 64.343856
_cell_angle_gamma 90.000000
_cell_volume 3729.679330
_symmetry_space_group_name_H-M "C 2/C"
_symmetry_group_IT_number 15
_symmetry_cell_setting 'monoclinic'
loop_
_space_group_symop_operation_xyz
x,y,z
-x,y,1/2-z
-x,-y,-z
x,-y,1/2+z
1/2+x,1/2+y,z
1/2-x,1/2+y,1/2-z
1/2-x,1/2-y,-z
1/2+x,1/2-y,1/2+z
loop_
_atom_site_type_symbol
_atom_site_label
_atom_site_fract_x
_atom_site_fract_y
_atom_site_fract_z
Si Si1 0.867835 0.608823 0.075538
Si Si2 0.134152 0.436257 0.682518
Si Si3 0.652933 0.790139 0.036969
Si Si4 0.573574 0.277814 0.389807
Si Si5 0.866725 0.743553 0.383802
Si Si6 0.885122 0.640459 0.494406
Si Si7 0.130369 0.552675 0.655030
Si Si8 0.721229 0.846627 0.213074
O O1 0.829247 0.590786 0.218892
O O2 0.998213 0.620998 0.016785
O O3 0.815768 0.660760 0.054601
O O4 0.854227 0.565726 0.986625
O O5 0.168231 0.404282 0.554101
O O6 0.164055 0.495230 0.664224
O O7 0.000000 0.434446 0.750000
O O8 0.640101 0.813590 0.170601
O O9 0.750000 0.750000 0.000000
O O10 0.565509 0.758112 0.006221
O O11 0.451890 0.283647 0.398338
O O12 0.633438 0.249126 0.253091
O O13 0.655019 0.325379 0.369921
O O14 0.750000 0.750000 0.500000
O O15 0.906746 0.687640 0.399541
O O16 0.812044 0.657972 0.637945
O O17 0.198508 0.595358 0.688962
O O18 0.000000 0.558353 0.750000
#
# Coordination Sequence:
#
# PCOD9257214 Si02
#       8
#     8   8   8   8   8   8   8   8
#     4  10  18  31  46  66 100 143 173 215 271 318
#     4   9  21  29  46  70 101 143 173 220 276 318
#     4   9  18  31  48  69  98 140 174 206 254 311
#     4  10  20  35  51  72 108 134 179 214 257 318
#     4  11  21  33  53  77 105 139 170 215 265 316
#     4  11  19  31  47  71 100 136 177 207 262 324
#     4  10  19  30  47  71 101 135 180 223 265 325
#     4  10  20  32  50  72  99 140 176 216 258 310
#
# _framework density 17.159652000000001
#
# number of rings (size 3 to 8) (size 9 to 14) (size 15 to 20)
#    0.000    2.000    3.750    0.750    5.250    1.500 
#    0.000    0.000    0.000    0.000    0.000    0.875 
#    0.000    0.000    0.000    0.000    0.000    0.375 
#
# Total GULP energy -178233.101785 kJ/mol
# GULP energy per Si atom -5569.784431 kJ/mol
# Density = 1.712060 g / cm^3
# Si number density = 17.159652 Si / 1000 Ang^3
#
#
#
# Elastic Constant Matrix: (Units=GPa)
#
#
# Indices 1 2 3 4 5 6 
#
# 1 46.6420 24.0285 19.5187 0.0000 1.4973 0.0000
# 2 24.0285 100.7976 36.5988 0.0000 11.2133 0.0000
# 3 19.5187 36.5988 85.5871 0.0000 14.4590 0.0000
# 4 0.0000 0.0000 0.0000 19.5336 0.0000 2.1535
# 5 1.4973 11.2133 14.4590 0.0000 24.9892 0.0000
# 6 0.0000 0.0000 0.0000 2.1535 0.0000 21.6311
#
#
#
# Elastic Compliance Matrix: (Units=1/GPa)
#
#
# Indices 1 2 3 4 5 6 
#
# 1 0.025662 -0.004912 -0.004283 0.000000 0.003145 0.000000
# 2 -0.004912 0.012841 -0.003821 0.000000 -0.003257 0.000000
# 3 -0.004283 -0.003821 0.015474 0.000000 -0.006982 0.000000
# 4 0.000000 0.000000 0.000000 0.051762 0.000000 -0.005153
# 5 0.003145 -0.003257 -0.006982 0.000000 0.045331 0.000000
# 6 0.000000 0.000000 0.000000 -0.005153 0.000000 0.046743
#
#
# Mechanical properties :
#
#
# Convention : Reuss Voigt Hill
#
# Bulk Modulus (GPa) = 35.78373 43.70207 39.74290
# Shear Modulus (GPa) = 21.44452 23.42284 22.43368
#
# Velocity S-wave (km/s) = 3.53895 3.69859 3.61965
# Velocity P-wave (km/s) = 6.13169 6.61533 6.37810
#
# Compressibility (1/GPa) = 0.02794566
#
# Stress axis : x y z
#
# Youngs Moduli (GPa) = 38.96829 77.87277 64.62344
#
# Poissons Ratio (x) = 0.38251 0.27679
# Poissons Ratio (y) = 0.19141 0.24691
# Poissons Ratio (z) = 0.16691 0.29753
#
# Static dielectric constant tensor:
#      x y z
#    x 1.614930 0.000000 0.032750 
#    y 0.000000 1.594420 0.000000 
#    z 0.032750 0.000000 1.606080 
# 
# From -- ./inp_files/100471.got.cif
#   From: 2010.05.17/outbox.cif.g08.bks.cpg/sg15_51_cif.got.tgz:100471.got - 2010.06.03 18:47:42.
