data_PCOD9257808
_publ_section_title
;
Structure prediction by ZEFSAII (Michael W. Deem and Ramdas Pophale) SiO2 
 PCOD9257808
Probable space group: C 2/C
;
_chemical_formula_sum "Si O2"
_cell_formula_units_Z 40
_cell_length_a 18.213321
_cell_length_b 8.632942
_cell_length_c 10.528414
_cell_angle_alpha 90.000000
_cell_angle_beta 88.197608
_cell_angle_gamma 90.000000
_cell_volume 1654.611345
_symmetry_space_group_name_H-M "C 2/C"
_symmetry_group_IT_number 15
_symmetry_cell_setting 'monoclinic'
loop_
_space_group_symop_operation_xyz
x,y,z
-x,y,1/2-z
-x,-y,-z
x,-y,1/2+z
1/2+x,1/2+y,z
1/2-x,1/2+y,1/2-z
1/2-x,1/2-y,-z
1/2+x,1/2-y,1/2+z
loop_
_atom_site_type_symbol
_atom_site_label
_atom_site_fract_x
_atom_site_fract_y
_atom_site_fract_z
Si Si1 0.506529 0.685455 0.968084
Si Si2 0.727032 0.121166 0.766148
Si Si3 0.263074 0.566881 0.498349
Si Si4 0.394147 0.682044 0.768414
Si Si5 0.104368 0.154519 0.168094
O O1 0.432040 0.731867 0.898575
O O2 0.566161 0.743227 0.859732
O O3 0.500000 0.500000 0.000000
O O4 0.537615 0.741000 0.102365
O O5 0.742256 0.016333 0.640152
O O6 0.807154 0.201775 0.773717
O O7 0.659172 0.232288 0.739138
O O8 0.718491 0.023950 0.894278
O O9 0.250000 0.750000 0.500000
O O10 0.346988 0.569366 0.446466
O O11 0.413519 0.497635 0.751286
#
# Coordination Sequence:
#
# PCOD9257808 Si02
#       5
#     8   8   8   8   8
#     4   9  16  28  48  71 111 141 179 233 283 327
#     4  10  18  32  54  77 118 144 189 229 282 340
#     4   9  18  32  50  76 111 146 179 231 275 330
#     4   9  17  28  47  77 110 141 177 234 284 330
#     4   9  17  30  49  75 107 147 179 231 283 332
#
# _framework density 24.174862999999998
#
# number of rings (size 3 to 8) (size 9 to 14) (size 15 to 20)
#    0.000    2.800    2.000    0.000    0.000    0.000 
#    0.000    9.000    0.000    0.000    0.000   12.600 
#   60.000   49.800    0.000    0.000    0.000    0.000 
#
# Total GULP energy -111424.985242 kJ/mol
# GULP energy per Si atom -5571.249262 kJ/mol
# Density = 2.411984 g / cm^3
# Si number density = 24.174863 Si / 1000 Ang^3
#
#
#
# Elastic Constant Matrix: (Units=GPa)
#
#
# Indices 1 2 3 4 5 6 
#
# 1 88.6456 37.7468 50.4625 0.0000 43.6931 0.0000
# 2 37.7468 33.0393 31.6753 0.0000 13.3025 0.0000
# 3 50.4625 31.6753 125.2395 0.0000 49.4100 0.0000
# 4 0.0000 0.0000 0.0000 33.4152 0.0000 11.4934
# 5 43.6931 13.3025 49.4100 0.0000 56.7288 0.0000
# 6 0.0000 0.0000 0.0000 11.4934 0.0000 22.7671
#
#
#
# Elastic Compliance Matrix: (Units=1/GPa)
#
#
# Indices 1 2 3 4 5 6 
#
# 1 0.034269 -0.033527 0.003021 0.000000 -0.021164 0.000000
# 2 -0.033527 0.072784 -0.012727 0.000000 0.019841 0.000000
# 3 0.003021 -0.012727 0.014819 0.000000 -0.012250 0.000000
# 4 0.000000 0.000000 0.000000 0.036215 0.000000 -0.018282
# 5 -0.021164 0.019841 -0.012250 0.000000 0.039946 0.000000
# 6 0.000000 0.000000 0.000000 -0.018282 0.000000 0.053152
#
#
# Mechanical properties :
#
#
# Convention : Reuss Voigt Hill
#
# Bulk Modulus (GPa) = 28.24309 54.07706 41.16007
# Shear Modulus (GPa) = 14.30806 31.05153 22.67980
#
# Velocity S-wave (km/s) = 2.43545 3.58782 3.06626
# Velocity P-wave (km/s) = 4.42908 6.29134 5.44048
#
# Compressibility (1/GPa) = 0.03540689
#
# Stress axis : x y z
#
# Youngs Moduli (GPa) = 29.18082 13.73919 67.48055
#
# Poissons Ratio (x) = 0.46064 -0.20389
# Poissons Ratio (y) = 0.97835 0.85883
# Poissons Ratio (z) = -0.08817 0.17486
#
# Static dielectric constant tensor:
#      x y z
#    x 2.027610 0.000000 -0.013250 
#    y 0.000000 1.973670 0.000000 
#    z -0.013250 0.000000 2.076670 
# 
# From -- ./inp_files/103244.got.cif
#   From: 2010.05.17/outbox.cif.g08.bks.cpg/sg15_52_cif.got.tgz:103244.got - 2010.06.03 18:47:42.
