data_PCOD9257545
_publ_section_title
;
Structure prediction by ZEFSAII (Michael W. Deem and Ramdas Pophale) SiO2 
 PCOD9257545
Probable space group: C 2/C
;
_chemical_formula_sum "Si O2"
_cell_formula_units_Z 52
_cell_length_a 19.242815
_cell_length_b 8.968282
_cell_length_c 22.224796
_cell_angle_alpha 90.000000
_cell_angle_beta 131.259138
_cell_angle_gamma 90.000000
_cell_volume 2883.236099
_symmetry_space_group_name_H-M "C 2/C"
_symmetry_group_IT_number 15
_symmetry_cell_setting 'monoclinic'
loop_
_space_group_symop_operation_xyz
x,y,z
-x,y,1/2-z
-x,-y,-z
x,-y,1/2+z
1/2+x,1/2+y,z
1/2-x,1/2+y,1/2-z
1/2-x,1/2-y,-z
1/2+x,1/2-y,1/2+z
loop_
_atom_site_type_symbol
_atom_site_label
_atom_site_fract_x
_atom_site_fract_y
_atom_site_fract_z
Si Si1 0.463098 0.174997 0.838699
Si Si2 0.660748 0.451043 0.753698
Si Si3 0.339089 0.224069 0.205987
Si Si4 0.131803 0.416505 0.648515
Si Si5 0.354383 0.443224 0.897112
Si Si6 0.000000 0.460565 0.750000
Si Si7 0.451185 0.277481 0.497453
O O1 0.410272 0.315141 0.779073
O O2 0.391737 0.082404 0.840983
O O3 0.497904 0.064915 0.807309
O O4 0.542104 0.225940 0.929862
O O5 0.650701 0.597943 0.788272
O O6 0.766495 0.402647 0.820770
O O7 0.652409 0.486466 0.677378
O O8 0.369523 0.178840 0.291143
O O9 0.236382 0.154117 0.139552
O O10 0.409663 0.142793 0.201854
O O11 0.064544 0.353179 0.559541
O O12 0.373001 0.596374 0.943124
O O13 0.448446 0.349766 0.958534
#
# Coordination Sequence:
#
# PCOD9257545 Si02
#       7
#     8   8   8   8   8   4   8
#     4  10  22  35  54  83 116 146 190 224 280 336
#     4  10  18  33  58  87 107 144 184 236 284 331
#     4  10  20  36  57  76 113 151 189 226 271 331
#     4  10  18  31  58  89 114 138 176 232 291 334
#     4   9  19  32  56  93 116 138 178 236 291 336
#     4  10  24  40  54  74 108 160 200 230 254 338
#     4  10  18  32  57  90 119 142 170 238 301 331
#
# _framework density 18.035288999999999
#
# number of rings (size 3 to 8) (size 9 to 14) (size 15 to 20)
#    0.000    2.154    1.538    3.231    4.308    0.615 
#    0.000    0.769    0.000    4.615    0.000    0.000 
#    0.000    0.000    0.000    0.000    0.000    0.000 
#
# Total GULP energy -144903.941833 kJ/mol
# GULP energy per Si atom -5573.228532 kJ/mol
# Density = 1.799424 g / cm^3
# Si number density = 18.035289 Si / 1000 Ang^3
#
#
#
# Elastic Constant Matrix: (Units=GPa)
#
#
# Indices 1 2 3 4 5 6 
#
# 1 71.8517 44.8851 31.8848 0.0000 7.9422 0.0000
# 2 44.8851 112.8011 44.0617 0.0000 7.0277 0.0000
# 3 31.8848 44.0617 87.7089 0.0000 13.1440 0.0000
# 4 0.0000 0.0000 0.0000 35.8286 0.0000 -4.5694
# 5 7.9422 7.0277 13.1440 0.0000 14.0923 0.0000
# 6 0.0000 0.0000 0.0000 -4.5694 0.0000 13.3076
#
#
#
# Elastic Compliance Matrix: (Units=1/GPa)
#
#
# Indices 1 2 3 4 5 6 
#
# 1 0.019876 -0.006305 -0.003314 0.000000 -0.004967 0.000000
# 2 -0.006305 0.013031 -0.004433 0.000000 0.001189 0.000000
# 3 -0.003314 -0.004433 0.016532 0.000000 -0.011342 0.000000
# 4 0.000000 0.000000 0.000000 0.029189 0.000000 0.010023
# 5 -0.004967 0.001189 -0.011342 0.000000 0.083745 0.000000
# 6 0.000000 0.000000 0.000000 0.010023 0.000000 0.078587
#
#
# Mechanical properties :
#
#
# Convention : Reuss Voigt Hill
#
# Bulk Modulus (GPa) = 46.86727 57.11387 51.99057
# Shear Modulus (GPa) = 18.10444 22.74771 20.42607
#
# Velocity S-wave (km/s) = 3.17177 3.55532 3.36901
# Velocity P-wave (km/s) = 6.28143 6.97067 6.63501
#
# Compressibility (1/GPa) = 0.02133685
#
# Stress axis : x y z
#
# Youngs Moduli (GPa) = 50.31271 76.73803 60.48705
#
# Poissons Ratio (x) = 0.48383 0.20044
# Poissons Ratio (y) = 0.31722 0.26812
# Poissons Ratio (z) = 0.16672 0.34015
#
# Static dielectric constant tensor:
#      x y z
#    x 1.596840 0.000000 0.011080 
#    y 0.000000 1.686540 0.000000 
#    z 0.011080 0.000000 1.636710 
# 
# From -- ./inp_files/209194.got.cif
#   From: 2010.05.17/outbox.cif.g08.bks.cpg/sg15_105_cif.got.tgz:209194.got - 2010.06.03 18:47:42.
