data_PCOD9257807
_publ_section_title
;
Structure prediction by ZEFSAII (Michael W. Deem and Ramdas Pophale) SiO2 
 PCOD9257807
Probable space group: C 2/C
;
_chemical_formula_sum "Si O2"
_cell_formula_units_Z 44
_cell_length_a 14.497796
_cell_length_b 22.562691
_cell_length_c 7.435548
_cell_angle_alpha 90.000000
_cell_angle_beta 73.131519
_cell_angle_gamma 90.000000
_cell_volume 2327.585852
_symmetry_space_group_name_H-M "C 2/C"
_symmetry_group_IT_number 15
_symmetry_cell_setting 'monoclinic'
loop_
_space_group_symop_operation_xyz
x,y,z
-x,y,1/2-z
-x,-y,-z
x,-y,1/2+z
1/2+x,1/2+y,z
1/2-x,1/2+y,1/2-z
1/2-x,1/2-y,-z
1/2+x,1/2-y,1/2+z
loop_
_atom_site_type_symbol
_atom_site_label
_atom_site_fract_x
_atom_site_fract_y
_atom_site_fract_z
Si Si1 0.805794 0.312376 0.944397
Si Si2 0.602805 0.060249 0.426889
Si Si3 0.716568 0.164877 0.461472
Si Si4 0.500000 0.246300 0.250000
Si Si5 0.382063 0.074276 0.511194
Si Si6 0.088635 0.780709 0.562876
O O1 0.774888 0.329220 0.760296
O O2 0.917828 0.294512 0.880059
O O3 0.809058 0.369580 0.075975
O O4 0.750000 0.250000 0.000000
O O5 0.666345 0.102358 0.515441
O O6 0.490675 0.075730 0.531459
O O7 0.608861 0.073857 0.211385
O O8 0.641366 0.993537 0.426966
O O9 0.823417 0.173699 0.472962
O O10 0.643800 0.217554 0.562157
O O11 0.547227 0.281803 0.385282
O O12 0.000000 0.787948 0.750000
#
# Coordination Sequence:
#
# PCOD9257807 Si02
#       6
#     8   8   8   4   8   8
#     4  10  18  32  54  77 105 142 176 216 268 317
#     4   9  17  33  48  73 107 138 166 213 264 318
#     4   9  19  33  49  76 112 135 176 222 259 314
#     4  10  20  34  50  76 112 134 172 226 258 312
#     4   9  17  31  50  73 105 139 169 207 267 322
#     4  10  19  34  52  76 107 144 175 216 270 317
#
# _framework density 18.903706
#
# number of rings (size 3 to 8) (size 9 to 14) (size 15 to 20)
#    0.000    2.545    0.000    4.364    0.000    0.000 
#   19.636    0.000    0.000    0.000    2.364    3.818 
#    0.000    0.000    0.000    0.000    0.000    0.000 
#
# Total GULP energy -122489.439892 kJ/mol
# GULP energy per Si atom -5567.701813 kJ/mol
# Density = 1.886068 g / cm^3
# Si number density = 18.903706 Si / 1000 Ang^3
#
#
#
# Elastic Constant Matrix: (Units=GPa)
#
#
# Indices 1 2 3 4 5 6 
#
# 1 126.3690 57.8952 21.5517 0.0000 5.0271 0.0000
# 2 57.8952 128.3597 12.6363 0.0000 -7.2501 0.0000
# 3 21.5517 12.6363 25.8915 0.0000 -2.8557 0.0000
# 4 0.0000 0.0000 0.0000 7.9922 0.0000 -4.4074
# 5 5.0271 -7.2501 -2.8557 0.0000 26.2031 0.0000
# 6 0.0000 0.0000 0.0000 -4.4074 0.0000 26.4381
#
#
#
# Elastic Compliance Matrix: (Units=1/GPa)
#
#
# Indices 1 2 3 4 5 6 
#
# 1 0.011573 -0.004697 -0.007824 0.000000 -0.004373 0.000000
# 2 -0.004697 0.010180 -0.000656 0.000000 0.003646 0.000000
# 3 -0.007824 -0.000656 0.046156 0.000000 0.006350 0.000000
# 4 0.000000 0.000000 0.000000 0.137790 0.000000 0.022971
# 5 -0.004373 0.003646 0.006350 0.000000 0.040703 0.000000
# 6 0.000000 0.000000 0.000000 0.022971 0.000000 0.041654
#
#
# Mechanical properties :
#
#
# Convention : Reuss Voigt Hill
#
# Bulk Modulus (GPa) = 24.06448 51.64297 37.85372
# Shear Modulus (GPa) = 15.23182 24.69581 19.96381
#
# Velocity S-wave (km/s) = 2.84167 3.61834 3.25326
# Velocity P-wave (km/s) = 4.85020 6.69588 5.84633
#
# Compressibility (1/GPa) = 0.04155503
#
# Stress axis : x y z
#
# Youngs Moduli (GPa) = 86.40517 98.23537 21.66587
#
# Poissons Ratio (x) = 0.46140 0.16950
# Poissons Ratio (y) = 0.40583 0.01422
# Poissons Ratio (z) = 0.67599 0.06448
#
# Static dielectric constant tensor:
#      x y z
#    x 1.663300 0.000000 0.013700 
#    y 0.000000 1.752520 0.000000 
#    z 0.013700 0.000000 1.718840 
# 
# From -- ./inp_files/30969.got.cif
#   From: 2010.05.17/outbox.cif.g08.bks.cpg/sg15_16_cif.got.tgz:30969.got - 2010.06.03 18:47:42.
