data_PCOD9257089
_publ_section_title
;
Structure prediction by ZEFSAII (Michael W. Deem and Ramdas Pophale) SiO2 
 PCOD9257089
Probable space group: C 2/C
;
_chemical_formula_sum "Si O2"
_cell_formula_units_Z 48
_cell_length_a 12.229981
_cell_length_b 17.610975
_cell_length_c 17.664423
_cell_angle_alpha 90.000000
_cell_angle_beta 35.696871
_cell_angle_gamma 90.000000
_cell_volume 2219.970295
_symmetry_space_group_name_H-M "C 2/C"
_symmetry_group_IT_number 15
_symmetry_cell_setting 'monoclinic'
loop_
_space_group_symop_operation_xyz
x,y,z
-x,y,1/2-z
-x,-y,-z
x,-y,1/2+z
1/2+x,1/2+y,z
1/2-x,1/2+y,1/2-z
1/2-x,1/2-y,-z
1/2+x,1/2-y,1/2+z
loop_
_atom_site_type_symbol
_atom_site_label
_atom_site_fract_x
_atom_site_fract_y
_atom_site_fract_z
Si Si1 0.000000 0.702036 0.750000
Si Si2 0.557028 0.892934 0.365830
Si Si3 0.500000 0.443253 0.750000
Si Si4 0.310224 0.819201 0.620532
Si Si5 0.543936 0.145961 0.308909
Si Si6 0.713622 0.982349 0.513605
Si Si7 0.785052 0.995744 0.141853
O O1 0.018365 0.654870 0.662974
O O2 0.810803 0.751371 0.846678
O O3 0.500709 0.841111 0.468573
O O4 0.745793 0.929797 0.225187
O O5 0.439149 0.969635 0.446293
O O6 0.660913 0.388998 0.695277
O O7 0.592687 0.495775 0.633917
O O8 0.368677 0.803577 0.674159
O O9 0.500000 0.177435 0.250000
O O10 0.353340 0.104046 0.444104
O O11 0.691570 0.075661 0.217916
O O12 0.697973 0.015806 0.607184
O O13 0.000000 0.000000 0.000000
#
# Coordination Sequence:
#
# PCOD9257089 Si02
#       7
#     4   8   4   8   8   8   8
#     4  11  20  38  58  84 116 150 189 242 284 329
#     4  10  19  35  54  80 116 144 183 241 286 338
#     4   9  18  28  48  82 116 136 181 238 280 347
#     4  10  21  33  53  84 112 150 193 228 284 338
#     4   9  19  35  52  75 111 152 186 225 283 343
#     4   9  17  31  51  77 114 149 174 231 288 337
#     4  10  18  30  53  81 114 148 182 230 296 345
#
# _framework density 21.621911000000001
#
# number of rings (size 3 to 8) (size 9 to 14) (size 15 to 20)
#    0.000    2.333    1.667    2.500    0.000    7.333 
#    3.000    0.000    0.000    1.000    0.000    0.000 
#    0.000    0.000    0.000    0.000    0.000    0.000 
#
# Total GULP energy -133605.694112 kJ/mol
# GULP energy per Si atom -5566.903921 kJ/mol
# Density = 2.157270 g / cm^3
# Si number density = 21.621911 Si / 1000 Ang^3
#
#
#
# Elastic Constant Matrix: (Units=GPa)
#
#
# Indices 1 2 3 4 5 6 
#
# 1 95.7154 14.3321 29.4330 0.0034 16.0649 -0.0015
# 2 14.3321 14.7934 13.8843 0.0067 -2.1774 -0.0026
# 3 29.4330 13.8843 116.2463 0.0064 -0.6727 -0.0031
# 4 0.0034 0.0067 0.0064 11.5277 -0.0050 3.3934
# 5 16.0649 -2.1774 -0.6727 -0.0050 33.3188 0.0025
# 6 -0.0015 -0.0026 -0.0031 3.3934 0.0025 9.9324
#
#
#
# Elastic Compliance Matrix: (Units=1/GPa)
#
#
# Indices 1 2 3 4 5 6 
#
# 1 0.014373 -0.013086 -0.002122 0.000001 -0.007828 0.000000
# 2 -0.013086 0.088819 -0.007226 -0.000048 0.011968 0.000033
# 3 -0.002122 -0.007226 0.010007 -0.000001 0.000753 0.000001
# 4 0.000001 -0.000048 -0.000001 0.096448 0.000013 -0.032951
# 5 -0.007828 0.011968 0.000753 0.000013 0.034585 -0.000011
# 6 0.000000 0.000033 0.000001 -0.032951 -0.000011 0.111938
#
#
# Mechanical properties :
#
#
# Convention : Reuss Voigt Hill
#
# Bulk Modulus (GPa) = 14.63432 38.00600 26.32016
# Shear Modulus (GPa) = 11.79759 22.22948 17.01353
#
# Velocity S-wave (km/s) = 2.33841 3.20988 2.80816
# Velocity P-wave (km/s) = 3.75151 5.59942 4.76588
#
# Compressibility (1/GPa) = 0.06833250
#
# Stress axis : x y z
#
# Youngs Moduli (GPa) = 69.57274 11.25879 99.93012
#
# Poissons Ratio (x) = 0.14734 0.21201
# Poissons Ratio (y) = 0.91045 0.72208
# Poissons Ratio (z) = 0.14760 0.08135
#
# Static dielectric constant tensor:
#      x y z
#    x 1.887440 0.000000 0.003040 
#    y 0.000000 1.793410 0.000000 
#    z 0.003040 0.000000 1.835360 
# 
# From -- ./inp_files/147406.got.cif
#   From: 2010.05.17/outbox.cif.g08.bks.cpg/sg15_74_cif.got.tgz:147406.got - 2010.06.03 18:47:42.
