data_PCOD9257308
_publ_section_title
;
Structure prediction by ZEFSAII (Michael W. Deem and Ramdas Pophale) SiO2 
 PCOD9257308
Probable space group: C 2/C
;
_chemical_formula_sum "Si O2"
_cell_formula_units_Z 64
_cell_length_a 22.270704
_cell_length_b 19.301761
_cell_length_c 17.300753
_cell_angle_alpha 90.000000
_cell_angle_beta 31.696394
_cell_angle_gamma 90.000000
_cell_volume 3907.517371
_symmetry_space_group_name_H-M "C 2/C"
_symmetry_group_IT_number 15
_symmetry_cell_setting 'monoclinic'
loop_
_space_group_symop_operation_xyz
x,y,z
-x,y,1/2-z
-x,-y,-z
x,-y,1/2+z
1/2+x,1/2+y,z
1/2-x,1/2+y,1/2-z
1/2-x,1/2-y,-z
1/2+x,1/2-y,1/2+z
loop_
_atom_site_type_symbol
_atom_site_label
_atom_site_fract_x
_atom_site_fract_y
_atom_site_fract_z
Si Si1 0.569279 0.028412 0.253392
Si Si2 0.769520 0.401313 0.414264
Si Si3 0.968444 0.163353 0.370254
Si Si4 0.163305 0.371317 0.323150
Si Si5 0.677073 0.245296 0.361927
Si Si6 0.219988 0.870346 0.638105
Si Si7 0.589071 0.865238 0.847798
Si Si8 0.148248 0.481288 0.908499
O O1 0.500000 0.031893 0.250000
O O2 0.606211 0.103583 0.244349
O O3 0.473356 0.998221 0.417909
O O4 0.678431 0.977733 0.130102
O O5 0.639525 0.388863 0.525617
O O6 0.845705 0.372481 0.260440
O O7 0.772811 0.364176 0.493830
O O8 0.927236 0.223511 0.473266
O O9 0.000000 0.190714 0.250000
O O10 0.083248 0.128469 0.277217
O O11 0.253184 0.312020 0.240542
O O12 0.194972 0.447283 0.321088
O O13 0.044287 0.353368 0.492161
O O14 0.744059 0.194118 0.347404
O O15 0.648735 0.201567 0.317088
O O16 0.270374 0.940169 0.621413
O O17 0.626017 0.928083 0.863668
#
# Coordination Sequence:
#
# PCOD9257308 Si02
#       8
#     8   8   8   8   8   8   8   8
#     4  11  18  31  53  82  96 126 171 213 266 292
#     4  10  18  31  51  74 105 131 162 208 255 302
#     4   9  20  34  47  73 110 144 165 195 250 307
#     4  10  18  32  51  72 103 135 167 207 260 296
#     4  10  21  32  50  72 103 146 168 202 251 303
#     4  10  20  33  48  76 104 133 176 202 247 314
#     4  10  19  32  51  75 104 129 168 224 249 292
#     4  10  18  31  53  77  99 131 167 221 253 290
#
# _framework density 16.378685000000001
#
# number of rings (size 3 to 8) (size 9 to 14) (size 15 to 20)
#    0.000    2.000    3.750    1.500    0.000    5.500 
#    0.000    2.500    2.750    3.000    0.000    0.000 
#    0.000    0.000    0.000    0.000    0.000    0.000 
#
# Total GULP energy -178150.612857 kJ/mol
# GULP energy per Si atom -5567.206652 kJ/mol
# Density = 1.634141 g / cm^3
# Si number density = 16.378685 Si / 1000 Ang^3
#
#
#
# Elastic Constant Matrix: (Units=GPa)
#
#
# Indices 1 2 3 4 5 6 
#
# 1 51.9963 21.0276 -1.6759 -0.0002 -6.6947 0.0001
# 2 21.0276 88.7132 20.2024 -0.0001 -2.9387 0.0000
# 3 -1.6759 20.2024 33.8101 -0.0002 -3.9113 0.0001
# 4 -0.0002 -0.0001 -0.0002 22.3394 0.0001 -3.4908
# 5 -6.6947 -2.9387 -3.9113 0.0001 14.5500 -0.0001
# 6 0.0001 0.0000 0.0001 -3.4908 -0.0001 22.6686
#
#
#
# Elastic Compliance Matrix: (Units=1/GPa)
#
#
# Indices 1 2 3 4 5 6 
#
# 1 0.023595 -0.006694 0.006470 0.000000 0.011244 0.000000
# 2 -0.006694 0.014951 -0.009570 0.000000 -0.002633 0.000000
# 3 0.006470 -0.009570 0.036884 0.000000 0.010959 0.000000
# 4 0.000000 0.000000 0.000000 0.045868 0.000000 0.007063
# 5 0.011244 -0.002633 0.010959 0.000000 0.076317 0.000000
# 6 0.000000 0.000000 0.000000 0.007063 0.000000 0.045202
#
#
# Mechanical properties :
#
#
# Convention : Reuss Voigt Hill
#
# Bulk Modulus (GPa) = 17.90744 28.18086 23.04415
# Shear Modulus (GPa) = 17.79249 20.90930 19.35090
#
# Velocity S-wave (km/s) = 3.29951 3.57685 3.44098
# Velocity P-wave (km/s) = 5.04706 5.85676 5.46692
#
# Compressibility (1/GPa) = 0.05584270
#
# Stress axis : x y z
#
# Youngs Moduli (GPa) = 42.38125 66.88514 27.11224
#
# Poissons Ratio (x) = 0.44771 -0.17542
# Poissons Ratio (y) = 0.28369 0.25946
# Poissons Ratio (z) = -0.27420 0.64009
#
# Static dielectric constant tensor:
#      x y z
#    x 1.585420 0.000000 0.004900 
#    y 0.000000 1.559790 0.000000 
#    z 0.004900 0.000000 1.558180 
# 
# From -- ./inp_files/107307.got.cif
#   From: 2010.05.17/outbox.cif.g08.bks.cpg/sg15_54_cif.got.tgz:107307.got - 2010.06.03 18:47:42.
