data_PCOD9257663
_publ_section_title
;
Structure prediction by ZEFSAII (Michael W. Deem and Ramdas Pophale) SiO2 
 PCOD9257663
Probable space group: C 2/C
;
_chemical_formula_sum "Si O2"
_cell_formula_units_Z 64
_cell_length_a 17.347854
_cell_length_b 30.636802
_cell_length_c 9.127107
_cell_angle_alpha 90.000000
_cell_angle_beta 121.743879
_cell_angle_gamma 90.000000
_cell_volume 4125.246364
_symmetry_space_group_name_H-M "C 2/C"
_symmetry_group_IT_number 15
_symmetry_cell_setting 'monoclinic'
loop_
_space_group_symop_operation_xyz
x,y,z
-x,y,1/2-z
-x,-y,-z
x,-y,1/2+z
1/2+x,1/2+y,z
1/2-x,1/2+y,1/2-z
1/2-x,1/2-y,-z
1/2+x,1/2-y,1/2+z
loop_
_atom_site_type_symbol
_atom_site_label
_atom_site_fract_x
_atom_site_fract_y
_atom_site_fract_z
Si Si1 0.811511 0.707495 0.238285
Si Si2 1.000000 0.816060 0.414617
Si Si3 0.393621 0.453916 0.469117
Si Si4 0.316983 0.627953 0.737191
Si Si5 1.000000 0.727756 0.576853
Si Si6 0.311511 0.207495 0.884737
Si Si7 0.816983 0.127953 0.396774
Si Si8 0.393621 0.546084 0.318126
O O1 0.908367 0.709721 0.412172
O O2 0.750000 0.750000 0.215771
O O3 0.758868 0.662974 0.224292
O O4 0.821877 0.708778 0.071877
O O5 0.088859 0.845351 0.514924
O O6 0.000000 0.795669 0.250000
O O7 0.911141 0.845351 0.337206
O O8 0.000000 0.778950 0.535495
O O9 0.331462 0.415107 0.346623
O O10 0.372149 0.500000 0.372149
O O11 0.500000 0.444105 0.540169
O O12 0.386262 0.457676 0.636262
O O13 0.241132 0.662974 0.706556
O O14 0.301498 0.615908 0.551498
O O15 0.000000 0.720931 0.750000
O O16 0.091633 0.709721 0.595439
O O17 0.831462 0.084893 0.316301
#
# Coordination Sequence:
#
# PCOD9257663 Si02
#       8
#     8   8   8   8   8   8   8   8
#     4  10  20  36  55  73  97 136 179 212 250 304
#     4  10  18  32  51  71 100 137 176 208 246 305
#     4  10  20  32  48  72 104 137 169 206 251 302
#     4  10  19  32  53  75  98 133 174 213 251 298
#     4  12  24  34  48  73 106 137 170 218 261 295
#     4  10  20  36  55  73  97 136 179 212 250 304
#     4  10  19  32  53  75  98 133 174 213 251 298
#     4  10  20  32  48  72 104 137 169 206 251 302
#
# _framework density 15.514224
#
# number of rings (size 3 to 8) (size 9 to 14) (size 15 to 20)
#    0.000    1.750    3.750    1.875    0.000    3.500 
#    0.000    0.000    0.000    0.000    0.000    0.875 
#    0.000    0.000    0.000    0.000    0.000    0.000 
#
# Total GULP energy -178567.057213 kJ/mol
# GULP energy per Si atom -5580.220538 kJ/mol
# Density = 1.547891 g / cm^3
# Si number density = 15.514224 Si / 1000 Ang^3
#
#
#
# Elastic Constant Matrix: (Units=GPa)
#
#
# Indices 1 2 3 4 5 6 
#
# 1 94.3804 57.9820 49.7042 0.0000 10.7546 0.0000
# 2 57.9820 120.4557 60.1600 0.0000 -2.4732 0.0000
# 3 49.7042 60.1600 75.1768 0.0000 11.0528 0.0000
# 4 0.0000 0.0000 0.0000 25.8533 0.0000 -5.2564
# 5 10.7546 -2.4732 11.0528 0.0000 17.2642 0.0000
# 6 0.0000 0.0000 0.0000 -5.2564 0.0000 21.2244
#
#
#
# Elastic Compliance Matrix: (Units=1/GPa)
#
#
# Indices 1 2 3 4 5 6 
#
# 1 0.018493 -0.005970 -0.006215 0.000000 -0.008396 0.000000
# 2 -0.005970 0.017523 -0.012133 0.000000 0.013997 0.000000
# 3 -0.006215 -0.012133 0.029592 0.000000 -0.016812 0.000000
# 4 0.000000 0.000000 0.000000 0.040731 0.000000 0.010087
# 5 -0.008396 0.013997 -0.016812 0.000000 0.075922 0.000000
# 6 0.000000 0.000000 0.000000 0.010087 0.000000 0.049614
#
#
# Mechanical properties :
#
#
# Convention : Reuss Voigt Hill
#
# Bulk Modulus (GPa) = 58.92155 69.52282 64.22218
# Shear Modulus (GPa) = 17.47227 21.01284 19.24256
#
# Velocity S-wave (km/s) = 3.35955 3.68424 3.52563
# Velocity P-wave (km/s) = 7.28768 7.93774 7.61965
#
# Compressibility (1/GPa) = 0.01697172
#
# Stress axis : x y z
#
# Youngs Moduli (GPa) = 54.07507 57.06888 33.79262
#
# Poissons Ratio (x) = 0.34071 0.21001
# Poissons Ratio (y) = 0.32284 0.41001
# Poissons Ratio (z) = 0.33606 0.69243
#
# Static dielectric constant tensor:
#      x y z
#    x 1.515340 0.000000 -0.004410 
#    y 0.000000 1.506420 0.000000 
#    z -0.004410 0.000000 1.519230 
# 
# From -- ./inp_files/44569.got.cif
#   From: 2010.05.17/outbox.cif.g08.bks.cpg/sg15_23_cif.got.tgz:44569.got - 2010.06.03 18:47:42.
