data_PCOD9257105
_publ_section_title
;
Structure prediction by ZEFSAII (Michael W. Deem and Ramdas Pophale) SiO2 
 PCOD9257105
Probable space group: C 2/C
;
_chemical_formula_sum "Si O2"
_cell_formula_units_Z 60
_cell_length_a 22.972976
_cell_length_b 11.927752
_cell_length_c 17.978916
_cell_angle_alpha 90.000000
_cell_angle_beta 39.097599
_cell_angle_gamma 90.000000
_cell_volume 3106.870416
_symmetry_space_group_name_H-M "C 2/C"
_symmetry_group_IT_number 15
_symmetry_cell_setting 'monoclinic'
loop_
_space_group_symop_operation_xyz
x,y,z
-x,y,1/2-z
-x,-y,-z
x,-y,1/2+z
1/2+x,1/2+y,z
1/2-x,1/2+y,1/2-z
1/2-x,1/2-y,-z
1/2+x,1/2-y,1/2+z
loop_
_atom_site_type_symbol
_atom_site_label
_atom_site_fract_x
_atom_site_fract_y
_atom_site_fract_z
Si Si1 0.298610 0.427932 0.437420
Si Si2 0.590628 0.570269 0.889824
Si Si3 0.756937 0.073532 0.352698
Si Si4 0.500000 0.615455 0.750000
Si Si5 0.014024 0.273200 0.869865
Si Si6 0.243887 0.700292 0.723281
Si Si7 0.217782 0.296117 0.648347
Si Si8 0.094662 0.447878 0.434836
O O1 0.250332 0.530849 0.443849
O O2 0.407807 0.451548 0.326174
O O3 0.271014 0.389146 0.547473
O O4 0.280381 0.319491 0.401721
O O5 0.657636 0.495487 0.770222
O O6 0.547358 0.681095 0.895845
O O7 0.664603 0.622852 0.874495
O O8 0.500000 0.500000 0.000000
O O9 0.767366 0.204206 0.326531
O O10 0.664227 0.036107 0.401869
O O11 0.477710 0.699511 0.838709
O O12 0.110507 0.333119 0.755139
O O13 0.937204 0.356837 0.973282
O O14 0.251783 0.763764 0.797534
O O15 0.155477 0.619959 0.815078
O O16 0.000000 0.500000 0.500000
#
# Coordination Sequence:
#
# PCOD9257105 Si02
#       8
#     8   8   8   4   8   8   8   8
#     4  10  18  32  53  81 115 147 189 245 306 340
#     4  10  19  35  53  81 115 150 194 239 292 358
#     4  11  21  35  53  82 121 152 194 242 297 360
#     4  10  18  30  54  78 114 140 184 244 296 346
#     4  10  19  31  51  86 113 144 192 239 296 351
#     4  10  20  36  55  86 123 157 192 243 305 363
#     4   9  17  33  53  78 117 154 184 244 302 348
#     4  11  21  34  55  82 117 152 194 238 294 360
#
# _framework density 19.312038000000001
#
# number of rings (size 3 to 8) (size 9 to 14) (size 15 to 20)
#    0.000    1.867    5.333    3.200    3.733    0.000 
#    0.000    0.000    0.000    0.000    0.000   15.867 
#    0.000    0.000    0.000    0.000    0.000    0.000 
#
# Total GULP energy -167233.642157 kJ/mol
# GULP energy per Si atom -5574.454739 kJ/mol
# Density = 1.926808 g / cm^3
# Si number density = 19.312038 Si / 1000 Ang^3
#
#
#
# Elastic Constant Matrix: (Units=GPa)
#
#
# Indices 1 2 3 4 5 6 
#
# 1 69.4329 19.9456 25.4673 0.0000 -21.6775 0.0000
# 2 19.9456 61.0746 28.6587 0.0000 -15.6229 0.0000
# 3 25.4673 28.6587 71.7813 0.0000 -22.5430 0.0000
# 4 0.0000 0.0000 0.0000 23.6367 0.0000 -3.6900
# 5 -21.6775 -15.6229 -22.5430 0.0000 20.4170 0.0000
# 6 0.0000 0.0000 0.0000 -3.6900 0.0000 22.6068
#
#
#
# Elastic Compliance Matrix: (Units=1/GPa)
#
#
# Indices 1 2 3 4 5 6 
#
# 1 0.021657 -0.001395 -0.000368 0.000000 0.021520 0.000000
# 2 -0.001395 0.021668 -0.005226 0.000000 0.009328 0.000000
# 3 -0.000368 -0.005226 0.022610 0.000000 0.020574 0.000000
# 4 0.000000 0.000000 0.000000 0.043413 0.000000 0.007086
# 5 0.021520 0.009328 0.020574 0.000000 0.101681 0.000000
# 6 0.000000 0.000000 0.000000 0.007086 0.000000 0.045391
#
#
# Mechanical properties :
#
#
# Convention : Reuss Voigt Hill
#
# Bulk Modulus (GPa) = 19.24758 38.93690 29.09224
# Shear Modulus (GPa) = 17.37818 21.87991 19.62904
#
# Velocity S-wave (km/s) = 3.00302 3.36961 3.19159
# Velocity P-wave (km/s) = 4.69175 5.94515 5.35524
#
# Compressibility (1/GPa) = 0.05195458
#
# Stress axis : x y z
#
# Youngs Moduli (GPa) = 46.17462 46.15198 44.22879
#
# Poissons Ratio (x) = 0.06438 0.01629
# Poissons Ratio (y) = 0.06442 0.23115
# Poissons Ratio (z) = 0.01701 0.24121
#
# Static dielectric constant tensor:
#      x y z
#    x 1.711400 0.000000 -0.002370 
#    y 0.000000 1.709940 0.000000 
#    z -0.002370 0.000000 1.729660 
# 
# From -- ./inp_files/219311.got.cif
#   From: 2010.05.17/outbox.cif.g08.bks.cpg/sg15_110_cif.got.tgz:219311.got - 2010.06.03 18:47:42.
