data_PCOD9257514
_publ_section_title
;
Structure prediction by ZEFSAII (Michael W. Deem and Ramdas Pophale) SiO2 
 PCOD9257514
Probable space group: C 2/C
;
_chemical_formula_sum "Si O2"
_cell_formula_units_Z 40
_cell_length_a 19.294470
_cell_length_b 12.796784
_cell_length_c 16.427927
_cell_angle_alpha 90.000000
_cell_angle_beta 28.981340
_cell_angle_gamma 90.000000
_cell_volume 1965.316151
_symmetry_space_group_name_H-M "C 2/C"
_symmetry_group_IT_number 15
_symmetry_cell_setting 'monoclinic'
loop_
_space_group_symop_operation_xyz
x,y,z
-x,y,1/2-z
-x,-y,-z
x,-y,1/2+z
1/2+x,1/2+y,z
1/2-x,1/2+y,1/2-z
1/2-x,1/2-y,-z
1/2+x,1/2-y,1/2+z
loop_
_atom_site_type_symbol
_atom_site_label
_atom_site_fract_x
_atom_site_fract_y
_atom_site_fract_z
Si Si1 0.279429 0.525196 0.673020
Si Si2 0.055955 0.380270 0.512339
Si Si3 0.632869 0.008924 0.667591
Si Si4 0.006516 0.843283 0.043311
Si Si5 0.788771 0.155579 0.901886
O O1 0.138773 0.534142 0.873801
O O2 0.230288 0.566664 0.634690
O O3 0.346135 0.408750 0.604396
O O4 0.401323 0.594913 0.590308
O O5 0.004646 0.277583 0.518081
O O6 0.182697 0.331267 0.435666
O O7 0.945421 0.425689 0.691455
O O8 0.500000 0.053975 0.750000
O O9 0.740410 0.950180 0.496305
O O10 0.942621 0.846600 0.201297
O O11 0.750000 0.250000 0.000000
#
# Coordination Sequence:
#
# PCOD9257514 Si02
#       5
#     8   8   8   8   8
#     4  10  22  36  53  85 119 156 190 227 285 348
#     4  10  20  34  56  84 118 152 185 232 284 347
#     4  10  20  34  56  86 116 149 184 234 292 344
#     4  10  21  36  57  89 119 150 186 233 295 346
#     4  10  18  31  56  90 117 143 174 234 306 349
#
# _framework density 20.352961000000001
#
# number of rings (size 3 to 8) (size 9 to 14) (size 15 to 20)
#    0.000    2.000    2.000    1.800    2.800    2.400 
#    0.000    0.000    0.000    1.200    0.000    0.000 
#    0.000    0.000    0.000    0.000    0.000    0.000 
#
# Total GULP energy -111390.335976 kJ/mol
# GULP energy per Si atom -5569.516799 kJ/mol
# Density = 2.030664 g / cm^3
# Si number density = 20.352961 Si / 1000 Ang^3
#
#
#
# Elastic Constant Matrix: (Units=GPa)
#
#
# Indices 1 2 3 4 5 6 
#
# 1 102.3223 3.6694 14.6752 0.0001 -3.4949 0.0000
# 2 3.6694 38.2751 44.1664 0.0000 3.3166 0.0000
# 3 14.6752 44.1664 114.9059 0.0001 -4.0474 0.0000
# 4 0.0001 0.0000 0.0001 28.8579 -0.0001 8.7409
# 5 -3.4949 3.3166 -4.0474 -0.0001 23.0667 0.0000
# 6 0.0000 0.0000 0.0000 8.7409 0.0000 24.5644
#
#
#
# Elastic Compliance Matrix: (Units=1/GPa)
#
#
# Indices 1 2 3 4 5 6 
#
# 1 0.010003 0.000661 -0.001491 0.000000 0.001159 0.000000
# 2 0.000661 0.049394 -0.019437 0.000000 -0.010412 0.000000
# 3 -0.001491 -0.019437 0.016557 0.000000 0.005474 0.000000
# 4 0.000000 0.000000 0.000000 0.038839 0.000000 -0.013820
# 5 0.001159 -0.010412 0.005474 0.000000 0.045986 0.000000
# 6 0.000000 0.000000 0.000000 -0.013820 0.000000 0.045627
#
#
# Mechanical properties :
#
#
# Convention : Reuss Voigt Hill
#
# Bulk Modulus (GPa) = 28.23241 42.28059 35.25650
# Shear Modulus (GPa) = 19.32404 28.16396 23.74400
#
# Velocity S-wave (km/s) = 3.08465 3.72395 3.41927
# Velocity P-wave (km/s) = 5.15638 6.26970 5.74010
#
# Compressibility (1/GPa) = 0.03542028
#
# Stress axis : x y z
#
# Youngs Moduli (GPa) = 99.97278 20.24537 60.39795
#
# Poissons Ratio (x) = -0.01338 0.09003
# Poissons Ratio (y) = -0.06605 1.17394
# Poissons Ratio (z) = 0.14902 0.39350
#
# Static dielectric constant tensor:
#      x y z
#    x 1.820720 0.000000 -0.050150 
#    y 0.000000 1.817090 0.000000 
#    z -0.050150 0.000000 1.773080 
# 
# From -- ./inp_files/37783.got.cif
#   From: 2010.05.17/outbox.cif.g08.bks.cpg/sg15_19_cif.got.tgz:37783.got - 2010.06.03 18:47:42.
