data_PCOD9257957
_publ_section_title
;
Structure prediction by ZEFSAII (Michael W. Deem and Ramdas Pophale) SiO2 
 PCOD9257957
Probable space group: C 2/C
;
_chemical_formula_sum "Si O2"
_cell_formula_units_Z 44
_cell_length_a 12.666416
_cell_length_b 16.145664
_cell_length_c 12.649404
_cell_angle_alpha 90.000000
_cell_angle_beta 42.228359
_cell_angle_gamma 90.000000
_cell_volume 1738.622632
_symmetry_space_group_name_H-M "C 2/C"
_symmetry_group_IT_number 15
_symmetry_cell_setting 'monoclinic'
loop_
_space_group_symop_operation_xyz
x,y,z
-x,y,1/2-z
-x,-y,-z
x,-y,1/2+z
1/2+x,1/2+y,z
1/2-x,1/2+y,1/2-z
1/2-x,1/2-y,-z
1/2+x,1/2-y,1/2+z
loop_
_atom_site_type_symbol
_atom_site_label
_atom_site_fract_x
_atom_site_fract_y
_atom_site_fract_z
Si Si1 0.463028 0.102965 0.120247
Si Si2 0.332606 0.860602 0.499085
Si Si3 0.722709 0.016642 0.072975
Si Si4 0.885884 0.793993 0.167156
Si Si5 0.000000 0.915920 0.250000
Si Si6 0.432235 0.716549 0.169791
O O1 0.437252 0.096295 0.013867
O O2 0.319616 0.055791 0.284095
O O3 0.449644 0.201938 0.149691
O O4 0.612035 0.065416 0.070024
O O5 0.421963 0.775665 0.405946
O O6 0.163708 0.843271 0.680199
O O7 0.316933 0.920525 0.412011
O O8 0.897437 0.030637 0.905062
O O9 0.708981 0.777073 0.262145
O O10 0.894603 0.855364 0.257360
O O11 0.994572 0.824879 0.989663
#
# Coordination Sequence:
#
# PCOD9257957 Si02
#       6
#     8   8   8   8   4   8
#     4   9  20  37  56  83 116 154 186 223 283 347
#     4  10  19  38  62  85 110 144 195 239 287 335
#     4  11  22  34  54  86 122 151 179 230 294 346
#     4  10  18  32  56  84 116 149 186 230 282 339
#     4  12  20  30  50  86 122 146 182 232 284 340
#     4   8  18  35  57  81 106 145 195 241 275 324
#
# _framework density 25.307388
#
# number of rings (size 3 to 8) (size 9 to 14) (size 15 to 20)
#    0.000    2.545    0.000    6.000    0.000    2.182 
#    0.000   10.909    0.000    7.636    0.000    5.091 
#    0.000    0.000    0.000    0.000    0.000    0.000 
#
# Total GULP energy -123123.961951 kJ/mol
# GULP energy per Si atom -5596.543725 kJ/mol
# Density = 2.524979 g / cm^3
# Si number density = 25.307388 Si / 1000 Ang^3
#
#
#
# Elastic Constant Matrix: (Units=GPa)
#
#
# Indices 1 2 3 4 5 6 
#
# 1 56.1990 5.1726 -4.3965 0.0001 -4.1306 -0.0001
# 2 5.1726 63.9484 0.4391 0.0001 7.8506 0.0000
# 3 -4.3965 0.4391 131.2801 0.0002 -5.4407 -0.0001
# 4 0.0001 0.0001 0.0002 30.6914 -0.0002 5.4175
# 5 -4.1306 7.8506 -5.4407 -0.0002 46.2367 0.0001
# 6 -0.0001 0.0000 -0.0001 5.4175 0.0001 10.7304
#
#
#
# Elastic Compliance Matrix: (Units=1/GPa)
#
#
# Indices 1 2 3 4 5 6 
#
# 1 0.018153 -0.001718 0.000696 0.000000 0.001995 0.000000
# 2 -0.001718 0.016137 -0.000233 0.000000 -0.002921 0.000000
# 3 0.000696 -0.000233 0.007683 0.000000 0.001006 0.000000
# 4 0.000000 0.000000 0.000000 0.035770 0.000000 -0.018060
# 5 0.001995 -0.002921 0.001006 0.000000 0.022420 0.000000
# 6 0.000000 0.000000 0.000000 -0.018060 0.000000 0.102311
#
#
# Mechanical properties :
#
#
# Convention : Reuss Voigt Hill
#
# Bulk Modulus (GPa) = 25.33929 28.20647 26.77288
# Shear Modulus (GPa) = 22.92129 34.21254 28.56691
#
# Velocity S-wave (km/s) = 3.01278 3.68078 3.36340
# Velocity P-wave (km/s) = 4.70497 5.40684 5.06807
#
# Compressibility (1/GPa) = 0.03946441
#
# Stress axis : x y z
#
# Youngs Moduli (GPa) = 55.08678 61.97041 130.15615
#
# Poissons Ratio (x) = 0.10647 -0.09064
# Poissons Ratio (y) = 0.09465 0.03027
# Poissons Ratio (z) = -0.03836 0.01441
#
# Static dielectric constant tensor:
#      x y z
#    x 2.045610 0.000000 0.002780 
#    y 0.000000 1.981370 0.000000 
#    z 0.002780 0.000000 2.023140 
# 
# From -- ./inp_files/163043.got.cif
#   From: 2010.05.17/outbox.cif.g08.bks.cpg/sg15_82_cif.got.tgz:163043.got - 2010.06.03 18:47:42.
