data_PCOD9257208
_publ_section_title
;
Structure prediction by ZEFSAII (Michael W. Deem and Ramdas Pophale) SiO2 
 PCOD9257208
Probable space group: C 2/C
;
_chemical_formula_sum "Si O2"
_cell_formula_units_Z 56
_cell_length_a 13.970227
_cell_length_b 20.862709
_cell_length_c 7.493378
_cell_angle_alpha 90.000000
_cell_angle_beta 68.352055
_cell_angle_gamma 90.000000
_cell_volume 2029.954484
_symmetry_space_group_name_H-M "C 2/C"
_symmetry_group_IT_number 15
_symmetry_cell_setting 'monoclinic'
loop_
_space_group_symop_operation_xyz
x,y,z
-x,y,1/2-z
-x,-y,-z
x,-y,1/2+z
1/2+x,1/2+y,z
1/2-x,1/2+y,1/2-z
1/2-x,1/2-y,-z
1/2+x,1/2-y,1/2+z
loop_
_atom_site_type_symbol
_atom_site_label
_atom_site_fract_x
_atom_site_fract_y
_atom_site_fract_z
Si Si1 0.668084 0.585044 0.976479
Si Si2 0.869533 0.771027 0.942600
Si Si3 0.897340 0.433111 0.410558
Si Si4 0.142382 0.572040 0.143642
Si Si5 0.379037 0.689066 0.045975
Si Si6 0.130394 0.947712 0.916871
Si Si7 0.369374 0.199898 0.280474
O O1 0.792820 0.581624 0.870260
O O2 0.608744 0.524134 0.930521
O O3 0.634116 0.657743 0.966533
O O4 0.648565 0.571114 0.199014
O O5 0.912382 0.782005 0.713623
O O6 0.750000 0.750000 0.000000
O O7 0.907671 0.717619 0.056006
O O8 0.908662 0.510446 0.404255
O O9 0.877435 0.418539 0.630750
O O10 0.000000 0.406427 0.250000
O O11 0.263142 0.556178 0.043729
O O12 0.102180 0.640412 0.109400
O O13 0.423376 0.617832 0.981944
O O14 0.253745 0.686409 0.150325
O O15 0.392455 0.737237 0.876828
#
# Coordination Sequence:
#
# PCOD9257208 Si02
#       7
#     8   8   8   8   8   8   8
#     4   9  17  26  39  61  81 112 153 188 219 262
#     4   9  16  27  40  58  85 107 141 184 220 261
#     4  10  18  31  45  58  84 116 153 197 226 249
#     4   9  18  31  41  62  80 107 152 190 225 268
#     4   8  15  26  38  58  80 105 136 176 217 266
#     4   8  15  25  37  55  82 104 142 183 211 260
#     4   9  16  28  43  59  83 104 140 183 224 269
#
# _framework density 27.586825000000001
#
# number of rings (size 3 to 8) (size 9 to 14) (size 15 to 20)
#    0.000    3.143    0.000    3.000    2.000    0.000 
#   18.000    0.000    0.000    0.000    0.000    0.000 
#    0.000    0.000    0.000    0.000    0.000   12.857 
#
# Total GULP energy -156433.579933 kJ/mol
# GULP energy per Si atom -5586.913569 kJ/mol
# Density = 2.752404 g / cm^3
# Si number density = 27.586825 Si / 1000 Ang^3
#
#
#
# Elastic Constant Matrix: (Units=GPa)
#
#
# Indices 1 2 3 4 5 6 
#
# 1 87.0815 5.4327 -1.4797 0.0000 0.7967 0.0000
# 2 5.4327 199.2858 26.2766 0.0000 9.6017 0.0000
# 3 -1.4797 26.2766 58.3139 0.0000 3.9391 0.0000
# 4 0.0000 0.0000 0.0000 36.1034 0.0000 8.2741
# 5 0.7967 9.6017 3.9391 0.0000 24.2198 0.0000
# 6 0.0000 0.0000 0.0000 8.2741 0.0000 20.2657
#
#
#
# Elastic Compliance Matrix: (Units=1/GPa)
#
#
# Indices 1 2 3 4 5 6 
#
# 1 0.011517 -0.000362 0.000476 0.000000 -0.000313 0.000000
# 2 -0.000362 0.005420 -0.002333 0.000000 -0.001757 0.000000
# 3 0.000476 -0.002333 0.018352 0.000000 -0.002076 0.000000
# 4 0.000000 0.000000 0.000000 0.030557 0.000000 -0.012476
# 5 -0.000313 -0.001757 -0.002076 0.000000 0.042333 0.000000
# 6 0.000000 0.000000 0.000000 -0.012476 0.000000 0.054438
#
#
# Mechanical properties :
#
#
# Convention : Reuss Voigt Hill
#
# Bulk Modulus (GPa) = 32.41191 45.01562 38.71376
# Shear Modulus (GPa) = 28.19468 37.08121 32.63794
#
# Velocity S-wave (km/s) = 3.20040 3.67026 3.44335
# Velocity P-wave (km/s) = 5.04294 5.85784 5.46560
#
# Compressibility (1/GPa) = 0.03085286
#
# Stress axis : x y z
#
# Youngs Moduli (GPa) = 86.82807 184.50066 54.48993
#
# Poissons Ratio (x) = 0.06673 -0.02596
# Poissons Ratio (y) = 0.03141 0.12711
# Poissons Ratio (z) = -0.04136 0.43040
#
# Static dielectric constant tensor:
#      x y z
#    x 2.404850 0.000000 -0.135520 
#    y 0.000000 2.220920 0.000000 
#    z -0.135520 0.000000 2.123390 
# 
# From -- ./inp_files/57456.got.cif
#   From: 2010.05.17/outbox.cif.g08.bks.cpg/sg15_29_cif.got.tgz:57456.got - 2010.06.03 18:47:42.
