data_PCOD9257246
_publ_section_title
;
Structure prediction by ZEFSAII (Michael W. Deem and Ramdas Pophale) SiO2 
 PCOD9257246
Probable space group: C 2/C
;
_chemical_formula_sum "Si O2"
_cell_formula_units_Z 32
_cell_length_a 15.443605
_cell_length_b 22.135601
_cell_length_c 5.480363
_cell_angle_alpha 90.000000
_cell_angle_beta 111.345972
_cell_angle_gamma 90.000000
_cell_volume 1744.959351
_symmetry_space_group_name_H-M "C 2/C"
_symmetry_group_IT_number 15
_symmetry_cell_setting 'monoclinic'
loop_
_space_group_symop_operation_xyz
x,y,z
-x,y,1/2-z
-x,-y,-z
x,-y,1/2+z
1/2+x,1/2+y,z
1/2-x,1/2+y,1/2-z
1/2-x,1/2-y,-z
1/2+x,1/2-y,1/2+z
loop_
_atom_site_type_symbol
_atom_site_label
_atom_site_fract_x
_atom_site_fract_y
_atom_site_fract_z
Si Si1 0.092864 0.140353 0.484250
Si Si2 0.901860 0.736689 0.235645
Si Si3 0.227708 0.803124 0.787475
Si Si4 0.110339 0.971224 0.327744
O O1 0.075424 0.209143 0.551678
O O2 0.178714 0.143799 0.385567
O O3 0.116402 0.097625 0.736890
O O4 0.000000 0.118809 0.250000
O O5 0.826511 0.688638 0.255721
O O6 0.000000 0.711126 0.250000
O O7 0.846723 0.773645 0.971285
O O8 0.250000 0.750000 0.000000
O O9 0.000000 0.981617 0.250000
O O10 0.147375 0.990237 0.632482
#
# Coordination Sequence:
#
# PCOD9257246 Si02
#       4
#     8   8   8   8
#     4  11  19  29  48  66  96 135 169 200 248 296
#     4  10  18  31  49  67  95 132 167 206 248 293
#     4   9  20  31  43  71  95 125 169 208 240 300
#     4  10  21  33  46  70 100 132 171 209 245 293
#
# _framework density 18.338535
#
# number of rings (size 3 to 8) (size 9 to 14) (size 15 to 20)
#    0.000    2.000    2.500    3.000    3.500    0.000 
#    0.000    0.000    0.000    0.000    0.000    0.000 
#    0.000    2.000    0.000    1.500    0.000    0.000 
#
# Total GULP energy -89143.115380 kJ/mol
# GULP energy per Si atom -5571.444711 kJ/mol
# Density = 1.829680 g / cm^3
# Si number density = 18.338535 Si / 1000 Ang^3
#
#
#
# Elastic Constant Matrix: (Units=GPa)
#
#
# Indices 1 2 3 4 5 6 
#
# 1 157.5055 27.9339 35.5035 0.0000 -11.2228 0.0000
# 2 27.9339 52.1630 16.0577 0.0000 -9.9599 0.0000
# 3 35.5035 16.0577 71.9711 0.0000 -17.2320 0.0000
# 4 0.0000 0.0000 0.0000 31.1903 0.0000 -17.5422
# 5 -11.2228 -9.9599 -17.2320 0.0000 28.1052 0.0000
# 6 0.0000 0.0000 0.0000 -17.5422 0.0000 16.9210
#
#
#
# Elastic Compliance Matrix: (Units=1/GPa)
#
#
# Indices 1 2 3 4 5 6 
#
# 1 0.007590 -0.003118 -0.003033 0.000000 0.000066 0.000000
# 2 -0.003118 0.022548 -0.002200 0.000000 0.005396 0.000000
# 3 -0.003033 -0.002200 0.018055 0.000000 0.009079 0.000000
# 4 0.000000 0.000000 0.000000 0.076899 0.000000 0.079722
# 5 0.000066 0.005396 0.009079 0.000000 0.043086 0.000000
# 6 0.000000 0.000000 0.000000 0.079722 0.000000 0.141747
#
#
# Mechanical properties :
#
#
# Convention : Reuss Voigt Hill
#
# Bulk Modulus (GPa) = 31.75523 48.95886 40.35705
# Shear Modulus (GPa) = 14.83124 28.71959 21.77542
#
# Velocity S-wave (km/s) = 2.84693 3.96166 3.44962
# Velocity P-wave (km/s) = 5.30664 6.90519 6.15800
#
# Compressibility (1/GPa) = 0.03149087
#
# Stress axis : x y z
#
# Youngs Moduli (GPa) = 131.74560 44.34907 55.38536
#
# Poissons Ratio (x) = 0.13830 0.16797
# Poissons Ratio (y) = 0.41085 0.12187
# Poissons Ratio (z) = 0.39954 0.09759
#
# Static dielectric constant tensor:
#      x y z
#    x 1.685620 0.000000 -0.069490 
#    y 0.000000 1.663860 0.000000 
#    z -0.069490 0.000000 1.733040 
# 
# From -- ./inp_files/6936.got.cif
#   From: 2010.05.17/outbox.cif.g08.bks.cpg/sg15_4_cif.got.tgz:6936.got - 2010.06.03 18:47:42.
