data_PCOD9257657
_publ_section_title
;
Structure prediction by ZEFSAII (Michael W. Deem and Ramdas Pophale) SiO2 
 PCOD9257657
Probable space group: C 2/C
;
_chemical_formula_sum "Si O2"
_cell_formula_units_Z 48
_cell_length_a 26.787092
_cell_length_b 15.006515
_cell_length_c 8.608969
_cell_angle_alpha 90.000000
_cell_angle_beta 45.204538
_cell_angle_gamma 90.000000
_cell_volume 2455.762774
_symmetry_space_group_name_H-M "C 2/C"
_symmetry_group_IT_number 15
_symmetry_cell_setting 'monoclinic'
loop_
_space_group_symop_operation_xyz
x,y,z
-x,y,1/2-z
-x,-y,-z
x,-y,1/2+z
1/2+x,1/2+y,z
1/2-x,1/2+y,1/2-z
1/2-x,1/2-y,-z
1/2+x,1/2-y,1/2+z
loop_
_atom_site_type_symbol
_atom_site_label
_atom_site_fract_x
_atom_site_fract_y
_atom_site_fract_z
Si Si1 0.806343 0.442989 0.065180
Si Si2 0.169874 0.264442 0.616114
Si Si3 0.575732 0.542964 0.312911
Si Si4 0.653084 0.304677 0.799187
Si Si5 0.690039 0.876567 0.099949
Si Si6 0.356750 0.399028 0.147738
O O1 0.823606 0.420052 0.203269
O O2 0.723116 0.419864 0.229156
O O3 0.842723 0.369820 0.872672
O O4 0.823183 0.544988 0.992139
O O5 0.250000 0.250000 0.500000
O O6 0.158498 0.226022 0.466548
O O7 0.129828 0.201276 0.824220
O O8 0.500000 0.500000 0.500000
O O9 0.592771 0.624797 0.391396
O O10 0.629675 0.464452 0.238275
O O11 0.592322 0.575455 0.104054
O O12 0.649678 0.217630 0.695350
O O13 0.727741 0.350756 0.596344
#
# Coordination Sequence:
#
# PCOD9257657 Si02
#       6
#     8   8   8   8   8   8
#     4  10  18  32  50  83 107 150 181 235 303 365
#     4   9  21  32  53  79 112 146 193 240 305 368
#     4  12  24  37  54  76 110 160 205 241 289 342
#     4  10  20  36  49  78 112 154 190 242 291 360
#     4  10  20  30  54  76 113 146 187 229 306 357
#     4  11  20  35  50  76 109 150 195 245 286 355
#
# _framework density 19.545862
#
# number of rings (size 3 to 8) (size 9 to 14) (size 15 to 20)
#    0.000    1.667    3.333    1.500    7.000    0.000 
#    0.000    0.000    0.000    0.000    0.000    1.167 
#    0.000    2.667    0.000    0.500    0.000    0.333 
#
# Total GULP energy -133877.736404 kJ/mol
# GULP energy per Si atom -5578.239017 kJ/mol
# Density = 1.950138 g / cm^3
# Si number density = 19.545862 Si / 1000 Ang^3
#
#
#
# Elastic Constant Matrix: (Units=GPa)
#
#
# Indices 1 2 3 4 5 6 
#
# 1 37.7272 24.9536 18.4196 0.0000 3.2743 0.0000
# 2 24.9536 123.2699 34.0628 0.0000 -0.6046 0.0000
# 3 18.4196 34.0628 65.6834 0.0000 12.1278 0.0000
# 4 0.0000 0.0000 0.0000 27.2612 0.0000 4.3660
# 5 3.2743 -0.6046 12.1278 0.0000 18.6627 0.0000
# 6 0.0000 0.0000 0.0000 4.3660 0.0000 33.9568
#
#
#
# Elastic Compliance Matrix: (Units=1/GPa)
#
#
# Indices 1 2 3 4 5 6 
#
# 1 0.033039 -0.004937 -0.006369 0.000000 -0.001817 0.000000
# 2 -0.004937 0.010474 -0.004852 0.000000 0.004358 0.000000
# 3 -0.006369 -0.004852 0.021988 0.000000 -0.013328 0.000000
# 4 0.000000 0.000000 0.000000 0.037453 0.000000 -0.004816
# 5 -0.001817 0.004358 -0.013328 0.000000 0.062704 0.000000
# 6 0.000000 0.000000 0.000000 -0.004816 0.000000 0.030068
#
#
# Mechanical properties :
#
#
# Convention : Reuss Voigt Hill
#
# Bulk Modulus (GPa) = 30.13478 42.39472 36.26475
# Shear Modulus (GPa) = 20.91141 25.92578 23.41859
#
# Velocity S-wave (km/s) = 3.27443 3.64594 3.46516
# Velocity P-wave (km/s) = 5.45406 6.28178 5.88250
#
# Compressibility (1/GPa) = 0.03318425
#
# Stress axis : x y z
#
# Youngs Moduli (GPa) = 30.26730 95.47675 45.47995
#
# Poissons Ratio (x) = 0.47137 0.28967
# Poissons Ratio (y) = 0.14943 0.22066
# Poissons Ratio (z) = 0.19278 0.46324
#
# Static dielectric constant tensor:
#      x y z
#    x 1.731560 0.000000 0.027470 
#    y 0.000000 1.745430 0.000000 
#    z 0.027470 0.000000 1.691710 
# 
# From -- ./inp_files/66432.got.cif
#   From: 2010.05.17/outbox.cif.g08.bks.cpg/sg15_34_cif.got.tgz:66432.got - 2010.06.03 18:47:42.
