data_PCOD9257357
_publ_section_title
;
Structure prediction by ZEFSAII (Michael W. Deem and Ramdas Pophale) SiO2 
 PCOD9257357
Probable space group: C 2/C
;
_chemical_formula_sum "Si O2"
_cell_formula_units_Z 56
_cell_length_a 28.473788
_cell_length_b 17.110206
_cell_length_c 9.340849
_cell_angle_alpha 90.000000
_cell_angle_beta 29.381515
_cell_angle_gamma 90.000000
_cell_volume 2232.720881
_symmetry_space_group_name_H-M "C 2/C"
_symmetry_group_IT_number 15
_symmetry_cell_setting 'monoclinic'
loop_
_space_group_symop_operation_xyz
x,y,z
-x,y,1/2-z
-x,-y,-z
x,-y,1/2+z
1/2+x,1/2+y,z
1/2-x,1/2+y,1/2-z
1/2-x,1/2-y,-z
1/2+x,1/2-y,1/2+z
loop_
_atom_site_type_symbol
_atom_site_label
_atom_site_fract_x
_atom_site_fract_y
_atom_site_fract_z
Si Si1 0.909782 0.721485 0.103850
Si Si2 0.892762 0.142769 0.474399
Si Si3 0.130538 0.897935 0.909989
Si Si4 0.056336 0.757633 0.937038
Si Si5 0.862467 0.590345 0.801284
Si Si6 0.353495 0.499237 0.394692
Si Si7 0.353746 0.058867 0.146176
O O1 0.853017 0.798258 0.200324
O O2 0.000000 0.716892 0.750000
O O3 0.952026 0.739585 0.146916
O O4 0.861477 0.637716 0.217319
O O5 0.896368 0.197738 0.324597
O O6 0.842086 0.065271 0.549276
O O7 0.000000 0.121409 0.250000
O O8 0.089461 0.815023 0.974622
O O9 0.246430 0.899859 0.606095
O O10 0.101552 0.958126 0.860515
O O11 0.096716 0.928326 0.154492
O O12 0.097058 0.672179 0.858837
O O13 0.892410 0.516202 0.627521
O O14 0.895366 0.576504 0.877898
O O15 0.254579 0.465305 0.601252
#
# Coordination Sequence:
#
# PCOD9257357 Si02
#       7
#     8   8   8   8   8   8   8
#     4   9  16  31  51  75 101 136 180 208 249 307
#     4   8  15  30  53  76  97 132 177 208 249 307
#     4   9  18  31  53  77 105 133 173 217 260 303
#     4   9  16  30  50  76  98 135 181 211 243 300
#     4  10  18  31  52  76 108 133 176 215 257 302
#     4   9  18  32  51  79 107 130 172 217 260 305
#     4  10  19  32  50  79 104 139 171 216 256 305
#
# _framework density 25.081503999999999
#
# number of rings (size 3 to 8) (size 9 to 14) (size 15 to 20)
#    0.000    3.143    2.857    0.429    0.000    0.571 
#    0.000    6.429    3.143    2.571    3.714    0.000 
#    0.000    0.000    0.000    0.000    0.000    0.000 
#
# Total GULP energy -156386.257548 kJ/mol
# GULP energy per Si atom -5585.223484 kJ/mol
# Density = 2.502442 g / cm^3
# Si number density = 25.081504 Si / 1000 Ang^3
#
#
#
# Elastic Constant Matrix: (Units=GPa)
#
#
# Indices 1 2 3 4 5 6 
#
# 1 153.1883 106.9509 21.8048 0.0000 11.2580 0.0000
# 2 106.9509 221.5493 17.6938 0.0000 0.5632 0.0000
# 3 21.8048 17.6938 30.1738 0.0000 -7.6648 0.0000
# 4 0.0000 0.0000 0.0000 52.6455 0.0000 -2.4548
# 5 11.2580 0.5632 -7.6648 0.0000 26.3249 0.0000
# 6 0.0000 0.0000 0.0000 -2.4548 0.0000 71.4690
#
#
#
# Elastic Compliance Matrix: (Units=1/GPa)
#
#
# Indices 1 2 3 4 5 6 
#
# 1 0.011531 -0.004976 -0.007171 0.000000 -0.006913 0.000000
# 2 -0.004976 0.006907 0.000053 0.000000 0.001996 0.000000
# 3 -0.007171 0.000053 0.042191 0.000000 0.015350 0.000000
# 4 0.000000 0.000000 0.000000 0.019025 0.000000 0.000653
# 5 -0.006913 0.001996 0.015350 0.000000 0.045370 0.000000
# 6 0.000000 0.000000 0.000000 0.000653 0.000000 0.014015
#
#
# Mechanical properties :
#
#
# Convention : Reuss Voigt Hill
#
# Bulk Modulus (GPa) = 27.44155 77.53449 52.48802
# Shear Modulus (GPa) = 28.51073 47.31867 37.91470
#
# Velocity S-wave (km/s) = 3.37519 4.34821 3.89222
# Velocity P-wave (km/s) = 5.11409 7.49596 6.41651
#
# Compressibility (1/GPa) = 0.03644110
#
# Stress axis : x y z
#
# Youngs Moduli (GPa) = 86.72471 144.79017 23.70159
#
# Poissons Ratio (x) = 0.72049 0.16995
# Poissons Ratio (y) = 0.43155 -0.00125
# Poissons Ratio (z) = 0.62186 -0.00766
#
# Static dielectric constant tensor:
#      x y z
#    x 1.978160 0.000000 0.044970 
#    y 0.000000 1.969040 0.000000 
#    z 0.044970 0.000000 2.187350 
# 
# From -- ./inp_files/126735.got.cif
#   From: 2010.05.17/outbox.cif.g08.bks.cpg/sg15_64_cif.got.tgz:126735.got - 2010.06.03 18:47:42.
