data_PCOD9257155
_publ_section_title
;
Structure prediction by ZEFSAII (Michael W. Deem and Ramdas Pophale) SiO2 
 PCOD9257155
Probable space group: C 2/C
;
_chemical_formula_sum "Si O2"
_cell_formula_units_Z 60
_cell_length_a 30.529531
_cell_length_b 8.562662
_cell_length_c 19.606966
_cell_angle_alpha 90.000000
_cell_angle_beta 39.915665
_cell_angle_gamma 90.000000
_cell_volume 3288.848437
_symmetry_space_group_name_H-M "C 2/C"
_symmetry_group_IT_number 15
_symmetry_cell_setting 'monoclinic'
loop_
_space_group_symop_operation_xyz
x,y,z
-x,y,1/2-z
-x,-y,-z
x,-y,1/2+z
1/2+x,1/2+y,z
1/2-x,1/2+y,1/2-z
1/2-x,1/2-y,-z
1/2+x,1/2-y,1/2+z
loop_
_atom_site_type_symbol
_atom_site_label
_atom_site_fract_x
_atom_site_fract_y
_atom_site_fract_z
Si Si1 0.428432 0.177085 0.766354
Si Si2 0.705967 0.314162 0.615582
Si Si3 0.683107 0.683679 0.617986
Si Si4 0.070421 0.463356 0.084298
Si Si5 0.606677 0.305742 0.076987
Si Si6 0.289520 0.910287 0.644035
Si Si7 0.252471 0.273480 0.662231
Si Si8 0.000000 0.959012 0.750000
O O1 0.361361 0.206198 0.802409
O O2 0.413887 0.095320 0.856900
O O3 0.494005 0.089098 0.657719
O O4 0.455484 0.347455 0.755498
O O5 0.750000 0.250000 0.500000
O O6 0.688228 0.496448 0.621262
O O7 0.748780 0.315982 0.634128
O O8 0.750000 0.750000 0.500000
O O9 0.622496 0.722507 0.638613
O O10 0.689954 0.765202 0.683161
O O11 0.077869 0.649048 0.078331
O O12 0.129807 0.394365 0.966243
O O13 0.550670 0.439299 0.143809
O O14 0.679214 0.344223 0.954766
O O15 0.267162 0.857340 0.745082
O O16 0.271478 0.092556 0.654108
#
# Coordination Sequence:
#
# PCOD9257155 Si02
#       8
#     8   8   8   8   8   8   8   4
#     4  10  20  33  51  86 113 135 182 225 270 325
#     4  11  20  34  56  83 111 140 183 228 271 317
#     4   9  19  34  53  82 110 131 180 230 267 317
#     4   9  19  34  54  79 111 145 173 223 272 322
#     4  10  18  35  57  80 109 141 180 224 273 321
#     4  10  20  36  56  77 109 148 180 226 268 323
#     4   9  21  35  54  80 110 140 184 221 273 324
#     4  10  18  30  56  80 108 142 174 226 272 328
#
# _framework density 18.243468
#
# number of rings (size 3 to 8) (size 9 to 14) (size 15 to 20)
#    0.000    2.400    2.667    1.600    0.000    4.267 
#    0.000    0.000    2.933    4.000    0.000    0.000 
#    0.000    0.000    0.000    0.000    0.000    0.000 
#
# Total GULP energy -167257.315755 kJ/mol
# GULP energy per Si atom -5575.243859 kJ/mol
# Density = 1.820195 g / cm^3
# Si number density = 18.243468 Si / 1000 Ang^3
#
#
#
# Elastic Constant Matrix: (Units=GPa)
#
#
# Indices 1 2 3 4 5 6 
#
# 1 43.9599 1.6149 29.0809 0.0136 5.5861 -0.0104
# 2 1.6149 28.9130 16.5268 0.0096 -5.3089 -0.0099
# 3 29.0809 16.5268 100.6389 0.0042 0.1034 -0.0065
# 4 0.0136 0.0096 0.0042 25.3563 -0.0072 6.1878
# 5 5.5861 -5.3089 0.1034 -0.0072 26.9816 0.0067
# 6 -0.0104 -0.0099 -0.0065 6.1878 0.0067 13.9827
#
#
#
# Elastic Compliance Matrix: (Units=1/GPa)
#
#
# Indices 1 2 3 4 5 6 
#
# 1 0.029203 0.002397 -0.008827 -0.000025 -0.005541 0.000033
# 2 0.002397 0.039962 -0.007263 -0.000021 0.007394 0.000033
# 3 -0.008827 -0.007263 0.013679 0.000007 0.000346 -0.000009
# 4 -0.000025 -0.000021 0.000007 0.044213 0.000018 -0.019566
# 5 -0.005541 0.007394 0.000346 0.000018 0.039663 -0.000025
# 6 0.000033 0.000033 -0.000009 -0.019566 -0.000025 0.080175
#
#
# Mechanical properties :
#
#
# Convention : Reuss Voigt Hill
#
# Bulk Modulus (GPa) = 18.03113 29.77299 23.90206
# Shear Modulus (GPa) = 17.07845 21.68340 19.38093
#
# Velocity S-wave (km/s) = 3.06296 3.45129 3.26291
# Velocity P-wave (km/s) = 4.73435 5.67777 5.22738
#
# Compressibility (1/GPa) = 0.05545963
#
# Stress axis : x y z
#
# Youngs Moduli (GPa) = 34.24303 25.02385 73.10281
#
# Poissons Ratio (x) = -0.05998 0.64524
# Poissons Ratio (y) = -0.08208 0.53092
# Poissons Ratio (z) = 0.30225 0.18174
#
# Static dielectric constant tensor:
#      x y z
#    x 1.657230 -0.000020 -0.023400 
#    y -0.000020 1.659090 0.000010 
#    z -0.023400 0.000010 1.617910 
# 
# From -- ./inp_files/221877.got.cif
#   From: 2010.05.17/outbox.cif.g08.bks.cpg/sg15_111_cif.got.tgz:221877.got - 2010.06.03 18:47:42.
