data_PCOD9257119
_publ_section_title
;
Structure prediction by ZEFSAII (Michael W. Deem and Ramdas Pophale) SiO2 
 PCOD9257119
Probable space group: C 2/C
;
_chemical_formula_sum "Si O2"
_cell_formula_units_Z 44
_cell_length_a 9.829369
_cell_length_b 18.768208
_cell_length_c 22.453245
_cell_angle_alpha 90.000000
_cell_angle_beta 153.332569
_cell_angle_gamma 90.000000
_cell_volume 1859.050352
_symmetry_space_group_name_H-M "C 2/C"
_symmetry_group_IT_number 15
_symmetry_cell_setting 'monoclinic'
loop_
_space_group_symop_operation_xyz
x,y,z
-x,y,1/2-z
-x,-y,-z
x,-y,1/2+z
1/2+x,1/2+y,z
1/2-x,1/2+y,1/2-z
1/2-x,1/2-y,-z
1/2+x,1/2-y,1/2+z
loop_
_atom_site_type_symbol
_atom_site_label
_atom_site_fract_x
_atom_site_fract_y
_atom_site_fract_z
Si Si1 0.466107 0.532919 0.338185
Si Si2 0.090923 0.728797 0.119468
Si Si3 0.438771 0.078562 0.054600
Si Si4 0.478137 0.635546 0.976023
Si Si5 0.000000 0.528617 0.750000
Si Si6 0.491231 0.312232 0.607277
O O1 0.715568 0.471623 0.430905
O O2 0.242548 0.514278 0.306198
O O3 0.609599 0.610316 0.407045
O O4 0.233155 0.537905 0.192772
O O5 0.062363 0.652575 0.076307
O O6 0.182255 0.795520 0.115846
O O7 0.277054 0.717043 0.252633
O O8 0.750000 0.750000 0.000000
O O9 0.234794 0.103169 0.032598
O O10 0.210052 0.577192 0.875567
O O11 0.614913 0.664621 0.090775
O O12 0.250000 0.250000 0.500000
#
# Coordination Sequence:
#
# PCOD9257119 Si02
#       6
#     8   8   8   8   4   8
#     4  10  19  32  50  78 109 135 171 215 266 320
#     4   9  20  35  51  77 109 141 173 210 262 315
#     4   9  19  33  53  78 107 138 171 215 265 315
#     4  10  19  34  55  79 111 139 173 217 263 317
#     4  10  18  30  54  84 108 136 164 214 282 322
#     4  11  22  34  52  78 106 141 179 216 260 312
#
# _framework density 23.667995999999999
#
# number of rings (size 3 to 8) (size 9 to 14) (size 15 to 20)
#    0.000    2.182    0.000    3.273    0.000   11.636 
#    0.000    0.000    0.000    1.091    0.000   17.818 
#    0.000    0.000    0.000    0.000    0.000    0.000 
#
# Total GULP energy -122914.061663 kJ/mol
# GULP energy per Si atom -5587.002803 kJ/mol
# Density = 2.361413 g / cm^3
# Si number density = 23.667996 Si / 1000 Ang^3
#
#
#
# Elastic Constant Matrix: (Units=GPa)
#
#
# Indices 1 2 3 4 5 6 
#
# 1 90.0603 28.5136 24.5949 -0.0032 4.6940 -0.0038
# 2 28.5136 159.7383 103.9776 0.0041 2.1869 0.0010
# 3 24.5949 103.9776 149.2777 0.0066 2.4760 -0.0001
# 4 -0.0032 0.0041 0.0066 54.2179 -0.0022 -2.8462
# 5 4.6940 2.1869 2.4760 -0.0022 23.8841 -0.0032
# 6 -0.0038 0.0010 -0.0001 -2.8462 -0.0032 10.9796
#
#
#
# Elastic Compliance Matrix: (Units=1/GPa)
#
#
# Indices 1 2 3 4 5 6 
#
# 1 0.011937 -0.001545 -0.000856 0.000001 -0.002116 0.000004
# 2 -0.001545 0.011654 -0.007864 0.000000 0.000052 -0.000002
# 3 -0.000856 -0.007864 0.012324 -0.000001 -0.000389 0.000000
# 4 0.000001 0.000000 -0.000001 0.018699 0.000002 0.004847
# 5 -0.002116 0.000052 -0.000389 0.000002 0.042320 0.000012
# 6 0.000004 -0.000002 0.000000 0.004847 0.000012 0.092335
#
#
# Mechanical properties :
#
#
# Convention : Reuss Voigt Hill
#
# Bulk Modulus (GPa) = 64.99369 79.24984 72.12177
# Shear Modulus (GPa) = 23.26389 33.94898 28.60643
#
# Velocity S-wave (km/s) = 3.13857 3.79143 3.48034
# Velocity P-wave (km/s) = 6.37607 7.26108 6.83292
#
# Compressibility (1/GPa) = 0.01538611
#
# Stress axis : x y z
#
# Youngs Moduli (GPa) = 83.77515 85.80711 81.14392
#
# Poissons Ratio (x) = 0.13256 0.06942
# Poissons Ratio (y) = 0.12942 0.63810
# Poissons Ratio (z) = 0.07167 0.67477
#
# Static dielectric constant tensor:
#      x y z
#    x 1.694220 0.000040 -0.199390 
#    y 0.000040 1.923730 0.000020 
#    z -0.199390 0.000020 1.733950 
# 
# From -- ./inp_files/314300.got.cif
#   From: 2010.05.17/outbox.cif.g08.bks.cpg/sg15_158_cif.got.tgz:314300.got - 2010.06.03 18:47:42.
