data_PCOD9257987
_publ_section_title
;
Structure prediction by ZEFSAII (Michael W. Deem and Ramdas Pophale) SiO2 
 PCOD9257987
Probable space group: C 2/C
;
_chemical_formula_sum "Si O2"
_cell_formula_units_Z 56
_cell_length_a 9.640668
_cell_length_b 15.790805
_cell_length_c 29.487308
_cell_angle_alpha 90.000000
_cell_angle_beta 41.442120
_cell_angle_gamma 90.000000
_cell_volume 2971.082453
_symmetry_space_group_name_H-M "C 2/C"
_symmetry_group_IT_number 15
_symmetry_cell_setting 'monoclinic'
loop_
_space_group_symop_operation_xyz
x,y,z
-x,y,1/2-z
-x,-y,-z
x,-y,1/2+z
1/2+x,1/2+y,z
1/2-x,1/2+y,1/2-z
1/2-x,1/2-y,-z
1/2+x,1/2-y,1/2+z
loop_
_atom_site_type_symbol
_atom_site_label
_atom_site_fract_x
_atom_site_fract_y
_atom_site_fract_z
Si Si1 0.680455 0.408509 0.413771
Si Si2 0.683047 0.919785 0.841768
Si Si3 0.937174 0.893051 0.690165
Si Si4 0.148442 0.384598 0.324770
Si Si5 0.278582 0.784457 0.827139
Si Si6 0.742154 0.932712 0.203783
Si Si7 0.724652 0.605873 0.428978
O O1 0.670250 0.389003 0.362770
O O2 0.697684 0.511365 0.414152
O O3 0.477972 0.379100 0.490650
O O4 0.897592 0.375198 0.381608
O O5 0.786339 0.880980 0.770871
O O6 0.440921 0.895720 0.903890
O O7 0.829094 0.896380 0.847871
O O8 0.695367 0.020910 0.830520
O O9 0.896947 0.821345 0.663525
O O10 0.866704 0.981789 0.684935
O O11 0.251481 0.315958 0.331849
O O12 0.234164 0.379068 0.252036
O O13 0.500000 0.808464 0.750000
O O14 0.251398 0.827543 0.882097
O O15 0.500000 0.954881 0.250000
#
# Coordination Sequence:
#
# PCOD9257987 Si02
#       7
#     8   8   8   8   8   8   8
#     4   9  18  36  60  82 113 161 191 227 278 355
#     4   9  19  36  54  82 112 145 186 235 283 335
#     4  10  18  32  57  78 112 144 183 240 281 322
#     4   9  21  34  57  85 112 143 190 239 287 332
#     4  12  22  34  56  90 112 143 189 246 288 334
#     4   9  16  33  57  81 107 149 195 229 277 347
#     4  10  19  35  60  84 116 150 199 229 279 341
#
# _framework density 18.84835
#
# number of rings (size 3 to 8) (size 9 to 14) (size 15 to 20)
#    0.000    2.286    2.857    1.286    4.000    0.571 
#    7.714    0.714    0.000    3.429    0.000    0.000 
#    0.000    0.000    0.000    0.000    0.000    0.000 
#
# Total GULP energy -156290.944619 kJ/mol
# GULP energy per Si atom -5581.819451 kJ/mol
# Density = 1.880545 g / cm^3
# Si number density = 18.848350 Si / 1000 Ang^3
#
#
#
# Elastic Constant Matrix: (Units=GPa)
#
#
# Indices 1 2 3 4 5 6 
#
# 1 93.0831 13.1037 33.9880 -0.0003 -2.9395 0.0008
# 2 13.1037 35.2437 19.1058 0.0000 2.7922 0.0003
# 3 33.9880 19.1058 109.6665 0.0002 -10.8991 0.0006
# 4 -0.0003 0.0000 0.0002 12.5713 0.0003 2.7849
# 5 -2.9395 2.7922 -10.8991 0.0003 16.7558 -0.0008
# 6 0.0008 0.0003 0.0006 2.7849 -0.0008 23.8005
#
#
#
# Elastic Compliance Matrix: (Units=1/GPa)
#
#
# Indices 1 2 3 4 5 6 
#
# 1 0.012360 -0.002856 -0.003282 0.000000 0.000509 0.000000
# 2 -0.002856 0.033435 -0.005926 0.000000 -0.009928 -0.000001
# 3 -0.003282 -0.005926 0.011984 -0.000001 0.008207 0.000000
# 4 0.000000 0.000000 -0.000001 0.081663 -0.000002 -0.009556
# 5 0.000509 -0.009928 0.008207 -0.000002 0.066763 0.000002
# 6 0.000000 -0.000001 0.000000 -0.009556 0.000002 0.043134
#
#
# Mechanical properties :
#
#
# Convention : Reuss Voigt Hill
#
# Bulk Modulus (GPa) = 29.71885 41.15425 35.43655
# Shear Modulus (GPa) = 17.56328 22.07859 19.82093
#
# Velocity S-wave (km/s) = 3.05588 3.42626 3.24636
# Velocity P-wave (km/s) = 5.31534 6.12651 5.73528
#
# Compressibility (1/GPa) = 0.03364867
#
# Stress axis : x y z
#
# Youngs Moduli (GPa) = 80.90772 29.90871 83.44508
#
# Poissons Ratio (x) = 0.08543 0.27389
# Poissons Ratio (y) = 0.23110 0.49453
# Poissons Ratio (z) = 0.26557 0.17725
#
# Static dielectric constant tensor:
#      x y z
#    x 1.645920 0.000000 -0.006230 
#    y 0.000000 1.666310 0.000000 
#    z -0.006230 0.000000 1.642760 
# 
# From -- ./inp_files/289382.got.cif
#   From: 2010.05.17/outbox.cif.g08.bks.cpg/sg15_145_cif.got.tgz:289382.got - 2010.06.03 18:47:42.
