data_PCOD9257326
_publ_section_title
;
Structure prediction by ZEFSAII (Michael W. Deem and Ramdas Pophale) SiO2 
 PCOD9257326
Probable space group: C 2/C
;
_chemical_formula_sum "Si O2"
_cell_formula_units_Z 56
_cell_length_a 8.527321
_cell_length_b 19.467989
_cell_length_c 23.059524
_cell_angle_alpha 90.000000
_cell_angle_beta 140.423471
_cell_angle_gamma 90.000000
_cell_volume 2438.918590
_symmetry_space_group_name_H-M "C 2/C"
_symmetry_group_IT_number 15
_symmetry_cell_setting 'monoclinic'
loop_
_space_group_symop_operation_xyz
x,y,z
-x,y,1/2-z
-x,-y,-z
x,-y,1/2+z
1/2+x,1/2+y,z
1/2-x,1/2+y,1/2-z
1/2-x,1/2-y,-z
1/2+x,1/2-y,1/2+z
loop_
_atom_site_type_symbol
_atom_site_label
_atom_site_fract_x
_atom_site_fract_y
_atom_site_fract_z
Si Si1 0.617636 0.132009 0.664881
Si Si2 0.794538 0.792263 0.315709
Si Si3 0.911618 0.112205 0.947555
Si Si4 0.705988 0.142044 0.151842
Si Si5 0.080890 0.042434 0.094007
Si Si6 0.435117 0.074780 0.505471
Si Si7 0.779899 0.984248 0.735484
O O1 0.785292 0.186477 0.745663
O O2 0.330870 0.148814 0.594841
O O3 0.636391 0.112649 0.602609
O O4 0.671320 0.059476 0.711601
O O5 0.500000 0.797605 0.250000
O O6 0.951764 0.844203 0.400536
O O7 0.884776 0.715531 0.353462
O O8 0.861553 0.033705 0.912388
O O9 0.119060 0.101401 0.056202
O O10 0.655165 0.125598 0.070410
O O11 0.615607 0.073643 0.158563
O O12 0.000000 0.144070 0.250000
O O13 0.167641 0.044957 0.185351
O O14 0.788846 0.052761 0.017373
O O15 0.500000 0.000000 0.500000
O O16 0.000000 0.993213 0.750000
#
# Coordination Sequence:
#
# PCOD9257326 Si02
#       7
#     8   8   8   8   8   8   8
#     4  10  19  32  53  79 103 135 175 214 256 316
#     4   9  18  34  49  72 105 137 171 207 261 312
#     4   9  19  32  51  77 100 135 172 207 261 304
#     4  10  19  33  50  76 106 132 168 213 264 305
#     4  10  18  31  51  78 101 129 172 218 250 303
#     4  11  19  32  52  81 106 130 174 218 266 304
#     4  11  18  31  53  79 101 133 174 218 261 299
#
# _framework density 22.960996000000002
#
# number of rings (size 3 to 8) (size 9 to 14) (size 15 to 20)
#    0.000    2.000    5.714    0.000    0.000    0.000 
#    2.571    2.857    0.000    0.857    3.714    0.000 
#    0.000    0.000    0.000    0.000    0.000    0.000 
#
# Total GULP energy -155891.798337 kJ/mol
# GULP energy per Si atom -5567.564226 kJ/mol
# Density = 2.290874 g / cm^3
# Si number density = 22.960996 Si / 1000 Ang^3
#
#
#
# Elastic Constant Matrix: (Units=GPa)
#
#
# Indices 1 2 3 4 5 6 
#
# 1 51.6120 -3.1991 25.0585 0.0005 -0.8161 0.0007
# 2 -3.1991 107.5233 41.2679 0.0006 -15.4443 0.0008
# 3 25.0585 41.2679 129.9129 0.0000 -49.6274 0.0009
# 4 0.0005 0.0006 0.0000 19.1259 0.0001 -5.5875
# 5 -0.8161 -15.4443 -49.6274 0.0001 33.4013 0.0006
# 6 0.0007 0.0008 0.0009 -5.5875 0.0006 15.8279
#
#
#
# Elastic Compliance Matrix: (Units=1/GPa)
#
#
# Indices 1 2 3 4 5 6 
#
# 1 0.024935 0.002999 -0.011562 -0.000001 -0.015184 0.000000
# 2 0.002999 0.010953 -0.004845 -0.000001 -0.002061 -0.000001
# 3 -0.011562 -0.004845 0.024289 0.000000 0.033566 -0.000002
# 4 -0.000001 -0.000001 0.000000 0.058297 -0.000001 0.020580
# 5 -0.015184 -0.002061 0.033566 -0.000001 0.078487 -0.000005
# 6 0.000000 -0.000001 -0.000002 0.020580 -0.000005 0.070444
#
#
# Mechanical properties :
#
#
# Convention : Reuss Voigt Hill
#
# Bulk Modulus (GPa) = 29.97637 46.14477 38.06057
# Shear Modulus (GPa) = 16.37501 28.73240 22.55371
#
# Velocity S-wave (km/s) = 2.67341 3.54129 3.13751
# Velocity P-wave (km/s) = 4.75534 6.07138 5.45320
#
# Compressibility (1/GPa) = 0.03335961
#
# Stress axis : x y z
#
# Youngs Moduli (GPa) = 40.10451 91.29887 41.17073
#
# Poissons Ratio (x) = -0.27377 0.47603
# Poissons Ratio (y) = -0.12026 0.19947
# Poissons Ratio (z) = 0.46370 0.44234
#
# Static dielectric constant tensor:
#      x y z
#    x 2.016060 0.000000 -0.064690 
#    y 0.000000 1.844140 0.000000 
#    z -0.064690 0.000000 2.019940 
# 
# From -- ./inp_files/199293.got.cif
#   From: 2010.05.17/outbox.cif.g08.bks.cpg/sg15_100_cif.got.tgz:199293.got - 2010.06.03 18:47:42.
