data_PCOD9257978
_publ_section_title
;
Structure prediction by ZEFSAII (Michael W. Deem and Ramdas Pophale) SiO2 
 PCOD9257978
Probable space group: C 2/C
;
_chemical_formula_sum "Si O2"
_cell_formula_units_Z 60
_cell_length_a 22.468900
_cell_length_b 19.203513
_cell_length_c 6.547143
_cell_angle_alpha 90.000000
_cell_angle_beta 116.343241
_cell_angle_gamma 90.000000
_cell_volume 2531.604731
_symmetry_space_group_name_H-M "C 2/C"
_symmetry_group_IT_number 15
_symmetry_cell_setting 'monoclinic'
loop_
_space_group_symop_operation_xyz
x,y,z
-x,y,1/2-z
-x,-y,-z
x,-y,1/2+z
1/2+x,1/2+y,z
1/2-x,1/2+y,1/2-z
1/2-x,1/2-y,-z
1/2+x,1/2-y,1/2+z
loop_
_atom_site_type_symbol
_atom_site_label
_atom_site_fract_x
_atom_site_fract_y
_atom_site_fract_z
Si Si1 0.302047 0.406165 0.505444
Si Si2 0.066555 0.926461 0.968641
Si Si3 0.275747 0.173684 0.971797
Si Si4 0.446360 0.018076 0.039931
Si Si5 0.606210 0.837652 0.145751
Si Si6 0.411817 0.313410 0.785892
Si Si7 0.684882 0.073875 0.097572
Si Si8 0.000000 0.107276 0.750000
O O1 0.427742 0.344820 0.587386
O O2 0.269839 0.365296 0.265908
O O3 0.248151 0.448005 0.555435
O O4 0.337069 0.344992 0.695711
O O5 0.000000 0.948895 0.750000
O O6 0.136595 0.951877 0.987131
O O7 0.051991 0.931760 0.182684
O O8 0.345397 0.184457 0.962418
O O9 0.250000 0.250000 0.000000
O O10 0.289012 0.118699 0.172637
O O11 0.370509 0.983857 0.931067
O O12 0.463949 0.994775 0.819570
O O13 0.440251 0.101303 0.004682
O O14 0.647114 0.872024 0.392059
O O15 0.575884 0.767381 0.183741
O O16 0.455696 0.349870 0.024617
#
# Coordination Sequence:
#
# PCOD9257978 Si02
#       8
#     8   8   8   8   8   8   8   4
#     4   9  21  38  60  89 132 170 219 272 345 416
#     4   8  18  34  54  88 133 172 202 249 320 407
#     4  11  23  37  64  94 122 166 229 288 356 415
#     4  12  25  48  67  89 127 184 249 294 331 380
#     4  11  24  41  62  92 124 176 234 290 339 394
#     4   9  20  35  56  93 136 172 219 270 333 404
#     4  11  24  43  63  85 124 174 227 297 342 396
#     4  10  18  32  56  88 138 174 208 246 314 416
#
# _framework density 23.700381
#
# number of rings (size 3 to 8) (size 9 to 14) (size 15 to 20)
#    0.800    1.067    1.333    2.400    4.667    2.133 
#    7.200    0.000    0.000    0.000    0.000    0.000 
#    0.000    4.267    3.067    2.933    1.600    0.400 
#
# Total GULP energy -167379.892509 kJ/mol
# GULP energy per Si atom -5579.329750 kJ/mol
# Density = 2.364644 g / cm^3
# Si number density = 23.700381 Si / 1000 Ang^3
#
#
#
# Elastic Constant Matrix: (Units=GPa)
#
#
# Indices 1 2 3 4 5 6 
#
# 1 188.1678 70.8154 55.3022 0.0000 -13.7856 0.0000
# 2 70.8154 136.7923 40.8783 0.0000 -4.1181 0.0000
# 3 55.3022 40.8783 137.0525 0.0000 9.5428 0.0000
# 4 0.0000 0.0000 0.0000 31.8378 0.0000 -7.0417
# 5 -13.7856 -4.1181 9.5428 0.0000 40.6594 0.0000
# 6 0.0000 0.0000 0.0000 -7.0417 0.0000 33.6229
#
#
#
# Elastic Compliance Matrix: (Units=1/GPa)
#
#
# Indices 1 2 3 4 5 6 
#
# 1 0.007311 -0.003036 -0.002232 0.000000 0.002695 0.000000
# 2 -0.003036 0.009366 -0.001589 0.000000 0.000292 0.000000
# 3 -0.002232 -0.001589 0.008880 0.000000 -0.003002 0.000000
# 4 0.000000 0.000000 0.000000 0.032935 0.000000 0.006898
# 5 0.002695 0.000292 -0.003002 0.000000 0.026242 0.000000
# 6 0.000000 0.000000 0.000000 0.006898 0.000000 0.031186
#
#
# Mechanical properties :
#
#
# Convention : Reuss Voigt Hill
#
# Bulk Modulus (GPa) = 84.44234 88.44494 86.44364
# Shear Modulus (GPa) = 37.43050 40.89177 39.16114
#
# Velocity S-wave (km/s) = 3.97838 4.15826 4.06931
# Velocity P-wave (km/s) = 7.53723 7.77520 7.65714
#
# Compressibility (1/GPa) = 0.01184240
#
# Stress axis : x y z
#
# Youngs Moduli (GPa) = 136.78899 106.77133 112.61408
#
# Poissons Ratio (x) = 0.32421 0.25134
# Poissons Ratio (y) = 0.41536 0.17890
# Poissons Ratio (z) = 0.30529 0.16962
#
# Static dielectric constant tensor:
#      x y z
#    x 2.023220 0.000000 0.010230 
#    y 0.000000 1.873620 0.000000 
#    z 0.010230 0.000000 1.911730 
# 
# From -- ./inp_files/17695.got.cif
#   From: 2010.05.17/outbox.cif.g08.bks.cpg/sg15_9_cif.got.tgz:17695.got - 2010.06.03 18:47:42.
