data_PCOD9257701
_publ_section_title
;
Structure prediction by ZEFSAII (Michael W. Deem and Ramdas Pophale) SiO2 
 PCOD9257701
Probable space group: C 2/C
;
_chemical_formula_sum "Si O2"
_cell_formula_units_Z 64
_cell_length_a 23.466979
_cell_length_b 13.760354
_cell_length_c 13.043852
_cell_angle_alpha 90.000000
_cell_angle_beta 73.837802
_cell_angle_gamma 90.000000
_cell_volume 4045.571401
_symmetry_space_group_name_H-M "C 2/C"
_symmetry_group_IT_number 15
_symmetry_cell_setting 'monoclinic'
loop_
_space_group_symop_operation_xyz
x,y,z
-x,y,1/2-z
-x,-y,-z
x,-y,1/2+z
1/2+x,1/2+y,z
1/2-x,1/2+y,1/2-z
1/2-x,1/2-y,-z
1/2+x,1/2-y,1/2+z
loop_
_atom_site_type_symbol
_atom_site_label
_atom_site_fract_x
_atom_site_fract_y
_atom_site_fract_z
Si Si1 0.069188 0.498272 0.216713
Si Si2 0.568929 0.763463 0.218006
Si Si3 0.741234 0.147379 0.637638
Si Si4 0.339036 0.744195 0.153296
Si Si5 0.345179 0.230811 0.993160
Si Si6 0.247692 0.584131 0.150641
Si Si7 0.159696 0.402320 0.514037
Si Si8 0.851662 0.430597 0.638738
O O1 0.073735 0.381407 0.203519
O O2 0.099799 0.526065 0.308805
O O3 0.000000 0.524006 0.250000
O O4 0.106446 0.555054 0.111102
O O5 0.500000 0.737913 0.250000
O O6 0.603051 0.735067 0.304604
O O7 0.606348 0.720939 0.104424
O O8 0.708184 0.195470 0.751800
O O9 0.698022 0.170450 0.562578
O O10 0.803046 0.197424 0.577129
O O11 0.750355 0.032888 0.647494
O O12 0.307513 0.643322 0.139792
O O13 0.353255 0.806439 0.045061
O O14 0.374929 0.155833 0.056379
O O15 0.202327 0.608029 0.265493
O O16 0.215190 0.613660 0.061465
O O17 0.171633 0.485457 0.424217
#
# Coordination Sequence:
#
# PCOD9257701 Si02
#       8
#     8   8   8   8   8   8   8   8
#     4  10  21  32  48  74 104 137 172 200 244 312
#     4  10  20  33  51  77  99 131 180 212 242 295
#     4  10  19  31  52  78 100 130 172 202 249 311
#     4  11  20  33  51  75 107 137 161 208 262 300
#     4  10  18  32  52  75 102 134 164 209 252 292
#     4  11  21  32  49  76 106 134 167 204 254 311
#     4  11  19  32  48  74 107 138 159 201 252 309
#     4  11  17  31  51  71 106 136 160 202 253 297
#
# _framework density 15.819768
#
# number of rings (size 3 to 8) (size 9 to 14) (size 15 to 20)
#    0.000    1.500    6.250    1.875    0.000    1.500 
#    0.000    0.000    0.000    0.750    0.000    1.750 
#    0.000    0.000    0.000    0.000    0.000    0.000 
#
# Total GULP energy -178435.683805 kJ/mol
# GULP energy per Si atom -5576.115119 kJ/mol
# Density = 1.578376 g / cm^3
# Si number density = 15.819768 Si / 1000 Ang^3
#
#
#
# Elastic Constant Matrix: (Units=GPa)
#
#
# Indices 1 2 3 4 5 6 
#
# 1 104.8176 25.0531 40.0430 0.0000 -4.4801 0.0000
# 2 25.0531 38.2405 14.3174 0.0000 4.7381 0.0000
# 3 40.0430 14.3174 76.1705 0.0000 14.5541 0.0000
# 4 0.0000 0.0000 0.0000 18.0421 0.0000 -0.1645
# 5 -4.4801 4.7381 14.5541 0.0000 14.4850 0.0000
# 6 0.0000 0.0000 0.0000 -0.1645 0.0000 23.1744
#
#
#
# Elastic Compliance Matrix: (Units=1/GPa)
#
#
# Indices 1 2 3 4 5 6 
#
# 1 0.016589 -0.009236 -0.010572 0.000000 0.018775 0.000000
# 2 -0.009236 0.033546 0.001476 0.000000 -0.015313 0.000000
# 3 -0.010572 0.001476 0.023670 0.000000 -0.027536 0.000000
# 4 0.000000 0.000000 0.000000 0.055429 0.000000 0.000393
# 5 0.018775 -0.015313 -0.027536 0.000000 0.107520 0.000000
# 6 0.000000 0.000000 0.000000 0.000393 0.000000 0.043154
#
#
# Mechanical properties :
#
#
# Convention : Reuss Voigt Hill
#
# Bulk Modulus (GPa) = 26.92502 42.00621 34.46561
# Shear Modulus (GPa) = 15.19964 20.46130 17.83047
#
# Velocity S-wave (km/s) = 3.10304 3.60029 3.36087
# Velocity P-wave (km/s) = 5.46766 6.62521 6.07407
#
# Compressibility (1/GPa) = 0.03714018
#
# Stress axis : x y z
#
# Youngs Moduli (GPa) = 60.27933 29.80963 42.24707
#
# Poissons Ratio (x) = 0.27533 0.44665
# Poissons Ratio (y) = 0.55677 -0.06235
# Poissons Ratio (z) = 0.63729 -0.04400
#
# Static dielectric constant tensor:
#      x y z
#    x 1.519880 0.000000 -0.002760 
#    y 0.000000 1.527320 0.000000 
#    z -0.002760 0.000000 1.548640 
# 
# From -- ./inp_files/118543.got.cif
#   From: 2010.05.17/outbox.cif.g08.bks.cpg/sg15_60_cif.got.tgz:118543.got - 2010.06.03 18:47:42.
