data_PCOD9257666
_publ_section_title
;
Structure prediction by ZEFSAII (Michael W. Deem and Ramdas Pophale) SiO2 
 PCOD9257666
Probable space group: C 2/C
;
_chemical_formula_sum "Si O2"
_cell_formula_units_Z 64
_cell_length_a 17.221234
_cell_length_b 31.483802
_cell_length_c 8.425665
_cell_angle_alpha 90.000000
_cell_angle_beta 60.708041
_cell_angle_gamma 90.000000
_cell_volume 3984.197056
_symmetry_space_group_name_H-M "C 2/C"
_symmetry_group_IT_number 15
_symmetry_cell_setting 'monoclinic'
loop_
_space_group_symop_operation_xyz
x,y,z
-x,y,1/2-z
-x,-y,-z
x,-y,1/2+z
1/2+x,1/2+y,z
1/2-x,1/2+y,1/2-z
1/2-x,1/2-y,-z
1/2+x,1/2-y,1/2+z
loop_
_atom_site_type_symbol
_atom_site_label
_atom_site_fract_x
_atom_site_fract_y
_atom_site_fract_z
Si Si1 0.805356 0.707788 0.255158
Si Si2 0.305356 0.792212 0.134130
Si Si3 0.500000 0.774270 0.440343
Si Si4 0.103098 0.953054 0.455405
Si Si5 0.682687 0.366835 0.375156
Si Si6 0.000000 0.177380 0.057361
Si Si7 0.317313 0.633165 0.240531
Si Si8 0.603098 0.453054 0.838399
O O1 0.750000 0.750000 0.251757
O O2 0.806431 0.710373 0.443569
O O3 0.757244 0.664382 0.251420
O O4 0.906451 0.707339 0.092487
O O5 0.406451 0.792661 0.094612
O O6 0.257244 0.835618 0.234091
O O7 0.500000 0.775045 0.250000
O O8 0.500000 0.725511 0.497557
O O9 0.170770 0.915903 0.336788
O O10 0.102052 0.952827 0.647948
O O11 1.000000 0.944209 0.507929
O O12 0.126372 1.000000 0.373628
O O13 0.589183 0.345850 0.418746
O O14 0.688967 0.365907 0.561033
O O15 0.910817 0.154150 0.097113
O O16 0.000000 0.177193 0.250000
O O17 0.329230 0.584097 0.178328
#
# Coordination Sequence:
#
# PCOD9257666 Si02
#       8
#     8   8   8   8   8   8   8   8
#     4  11  23  35  48  72 105 134 163 207 258 300
#     4  11  23  35  48  72 105 134 163 207 258 300
#     4  11  21  35  55  72  93 133 177 212 244 289
#     4   9  17  29  47  71 101 132 165 207 250 294
#     4  10  18  32  51  72  97 134 178 210 240 290
#     4   9  16  27  48  72  96 127 170 213 239 272
#     4  10  18  32  51  72  97 134 178 210 240 290
#     4   9  17  29  47  71 101 132 165 207 250 294
#
# _framework density 16.063462999999999
#
# number of rings (size 3 to 8) (size 9 to 14) (size 15 to 20)
#    0.000    2.000    3.750    1.125    0.000    2.000 
#    0.000    0.625    0.000    0.000    0.000    0.875 
#    0.000    0.000    0.000    0.000    0.000    0.000 
#
# Total GULP energy -178362.805141 kJ/mol
# GULP energy per Si atom -5573.837661 kJ/mol
# Density = 1.602690 g / cm^3
# Si number density = 16.063463 Si / 1000 Ang^3
#
#
#
# Elastic Constant Matrix: (Units=GPa)
#
#
# Indices 1 2 3 4 5 6 
#
# 1 94.3039 65.1707 34.1359 0.0000 -24.7505 0.0000
# 2 65.1707 143.4999 37.5784 0.0000 -19.4370 0.0000
# 3 34.1359 37.5784 39.6737 0.0000 -13.7332 0.0000
# 4 0.0000 0.0000 0.0000 21.4555 0.0000 3.8131
# 5 -24.7505 -19.4370 -13.7332 0.0000 20.2775 0.0000
# 6 0.0000 0.0000 0.0000 3.8131 0.0000 16.0425
#
#
#
# Elastic Compliance Matrix: (Units=1/GPa)
#
#
# Indices 1 2 3 4 5 6 
#
# 1 0.021285 -0.005558 -0.007708 0.000000 0.015433 0.000000
# 2 -0.005558 0.010953 -0.005625 0.000000 -0.000095 0.000000
# 3 -0.007708 -0.005625 0.041855 0.000000 0.013547 0.000000
# 4 0.000000 0.000000 0.000000 0.048664 0.000000 -0.011567
# 5 0.015433 -0.000095 0.013547 0.000000 0.077237 0.000000
# 6 0.000000 0.000000 0.000000 -0.011567 0.000000 0.065084
#
#
# Mechanical properties :
#
#
# Convention : Reuss Voigt Hill
#
# Bulk Modulus (GPa) = 27.53944 61.24970 44.39457
# Shear Modulus (GPa) = 15.87485 20.92794 18.40139
#
# Velocity S-wave (km/s) = 3.14707 3.61339 3.38826
# Velocity P-wave (km/s) = 5.51242 7.45797 6.55775
#
# Compressibility (1/GPa) = 0.03631156
#
# Stress axis : x y z
#
# Youngs Moduli (GPa) = 46.98038 91.29871 23.89212
#
# Poissons Ratio (x) = 0.50744 0.18415
# Poissons Ratio (y) = 0.26112 0.13440
# Poissons Ratio (z) = 0.36211 0.51357
#
# Static dielectric constant tensor:
#      x y z
#    x 1.538720 0.000000 0.009550 
#    y 0.000000 1.556130 0.000000 
#    z 0.009550 0.000000 1.552270 
# 
# From -- ./inp_files/43501.got.cif
#   From: 2010.05.17/outbox.cif.g08.bks.cpg/sg15_22_cif.got.tgz:43501.got - 2010.06.03 18:47:42.
