data_PCOD9257856
_publ_section_title
;
Structure prediction by ZEFSAII (Michael W. Deem and Ramdas Pophale) SiO2 
 PCOD9257856
Probable space group: C 2/C
;
_chemical_formula_sum "Si O2"
_cell_formula_units_Z 36
_cell_length_a 12.127922
_cell_length_b 20.581791
_cell_length_c 4.989205
_cell_angle_alpha 90.000000
_cell_angle_beta 100.305789
_cell_angle_gamma 90.000000
_cell_volume 1225.285481
_symmetry_space_group_name_H-M "C 2/C"
_symmetry_group_IT_number 15
_symmetry_cell_setting 'monoclinic'
loop_
_space_group_symop_operation_xyz
x,y,z
-x,y,1/2-z
-x,-y,-z
x,-y,1/2+z
1/2+x,1/2+y,z
1/2-x,1/2+y,1/2-z
1/2-x,1/2-y,-z
1/2+x,1/2-y,1/2+z
loop_
_atom_site_type_symbol
_atom_site_label
_atom_site_fract_x
_atom_site_fract_y
_atom_site_fract_z
Si Si1 0.379996 0.251340 0.853155
Si Si2 0.655983 0.461933 0.367068
Si Si3 0.500000 0.170763 0.250000
Si Si4 0.894333 0.435430 0.307475
Si Si5 0.715530 0.353491 0.030981
O O1 0.500000 0.241677 0.750000
O O2 0.343238 0.323616 0.752842
O O3 0.282653 0.203920 0.706605
O O4 0.402375 0.225608 0.163488
O O5 0.618969 0.480961 0.646401
O O6 0.792566 0.461952 0.439554
O O7 0.635860 0.394645 0.197614
O O8 0.543700 0.121523 0.497273
O O9 0.820046 0.402515 0.035125
O O10 0.000000 0.475895 0.250000
#
# Coordination Sequence:
#
# PCOD9257856 Si02
#       5
#     8   8   4   8   8
#     4  10  19  36  56  81 115 151 191 242 297 355
#     4  10  23  39  60  86 119 161 202 241 292 356
#     4  10  18  32  54  84 112 146 188 246 278 362
#     4   9  20  34  53  78 120 146 193 239 290 349
#     4   8  19  38  54  82 115 151 194 241 296 345
#
# _framework density 29.380908999999999
#
# number of rings (size 3 to 8) (size 9 to 14) (size 15 to 20)
#    1.333    1.333    0.000    2.667    3.111    0.889 
#    4.000    8.889    0.000    1.333    0.000    0.000 
#    0.000    0.000    0.000    0.000    0.000    0.000 
#
# Total GULP energy -100337.803284 kJ/mol
# GULP energy per Si atom -5574.322405 kJ/mol
# Density = 2.931404 g / cm^3
# Si number density = 29.380909 Si / 1000 Ang^3
#
#
#
# Elastic Constant Matrix: (Units=GPa)
#
#
# Indices 1 2 3 4 5 6 
#
# 1 133.3967 13.1539 21.9041 0.0000 -0.7150 0.0000
# 2 13.1539 137.2408 76.3285 0.0000 18.6164 0.0000
# 3 21.9041 76.3285 185.6807 0.0000 9.9923 0.0000
# 4 0.0000 0.0000 0.0000 57.7693 0.0000 11.5626
# 5 -0.7150 18.6164 9.9923 0.0000 31.1780 0.0000
# 6 0.0000 0.0000 0.0000 11.5626 0.0000 1.2557
#
#
#
# Elastic Compliance Matrix: (Units=1/GPa)
#
#
# Indices 1 2 3 4 5 6 
#
# 1 0.007666 -0.000391 -0.000779 0.000000 0.000659 0.000000
# 2 -0.000391 0.010122 -0.003855 0.000000 -0.004817 0.000000
# 3 -0.000779 -0.003855 0.007061 0.000000 0.000021 0.000000
# 4 0.000000 0.000000 0.000000 -0.020535 0.000000 0.189082
# 5 0.000659 -0.004817 0.000021 0.000000 0.034958 0.000000
# 6 0.000000 0.000000 0.000000 0.189082 0.000000 -0.944696
#
#
# Mechanical properties :
#
#
# Convention : Reuss Voigt Hill
#
# Bulk Modulus (GPa) = 67.57467 75.45459 71.51463
# Shear Modulus (GPa) = -5.61520 41.03605 17.71043
#
# Velocity S-wave (km/s) = -1.38395 3.74129 2.45784
# Velocity P-wave (km/s) = 4.52722 6.66335 5.69631
#
# Compressibility (1/GPa) = 0.01479844
#
# Stress axis : x y z
#
# Youngs Moduli (GPa) = 130.43850 98.79907 141.61856
#
# Poissons Ratio (x) = 0.03861 0.11035
# Poissons Ratio (y) = 0.05098 0.54599
# Poissons Ratio (z) = 0.10164 0.38091
#
# Static dielectric constant tensor:
#      x y z
#    x 2.325770 0.000000 -0.075410 
#    y 0.000000 2.342780 0.000000 
#    z -0.075410 0.000000 2.331110 
# 
# From -- ./inp_files/10481.got.cif
#   From: 2010.05.17/outbox.cif.g08.bks.cpg/sg15_6_cif.got.tgz:10481.got - 2010.06.03 18:47:42.
