data_PCOD9257905
_publ_section_title
;
Structure prediction by ZEFSAII (Michael W. Deem and Ramdas Pophale) SiO2 
 PCOD9257905
Probable space group: C 2/C
;
_chemical_formula_sum "Si O2"
_cell_formula_units_Z 40
_cell_length_a 26.042648
_cell_length_b 7.952457
_cell_length_c 7.918771
_cell_angle_alpha 90.000000
_cell_angle_beta 77.152563
_cell_angle_gamma 90.000000
_cell_volume 1598.945069
_symmetry_space_group_name_H-M "C 2/C"
_symmetry_group_IT_number 15
_symmetry_cell_setting 'monoclinic'
loop_
_space_group_symop_operation_xyz
x,y,z
-x,y,1/2-z
-x,-y,-z
x,-y,1/2+z
1/2+x,1/2+y,z
1/2-x,1/2+y,1/2-z
1/2-x,1/2-y,-z
1/2+x,1/2-y,1/2+z
loop_
_atom_site_type_symbol
_atom_site_label
_atom_site_fract_x
_atom_site_fract_y
_atom_site_fract_z
Si Si1 0.594281 0.745627 0.391643
Si Si2 0.716620 0.255048 0.294647
Si Si3 0.012729 0.307209 0.936336
Si Si4 0.382088 0.099897 0.989011
Si Si5 0.810053 0.086801 0.042520
O O1 0.532332 0.704363 0.431633
O O2 0.631121 0.596904 0.429082
O O3 0.603343 0.902851 0.513770
O O4 0.613013 0.822829 0.200464
O O5 0.675843 0.117295 0.390981
O O6 0.773258 0.192982 0.195849
O O7 0.714769 0.402431 0.432971
O O8 0.693327 0.335637 0.139744
O O9 0.073930 0.296203 0.937342
O O10 0.000000 0.282671 0.750000
O O11 0.000000 0.500000 0.000000
#
# Coordination Sequence:
#
# PCOD9257905 Si02
#       5
#     8   8   8   8   8
#     4  11  21  36  59  87 119 154 194 238 286 338
#     4  11  24  41  61  86 116 151 192 237 288 344
#     4  10  18  32  55  84 117 152 193 236 282 336
#     4  11  21  36  59  87 119 154 194 238 286 338
#     4  11  24  41  61  86 116 151 192 237 288 344
#
# _framework density 25.016496
#
# number of rings (size 3 to 8) (size 9 to 14) (size 15 to 20)
#    0.000    1.200    0.000   10.200    0.000    6.400 
#    0.000    1.000    0.000    0.000    0.000    0.000 
#    0.000    0.000    0.000    0.000    0.000    0.000 
#
# Total GULP energy -112004.246809 kJ/mol
# GULP energy per Si atom -5600.212340 kJ/mol
# Density = 2.495956 g / cm^3
# Si number density = 25.016496 Si / 1000 Ang^3
#
#
#
# Elastic Constant Matrix: (Units=GPa)
#
#
# Indices 1 2 3 4 5 6 
#
# 1 93.8525 2.4376 4.5811 0.0000 -14.2135 0.0000
# 2 2.4376 39.5159 -13.3562 0.0000 -5.4324 0.0000
# 3 4.5811 -13.3562 110.3741 0.0000 -2.4276 0.0000
# 4 0.0000 0.0000 0.0000 19.6053 0.0000 -8.2317
# 5 -14.2135 -5.4324 -2.4276 0.0000 43.7078 0.0000
# 6 0.0000 0.0000 0.0000 -8.2317 0.0000 33.6614
#
#
#
# Elastic Compliance Matrix: (Units=1/GPa)
#
#
# Indices 1 2 3 4 5 6 
#
# 1 0.011228 -0.000345 -0.000429 0.000000 0.003585 0.000000
# 2 -0.000345 0.026929 0.003348 0.000000 0.003421 0.000000
# 3 -0.000429 0.003348 0.009501 0.000000 0.000804 0.000000
# 4 0.000000 0.000000 0.000000 0.056843 0.000000 0.013901
# 5 0.003585 0.003421 0.000804 0.000000 0.024515 0.000000
# 6 0.000000 0.000000 0.000000 0.013901 0.000000 0.033107
#
#
# Mechanical properties :
#
#
# Convention : Reuss Voigt Hill
#
# Bulk Modulus (GPa) = 18.93684 25.67418 22.30551
# Shear Modulus (GPa) = 28.64081 36.06690 32.35386
#
# Velocity S-wave (km/s) = 3.38727 3.80112 3.60015
# Velocity P-wave (km/s) = 4.78376 5.43598 5.12027
#
# Compressibility (1/GPa) = 0.05280711
#
# Stress axis : x y z
#
# Youngs Moduli (GPa) = 89.06495 37.13402 105.25482
#
# Poissons Ratio (x) = 0.01280 0.04514
# Poissons Ratio (y) = 0.03071 -0.35242
# Poissons Ratio (z) = 0.03820 -0.12433
#
# Static dielectric constant tensor:
#      x y z
#    x 2.000230 0.000000 0.007890 
#    y 0.000000 2.301260 0.000000 
#    z 0.007890 0.000000 1.953470 
# 
# From -- ./inp_files/60032.got.cif
#   From: 2010.05.17/outbox.cif.g08.bks.cpg/sg15_31_cif.got.tgz:60032.got - 2010.06.03 18:47:42.
