data_PCOD9257464
_publ_section_title
;
Structure prediction by ZEFSAII (Michael W. Deem and Ramdas Pophale) SiO2 
 PCOD9257464
Probable space group: C 2/C
;
_chemical_formula_sum "Si O2"
_cell_formula_units_Z 64
_cell_length_a 14.422321
_cell_length_b 12.051091
_cell_length_c 21.240814
_cell_angle_alpha 90.000000
_cell_angle_beta 65.592486
_cell_angle_gamma 90.000000
_cell_volume 3361.819435
_symmetry_space_group_name_H-M "C 2/C"
_symmetry_group_IT_number 15
_symmetry_cell_setting 'monoclinic'
loop_
_space_group_symop_operation_xyz
x,y,z
-x,y,1/2-z
-x,-y,-z
x,-y,1/2+z
1/2+x,1/2+y,z
1/2-x,1/2+y,1/2-z
1/2-x,1/2-y,-z
1/2+x,1/2-y,1/2+z
loop_
_atom_site_type_symbol
_atom_site_label
_atom_site_fract_x
_atom_site_fract_y
_atom_site_fract_z
Si Si1 0.191485 0.006816 0.152980
Si Si2 0.166748 0.346654 0.314975
Si Si3 0.725995 0.732799 0.079098
Si Si4 0.040808 0.174456 0.667140
Si Si5 0.387868 0.895329 0.811369
Si Si6 0.954895 0.378579 0.331441
Si Si7 0.336325 0.636911 0.655819
Si Si8 0.183126 0.902627 0.797004
O O1 0.232659 0.105751 0.099161
O O2 0.165410 0.062885 0.228992
O O3 0.270507 0.909570 0.149205
O O4 0.100764 0.940914 0.143969
O O5 0.242987 0.350591 0.232746
O O6 0.140588 0.216804 0.327385
O O7 0.058510 0.406132 0.338713
O O8 0.612520 0.778483 0.124790
O O9 0.800059 0.804620 0.103036
O O10 0.750000 0.750000 0.000000
O O11 0.111907 0.284081 0.646887
O O12 0.000000 0.167686 0.750000
O O13 0.941227 0.187340 0.652517
O O14 0.500000 0.899249 0.750000
O O15 0.303216 0.891041 0.780760
O O16 0.382911 0.013007 0.847812
O O17 0.000000 0.349911 0.250000
O O18 0.354130 0.504759 0.650173
#
# Coordination Sequence:
#
# PCOD9257464 Si02
#       8
#     8   8   8   8   8   8   8   8
#     4  11  22  36  58  90 127 168 204 255 321 381
#     4  11  20  34  61  99 123 151 204 274 318 361
#     4  12  27  45  62  88 133 178 215 259 321 392
#     4  11  20  32  59  99 134 157 198 263 335 370
#     4  10  18  31  54  91 129 151 192 257 323 369
#     4  11  20  37  64  93 119 157 215 266 315 365
#     4  11  21  37  59  93 129 168 201 258 322 376
#     4  11  18  33  57  91 131 149 199 267 317 357
#
# _framework density 19.037310999999999
#
# number of rings (size 3 to 8) (size 9 to 14) (size 15 to 20)
#    0.000    1.000    7.500    3.000    3.500    0.500 
#    0.000    1.250    0.000    1.500    0.000    0.000 
#    0.000    0.000    0.000    0.000    0.000    0.000 
#
# Total GULP energy -178441.738324 kJ/mol
# GULP energy per Si atom -5576.304323 kJ/mol
# Density = 1.899398 g / cm^3
# Si number density = 19.037311 Si / 1000 Ang^3
#
#
#
# Elastic Constant Matrix: (Units=GPa)
#
#
# Indices 1 2 3 4 5 6 
#
# 1 104.8857 12.9396 33.0710 0.0000 18.3776 0.0000
# 2 12.9396 109.3700 27.6067 0.0000 2.9313 0.0000
# 3 33.0710 27.6067 56.0162 0.0000 13.1869 0.0000
# 4 0.0000 0.0000 0.0000 -2.2392 0.0000 -16.6695
# 5 18.3776 2.9313 13.1869 0.0000 13.6310 0.0000
# 6 0.0000 0.0000 0.0000 -16.6695 0.0000 -51.1605
#
#
#
# Elastic Compliance Matrix: (Units=1/GPa)
#
#
# Indices 1 2 3 4 5 6 
#
# 1 0.013386 -0.000033 -0.004713 0.000000 -0.013481 0.000000
# 2 -0.000033 0.010576 -0.006044 0.000000 0.003617 0.000000
# 3 -0.004713 -0.006044 0.028244 0.000000 -0.019669 0.000000
# 4 0.000000 0.000000 0.000000 0.313262 0.000000 -0.102070
# 5 -0.013481 0.003617 -0.019669 0.000000 0.109788 0.000000
# 6 0.000000 0.000000 0.000000 -0.102070 0.000000 0.013711
#
#
# Mechanical properties :
#
#
# Convention : Reuss Voigt Hill
#
# Bulk Modulus (GPa) = 32.65279 46.38961 39.52120
# Shear Modulus (GPa) = 9.60140 5.15657 7.37899
#
# Velocity S-wave (km/s) = 2.24820 1.64759 1.97091
# Velocity P-wave (km/s) = 4.89167 5.29528 5.09747
#
# Compressibility (1/GPa) = 0.03062525
#
# Stress axis : x y z
#
# Youngs Moduli (GPa) = 74.70227 94.55456 35.40583
#
# Poissons Ratio (x) = 0.00309 0.16688
# Poissons Ratio (y) = 0.00244 0.21401
# Poissons Ratio (z) = 0.35210 0.57153
#
# Static dielectric constant tensor:
#      x y z
#    x 1.849660 0.000000 -0.066070 
#    y 0.000000 1.773480 0.000000 
#    z -0.066070 0.000000 1.674600 
# 
# From -- ./inp_files/243715.got.cif
#   From: 2010.05.17/outbox.cif.g08.bks.cpg/sg15_122_cif.got.tgz:243715.got - 2010.06.03 18:47:42.
