data_PCOD9257156
_publ_section_title
;
Structure prediction by ZEFSAII (Michael W. Deem and Ramdas Pophale) SiO2 
 PCOD9257156
Probable space group: C 2/C
;
_chemical_formula_sum "Si O2"
_cell_formula_units_Z 56
_cell_length_a 8.830604
_cell_length_b 18.116404
_cell_length_c 24.749980
_cell_angle_alpha 90.000000
_cell_angle_beta 31.812093
_cell_angle_gamma 90.000000
_cell_volume 2087.176841
_symmetry_space_group_name_H-M "C 2/C"
_symmetry_group_IT_number 15
_symmetry_cell_setting 'monoclinic'
loop_
_space_group_symop_operation_xyz
x,y,z
-x,y,1/2-z
-x,-y,-z
x,-y,1/2+z
1/2+x,1/2+y,z
1/2-x,1/2+y,1/2-z
1/2-x,1/2-y,-z
1/2+x,1/2-y,1/2+z
loop_
_atom_site_type_symbol
_atom_site_label
_atom_site_fract_x
_atom_site_fract_y
_atom_site_fract_z
Si Si1 0.992871 0.889948 0.905551
Si Si2 0.736707 0.254804 0.132537
Si Si3 0.779947 0.081873 0.867251
Si Si4 0.350315 0.237005 0.142539
Si Si5 0.000000 0.507694 0.250000
Si Si6 0.725222 0.916313 0.873152
Si Si7 0.997721 0.898315 0.076808
Si Si8 0.000000 0.000000 0.000000
O O1 0.055183 0.810471 0.912222
O O2 0.275014 0.933850 0.795409
O O3 0.809860 0.894253 0.907845
O O4 0.899324 0.940316 0.983479
O O5 0.500000 0.253653 0.250000
O O6 0.862962 0.337406 0.094946
O O7 0.540851 0.243755 0.138671
O O8 0.000000 0.081825 0.750000
O O9 0.929998 0.085122 0.882184
O O10 0.634944 0.001833 0.905501
O O11 0.446218 0.158884 0.089259
O O12 0.416924 0.314075 0.092542
O O13 0.000000 0.236154 0.250000
O O14 0.211465 0.453778 0.150556
O O15 0.000000 0.917187 0.750000
O O16 0.191130 0.934042 0.972214
#
# Coordination Sequence:
#
# PCOD9257156 Si02
#       8
#     8   8   8   8   4   8   8   4
#     4  11  21  36  59  85 113 151 199 234 278 343
#     4  10  19  33  55  88 117 141 191 236 284 340
#     4   9  18  32  53  83 114 142 179 235 286 331
#     4  10  20  31  55  88 122 141 181 244 297 329
#     4  10  18  30  56  82 106 142 198 238 266 328
#     4  10  19  33  55  87 117 148 176 240 296 331
#     4  10  19  37  55  84 112 153 191 234 280 343
#     4  10  22  38  58  80 116 156 200 234 276 340
#
# _framework density 26.830499
#
# number of rings (size 3 to 8) (size 9 to 14) (size 15 to 20)
#    0.000    2.000    4.286    1.714    0.000    0.000 
#    0.000    3.571    0.000    0.857    3.714    0.000 
#    0.000    0.000    0.000    0.000    0.000    0.000 
#
# Total GULP energy -155875.185971 kJ/mol
# GULP energy per Si atom -5566.970928 kJ/mol
# Density = 2.676943 g / cm^3
# Si number density = 26.830499 Si / 1000 Ang^3
#
#
#
# Elastic Constant Matrix: (Units=GPa)
#
#
# Indices 1 2 3 4 5 6 
#
# 1 135.6320 131.8979 28.3819 -0.0367 28.9991 -0.0367
# 2 131.8979 334.8414 26.5070 -0.0173 -2.4656 0.0915
# 3 28.3819 26.5070 85.7528 -0.0759 8.3317 0.2975
# 4 -0.0367 -0.0173 -0.0759 38.0831 0.0782 -0.6456
# 5 28.9991 -2.4656 8.3317 0.0782 40.5678 -0.1391
# 6 -0.0367 0.0915 0.2975 -0.6456 -0.1391 38.9549
#
#
#
# Elastic Compliance Matrix: (Units=1/GPa)
#
#
# Indices 1 2 3 4 5 6 
#
# 1 0.016703 -0.006479 -0.002375 0.000033 -0.011846 0.000007
# 2 -0.006479 0.005580 -0.000065 -0.000014 0.004984 -0.000001
# 3 -0.002375 -0.000065 0.012554 0.000023 -0.000885 -0.000101
# 4 0.000033 -0.000014 0.000023 0.026266 -0.000078 0.000435
# 5 -0.011846 0.004984 -0.000885 -0.000078 0.033603 0.000103
# 6 0.000007 -0.000001 -0.000101 0.000435 0.000103 0.025679
#
#
# Mechanical properties :
#
#
# Convention : Reuss Voigt Hill
#
# Bulk Modulus (GPa) = 58.82157 103.31109 81.06633
# Shear Modulus (GPa) = 34.74916 48.15046 41.44981
#
# Velocity S-wave (km/s) = 3.60270 4.24089 3.93476
# Velocity P-wave (km/s) = 6.26713 7.91005 7.13603
#
# Compressibility (1/GPa) = 0.01700057
#
# Stress axis : x y z
#
# Youngs Moduli (GPa) = 59.86998 179.20010 79.65713
#
# Poissons Ratio (x) = 1.16098 0.18916
# Poissons Ratio (y) = 0.38788 0.00517
# Poissons Ratio (z) = 0.14217 0.01163
#
# Static dielectric constant tensor:
#      x y z
#    x 2.019620 -0.000980 -0.308160 
#    y -0.000980 1.813440 -0.001340 
#    z -0.308160 -0.001340 2.005840 
# 
# From -- ./inp_files/289731.got.cif
#   From: 2010.05.17/outbox.cif.g08.bks.cpg/sg15_145_cif.got.tgz:289731.got - 2010.06.03 18:47:42.
