data_PCOD9257135
_publ_section_title
;
Structure prediction by ZEFSAII (Michael W. Deem and Ramdas Pophale) SiO2 
 PCOD9257135
Probable space group: C 2/C
;
_chemical_formula_sum "Si O2"
_cell_formula_units_Z 60
_cell_length_a 28.971896
_cell_length_b 22.806595
_cell_length_c 15.039378
_cell_angle_alpha 90.000000
_cell_angle_beta 19.477733
_cell_angle_gamma 90.000000
_cell_volume 3313.489375
_symmetry_space_group_name_H-M "C 2/C"
_symmetry_group_IT_number 15
_symmetry_cell_setting 'monoclinic'
loop_
_space_group_symop_operation_xyz
x,y,z
-x,y,1/2-z
-x,-y,-z
x,-y,1/2+z
1/2+x,1/2+y,z
1/2-x,1/2+y,1/2-z
1/2-x,1/2-y,-z
1/2+x,1/2-y,1/2+z
loop_
_atom_site_type_symbol
_atom_site_label
_atom_site_fract_x
_atom_site_fract_y
_atom_site_fract_z
Si Si1 0.197416 0.633428 0.965827
Si Si2 0.500000 0.286253 0.750000
Si Si3 0.166697 0.261514 0.791895
Si Si4 0.112427 0.641481 0.917072
Si Si5 0.939797 0.065082 0.613078
Si Si6 0.913695 0.148849 0.817575
Si Si7 0.160790 0.145644 0.114094
Si Si8 0.581243 0.737610 0.388502
O O1 0.258177 0.699439 0.869922
O O2 0.170636 0.628585 0.909041
O O3 0.303323 0.584002 0.805807
O O4 0.050309 0.629077 0.282556
O O5 0.607448 0.247487 0.498615
O O6 0.424620 0.326795 0.813637
O O7 0.270128 0.316227 0.595381
O O8 0.033663 0.264902 0.969337
O O9 0.204807 0.614430 0.670881
O O10 0.133904 0.710095 0.854152
O O11 0.906275 0.090028 0.772362
O O12 0.060574 0.102887 0.348218
O O13 0.000000 0.000000 0.500000
O O14 0.000000 0.138935 0.750000
O O15 0.001015 0.193777 0.598854
O O16 0.184929 0.197961 0.141388
#
# Coordination Sequence:
#
# PCOD9257135 Si02
#       8
#     8   4   8   8   8   8   8   8
#     4  11  20  35  60  88 121 155 200 242 303 364
#     4  10  18  30  54  92 122 166 194 228 298 376
#     4  11  18  33  55  87 135 161 182 240 302 386
#     4  11  20  31  56  96 116 153 187 246 305 368
#     4  11  24  45  62  80 111 163 217 262 286 342
#     4  11  21  35  56  87 119 154 194 242 308 365
#     4  10  19  34  53  84 122 155 202 242 291 353
#     4  10  19  30  52  84 127 159 185 228 300 375
#
# _framework density 18.107800000000001
#
# number of rings (size 3 to 8) (size 9 to 14) (size 15 to 20)
#    0.000    1.333    6.667    2.400    0.000    0.000 
#    6.000    0.667    0.000    0.000    0.000    0.000 
#    0.000    0.000    0.000    0.000    0.000    0.000 
#
# Total GULP energy -167327.404641 kJ/mol
# GULP energy per Si atom -5577.580155 kJ/mol
# Density = 1.806659 g / cm^3
# Si number density = 18.107800 Si / 1000 Ang^3
#
#
#
# Elastic Constant Matrix: (Units=GPa)
#
#
# Indices 1 2 3 4 5 6 
#
# 1 97.4237 48.8191 43.5704 -0.0003 3.6204 0.0002
# 2 48.8191 89.7172 41.8120 -0.0016 -2.7568 0.0016
# 3 43.5704 41.8120 137.1200 -0.0001 12.5357 0.0003
# 4 -0.0003 -0.0016 -0.0001 24.5779 0.0006 -0.8442
# 5 3.6204 -2.7568 12.5357 0.0006 31.1377 -0.0010
# 6 0.0002 0.0016 0.0003 -0.8442 -0.0010 8.5258
#
#
#
# Elastic Compliance Matrix: (Units=1/GPa)
#
#
# Indices 1 2 3 4 5 6 
#
# 1 0.014941 -0.007014 -0.002485 0.000000 -0.001358 0.000001
# 2 -0.007014 0.016533 -0.003137 0.000001 0.003542 -0.000002
# 3 -0.002485 -0.003137 0.009383 0.000000 -0.003766 0.000000
# 4 0.000000 0.000001 0.000000 0.040826 -0.000001 0.004043
# 5 -0.001358 0.003542 -0.003766 -0.000001 0.034103 0.000004
# 6 0.000001 -0.000002 0.000000 0.004043 0.000004 0.117691
#
#
# Mechanical properties :
#
#
# Convention : Reuss Voigt Hill
#
# Bulk Modulus (GPa) = 64.15555 65.85156 65.00355
# Shear Modulus (GPa) = 18.94347 25.51889 22.23118
#
# Velocity S-wave (km/s) = 3.23793 3.75811 3.50767
# Velocity P-wave (km/s) = 7.03460 7.43482 7.23748
#
# Compressibility (1/GPa) = 0.01558712
#
# Stress axis : x y z
#
# Youngs Moduli (GPa) = 66.93150 60.48423 106.57358
#
# Poissons Ratio (x) = 0.42421 0.26480
# Poissons Ratio (y) = 0.46943 0.33429
# Poissons Ratio (z) = 0.16630 0.18972
#
# Static dielectric constant tensor:
#      x y z
#    x 1.647680 0.000000 -0.009080 
#    y 0.000000 1.616130 0.000000 
#    z -0.009080 0.000000 1.705520 
# 
# From -- ./inp_files/183189.got.cif
#   From: 2010.05.17/outbox.cif.g08.bks.cpg/sg15_92_cif.got.tgz:183189.got - 2010.06.03 18:47:42.
