data_PCOD9257332
_publ_section_title
;
Structure prediction by ZEFSAII (Michael W. Deem and Ramdas Pophale) SiO2 
 PCOD9257332
Probable space group: C 2/C
;
_chemical_formula_sum "Si O2"
_cell_formula_units_Z 40
_cell_length_a 21.232810
_cell_length_b 20.103358
_cell_length_c 14.953658
_cell_angle_alpha 90.000000
_cell_angle_beta 19.303274
_cell_angle_gamma 90.000000
_cell_volume 2110.011190
_symmetry_space_group_name_H-M "C 2/C"
_symmetry_group_IT_number 15
_symmetry_cell_setting 'monoclinic'
loop_
_space_group_symop_operation_xyz
x,y,z
-x,y,1/2-z
-x,-y,-z
x,-y,1/2+z
1/2+x,1/2+y,z
1/2-x,1/2+y,1/2-z
1/2-x,1/2-y,-z
1/2+x,1/2-y,1/2+z
loop_
_atom_site_type_symbol
_atom_site_label
_atom_site_fract_x
_atom_site_fract_y
_atom_site_fract_z
Si Si1 0.500000 0.921037 0.250000
Si Si2 0.203085 0.021096 0.839717
Si Si3 0.531342 0.089101 0.897758
Si Si4 0.500000 0.254511 0.250000
Si Si5 0.133778 0.655604 0.206390
Si Si6 0.300183 0.540005 0.856895
O O1 0.487765 0.879937 0.174810
O O2 0.321509 0.971892 0.479632
O O3 0.260893 0.064381 0.848249
O O4 0.186812 0.059289 0.766132
O O5 0.386210 0.973283 0.583595
O O6 0.012803 0.977619 0.104581
O O7 0.454195 0.130088 0.084346
O O8 0.319311 0.301215 0.479987
O O9 0.491789 0.204603 0.344714
O O10 0.197991 0.594600 0.055759
#
# Coordination Sequence:
#
# PCOD9257332 Si02
#       6
#     4   8   8   4   8   8
#     4  10  21  32  48  78 106 136 171 194 250 338
#     4   9  18  29  49  79 106 139 166 191 255 333
#     4  10  19  32  49  71 105 138 167 210 256 304
#     4  10  23  34  52  78  94 130 187 218 250 298
#     4  11  20  35  53  73 104 137 171 219 258 286
#     4  10  18  31  51  78 111 135 162 205 257 320
#
# _framework density 18.957246000000001
#
# number of rings (size 3 to 8) (size 9 to 14) (size 15 to 20)
#    0.000    2.000    0.000    6.600    0.000    2.400 
#    0.000    0.000    0.000    1.200    0.000    0.000 
#    0.000    0.000    0.000    0.000    0.000    0.000 
#
# Total GULP energy -111511.186558 kJ/mol
# GULP energy per Si atom -5575.559328 kJ/mol
# Density = 1.891410 g / cm^3
# Si number density = 18.957246 Si / 1000 Ang^3
#
#
#
# Elastic Constant Matrix: (Units=GPa)
#
#
# Indices 1 2 3 4 5 6 
#
# 1 158.2402 38.7905 21.7082 -0.0052 9.4585 0.0029
# 2 38.7905 45.3898 3.3431 -0.0084 5.7374 0.0025
# 3 21.7082 3.3431 33.1792 0.0193 -13.9828 -0.0019
# 4 -0.0052 -0.0084 0.0193 -5.8757 0.0098 10.8662
# 5 9.4585 5.7374 -13.9828 0.0098 32.6919 -0.0135
# 6 0.0029 0.0025 -0.0019 10.8662 -0.0135 10.4384
#
#
#
# Elastic Compliance Matrix: (Units=1/GPa)
#
#
# Indices 1 2 3 4 5 6 
#
# 1 0.009267 -0.006796 -0.007326 -0.000016 -0.004622 0.000008
# 2 -0.006796 0.028160 0.000433 -0.000018 -0.002791 0.000010
# 3 -0.007326 0.000433 0.043611 0.000086 0.020697 -0.000053
# 4 -0.000016 -0.000018 0.000086 -0.058182 0.000087 0.060567
# 5 -0.004622 -0.002791 0.020697 0.000087 0.041268 -0.000031
# 6 0.000008 0.000010 -0.000053 0.060567 -0.000031 0.032751
#
#
# Mechanical properties :
#
#
# Convention : Reuss Voigt Hill
#
# Bulk Modulus (GPa) = 18.63592 40.49922 29.56757
# Shear Modulus (GPa) = 35.17695 18.98207 27.07951
#
# Velocity S-wave (km/s) = 4.31233 3.16778 3.78359
# Velocity P-wave (km/s) = 5.88615 5.89827 5.89222
#
# Compressibility (1/GPa) = 0.05365982
#
# Stress axis : x y z
#
# Youngs Moduli (GPa) = 107.91415 35.51160 22.92988
#
# Poissons Ratio (x) = 0.24132 0.16798
# Poissons Ratio (y) = 0.73333 -0.00992
# Poissons Ratio (z) = 0.79058 -0.01536
#
# Static dielectric constant tensor:
#      x y z
#    x 1.760560 -0.000010 0.027480 
#    y -0.000010 1.649610 0.000010 
#    z 0.027480 0.000010 1.686440 
# 
# From -- ./inp_files/29278.got.cif
#   From: 2010.05.17/outbox.cif.g08.bks.cpg/sg15_15_cif.got.tgz:29278.got - 2010.06.03 18:47:42.
