data_PCOD9257396
_publ_section_title
;
Structure prediction by ZEFSAII (Michael W. Deem and Ramdas Pophale) SiO2 
 PCOD9257396
Probable space group: C 2/C
;
_chemical_formula_sum "Si O2"
_cell_formula_units_Z 60
_cell_length_a 20.787168
_cell_length_b 20.245936
_cell_length_c 8.548942
_cell_angle_alpha 90.000000
_cell_angle_beta 120.356847
_cell_angle_gamma 90.000000
_cell_volume 3104.583051
_symmetry_space_group_name_H-M "C 2/C"
_symmetry_group_IT_number 15
_symmetry_cell_setting 'monoclinic'
loop_
_space_group_symop_operation_xyz
x,y,z
-x,y,1/2-z
-x,-y,-z
x,-y,1/2+z
1/2+x,1/2+y,z
1/2-x,1/2+y,1/2-z
1/2-x,1/2-y,-z
1/2+x,1/2-y,1/2+z
loop_
_atom_site_type_symbol
_atom_site_label
_atom_site_fract_x
_atom_site_fract_y
_atom_site_fract_z
Si Si1 0.216542 0.929216 0.400878
Si Si2 0.775683 0.070925 0.952520
Si Si3 0.103721 0.571532 0.332447
Si Si4 0.903413 0.430105 0.314661
Si Si5 0.675113 0.287942 0.465475
Si Si6 0.734278 0.695700 0.350845
Si Si7 0.500000 0.176048 0.750000
Si Si8 0.607874 0.800776 0.637790
O O1 0.198216 0.922090 0.194538
O O2 0.305921 0.926327 0.538973
O O3 0.182594 0.865771 0.444436
O O4 0.197240 0.001183 0.444518
O O5 0.685602 0.073095 0.823541
O O6 0.791926 0.129863 0.092941
O O7 0.077751 0.502875 0.225767
O O8 0.078316 0.576908 0.480053
O O9 0.085286 0.631676 0.196174
O O10 0.942823 0.372812 0.267147
O O11 0.750000 0.250000 0.500000
O O12 0.674465 0.278520 0.650577
O O13 0.614859 0.253990 0.281073
O O14 0.750000 0.750000 0.500000
O O15 0.812125 0.686654 0.350234
O O16 0.452380 0.216397 0.566795
#
# Coordination Sequence:
#
# PCOD9257396 Si02
#       8
#     8   8   8   8   8   8   4   8
#     4  10  18  31  53  75 109 135 180 223 275 325
#     4  10  19  31  50  79 104 142 172 220 271 328
#     4  10  20  35  51  75 101 147 193 230 277 308
#     4  10  22  33  52  71 109 147 192 234 258 319
#     4  10  19  34  51  75  99 139 175 231 278 320
#     4  11  21  34  56  80 108 139 180 226 288 334
#     4  12  24  40  52  76 108 152 200 230 272 320
#     4  11  23  36  54  73 106 143 188 233 270 332
#
# _framework density 19.326267000000001
#
# number of rings (size 3 to 8) (size 9 to 14) (size 15 to 20)
#    0.000    1.600    4.000    3.200    5.600    2.667 
#    0.000    0.000    0.000    0.000    0.000    0.000 
#    0.000    9.600    0.000    0.400    0.000    2.400 
#
# Total GULP energy -167541.171130 kJ/mol
# GULP energy per Si atom -5584.705704 kJ/mol
# Density = 1.928228 g / cm^3
# Si number density = 19.326267 Si / 1000 Ang^3
#
#
#
# Elastic Constant Matrix: (Units=GPa)
#
#
# Indices 1 2 3 4 5 6 
#
# 1 15.1963 0.8183 17.7269 0.0000 -10.1433 0.0000
# 2 0.8183 88.3823 44.0836 0.0000 -10.0216 0.0000
# 3 17.7269 44.0836 161.2927 0.0000 -20.2673 0.0000
# 4 0.0000 0.0000 0.0000 43.9682 0.0000 -8.1146
# 5 -10.1433 -10.0216 -20.2673 0.0000 28.3645 0.0000
# 6 0.0000 0.0000 0.0000 -8.1146 0.0000 8.6168
#
#
#
# Elastic Compliance Matrix: (Units=1/GPa)
#
#
# Indices 1 2 3 4 5 6 
#
# 1 0.095832 0.006850 -0.008563 0.000000 0.030571 0.000000
# 2 0.006850 0.013725 -0.003941 0.000000 0.004483 0.000000
# 3 -0.008563 -0.003941 0.008414 0.000000 0.001557 0.000000
# 4 0.000000 0.000000 0.000000 0.027528 0.000000 0.025924
# 5 0.030571 0.004483 0.001557 0.000000 0.048885 0.000000
# 6 0.000000 0.000000 0.000000 0.025924 0.000000 0.140465
#
#
# Mechanical properties :
#
#
# Convention : Reuss Voigt Hill
#
# Bulk Modulus (GPa) = 9.37531 43.34763 26.36147
# Shear Modulus (GPa) = 13.09895 29.67275 21.38585
#
# Velocity S-wave (km/s) = 2.60624 3.92262 3.33012
# Velocity P-wave (km/s) = 3.73072 6.55698 5.33443
#
# Compressibility (1/GPa) = 0.10666312
#
# Stress axis : x y z
#
# Youngs Moduli (GPa) = 10.43498 72.85976 118.85220
#
# Poissons Ratio (x) = -0.49912 1.01775
# Poissons Ratio (y) = -0.07148 0.46837
# Poissons Ratio (z) = 0.08936 0.28713
#
# Static dielectric constant tensor:
#      x y z
#    x 1.694300 0.000000 0.006760 
#    y 0.000000 1.660340 0.000000 
#    z 0.006760 0.000000 1.711650 
# 
# From -- ./inp_files/62744.got.cif
#   From: 2010.05.17/outbox.cif.g08.bks.cpg/sg15_32_cif.got.tgz:62744.got - 2010.06.03 18:47:42.
