data_PCOD9257030
_publ_section_title
;
Structure prediction by ZEFSAII (Michael W. Deem and Ramdas Pophale) SiO2 
 PCOD9257030
Probable space group: C 2/C
;
_chemical_formula_sum "Si O2"
_cell_formula_units_Z 64
_cell_length_a 8.241733
_cell_length_b 12.087110
_cell_length_c 25.476248
_cell_angle_alpha 90.000000
_cell_angle_beta 105.235978
_cell_angle_gamma 90.000000
_cell_volume 2448.708195
_symmetry_space_group_name_H-M "C 2/C"
_symmetry_group_IT_number 15
_symmetry_cell_setting 'monoclinic'
loop_
_space_group_symop_operation_xyz
x,y,z
-x,y,1/2-z
-x,-y,-z
x,-y,1/2+z
1/2+x,1/2+y,z
1/2-x,1/2+y,1/2-z
1/2-x,1/2-y,-z
1/2+x,1/2-y,1/2+z
loop_
_atom_site_type_symbol
_atom_site_label
_atom_site_fract_x
_atom_site_fract_y
_atom_site_fract_z
Si Si1 0.890604 0.624776 0.472895
Si Si2 0.890007 0.222930 0.618595
Si Si3 0.195858 0.782530 0.279272
Si Si4 0.870682 0.300466 0.081486
Si Si5 0.131778 0.900922 0.595661
Si Si6 0.279332 0.206168 0.678166
Si Si7 0.465171 0.587845 0.303233
Si Si8 0.728169 0.578970 0.988270
O O1 0.894016 0.618139 0.536337
O O2 0.802198 0.735296 0.445950
O O3 0.762442 0.525119 0.452528
O O4 0.085078 0.615788 0.477690
O O5 0.801621 0.165405 0.662479
O O6 0.815088 0.346641 0.617944
O O7 0.845945 0.167942 0.559092
O O8 0.086388 0.225026 0.647193
O O9 0.280111 0.843628 0.236427
O O10 0.301913 0.668247 0.286113
O O11 0.000000 0.762559 0.250000
O O12 0.861897 0.358254 0.136753
O O13 0.013516 0.208312 0.087559
O O14 0.068341 0.967664 0.642255
O O15 0.129684 0.940927 0.534973
O O16 0.380662 0.322996 0.682024
O O17 0.500000 0.527491 0.250000
#
# Coordination Sequence:
#
# PCOD9257030 Si02
#       8
#     8   8   8   8   8   8   8   8
#     4  10  23  37  52  74 114 145 183 223 279 324
#     4  10  18  30  51  79 108 144 180 219 271 332
#     4   8  15  28  47  78 105 132 182 225 266 316
#     4  10  20  36  54  78 103 141 183 226 271 328
#     4  10  19  31  54  79 108 140 186 220 272 325
#     4   9  17  29  51  77 104 135 180 228 267 321
#     4   8  15  29  47  77 112 135 181 228 273 315
#     4  11  22  36  51  79 113 149 179 227 274 330
#
# _framework density 26.136229
#
# number of rings (size 3 to 8) (size 9 to 14) (size 15 to 20)
#    0.000    2.500    1.250    1.125    3.500    0.500 
#    0.000    0.000    0.000    0.000   13.000    0.000 
#    0.000    0.000    0.000    0.000    0.000    0.000 
#
# Total GULP energy -178452.420576 kJ/mol
# GULP energy per Si atom -5576.638143 kJ/mol
# Density = 2.607674 g / cm^3
# Si number density = 26.136229 Si / 1000 Ang^3
#
#
#
# Elastic Constant Matrix: (Units=GPa)
#
#
# Indices 1 2 3 4 5 6 
#
# 1 115.7298 31.0628 61.6244 0.0000 -16.0517 0.0000
# 2 31.0628 44.6889 22.8962 0.0000 -3.9243 0.0000
# 3 61.6244 22.8962 191.7865 0.0000 -66.6329 0.0000
# 4 0.0000 0.0000 0.0000 16.6742 0.0000 -2.1046
# 5 -16.0517 -3.9243 -66.6329 0.0000 59.4433 0.0000
# 6 0.0000 0.0000 0.0000 -2.1046 0.0000 18.3712
#
#
#
# Elastic Compliance Matrix: (Units=1/GPa)
#
#
# Indices 1 2 3 4 5 6 
#
# 1 0.012155 -0.006768 -0.003460 0.000000 -0.001043 0.000000
# 2 -0.006768 0.027860 -0.001879 0.000000 -0.002095 0.000000
# 3 -0.003460 -0.001879 0.010126 0.000000 0.010293 0.000000
# 4 0.000000 0.000000 0.000000 0.060853 0.000000 0.006971
# 5 -0.001043 -0.002095 0.010293 0.000000 0.027940 0.000000
# 6 0.000000 0.000000 0.000000 0.006971 0.000000 0.055232
#
#
# Mechanical properties :
#
#
# Convention : Reuss Voigt Hill
#
# Bulk Modulus (GPa) = 38.56951 64.81910 51.69430
# Shear Modulus (GPa) = 22.02427 34.67254 28.34840
#
# Velocity S-wave (km/s) = 2.90603 3.64621 3.29696
# Velocity P-wave (km/s) = 5.10384 6.52540 5.85790
#
# Compressibility (1/GPa) = 0.02592722
#
# Stress axis : x y z
#
# Youngs Moduli (GPa) = 82.27007 35.89384 98.75318
#
# Poissons Ratio (x) = 0.24292 0.34170
# Poissons Ratio (y) = 0.55678 0.18558
# Poissons Ratio (z) = 0.28466 0.06745
#
# Static dielectric constant tensor:
#      x y z
#    x 2.077950 0.000000 -0.042930 
#    y 0.000000 2.100370 0.000000 
#    z -0.042930 0.000000 2.238650 
# 
# From -- ./inp_files/288787.got.cif
#   From: 2010.05.17/outbox.cif.g08.bks.cpg/sg15_145_cif.got.tgz:288787.got - 2010.06.03 18:47:42.
