data_PCOD9257637
_publ_section_title
;
Structure prediction by ZEFSAII (Michael W. Deem and Ramdas Pophale) SiO2 
 PCOD9257637
Probable space group: C 2/C
;
_chemical_formula_sum "Si O2"
_cell_formula_units_Z 52
_cell_length_a 11.867756
_cell_length_b 21.855178
_cell_length_c 18.222042
_cell_angle_alpha 90.000000
_cell_angle_beta 140.185214
_cell_angle_gamma 90.000000
_cell_volume 3026.278486
_symmetry_space_group_name_H-M "C 2/C"
_symmetry_group_IT_number 15
_symmetry_cell_setting 'monoclinic'
loop_
_space_group_symop_operation_xyz
x,y,z
-x,y,1/2-z
-x,-y,-z
x,-y,1/2+z
1/2+x,1/2+y,z
1/2-x,1/2+y,1/2-z
1/2-x,1/2-y,-z
1/2+x,1/2-y,1/2+z
loop_
_atom_site_type_symbol
_atom_site_label
_atom_site_fract_x
_atom_site_fract_y
_atom_site_fract_z
Si Si1 0.576144 0.338307 0.925422
Si Si2 0.692147 0.022561 0.570778
Si Si3 0.788394 0.594646 0.784292
Si Si4 0.091267 0.066071 0.549925
Si Si5 0.979431 0.703558 0.651321
Si Si6 0.582840 0.994466 0.362568
Si Si7 0.500000 0.574339 0.250000
O O1 0.500079 0.271105 0.872091
O O2 0.522594 0.382202 0.831521
O O3 0.516540 0.376618 0.967162
O O4 0.786245 0.323882 0.035543
O O5 0.738279 0.080670 0.643836
O O6 0.678543 0.030354 0.476154
O O7 0.500000 0.000000 0.500000
O O8 0.831203 0.970104 0.662350
O O9 0.621136 0.583726 0.649035
O O10 0.875378 0.658949 0.809623
O O11 0.928352 0.544337 0.823553
O O12 0.277539 0.052646 0.602413
O O13 0.000000 0.000000 0.500000
O O14 0.000000 0.705799 0.750000
O O15 0.500000 0.028157 0.250000
#
# Coordination Sequence:
#
# PCOD9257637 Si02
#       7
#     8   8   8   8   8   8   4
#     4  11  21  31  52  79 107 146 182 224 276 336
#     4  10  20  33  52  76 113 146 178 230 277 330
#     4  10  18  32  50  73 105 145 182 207 277 334
#     4  11  19  31  49  77 109 142 176 225 270 331
#     4  11  19  35  53  73 111 150 181 218 276 346
#     4   9  17  32  50  68 103 144 175 215 272 330
#     4  12  20  34  50  84 114 136 188 236 276 324
#
# _framework density 17.18282
#
# number of rings (size 3 to 8) (size 9 to 14) (size 15 to 20)
#    0.000    1.538    5.385    2.308    0.000    0.000 
#    0.000    0.000    0.000    0.000    0.000    1.077 
#   16.154    0.154    0.000    0.000    0.000    0.000 
#
# Total GULP energy -144806.340023 kJ/mol
# GULP energy per Si atom -5569.474616 kJ/mol
# Density = 1.714371 g / cm^3
# Si number density = 17.182820 Si / 1000 Ang^3
#
#
#
# Elastic Constant Matrix: (Units=GPa)
#
#
# Indices 1 2 3 4 5 6 
#
# 1 27.7151 26.1759 35.8294 0.0000 -19.7987 0.0000
# 2 26.1759 126.5627 64.8231 0.0000 -16.8759 0.0000
# 3 35.8294 64.8231 129.6915 0.0000 -29.8754 0.0001
# 4 0.0000 0.0000 0.0000 16.3139 0.0000 -3.4444
# 5 -19.7987 -16.8759 -29.8754 0.0000 35.2933 0.0001
# 6 0.0000 0.0000 0.0001 -3.4444 0.0001 31.7894
#
#
#
# Elastic Compliance Matrix: (Units=1/GPa)
#
#
# Indices 1 2 3 4 5 6 
#
# 1 0.079805 -0.006347 -0.011505 0.000000 0.031995 0.000000
# 2 -0.006347 0.011140 -0.004233 0.000000 -0.001817 0.000000
# 3 -0.011505 -0.004233 0.013729 0.000000 0.003143 0.000000
# 4 0.000000 0.000000 0.000000 0.062733 0.000000 0.006797
# 5 0.031995 -0.001817 0.003143 0.000000 0.048075 0.000000
# 6 0.000000 0.000000 0.000000 0.006797 0.000000 0.032193
#
#
# Mechanical properties :
#
#
# Convention : Reuss Voigt Hill
#
# Bulk Modulus (GPa) = 16.52769 59.73622 38.13195
# Shear Modulus (GPa) = 16.02504 27.15537 21.59021
#
# Velocity S-wave (km/s) = 3.05720 3.97971 3.54856
# Velocity P-wave (km/s) = 4.70123 7.48051 6.24738
#
# Compressibility (1/GPa) = 0.06050453
#
# Stress axis : x y z
#
# Youngs Moduli (GPa) = 12.53052 89.76927 72.83887
#
# Poissons Ratio (x) = 0.56972 0.83801
# Poissons Ratio (y) = 0.07953 0.30833
# Poissons Ratio (z) = 0.14416 0.38000
#
# Static dielectric constant tensor:
#      x y z
#    x 1.597160 0.000000 -0.021580 
#    y 0.000000 1.574010 0.000000 
#    z -0.021580 0.000000 1.673680 
# 
# From -- ./inp_files/99099.got.cif
#   From: 2010.05.17/outbox.cif.g08.bks.cpg/sg15_50_cif.got.tgz:99099.got - 2010.06.03 18:47:42.
