data_PCOD9257583
_publ_section_title
;
Structure prediction by ZEFSAII (Michael W. Deem and Ramdas Pophale) SiO2 
 PCOD9257583
Probable space group: C 2/C
;
_chemical_formula_sum "Si O2"
_cell_formula_units_Z 44
_cell_length_a 13.235926
_cell_length_b 24.206111
_cell_length_c 14.005029
_cell_angle_alpha 90.000000
_cell_angle_beta 156.068111
_cell_angle_gamma 90.000000
_cell_volume 1820.183773
_symmetry_space_group_name_H-M "C 2/C"
_symmetry_group_IT_number 15
_symmetry_cell_setting 'monoclinic'
loop_
_space_group_symop_operation_xyz
x,y,z
-x,y,1/2-z
-x,-y,-z
x,-y,1/2+z
1/2+x,1/2+y,z
1/2-x,1/2+y,1/2-z
1/2-x,1/2-y,-z
1/2+x,1/2-y,1/2+z
loop_
_atom_site_type_symbol
_atom_site_label
_atom_site_fract_x
_atom_site_fract_y
_atom_site_fract_z
Si Si1 0.924182 0.698995 0.976094
Si Si2 0.799880 0.999290 0.237686
Si Si3 0.038707 0.227482 0.403990
Si Si4 0.662871 0.381216 0.737377
Si Si5 0.000000 0.331149 0.750000
Si Si6 0.513673 0.615110 0.888899
O O1 0.663365 0.668080 0.761809
O O2 0.012273 0.703468 0.162417
O O3 0.932390 0.753009 0.917072
O O4 0.082977 0.654440 0.048918
O O5 0.870444 0.942358 0.245660
O O6 0.834475 0.058372 0.215478
O O7 0.000000 0.000000 0.500000
O O8 0.500000 0.000000 0.000000
O O9 0.814144 0.248722 0.144406
O O10 0.040263 0.161488 0.399011
O O11 0.611321 0.390414 0.581325
O O12 0.755942 0.369853 0.536957
#
# Coordination Sequence:
#
# PCOD9257583 Si02
#       6
#     8   8   8   8   4   8
#     4  10  18  32  47  65  93 130 169 199 245 280
#     4  10  19  31  52  74  89 116 158 208 255 297
#     4  10  19  31  49  67  93 127 158 199 243 283
#     4   9  18  31  48  70  92 118 163 203 252 290
#     4  10  22  32  48  66  94 138 172 214 232 286
#     4  10  18  33  47  66  94 123 166 206 250 286
#
# _framework density 24.173383000000001
#
# number of rings (size 3 to 8) (size 9 to 14) (size 15 to 20)
#    0.000    2.182    3.636    0.545    0.000    0.000 
#    0.000    8.182    0.000    0.000    0.000    0.000 
#    0.000    0.000    0.000    6.545    2.182    0.364 
#
# Total GULP energy -122715.980534 kJ/mol
# GULP energy per Si atom -5577.999115 kJ/mol
# Density = 2.411836 g / cm^3
# Si number density = 24.173383 Si / 1000 Ang^3
#
#
#
# Elastic Constant Matrix: (Units=GPa)
#
#
# Indices 1 2 3 4 5 6 
#
# 1 77.7072 15.2759 39.0265 -0.0004 -10.2291 -0.0004
# 2 15.2759 185.2713 46.6497 -0.0008 7.1811 -0.0007
# 3 39.0265 46.6497 145.7252 -0.0011 19.1965 -0.0017
# 4 -0.0004 -0.0008 -0.0011 34.4093 -0.0009 0.4231
# 5 -10.2291 7.1811 19.1965 -0.0009 38.7025 -0.0009
# 6 -0.0004 -0.0007 -0.0017 0.4231 -0.0009 6.7770
#
#
#
# Elastic Compliance Matrix: (Units=1/GPa)
#
#
# Indices 1 2 3 4 5 6 
#
# 1 0.016484 -0.000312 -0.005239 0.000000 0.007013 0.000000
# 2 -0.000312 0.005878 -0.001758 0.000000 -0.000301 0.000000
# 3 -0.005239 -0.001758 0.009594 0.000000 -0.005817 0.000001
# 4 0.000000 0.000000 0.000000 0.029084 0.000001 -0.001816
# 5 0.007013 -0.000301 -0.005817 0.000001 0.030633 0.000003
# 6 0.000000 0.000000 0.000001 -0.001816 0.000003 0.147671
#
#
# Mechanical properties :
#
#
# Convention : Reuss Voigt Hill
#
# Bulk Modulus (GPa) = 57.67544 67.84533 62.76039
# Shear Modulus (GPa) = 19.24993 36.49453 27.87223
#
# Velocity S-wave (km/s) = 2.82499 3.88970 3.39929
# Velocity P-wave (km/s) = 5.87806 6.94983 6.43629
#
# Compressibility (1/GPa) = 0.01733840
#
# Stress axis : x y z
#
# Youngs Moduli (GPa) = 60.66380 170.13704 104.22785
#
# Poissons Ratio (x) = 0.05307 0.54601
# Poissons Ratio (y) = 0.01892 0.18327
# Poissons Ratio (z) = 0.31779 0.29916
#
# Static dielectric constant tensor:
#      x y z
#    x 2.044040 0.000000 -0.073900 
#    y 0.000000 1.943860 0.000000 
#    z -0.073900 0.000000 2.058950 
# 
# From -- ./inp_files/10546.got.cif
#   From: 2010.05.17/outbox.cif.g08.bks.cpg/sg15_6_cif.got.tgz:10546.got - 2010.06.03 18:47:42.
