data_PCOD9257890
_publ_section_title
;
Structure prediction by ZEFSAII (Michael W. Deem and Ramdas Pophale) SiO2 
 PCOD9257890
Probable space group: C 2/C
;
_chemical_formula_sum "Si O2"
_cell_formula_units_Z 64
_cell_length_a 10.904343
_cell_length_b 13.386164
_cell_length_c 21.911143
_cell_angle_alpha 90.000000
_cell_angle_beta 105.946995
_cell_angle_gamma 90.000000
_cell_volume 3075.228002
_symmetry_space_group_name_H-M "C 2/C"
_symmetry_group_IT_number 15
_symmetry_cell_setting 'monoclinic'
loop_
_space_group_symop_operation_xyz
x,y,z
-x,y,1/2-z
-x,-y,-z
x,-y,1/2+z
1/2+x,1/2+y,z
1/2-x,1/2+y,1/2-z
1/2-x,1/2-y,-z
1/2+x,1/2-y,1/2+z
loop_
_atom_site_type_symbol
_atom_site_label
_atom_site_fract_x
_atom_site_fract_y
_atom_site_fract_z
Si Si1 0.335161 0.101176 0.295791
Si Si2 0.714351 0.718106 0.063712
Si Si3 0.316844 0.067603 0.476680
Si Si4 0.682413 0.249828 0.104920
Si Si5 0.546930 0.612827 0.499352
Si Si6 0.411730 0.876531 0.116704
Si Si7 0.809770 0.411269 0.370999
Si Si8 0.859641 0.431447 0.663554
O O1 0.309868 0.205133 0.326675
O O2 0.488758 0.087581 0.320140
O O3 0.303953 0.103586 0.220320
O O4 0.271466 0.005163 0.321788
O O5 0.565033 0.684238 0.041986
O O6 0.753901 0.808109 0.115265
O O7 0.789921 0.622246 0.098474
O O8 0.750000 0.750000 0.000000
O O9 0.367701 0.157025 0.441784
O O10 0.173411 0.099624 0.475679
O O11 0.392708 0.067153 0.549735
O O12 0.324465 0.968451 0.437958
O O13 0.825363 0.279514 0.104692
O O14 0.594057 0.340817 0.070566
O O15 0.500000 0.500000 0.500000
O O16 0.561715 0.869941 0.143191
O O17 0.350422 0.949147 0.158381
#
# Coordination Sequence:
#
# PCOD9257890 Si02
#       8
#     8   8   8   8   8   8   8   8
#     4   9  21  39  56  75 102 145 188 224 268 323
#     4  12  22  34  54  84 113 142 179 230 283 325
#     4  10  19  33  52  79 111 141 172 211 268 330
#     4  10  19  34  56  78 108 144 178 216 266 332
#     4  11  21  33  50  80 114 142 173 217 274 332
#     4  10  18  32  55  81 103 137 178 221 268 316
#     4  10  20  34  55  79 108 137 178 228 266 315
#     4  10  21  37  55  77 107 141 185 228 269 325
#
# _framework density 20.811464999999998
#
# number of rings (size 3 to 8) (size 9 to 14) (size 15 to 20)
#    0.000    1.750    0.000    7.125    0.000    3.000 
#    0.000    0.000    0.000    6.000    0.000    0.000 
#    0.000    0.000    0.000    0.000    0.000    0.000 
#
# Total GULP energy -178323.727224 kJ/mol
# GULP energy per Si atom -5572.616476 kJ/mol
# Density = 2.076410 g / cm^3
# Si number density = 20.811465 Si / 1000 Ang^3
#
#
#
# Elastic Constant Matrix: (Units=GPa)
#
#
# Indices 1 2 3 4 5 6 
#
# 1 38.1107 3.2151 3.7983 0.0000 -1.7437 0.0000
# 2 3.2151 79.0991 1.1464 0.0000 -12.6550 0.0000
# 3 3.7983 1.1464 64.1600 0.0000 -19.2241 0.0000
# 4 0.0000 0.0000 0.0000 23.2376 0.0000 -2.0448
# 5 -1.7437 -12.6550 -19.2241 0.0000 22.7381 0.0000
# 6 0.0000 0.0000 0.0000 -2.0448 0.0000 23.0433
#
#
#
# Elastic Compliance Matrix: (Units=1/GPa)
#
#
# Indices 1 2 3 4 5 6 
#
# 1 0.026483 -0.001022 -0.001489 0.000000 0.000203 0.000000
# 2 -0.001022 0.014294 0.002900 0.000000 0.010329 0.000000
# 3 -0.001489 0.002900 0.021524 0.000000 0.019698 0.000000
# 4 0.000000 0.000000 0.000000 0.043372 0.000000 0.003849
# 5 0.000203 0.010329 0.019698 0.000000 0.066397 0.000000
# 6 0.000000 0.000000 0.000000 0.003849 0.000000 0.043738
#
#
# Mechanical properties :
#
#
# Convention : Reuss Voigt Hill
#
# Bulk Modulus (GPa) = 15.85290 21.96547 18.90918
# Shear Modulus (GPa) = 21.18125 25.35115 23.26620
#
# Velocity S-wave (km/s) = 3.19371 3.49396 3.34721
# Velocity P-wave (km/s) = 4.60800 5.18213 4.90347
#
# Compressibility (1/GPa) = 0.06307995
#
# Stress axis : x y z
#
# Youngs Moduli (GPa) = 37.75974 69.95734 46.45910
#
# Poissons Ratio (x) = 0.07152 0.06916
# Poissons Ratio (y) = 0.03860 -0.13473
# Poissons Ratio (z) = 0.05621 -0.20287
#
# Static dielectric constant tensor:
#      x y z
#    x 1.768490 0.000000 -0.006700 
#    y 0.000000 1.774910 0.000000 
#    z -0.006700 0.000000 1.768380 
# 
# From -- ./inp_files/268904.got.cif
#   From: 2010.05.17/outbox.cif.g08.bks.cpg/sg15_135_cif.got.tgz:268904.got - 2010.06.03 18:47:42.
