data_PCOD9257454
_publ_section_title
;
Structure prediction by ZEFSAII (Michael W. Deem and Ramdas Pophale) SiO2 
 PCOD9257454
Probable space group: C 2/C
;
_chemical_formula_sum "Si O2"
_cell_formula_units_Z 48
_cell_length_a 19.527539
_cell_length_b 12.523351
_cell_length_c 15.798938
_cell_angle_alpha 90.000000
_cell_angle_beta 145.132623
_cell_angle_gamma 90.000000
_cell_volume 2208.757574
_symmetry_space_group_name_H-M "C 2/C"
_symmetry_group_IT_number 15
_symmetry_cell_setting 'monoclinic'
loop_
_space_group_symop_operation_xyz
x,y,z
-x,y,1/2-z
-x,-y,-z
x,-y,1/2+z
1/2+x,1/2+y,z
1/2-x,1/2+y,1/2-z
1/2-x,1/2-y,-z
1/2+x,1/2-y,1/2+z
loop_
_atom_site_type_symbol
_atom_site_label
_atom_site_fract_x
_atom_site_fract_y
_atom_site_fract_z
Si Si1 0.639311 0.586827 0.388815
Si Si2 0.559662 0.365974 0.523189
Si Si3 0.856108 0.194199 0.935609
Si Si4 0.278566 0.918565 0.857917
Si Si5 0.597222 0.359578 0.290219
Si Si6 0.810451 0.661990 0.891869
O O1 0.500000 0.617774 0.250000
O O2 0.686870 0.645901 0.519606
O O3 0.703979 0.611754 0.366687
O O4 0.643321 0.457649 0.394652
O O5 0.475677 0.358731 0.520022
O O6 0.685394 0.414669 0.683454
O O7 0.475500 0.412393 0.363228
O O8 0.585565 0.248032 0.511247
O O9 0.872155 0.322105 0.948052
O O10 0.755524 0.171467 0.764503
O O11 0.333529 0.036011 0.926117
O O12 0.500000 0.299836 0.250000
O O13 0.712066 0.305394 0.363773
#
# Coordination Sequence:
#
# PCOD9257454 Si02
#       6
#     8   8   8   8   8   8
#     4  10  18  31  54  84 106 137 178 228 274 308
#     4  10  20  36  54  79 112 141 186 224 264 327
#     4  10  20  34  56  81 110 141 182 226 269 322
#     4  10  20  34  54  80 111 148 178 222 272 320
#     4   9  20  33  55  81 104 142 180 226 271 308
#     4   9  21  35  54  81 109 147 178 221 274 320
#
# _framework density 21.731674999999999
#
# number of rings (size 3 to 8) (size 9 to 14) (size 15 to 20)
#    0.000    2.333    1.667    0.500    4.667    3.333 
#    0.000    0.000    0.000    1.000    0.000    0.000 
#    0.000    0.000    0.000    0.000    0.000    0.000 
#
# Total GULP energy -133753.181741 kJ/mol
# GULP energy per Si atom -5573.049239 kJ/mol
# Density = 2.168221 g / cm^3
# Si number density = 21.731675 Si / 1000 Ang^3
#
#
#
# Elastic Constant Matrix: (Units=GPa)
#
#
# Indices 1 2 3 4 5 6 
#
# 1 54.3176 15.9718 5.9958 0.0000 -22.6896 0.0000
# 2 15.9718 91.0612 12.0361 0.0000 -8.4287 0.0000
# 3 5.9958 12.0361 27.0915 0.0000 -12.7516 0.0000
# 4 0.0000 0.0000 0.0000 17.7232 0.0000 0.1053
# 5 -22.6896 -8.4287 -12.7516 0.0000 23.5871 0.0000
# 6 0.0000 0.0000 0.0000 0.1053 0.0000 33.3731
#
#
#
# Elastic Compliance Matrix: (Units=1/GPa)
#
#
# Indices 1 2 3 4 5 6 
#
# 1 0.034097 -0.004073 0.012094 0.000000 0.037883 0.000000
# 2 -0.004073 0.012213 -0.005787 0.000000 -0.002682 0.000000
# 3 0.012094 -0.005787 0.055408 0.000000 0.039521 0.000000
# 4 0.000000 0.000000 0.000000 0.056424 0.000000 -0.000178
# 5 0.037883 -0.002682 0.039521 0.000000 0.099245 0.000000
# 6 0.000000 0.000000 0.000000 -0.000178 0.000000 0.029965
#
#
# Mechanical properties :
#
#
# Convention : Reuss Voigt Hill
#
# Bulk Modulus (GPa) = 9.41734 26.71974 18.06854
# Shear Modulus (GPa) = 15.70952 24.16778 19.93865
#
# Velocity S-wave (km/s) = 2.69157 3.33843 3.03230
# Velocity P-wave (km/s) = 3.74196 5.21365 4.53787
#
# Compressibility (1/GPa) = 0.10618714
#
# Stress axis : x y z
#
# Youngs Moduli (GPa) = 29.32782 81.88277 18.04793
#
# Poissons Ratio (x) = 0.33348 -0.21827
# Poissons Ratio (y) = 0.11944 0.10444
# Poissons Ratio (z) = -0.35469 0.47384
#
# Static dielectric constant tensor:
#      x y z
#    x 1.818470 0.000000 -0.015370 
#    y 0.000000 1.859860 0.000000 
#    z -0.015370 0.000000 1.811000 
# 
# From -- ./inp_files/117710.got.cif
#   From: 2010.05.17/outbox.cif.g08.bks.cpg/sg15_59_cif.got.tgz:117710.got - 2010.06.03 18:47:42.
