data_PCOD9257405
_publ_section_title
;
Structure prediction by ZEFSAII (Michael W. Deem and Ramdas Pophale) SiO2 
 PCOD9257405
Probable space group: C 2/C
;
_chemical_formula_sum "Si O2"
_cell_formula_units_Z 60
_cell_length_a 24.958641
_cell_length_b 8.502401
_cell_length_c 27.671574
_cell_angle_alpha 90.000000
_cell_angle_beta 150.878504
_cell_angle_gamma 90.000000
_cell_volume 2857.754104
_symmetry_space_group_name_H-M "C 2/C"
_symmetry_group_IT_number 15
_symmetry_cell_setting 'monoclinic'
loop_
_space_group_symop_operation_xyz
x,y,z
-x,y,1/2-z
-x,-y,-z
x,-y,1/2+z
1/2+x,1/2+y,z
1/2-x,1/2+y,1/2-z
1/2-x,1/2-y,-z
1/2+x,1/2-y,1/2+z
loop_
_atom_site_type_symbol
_atom_site_label
_atom_site_fract_x
_atom_site_fract_y
_atom_site_fract_z
Si Si1 0.613938 0.153900 0.606846
Si Si2 0.824274 0.668127 0.296471
Si Si3 0.231240 0.933121 0.469258
Si Si4 0.432651 0.669512 0.796873
Si Si5 0.341511 0.527704 0.488697
Si Si6 0.299920 0.882043 0.424326
Si Si7 0.418853 0.363905 0.456817
Si Si8 0.000000 0.157079 0.750000
O O1 0.702637 0.293918 0.681786
O O2 0.610425 0.107328 0.547268
O O3 0.500291 0.222633 0.535504
O O4 0.657139 0.003974 0.669054
O O5 0.905593 0.706868 0.316661
O O6 0.848468 0.792892 0.357906
O O7 0.250000 0.750000 0.500000
O O8 0.227040 0.021677 0.517410
O O9 0.307836 0.965965 0.482892
O O10 0.108251 0.940055 0.349767
O O11 0.532548 0.561502 0.894236
O O12 0.317508 0.581091 0.694233
O O13 0.470079 0.745946 0.775602
O O14 0.297191 0.697061 0.436056
O O15 0.349506 0.419344 0.448167
O O16 0.500000 0.500000 0.500000
#
# Coordination Sequence:
#
# PCOD9257405 Si02
#       8
#     8   8   8   8   8   8   8   4
#     4  11  23  36  55  81 112 148 186 227 280 334
#     4  11  23  36  54  81 111 146 184 225 278 337
#     4   8  15  27  46  76 105 135 176 224 265 310
#     4   9  17  29  50  76 107 133 181 222 269 311
#     4  10  18  31  53  79 109 143 178 226 276 321
#     4   9  17  30  51  77 111 137 180 228 264 322
#     4  12  21  36  56  81 113 146 182 230 282 333
#     4   8  14  26  44  74 100 134 168 230 258 302
#
# _framework density 20.995508000000001
#
# number of rings (size 3 to 8) (size 9 to 14) (size 15 to 20)
#    0.000    2.133    2.667    1.200    3.733    0.000 
#    0.000    0.000    0.000    0.800    3.467    0.000 
#    0.000    0.000    0.000    0.000    0.000    0.000 
#
# Total GULP energy -167216.401772 kJ/mol
# GULP energy per Si atom -5573.880059 kJ/mol
# Density = 2.094772 g / cm^3
# Si number density = 20.995508 Si / 1000 Ang^3
#
#
#
# Elastic Constant Matrix: (Units=GPa)
#
#
# Indices 1 2 3 4 5 6 
#
# 1 148.5366 33.9024 -4.2804 0.0000 -47.5876 0.0000
# 2 33.9024 45.0259 11.1756 -0.0001 -11.3719 -0.0002
# 3 -4.2804 11.1756 54.5348 0.0000 -10.5356 -0.0001
# 4 0.0000 -0.0001 0.0000 25.6463 0.0000 1.5582
# 5 -47.5876 -11.3719 -10.5356 0.0000 35.2529 0.0000
# 6 0.0000 -0.0002 -0.0001 1.5582 0.0000 12.1264
#
#
#
# Elastic Compliance Matrix: (Units=1/GPa)
#
#
# Indices 1 2 3 4 5 6 
#
# 1 0.015085 -0.008016 0.006645 0.000000 0.019763 0.000000
# 2 -0.008016 0.029147 -0.007298 0.000000 -0.003600 0.000000
# 3 0.006645 -0.007298 0.022958 0.000000 0.013477 0.000000
# 4 0.000000 0.000000 0.000000 0.039299 0.000000 -0.005050
# 5 0.019763 -0.003600 0.013477 0.000000 0.057911 0.000000
# 6 0.000000 0.000000 0.000000 -0.005050 0.000000 0.083113
#
#
# Mechanical properties :
#
#
# Convention : Reuss Voigt Hill
#
# Bulk Modulus (GPa) = 20.05933 36.63252 28.34592
# Shear Modulus (GPa) = 17.76393 28.42509 23.09451
#
# Velocity S-wave (km/s) = 2.91191 3.68348 3.32018
# Velocity P-wave (km/s) = 4.56951 5.96460 5.31304
#
# Compressibility (1/GPa) = 0.04985212
#
# Stress axis : x y z
#
# Youngs Moduli (GPa) = 66.29021 34.30833 43.55873
#
# Poissons Ratio (x) = 0.27502 -0.28944
# Poissons Ratio (y) = 0.53139 0.31788
# Poissons Ratio (z) = -0.44049 0.25037
#
# Static dielectric constant tensor:
#      x y z
#    x 1.829260 0.000000 0.022610 
#    y 0.000000 1.728520 0.000000 
#    z 0.022610 0.000000 1.822600 
# 
# From -- ./inp_files/176181.got.cif
#   From: 2010.05.17/outbox.cif.g08.bks.cpg/sg15_89_cif.got.tgz:176181.got - 2010.06.03 18:47:42.
