data_PCOD9257225
_publ_section_title
;
Structure prediction by ZEFSAII (Michael W. Deem and Ramdas Pophale) SiO2 
 PCOD9257225
Probable space group: C 2/C
;
_chemical_formula_sum "Si O2"
_cell_formula_units_Z 40
_cell_length_a 23.424075
_cell_length_b 9.792856
_cell_length_c 17.621635
_cell_angle_alpha 90.000000
_cell_angle_beta 20.349011
_cell_angle_gamma 90.000000
_cell_volume 1405.626445
_symmetry_space_group_name_H-M "C 2/C"
_symmetry_group_IT_number 15
_symmetry_cell_setting 'monoclinic'
loop_
_space_group_symop_operation_xyz
x,y,z
-x,y,1/2-z
-x,-y,-z
x,-y,1/2+z
1/2+x,1/2+y,z
1/2-x,1/2+y,1/2-z
1/2-x,1/2-y,-z
1/2+x,1/2-y,1/2+z
loop_
_atom_site_type_symbol
_atom_site_label
_atom_site_fract_x
_atom_site_fract_y
_atom_site_fract_z
Si Si1 0.000000 0.759704 0.750000
Si Si2 0.101212 0.486758 0.032830
Si Si3 0.623946 0.419875 0.414050
Si Si4 0.000000 0.775184 0.250000
Si Si5 0.363743 0.659813 0.755471
Si Si6 0.268270 0.466173 0.058218
O O1 0.891147 0.650231 0.930117
O O2 0.129432 0.866209 0.624978
O O3 0.919197 0.480336 0.228050
O O4 0.229935 0.493188 0.805869
O O5 0.166161 0.613907 0.007942
O O6 0.466256 0.516503 0.621914
O O7 0.608773 0.300145 0.368348
O O8 0.696082 0.393044 0.406355
O O9 0.065236 0.761057 0.261568
O O10 0.849409 0.885582 0.458784
#
# Coordination Sequence:
#
# PCOD9257225 Si02
#       6
#     4   8   8   4   8   8
#     4  11  22  30  46  82 118 139 164 209 272 310
#     4  10  18  31  47  69  98 141 175 206 255 315
#     4   8  17  32  47  64  94 141 174 210 250 312
#     4   9  16  28  42  66  92 123 164 211 254 290
#     4   8  16  29  48  63  92 130 173 211 249 306
#     4  10  19  30  46  69 103 140 170 214 253 313
#
# _framework density 28.457062000000001
#
# number of rings (size 3 to 8) (size 9 to 14) (size 15 to 20)
#    1.200    1.600    0.000    2.400    0.000    3.200 
#    0.000    0.000    0.000    0.000    0.000    0.000 
#    0.000   14.400    0.000    5.600    0.000    8.600 
#
# Total GULP energy -111390.105065 kJ/mol
# GULP energy per Si atom -5569.505253 kJ/mol
# Density = 2.839229 g / cm^3
# Si number density = 28.457062 Si / 1000 Ang^3
#
#
#
# Elastic Constant Matrix: (Units=GPa)
#
#
# Indices 1 2 3 4 5 6 
#
# 1 213.6514 65.1136 68.1623 0.0000 -15.8087 0.0000
# 2 65.1136 126.8623 0.5262 0.0000 -19.7403 0.0000
# 3 68.1623 0.5262 120.2600 0.0000 -54.3238 0.0000
# 4 0.0000 0.0000 0.0000 -41.1544 0.0000 14.6883
# 5 -15.8087 -19.7403 -54.3238 0.0000 81.3709 0.0000
# 6 0.0000 0.0000 0.0000 14.6883 0.0000 19.2802
#
#
#
# Elastic Compliance Matrix: (Units=1/GPa)
#
#
# Indices 1 2 3 4 5 6 
#
# 1 0.007672 -0.004466 -0.005935 0.000000 -0.003555 0.000000
# 2 -0.004466 0.010922 0.004709 0.000000 0.004925 0.000000
# 3 -0.005935 0.004709 0.016686 0.000000 0.011129 0.000000
# 4 0.000000 0.000000 0.000000 -0.019104 0.000000 0.014554
# 5 -0.003555 0.004925 0.011129 0.000000 0.020223 0.000000
# 6 0.000000 0.000000 0.000000 0.014554 0.000000 0.040779
#
#
# Mechanical properties :
#
#
# Convention : Reuss Voigt Hill
#
# Bulk Modulus (GPa) = 41.85103 80.93088 61.39096
# Shear Modulus (GPa) = 51.79881 33.69745 42.74813
#
# Velocity S-wave (km/s) = 4.27106 3.44488 3.88002
# Velocity P-wave (km/s) = 6.24990 6.65765 6.45700
#
# Compressibility (1/GPa) = 0.02389427
#
# Stress axis : x y z
#
# Youngs Moduli (GPa) = 130.34254 91.55950 59.93193
#
# Poissons Ratio (x) = 0.40894 0.35569
# Poissons Ratio (y) = 0.58216 -0.28220
# Poissons Ratio (z) = 0.77357 -0.43112
#
# Static dielectric constant tensor:
#      x y z
#    x 2.124750 0.000000 -0.205790 
#    y 0.000000 2.236490 0.000000 
#    z -0.205790 0.000000 2.030680 
# 
# From -- ./inp_files/47689.got.cif
#   From: 2010.05.17/outbox.cif.g08.bks.cpg/sg15_24_cif.got.tgz:47689.got - 2010.06.03 18:47:42.
