data_PCOD9257486
_publ_section_title
;
Structure prediction by ZEFSAII (Michael W. Deem and Ramdas Pophale) SiO2 
 PCOD9257486
Probable space group: C 2/C
;
_chemical_formula_sum "Si O2"
_cell_formula_units_Z 60
_cell_length_a 26.717851
_cell_length_b 18.083585
_cell_length_c 19.682017
_cell_angle_alpha 90.000000
_cell_angle_beta 19.396355
_cell_angle_gamma 90.000000
_cell_volume 3158.100934
_symmetry_space_group_name_H-M "C 2/C"
_symmetry_group_IT_number 15
_symmetry_cell_setting 'monoclinic'
loop_
_space_group_symop_operation_xyz
x,y,z
-x,y,1/2-z
-x,-y,-z
x,-y,1/2+z
1/2+x,1/2+y,z
1/2-x,1/2+y,1/2-z
1/2-x,1/2-y,-z
1/2+x,1/2-y,1/2+z
loop_
_atom_site_type_symbol
_atom_site_label
_atom_site_fract_x
_atom_site_fract_y
_atom_site_fract_z
Si Si1 0.815192 0.980649 0.642379
Si Si2 0.500000 0.629403 0.750000
Si Si3 0.776384 0.815567 0.649507
Si Si4 0.543664 0.803185 0.504103
Si Si5 0.364460 0.924444 0.013712
Si Si6 0.148884 0.959104 0.178727
Si Si7 0.611246 0.936842 0.322101
Si Si8 0.089216 0.443931 0.195728
O O1 0.736990 0.028265 0.802087
O O2 0.770737 0.023390 0.630075
O O3 0.994262 0.975099 0.416374
O O4 0.752735 0.897297 0.712487
O O5 0.603549 0.674460 0.565138
O O6 0.394987 0.580199 0.835246
O O7 0.622696 0.786357 0.811690
O O8 0.851271 0.765395 0.611686
O O9 0.555071 0.853731 0.557204
O O10 0.607240 0.861170 0.368206
O O11 0.254925 0.909078 0.090990
O O12 0.495747 0.980050 0.824909
O O13 0.245453 0.032727 0.040623
O O14 0.586246 0.916378 0.276241
O O15 0.500000 0.000000 0.500000
O O16 0.000000 0.402048 0.250000
#
# Coordination Sequence:
#
# PCOD9257486 Si02
#       8
#     8   4   8   8   8   8   8   8
#     4  10  19  35  59  80 119 150 193 241 299 330
#     4  10  22  36  50  70 124 168 184 220 294 344
#     4  11  23  38  52  82 115 156 191 238 283 358
#     4  11  23  37  58  79 114 150 203 233 283 343
#     4  10  19  36  57  83 111 156 198 244 275 351
#     4  10  20  31  54  88 118 145 189 243 292 342
#     4  11  18  38  62  79 109 157 198 239 287 343
#     4  10  18  31  55  87 115 141 193 244 295 338
#
# _framework density 18.998759
#
# number of rings (size 3 to 8) (size 9 to 14) (size 15 to 20)
#    0.000    1.600    4.000    2.800    3.733    0.533 
#    3.600    0.000    0.000    0.000    0.000    8.400 
#   12.000    0.133    0.000    0.000    0.000    0.000 
#
# Total GULP energy -167113.429466 kJ/mol
# GULP energy per Si atom -5570.447649 kJ/mol
# Density = 1.895552 g / cm^3
# Si number density = 18.998759 Si / 1000 Ang^3
#
#
#
# Elastic Constant Matrix: (Units=GPa)
#
#
# Indices 1 2 3 4 5 6 
#
# 1 136.5161 37.9481 19.2546 -0.0044 -21.7436 0.0002
# 2 37.9481 67.6614 19.3331 -0.0060 -7.7062 0.0032
# 3 19.2546 19.3331 68.4227 -0.0063 -22.0656 0.0021
# 4 -0.0044 -0.0060 -0.0063 15.3336 0.0046 -3.2699
# 5 -21.7436 -7.7062 -22.0656 0.0046 38.1525 -0.0008
# 6 0.0002 0.0032 0.0021 -3.2699 -0.0008 24.9204
#
#
#
# Elastic Compliance Matrix: (Units=1/GPa)
#
#
# Indices 1 2 3 4 5 6 
#
# 1 0.009339 -0.004776 0.000156 0.000000 0.004448 0.000001
# 2 -0.004776 0.018538 -0.004381 0.000004 -0.001511 -0.000001
# 3 0.000156 -0.004381 0.019118 0.000003 0.010261 0.000000
# 4 0.000000 0.000004 0.000003 0.067094 -0.000005 0.008804
# 5 0.004448 -0.001511 0.010261 -0.000005 0.034375 0.000000
# 6 0.000001 -0.000001 0.000000 0.008804 0.000000 0.041283
#
#
# Mechanical properties :
#
#
# Convention : Reuss Voigt Hill
#
# Bulk Modulus (GPa) = 34.49206 47.29687 40.89446
# Shear Modulus (GPa) = 22.99768 28.75227 25.87497
#
# Velocity S-wave (km/s) = 3.48297 3.89443 3.69444
# Velocity P-wave (km/s) = 5.86252 6.72093 6.30635
#
# Compressibility (1/GPa) = 0.02899218
#
# Stress axis : x y z
#
# Youngs Moduli (GPa) = 107.07575 53.94391 52.30622
#
# Poissons Ratio (x) = 0.25763 -0.00815
# Poissons Ratio (y) = 0.51137 0.22917
# Poissons Ratio (z) = -0.01667 0.23635
#
# Static dielectric constant tensor:
#      x y z
#    x 1.773820 0.000000 -0.020600 
#    y 0.000000 1.653090 0.000000 
#    z -0.020600 0.000000 1.701410 
# 
# From -- ./inp_files/257849.got.cif
#   From: 2010.05.17/outbox.cif.g08.bks.cpg/sg15_129_cif.got.tgz:257849.got - 2010.06.03 18:47:42.
