data_PCOD9257884
_publ_section_title
;
Structure prediction by ZEFSAII (Michael W. Deem and Ramdas Pophale) SiO2 
 PCOD9257884
Probable space group: C 2/C
;
_chemical_formula_sum "Si O2"
_cell_formula_units_Z 48
_cell_length_a 11.311354
_cell_length_b 14.194722
_cell_length_c 13.294660
_cell_angle_alpha 90.000000
_cell_angle_beta 65.673584
_cell_angle_gamma 90.000000
_cell_volume 1945.086159
_symmetry_space_group_name_H-M "C 2/C"
_symmetry_group_IT_number 15
_symmetry_cell_setting 'monoclinic'
loop_
_space_group_symop_operation_xyz
x,y,z
-x,y,1/2-z
-x,-y,-z
x,-y,1/2+z
1/2+x,1/2+y,z
1/2-x,1/2+y,1/2-z
1/2-x,1/2-y,-z
1/2+x,1/2-y,1/2+z
loop_
_atom_site_type_symbol
_atom_site_label
_atom_site_fract_x
_atom_site_fract_y
_atom_site_fract_z
Si Si1 0.133150 0.635264 0.639935
Si Si2 0.254720 0.751089 0.766419
Si Si3 0.014735 0.942737 0.631794
Si Si4 0.127940 0.849927 0.090317
Si Si5 0.265348 0.927920 0.863749
Si Si6 0.472414 0.264356 0.976814
O O1 0.232643 0.703197 0.666640
O O2 0.165311 0.524813 0.635581
O O3 0.000000 0.644713 0.750000
O O4 0.105710 0.675924 0.538233
O O5 0.332050 0.684406 0.815079
O O6 0.313081 0.856427 0.759549
O O7 0.110604 0.759536 0.867052
O O8 0.877852 0.956819 0.624659
O O9 0.087556 0.862174 0.544186
O O10 0.000000 0.906215 0.750000
O O11 0.079820 0.043340 0.615225
O O12 0.247691 0.863044 0.969701
O O13 0.021151 0.784343 0.072592
#
# Coordination Sequence:
#
# PCOD9257884 Si02
#       6
#     8   8   8   8   8   8
#     4  10  20  35  55  78 105 140 178 213 255 309
#     4   9  18  34  55  75 102 142 178 205 253 321
#     4  10  18  32  55  78 102 135 175 218 259 307
#     4  10  19  34  54  79 105 136 177 216 257 308
#     4  10  19  34  53  77 104 136 174 217 256 307
#     4   9  17  33  53  75 103 141 175 207 254 320
#
# _framework density 24.677571
#
# number of rings (size 3 to 8) (size 9 to 14) (size 15 to 20)
#    0.000    2.667    0.000    7.500    0.000    0.000 
#    0.000   13.333    0.000    0.000    0.000    0.000 
#    0.000    0.000    0.000    0.000    0.000    0.000 
#
# Total GULP energy -134179.491439 kJ/mol
# GULP energy per Si atom -5590.812143 kJ/mol
# Density = 2.462140 g / cm^3
# Si number density = 24.677571 Si / 1000 Ang^3
#
#
#
# Elastic Constant Matrix: (Units=GPa)
#
#
# Indices 1 2 3 4 5 6 
#
# 1 65.6391 59.8394 26.8307 0.0000 24.0164 0.0000
# 2 59.8394 182.4863 45.1419 0.0000 28.6099 0.0000
# 3 26.8307 45.1419 122.2888 0.0000 15.7918 0.0000
# 4 0.0000 0.0000 0.0000 42.9433 0.0000 10.5819
# 5 24.0164 28.6099 15.7918 0.0000 29.8272 0.0000
# 6 0.0000 0.0000 0.0000 10.5819 0.0000 48.6055
#
#
#
# Elastic Compliance Matrix: (Units=1/GPa)
#
#
# Indices 1 2 3 4 5 6 
#
# 1 0.026945 -0.006059 -0.001743 0.000000 -0.014961 0.000000
# 2 -0.006059 0.008158 -0.001397 0.000000 -0.002207 0.000000
# 3 -0.001743 -0.001397 0.009361 0.000000 -0.002212 0.000000
# 4 0.000000 0.000000 0.000000 0.024607 0.000000 -0.005357
# 5 -0.014961 -0.002207 -0.002212 0.000000 0.048861 0.000000
# 6 0.000000 0.000000 0.000000 -0.005357 0.000000 0.021740
#
#
# Mechanical properties :
#
#
# Convention : Reuss Voigt Hill
#
# Bulk Modulus (GPa) = 38.36417 70.44868 54.40643
# Shear Modulus (GPa) = 29.98329 40.18200 35.08265
#
# Velocity S-wave (km/s) = 3.48947 4.03957 3.77456
# Velocity P-wave (km/s) = 5.64049 7.09698 6.41024
#
# Compressibility (1/GPa) = 0.02606599
#
# Stress axis : x y z
#
# Youngs Moduli (GPa) = 37.11288 122.57520 106.82251
#
# Poissons Ratio (x) = 0.74265 0.18622
# Poissons Ratio (y) = 0.22486 0.14926
# Poissons Ratio (z) = 0.06470 0.17127
#
# Static dielectric constant tensor:
#      x y z
#    x 2.059860 0.000000 -0.114300 
#    y 0.000000 1.966880 0.000000 
#    z -0.114300 0.000000 2.030820 
# 
# From -- ./inp_files/152012.got.cif
#   From: 2010.05.17/outbox.cif.g08.bks.cpg/sg15_77_cif.got.tgz:152012.got - 2010.06.03 18:47:42.
