data_PCOD9257355
_publ_section_title
;
Structure prediction by ZEFSAII (Michael W. Deem and Ramdas Pophale) SiO2 
 PCOD9257355
Probable space group: C 2/C
;
_chemical_formula_sum "Si O2"
_cell_formula_units_Z 32
_cell_length_a 17.369672
_cell_length_b 7.017351
_cell_length_c 16.609642
_cell_angle_alpha 90.000000
_cell_angle_beta 37.098675
_cell_angle_gamma 90.000000
_cell_volume 1221.177780
_symmetry_space_group_name_H-M "C 2/C"
_symmetry_group_IT_number 15
_symmetry_cell_setting 'monoclinic'
loop_
_space_group_symop_operation_xyz
x,y,z
-x,y,1/2-z
-x,-y,-z
x,-y,1/2+z
1/2+x,1/2+y,z
1/2-x,1/2+y,1/2-z
1/2-x,1/2-y,-z
1/2+x,1/2-y,1/2+z
loop_
_atom_site_type_symbol
_atom_site_label
_atom_site_fract_x
_atom_site_fract_y
_atom_site_fract_z
Si Si1 0.454776 0.021970 0.159531
Si Si2 0.798381 0.463144 0.127894
Si Si3 0.517986 0.474134 0.389202
Si Si4 0.739910 0.595851 0.437726
O O1 0.366332 0.968758 0.157394
O O2 0.473851 0.250227 0.139231
O O3 0.370932 0.987973 0.308904
O O4 0.343304 0.551873 0.252529
O O5 0.780784 0.241137 0.120088
O O6 0.902984 0.551152 0.979505
O O7 0.500000 0.500000 0.500000
O O8 0.387405 0.529872 0.452884
O O9 0.750000 0.750000 0.500000
#
# Coordination Sequence:
#
# PCOD9257355 Si02
#       4
#     8   8   8   8
#     4   9  18  32  50  77 106 138 182 226 271 327
#     4   9  18  31  50  75 105 139 180 226 271 328
#     4  10  18  31  52  76 103 141 180 221 276 335
#     4  10  20  33  53  82 111 136 177 231 281 322
#
# _framework density 26.204211000000001
#
# number of rings (size 3 to 8) (size 9 to 14) (size 15 to 20)
#    0.000    2.500    2.500    0.000    0.000    9.000 
#    0.000    0.000    0.000    1.500    0.000    7.000 
#    0.000    0.000    0.000    0.000    0.000    0.000 
#
# Total GULP energy -89280.938808 kJ/mol
# GULP energy per Si atom -5580.058676 kJ/mol
# Density = 2.614457 g / cm^3
# Si number density = 26.204211 Si / 1000 Ang^3
#
#
#
# Elastic Constant Matrix: (Units=GPa)
#
#
# Indices 1 2 3 4 5 6 
#
# 1 83.8174 7.5228 92.2461 0.0000 -32.7461 0.0000
# 2 7.5228 79.5817 -0.5097 -0.0001 -0.5140 0.0001
# 3 92.2461 -0.5097 300.4056 0.0000 -72.3638 0.0000
# 4 0.0000 -0.0001 0.0000 3.3863 0.0000 13.6841
# 5 -32.7461 -0.5140 -72.3638 0.0000 56.0770 0.0000
# 6 0.0000 0.0001 0.0000 13.6841 0.0000 36.6691
#
#
#
# Elastic Compliance Matrix: (Units=1/GPa)
#
#
# Indices 1 2 3 4 5 6 
#
# 1 0.019262 -0.001817 -0.004661 0.000000 0.005216 0.000000
# 2 -0.001817 0.012739 0.000511 -0.000001 -0.000285 0.000000
# 3 -0.004661 0.000511 0.005959 0.000000 0.004972 0.000000
# 4 0.000000 -0.000001 0.000000 -0.581309 0.000000 0.216931
# 5 0.005216 -0.000285 0.004972 0.000000 0.027292 0.000000
# 6 0.000000 0.000000 0.000000 0.216931 0.000000 -0.053683
#
#
# Mechanical properties :
#
#
# Convention : Reuss Voigt Hill
#
# Bulk Modulus (GPa) = 38.42518 73.59146 56.00832
# Shear Modulus (GPa) = -9.10530 43.52952 17.21211
#
# Velocity S-wave (km/s) = -1.86609 4.08016 2.56568
# Velocity P-wave (km/s) = 3.17057 7.09519 5.49519
#
# Compressibility (1/GPa) = 0.02602460
#
# Stress axis : x y z
#
# Youngs Moduli (GPa) = 51.91665 78.49979 167.81947
#
# Poissons Ratio (x) = 0.14263 0.78226
# Poissons Ratio (y) = 0.09433 -0.08574
# Poissons Ratio (z) = 0.24200 -0.04011
#
# Static dielectric constant tensor:
#      x y z
#    x 2.118330 0.000000 -0.117480 
#    y 0.000000 2.033360 0.000000 
#    z -0.117480 0.000000 2.322340 
# 
# From -- ./inp_files/217663.got.cif
#   From: 2010.05.17/outbox.cif.g08.bks.cpg/sg15_109_cif.got.tgz:217663.got - 2010.06.03 18:47:42.
