data_PCOD9257093
_publ_section_title
;
Structure prediction by ZEFSAII (Michael W. Deem and Ramdas Pophale) SiO2 
 PCOD9257093
Probable space group: C 2/C
;
_chemical_formula_sum "Si O2"
_cell_formula_units_Z 64
_cell_length_a 13.722219
_cell_length_b 16.063329
_cell_length_c 24.638368
_cell_angle_alpha 90.000000
_cell_angle_beta 43.959206
_cell_angle_gamma 90.000000
_cell_volume 3769.837963
_symmetry_space_group_name_H-M "C 2/C"
_symmetry_group_IT_number 15
_symmetry_cell_setting 'monoclinic'
loop_
_space_group_symop_operation_xyz
x,y,z
-x,y,1/2-z
-x,-y,-z
x,-y,1/2+z
1/2+x,1/2+y,z
1/2-x,1/2+y,1/2-z
1/2-x,1/2-y,-z
1/2+x,1/2-y,1/2+z
loop_
_atom_site_type_symbol
_atom_site_label
_atom_site_fract_x
_atom_site_fract_y
_atom_site_fract_z
Si Si1 0.911286 0.755949 0.000981
Si Si2 0.913953 0.021422 0.588237
Si Si3 0.039976 0.316509 0.791657
Si Si4 0.092096 0.792556 0.375231
Si Si5 0.917232 0.735930 0.728117
Si Si6 0.128601 0.143705 0.342528
Si Si7 0.357890 0.862367 0.429653
Si Si8 0.609095 0.006734 0.159866
O O1 0.930443 0.747932 0.057582
O O2 0.782245 0.819852 0.039658
O O3 0.869210 0.670714 0.986719
O O4 0.048826 0.797520 0.918374
O O5 0.950775 0.111655 0.597095
O O6 0.929339 0.948102 0.625227
O O7 0.754880 0.009322 0.631776
O O8 0.000000 0.000000 0.500000
O O9 0.029574 0.257098 0.848617
O O10 0.202819 0.346408 0.721489
O O11 0.000000 0.274577 0.750000
O O12 0.942040 0.399347 0.832779
O O13 0.259687 0.794960 0.298729
O O14 0.911311 0.823768 0.700475
O O15 0.000000 0.741148 0.750000
O O16 0.007137 0.677802 0.653158
O O17 0.371904 0.956745 0.404155
O O18 0.500000 0.974815 0.250000
#
# Coordination Sequence:
#
# PCOD9257093 Si02
#       8
#     8   8   8   8   8   8   8   8
#     4  10  19  32  51  82 117 137 170 233 295 332
#     4  12  20  34  56  83 109 135 194 240 274 322
#     4  10  22  39  57  78 111 152 193 230 274 338
#     4  11  21  34  56  84 113 143 186 237 282 330
#     4  10  18  31  52  80 111 139 176 223 288 336
#     4  10  20  34  52  80 110 140 180 237 273 324
#     4  10  18  30  53  83 109 139 179 226 283 338
#     4  11  19  34  58  79 105 144 198 228 261 335
#
# _framework density 16.976856999999999
#
# number of rings (size 3 to 8) (size 9 to 14) (size 15 to 20)
#    0.000    1.500    6.250    1.125    0.000    0.000 
#    0.000    3.750    0.000    0.000    0.000    0.000 
#    0.000    0.000    0.000    0.000    0.000    0.000 
#
# Total GULP energy -178176.045685 kJ/mol
# GULP energy per Si atom -5568.001428 kJ/mol
# Density = 1.693822 g / cm^3
# Si number density = 16.976857 Si / 1000 Ang^3
#
#
#
# Elastic Constant Matrix: (Units=GPa)
#
#
# Indices 1 2 3 4 5 6 
#
# 1 56.1334 26.6892 3.5133 0.0000 25.3497 0.0000
# 2 26.6892 84.2695 18.2858 0.0000 22.4426 0.0000
# 3 3.5133 18.2858 65.5638 0.0000 9.9931 0.0000
# 4 0.0000 0.0000 0.0000 30.4933 0.0000 9.5611
# 5 25.3497 22.4426 9.9931 0.0000 32.6111 0.0000
# 6 0.0000 0.0000 0.0000 9.5611 0.0000 22.8330
#
#
#
# Elastic Compliance Matrix: (Units=1/GPa)
#
#
# Indices 1 2 3 4 5 6 
#
# 1 0.028873 -0.004335 0.002757 0.000000 -0.020306 0.000000
# 2 -0.004335 0.015634 -0.003149 0.000000 -0.006424 0.000000
# 3 0.002757 -0.003149 0.016762 0.000000 -0.005112 0.000000
# 4 0.000000 0.000000 0.000000 0.037751 0.000000 -0.015808
# 5 -0.020306 -0.006424 -0.005112 0.000000 0.052436 0.000000
# 6 0.000000 0.000000 0.000000 -0.015808 0.000000 0.050416
#
#
# Mechanical properties :
#
#
# Convention : Reuss Voigt Hill
#
# Bulk Modulus (GPa) = 19.29936 33.66037 26.47987
# Shear Modulus (GPa) = 21.87252 27.68604 24.77928
#
# Velocity S-wave (km/s) = 3.59329 4.04271 3.82461
# Velocity P-wave (km/s) = 5.34867 6.45458 5.92748
#
# Compressibility (1/GPa) = 0.05181518
#
# Stress axis : x y z
#
# Youngs Moduli (GPa) = 34.63415 63.96380 59.65870
#
# Poissons Ratio (x) = 0.27728 -0.16447
# Poissons Ratio (y) = 0.15014 0.18785
# Poissons Ratio (z) = -0.09548 0.20141
#
# Static dielectric constant tensor:
#      x y z
#    x 1.605280 0.000000 0.008450 
#    y 0.000000 1.622980 0.000000 
#    z 0.008450 0.000000 1.592690 
# 
# From -- ./inp_files/296397.got.cif
#   From: 2010.05.17/outbox.cif.g08.bks.cpg/sg15_149_cif.got.tgz:296397.got - 2010.06.03 18:47:42.
