data_PCOD9257194
_publ_section_title
;
Structure prediction by ZEFSAII (Michael W. Deem and Ramdas Pophale) SiO2 
 PCOD9257194
Probable space group: C 2/C
;
_chemical_formula_sum "Si O2"
_cell_formula_units_Z 52
_cell_length_a 32.614306
_cell_length_b 12.182546
_cell_length_c 13.423497
_cell_angle_alpha 90.000000
_cell_angle_beta 146.590519
_cell_angle_gamma 90.000000
_cell_volume 2936.722897
_symmetry_space_group_name_H-M "C 2/C"
_symmetry_group_IT_number 15
_symmetry_cell_setting 'monoclinic'
loop_
_space_group_symop_operation_xyz
x,y,z
-x,y,1/2-z
-x,-y,-z
x,-y,1/2+z
1/2+x,1/2+y,z
1/2-x,1/2+y,1/2-z
1/2-x,1/2-y,-z
1/2+x,1/2-y,1/2+z
loop_
_atom_site_type_symbol
_atom_site_label
_atom_site_fract_x
_atom_site_fract_y
_atom_site_fract_z
Si Si1 0.154340 0.457713 0.687244
Si Si2 0.874177 0.349815 0.521938
Si Si3 0.425673 0.982931 0.286164
Si Si4 0.293085 0.314885 0.000858
Si Si5 0.042592 0.110756 0.618920
Si Si6 0.512548 0.790450 0.386226
Si Si7 0.000000 0.808977 0.250000
O O1 0.152712 0.557953 0.607693
O O2 0.141333 0.506012 0.771948
O O3 0.086241 0.370013 0.533626
O O4 0.232652 0.398289 0.836405
O O5 0.919350 0.418149 0.696440
O O6 0.817121 0.274119 0.466771
O O7 0.930398 0.268036 0.582612
O O8 0.441289 0.868721 0.263355
O O9 0.500000 0.000000 0.500000
O O10 0.367058 0.376853 0.191430
O O11 0.250000 0.250000 0.000000
O O12 0.020659 0.204731 0.493314
O O13 0.019171 0.130092 0.686591
O O14 0.000000 0.000000 0.500000
O O15 0.500000 0.742057 0.250000
#
# Coordination Sequence:
#
# PCOD9257194 Si02
#       7
#     8   8   8   8   8   8   4
#     4  11  20  37  60  90 123 159 204 254 308 369
#     4  11  20  36  61  88 120 156 199 250 310 357
#     4  10  18  30  59  91 117 148 191 251 304 352
#     4  11  21  43  61  86 126 168 203 250 312 390
#     4  11  25  43  64  88 122 170 210 252 316 376
#     4  11  20  35  62  94 123 151 206 264 304 365
#     4  10  20  42  64  88 120 156 212 254 300 372
#
# _framework density 17.706811999999999
#
# number of rings (size 3 to 8) (size 9 to 14) (size 15 to 20)
#    0.000    1.231    4.615    5.538    1.077    0.000 
#    8.308    0.000    0.000    2.769    0.000    0.000 
#    0.000    0.000    0.000    0.000    0.000    0.000 
#
# Total GULP energy -144889.599478 kJ/mol
# GULP energy per Si atom -5572.676903 kJ/mol
# Density = 1.766651 g / cm^3
# Si number density = 17.706812 Si / 1000 Ang^3
#
#
#
# Elastic Constant Matrix: (Units=GPa)
#
#
# Indices 1 2 3 4 5 6 
#
# 1 92.2329 49.2304 41.0251 0.0000 7.6960 0.0000
# 2 49.2304 106.7139 52.0966 0.0000 8.9071 0.0000
# 3 41.0251 52.0966 70.4346 0.0000 0.3170 0.0000
# 4 0.0000 0.0000 0.0000 44.5946 0.0000 -0.8677
# 5 7.6960 8.9071 0.3170 0.0000 30.3015 0.0000
# 6 0.0000 0.0000 0.0000 -0.8677 0.0000 19.9000
#
#
#
# Elastic Compliance Matrix: (Units=1/GPa)
#
#
# Indices 1 2 3 4 5 6 
#
# 1 0.016074 -0.004095 -0.006321 0.000000 -0.002813 0.000000
# 2 -0.004095 0.016264 -0.009628 0.000000 -0.003640 0.000000
# 3 -0.006321 -0.009628 0.024982 0.000000 0.004174 0.000000
# 4 0.000000 0.000000 0.000000 0.022443 0.000000 0.000979
# 5 -0.002813 -0.003640 0.004174 0.000000 0.034742 0.000000
# 6 0.000000 0.000000 0.000000 0.000979 0.000000 0.050294
#
#
# Mechanical properties :
#
#
# Convention : Reuss Voigt Hill
#
# Bulk Modulus (GPa) = 58.03177 61.56508 59.79842
# Shear Modulus (GPa) = 23.73806 27.42784 25.58295
#
# Velocity S-wave (km/s) = 3.66542 3.94000 3.80519
# Velocity P-wave (km/s) = 7.12450 7.45270 7.29045
#
# Compressibility (1/GPa) = 0.01723194
#
# Stress axis : x y z
#
# Youngs Moduli (GPa) = 62.21200 61.48483 40.02876
#
# Poissons Ratio (x) = 0.25177 0.25302
# Poissons Ratio (y) = 0.25475 0.38541
# Poissons Ratio (z) = 0.39325 0.59199
#
# Static dielectric constant tensor:
#      x y z
#    x 1.631320 0.000000 -0.015650 
#    y 0.000000 1.634210 0.000000 
#    z -0.015650 0.000000 1.561190 
# 
# From -- ./inp_files/126488.got.cif
#   From: 2010.05.17/outbox.cif.g08.bks.cpg/sg15_64_cif.got.tgz:126488.got - 2010.06.03 18:47:42.
