data_PCOD9257639
_publ_section_title
;
Structure prediction by ZEFSAII (Michael W. Deem and Ramdas Pophale) SiO2 
 PCOD9257639
Probable space group: C 2/C
;
_chemical_formula_sum "Si O2"
_cell_formula_units_Z 48
_cell_length_a 22.352840
_cell_length_b 7.329384
_cell_length_c 14.295843
_cell_angle_alpha 90.000000
_cell_angle_beta 114.685928
_cell_angle_gamma 90.000000
_cell_volume 2128.079461
_symmetry_space_group_name_H-M "C 2/C"
_symmetry_group_IT_number 15
_symmetry_cell_setting 'monoclinic'
loop_
_space_group_symop_operation_xyz
x,y,z
-x,y,1/2-z
-x,-y,-z
x,-y,1/2+z
1/2+x,1/2+y,z
1/2-x,1/2+y,1/2-z
1/2-x,1/2-y,-z
1/2+x,1/2-y,1/2+z
loop_
_atom_site_type_symbol
_atom_site_label
_atom_site_fract_x
_atom_site_fract_y
_atom_site_fract_z
Si Si1 0.949015 0.186069 0.908479
Si Si2 0.709986 0.386957 0.849792
Si Si3 0.812099 0.283956 0.763870
Si Si4 0.916785 0.913569 0.037996
Si Si5 0.769857 0.081261 0.449453
Si Si6 0.431682 0.392294 0.737684
O O1 0.889290 0.311325 0.836159
O O2 0.944499 0.005069 0.840041
O O3 0.026280 0.231236 0.950645
O O4 0.932801 0.107071 0.999354
O O5 0.769552 0.298618 0.831031
O O6 0.697950 0.582890 0.788770
O O7 0.637948 0.291766 0.798777
O O8 0.725135 0.425577 0.968745
O O9 0.781441 0.421720 0.668255
O O10 0.918590 0.952545 0.149518
O O11 0.842752 0.873683 0.958580
O O12 0.750000 0.250000 0.500000
O O13 0.500000 0.298556 0.750000
#
# Coordination Sequence:
#
# PCOD9257639 Si02
#       6
#     8   8   8   8   8   8
#     4   9  17  28  48  73  97 125 161 206 248 284
#     4   9  18  30  48  73  99 132 170 208 247 289
#     4  10  18  32  50  74 102 131 166 205 250 295
#     4   9  16  29  47  72  97 121 162 208 239 276
#     4   9  17  29  47  70  99 132 165 202 244 293
#     4   8  14  26  44  69  98 125 160 204 243 278
#
# _framework density 22.555548000000002
#
# number of rings (size 3 to 8) (size 9 to 14) (size 15 to 20)
#    0.000    3.000    0.000    3.000    0.000    0.000 
#    0.000    7.500    0.000    4.000    0.000   18.667 
#    0.000    0.000    0.000    0.000    0.000    0.000 
#
# Total GULP energy -133697.056853 kJ/mol
# GULP energy per Si atom -5570.710702 kJ/mol
# Density = 2.250421 g / cm^3
# Si number density = 22.555548 Si / 1000 Ang^3
#
#
#
# Elastic Constant Matrix: (Units=GPa)
#
#
# Indices 1 2 3 4 5 6 
#
# 1 197.5530 25.1785 48.2290 0.0000 24.4917 0.0000
# 2 25.1785 23.0827 3.4179 0.0000 10.4006 0.0000
# 3 48.2290 3.4179 114.4227 0.0000 10.7046 0.0000
# 4 0.0000 0.0000 0.0000 4.1692 0.0000 -0.7470
# 5 24.4917 10.4006 10.7046 0.0000 40.9834 0.0000
# 6 0.0000 0.0000 0.0000 -0.7470 0.0000 24.4523
#
#
#
# Elastic Compliance Matrix: (Units=1/GPa)
#
#
# Indices 1 2 3 4 5 6 
#
# 1 0.006661 -0.006094 -0.002458 0.000000 -0.001792 0.000000
# 2 -0.006094 0.054502 0.001941 0.000000 -0.010696 0.000000
# 3 -0.002458 0.001941 0.009867 0.000000 -0.001601 0.000000
# 4 0.000000 0.000000 0.000000 0.241173 0.000000 0.007367
# 5 -0.001792 -0.010696 -0.001601 0.000000 0.028604 0.000000
# 6 0.000000 0.000000 0.000000 0.007367 0.000000 0.041121
#
#
# Mechanical properties :
#
#
# Convention : Reuss Voigt Hill
#
# Bulk Modulus (GPa) = 17.29836 54.30102 35.79969
# Shear Modulus (GPa) = 12.06508 31.13653 21.60080
#
# Velocity S-wave (km/s) = 2.31531 3.71945 3.09798
# Velocity P-wave (km/s) = 3.85142 6.52475 5.35751
#
# Compressibility (1/GPa) = 0.05780894
#
# Stress axis : x y z
#
# Youngs Moduli (GPa) = 150.13069 18.34788 101.34477
#
# Poissons Ratio (x) = 0.11182 0.24909
# Poissons Ratio (y) = 0.91494 -0.19675
# Poissons Ratio (z) = 0.36900 -0.03562
#
# Static dielectric constant tensor:
#      x y z
#    x 1.919100 0.000000 0.058140 
#    y 0.000000 1.837340 0.000000 
#    z 0.058140 0.000000 1.840790 
# 
# From -- ./inp_files/160322.got.cif
#   From: 2010.05.17/outbox.cif.g08.bks.cpg/sg15_81_cif.got.tgz:160322.got - 2010.06.03 18:47:42.
