data_PCOD9257141
_publ_section_title
;
Structure prediction by ZEFSAII (Michael W. Deem and Ramdas Pophale) SiO2 
 PCOD9257141
Probable space group: C 2/C
;
_chemical_formula_sum "Si O2"
_cell_formula_units_Z 48
_cell_length_a 14.711793
_cell_length_b 32.891855
_cell_length_c 5.725964
_cell_angle_alpha 90.000000
_cell_angle_beta 121.713442
_cell_angle_gamma 90.000000
_cell_volume 2357.071701
_symmetry_space_group_name_H-M "C 2/C"
_symmetry_group_IT_number 15
_symmetry_cell_setting 'monoclinic'
loop_
_space_group_symop_operation_xyz
x,y,z
-x,y,1/2-z
-x,-y,-z
x,-y,1/2+z
1/2+x,1/2+y,z
1/2-x,1/2+y,1/2-z
1/2-x,1/2-y,-z
1/2+x,1/2-y,1/2+z
loop_
_atom_site_type_symbol
_atom_site_label
_atom_site_fract_x
_atom_site_fract_y
_atom_site_fract_z
Si Si1 0.688462 0.599876 0.299634
Si Si2 0.500000 0.201517 0.250000
Si Si3 0.101808 0.171371 0.506523
Si Si4 0.500000 0.386825 0.250000
Si Si5 0.196093 0.715051 0.778390
Si Si6 0.628188 0.521555 0.436053
Si Si7 0.106902 0.354350 0.506682
O O1 0.645001 0.640451 0.367286
O O2 0.691952 0.563830 0.490162
O O3 0.799372 0.613067 0.332467
O O4 0.593885 0.587605 0.994660
O O5 0.591387 0.228003 0.496028
O O6 0.432075 0.171516 0.324723
O O7 0.058950 0.142731 0.650378
O O8 0.202846 0.197290 0.726664
O O9 0.000000 0.193769 0.250000
O O10 0.250000 0.750000 0.000000
O O11 0.150389 0.679297 0.882086
O O12 0.500000 0.529177 0.250000
O O13 0.652103 0.503208 0.726114
O O14 0.000000 0.373160 0.250000
#
# Coordination Sequence:
#
# PCOD9257141 Si02
#       7
#     8   4   8   4   8   8   8
#     4  10  20  34  55  81 113 151 189 234 289 348
#     4  10  20  38  59  84 104 148 198 238 298 348
#     4   9  19  33  52  79 107 141 183 231 289 339
#     4  10  18  30  55  82 108 138 186 234 278 352
#     4  10  21  37  55  79 114 146 185 239 289 354
#     4  10  22  36  55  87 129 164 197 239 300 369
#     4   9  20  39  59  82 109 145 199 245 287 343
#
# _framework density 20.364250999999999
#
# number of rings (size 3 to 8) (size 9 to 14) (size 15 to 20)
#    0.000    2.333    0.000    2.500    5.833    2.667 
#    0.000    8.333    0.000    1.000    0.000    0.000 
#    0.000    0.000    0.000    0.000    0.000    0.000 
#
# Total GULP energy -133819.876411 kJ/mol
# GULP energy per Si atom -5575.828184 kJ/mol
# Density = 2.031790 g / cm^3
# Si number density = 20.364251 Si / 1000 Ang^3
#
#
#
# Elastic Constant Matrix: (Units=GPa)
#
#
# Indices 1 2 3 4 5 6 
#
# 1 118.1029 25.5016 48.9120 0.0000 19.5754 0.0000
# 2 25.5016 36.0638 24.3659 0.0000 26.2473 0.0000
# 3 48.9120 24.3659 93.1791 0.0000 25.1893 0.0000
# 4 0.0000 0.0000 0.0000 14.5965 0.0000 -5.8802
# 5 19.5754 26.2473 25.1893 0.0000 30.8132 0.0000
# 6 0.0000 0.0000 0.0000 -5.8802 0.0000 11.1821
#
#
#
# Elastic Compliance Matrix: (Units=1/GPa)
#
#
# Indices 1 2 3 4 5 6 
#
# 1 0.011548 -0.006380 -0.004980 0.000000 0.002169 0.000000
# 2 -0.006380 0.077113 -0.000198 0.000000 -0.061471 0.000000
# 3 -0.004980 -0.000198 0.016042 0.000000 -0.009782 0.000000
# 4 0.000000 0.000000 0.000000 0.086923 0.000000 0.045709
# 5 0.002169 -0.061471 -0.009782 0.000000 0.091434 0.000000
# 6 0.000000 0.000000 0.000000 0.045709 0.000000 0.113465
#
#
# Mechanical properties :
#
#
# Convention : Reuss Voigt Hill
#
# Bulk Modulus (GPa) = 12.25688 49.43385 30.84536
# Shear Modulus (GPa) = 11.18980 21.22278 16.20629
#
# Velocity S-wave (km/s) = 2.34665 3.23175 2.82409
# Velocity P-wave (km/s) = 3.65708 6.18491 5.08072
#
# Compressibility (1/GPa) = 0.08158685
#
# Stress axis : x y z
#
# Youngs Moduli (GPa) = 86.59825 12.96806 62.33583
#
# Poissons Ratio (x) = 0.08274 0.31041
# Poissons Ratio (y) = 0.55249 0.01234
# Poissons Ratio (z) = 0.43123 0.00257
#
# Static dielectric constant tensor:
#      x y z
#    x 1.735040 0.000000 -0.002360 
#    y 0.000000 1.716340 0.000000 
#    z -0.002360 0.000000 1.838360 
# 
# From -- ./inp_files/9192.got.cif
#   From: 2010.05.17/outbox.cif.g08.bks.cpg/sg15_5_cif.got.tgz:9192.got - 2010.06.03 18:47:42.
