data_PCOD9257144
_publ_section_title
;
Structure prediction by ZEFSAII (Michael W. Deem and Ramdas Pophale) SiO2 
 PCOD9257144
Probable space group: C 2/C
;
_chemical_formula_sum "Si O2"
_cell_formula_units_Z 60
_cell_length_a 22.292379
_cell_length_b 8.588721
_cell_length_c 29.601678
_cell_angle_alpha 90.000000
_cell_angle_beta 32.661492
_cell_angle_gamma 90.000000
_cell_volume 3058.674362
_symmetry_space_group_name_H-M "C 2/C"
_symmetry_group_IT_number 15
_symmetry_cell_setting 'monoclinic'
loop_
_space_group_symop_operation_xyz
x,y,z
-x,y,1/2-z
-x,-y,-z
x,-y,1/2+z
1/2+x,1/2+y,z
1/2-x,1/2+y,1/2-z
1/2-x,1/2-y,-z
1/2+x,1/2-y,1/2+z
loop_
_atom_site_type_symbol
_atom_site_label
_atom_site_fract_x
_atom_site_fract_y
_atom_site_fract_z
Si Si1 0.412555 0.296138 0.575747
Si Si2 0.948493 0.992550 0.192668
Si Si3 0.426077 0.541449 0.977005
Si Si4 0.350827 0.841223 0.761388
Si Si5 0.500000 0.324675 0.750000
Si Si6 0.764773 0.755920 0.788570
Si Si7 0.379388 0.985907 0.156825
Si Si8 0.805525 0.408957 0.355707
O O1 0.492389 0.419396 0.549566
O O2 0.424862 0.314655 0.513498
O O3 0.282071 0.341728 0.665348
O O4 0.436984 0.132367 0.585386
O O5 0.880845 0.837985 0.247906
O O6 0.871464 0.130639 0.221487
O O7 0.028549 0.936784 0.101877
O O8 0.996968 0.068969 0.207263
O O9 0.302881 0.469239 0.050150
O O10 0.418744 0.932577 0.678743
O O11 0.367347 0.940112 0.796281
O O12 0.607680 0.212027 0.678714
O O13 0.782392 0.625150 0.739540
O O14 0.757988 0.676044 0.841072
O O15 0.663433 0.867646 0.843601
#
# Coordination Sequence:
#
# PCOD9257144 Si02
#       8
#     8   8   8   8   4   8   8   8
#     4  10  19  32  55  90 129 168 177 223 303 372
#     4  11  20  39  62  85 111 158 206 255 298 345
#     4  10  21  37  58  90 134 157 187 244 318 355
#     4  10  20  33  62  87 125 156 203 243 282 370
#     4  10  24  42  70  82 102 160 224 262 302 350
#     4  10  18  30  55  83 119 153 206 229 284 359
#     4  11  16  29  54  88 118 164 191 232 273 364
#     4   9  22  40  58  88 115 157 203 259 303 357
#
# _framework density 19.616342
#
# number of rings (size 3 to 8) (size 9 to 14) (size 15 to 20)
#    0.000    1.867    4.000    0.000    0.000    3.200 
#    0.000    2.667    0.000    4.000    0.000    0.000 
#    0.000    0.000    0.000    0.000    0.000    0.000 
#
# Total GULP energy -167142.995975 kJ/mol
# GULP energy per Si atom -5571.433199 kJ/mol
# Density = 1.957169 g / cm^3
# Si number density = 19.616342 Si / 1000 Ang^3
#
#
#
# Elastic Constant Matrix: (Units=GPa)
#
#
# Indices 1 2 3 4 5 6 
#
# 1 70.6535 24.1699 32.7945 0.0081 0.1468 -0.0121
# 2 24.1699 89.7047 23.6180 0.0048 -7.7914 -0.0046
# 3 32.7945 23.6180 76.9312 0.0005 7.8970 -0.0016
# 4 0.0081 0.0048 0.0005 17.4193 -0.0050 0.0056
# 5 0.1468 -7.7914 7.8970 -0.0050 16.3140 0.0076
# 6 -0.0121 -0.0046 -0.0016 0.0056 0.0076 31.6510
#
#
#
# Elastic Compliance Matrix: (Units=1/GPa)
#
#
# Indices 1 2 3 4 5 6 
#
# 1 0.018481 -0.002924 -0.007177 -0.000007 0.001911 0.000006
# 2 -0.002924 0.013669 -0.003812 0.000000 0.008400 -0.000001
# 3 -0.007177 -0.003812 0.018319 0.000001 -0.010624 0.000000
# 4 -0.000007 0.000000 0.000001 0.057408 0.000017 -0.000010
# 5 0.001911 0.008400 -0.010624 0.000017 0.070434 -0.000016
# 6 0.000006 -0.000001 0.000000 -0.000010 -0.000016 0.031595
#
#
# Mechanical properties :
#
#
# Convention : Reuss Voigt Hill
#
# Bulk Modulus (GPa) = 44.16378 44.27269 44.21824
# Shear Modulus (GPa) = 20.38505 23.52399 21.95452
#
# Velocity S-wave (km/s) = 3.22714 3.46671 3.34907
# Velocity P-wave (km/s) = 6.03726 6.21630 6.12744
#
# Compressibility (1/GPa) = 0.02264299
#
# Stress axis : x y z
#
# Youngs Moduli (GPa) = 54.10971 73.15949 54.58889
#
# Poissons Ratio (x) = 0.21392 0.39176
# Poissons Ratio (y) = 0.15822 0.20810
# Poissons Ratio (z) = 0.38833 0.27889
#
# Static dielectric constant tensor:
#      x y z
#    x 1.703490 0.000000 0.009940 
#    y 0.000000 1.700870 0.000000 
#    z 0.009940 0.000000 1.735500 
# 
# From -- ./inp_files/318482.got.cif
#   From: 2010.05.17/outbox.cif.g08.bks.cpg/sg15_160_cif.got.tgz:318482.got - 2010.06.03 18:47:42.
