data_PCOD9257859
_publ_section_title
;
Structure prediction by ZEFSAII (Michael W. Deem and Ramdas Pophale) SiO2 
 PCOD9257859
Probable space group: C 2/C
;
_chemical_formula_sum "Si O2"
_cell_formula_units_Z 64
_cell_length_a 21.724115
_cell_length_b 16.669297
_cell_length_c 7.669326
_cell_angle_alpha 90.000000
_cell_angle_beta 100.198753
_cell_angle_gamma 90.000000
_cell_volume 2733.378032
_symmetry_space_group_name_H-M "C 2/C"
_symmetry_group_IT_number 15
_symmetry_cell_setting 'monoclinic'
loop_
_space_group_symop_operation_xyz
x,y,z
-x,y,1/2-z
-x,-y,-z
x,-y,1/2+z
1/2+x,1/2+y,z
1/2-x,1/2+y,1/2-z
1/2-x,1/2-y,-z
1/2+x,1/2-y,1/2+z
loop_
_atom_site_type_symbol
_atom_site_label
_atom_site_fract_x
_atom_site_fract_y
_atom_site_fract_z
Si Si1 0.308192 0.075920 0.875621
Si Si2 0.755670 0.235751 0.711851
Si Si3 0.611843 0.289815 0.049811
Si Si4 0.936117 0.229118 0.326207
Si Si5 0.288788 0.094081 0.280187
Si Si6 0.940801 0.603032 0.991107
Si Si7 0.995801 0.092601 0.952099
Si Si8 0.426944 0.120156 0.388203
O O1 0.285132 0.156723 0.770869
O O2 0.268649 0.995888 0.816449
O O3 0.302359 0.091783 0.079576
O O4 0.381836 0.060605 0.871837
O O5 0.750000 0.250000 0.500000
O O6 0.825282 0.210739 0.808454
O O7 0.748572 0.325455 0.790175
O O8 0.571150 0.370192 0.031228
O O9 0.569904 0.217220 0.107383
O O10 0.617365 0.272141 0.846544
O O11 0.926994 0.302879 0.449929
O O12 0.000000 0.245393 0.250000
O O13 0.950480 0.145674 0.428313
O O14 0.355856 0.105412 0.410232
O O15 0.935196 0.591063 0.194871
O O16 0.013069 0.588174 0.975944
O O17 0.000000 0.103594 0.750000
O O18 0.000000 0.000000 0.000000
#
# Coordination Sequence:
#
# PCOD9257859 Si02
#       8
#     8   8   8   8   8   8   8   8
#     4  10  21  38  59  83 115 152 199 251 288 353
#     4   9  20  41  63  82 114 165 208 241 304 362
#     4  10  19  35  57  82 115 150 193 247 300 357
#     4  10  19  32  52  84 115 145 188 242 300 360
#     4   9  20  38  58  84 115 153 196 247 295 351
#     4  10  18  32  54  84 113 147 192 224 288 353
#     4  11  21  35  55  82 119 153 194 250 312 375
#     4   9  17  32  57  80 111 154 187 227 282 359
#
# _framework density 23.414249000000002
#
# number of rings (size 3 to 8) (size 9 to 14) (size 15 to 20)
#    0.000    2.250    2.500    2.625    0.000    2.500 
#    0.000    8.750    0.000    0.000    0.000    0.000 
#    0.000    0.000    0.000    0.000    0.000    0.000 
#
# Total GULP energy -178576.990894 kJ/mol
# GULP energy per Si atom -5580.530965 kJ/mol
# Density = 2.336096 g / cm^3
# Si number density = 23.414249 Si / 1000 Ang^3
#
#
#
# Elastic Constant Matrix: (Units=GPa)
#
#
# Indices 1 2 3 4 5 6 
#
# 1 65.0486 28.9635 29.7433 0.0000 25.6823 0.0000
# 2 28.9635 181.6787 27.0676 0.0000 17.6561 0.0000
# 3 29.7433 27.0676 110.1193 0.0000 28.4749 0.0000
# 4 0.0000 0.0000 0.0000 33.6531 0.0000 -0.0643
# 5 25.6823 17.6561 28.4749 0.0000 31.1026 0.0000
# 6 0.0000 0.0000 0.0000 -0.0643 0.0000 25.9829
#
#
#
# Elastic Compliance Matrix: (Units=1/GPa)
#
#
# Indices 1 2 3 4 5 6 
#
# 1 0.023642 -0.001885 -0.001508 0.000000 -0.017071 0.000000
# 2 -0.001885 0.006024 -0.000642 0.000000 -0.001276 0.000000
# 3 -0.001508 -0.000642 0.012093 0.000000 -0.009461 0.000000
# 4 0.000000 0.000000 0.000000 0.029715 0.000000 0.000074
# 5 -0.017071 -0.001276 -0.009461 0.000000 0.055634 0.000000
# 6 0.000000 0.000000 0.000000 0.000074 0.000000 0.038487
#
#
# Mechanical properties :
#
#
# Convention : Reuss Voigt Hill
#
# Bulk Modulus (GPa) = 29.68350 58.71060 44.19705
# Shear Modulus (GPa) = 27.04240 36.21921 31.63081
#
# Velocity S-wave (km/s) = 3.40215 3.93732 3.67948
# Velocity P-wave (km/s) = 5.30452 6.76750 6.08017
#
# Compressibility (1/GPa) = 0.03368875
#
# Stress axis : x y z
#
# Youngs Moduli (GPa) = 42.29756 165.99273 82.69458
#
# Poissons Ratio (x) = 0.31296 0.12471
# Poissons Ratio (y) = 0.07975 0.05307
# Poissons Ratio (z) = 0.06379 0.10652
#
# Static dielectric constant tensor:
#      x y z
#    x 1.959060 0.000000 -0.004120 
#    y 0.000000 1.850230 0.000000 
#    z -0.004120 0.000000 1.911000 
# 
# From -- ./inp_files/66265.got.cif
#   From: 2010.05.17/outbox.cif.g08.bks.cpg/sg15_34_cif.got.tgz:66265.got - 2010.06.03 18:47:42.
