data_PCOD9257428
_publ_section_title
;
Structure prediction by ZEFSAII (Michael W. Deem and Ramdas Pophale) SiO2 
 PCOD9257428
Probable space group: C 2/C
;
_chemical_formula_sum "Si O2"
_cell_formula_units_Z 48
_cell_length_a 17.857281
_cell_length_b 18.787025
_cell_length_c 6.819638
_cell_angle_alpha 90.000000
_cell_angle_beta 47.114890
_cell_angle_gamma 90.000000
_cell_volume 1676.380434
_symmetry_space_group_name_H-M "C 2/C"
_symmetry_group_IT_number 15
_symmetry_cell_setting 'monoclinic'
loop_
_space_group_symop_operation_xyz
x,y,z
-x,y,1/2-z
-x,-y,-z
x,-y,1/2+z
1/2+x,1/2+y,z
1/2-x,1/2+y,1/2-z
1/2-x,1/2-y,-z
1/2+x,1/2-y,1/2+z
loop_
_atom_site_type_symbol
_atom_site_label
_atom_site_fract_x
_atom_site_fract_y
_atom_site_fract_z
Si Si1 0.147847 0.746333 0.824797
Si Si2 0.673641 0.592922 0.294107
Si Si3 0.850407 0.604621 0.471240
Si Si4 0.101642 0.549393 0.681682
Si Si5 0.500000 0.500000 0.000000
Si Si6 0.369401 0.381148 0.087685
Si Si7 0.000000 0.247208 0.250000
O O1 0.250000 0.750000 0.500000
O O2 0.142532 0.827412 0.912376
O O3 0.142271 0.690410 0.014364
O O4 0.057640 0.722450 0.836122
O O5 0.594014 0.530315 0.488327
O O6 0.791355 0.570451 0.115889
O O7 0.661787 0.596929 0.077292
O O8 0.879572 0.583292 0.641164
O O9 0.903492 0.536328 0.277209
O O10 0.732383 0.599703 0.616336
O O11 0.000000 0.574352 0.750000
O O12 0.463181 0.421190 0.016643
O O13 0.409026 0.301411 0.000660
#
# Coordination Sequence:
#
# PCOD9257428 Si02
#       7
#     8   8   8   8   4   8   4
#     4  11  19  34  57  88 116 151 198 261 291 352
#     4  10  21  34  57  91 118 149 204 252 304 351
#     4  11  23  39  61  90 121 157 206 254 305 359
#     4  11  23  40  59  88 121 165 203 246 296 372
#     4  12  16  32  58  82 120 148 180 260 306 366
#     4  10  18  31  53  87 115 143 191 251 299 349
#     4  10  18  32  50  86 116 144 198 246 298 330
#
# _framework density 28.633118
#
# number of rings (size 3 to 8) (size 9 to 14) (size 15 to 20)
#    0.000    1.333   10.000    0.500    1.167    0.000 
#    0.000    0.000    0.000    3.000    0.000    0.000 
#    0.000    0.000    0.000    0.000    0.000    0.000 
#
# Total GULP energy -133717.858296 kJ/mol
# GULP energy per Si atom -5571.577429 kJ/mol
# Density = 2.856795 g / cm^3
# Si number density = 28.633118 Si / 1000 Ang^3
#
#
#
# Elastic Constant Matrix: (Units=GPa)
#
#
# Indices 1 2 3 4 5 6 
#
# 1 140.7199 25.9540 47.2248 0.0000 -49.9207 0.0000
# 2 25.9540 175.4777 15.2757 0.0000 -6.5685 0.0000
# 3 47.2248 15.2757 101.2533 0.0000 -31.0937 0.0000
# 4 0.0000 0.0000 0.0000 33.3054 0.0000 -9.8383
# 5 -49.9207 -6.5685 -31.0937 0.0000 71.2872 0.0000
# 6 0.0000 0.0000 0.0000 -9.8383 0.0000 57.4138
#
#
#
# Elastic Compliance Matrix: (Units=1/GPa)
#
#
# Indices 1 2 3 4 5 6 
#
# 1 0.010357 -0.001062 -0.002856 0.000000 0.005909 0.000000
# 2 -0.001062 0.005885 -0.000525 0.000000 -0.000430 0.000000
# 3 -0.002856 -0.000525 0.012307 0.000000 0.003320 0.000000
# 4 0.000000 0.000000 0.000000 0.031626 0.000000 0.005419
# 5 0.005909 -0.000430 0.003320 0.000000 0.019574 0.000000
# 6 0.000000 0.000000 0.000000 0.005419 0.000000 0.018346
#
#
# Mechanical properties :
#
#
# Convention : Reuss Voigt Hill
#
# Bulk Modulus (GPa) = 50.85361 66.03997 58.44679
# Shear Modulus (GPa) = 44.03943 54.33438 49.18690
#
# Velocity S-wave (km/s) = 3.92606 4.36088 4.14917
# Velocity P-wave (km/s) = 6.19281 6.96208 6.58869
#
# Compressibility (1/GPa) = 0.01966429
#
# Stress axis : x y z
#
# Youngs Moduli (GPa) = 96.55471 169.91254 81.25654
#
# Poissons Ratio (x) = 0.18045 0.23203
# Poissons Ratio (y) = 0.10255 0.04264
# Poissons Ratio (z) = 0.27572 0.08915
#
# Static dielectric constant tensor:
#      x y z
#    x 2.104930 0.000000 0.094220 
#    y 0.000000 2.186700 0.000000 
#    z 0.094220 0.000000 2.729170 
# 
# From -- ./inp_files/113417.got.cif
#   From: 2010.05.17/outbox.cif.g08.bks.cpg/sg15_57_cif.got.tgz:113417.got - 2010.06.03 18:47:42.
