data_PCOD9257649
_publ_section_title
;
Structure prediction by ZEFSAII (Michael W. Deem and Ramdas Pophale) SiO2 
 PCOD9257649
Probable space group: C 2/C
;
_chemical_formula_sum "Si O2"
_cell_formula_units_Z 48
_cell_length_a 22.446024
_cell_length_b 5.682880
_cell_length_c 13.792333
_cell_angle_alpha 90.000000
_cell_angle_beta 89.940312
_cell_angle_gamma 90.000000
_cell_volume 1759.322298
_symmetry_space_group_name_H-M "C 2/C"
_symmetry_group_IT_number 15
_symmetry_cell_setting 'monoclinic'
loop_
_space_group_symop_operation_xyz
x,y,z
-x,y,1/2-z
-x,-y,-z
x,-y,1/2+z
1/2+x,1/2+y,z
1/2-x,1/2+y,1/2-z
1/2-x,1/2-y,-z
1/2+x,1/2-y,1/2+z
loop_
_atom_site_type_symbol
_atom_site_label
_atom_site_fract_x
_atom_site_fract_y
_atom_site_fract_z
Si Si1 0.642710 0.988955 0.495845
Si Si2 0.328687 0.488995 0.980697
Si Si3 0.500000 0.216286 0.750000
Si Si4 0.000000 0.500000 0.500000
Si Si5 0.762525 0.511534 0.196733
Si Si6 0.615469 0.088625 0.225064
Si Si7 0.048822 0.933280 0.119896
O O1 0.678626 0.229608 0.475910
O O2 0.572834 0.004107 0.472373
O O3 0.640899 0.963986 0.616289
O O4 0.672891 0.739881 0.464536
O O5 0.283165 0.506311 0.892149
O O6 0.398037 0.480059 0.947222
O O7 0.439701 0.076010 0.753372
O O8 0.495132 0.360872 0.850089
O O9 0.986121 0.717941 0.425124
O O10 0.744806 0.758982 0.249218
O O11 0.833981 0.545906 0.198079
O O12 0.584785 0.344680 0.215206
#
# Coordination Sequence:
#
# PCOD9257649 Si02
#       7
#     8   8   4   4   8   8   8
#     4  10  18  33  50  78 108 135 180 231 281 326
#     4  10  18  32  50  79 108 138 176 238 281 324
#     4  12  20  36  54  74 120 156 182 228 290 350
#     4   8  20  34  54  80 110 150 192 238 278 332
#     4  12  18  31  53  78 111 143 183 231 290 340
#     4  10  21  32  50  79 113 144 183 229 287 349
#     4  10  20  36  52  79 116 146 189 233 282 342
#
# _framework density 27.28323
#
# number of rings (size 3 to 8) (size 9 to 14) (size 15 to 20)
#    0.000    2.000    6.667    0.500    0.000    2.667 
#    0.000    0.000    0.000    0.000    0.000    5.833 
#    0.000    0.000    0.000    0.000    0.000    0.000 
#
# Total GULP energy -133880.211939 kJ/mol
# GULP energy per Si atom -5578.342164 kJ/mol
# Density = 2.722113 g / cm^3
# Si number density = 27.283230 Si / 1000 Ang^3
#
#
#
# Elastic Constant Matrix: (Units=GPa)
#
#
# Indices 1 2 3 4 5 6 
#
# 1 145.1006 65.5942 37.0543 0.0000 32.3982 0.0000
# 2 65.5942 190.0859 42.0176 0.0000 26.6387 0.0000
# 3 37.0543 42.0176 85.4808 0.0000 28.7144 0.0000
# 4 0.0000 0.0000 0.0000 41.6517 0.0000 4.3504
# 5 32.3982 26.6387 28.7144 0.0000 44.7926 0.0000
# 6 0.0000 0.0000 0.0000 4.3504 0.0000 32.3657
#
#
#
# Elastic Compliance Matrix: (Units=1/GPa)
#
#
# Indices 1 2 3 4 5 6 
#
# 1 0.009269 -0.002263 -0.001409 0.000000 -0.004455 0.000000
# 2 -0.002263 0.006614 -0.001910 0.000000 -0.001072 0.000000
# 3 -0.001409 -0.001910 0.015961 0.000000 -0.008077 0.000000
# 4 0.000000 0.000000 0.000000 0.024350 0.000000 -0.003273
# 5 -0.004455 -0.001072 -0.008077 0.000000 0.031363 0.000000
# 6 0.000000 0.000000 0.000000 -0.003273 0.000000 0.031337
#
#
# Mechanical properties :
#
#
# Convention : Reuss Voigt Hill
#
# Bulk Modulus (GPa) = 48.35368 78.88884 63.62126
# Shear Modulus (GPa) = 36.50886 42.16207 39.33547
#
# Velocity S-wave (km/s) = 3.66203 3.93536 3.80115
# Velocity P-wave (km/s) = 5.97009 7.04464 6.52951
#
# Compressibility (1/GPa) = 0.02068095
#
# Stress axis : x y z
#
# Youngs Moduli (GPa) = 107.88244 151.19230 62.65105
#
# Poissons Ratio (x) = 0.34211 0.08829
# Poissons Ratio (y) = 0.24411 0.11966
# Poissons Ratio (z) = 0.15203 0.28878
#
# Static dielectric constant tensor:
#      x y z
#    x 2.017110 0.000000 0.036940 
#    y 0.000000 2.253680 0.000000 
#    z 0.036940 0.000000 1.814420 
# 
# From -- ./inp_files/217598.got.cif
#   From: 2010.05.17/outbox.cif.g08.bks.cpg/sg15_109_cif.got.tgz:217598.got - 2010.06.03 18:47:42.
