data_PCOD9257765
_publ_section_title
;
Structure prediction by ZEFSAII (Michael W. Deem and Ramdas Pophale) SiO2 
 PCOD9257765
Probable space group: C 2/C
;
_chemical_formula_sum "Si O2"
_cell_formula_units_Z 60
_cell_length_a 19.235474
_cell_length_b 8.525187
_cell_length_c 28.462573
_cell_angle_alpha 90.000000
_cell_angle_beta 38.750056
_cell_angle_gamma 90.000000
_cell_volume 2921.478745
_symmetry_space_group_name_H-M "C 2/C"
_symmetry_group_IT_number 15
_symmetry_cell_setting 'monoclinic'
loop_
_space_group_symop_operation_xyz
x,y,z
-x,y,1/2-z
-x,-y,-z
x,-y,1/2+z
1/2+x,1/2+y,z
1/2-x,1/2+y,1/2-z
1/2-x,1/2-y,-z
1/2+x,1/2-y,1/2+z
loop_
_atom_site_type_symbol
_atom_site_label
_atom_site_fract_x
_atom_site_fract_y
_atom_site_fract_z
Si Si1 0.571314 0.569279 0.614755
Si Si2 0.293553 0.290048 0.842399
Si Si3 0.130667 0.556815 0.171443
Si Si4 0.948088 0.599792 0.388180
Si Si5 0.810803 0.301899 0.769784
Si Si6 0.791349 0.619144 0.015737
Si Si7 0.341269 0.442427 0.722658
Si Si8 0.000000 0.978370 0.250000
O O1 0.571904 0.723450 0.582706
O O2 0.693031 0.507087 0.559783
O O3 0.476954 0.441426 0.651016
O O4 0.523665 0.620795 0.691271
O O5 0.209973 0.328896 0.929086
O O6 0.281037 0.333513 0.794024
O O7 0.397709 0.404180 0.798227
O O8 0.322699 0.109570 0.835595
O O9 0.132911 0.578349 0.114496
O O10 0.187035 0.686602 0.174864
O O11 0.000000 0.550724 0.250000
O O12 0.908493 0.459396 0.441660
O O13 0.078202 0.604806 0.306228
O O14 0.707430 0.389419 0.801040
O O15 0.814031 0.122955 0.750215
O O16 0.750000 0.750000 0.000000
#
# Coordination Sequence:
#
# PCOD9257765 Si02
#       8
#     8   8   8   8   8   8   8   4
#     4   9  20  33  56  78 111 143 179 227 274 328
#     4  10  18  32  53  78 112 142 180 226 273 323
#     4  10  19  31  54  84 109 140 182 235 277 321
#     4  10  21  35  54  83 114 145 182 224 279 329
#     4  10  22  36  59  82 111 142 186 233 280 332
#     4  11  21  34  52  85 114 150 184 221 275 328
#     4  10  21  38  58  84 108 146 184 230 281 329
#     4   8  16  28  52  78 102 134 176 224 280 308
#
# _framework density 20.537545000000001
#
# number of rings (size 3 to 8) (size 9 to 14) (size 15 to 20)
#    0.000    2.133    2.000    1.200    8.400    1.067 
#    0.000    0.667    0.000    0.800    0.000    0.000 
#    0.000    0.000    0.000    0.000    0.000    0.000 
#
# Total GULP energy -167143.481552 kJ/mol
# GULP energy per Si atom -5571.449385 kJ/mol
# Density = 2.049080 g / cm^3
# Si number density = 20.537545 Si / 1000 Ang^3
#
#
#
# Elastic Constant Matrix: (Units=GPa)
#
#
# Indices 1 2 3 4 5 6 
#
# 1 64.8870 -10.0202 -3.0009 0.0000 6.8512 -0.0070
# 2 -10.0202 56.2116 -1.1505 0.0010 -3.3849 -0.0027
# 3 -3.0009 -1.1505 39.3207 0.0013 5.5410 0.0007
# 4 0.0000 0.0010 0.0013 21.4289 0.0003 2.0573
# 5 6.8512 -3.3849 5.5410 0.0003 20.7000 -0.0013
# 6 -0.0070 -0.0027 0.0007 2.0573 -0.0013 26.6114
#
#
#
# Elastic Compliance Matrix: (Units=1/GPa)
#
#
# Indices 1 2 3 4 5 6 
#
# 1 0.016510 0.002649 0.002127 -0.000001 -0.005601 0.000004
# 2 0.002649 0.018392 0.000457 -0.000001 0.002008 0.000003
# 3 0.002127 0.000457 0.026704 -0.000001 -0.007777 0.000000
# 4 -0.000001 -0.000001 -0.000001 0.047015 -0.000001 -0.003635
# 5 -0.005601 0.002008 -0.007777 -0.000001 0.052573 0.000002
# 6 0.000004 0.000003 0.000000 -0.003635 0.000002 0.037859
#
#
# Mechanical properties :
#
#
# Convention : Reuss Voigt Hill
#
# Bulk Modulus (GPa) = 13.87478 14.67513 14.27495
# Shear Modulus (GPa) = 23.51718 25.38745 24.45232
#
# Velocity S-wave (km/s) = 3.38758 3.51970 3.45427
# Velocity P-wave (km/s) = 4.69802 4.86608 4.78279
#
# Compressibility (1/GPa) = 0.07207323
#
# Stress axis : x y z
#
# Youngs Moduli (GPa) = 60.56848 54.36999 37.44820
#
# Poissons Ratio (x) = -0.14405 -0.07964
# Poissons Ratio (y) = -0.16047 -0.01713
# Poissons Ratio (z) = -0.12882 -0.02487
#
# Static dielectric constant tensor:
#      x y z
#    x 1.767970 0.000000 0.047950 
#    y 0.000000 1.767170 0.000000 
#    z 0.047950 0.000000 1.785600 
# 
# From -- ./inp_files/300515.got.cif
#   From: 2010.05.17/outbox.cif.g08.bks.cpg/sg15_151_cif.got.tgz:300515.got - 2010.06.03 18:47:42.
