data_PCOD9257241
_publ_section_title
;
Structure prediction by ZEFSAII (Michael W. Deem and Ramdas Pophale) SiO2 
 PCOD9257241
Probable space group: C 2/C
;
_chemical_formula_sum "Si O2"
_cell_formula_units_Z 60
_cell_length_a 19.979411
_cell_length_b 8.393796
_cell_length_c 23.209486
_cell_angle_alpha 90.000000
_cell_angle_beta 44.578519
_cell_angle_gamma 90.000000
_cell_volume 2731.953025
_symmetry_space_group_name_H-M "C 2/C"
_symmetry_group_IT_number 15
_symmetry_cell_setting 'monoclinic'
loop_
_space_group_symop_operation_xyz
x,y,z
-x,y,1/2-z
-x,-y,-z
x,-y,1/2+z
1/2+x,1/2+y,z
1/2-x,1/2+y,1/2-z
1/2-x,1/2-y,-z
1/2+x,1/2-y,1/2+z
loop_
_atom_site_type_symbol
_atom_site_label
_atom_site_fract_x
_atom_site_fract_y
_atom_site_fract_z
Si Si1 0.077353 0.644899 0.909138
Si Si2 0.327255 0.057730 0.288679
Si Si3 0.924424 0.107445 0.695453
Si Si4 0.784961 0.148591 0.253796
Si Si5 0.389552 0.696372 0.883802
Si Si6 0.295169 0.761762 0.062701
Si Si7 0.000000 0.527338 0.250000
Si Si8 0.584339 0.777931 0.914397
O O1 0.138776 0.735114 0.823379
O O2 0.144761 0.653435 0.924576
O O3 0.058943 0.458569 0.907626
O O4 0.979049 0.730664 0.989093
O O5 0.379548 0.228070 0.245470
O O6 0.267798 0.050120 0.265436
O O7 0.246271 0.096773 0.385589
O O8 0.415626 0.953361 0.260354
O O9 0.941847 0.145201 0.616892
O O10 0.022995 0.075967 0.666512
O O11 0.846794 0.974434 0.751002
O O12 0.699675 0.223240 0.343791
O O13 0.298232 0.647203 0.903231
O O14 0.434593 0.858846 0.830452
O O15 0.356532 0.730565 0.968710
#
# Coordination Sequence:
#
# PCOD9257241 Si02
#       8
#     8   8   8   8   8   8   4   8
#     4  10  20  33  50  74 101 134 169 201 248 307
#     4   8  16  27  43  66  95 126 155 199 245 290
#     4  10  18  31  48  74 100 129 165 205 247 295
#     4  10  19  31  49  73 104 130 164 213 252 292
#     4   9  16  26  45  68  96 122 155 206 249 288
#     4   9  15  28  44  68  95 123 157 202 246 290
#     4   8  14  26  42  62  90 122 160 192 242 290
#     4  10  19  33  49  70 101 136 169 200 247 304
#
# _framework density 21.962309000000001
#
# number of rings (size 3 to 8) (size 9 to 14) (size 15 to 20)
#    0.000    2.667    1.333    2.400    0.000    0.533 
#    0.000    0.000    0.000    0.000    0.000   16.800 
#    0.000   16.000    0.000    0.000    0.000    0.000 
#
# Total GULP energy -167079.546060 kJ/mol
# GULP energy per Si atom -5569.318202 kJ/mol
# Density = 2.191232 g / cm^3
# Si number density = 21.962309 Si / 1000 Ang^3
#
#
#
# Elastic Constant Matrix: (Units=GPa)
#
#
# Indices 1 2 3 4 5 6 
#
# 1 110.5967 6.7547 12.1617 0.0000 -31.1652 0.0001
# 2 6.7547 28.2301 12.9843 0.0000 -6.7054 0.0002
# 3 12.1617 12.9843 145.8967 0.0000 -16.4564 0.0000
# 4 0.0000 0.0000 0.0000 21.3340 0.0000 -2.2425
# 5 -31.1652 -6.7054 -16.4564 0.0000 40.7436 0.0000
# 6 0.0001 0.0002 0.0000 -2.2425 0.0000 18.4520
#
#
#
# Elastic Compliance Matrix: (Units=1/GPa)
#
#
# Indices 1 2 3 4 5 6 
#
# 1 0.011540 -0.000725 0.000089 0.000000 0.008744 0.000000
# 2 -0.000725 0.037970 -0.002804 0.000000 0.004562 0.000000
# 3 0.000089 -0.002804 0.007389 0.000000 0.002591 0.000000
# 4 0.000000 0.000000 0.000000 0.047480 0.000000 0.005770
# 5 0.008744 0.004562 0.002591 0.000000 0.033029 0.000000
# 6 0.000000 0.000000 0.000000 0.005770 0.000000 0.054896
#
#
# Mechanical properties :
#
#
# Convention : Reuss Voigt Hill
#
# Bulk Modulus (GPa) = 19.99297 38.72499 29.35898
# Shear Modulus (GPa) = 23.16339 32.96078 28.06208
#
# Velocity S-wave (km/s) = 3.25112 3.87820 3.57842
# Velocity P-wave (km/s) = 4.81831 6.14204 5.52000
#
# Compressibility (1/GPa) = 0.05001757
#
# Stress axis : x y z
#
# Youngs Moduli (GPa) = 86.65280 26.33656 135.34468
#
# Poissons Ratio (x) = 0.01910 -0.01202
# Poissons Ratio (y) = 0.06285 0.37954
# Poissons Ratio (z) = -0.00770 0.07385
#
# Static dielectric constant tensor:
#      x y z
#    x 1.894580 0.000000 0.001050 
#    y 0.000000 1.839710 0.000000 
#    z 0.001050 0.000000 1.904280 
# 
# From -- ./inp_files/301899.got.cif
#   From: 2010.05.17/outbox.cif.g08.bks.cpg/sg15_151_cif.got.tgz:301899.got - 2010.06.03 18:47:42.
