data_PCOD9257921
_publ_section_title
;
Structure prediction by ZEFSAII (Michael W. Deem and Ramdas Pophale) SiO2 
 PCOD9257921
Probable space group: C 2/C
;
_chemical_formula_sum "Si O2"
_cell_formula_units_Z 60
_cell_length_a 14.729270
_cell_length_b 16.576500
_cell_length_c 13.869905
_cell_angle_alpha 90.000000
_cell_angle_beta 98.223237
_cell_angle_gamma 90.000000
_cell_volume 3351.653778
_symmetry_space_group_name_H-M "C 2/C"
_symmetry_group_IT_number 15
_symmetry_cell_setting 'monoclinic'
loop_
_space_group_symop_operation_xyz
x,y,z
-x,y,1/2-z
-x,-y,-z
x,-y,1/2+z
1/2+x,1/2+y,z
1/2-x,1/2+y,1/2-z
1/2-x,1/2-y,-z
1/2+x,1/2-y,1/2+z
loop_
_atom_site_type_symbol
_atom_site_label
_atom_site_fract_x
_atom_site_fract_y
_atom_site_fract_z
Si Si1 0.394972 0.716746 0.130344
Si Si2 0.732909 0.583095 0.443895
Si Si3 0.630925 0.875142 0.064075
Si Si4 0.500000 0.985429 0.750000
Si Si5 0.186201 0.487510 0.722216
Si Si6 0.071460 0.601302 0.929730
Si Si7 0.394873 0.696952 0.358215
Si Si8 0.226313 0.942900 0.568793
O O1 0.318241 0.668021 0.059468
O O2 0.405052 0.810977 0.109103
O O3 0.376164 0.706921 0.241261
O O4 0.495717 0.682814 0.120058
O O5 0.742988 0.558715 0.334606
O O6 0.838114 0.579208 0.497376
O O7 0.682947 0.511797 0.494371
O O8 0.662093 0.929759 0.161241
O O9 0.524137 0.895447 0.025954
O O10 0.631418 0.781634 0.094547
O O11 0.696260 0.898784 0.985322
O O12 0.588056 0.941890 0.718645
O O13 0.545787 0.042148 0.838229
O O14 0.230653 0.490197 0.833782
O O15 0.340505 0.624656 0.399552
#
# Coordination Sequence:
#
# PCOD9257921 Si02
#       8
#     8   8   8   4   8   8   8   8
#     4  10  20  36  56  78 105 143 189 226 259 312
#     4  11  22  33  53  84 111 137 178 227 277 313
#     4   9  21  35  57  80 108 147 181 212 266 333
#     4  10  18  32  56  74 110 146 170 208 272 326
#     4  10  20  33  50  83 112 139 172 220 272 321
#     4  10  19  34  54  82 109 140 178 218 266 323
#     4  10  20  38  59  75 104 148 191 220 258 320
#     4  11  21  35  55  82 112 140 178 226 273 317
#
# _framework density 17.901612
#
# number of rings (size 3 to 8) (size 9 to 14) (size 15 to 20)
#    0.000    1.867    2.667    3.200    1.867    2.133 
#    0.000    0.000    0.000    0.000    0.000    0.000 
#    0.000    0.000    0.000    0.000    0.000    0.000 
#
# Total GULP energy -167195.884806 kJ/mol
# GULP energy per Si atom -5573.196160 kJ/mol
# Density = 1.786087 g / cm^3
# Si number density = 17.901612 Si / 1000 Ang^3
#
#
#
# Elastic Constant Matrix: (Units=GPa)
#
#
# Indices 1 2 3 4 5 6 
#
# 1 41.8626 25.9091 27.1239 0.0000 -10.8012 0.0000
# 2 25.9091 55.9980 14.4480 0.0000 -5.5982 0.0000
# 3 27.1239 14.4480 82.4119 0.0000 -15.4250 0.0000
# 4 0.0000 0.0000 0.0000 17.6013 0.0000 5.2131
# 5 -10.8012 -5.5982 -15.4250 0.0000 28.3442 0.0000
# 6 0.0000 0.0000 0.0000 5.2131 0.0000 26.3478
#
#
#
# Elastic Compliance Matrix: (Units=1/GPa)
#
#
# Indices 1 2 3 4 5 6 
#
# 1 0.042129 -0.016256 -0.009588 0.000000 0.007625 0.000000
# 2 -0.016256 0.025092 0.000801 0.000000 -0.000803 0.000000
# 3 -0.009588 0.000801 0.016139 0.000000 0.005287 0.000000
# 4 0.000000 0.000000 0.000000 0.060350 0.000000 -0.011941
# 5 0.007625 -0.000803 0.005287 0.000000 0.040905 0.000000
# 6 0.000000 0.000000 0.000000 -0.011941 0.000000 0.040316
#
#
# Mechanical properties :
#
#
# Convention : Reuss Voigt Hill
#
# Bulk Modulus (GPa) = 30.05426 35.02605 32.54015
# Shear Modulus (GPa) = 17.47581 21.97809 19.72695
#
# Velocity S-wave (km/s) = 3.12783 3.50768 3.32319
# Velocity P-wave (km/s) = 5.46530 6.00112 5.73946
#
# Compressibility (1/GPa) = 0.03327316
#
# Stress axis : x y z
#
# Youngs Moduli (GPa) = 23.73685 39.85320 61.96102
#
# Poissons Ratio (x) = 0.64785 0.59411
# Poissons Ratio (y) = 0.38586 -0.04963
# Poissons Ratio (z) = 0.22760 -0.03192
#
# Static dielectric constant tensor:
#      x y z
#    x 1.641210 0.000000 -0.010040 
#    y 0.000000 1.622440 0.000000 
#    z -0.010040 0.000000 1.632570 
# 
# From -- ./inp_files/98356.got.cif
#   From: 2010.05.17/outbox.cif.g08.bks.cpg/sg15_50_cif.got.tgz:98356.got - 2010.06.03 18:47:42.
