data_PCOD9257659
_publ_section_title
;
Structure prediction by ZEFSAII (Michael W. Deem and Ramdas Pophale) SiO2 
 PCOD9257659
Probable space group: C 2/C
;
_chemical_formula_sum "Si O2"
_cell_formula_units_Z 60
_cell_length_a 5.560899
_cell_length_b 22.937272
_cell_length_c 21.529038
_cell_angle_alpha 90.000000
_cell_angle_beta 119.515376
_cell_angle_gamma 90.000000
_cell_volume 2389.693552
_symmetry_space_group_name_H-M "C 2/C"
_symmetry_group_IT_number 15
_symmetry_cell_setting 'monoclinic'
loop_
_space_group_symop_operation_xyz
x,y,z
-x,y,1/2-z
-x,-y,-z
x,-y,1/2+z
1/2+x,1/2+y,z
1/2-x,1/2+y,1/2-z
1/2-x,1/2-y,-z
1/2+x,1/2-y,1/2+z
loop_
_atom_site_type_symbol
_atom_site_label
_atom_site_fract_x
_atom_site_fract_y
_atom_site_fract_z
Si Si1 0.963231 0.917802 0.834318
Si Si2 0.440850 0.287134 0.842661
Si Si3 0.980763 0.068864 0.479434
Si Si4 0.420334 0.933151 0.469893
Si Si5 0.000000 0.498229 0.250000
Si Si6 0.573001 0.752590 0.913606
Si Si7 0.206835 0.818199 0.226340
Si Si8 0.749220 0.520902 0.827064
O O1 0.747279 0.957389 0.771519
O O2 0.926080 0.851637 0.812842
O O3 0.238880 0.954541 0.853922
O O4 0.894398 0.924741 0.897614
O O5 0.267066 0.283118 0.885094
O O6 0.311872 0.240504 0.777825
O O7 0.771063 0.278625 0.893021
O O8 0.291371 0.094552 0.515712
O O9 0.758950 0.095147 0.498570
O O10 0.000000 0.000000 0.500000
O O11 0.500000 0.000000 0.500000
O O12 0.235740 0.939988 0.385784
O O13 0.018040 0.467985 0.318721
O O14 0.461454 0.697174 0.857887
O O15 0.750000 0.750000 0.000000
O O16 0.500000 0.848644 0.250000
O O17 0.000000 0.845010 0.250000
O O18 0.500000 0.536678 0.750000
#
# Coordination Sequence:
#
# PCOD9257659 Si02
#       8
#     8   8   8   8   4   8   8   8
#     4  11  22  32  50  76 108 149 183 223 267 331
#     4  10  22  33  54  78 113 141 182 211 274 330
#     4  10  19  32  52  68  96 140 192 224 262 309
#     4  10  18  32  51  64  94 138 183 226 270 308
#     4  10  22  30  46  68 112 146 178 214 274 312
#     4  10  20  36  54  75 106 150 179 222 258 318
#     4   8  16  30  48  71 101 138 174 199 246 317
#     4  10  21  32  45  73 104 140 184 231 271 323
#
# _framework density 25.107821999999999
#
# number of rings (size 3 to 8) (size 9 to 14) (size 15 to 20)
#    0.000    2.133    2.667    2.000    6.533    3.733 
#    0.000    0.000    0.000    0.000    0.000    0.000 
#    0.000   32.000    0.000    0.000    0.000    0.000 
#
# Total GULP energy -167228.478825 kJ/mol
# GULP energy per Si atom -5574.282628 kJ/mol
# Density = 2.505068 g / cm^3
# Si number density = 25.107822 Si / 1000 Ang^3
#
#
#
# Elastic Constant Matrix: (Units=GPa)
#
#
# Indices 1 2 3 4 5 6 
#
# 1 216.9578 19.1029 50.6035 0.0000 -27.0495 0.0000
# 2 19.1029 87.3528 14.8818 0.0000 -9.8484 0.0000
# 3 50.6035 14.8818 150.3271 0.0000 -19.9155 0.0000
# 4 0.0000 0.0000 0.0000 11.1014 0.0000 -8.9193
# 5 -27.0495 -9.8484 -19.9155 0.0000 48.6581 0.0000
# 6 0.0000 0.0000 0.0000 -8.9193 0.0000 -3.5061
#
#
#
# Elastic Compliance Matrix: (Units=1/GPa)
#
#
# Indices 1 2 3 4 5 6 
#
# 1 0.005274 -0.000662 -0.001416 0.000000 0.002218 0.000000
# 2 -0.000662 0.011913 -0.000725 0.000000 0.001746 0.000000
# 3 -0.001416 -0.000725 0.007483 0.000000 0.002129 0.000000
# 4 0.000000 0.000000 0.000000 0.029593 0.000000 -0.075283
# 5 0.002218 0.001746 0.002129 0.000000 0.023010 0.000000
# 6 0.000000 0.000000 0.000000 -0.075283 0.000000 -0.093701
#
#
# Mechanical properties :
#
#
# Convention : Reuss Voigt Hill
#
# Bulk Modulus (GPa) = 52.45601 69.31270 60.88435
# Shear Modulus (GPa) = -1119.26149 35.92064 -541.67042
#
# Velocity S-wave (km/s) = -21.13646 3.78650 -14.70395
# Velocity P-wave (km/s) = 23.97350 6.83979 16.24724
#
# Compressibility (1/GPa) = 0.01906359
#
# Stress axis : x y z
#
# Youngs Moduli (GPa) = 189.59668 83.94165 133.64319
#
# Poissons Ratio (x) = 0.05558 0.18924
# Poissons Ratio (y) = 0.12553 0.09691
# Poissons Ratio (z) = 0.26847 0.06087
#
# Static dielectric constant tensor:
#      x y z
#    x -6.548960 0.000000 0.867860 
#    y 0.000000 2.005350 0.000000 
#    z 0.867860 0.000000 1.952910 
# 
# From -- ./inp_files/228829.got.cif
#   From: 2010.05.17/outbox.cif.g08.bks.cpg/sg15_115_cif.got.tgz:228829.got - 2010.06.03 18:47:42.
