data_PCOD9257652
_publ_section_title
;
Structure prediction by ZEFSAII (Michael W. Deem and Ramdas Pophale) SiO2 
 PCOD9257652
Probable space group: C 2/C
;
_chemical_formula_sum "Si O2"
_cell_formula_units_Z 56
_cell_length_a 5.273757
_cell_length_b 24.312543
_cell_length_c 23.791347
_cell_angle_alpha 90.000000
_cell_angle_beta 65.995075
_cell_angle_gamma 90.000000
_cell_volume 2786.654155
_symmetry_space_group_name_H-M "C 2/C"
_symmetry_group_IT_number 15
_symmetry_cell_setting 'monoclinic'
loop_
_space_group_symop_operation_xyz
x,y,z
-x,y,1/2-z
-x,-y,-z
x,-y,1/2+z
1/2+x,1/2+y,z
1/2-x,1/2+y,1/2-z
1/2-x,1/2-y,-z
1/2+x,1/2-y,1/2+z
loop_
_atom_site_type_symbol
_atom_site_label
_atom_site_fract_x
_atom_site_fract_y
_atom_site_fract_z
Si Si1 0.168955 0.204674 0.129777
Si Si2 0.348689 0.470522 0.566865
Si Si3 0.342329 0.983125 0.072188
Si Si4 0.569963 0.699093 0.960533
Si Si5 0.244357 0.344889 0.589736
Si Si6 0.345648 0.144662 0.589585
Si Si7 0.672381 0.803273 0.287331
O O1 0.296268 0.243132 0.068661
O O2 0.430966 0.172697 0.131313
O O3 0.946537 0.163608 0.123719
O O4 0.002898 0.248212 0.182563
O O5 0.500000 0.500000 0.500000
O O6 0.561992 0.482158 0.597438
O O7 0.282935 0.406679 0.563591
O O8 0.057599 0.500617 0.600777
O O9 0.294723 0.918482 0.078805
O O10 0.500000 0.000000 0.000000
O O11 0.390140 0.678168 0.923157
O O12 0.835403 0.661091 0.953229
O O13 0.359034 0.695670 0.031007
O O14 0.332466 0.158597 0.656806
O O15 0.500000 0.827573 0.250000
O O16 0.000000 0.791396 0.250000
#
# Coordination Sequence:
#
# PCOD9257652 Si02
#       7
#     8   8   8   8   8   8   8
#     4  11  23  36  55  84 114 153 195 237 295 355
#     4  10  20  32  50  76 113 158 195 220 258 318
#     4  10  18  32  50  80 116 153 193 232 275 341
#     4  11  20  34  52  82 123 159 184 223 283 362
#     4  12  21  35  54  83 124 161 193 227 276 353
#     4  11  21  35  59  87 117 156 201 239 294 358
#     4  11  23  42  62  84 113 148 198 260 306 349
#
# _framework density 20.095783999999998
#
# number of rings (size 3 to 8) (size 9 to 14) (size 15 to 20)
#    0.000    1.143    0.000   11.143    0.000    0.000 
#    0.000    0.000    0.000    0.000    0.000   15.000 
#    0.000    0.000    0.000    0.000    0.000    0.000 
#
# Total GULP energy -156286.008696 kJ/mol
# GULP energy per Si atom -5581.643168 kJ/mol
# Density = 2.005004 g / cm^3
# Si number density = 20.095784 Si / 1000 Ang^3
#
#
#
# Elastic Constant Matrix: (Units=GPa)
#
#
# Indices 1 2 3 4 5 6 
#
# 1 177.3701 32.7965 24.0086 0.0000 0.0962 0.0000
# 2 32.7965 101.6945 12.3191 0.0000 -3.4100 0.0000
# 3 24.0086 12.3191 50.9464 0.0000 -0.7970 0.0000
# 4 0.0000 0.0000 0.0000 8.5730 0.0000 2.3894
# 5 0.0962 -3.4100 -0.7970 0.0000 30.3200 0.0000
# 6 0.0000 0.0000 0.0000 2.3894 0.0000 26.2204
#
#
#
# Elastic Compliance Matrix: (Units=1/GPa)
#
#
# Indices 1 2 3 4 5 6 
#
# 1 0.006305 -0.001733 -0.002556 0.000000 -0.000282 0.000000
# 2 -0.001733 0.010642 -0.001738 0.000000 0.001157 0.000000
# 3 -0.002556 -0.001738 0.021259 0.000000 0.000371 0.000000
# 4 0.000000 0.000000 0.000000 0.119685 0.000000 -0.010906
# 5 -0.000282 0.001157 0.000371 0.000000 0.033122 0.000000
# 6 0.000000 0.000000 0.000000 -0.010906 0.000000 0.039132
#
#
# Mechanical properties :
#
#
# Convention : Reuss Voigt Hill
#
# Bulk Modulus (GPa) = 38.24110 52.02884 45.13497
# Shear Modulus (GPa) = 19.92692 30.41514 25.17103
#
# Velocity S-wave (km/s) = 3.15238 3.89460 3.54298
# Velocity P-wave (km/s) = 5.68513 6.79489 6.26463
#
# Compressibility (1/GPa) = 0.02614987
#
# Stress axis : x y z
#
# Youngs Moduli (GPa) = 158.61560 93.97050 47.03816
#
# Poissons Ratio (x) = 0.16285 0.12025
# Poissons Ratio (y) = 0.27488 0.08177
# Poissons Ratio (z) = 0.40548 0.16336
#
# Static dielectric constant tensor:
#      x y z
#    x 1.796200 0.000000 0.001950 
#    y 0.000000 1.725850 0.000000 
#    z 0.001950 0.000000 1.709170 
# 
# From -- ./inp_files/228092.got.cif
#   From: 2010.05.17/outbox.cif.g08.bks.cpg/sg15_115_cif.got.tgz:228092.got - 2010.06.03 18:47:42.
