data_PCOD9257942
_publ_section_title
;
Structure prediction by ZEFSAII (Michael W. Deem and Ramdas Pophale) SiO2 
 PCOD9257942
Probable space group: C 2/C
;
_chemical_formula_sum "Si O2"
_cell_formula_units_Z 60
_cell_length_a 21.232244
_cell_length_b 8.403942
_cell_length_c 14.998740
_cell_angle_alpha 90.000000
_cell_angle_beta 77.409542
_cell_angle_gamma 90.000000
_cell_volume 2611.936760
_symmetry_space_group_name_H-M "C 2/C"
_symmetry_group_IT_number 15
_symmetry_cell_setting 'monoclinic'
loop_
_space_group_symop_operation_xyz
x,y,z
-x,y,1/2-z
-x,-y,-z
x,-y,1/2+z
1/2+x,1/2+y,z
1/2-x,1/2+y,1/2-z
1/2-x,1/2-y,-z
1/2+x,1/2-y,1/2+z
loop_
_atom_site_type_symbol
_atom_site_label
_atom_site_fract_x
_atom_site_fract_y
_atom_site_fract_z
Si Si1 0.532868 0.686516 0.380609
Si Si2 0.189029 0.291290 0.912318
Si Si3 0.405820 0.010294 0.171886
Si Si4 0.283472 0.461686 0.418016
Si Si5 0.423972 0.544736 0.325148
Si Si6 0.150226 0.066902 0.435678
Si Si7 0.500000 0.243332 0.250000
Si Si8 0.712570 0.211485 0.776913
O O1 0.547449 0.872390 0.377659
O O2 0.458257 0.647635 0.391305
O O3 0.559168 0.615041 0.277633
O O4 0.575153 0.608121 0.445458
O O5 0.128721 0.390708 0.894456
O O6 0.229687 0.408278 0.963861
O O7 0.239196 0.258209 0.815784
O O8 0.163387 0.118430 0.944230
O O9 0.345390 0.909690 0.233319
O O10 0.448449 0.130637 0.216657
O O11 0.348270 0.542098 0.360396
O O12 0.312412 0.359591 0.491030
O O13 0.252076 0.370387 0.345132
O O14 0.455651 0.368096 0.319478
O O15 0.182070 0.136178 0.336227
#
# Coordination Sequence:
#
# PCOD9257942 Si02
#       8
#     8   8   8   8   8   8   4   8
#     4   9  19  36  56  76 107 147 187 229 273 330
#     4  11  21  36  57  83 109 144 187 227 272 334
#     4  10  19  32  55  80 105 136 179 230 273 312
#     4  11  22  35  55  83 113 143 180 230 288 333
#     4  10  20  35  56  81 107 144 190 228 274 332
#     4  11  21  36  56  81 113 144 179 231 286 332
#     4  10  18  32  56  82 104 134 186 240 266 314
#     4  10  21  37  57  80 111 148 184 221 276 342
#
# _framework density 22.971458999999999
#
# number of rings (size 3 to 8) (size 9 to 14) (size 15 to 20)
#    0.000    1.867    0.000    8.000    0.000    0.533 
#    0.000    0.000    0.000    4.000    0.000    0.000 
#    0.000    0.000    0.000    0.000    0.000    0.000 
#
# Total GULP energy -167504.022105 kJ/mol
# GULP energy per Si atom -5583.467404 kJ/mol
# Density = 2.291917 g / cm^3
# Si number density = 22.971459 Si / 1000 Ang^3
#
#
#
# Elastic Constant Matrix: (Units=GPa)
#
#
# Indices 1 2 3 4 5 6 
#
# 1 180.1706 63.8489 13.3820 0.0000 41.7513 0.0000
# 2 63.8489 109.2253 6.8704 0.0000 18.1448 0.0000
# 3 13.3820 6.8704 42.0917 0.0000 7.5556 0.0000
# 4 0.0000 0.0000 0.0000 18.9905 0.0000 6.7985
# 5 41.7513 18.1448 7.5556 0.0000 37.7241 0.0000
# 6 0.0000 0.0000 0.0000 6.7985 0.0000 52.9569
#
#
#
# Elastic Compliance Matrix: (Units=1/GPa)
#
#
# Indices 1 2 3 4 5 6 
#
# 1 0.008728 -0.003776 -0.000779 0.000000 -0.007687 0.000000
# 2 -0.003776 0.011610 -0.000459 0.000000 -0.001313 0.000000
# 3 -0.000779 -0.000459 0.024777 0.000000 -0.003880 0.000000
# 4 0.000000 0.000000 0.000000 0.055195 0.000000 -0.007086
# 5 -0.007687 -0.001313 -0.003880 0.000000 0.036425 0.000000
# 6 0.000000 0.000000 0.000000 -0.007086 0.000000 0.019793
#
#
# Mechanical properties :
#
#
# Convention : Reuss Voigt Hill
#
# Bulk Modulus (GPa) = 28.50020 55.52114 42.01067
# Shear Modulus (GPa) = 28.05074 38.42671 33.23873
#
# Velocity S-wave (km/s) = 3.49823 4.09443 3.80802
# Velocity P-wave (km/s) = 5.36196 6.82455 6.13698
#
# Compressibility (1/GPa) = 0.03508747
#
# Stress axis : x y z
#
# Youngs Moduli (GPa) = 114.57948 86.13564 40.36072
#
# Poissons Ratio (x) = 0.32523 0.03142
# Poissons Ratio (y) = 0.43263 0.01852
# Poissons Ratio (z) = 0.08920 0.03952
#
# Static dielectric constant tensor:
#      x y z
#    x 1.883140 0.000000 0.016080 
#    y 0.000000 1.888100 0.000000 
#    z 0.016080 0.000000 1.901210 
# 
# From -- ./inp_files/213891.got.cif
#   From: 2010.05.17/outbox.cif.g08.bks.cpg/sg15_107_cif.got.tgz:213891.got - 2010.06.03 18:47:42.
