data_PCOD9257746
_publ_section_title
;
Structure prediction by ZEFSAII (Michael W. Deem and Ramdas Pophale) SiO2 
 PCOD9257746
Probable space group: C 2/C
;
_chemical_formula_sum "Si O2"
_cell_formula_units_Z 60
_cell_length_a 16.437246
_cell_length_b 13.320322
_cell_length_c 16.784525
_cell_angle_alpha 90.000000
_cell_angle_beta 47.235250
_cell_angle_gamma 90.000000
_cell_volume 2697.964918
_symmetry_space_group_name_H-M "C 2/C"
_symmetry_group_IT_number 15
_symmetry_cell_setting 'monoclinic'
loop_
_space_group_symop_operation_xyz
x,y,z
-x,y,1/2-z
-x,-y,-z
x,-y,1/2+z
1/2+x,1/2+y,z
1/2-x,1/2+y,1/2-z
1/2-x,1/2-y,-z
1/2+x,1/2-y,1/2+z
loop_
_atom_site_type_symbol
_atom_site_label
_atom_site_fract_x
_atom_site_fract_y
_atom_site_fract_z
Si Si1 0.220709 0.358976 0.629574
Si Si2 0.135482 0.050489 0.164731
Si Si3 0.584407 0.760380 0.578297
Si Si4 0.716660 0.084481 0.579980
Si Si5 0.899576 0.245982 0.251006
Si Si6 0.097106 0.399282 0.866673
Si Si7 0.500000 0.396068 0.250000
Si Si8 0.973201 0.400140 0.418883
O O1 0.323971 0.291468 0.537264
O O2 0.130576 0.322295 0.624044
O O3 0.241235 0.477945 0.603015
O O4 0.180332 0.353338 0.747362
O O5 0.143821 0.132657 0.227421
O O6 0.000000 0.028807 0.250000
O O7 0.188940 0.097306 0.050528
O O8 0.143259 0.931581 0.163597
O O9 0.514626 0.836986 0.572816
O O10 0.512152 0.670257 0.663054
O O11 0.694213 0.178672 0.652685
O O12 0.600735 0.076572 0.609159
O O13 0.000000 0.237533 0.250000
O O14 0.961549 0.296801 0.136722
O O15 0.064381 0.513569 0.867810
O O16 0.112749 0.398426 0.950972
#
# Coordination Sequence:
#
# PCOD9257746 Si02
#       8
#     8   8   8   8   8   8   4   8
#     4  11  20  33  60  89 109 146 194 242 288 340
#     4   9  19  33  53  83 113 140 186 242 286 335
#     4  11  21  34  57  84 114 147 192 237 289 345
#     4  11  18  33  58  88 109 142 194 245 286 341
#     4   9  18  33  56  81 106 144 189 238 285 333
#     4  11  21  38  56  83 122 151 186 240 299 350
#     4  10  18  32  52  84 110 148 182 242 288 330
#     4  10  22  35  57  85 116 151 188 240 298 347
#
# _framework density 22.238985
#
# number of rings (size 3 to 8) (size 9 to 14) (size 15 to 20)
#    0.400    1.333    5.333    0.400    0.000    0.000 
#    2.400    0.000    0.000    0.800    0.000    0.000 
#    0.000    0.000    0.000    0.000    0.000    0.000 
#
# Total GULP energy -167014.162055 kJ/mol
# GULP energy per Si atom -5567.138735 kJ/mol
# Density = 2.218837 g / cm^3
# Si number density = 22.238985 Si / 1000 Ang^3
#
#
#
# Elastic Constant Matrix: (Units=GPa)
#
#
# Indices 1 2 3 4 5 6 
#
# 1 19.3748 -2.8839 -4.9772 0.0000 4.6281 0.0000
# 2 -2.8839 84.2108 1.5407 0.0000 4.7061 0.0000
# 3 -4.9772 1.5407 101.2673 0.0000 -0.8848 0.0000
# 4 0.0000 0.0000 0.0000 35.7591 0.0000 -5.6254
# 5 4.6281 4.7061 -0.8848 0.0000 23.2809 0.0000
# 6 0.0000 0.0000 0.0000 -5.6254 0.0000 7.8452
#
#
#
# Elastic Compliance Matrix: (Units=1/GPa)
#
#
# Indices 1 2 3 4 5 6 
#
# 1 0.055373 0.002487 0.002584 0.000000 -0.011412 0.000000
# 2 0.002487 0.012127 -0.000088 0.000000 -0.002949 0.000000
# 3 0.002584 -0.000088 0.010002 0.000000 -0.000116 0.000000
# 4 0.000000 0.000000 0.000000 0.031520 0.000000 0.022602
# 5 -0.011412 -0.002949 -0.000116 0.000000 0.045814 0.000000
# 6 0.000000 0.000000 0.000000 0.022602 0.000000 0.143673
#
#
# Mechanical properties :
#
#
# Convention : Reuss Voigt Hill
#
# Bulk Modulus (GPa) = 11.43279 21.35690 16.39484
# Shear Modulus (GPa) = 15.73810 27.45526 21.59668
#
# Velocity S-wave (km/s) = 2.66311 3.51744 3.11966
# Velocity P-wave (km/s) = 3.82208 5.11084 4.51270
#
# Compressibility (1/GPa) = 0.08746773
#
# Stress axis : x y z
#
# Youngs Moduli (GPa) = 18.05923 82.46376 99.97813
#
# Poissons Ratio (x) = -0.20507 -0.25835
# Poissons Ratio (y) = -0.04491 0.00880
# Poissons Ratio (z) = -0.04667 0.00726
#
# Static dielectric constant tensor:
#      x y z
#    x 1.948850 0.000000 -0.046140 
#    y 0.000000 1.779320 0.000000 
#    z -0.046140 0.000000 1.897460 
# 
# From -- ./inp_files/215456.got.cif
#   From: 2010.05.17/outbox.cif.g08.bks.cpg/sg15_108_cif.got.tgz:215456.got - 2010.06.03 18:47:42.
