data_PCOD9257600
_publ_section_title
;
Structure prediction by ZEFSAII (Michael W. Deem and Ramdas Pophale) SiO2 
 PCOD9257600
Probable space group: C 2/C
;
_chemical_formula_sum "Si O2"
_cell_formula_units_Z 64
_cell_length_a 5.902216
_cell_length_b 29.659370
_cell_length_c 19.113413
_cell_angle_alpha 90.000000
_cell_angle_beta 88.040749
_cell_angle_gamma 90.000000
_cell_volume 3343.961742
_symmetry_space_group_name_H-M "C 2/C"
_symmetry_group_IT_number 15
_symmetry_cell_setting 'monoclinic'
loop_
_space_group_symop_operation_xyz
x,y,z
-x,y,1/2-z
-x,-y,-z
x,-y,1/2+z
1/2+x,1/2+y,z
1/2-x,1/2+y,1/2-z
1/2-x,1/2-y,-z
1/2+x,1/2-y,1/2+z
loop_
_atom_site_type_symbol
_atom_site_label
_atom_site_fract_x
_atom_site_fract_y
_atom_site_fract_z
Si Si1 0.155180 0.079681 0.310113
Si Si2 0.177793 0.812405 0.555302
Si Si3 0.005712 0.385635 0.594701
Si Si4 0.805242 0.142452 0.959225
Si Si5 0.978606 0.053645 0.583117
Si Si6 0.752284 0.477638 0.281361
Si Si7 0.935653 0.727898 0.548897
Si Si8 0.316126 0.460768 0.927030
O O1 0.332343 0.114543 0.340282
O O2 0.000000 0.098390 0.250000
O O3 0.003777 0.063235 0.377044
O O4 0.256102 0.032345 0.280982
O O5 0.302265 0.849563 0.601162
O O6 0.371011 0.791207 0.504115
O O7 0.007760 0.837622 0.504521
O O8 0.044299 0.769752 0.589967
O O9 0.914781 0.436609 0.590561
O O10 0.132959 0.376082 0.520242
O O11 0.685460 0.183526 0.918993
O O12 0.903598 0.101965 0.912527
O O13 0.785394 0.042589 0.641090
O O14 0.875150 0.049162 0.506636
O O15 0.164007 0.013657 0.587360
O O16 0.500000 0.466597 0.250000
O O17 0.000000 0.462840 0.250000
O O18 0.750000 0.750000 0.500000
#
# Coordination Sequence:
#
# PCOD9257600 Si02
#       8
#     8   8   8   8   8   8   8   8
#     4  10  22  36  52  72 110 156 212 252 298 356
#     4   9  16  30  47  75 116 151 184 234 291 362
#     4  11  19  30  54  76 113 156 206 243 290 358
#     4  10  18  32  48  83 114 152 192 240 300 351
#     4  10  20  37  55  78 118 153 204 263 288 365
#     4  10  24  42  57  78 110 165 213 256 316 364
#     4   8  16  28  49  72 110 161 175 224 300 354
#     4  10  21  36  48  83 110 154 211 242 305 344
#
# _framework density 19.138976
#
# number of rings (size 3 to 8) (size 9 to 14) (size 15 to 20)
#    0.000    2.250    2.500    0.000    5.250    1.500 
#    0.000    0.000    0.000    0.000    0.000    0.000 
#    0.000    0.000  352.750    0.125   10.500    0.000 
#
# Total GULP energy -178311.498479 kJ/mol
# GULP energy per Si atom -5572.234327 kJ/mol
# Density = 1.909541 g / cm^3
# Si number density = 19.138976 Si / 1000 Ang^3
#
#
#
# Elastic Constant Matrix: (Units=GPa)
#
#
# Indices 1 2 3 4 5 6 
#
# 1 92.1277 34.4488 32.1764 0.0000 -2.6919 0.0000
# 2 34.4488 100.4255 12.2409 0.0000 3.6635 0.0000
# 3 32.1764 12.2409 67.5084 0.0000 3.0009 0.0000
# 4 0.0000 0.0000 0.0000 -6.5873 0.0000 13.2071
# 5 -2.6919 3.6635 3.0009 0.0000 26.2199 0.0000
# 6 0.0000 0.0000 0.0000 13.2071 0.0000 8.2583
#
#
#
# Elastic Compliance Matrix: (Units=1/GPa)
#
#
# Indices 1 2 3 4 5 6 
#
# 1 0.014819 -0.004409 -0.006391 0.000000 0.002869 0.000000
# 2 -0.004409 0.011533 0.000102 0.000000 -0.002076 0.000000
# 3 -0.006391 0.000102 0.017962 0.000000 -0.002726 0.000000
# 4 0.000000 0.000000 0.000000 -0.036089 0.000000 0.057716
# 5 0.002869 -0.002076 -0.002726 0.000000 0.039036 0.000000
# 6 0.000000 0.000000 0.000000 0.057716 0.000000 0.028787
#
#
# Mechanical properties :
#
#
# Convention : Reuss Voigt Hill
#
# Bulk Modulus (GPa) = 43.63267 46.42154 45.02710
# Shear Modulus (GPa) = 47.58150 17.65787 32.61969
#
# Velocity S-wave (km/s) = 4.99149 3.04075 4.13287
# Velocity P-wave (km/s) = 7.48781 6.05276 6.80820
#
# Compressibility (1/GPa) = 0.02291861
#
# Stress axis : x y z
#
# Youngs Moduli (GPa) = 67.48010 86.70559 55.67355
#
# Poissons Ratio (x) = 0.38229 0.35583
# Poissons Ratio (y) = 0.29752 -0.00570
# Poissons Ratio (z) = 0.43129 -0.00888
#
# Static dielectric constant tensor:
#      x y z
#    x 1.744210 0.000000 0.004020 
#    y 0.000000 1.719320 0.000000 
#    z 0.004020 0.000000 1.676380 
# 
# From -- ./inp_files/186740.got.cif
#   From: 2010.05.17/outbox.cif.g08.bks.cpg/sg15_94_cif.got.tgz:186740.got - 2010.06.03 18:47:42.
