data_PCOD9257344
_publ_section_title
;
Structure prediction by ZEFSAII (Michael W. Deem and Ramdas Pophale) SiO2 
 PCOD9257344
Probable space group: C 2/C
;
_chemical_formula_sum "Si O2"
_cell_formula_units_Z 48
_cell_length_a 14.214925
_cell_length_b 16.862493
_cell_length_c 17.787705
_cell_angle_alpha 90.000000
_cell_angle_beta 147.435697
_cell_angle_gamma 90.000000
_cell_volume 2294.916713
_symmetry_space_group_name_H-M "C 2/C"
_symmetry_group_IT_number 15
_symmetry_cell_setting 'monoclinic'
loop_
_space_group_symop_operation_xyz
x,y,z
-x,y,1/2-z
-x,-y,-z
x,-y,1/2+z
1/2+x,1/2+y,z
1/2-x,1/2+y,1/2-z
1/2-x,1/2-y,-z
1/2+x,1/2-y,1/2+z
loop_
_atom_site_type_symbol
_atom_site_label
_atom_site_fract_x
_atom_site_fract_y
_atom_site_fract_z
Si Si1 0.922219 0.770651 0.026187
Si Si2 0.604522 0.241663 0.966753
Si Si3 0.125517 0.376996 0.902525
Si Si4 0.870221 0.853126 0.733462
Si Si5 0.698682 0.528986 0.852685
Si Si6 0.287297 0.833643 0.298526
O O1 0.793782 0.832299 0.980833
O O2 0.831953 0.733084 0.892203
O O3 0.956433 0.694046 0.102499
O O4 0.102236 0.816404 0.136853
O O5 0.490131 0.322566 0.882736
O O6 0.453421 0.174353 0.855345
O O7 0.750000 0.250000 0.000000
O O8 0.714213 0.207696 0.110691
O O9 0.000000 0.400474 0.750000
O O10 0.181853 0.448628 0.994986
O O11 0.000000 0.849357 0.750000
O O12 0.796774 0.941478 0.679629
O O13 0.500000 0.543328 0.750000
O O14 0.760845 0.587610 0.829065
#
# Coordination Sequence:
#
# PCOD9257344 Si02
#       6
#     8   8   8   8   8   8
#     4  10  19  29  51  86 123 159 199 223 290 376
#     4  10  21  40  63  84 112 161 219 253 286 347
#     4  10  18  31  51  83 131 164 181 229 290 384
#     4   9  20  40  63  86 111 155 206 260 304 354
#     4  10  20  35  58  92 126 154 190 249 321 369
#     4  11  20  33  58  87 122 163 197 249 300 358
#
# _framework density 20.915792
#
# number of rings (size 3 to 8) (size 9 to 14) (size 15 to 20)
#    0.000    2.000    3.333    1.000    0.000    0.667 
#    0.000    5.833    0.000    2.000    0.000    0.000 
#    0.000    0.000    0.000    0.000    0.000    0.000 
#
# Total GULP energy -133672.823412 kJ/mol
# GULP energy per Si atom -5569.700976 kJ/mol
# Density = 2.086819 g / cm^3
# Si number density = 20.915792 Si / 1000 Ang^3
#
#
#
# Elastic Constant Matrix: (Units=GPa)
#
#
# Indices 1 2 3 4 5 6 
#
# 1 67.1952 47.0034 16.8810 0.0001 7.0043 -0.0001
# 2 47.0034 128.9747 67.7559 0.0030 -11.1805 0.0011
# 3 16.8810 67.7559 125.1304 0.0052 5.6006 0.0016
# 4 0.0001 0.0030 0.0052 23.8989 0.0011 0.7529
# 5 7.0043 -11.1805 5.6006 0.0011 23.2343 0.0001
# 6 -0.0001 0.0011 0.0016 0.7529 0.0001 24.5937
#
#
#
# Elastic Compliance Matrix: (Units=1/GPa)
#
#
# Indices 1 2 3 4 5 6 
#
# 1 0.023604 -0.011796 0.003817 0.000001 -0.013712 0.000000
# 2 -0.011796 0.017871 -0.008724 -0.000001 0.014259 0.000000
# 3 0.003817 -0.008724 0.012576 -0.000001 -0.008380 0.000000
# 4 0.000001 -0.000001 -0.000001 0.041883 -0.000003 -0.001282
# 5 -0.013712 0.014259 -0.008380 -0.000003 0.056055 0.000000
# 6 0.000000 0.000000 0.000000 -0.001282 0.000000 0.040700
#
#
# Mechanical properties :
#
#
# Convention : Reuss Voigt Hill
#
# Bulk Modulus (GPa) = 48.43873 64.95344 56.69609
# Shear Modulus (GPa) = 21.46139 26.98938 24.22539
#
# Velocity S-wave (km/s) = 3.20673 3.59609 3.40698
# Velocity P-wave (km/s) = 6.07619 6.95447 6.53011
#
# Compressibility (1/GPa) = 0.02064464
#
# Stress axis : x y z
#
# Youngs Moduli (GPa) = 42.36623 55.95540 79.51855
#
# Poissons Ratio (x) = 0.66004 -0.30349
# Poissons Ratio (y) = 0.49974 0.69371
# Poissons Ratio (z) = -0.16170 0.48815
#
# Static dielectric constant tensor:
#      x y z
#    x 1.825930 0.000000 0.007870 
#    y 0.000000 1.746300 0.000000 
#    z 0.007870 0.000000 1.778020 
# 
# From -- ./inp_files/56765.got.cif
#   From: 2010.05.17/outbox.cif.g08.bks.cpg/sg15_29_cif.got.tgz:56765.got - 2010.06.03 18:47:42.
