data_PCOD9257971
_publ_section_title
;
Structure prediction by ZEFSAII (Michael W. Deem and Ramdas Pophale) SiO2 
 PCOD9257971
Probable space group: C 2/C
;
_chemical_formula_sum "Si O2"
_cell_formula_units_Z 56
_cell_length_a 14.346730
_cell_length_b 9.521247
_cell_length_c 23.142765
_cell_angle_alpha 90.000000
_cell_angle_beta 134.327684
_cell_angle_gamma 90.000000
_cell_volume 2261.433055
_symmetry_space_group_name_H-M "C 2/C"
_symmetry_group_IT_number 15
_symmetry_cell_setting 'monoclinic'
loop_
_space_group_symop_operation_xyz
x,y,z
-x,y,1/2-z
-x,-y,-z
x,-y,1/2+z
1/2+x,1/2+y,z
1/2-x,1/2+y,1/2-z
1/2-x,1/2-y,-z
1/2+x,1/2-y,1/2+z
loop_
_atom_site_type_symbol
_atom_site_label
_atom_site_fract_x
_atom_site_fract_y
_atom_site_fract_z
Si Si1 0.996287 0.905679 0.182179
Si Si2 0.979725 0.317801 0.347955
Si Si3 0.626881 0.083900 0.575396
Si Si4 0.080440 0.391589 0.714675
Si Si5 0.318855 0.607575 0.407018
Si Si6 0.094695 0.077935 0.457780
Si Si7 0.209122 0.093684 0.286681
O O1 0.987908 0.740373 0.181483
O O2 0.000000 0.958963 0.250000
O O3 0.140095 0.959945 0.226016
O O4 0.903960 0.969656 0.094597
O O5 0.898472 0.361664 0.370030
O O6 0.997499 0.464159 0.323749
O O7 0.896019 0.215938 0.269764
O O8 0.097747 0.229066 0.427032
O O9 0.662787 0.231746 0.560656
O O10 0.500000 0.000000 0.500000
O O11 0.739790 0.966862 0.630354
O O12 0.193647 0.396344 0.811600
O O13 0.161124 0.363377 0.690875
O O14 0.451018 0.580190 0.426575
O O15 0.314770 0.485751 0.453467
#
# Coordination Sequence:
#
# PCOD9257971 Si02
#       7
#     8   8   8   8   8   8   8
#     4  11  22  38  60  89 123 161 203 247 306 370
#     4   9  19  31  50  82 107 154 190 249 288 349
#     4  10  19  29  50  89 119 147 193 254 309 342
#     4  11  18  34  58  83 121 152 205 250 299 350
#     4  10  18  32  56  86 120 153 198 257 302 350
#     4   9  20  34  53  85 119 153 197 244 303 358
#     4  10  18  36  57  82 117 152 207 244 292 366
#
# _framework density 24.763058999999998
#
# number of rings (size 3 to 8) (size 9 to 14) (size 15 to 20)
#    0.000    2.000    5.714    0.857    4.000    2.286 
#    0.000    3.571    0.000    0.000    0.000   14.000 
#    0.000    0.000    0.000    0.000    0.000    0.000 
#
# Total GULP energy -156159.323200 kJ/mol
# GULP energy per Si atom -5577.118686 kJ/mol
# Density = 2.470670 g / cm^3
# Si number density = 24.763059 Si / 1000 Ang^3
#
#
#
# Elastic Constant Matrix: (Units=GPa)
#
#
# Indices 1 2 3 4 5 6 
#
# 1 55.0056 11.8812 11.4890 0.0000 0.0202 0.0000
# 2 11.8812 138.8274 23.5160 0.0000 -0.8782 0.0000
# 3 11.4890 23.5160 67.9201 0.0000 7.0323 0.0000
# 4 0.0000 0.0000 0.0000 31.3839 0.0000 -9.7272
# 5 0.0202 -0.8782 7.0323 0.0000 25.2555 0.0000
# 6 0.0000 0.0000 0.0000 -9.7272 0.0000 6.5288
#
#
#
# Elastic Compliance Matrix: (Units=1/GPa)
#
#
# Indices 1 2 3 4 5 6 
#
# 1 0.019031 -0.001132 -0.002905 0.000000 0.000754 0.000000
# 2 -0.001132 0.007746 -0.002593 0.000000 0.000992 0.000000
# 3 -0.002905 -0.002593 0.016600 0.000000 -0.004710 0.000000
# 4 0.000000 0.000000 0.000000 0.059202 0.000000 0.088204
# 5 0.000754 0.000992 -0.004710 0.000000 0.040941 0.000000
# 6 0.000000 0.000000 0.000000 0.088204 0.000000 0.284581
#
#
# Mechanical properties :
#
#
# Convention : Reuss Voigt Hill
#
# Bulk Modulus (GPa) = 33.20477 39.50282 36.35379
# Shear Modulus (GPa) = 11.07666 26.95809 19.01737
#
# Velocity S-wave (km/s) = 2.11725 3.30304 2.77424
# Velocity P-wave (km/s) = 4.40626 5.52573 4.99744
#
# Compressibility (1/GPa) = 0.03011616
#
# Stress axis : x y z
#
# Youngs Moduli (GPa) = 52.54576 129.10618 60.24055
#
# Poissons Ratio (x) = 0.14612 0.17503
# Poissons Ratio (y) = 0.05947 0.15621
# Poissons Ratio (z) = 0.15267 0.33478
#
# Static dielectric constant tensor:
#      x y z
#    x 2.097400 0.000000 -0.009510 
#    y 0.000000 2.012420 0.000000 
#    z -0.009510 0.000000 1.938240 
# 
# From -- ./inp_files/276611.got.cif
#   From: 2010.05.17/outbox.cif.g08.bks.cpg/sg15_139_cif.got.tgz:276611.got - 2010.06.03 18:47:42.
