data_PCOD9257842
_publ_section_title
;
Structure prediction by ZEFSAII (Michael W. Deem and Ramdas Pophale) SiO2 
 PCOD9257842
Probable space group: C 2/C
;
_chemical_formula_sum "Si O2"
_cell_formula_units_Z 32
_cell_length_a 4.902746
_cell_length_b 13.042273
_cell_length_c 19.274182
_cell_angle_alpha 90.000000
_cell_angle_beta 74.091972
_cell_angle_gamma 90.000000
_cell_volume 1185.248920
_symmetry_space_group_name_H-M "C 2/C"
_symmetry_group_IT_number 15
_symmetry_cell_setting 'monoclinic'
loop_
_space_group_symop_operation_xyz
x,y,z
-x,y,1/2-z
-x,-y,-z
x,-y,1/2+z
1/2+x,1/2+y,z
1/2-x,1/2+y,1/2-z
1/2-x,1/2-y,-z
1/2+x,1/2-y,1/2+z
loop_
_atom_site_type_symbol
_atom_site_label
_atom_site_fract_x
_atom_site_fract_y
_atom_site_fract_z
Si Si1 0.458063 0.209864 0.044303
Si Si2 0.287295 0.997551 0.429167
Si Si3 0.864509 0.019784 0.829944
Si Si4 0.284764 0.786869 0.703297
O O1 0.525931 0.090308 0.050193
O O2 0.384846 0.257827 0.123665
O O3 0.250000 0.250000 0.000000
O O4 0.750000 0.250000 0.000000
O O5 0.424401 0.067942 0.615262
O O6 0.114372 0.002015 0.368491
O O7 0.000000 0.000000 0.500000
O O8 0.000000 0.068475 0.750000
O O9 0.229445 0.906360 0.689208
O O10 0.500000 0.786928 0.750000
O O11 0.000000 0.737372 0.750000
#
# Coordination Sequence:
#
# PCOD9257842 Si02
#       4
#     8   8   8   8
#     4  11  21  35  56  84 116 152 194 246 304 368
#     4  11  22  36  56  85 120 157 198 254 315 373
#     4  10  18  33  56  83 112 149 200 257 307 360
#     4  10  18  32  54  82 110 142 189 247 297 345
#
# _framework density 26.998546999999999
#
# number of rings (size 3 to 8) (size 9 to 14) (size 15 to 20)
#    0.000    1.500    0.000   12.000    0.000    0.000 
#    0.000    0.000    0.000    7.500    0.000    0.000 
#    0.000    0.000    0.000    0.000    0.000    0.000 
#
# Total GULP energy -89199.043121 kJ/mol
# GULP energy per Si atom -5574.940195 kJ/mol
# Density = 2.693710 g / cm^3
# Si number density = 26.998547 Si / 1000 Ang^3
#
#
#
# Elastic Constant Matrix: (Units=GPa)
#
#
# Indices 1 2 3 4 5 6 
#
# 1 279.5012 16.3218 116.1231 0.0000 14.3910 0.0000
# 2 16.3218 78.1985 1.9264 0.0000 3.1639 0.0000
# 3 116.1231 1.9264 295.1067 0.0000 -15.4357 0.0000
# 4 0.0000 0.0000 0.0000 25.1668 0.0000 -9.4177
# 5 14.3910 3.1639 -15.4357 0.0000 83.4876 0.0000
# 6 0.0000 0.0000 0.0000 -9.4177 0.0000 41.9022
#
#
#
# Elastic Compliance Matrix: (Units=1/GPa)
#
#
# Indices 1 2 3 4 5 6 
#
# 1 0.004426 -0.000837 -0.001792 0.000000 -0.001062 0.000000
# 2 -0.000837 0.012969 0.000229 0.000000 -0.000305 0.000000
# 3 -0.001792 0.000229 0.004148 0.000000 0.001067 0.000000
# 4 0.000000 0.000000 0.000000 0.043384 0.000000 0.009751
# 5 -0.001062 -0.000305 0.001067 0.000000 0.012370 0.000000
# 6 0.000000 0.000000 0.000000 0.009751 0.000000 0.026057
#
#
# Mechanical properties :
#
#
# Convention : Reuss Voigt Hill
#
# Bulk Modulus (GPa) = 59.72413 102.39433 81.05923
# Shear Modulus (GPa) = 43.96242 64.67365 54.31803
#
# Velocity S-wave (km/s) = 4.03963 4.89964 4.49027
# Velocity P-wave (km/s) = 6.62777 8.36761 7.54799
#
# Compressibility (1/GPa) = 0.01674365
#
# Stress axis : x y z
#
# Youngs Moduli (GPa) = 225.95246 77.10517 241.08501
#
# Poissons Ratio (x) = 0.06451 0.43193
# Poissons Ratio (y) = 0.18904 -0.05511
# Poissons Ratio (z) = 0.40482 -0.01763
#
# Static dielectric constant tensor:
#      x y z
#    x 1.980440 0.000000 -0.097630 
#    y 0.000000 2.514170 0.000000 
#    z -0.097630 0.000000 2.248750 
# 
# From -- ./inp_files/184069.got.cif
#   From: 2010.05.17/outbox.cif.g08.bks.cpg/sg15_93_cif.got.tgz:184069.got - 2010.06.03 18:47:42.
