data_PCOD9257614
_publ_section_title
;
Structure prediction by ZEFSAII (Michael W. Deem and Ramdas Pophale) SiO2 
 PCOD9257614
Probable space group: C 2/C
;
_chemical_formula_sum "Si O2"
_cell_formula_units_Z 64
_cell_length_a 12.882579
_cell_length_b 21.181730
_cell_length_c 11.647037
_cell_angle_alpha 90.000000
_cell_angle_beta 105.195314
_cell_angle_gamma 90.000000
_cell_volume 3067.072787
_symmetry_space_group_name_H-M "C 2/C"
_symmetry_group_IT_number 15
_symmetry_cell_setting 'monoclinic'
loop_
_space_group_symop_operation_xyz
x,y,z
-x,y,1/2-z
-x,-y,-z
x,-y,1/2+z
1/2+x,1/2+y,z
1/2-x,1/2+y,1/2-z
1/2-x,1/2-y,-z
1/2+x,1/2-y,1/2+z
loop_
_atom_site_type_symbol
_atom_site_label
_atom_site_fract_x
_atom_site_fract_y
_atom_site_fract_z
Si Si1 0.858824 0.241228 0.919185
Si Si2 0.779090 0.550504 0.705485
Si Si3 0.894761 0.752202 0.061813
Si Si4 0.308176 0.852435 0.052430
Si Si5 0.235503 0.070171 0.316567
Si Si6 0.759205 0.192572 0.324924
Si Si7 0.886087 0.998801 0.030283
Si Si8 0.621236 0.381696 0.331453
O O1 0.810287 0.173914 0.943335
O O2 0.779340 0.270314 0.800353
O O3 0.977473 0.243294 0.902332
O O4 0.863512 0.287342 0.031204
O O5 0.854497 0.601207 0.663055
O O6 0.805610 0.487176 0.783538
O O7 0.702252 0.524714 0.582259
O O8 0.706683 0.592360 0.767808
O O9 0.839877 0.693127 0.110694
O O10 0.857313 0.810583 0.129273
O O11 0.850138 0.769506 0.922485
O O12 0.299292 0.892840 0.933914
O O13 0.209214 0.123154 0.213283
O O14 0.134575 0.037613 0.355900
O O15 0.867696 0.926275 0.055889
O O16 0.000000 0.000000 0.000000
O O17 0.500000 0.389003 0.250000
#
# Coordination Sequence:
#
# PCOD9257614 Si02
#       8
#     8   8   8   8   8   8   8   8
#     4  10  20  38  59  82 113 153 186 238 288 335
#     4  10  18  32  49  74 109 152 182 222 282 335
#     4  11  22  34  59  83 109 147 194 236 286 341
#     4   9  19  36  56  79 115 147 190 230 282 350
#     4   9  20  33  50  75 110 155 180 231 284 331
#     4  10  21  39  53  82 114 146 192 239 281 335
#     4  10  19  30  44  73 112 149 185 216 266 347
#     4  11  19  29  49  76 109 147 183 224 272 338
#
# _framework density 20.866800999999999
#
# number of rings (size 3 to 8) (size 9 to 14) (size 15 to 20)
#    0.000    2.000    1.250    3.375    1.750    0.000 
#    2.250    5.000    0.000    0.750    0.000   17.500 
#    0.000    0.000    0.000    0.000    0.000    0.000 
#
# Total GULP energy -178271.526558 kJ/mol
# GULP energy per Si atom -5570.985205 kJ/mol
# Density = 2.081931 g / cm^3
# Si number density = 20.866801 Si / 1000 Ang^3
#
#
#
# Elastic Constant Matrix: (Units=GPa)
#
#
# Indices 1 2 3 4 5 6 
#
# 1 25.8969 23.1181 15.5733 0.0000 -13.3866 0.0000
# 2 23.1181 101.2435 31.3686 0.0000 -20.5155 0.0000
# 3 15.5733 31.3686 81.5933 0.0000 -14.3141 0.0000
# 4 0.0000 0.0000 0.0000 61.9160 0.0000 -29.7671
# 5 -13.3866 -20.5155 -14.3141 0.0000 29.5061 0.0000
# 6 0.0000 0.0000 0.0000 -29.7671 0.0000 27.5711
#
#
#
# Elastic Compliance Matrix: (Units=1/GPa)
#
#
# Indices 1 2 3 4 5 6 
#
# 1 0.058255 -0.008076 -0.004768 0.000000 0.018502 0.000000
# 2 -0.008076 0.013490 -0.002888 0.000000 0.004315 0.000000
# 3 -0.004768 -0.002888 0.014804 0.000000 0.003011 0.000000
# 4 0.000000 0.000000 0.000000 0.033582 0.000000 0.036256
# 5 0.018502 0.004315 0.003011 0.000000 0.046746 0.000000
# 6 0.000000 0.000000 0.000000 0.036256 0.000000 0.075414
#
#
# Mechanical properties :
#
#
# Convention : Reuss Voigt Hill
#
# Bulk Modulus (GPa) = 18.15348 38.76151 28.45750
# Shear Modulus (GPa) = 17.11638 33.04354 25.07996
#
# Velocity S-wave (km/s) = 2.86714 3.98370 3.47061
# Velocity P-wave (km/s) = 4.43613 6.30681 5.45229
#
# Compressibility (1/GPa) = 0.05508586
#
# Stress axis : x y z
#
# Youngs Moduli (GPa) = 17.16587 74.12713 67.54711
#
# Poissons Ratio (x) = 0.59862 0.32209
# Poissons Ratio (y) = 0.13862 0.19508
# Poissons Ratio (z) = 0.08185 0.21408
#
# Static dielectric constant tensor:
#      x y z
#    x 1.777900 0.000000 -0.057030 
#    y 0.000000 1.815180 0.000000 
#    z -0.057030 0.000000 1.768530 
# 
# From -- ./inp_files/99801.got.cif
#   From: 2010.05.17/outbox.cif.g08.bks.cpg/sg15_50_cif.got.tgz:99801.got - 2010.06.03 18:47:42.
