data_PCOD9257086
_publ_section_title
;
Structure prediction by ZEFSAII (Michael W. Deem and Ramdas Pophale) SiO2 
 PCOD9257086
Probable space group: C 2/C
;
_chemical_formula_sum "Si O2"
_cell_formula_units_Z 56
_cell_length_a 18.874293
_cell_length_b 6.592724
_cell_length_c 19.581645
_cell_angle_alpha 90.000000
_cell_angle_beta 61.435508
_cell_angle_gamma 90.000000
_cell_volume 2140.018314
_symmetry_space_group_name_H-M "C 2/C"
_symmetry_group_IT_number 15
_symmetry_cell_setting 'monoclinic'
loop_
_space_group_symop_operation_xyz
x,y,z
-x,y,1/2-z
-x,-y,-z
x,-y,1/2+z
1/2+x,1/2+y,z
1/2-x,1/2+y,1/2-z
1/2-x,1/2-y,-z
1/2+x,1/2-y,1/2+z
loop_
_atom_site_type_symbol
_atom_site_label
_atom_site_fract_x
_atom_site_fract_y
_atom_site_fract_z
Si Si1 0.392856 0.888757 0.081009
Si Si2 0.172623 0.741994 0.323354
Si Si3 0.551483 0.410935 0.039528
Si Si4 0.177423 0.132223 0.154420
Si Si5 0.711758 0.812405 0.659628
Si Si6 0.069430 0.891423 0.817800
Si Si7 0.768780 0.011164 0.011122
O O1 0.386476 0.125063 0.098440
O O2 0.302139 0.788349 0.123523
O O3 0.437212 0.790868 0.125256
O O4 0.430760 0.820000 0.992027
O O5 0.257185 0.713153 0.321387
O O6 0.181770 0.624932 0.247622
O O7 0.140233 0.960928 0.316960
O O8 0.507716 0.466762 0.130214
O O9 0.640703 0.505657 0.001454
O O10 0.500000 0.500000 0.000000
O O11 0.161751 0.885667 0.162947
O O12 0.093709 0.188788 0.231891
O O13 0.225425 0.125929 0.059273
O O14 0.708888 0.988969 0.604383
O O15 0.750000 0.250000 0.000000
#
# Coordination Sequence:
#
# PCOD9257086 Si02
#       7
#     8   8   8   8   8   8   8
#     4   9  17  31  49  72 105 141 174 225 274 320
#     4  10  18  30  53  81 105 137 189 229 273 329
#     4   9  19  34  53  78 110 152 184 229 292 342
#     4   9  17  28  49  82 105 141 183 229 277 329
#     4   8  15  28  48  74 105 138 176 226 272 327
#     4  10  19  31  51  79 107 141 188 228 265 342
#     4   9  17  32  53  79 114 144 186 237 290 337
#
# _framework density 26.167998999999998
#
# number of rings (size 3 to 8) (size 9 to 14) (size 15 to 20)
#    0.000    2.857    1.429    0.857    0.000    1.143 
#    0.000    0.000    0.000   13.714    0.000   24.000 
#    0.000    0.000    0.000    0.000    0.000    0.000 
#
# Total GULP energy -155942.784202 kJ/mol
# GULP energy per Si atom -5569.385150 kJ/mol
# Density = 2.610844 g / cm^3
# Si number density = 26.167999 Si / 1000 Ang^3
#
#
#
# Elastic Constant Matrix: (Units=GPa)
#
#
# Indices 1 2 3 4 5 6 
#
# 1 64.2167 -10.2291 5.5316 0.0009 -5.6400 0.0017
# 2 -10.2291 51.0799 -3.5020 0.0022 12.2288 0.0018
# 3 5.5316 -3.5020 151.5937 0.0005 0.9725 0.0013
# 4 0.0009 0.0022 0.0005 58.3388 0.0004 5.2223
# 5 -5.6400 12.2288 0.9725 0.0004 43.0035 0.0006
# 6 0.0017 0.0018 0.0013 5.2223 0.0006 23.9418
#
#
#
# Elastic Compliance Matrix: (Units=1/GPa)
#
#
# Indices 1 2 3 4 5 6 
#
# 1 0.016194 0.002892 -0.000533 0.000000 0.001314 -0.000001
# 2 0.002892 0.021565 0.000430 -0.000001 -0.005763 -0.000002
# 3 -0.000533 0.000430 0.006628 0.000000 -0.000342 0.000000
# 4 0.000000 -0.000001 0.000000 0.017483 0.000000 -0.003813
# 5 0.001314 -0.005763 -0.000342 0.000000 0.025073 0.000000
# 6 -0.000001 -0.000002 0.000000 -0.003813 0.000000 0.042600
#
#
# Mechanical properties :
#
#
# Convention : Reuss Voigt Hill
#
# Bulk Modulus (GPa) = 20.01361 27.83236 23.92299
# Shear Modulus (GPa) = 35.55686 43.39616 39.47651
#
# Velocity S-wave (km/s) = 3.69018 4.07672 3.88826
# Velocity P-wave (km/s) = 5.08146 5.72876 5.41479
#
# Compressibility (1/GPa) = 0.04996599
#
# Stress axis : x y z
#
# Youngs Moduli (GPa) = 61.75061 46.37045 150.87213
#
# Poissons Ratio (x) = -0.13410 0.08034
# Poissons Ratio (y) = -0.17858 -0.06482
# Poissons Ratio (z) = 0.03288 -0.01992
#
# Static dielectric constant tensor:
#      x y z
#    x 2.091510 0.000000 -0.019030 
#    y 0.000000 2.209940 0.000000 
#    z -0.019030 0.000000 2.233780 
# 
# From -- ./inp_files/254645.got.cif
#   From: 2010.05.17/outbox.cif.g08.bks.cpg/sg15_128_cif.got.tgz:254645.got - 2010.06.03 18:47:42.
