data_PCOD9257631
_publ_section_title
;
Structure prediction by ZEFSAII (Michael W. Deem and Ramdas Pophale) SiO2 
 PCOD9257631
Probable space group: C 2/C
;
_chemical_formula_sum "Si O2"
_cell_formula_units_Z 40
_cell_length_a 7.711914
_cell_length_b 14.802624
_cell_length_c 18.266955
_cell_angle_alpha 90.000000
_cell_angle_beta 57.012814
_cell_angle_gamma 90.000000
_cell_volume 1749.127659
_symmetry_space_group_name_H-M "C 2/C"
_symmetry_group_IT_number 15
_symmetry_cell_setting 'monoclinic'
loop_
_space_group_symop_operation_xyz
x,y,z
-x,y,1/2-z
-x,-y,-z
x,-y,1/2+z
1/2+x,1/2+y,z
1/2-x,1/2+y,1/2-z
1/2-x,1/2-y,-z
1/2+x,1/2-y,1/2+z
loop_
_atom_site_type_symbol
_atom_site_label
_atom_site_fract_x
_atom_site_fract_y
_atom_site_fract_z
Si Si1 0.248238 0.283686 0.803342
Si Si2 0.722046 0.473281 0.985907
Si Si3 0.755523 0.154635 0.458525
Si Si4 0.270433 0.406558 0.664577
Si Si5 0.948892 0.089527 0.675970
O O1 0.500000 0.278104 0.750000
O O2 0.177494 0.331419 0.894534
O O3 0.188220 0.339971 0.745413
O O4 0.153815 0.184293 0.820226
O O5 0.836556 0.567234 0.978879
O O6 0.650609 0.424953 0.077287
O O7 0.500000 0.500000 0.000000
O O8 0.816777 0.416501 0.897482
O O9 0.750000 0.250000 0.500000
O O10 0.995945 0.129676 0.397466
O O11 0.294007 0.507030 0.692675
O O12 0.000000 0.085478 0.750000
#
# Coordination Sequence:
#
# PCOD9257631 Si02
#       5
#     8   8   8   8   8
#     4  10  19  30  48  74  98 126 163 205 242 285
#     4   8  15  27  47  72  93 125 163 203 239 286
#     4   9  14  25  47  74  96 120 159 203 239 279
#     4   9  17  30  48  73  98 126 165 204 239 287
#     4  10  18  32  50  71  98 131 163 199 245 293
#
# _framework density 22.868544
#
# number of rings (size 3 to 8) (size 9 to 14) (size 15 to 20)
#    0.000    3.200    0.000    6.600    0.000    0.000 
#    0.000    2.000    0.000    0.000    0.000   82.600 
#    0.000    0.000    0.000    0.000    0.000    0.000 
#
# Total GULP energy -111584.713275 kJ/mol
# GULP energy per Si atom -5579.235664 kJ/mol
# Density = 2.281649 g / cm^3
# Si number density = 22.868544 Si / 1000 Ang^3
#
#
#
# Elastic Constant Matrix: (Units=GPa)
#
#
# Indices 1 2 3 4 5 6 
#
# 1 77.6934 44.6951 60.8556 0.0000 24.9021 0.0000
# 2 44.6951 184.1857 87.5260 0.0000 26.3748 0.0000
# 3 60.8556 87.5260 145.6159 0.0000 52.5640 0.0000
# 4 0.0000 0.0000 0.0000 43.4536 0.0000 5.5881
# 5 24.9021 26.3748 52.5640 0.0000 37.8259 0.0000
# 6 0.0000 0.0000 0.0000 5.5881 0.0000 26.0592
#
#
#
# Elastic Compliance Matrix: (Units=1/GPa)
#
#
# Indices 1 2 3 4 5 6 
#
# 1 0.019535 -0.001340 -0.006126 0.000000 -0.003412 0.000000
# 2 -0.001340 0.007777 -0.004967 0.000000 0.002362 0.000000
# 3 -0.006126 -0.004967 0.019477 0.000000 -0.019570 0.000000
# 4 0.000000 0.000000 0.000000 0.023666 0.000000 -0.005075
# 5 -0.003412 0.002362 -0.019570 0.000000 0.054231 0.000000
# 6 0.000000 0.000000 0.000000 -0.005075 0.000000 0.039462
#
#
# Mechanical properties :
#
#
# Convention : Reuss Voigt Hill
#
# Bulk Modulus (GPa) = 45.61754 88.18315 66.90034
# Shear Modulus (GPa) = 25.46828 35.76228 30.61528
#
# Velocity S-wave (km/s) = 3.34081 3.95881 3.66286
# Velocity P-wave (km/s) = 5.90528 7.71627 6.87070
#
# Compressibility (1/GPa) = 0.02192139
#
# Stress axis : x y z
#
# Youngs Moduli (GPa) = 51.19123 128.59157 51.34130
#
# Poissons Ratio (x) = 0.17236 0.31454
# Poissons Ratio (y) = 0.06862 0.25500
# Poissons Ratio (z) = 0.31362 0.63868
#
# Static dielectric constant tensor:
#      x y z
#    x 1.951100 0.000000 -0.123620 
#    y 0.000000 1.947170 0.000000 
#    z -0.123620 0.000000 2.039220 
# 
# From -- ./inp_files/196774.got.cif
#   From: 2010.05.17/outbox.cif.g08.bks.cpg/sg15_99_cif.got.tgz:196774.got - 2010.06.03 18:47:42.
