data_PCOD9257613
_publ_section_title
;
Structure prediction by ZEFSAII (Michael W. Deem and Ramdas Pophale) SiO2 
 PCOD9257613
Probable space group: C 2/C
;
_chemical_formula_sum "Si O2"
_cell_formula_units_Z 64
_cell_length_a 22.631911
_cell_length_b 21.930023
_cell_length_c 8.566104
_cell_angle_alpha 90.000000
_cell_angle_beta 55.535891
_cell_angle_gamma 90.000000
_cell_volume 3505.292151
_symmetry_space_group_name_H-M "C 2/C"
_symmetry_group_IT_number 15
_symmetry_cell_setting 'monoclinic'
loop_
_space_group_symop_operation_xyz
x,y,z
-x,y,1/2-z
-x,-y,-z
x,-y,1/2+z
1/2+x,1/2+y,z
1/2-x,1/2+y,1/2-z
1/2-x,1/2-y,-z
1/2+x,1/2-y,1/2+z
loop_
_atom_site_type_symbol
_atom_site_label
_atom_site_fract_x
_atom_site_fract_y
_atom_site_fract_z
Si Si1 0.993099 0.566947 0.078051
Si Si2 0.007028 0.772522 0.058091
Si Si3 0.788289 0.356116 0.534581
Si Si4 0.943581 0.340100 0.210381
Si Si5 0.652326 0.280546 0.235781
Si Si6 0.780672 0.347815 0.201763
Si Si7 0.337407 0.716470 0.136390
Si Si8 0.839543 0.631709 0.280871
O O1 0.917640 0.600831 0.157722
O O2 0.000000 0.562915 0.250000
O O3 0.000000 0.500000 0.000000
O O4 0.058215 0.607935 0.916741
O O5 0.000000 0.750787 0.250000
O O6 0.930580 0.800649 0.129105
O O7 0.020018 0.718359 0.918899
O O8 0.083014 0.807193 0.942919
O O9 0.867854 0.327586 0.401619
O O10 0.776383 0.381601 0.375972
O O11 0.723434 0.309904 0.662419
O O12 0.796141 0.390288 0.690583
O O13 0.000000 0.365749 0.250000
O O14 0.705561 0.313499 0.274660
O O15 0.654824 0.206373 0.238533
O O16 0.677825 0.297488 0.022350
O O17 0.834854 0.290150 0.145966
O O18 0.805037 0.380123 0.004258
#
# Coordination Sequence:
#
# PCOD9257613 Si02
#       8
#     8   8   8   8   8   8   8   8
#     4  12  26  42  57  74 103 138 189 247 290 323
#     4  10  20  31  48  70 104 142 180 218 264 315
#     4  12  21  32  53  72 103 131 180 221 264 326
#     4  12  22  33  51  73  98 133 182 225 276 321
#     4  10  18  32  49  74 105 138 180 222 265 321
#     4  11  20  31  51  77 100 137 175 223 269 317
#     4  10  19  30  45  70 103 134 175 221 259 311
#     4  11  21  37  53  72 101 134 176 227 272 323
#
# _framework density 18.258108
#
# number of rings (size 3 to 8) (size 9 to 14) (size 15 to 20)
#    0.000    1.000    6.250    2.625    1.750    0.000 
#    0.000    0.000    0.000    0.000    0.000    0.000 
#    0.000    0.000    0.000    1.125    7.750    3.000 
#
# Total GULP energy -178277.111544 kJ/mol
# GULP energy per Si atom -5571.159736 kJ/mol
# Density = 1.821655 g / cm^3
# Si number density = 18.258108 Si / 1000 Ang^3
#
#
#
# Elastic Constant Matrix: (Units=GPa)
#
#
# Indices 1 2 3 4 5 6 
#
# 1 106.3640 13.5479 46.9649 0.0000 1.3444 0.0000
# 2 13.5479 24.5481 26.9130 0.0000 -3.1800 0.0000
# 3 46.9649 26.9130 141.1323 0.0000 2.7607 0.0000
# 4 0.0000 0.0000 0.0000 14.7455 0.0000 4.6260
# 5 1.3444 -3.1800 2.7607 0.0000 50.4936 0.0000
# 6 0.0000 0.0000 0.0000 4.6260 0.0000 7.9032
#
#
#
# Elastic Compliance Matrix: (Units=1/GPa)
#
#
# Indices 1 2 3 4 5 6 
#
# 1 0.011159 -0.002695 -0.003194 0.000000 -0.000292 0.000000
# 2 -0.002695 0.052887 -0.009265 0.000000 0.003909 0.000000
# 3 -0.003194 -0.009265 0.009935 0.000000 -0.001042 0.000000
# 4 0.000000 0.000000 0.000000 0.083072 0.000000 -0.048624
# 5 -0.000292 0.003909 -0.001042 0.000000 0.020115 0.000000
# 6 0.000000 0.000000 0.000000 -0.048624 0.000000 0.154993
#
#
# Mechanical properties :
#
#
# Convention : Reuss Voigt Hill
#
# Bulk Modulus (GPa) = 22.89662 49.65513 36.27588
# Shear Modulus (GPa) = 13.26165 26.93638 20.09901
#
# Velocity S-wave (km/s) = 2.69800 3.84514 3.32147
# Velocity P-wave (km/s) = 4.71946 6.85338 5.88397
#
# Compressibility (1/GPa) = 0.04367456
#
# Stress axis : x y z
#
# Youngs Moduli (GPa) = 89.61520 18.90806 100.64948
#
# Poissons Ratio (x) = 0.05096 0.32145
# Poissons Ratio (y) = 0.24151 0.93251
# Poissons Ratio (z) = 0.28621 0.17518
#
# Static dielectric constant tensor:
#      x y z
#    x 1.747280 0.000000 0.024650 
#    y 0.000000 1.582700 0.000000 
#    z 0.024650 0.000000 1.702470 
# 
# From -- ./inp_files/63825.got.cif
#   From: 2010.05.17/outbox.cif.g08.bks.cpg/sg15_32_cif.got.tgz:63825.got - 2010.06.03 18:47:42.
