data_PCOD9257629
_publ_section_title
;
Structure prediction by ZEFSAII (Michael W. Deem and Ramdas Pophale) SiO2 
 PCOD9257629
Probable space group: C 2/C
;
_chemical_formula_sum "Si O2"
_cell_formula_units_Z 40
_cell_length_a 20.215144
_cell_length_b 12.855621
_cell_length_c 7.357304
_cell_angle_alpha 90.000000
_cell_angle_beta 67.135710
_cell_angle_gamma 90.000000
_cell_volume 1761.772752
_symmetry_space_group_name_H-M "C 2/C"
_symmetry_group_IT_number 15
_symmetry_cell_setting 'monoclinic'
loop_
_space_group_symop_operation_xyz
x,y,z
-x,y,1/2-z
-x,-y,-z
x,-y,1/2+z
1/2+x,1/2+y,z
1/2-x,1/2+y,1/2-z
1/2-x,1/2-y,-z
1/2+x,1/2-y,1/2+z
loop_
_atom_site_type_symbol
_atom_site_label
_atom_site_fract_x
_atom_site_fract_y
_atom_site_fract_z
Si Si1 0.663331 0.769677 0.250986
Si Si2 0.049173 0.589258 0.541618
Si Si3 0.802424 0.093571 0.001190
Si Si4 0.177677 0.858933 0.419368
Si Si5 0.132088 0.404995 0.606761
O O1 0.681264 0.665830 0.345994
O O2 0.737996 0.831063 0.144962
O O3 0.618480 0.838630 0.439206
O O4 0.637221 0.726303 0.085434
O O5 0.110202 0.523212 0.583368
O O6 0.086648 0.637394 0.324867
O O7 0.000000 0.500000 0.500000
O O8 0.000000 0.640850 0.750000
O O9 0.716312 0.095780 0.064066
O O10 0.829819 0.977125 0.004764
O O11 0.835271 0.140681 0.781701
#
# Coordination Sequence:
#
# PCOD9257629 Si02
#       5
#     8   8   8   8   8
#     4  10  21  32  46  76 104 139 188 203 247 329
#     4   9  19  34  50  72  99 130 176 220 259 313
#     4  11  19  33  49  74 109 146 173 208 252 316
#     4  10  19  31  46  66 108 139 177 212 241 292
#     4  10  18  32  50  71 101 137 172 210 270 303
#
# _framework density 22.704404
#
# number of rings (size 3 to 8) (size 9 to 14) (size 15 to 20)
#    0.000    2.000    2.000    4.800    0.000    0.000 
#   10.800    0.000    0.000    0.000    0.000    0.000 
#    0.000   20.800    0.000    0.000    0.000    0.000 
#
# Total GULP energy -111775.288868 kJ/mol
# GULP energy per Si atom -5588.764443 kJ/mol
# Density = 2.265273 g / cm^3
# Si number density = 22.704404 Si / 1000 Ang^3
#
#
#
# Elastic Constant Matrix: (Units=GPa)
#
#
# Indices 1 2 3 4 5 6 
#
# 1 29.7360 -1.7101 19.9018 0.0000 10.9123 0.0000
# 2 -1.7101 84.6963 42.2060 0.0000 -4.5117 0.0000
# 3 19.9018 42.2060 205.0069 0.0000 10.8213 0.0000
# 4 0.0000 0.0000 0.0000 47.6771 0.0000 9.8811
# 5 10.9123 -4.5117 10.8213 0.0000 27.0678 0.0000
# 6 0.0000 0.0000 0.0000 9.8811 0.0000 25.2752
#
#
#
# Elastic Compliance Matrix: (Units=1/GPa)
#
#
# Indices 1 2 3 4 5 6 
#
# 1 0.041689 0.001851 -0.003634 0.000000 -0.015046 0.000000
# 2 0.001851 0.013542 -0.003113 0.000000 0.002756 0.000000
# 3 -0.003634 -0.003113 0.005947 0.000000 -0.001431 0.000000
# 4 0.000000 0.000000 0.000000 0.022824 0.000000 -0.008923
# 5 -0.015046 0.002756 -0.001431 0.000000 0.044041 0.000000
# 6 0.000000 0.000000 0.000000 -0.008923 0.000000 0.043053
#
#
# Mechanical properties :
#
#
# Convention : Reuss Voigt Hill
#
# Bulk Modulus (GPa) = 19.46029 48.91496 34.18763
# Shear Modulus (GPa) = 25.25026 37.27345 31.26186
#
# Velocity S-wave (km/s) = 3.33848 4.05617 3.71470
# Velocity P-wave (km/s) = 4.84256 6.59755 5.78697
#
# Compressibility (1/GPa) = 0.05138668
#
# Stress axis : x y z
#
# Youngs Moduli (GPa) = 23.98700 73.84187 168.14710
#
# Poissons Ratio (x) = -0.13670 0.61106
# Poissons Ratio (y) = -0.04440 0.52348
# Poissons Ratio (z) = 0.08717 0.22989
#
# Static dielectric constant tensor:
#      x y z
#    x 1.864150 0.000000 0.020920 
#    y 0.000000 1.898600 0.000000 
#    z 0.020920 0.000000 1.887210 
# 
# From -- ./inp_files/65757.got.cif
#   From: 2010.05.17/outbox.cif.g08.bks.cpg/sg15_33_cif.got.tgz:65757.got - 2010.06.03 18:47:42.
