data_PCOD9257174
_publ_section_title
;
Structure prediction by ZEFSAII (Michael W. Deem and Ramdas Pophale) SiO2 
 PCOD9257174
Probable space group: C 2/C
;
_chemical_formula_sum "Si O2"
_cell_formula_units_Z 52
_cell_length_a 11.433160
_cell_length_b 18.472432
_cell_length_c 17.066689
_cell_angle_alpha 90.000000
_cell_angle_beta 38.176636
_cell_angle_gamma 90.000000
_cell_volume 2227.870104
_symmetry_space_group_name_H-M "C 2/C"
_symmetry_group_IT_number 15
_symmetry_cell_setting 'monoclinic'
loop_
_space_group_symop_operation_xyz
x,y,z
-x,y,1/2-z
-x,-y,-z
x,-y,1/2+z
1/2+x,1/2+y,z
1/2-x,1/2+y,1/2-z
1/2-x,1/2-y,-z
1/2+x,1/2-y,1/2+z
loop_
_atom_site_type_symbol
_atom_site_label
_atom_site_fract_x
_atom_site_fract_y
_atom_site_fract_z
Si Si1 0.227897 0.331577 0.314446
Si Si2 0.859460 0.177319 0.923859
Si Si3 0.306243 0.970517 0.997738
Si Si4 0.723640 0.003842 0.803633
Si Si5 0.353708 0.264307 0.028851
Si Si6 0.500000 0.314010 0.750000
Si Si7 0.064906 0.913178 0.565025
O O1 0.422524 0.306229 0.172103
O O2 0.306608 0.338105 0.361427
O O3 0.185050 0.411838 0.305631
O O4 0.043466 0.282836 0.421390
O O5 0.787923 0.099873 0.992871
O O6 0.750000 0.250000 0.000000
O O7 0.233844 0.992932 0.124371
O O8 0.251160 0.038234 0.973104
O O9 0.529599 0.960449 0.892418
O O10 0.888523 0.968582 0.664559
O O11 0.410212 0.348204 0.009455
O O12 0.250000 0.250000 0.000000
O O13 0.185187 0.234037 0.172243
O O14 0.540004 0.366564 0.657107
#
# Coordination Sequence:
#
# PCOD9257174 Si02
#       7
#     8   8   8   8   8   4   8
#     4  10  21  39  54  88 118 146 197 241 286 349
#     4  10  22  36  59  84 118 157 189 237 295 351
#     4  10  19  32  54  86 112 144 188 234 298 335
#     4  10  18  30  57  81 113 142 179 250 290 330
#     4  10  23  35  56  86 119 157 191 237 297 355
#     4  10  20  34  50  80 120 152 186 238 290 346
#     4  11  19  34  55  85 113 147 192 240 291 347
#
# _framework density 23.340678
#
# number of rings (size 3 to 8) (size 9 to 14) (size 15 to 20)
#    0.000    1.846    3.077    1.846    6.462    1.231 
#    0.000    0.000    0.000    2.769    0.000    0.000 
#    0.000    0.000    0.000    0.000    0.000    0.000 
#
# Total GULP energy -144974.031827 kJ/mol
# GULP energy per Si atom -5575.924301 kJ/mol
# Density = 2.328755 g / cm^3
# Si number density = 23.340678 Si / 1000 Ang^3
#
#
#
# Elastic Constant Matrix: (Units=GPa)
#
#
# Indices 1 2 3 4 5 6 
#
# 1 49.5107 19.2896 23.1020 0.0022 -25.6129 -0.0007
# 2 19.2896 176.7574 61.7412 -0.0058 -31.3088 0.0004
# 3 23.1020 61.7412 85.3725 -0.0192 -41.7335 0.0011
# 4 0.0022 -0.0058 -0.0192 40.9256 0.0005 -10.1909
# 5 -25.6129 -31.3088 -41.7335 0.0005 43.5507 0.0020
# 6 -0.0007 0.0004 0.0011 -10.1909 0.0020 34.8007
#
#
#
# Elastic Compliance Matrix: (Units=1/GPa)
#
#
# Indices 1 2 3 4 5 6 
#
# 1 0.029091 -0.000415 0.001215 -0.000002 0.017975 -0.000001
# 2 -0.000415 0.007579 -0.005314 -0.000001 0.000112 0.000000
# 3 0.001215 -0.005314 0.025791 0.000011 0.021609 0.000001
# 4 -0.000002 -0.000001 0.000011 0.026356 0.000008 0.007718
# 5 0.017975 0.000112 0.021609 0.000008 0.054321 -0.000001
# 6 -0.000001 0.000000 0.000001 0.007718 -0.000001 0.030995
#
#
# Mechanical properties :
#
#
# Convention : Reuss Voigt Hill
#
# Bulk Modulus (GPa) = 18.71506 57.76736 38.24121
# Shear Modulus (GPa) = 24.87897 37.68926 31.28411
#
# Velocity S-wave (km/s) = 3.26836 4.02275 3.66502
# Velocity P-wave (km/s) = 4.72002 6.81029 5.85912
#
# Compressibility (1/GPa) = 0.05343289
#
# Stress axis : x y z
#
# Youngs Moduli (GPa) = 34.37456 131.94823 38.77334
#
# Poissons Ratio (x) = 0.05479 -0.04711
# Poissons Ratio (y) = 0.01427 0.20603
# Poissons Ratio (z) = -0.04176 0.70114
#
# Static dielectric constant tensor:
#      x y z
#    x 1.860000 0.000020 -0.102660 
#    y 0.000020 1.944530 0.000030 
#    z -0.102660 0.000030 1.740600 
# 
# From -- ./inp_files/98214.got.cif
#   From: 2010.05.17/outbox.cif.g08.bks.cpg/sg15_50_cif.got.tgz:98214.got - 2010.06.03 18:47:42.
