data_PCOD9257571
_publ_section_title
;
Structure prediction by ZEFSAII (Michael W. Deem and Ramdas Pophale) SiO2 
 PCOD9257571
Probable space group: C 2/C
;
_chemical_formula_sum "Si O2"
_cell_formula_units_Z 36
_cell_length_a 10.544061
_cell_length_b 25.172025
_cell_length_c 5.501123
_cell_angle_alpha 90.000000
_cell_angle_beta 55.037753
_cell_angle_gamma 90.000000
_cell_volume 1196.581191
_symmetry_space_group_name_H-M "C 2/C"
_symmetry_group_IT_number 15
_symmetry_cell_setting 'monoclinic'
loop_
_space_group_symop_operation_xyz
x,y,z
-x,y,1/2-z
-x,-y,-z
x,-y,1/2+z
1/2+x,1/2+y,z
1/2-x,1/2+y,1/2-z
1/2-x,1/2-y,-z
1/2+x,1/2-y,1/2+z
loop_
_atom_site_type_symbol
_atom_site_label
_atom_site_fract_x
_atom_site_fract_y
_atom_site_fract_z
Si Si1 0.500000 0.542272 0.750000
Si Si2 0.308051 0.134401 0.660522
Si Si3 0.880851 0.860385 0.633647
Si Si4 0.348911 0.246713 0.642613
Si Si5 0.328396 0.982618 0.301106
O O1 0.517152 0.586690 0.517244
O O2 0.651870 0.505892 0.550714
O O3 0.234354 0.137018 0.471775
O O4 0.415681 0.186777 0.569251
O O5 0.353808 0.073713 0.642114
O O6 0.201548 0.138768 0.018503
O O7 0.949992 0.800544 0.540693
O O8 0.250000 0.250000 0.500000
O O9 0.250000 0.250000 0.000000
O O10 0.381376 0.978822 0.523211
#
# Coordination Sequence:
#
# PCOD9257571 Si02
#       5
#     4   8   8   8   8
#     4  12  22  30  42  62  98 110 148 158 212 256
#     4  10  18  32  42  56  77 111 146 176 200 237
#     4  10  20  28  44  58  78 112 139 177 204 240
#     4   8  16  30  44  56  70  99 151 176 204 230
#     4  12  22  30  40  60  87 120 142 167 202 249
#
# _framework density 30.085713999999999
#
# number of rings (size 3 to 8) (size 9 to 14) (size 15 to 20)
#    0.000    1.778    4.444    0.667    0.000    0.889 
#    0.000    0.000    0.000    0.000    0.000    0.000 
#    0.000    0.000    0.000    2.000    0.889    0.111 
#
# Total GULP energy -100486.542966 kJ/mol
# GULP energy per Si atom -5582.585720 kJ/mol
# Density = 3.001724 g / cm^3
# Si number density = 30.085714 Si / 1000 Ang^3
#
#
#
# Elastic Constant Matrix: (Units=GPa)
#
#
# Indices 1 2 3 4 5 6 
#
# 1 105.8617 64.2636 75.7282 0.0000 48.1991 0.0000
# 2 64.2636 292.4588 21.2176 0.0000 9.4706 0.0000
# 3 75.7282 21.2176 283.7610 0.0000 23.1976 0.0000
# 4 0.0000 0.0000 0.0000 24.8412 0.0000 35.9354
# 5 48.1991 9.4706 23.1976 0.0000 59.7310 0.0000
# 6 0.0000 0.0000 0.0000 35.9354 0.0000 -17.6354
#
#
#
# Elastic Compliance Matrix: (Units=1/GPa)
#
#
# Indices 1 2 3 4 5 6 
#
# 1 0.022000 -0.004022 -0.004308 0.000000 -0.015442 0.000000
# 2 -0.004022 0.004185 0.000567 0.000000 0.002361 0.000000
# 3 -0.004308 0.000567 0.004497 0.000000 0.001640 0.000000
# 4 0.000000 0.000000 0.000000 0.010197 0.000000 0.020779
# 5 -0.015442 0.002361 0.001640 0.000000 0.028191 0.000000
# 6 0.000000 0.000000 0.000000 0.020779 0.000000 -0.014364
#
#
# Mechanical properties :
#
#
# Convention : Reuss Voigt Hill
#
# Bulk Modulus (GPa) = 65.97206 111.61115 88.79160
# Shear Modulus (GPa) = 66.41389 48.11215 57.26302
#
# Velocity S-wave (km/s) = 4.70349 4.00330 4.36745
# Velocity P-wave (km/s) = 7.17445 7.65159 7.41686
#
# Compressibility (1/GPa) = 0.01515793
#
# Stress axis : x y z
#
# Youngs Moduli (GPa) = 45.45392 238.92803 222.35298
#
# Poissons Ratio (x) = 0.96088 0.95794
# Poissons Ratio (y) = 0.18280 -0.12614
# Poissons Ratio (z) = 0.19582 -0.13554
#
# Static dielectric constant tensor:
#      x y z
#    x 3.361300 0.000000 -0.086670 
#    y 0.000000 2.279950 0.000000 
#    z -0.086670 0.000000 2.296520 
# 
# From -- ./inp_files/13049.got.cif
#   From: 2010.05.17/outbox.cif.g08.bks.cpg/sg15_7_cif.got.tgz:13049.got - 2010.06.03 18:47:42.
