data_PCOD9257408
_publ_section_title
;
Structure prediction by ZEFSAII (Michael W. Deem and Ramdas Pophale) SiO2 
 PCOD9257408
Probable space group: C 2/C
;
_chemical_formula_sum "Si O2"
_cell_formula_units_Z 52
_cell_length_a 16.290022
_cell_length_b 14.878657
_cell_length_c 8.117988
_cell_angle_alpha 90.000000
_cell_angle_beta 92.001588
_cell_angle_gamma 90.000000
_cell_volume 1966.385877
_symmetry_space_group_name_H-M "C 2/C"
_symmetry_group_IT_number 15
_symmetry_cell_setting 'monoclinic'
loop_
_space_group_symop_operation_xyz
x,y,z
-x,y,1/2-z
-x,-y,-z
x,-y,1/2+z
1/2+x,1/2+y,z
1/2-x,1/2+y,1/2-z
1/2-x,1/2-y,-z
1/2+x,1/2-y,1/2+z
loop_
_atom_site_type_symbol
_atom_site_label
_atom_site_fract_x
_atom_site_fract_y
_atom_site_fract_z
Si Si1 0.664925 0.566118 0.917502
Si Si2 0.500000 0.425546 0.250000
Si Si3 0.393444 0.101871 0.438112
Si Si4 0.640692 0.263443 0.637286
Si Si5 0.244219 0.828958 0.146967
Si Si6 0.573337 0.712445 0.483291
Si Si7 0.346444 0.922396 0.557170
O O1 0.577854 0.522041 0.844080
O O2 0.705363 0.592663 0.750117
O O3 0.636121 0.654963 0.012161
O O4 0.751077 0.544952 0.019681
O O5 0.466787 0.361415 0.397150
O O6 0.322057 0.132330 0.559764
O O7 0.453824 0.187448 0.460205
O O8 0.363327 0.095224 0.249167
O O9 0.407202 0.000557 0.497972
O O10 0.730449 0.250529 0.725908
O O11 0.635346 0.167412 0.546936
O O12 0.580138 0.285276 0.784837
O O13 0.169818 0.799285 0.030912
#
# Coordination Sequence:
#
# PCOD9257408 Si02
#       7
#     8   4   8   8   8   8   8
#     4  10  19  34  53  77 108 142 181 219 264 319
#     4  10  22  36  54  76 110 152 186 218 254 322
#     4  11  20  33  55  83 110 137 174 228 280 316
#     4  10  18  31  53  80 105 135 179 229 272 308
#     4   9  17  31  52  79 106 132 173 229 276 310
#     4  10  19  34  54  77 107 140 178 219 266 320
#     4  11  20  32  54  82 109 136 175 229 280 318
#
# _framework density 26.444454
#
# number of rings (size 3 to 8) (size 9 to 14) (size 15 to 20)
#    0.000    1.846    0.000   10.154    0.000    0.615 
#    0.000    0.000    0.000   16.615    0.000    0.000 
#    0.000    0.000    0.000    0.000    0.000    0.000 
#
# Total GULP energy -144937.595802 kJ/mol
# GULP energy per Si atom -5574.522915 kJ/mol
# Density = 2.638427 g / cm^3
# Si number density = 26.444454 Si / 1000 Ang^3
#
#
#
# Elastic Constant Matrix: (Units=GPa)
#
#
# Indices 1 2 3 4 5 6 
#
# 1 132.0741 -9.1122 27.5043 0.0000 34.9761 0.0000
# 2 -9.1122 68.9221 37.2415 0.0000 -12.0257 0.0000
# 3 27.5043 37.2415 134.7818 0.0000 -39.2844 0.0000
# 4 0.0000 0.0000 0.0000 15.0504 0.0000 -6.8358
# 5 34.9761 -12.0257 -39.2844 0.0000 10.6272 0.0000
# 6 0.0000 0.0000 0.0000 -6.8358 0.0000 0.0673
#
#
#
# Elastic Compliance Matrix: (Units=1/GPa)
#
#
# Indices 1 2 3 4 5 6 
#
# 1 0.000440 0.000569 0.006220 0.000000 0.022186 0.000000
# 2 0.000569 0.017319 -0.003427 0.000000 0.005060 0.000000
# 3 0.006220 -0.003427 -0.000007 0.000000 -0.024373 0.000000
# 4 0.000000 0.000000 0.000000 -0.001473 0.000000 -0.149530
# 5 0.022186 0.005060 -0.024373 0.000000 -0.063293 0.000000
# 6 0.000000 0.000000 0.000000 -0.149530 0.000000 -0.329220
#
#
# Mechanical properties :
#
#
# Convention : Reuss Voigt Hill
#
# Bulk Modulus (GPa) = 40.85818 49.67169 45.26494
# Shear Modulus (GPa) = -13.34047 23.82529 5.24241
#
# Velocity S-wave (km/s) = -2.24848 3.00485 1.40951
# Velocity P-wave (km/s) = 2.95689 5.55545 4.45007
#
# Compressibility (1/GPa) = 0.02447490
#
# Stress axis : x y z
#
# Youngs Moduli (GPa) = 2272.18540 57.74114 -142890.71592
#
# Poissons Ratio (x) = -0.03283 888.72685
# Poissons Ratio (y) = -1.29189 -489.63379
# Poissons Ratio (z) = -14.13214 0.19786
#
# Static dielectric constant tensor:
#      x y z
#    x 2.193520 0.000000 0.070570 
#    y 0.000000 2.057190 0.000000 
#    z 0.070570 0.000000 2.068580 
# 
# From -- ./inp_files/48605.got.cif
#   From: 2010.05.17/outbox.cif.g08.bks.cpg/sg15_25_cif.got.tgz:48605.got - 2010.06.03 18:47:42.
