data_PCOD9257220
_publ_section_title
;
Structure prediction by ZEFSAII (Michael W. Deem and Ramdas Pophale) SiO2 
 PCOD9257220
Probable space group: C 2/C
;
_chemical_formula_sum "Si O2"
_cell_formula_units_Z 40
_cell_length_a 14.180818
_cell_length_b 24.023002
_cell_length_c 5.321317
_cell_angle_alpha 90.000000
_cell_angle_beta 65.626019
_cell_angle_gamma 90.000000
_cell_volume 1651.218881
_symmetry_space_group_name_H-M "C 2/C"
_symmetry_group_IT_number 15
_symmetry_cell_setting 'monoclinic'
loop_
_space_group_symop_operation_xyz
x,y,z
-x,y,1/2-z
-x,-y,-z
x,-y,1/2+z
1/2+x,1/2+y,z
1/2-x,1/2+y,1/2-z
1/2-x,1/2-y,-z
1/2+x,1/2-y,1/2+z
loop_
_atom_site_type_symbol
_atom_site_label
_atom_site_fract_x
_atom_site_fract_y
_atom_site_fract_z
Si Si1 0.574671 0.446953 0.869443
Si Si2 0.090517 0.829743 0.851184
Si Si3 0.363107 0.775503 0.896398
Si Si4 0.186491 0.467894 0.987395
Si Si5 0.829895 0.661400 0.934592
O O1 0.500000 0.418701 0.750000
O O2 0.595311 0.390000 0.999661
O O3 0.685948 0.467802 0.657074
O O4 0.500000 0.500000 0.000000
O O5 0.085202 0.778870 0.045151
O O6 0.204491 0.829253 0.592323
O O7 0.000000 0.817976 0.750000
O O8 0.364996 0.820586 0.119193
O O9 0.250000 0.750000 0.000000
O O10 0.382302 0.803744 0.604486
O O11 0.153933 0.497492 0.766644
O O12 0.153154 0.404121 0.040800
#
# Coordination Sequence:
#
# PCOD9257220 Si02
#       5
#     8   8   8   8   8
#     4  10  18  31  46  72 112 153 182 221 266 323
#     4   9  19  33  52  80 108 146 195 234 274 329
#     4  10  19  38  57  74 106 147 196 238 283 324
#     4  11  21  33  53  77 108 142 188 223 268 335
#     4  10  21  37  56  78 109 153 186 234 285 329
#
# _framework density 24.224530000000001
#
# number of rings (size 3 to 8) (size 9 to 14) (size 15 to 20)
#    0.000    2.000    2.000    3.600    0.000    0.000 
#    0.000   13.000    0.000    0.000    0.000    0.000 
#    0.000   16.000    0.000    0.000    0.000    0.000 
#
# Total GULP energy -111411.930204 kJ/mol
# GULP energy per Si atom -5570.596510 kJ/mol
# Density = 2.416939 g / cm^3
# Si number density = 24.224530 Si / 1000 Ang^3
#
#
#
# Elastic Constant Matrix: (Units=GPa)
#
#
# Indices 1 2 3 4 5 6 
#
# 1 62.2879 30.2920 22.9833 0.0000 9.7694 0.0000
# 2 30.2920 192.6309 40.8513 0.0000 31.8172 0.0000
# 3 22.9833 40.8513 102.6767 0.0000 40.0272 0.0000
# 4 0.0000 0.0000 0.0000 -37.3282 0.0000 36.4861
# 5 9.7694 31.8172 40.0272 0.0000 29.9115 0.0000
# 6 0.0000 0.0000 0.0000 36.4861 0.0000 -1.7842
#
#
#
# Elastic Compliance Matrix: (Units=1/GPa)
#
#
# Indices 1 2 3 4 5 6 
#
# 1 0.018344 -0.002340 -0.003784 0.000000 0.001561 0.000000
# 2 -0.002340 0.006599 0.000704 0.000000 -0.007197 0.000000
# 3 -0.003784 0.000704 0.021149 0.000000 -0.027815 0.000000
# 4 0.000000 0.000000 0.000000 0.001411 0.000000 0.028851
# 5 0.001561 -0.007197 -0.027815 0.000000 0.077800 0.000000
# 6 0.000000 0.000000 0.000000 0.028851 0.000000 0.029517
#
#
# Mechanical properties :
#
#
# Convention : Reuss Voigt Hill
#
# Bulk Modulus (GPa) = 28.36661 60.64987 44.50824
# Shear Modulus (GPa) = 28.18336 15.72442 21.95389
#
# Velocity S-wave (km/s) = 3.41460 2.55053 3.01369
# Velocity P-wave (km/s) = 5.22315 5.81072 5.52475
#
# Compressibility (1/GPa) = 0.03525271
#
# Stress axis : x y z
#
# Youngs Moduli (GPa) = 54.51444 151.54512 47.28245
#
# Poissons Ratio (x) = 0.35463 0.17890
# Poissons Ratio (y) = 0.12757 -0.03329
# Poissons Ratio (z) = 0.20626 -0.10670
#
# Static dielectric constant tensor:
#      x y z
#    x 2.110940 0.000000 -0.039540 
#    y 0.000000 0.762310 0.000000 
#    z -0.039540 0.000000 2.182590 
# 
# From -- ./inp_files/10167.got.cif
#   From: 2010.05.17/outbox.cif.g08.bks.cpg/sg15_6_cif.got.tgz:10167.got - 2010.06.03 18:47:42.
