data_PCOD9257977
_publ_section_title
;
Structure prediction by ZEFSAII (Michael W. Deem and Ramdas Pophale) SiO2 
 PCOD9257977
Probable space group: C 2/C
;
_chemical_formula_sum "Si O2"
_cell_formula_units_Z 56
_cell_length_a 9.835310
_cell_length_b 13.154188
_cell_length_c 19.804995
_cell_angle_alpha 90.000000
_cell_angle_beta 105.937341
_cell_angle_gamma 90.000000
_cell_volume 2463.793922
_symmetry_space_group_name_H-M "C 2/C"
_symmetry_group_IT_number 15
_symmetry_cell_setting 'monoclinic'
loop_
_space_group_symop_operation_xyz
x,y,z
-x,y,1/2-z
-x,-y,-z
x,-y,1/2+z
1/2+x,1/2+y,z
1/2-x,1/2+y,1/2-z
1/2-x,1/2-y,-z
1/2+x,1/2-y,1/2+z
loop_
_atom_site_type_symbol
_atom_site_label
_atom_site_fract_x
_atom_site_fract_y
_atom_site_fract_z
Si Si1 0.925131 0.735749 0.829066
Si Si2 0.500000 0.071498 0.750000
Si Si3 0.607759 0.463336 0.684619
Si Si4 0.363489 0.964070 0.612670
Si Si5 0.987917 0.921942 0.059690
Si Si6 0.218153 0.671414 0.936076
Si Si7 0.667006 0.264553 0.393710
Si Si8 0.500000 0.368280 0.250000
O O1 0.906584 0.848014 0.796726
O O2 0.820900 0.729884 0.879589
O O3 0.890659 0.653811 0.766563
O O4 0.086786 0.716058 0.875184
O O5 0.480160 0.000746 0.682126
O O6 0.731229 0.465077 0.646488
O O7 0.476585 0.503723 0.622429
O O8 0.617887 0.550004 0.741583
O O9 0.375548 0.849317 0.591113
O O10 0.336562 0.055385 0.556210
O O11 0.130416 0.852231 0.078676
O O12 0.860474 0.842905 0.049106
O O13 0.000000 0.000000 0.000000
O O14 0.250000 0.750000 0.000000
O O15 0.560491 0.299661 0.318544
#
# Coordination Sequence:
#
# PCOD9257977 Si02
#       8
#     8   4   8   8   8   8   8   4
#     4  10  20  36  59  89 121 153 199 250 297 360
#     4  10  18  32  56  88 124 154 178 240 310 358
#     4   9  18  33  53  82 115 152 193 232 291 359
#     4   9  19  35  54  82 118 152 191 242 305 365
#     4  10  21  40  62  81 112 158 202 250 301 356
#     4  10  21  40  60  81 114 158 203 250 302 356
#     4  10  21  38  60  89 119 155 202 247 303 368
#     4  10  18  32  58  88 120 158 192 238 300 382
#
# _framework density 22.729172999999999
#
# number of rings (size 3 to 8) (size 9 to 14) (size 15 to 20)
#    0.000    2.286    0.000    2.571    0.000    1.143 
#    0.000   22.857    0.000    0.000    0.000    0.000 
#    0.000    0.000    0.000    0.000    0.000    0.000 
#
# Total GULP energy -155869.154877 kJ/mol
# GULP energy per Si atom -5566.755531 kJ/mol
# Density = 2.267744 g / cm^3
# Si number density = 22.729173 Si / 1000 Ang^3
#
#
#
# Elastic Constant Matrix: (Units=GPa)
#
#
# Indices 1 2 3 4 5 6 
#
# 1 72.6040 38.4143 18.7229 0.0000 0.5899 0.0000
# 2 38.4143 157.8959 38.1785 0.0000 -10.7935 0.0000
# 3 18.7229 38.1785 71.7746 0.0000 -3.3994 0.0000
# 4 0.0000 0.0000 0.0000 15.8395 0.0000 11.1668
# 5 0.5899 -10.7935 -3.3994 0.0000 23.6358 0.0000
# 6 0.0000 0.0000 0.0000 11.1668 0.0000 11.5835
#
#
#
# Elastic Compliance Matrix: (Units=1/GPa)
#
#
# Indices 1 2 3 4 5 6 
#
# 1 0.016300 -0.003526 -0.002489 0.000000 -0.002375 0.000000
# 2 -0.003526 0.008217 -0.003292 0.000000 0.003367 0.000000
# 3 -0.002489 -0.003292 0.016376 0.000000 0.000914 0.000000
# 4 0.000000 0.000000 0.000000 0.197068 0.000000 -0.189979
# 5 -0.002375 0.003367 0.000914 0.000000 0.044037 0.000000
# 6 0.000000 0.000000 0.000000 -0.189979 0.000000 0.269476
#
#
# Mechanical properties :
#
#
# Convention : Reuss Voigt Hill
#
# Bulk Modulus (GPa) = 44.88333 54.76734 49.82534
# Shear Modulus (GPa) = 8.65780 24.00901 16.33340
#
# Velocity S-wave (km/s) = 1.95381 3.25362 2.68360
# Velocity P-wave (km/s) = 4.98796 6.18568 5.61882
#
# Compressibility (1/GPa) = 0.02227999
#
# Stress axis : x y z
#
# Youngs Moduli (GPa) = 61.34908 121.69537 61.06523
#
# Poissons Ratio (x) = 0.42912 0.15198
# Poissons Ratio (y) = 0.21633 0.20100
# Poissons Ratio (z) = 0.15269 0.40058
#
# Static dielectric constant tensor:
#      x y z
#    x 2.212940 0.000000 0.493060 
#    y 0.000000 1.889890 0.000000 
#    z 0.493060 0.000000 2.725840 
# 
# From -- ./inp_files/237172.got.cif
#   From: 2010.05.17/outbox.cif.g08.bks.cpg/sg15_119_cif.got.tgz:237172.got - 2010.06.03 18:47:42.
