data_PCOD9257342
_publ_section_title
;
Structure prediction by ZEFSAII (Michael W. Deem and Ramdas Pophale) SiO2 
 PCOD9257342
Probable space group: C 2/C
;
_chemical_formula_sum "Si O2"
_cell_formula_units_Z 40
_cell_length_a 16.144213
_cell_length_b 19.491073
_cell_length_c 9.196598
_cell_angle_alpha 90.000000
_cell_angle_beta 41.697208
_cell_angle_gamma 90.000000
_cell_volume 1924.988476
_symmetry_space_group_name_H-M "C 2/C"
_symmetry_group_IT_number 15
_symmetry_cell_setting 'monoclinic'
loop_
_space_group_symop_operation_xyz
x,y,z
-x,y,1/2-z
-x,-y,-z
x,-y,1/2+z
1/2+x,1/2+y,z
1/2-x,1/2+y,1/2-z
1/2-x,1/2-y,-z
1/2+x,1/2-y,1/2+z
loop_
_atom_site_type_symbol
_atom_site_label
_atom_site_fract_x
_atom_site_fract_y
_atom_site_fract_z
Si Si1 0.583345 0.532943 0.017592
Si Si2 0.785596 0.723937 0.290417
Si Si3 0.205786 0.563994 0.181213
Si Si4 0.153720 0.435601 0.418746
Si Si5 0.046463 0.293623 0.519607
O O1 0.500000 0.567821 0.250000
O O2 0.342342 0.471121 0.498760
O O3 0.500000 0.500000 0.000000
O O4 0.698248 0.577774 0.806976
O O5 0.750000 0.750000 0.500000
O O6 0.779131 0.641746 0.291163
O O7 0.678440 0.756241 0.332648
O O8 0.932513 0.737829 0.078312
O O9 0.134706 0.511479 0.380365
O O10 0.144288 0.563261 0.103968
O O11 0.074181 0.374044 0.456063
O O12 0.000000 0.289298 0.750000
#
# Coordination Sequence:
#
# PCOD9257342 Si02
#       5
#     8   8   8   8   8
#     4  10  18  31  51  81 118 155 192 239 293 348
#     4  10  20  36  57  89 118 156 203 245 295 343
#     4  10  20  34  56  88 118 153 196 246 295 352
#     4  10  20  35  54  88 119 150 199 244 298 347
#     4  10  20  36  59  89 120 155 200 252 296 345
#
# _framework density 20.779344999999999
#
# number of rings (size 3 to 8) (size 9 to 14) (size 15 to 20)
#    1.200    0.800    6.000    0.000    0.000    4.800 
#    0.000    0.000    0.000    1.200    0.000    0.000 
#    0.000    0.000    0.000    0.000    0.000    0.000 
#
# Total GULP energy -111377.912750 kJ/mol
# GULP energy per Si atom -5568.895637 kJ/mol
# Density = 2.073205 g / cm^3
# Si number density = 20.779345 Si / 1000 Ang^3
#
#
#
# Elastic Constant Matrix: (Units=GPa)
#
#
# Indices 1 2 3 4 5 6 
#
# 1 70.5107 34.2527 38.1555 0.0000 -36.9152 0.0000
# 2 34.2527 118.1349 28.8781 0.0000 -17.4885 0.0000
# 3 38.1555 28.8781 71.2146 0.0000 -28.1303 0.0000
# 4 0.0000 0.0000 0.0000 33.9309 0.0000 -12.4920
# 5 -36.9152 -17.4885 -28.1303 0.0000 41.8855 0.0000
# 6 0.0000 0.0000 0.0000 -12.4920 0.0000 29.2024
#
#
#
# Elastic Compliance Matrix: (Units=1/GPa)
#
#
# Indices 1 2 3 4 5 6 
#
# 1 0.030699 -0.004220 -0.006459 0.000000 0.020956 0.000000
# 2 -0.004220 0.010084 -0.002224 0.000000 -0.001002 0.000000
# 3 -0.006459 -0.002224 0.021490 0.000000 0.007812 0.000000
# 4 0.000000 0.000000 0.000000 0.034981 0.000000 0.014964
# 5 0.020956 -0.001002 0.007812 0.000000 0.047172 0.000000
# 6 0.000000 0.000000 0.000000 0.014964 0.000000 0.040645
#
#
# Mechanical properties :
#
#
# Convention : Reuss Voigt Hill
#
# Bulk Modulus (GPa) = 27.42196 51.38143 39.40169
# Shear Modulus (GPa) = 22.41843 31.57535 26.99689
#
# Velocity S-wave (km/s) = 3.28820 3.90238 3.60838
# Velocity P-wave (km/s) = 5.25754 6.71458 6.03023
#
# Compressibility (1/GPa) = 0.03646713
#
# Stress axis : x y z
#
# Youngs Moduli (GPa) = 32.57487 99.17015 46.53289
#
# Poissons Ratio (x) = 0.41847 0.30054
# Poissons Ratio (y) = 0.13746 0.10350
# Poissons Ratio (z) = 0.21039 0.22057
#
# Static dielectric constant tensor:
#      x y z
#    x 1.771440 0.000000 -0.057790 
#    y 0.000000 1.739620 0.000000 
#    z -0.057790 0.000000 1.833070 
# 
# From -- ./inp_files/113884.got.cif
#   From: 2010.05.17/outbox.cif.g08.bks.cpg/sg15_57_cif.got.tgz:113884.got - 2010.06.03 18:47:42.
