data_PCOD9257057
_publ_section_title
;
Structure prediction by ZEFSAII (Michael W. Deem and Ramdas Pophale) SiO2 
 PCOD9257057
Probable space group: C 2/C
;
_chemical_formula_sum "Si O2"
_cell_formula_units_Z 60
_cell_length_a 9.083252
_cell_length_b 23.279117
_cell_length_c 14.685345
_cell_angle_alpha 90.000000
_cell_angle_beta 98.376624
_cell_angle_gamma 90.000000
_cell_volume 3072.090541
_symmetry_space_group_name_H-M "C 2/C"
_symmetry_group_IT_number 15
_symmetry_cell_setting 'monoclinic'
loop_
_space_group_symop_operation_xyz
x,y,z
-x,y,1/2-z
-x,-y,-z
x,-y,1/2+z
1/2+x,1/2+y,z
1/2-x,1/2+y,1/2-z
1/2-x,1/2-y,-z
1/2+x,1/2-y,1/2+z
loop_
_atom_site_type_symbol
_atom_site_label
_atom_site_fract_x
_atom_site_fract_y
_atom_site_fract_z
Si Si1 0.596389 0.675392 0.015744
Si Si2 0.342847 0.555970 0.200042
Si Si3 0.165882 0.525696 0.009238
Si Si4 0.217531 0.573210 0.383298
Si Si5 0.537461 0.139810 0.042053
Si Si6 0.163181 0.819140 0.887711
Si Si7 0.000000 0.726354 0.750000
Si Si8 0.191452 0.294225 0.106623
O O1 0.660350 0.616484 0.063124
O O2 0.423081 0.680319 0.023788
O O3 0.676458 0.726618 0.081078
O O4 0.649384 0.684568 0.916708
O O5 0.500000 0.531816 0.250000
O O6 0.260991 0.522049 0.111165
O O7 0.239435 0.564081 0.278734
O O8 0.372416 0.620048 0.163799
O O9 0.134985 0.593321 0.994538
O O10 0.235736 0.487616 0.936188
O O11 0.000000 0.500000 0.000000
O O12 0.059752 0.603428 0.394285
O O13 0.659346 0.182731 0.092572
O O14 0.422300 0.172904 0.969874
O O15 0.092755 0.767412 0.825466
O O16 0.124348 0.694752 0.700176
#
# Coordination Sequence:
#
# PCOD9257057 Si02
#       8
#     8   8   8   8   8   8   4   8
#     4   9  17  32  55  78 109 142 184 237 289 344
#     4  11  19  34  58  85 109 145 193 244 297 340
#     4   9  21  36  52  82 116 148 190 236 291 348
#     4  10  19  37  57  82 115 149 190 245 292 348
#     4   9  20  35  54  79 109 149 190 231 287 353
#     4  10  18  33  54  82 108 135 187 245 288 326
#     4  10  18  30  52  80 110 140 188 238 284 350
#     4   9  18  33  53  79 104 148 187 224 294 346
#
# _framework density 19.530674000000001
#
# number of rings (size 3 to 8) (size 9 to 14) (size 15 to 20)
#    0.000    2.400    2.000    0.800    0.000    7.467 
#    0.000    4.000    0.000    8.800   10.400    0.000 
#    0.000    0.000    0.000    0.000    0.000    0.000 
#
# Total GULP energy -167070.714776 kJ/mol
# GULP energy per Si atom -5569.023826 kJ/mol
# Density = 1.948622 g / cm^3
# Si number density = 19.530674 Si / 1000 Ang^3
#
#
#
# Elastic Constant Matrix: (Units=GPa)
#
#
# Indices 1 2 3 4 5 6 
#
# 1 97.2945 5.6851 54.3268 0.0000 -14.5450 0.0000
# 2 5.6851 39.1505 16.6112 0.0000 -2.3231 0.0000
# 3 54.3268 16.6112 90.2886 0.0000 -34.0017 0.0000
# 4 0.0000 0.0000 0.0000 14.9595 0.0000 -0.5528
# 5 -14.5450 -2.3231 -34.0017 0.0000 41.3896 0.0000
# 6 0.0000 0.0000 0.0000 -0.5528 0.0000 26.2199
#
#
#
# Elastic Compliance Matrix: (Units=1/GPa)
#
#
# Indices 1 2 3 4 5 6 
#
# 1 0.015963 0.002300 -0.011391 0.000000 -0.003619 0.000000
# 2 0.002300 0.028458 -0.008273 0.000000 -0.004391 0.000000
# 3 -0.011391 -0.008273 0.025729 0.000000 0.016669 0.000000
# 4 0.000000 0.000000 0.000000 0.066899 0.000000 0.001410
# 5 -0.003619 -0.004391 0.016669 0.000000 0.036336 0.000000
# 6 0.000000 0.000000 0.000000 0.001410 0.000000 0.038169
#
#
# Mechanical properties :
#
#
# Convention : Reuss Voigt Hill
#
# Bulk Modulus (GPa) = 28.23090 42.21998 35.22544
# Shear Modulus (GPa) = 19.37301 26.52114 22.94707
#
# Velocity S-wave (km/s) = 3.15290 3.68900 3.43144
# Velocity P-wave (km/s) = 5.26692 6.30945 5.81161
#
# Compressibility (1/GPa) = 0.03542218
#
# Stress axis : x y z
#
# Youngs Moduli (GPa) = 62.64424 35.13921 38.86625
#
# Poissons Ratio (x) = -0.08083 0.44273
# Poissons Ratio (y) = -0.14411 0.32156
# Poissons Ratio (z) = 0.71359 0.29072
#
# Static dielectric constant tensor:
#      x y z
#    x 1.756060 0.000000 -0.035990 
#    y 0.000000 1.702300 0.000000 
#    z -0.035990 0.000000 1.713750 
# 
# From -- ./inp_files/137395.got.cif
#   From: 2010.05.17/outbox.cif.g08.bks.cpg/sg15_69_cif.got.tgz:137395.got - 2010.06.03 18:47:42.
