data_PCOD9257681
_publ_section_title
;
Structure prediction by ZEFSAII (Michael W. Deem and Ramdas Pophale) SiO2 
 PCOD9257681
Probable space group: C 2/C
;
_chemical_formula_sum "Si O2"
_cell_formula_units_Z 48
_cell_length_a 25.458809
_cell_length_b 9.817824
_cell_length_c 9.533931
_cell_angle_alpha 90.000000
_cell_angle_beta 58.438227
_cell_angle_gamma 90.000000
_cell_volume 2030.503940
_symmetry_space_group_name_H-M "C 2/C"
_symmetry_group_IT_number 15
_symmetry_cell_setting 'monoclinic'
loop_
_space_group_symop_operation_xyz
x,y,z
-x,y,1/2-z
-x,-y,-z
x,-y,1/2+z
1/2+x,1/2+y,z
1/2-x,1/2+y,1/2-z
1/2-x,1/2-y,-z
1/2+x,1/2-y,1/2+z
loop_
_atom_site_type_symbol
_atom_site_label
_atom_site_fract_x
_atom_site_fract_y
_atom_site_fract_z
Si Si1 0.626083 0.078685 0.395521
Si Si2 0.553752 0.081638 0.774617
Si Si3 0.928066 0.873021 0.716686
Si Si4 0.761877 0.023091 0.135031
Si Si5 0.711675 0.648830 0.148549
Si Si6 0.611872 0.609162 0.919344
O O1 0.610534 0.083811 0.582725
O O2 0.624191 0.237452 0.353393
O O3 0.574007 0.005062 0.377845
O O4 0.690128 0.001142 0.272005
O O5 0.500000 0.026877 0.750000
O O6 0.534192 0.233495 0.854500
O O7 0.859551 0.822310 0.769558
O O8 0.926308 0.014955 0.635384
O O9 0.927254 0.899197 0.883075
O O10 0.820661 0.946646 0.125255
O O11 0.770313 0.161404 0.214008
O O12 0.773076 0.994348 0.955619
O O13 0.750000 0.750000 0.000000
#
# Coordination Sequence:
#
# PCOD9257681 Si02
#       6
#     8   8   8   8   8   8
#     4  11  22  39  60  86 119 152 190 241 287 339
#     4  11  24  42  61  82 110 153 203 247 288 330
#     4   9  19  37  57  80 115 150 188 237 284 336
#     4  10  18  32  55  82 115 149 176 216 280 345
#     4  10  18  32  51  78 114 150 181 219 272 339
#     4   9  20  36  57  88 121 150 186 230 286 355
#
# _framework density 23.639451000000001
#
# number of rings (size 3 to 8) (size 9 to 14) (size 15 to 20)
#    0.000    2.000    0.000    5.500    0.000    2.667 
#    0.000   26.667    0.000    0.000    0.000    0.000 
#    0.000    0.000    0.000    0.000    0.000    0.000 
#
# Total GULP energy -133659.214373 kJ/mol
# GULP energy per Si atom -5569.133932 kJ/mol
# Density = 2.358565 g / cm^3
# Si number density = 23.639451 Si / 1000 Ang^3
#
#
#
# Elastic Constant Matrix: (Units=GPa)
#
#
# Indices 1 2 3 4 5 6 
#
# 1 90.5706 30.6359 22.8716 0.0000 7.9367 0.0000
# 2 30.6359 107.7389 29.6726 0.0000 23.2038 0.0000
# 3 22.8716 29.6726 58.8314 0.0000 12.7144 0.0000
# 4 0.0000 0.0000 0.0000 26.9045 0.0000 7.4782
# 5 7.9367 23.2038 12.7144 0.0000 39.2329 0.0000
# 6 0.0000 0.0000 0.0000 7.4782 0.0000 40.5335
#
#
#
# Elastic Compliance Matrix: (Units=1/GPa)
#
#
# Indices 1 2 3 4 5 6 
#
# 1 0.012863 -0.002681 -0.003687 0.000000 0.000178 0.000000
# 2 -0.002681 0.012317 -0.003993 0.000000 -0.005449 0.000000
# 3 -0.003687 -0.003993 0.021263 0.000000 -0.003783 0.000000
# 4 0.000000 0.000000 0.000000 0.039178 0.000000 -0.007228
# 5 0.000178 -0.005449 -0.003783 0.000000 0.029901 0.000000
# 6 0.000000 0.000000 0.000000 -0.007228 0.000000 0.026004
#
#
# Mechanical properties :
#
#
# Convention : Reuss Voigt Hill
#
# Bulk Modulus (GPa) = 38.87741 47.05569 42.96655
# Shear Modulus (GPa) = 29.27032 32.93156 31.10094
#
# Velocity S-wave (km/s) = 3.52262 3.73644 3.63111
# Velocity P-wave (km/s) = 5.74690 6.20995 5.98290
#
# Compressibility (1/GPa) = 0.02572188
#
# Stress axis : x y z
#
# Youngs Moduli (GPa) = 77.74013 81.18851 47.03080
#
# Poissons Ratio (x) = 0.21763 0.17342
# Poissons Ratio (y) = 0.20839 0.18778
# Poissons Ratio (z) = 0.28665 0.32416
#
# Static dielectric constant tensor:
#      x y z
#    x 1.970070 0.000000 -0.086020 
#    y 0.000000 2.056680 0.000000 
#    z -0.086020 0.000000 1.981760 
# 
# From -- ./inp_files/116732.got.cif
#   From: 2010.05.17/outbox.cif.g08.bks.cpg/sg15_59_cif.got.tgz:116732.got - 2010.06.03 18:47:42.
