data_PCOD9257539
_publ_section_title
;
Structure prediction by ZEFSAII (Michael W. Deem and Ramdas Pophale) SiO2 
 PCOD9257539
Probable space group: C 2/C
;
_chemical_formula_sum "Si O2"
_cell_formula_units_Z 64
_cell_length_a 17.322741
_cell_length_b 21.281057
_cell_length_c 16.307217
_cell_angle_alpha 90.000000
_cell_angle_beta 29.624919
_cell_angle_gamma 90.000000
_cell_volume 2971.651126
_symmetry_space_group_name_H-M "C 2/C"
_symmetry_group_IT_number 15
_symmetry_cell_setting 'monoclinic'
loop_
_space_group_symop_operation_xyz
x,y,z
-x,y,1/2-z
-x,-y,-z
x,-y,1/2+z
1/2+x,1/2+y,z
1/2-x,1/2+y,1/2-z
1/2-x,1/2-y,-z
1/2+x,1/2-y,1/2+z
loop_
_atom_site_type_symbol
_atom_site_label
_atom_site_fract_x
_atom_site_fract_y
_atom_site_fract_z
Si Si1 0.672196 0.806129 0.622155
Si Si2 0.613053 0.493220 0.315797
Si Si3 0.252731 0.381904 0.778031
Si Si4 0.614902 0.895860 0.388798
Si Si5 0.584405 0.387662 0.050092
Si Si6 0.665004 0.289847 0.264372
Si Si7 0.898504 0.661878 0.769474
Si Si8 0.340744 0.754868 0.552900
O O1 0.500000 0.816846 0.750000
O O2 0.750000 0.750000 0.500000
O O3 0.773900 0.868755 0.523028
O O4 0.677196 0.776756 0.708950
O O5 0.500000 0.500000 0.500000
O O6 0.672017 0.562038 0.237847
O O7 0.767401 0.450951 0.192717
O O8 0.506620 0.452182 0.353277
O O9 0.346989 0.384980 0.605838
O O10 0.254987 0.315660 0.823859
O O11 0.070901 0.399733 0.926927
O O12 0.678464 0.831756 0.373305
O O13 0.635631 0.886642 0.271669
O O14 0.460434 0.330985 0.168345
O O15 0.613714 0.280509 0.405346
O O16 0.745021 0.703926 0.925181
O O17 0.000000 0.634850 0.750000
O O18 0.013437 0.713979 0.624709
#
# Coordination Sequence:
#
# PCOD9257539 Si02
#       8
#     8   8   8   8   8   8   8   8
#     4  12  24  34  53  83 117 154 185 229 295 350
#     4   9  19  36  56  82 106 144 193 248 281 320
#     4  10  18  31  58  84 107 140 196 242 273 320
#     4   9  20  33  57  86 109 146 188 242 280 332
#     4  10  20  35  52  78 114 144 183 235 283 339
#     4  10  20  35  52  81 119 147 186 233 282 341
#     4  10  20  33  51  85 119 145 172 218 286 343
#     4  10  19  31  54  82 113 145 182 223 272 330
#
# _framework density 21.536849
#
# number of rings (size 3 to 8) (size 9 to 14) (size 15 to 20)
#    0.000    2.000    2.500    1.500    5.250    1.000 
#    0.000    0.000    0.000    3.000   39.000    0.000 
#    0.000    0.000    0.000    0.000    0.000    0.000 
#
# Total GULP energy -178545.021216 kJ/mol
# GULP energy per Si atom -5579.531913 kJ/mol
# Density = 2.148783 g / cm^3
# Si number density = 21.536849 Si / 1000 Ang^3
#
#
#
# Elastic Constant Matrix: (Units=GPa)
#
#
# Indices 1 2 3 4 5 6 
#
# 1 76.4723 22.1341 4.0015 -0.0029 -25.8004 -0.0009
# 2 22.1341 62.2547 14.5085 -0.0176 -24.1264 0.0096
# 3 4.0015 14.5085 55.9927 -0.0326 -20.1398 0.0118
# 4 -0.0029 -0.0176 -0.0326 27.8774 0.0107 -7.6639
# 5 -25.8004 -24.1264 -20.1398 0.0107 30.4755 -0.0035
# 6 -0.0009 0.0096 0.0118 -7.6639 -0.0035 19.7605
#
#
#
# Elastic Compliance Matrix: (Units=1/GPa)
#
#
# Indices 1 2 3 4 5 6 
#
# 1 0.019762 -0.000582 0.006022 0.000001 0.020249 0.000002
# 2 -0.000582 0.023216 0.000603 0.000007 0.018285 -0.000006
# 3 0.006022 0.000603 0.025290 0.000021 0.022288 -0.000003
# 4 0.000001 0.000007 0.000021 0.040153 0.000008 0.015573
# 5 0.020249 0.018285 0.022288 0.000008 0.079160 -0.000004
# 6 0.000002 -0.000006 -0.000003 0.015573 -0.000004 0.056646
#
#
# Mechanical properties :
#
#
# Convention : Reuss Voigt Hill
#
# Bulk Modulus (GPa) = 12.44534 30.66756 21.55645
# Shear Modulus (GPa) = 19.31068 25.89437 22.60253
#
# Velocity S-wave (km/s) = 2.99763 3.47122 3.24308
# Velocity P-wave (km/s) = 4.21572 5.50784 4.90452
#
# Compressibility (1/GPa) = 0.08035133
#
# Stress axis : x y z
#
# Youngs Moduli (GPa) = 50.60332 43.07443 39.54203
#
# Poissons Ratio (x) = 0.02508 -0.23811
# Poissons Ratio (y) = 0.02946 -0.02384
# Poissons Ratio (z) = -0.30472 -0.02596
#
# Static dielectric constant tensor:
#      x y z
#    x 1.867980 -0.000020 0.012680 
#    y -0.000020 1.788470 0.000020 
#    z 0.012680 0.000020 1.819220 
# 
# From -- ./inp_files/211949.got.cif
#   From: 2010.05.17/outbox.cif.g08.bks.cpg/sg15_106_cif.got.tgz:211949.got - 2010.06.03 18:47:42.
