data_PCOD9257183
_publ_section_title
;
Structure prediction by ZEFSAII (Michael W. Deem and Ramdas Pophale) SiO2 
 PCOD9257183
Probable space group: C 2/C
;
_chemical_formula_sum "Si O2"
_cell_formula_units_Z 64
_cell_length_a 9.119106
_cell_length_b 17.389283
_cell_length_c 22.412762
_cell_angle_alpha 90.000000
_cell_angle_beta 75.410628
_cell_angle_gamma 90.000000
_cell_volume 3439.498714
_symmetry_space_group_name_H-M "C 2/C"
_symmetry_group_IT_number 15
_symmetry_cell_setting 'monoclinic'
loop_
_space_group_symop_operation_xyz
x,y,z
-x,y,1/2-z
-x,-y,-z
x,-y,1/2+z
1/2+x,1/2+y,z
1/2-x,1/2+y,1/2-z
1/2-x,1/2-y,-z
1/2+x,1/2-y,1/2+z
loop_
_atom_site_type_symbol
_atom_site_label
_atom_site_fract_x
_atom_site_fract_y
_atom_site_fract_z
Si Si1 0.521256 0.078048 0.373058
Si Si2 0.547077 0.504615 0.108172
Si Si3 0.726520 0.045892 0.600597
Si Si4 0.388499 0.390372 0.709501
Si Si5 0.857102 0.442452 0.519163
Si Si6 0.274135 0.466377 0.298168
Si Si7 0.130300 0.711196 0.275410
Si Si8 0.829314 0.344526 0.282973
O O1 0.586189 0.107204 0.430161
O O2 0.629212 0.006161 0.343943
O O3 0.551771 0.144320 0.322293
O O4 0.356274 0.038251 0.390588
O O5 0.406925 0.465936 0.088855
O O6 0.482690 0.585124 0.141994
O O7 0.697904 0.518392 0.054472
O O8 0.601916 0.459517 0.162246
O O9 0.675146 0.086080 0.544259
O O10 0.673592 0.095794 0.662239
O O11 0.500000 0.361608 0.750000
O O12 0.323803 0.470186 0.743948
O O13 0.252399 0.330798 0.719911
O O14 0.000000 0.500000 0.500000
O O15 0.234618 0.389474 0.268148
O O16 0.222468 0.771871 0.304916
O O17 0.000000 0.749906 0.250000
O O18 0.000000 0.321878 0.250000
#
# Coordination Sequence:
#
# PCOD9257183 Si02
#       8
#     8   8   8   8   8   8   8   8
#     4   9  19  39  60  80 114 155 200 234 285 342
#     4  10  18  30  58  83 114 139 193 249 293 326
#     4  11  20  33  59  86 113 150 198 242 291 344
#     4   9  17  32  54  81 109 147 191 231 283 345
#     4   9  20  36  54  85 110 147 199 253 282 333
#     4   9  18  32  54  83 112 149 181 236 284 347
#     4  11  24  35  55  86 122 154 190 240 295 354
#     4  12  24  36  54  86 126 154 189 232 304 355
#
# _framework density 18.607362999999999
#
# number of rings (size 3 to 8) (size 9 to 14) (size 15 to 20)
#    0.000    2.000    2.500    2.250    3.500    0.000 
#    0.000    0.625    0.000    0.000    0.000    6.125 
#    0.000    0.000    0.000    0.000    0.000    0.000 
#
# Total GULP energy -178300.209939 kJ/mol
# GULP energy per Si atom -5571.881561 kJ/mol
# Density = 1.856501 g / cm^3
# Si number density = 18.607363 Si / 1000 Ang^3
#
#
#
# Elastic Constant Matrix: (Units=GPa)
#
#
# Indices 1 2 3 4 5 6 
#
# 1 124.1719 21.0579 25.7618 0.0000 6.4009 0.0000
# 2 21.0579 41.3963 9.4526 0.0000 9.9022 0.0000
# 3 25.7618 9.4526 73.9205 0.0000 6.6344 0.0000
# 4 0.0000 0.0000 0.0000 1.3808 0.0000 3.9398
# 5 6.4009 9.9022 6.6344 0.0000 21.3827 0.0000
# 6 0.0000 0.0000 0.0000 3.9398 0.0000 23.5235
#
#
#
# Elastic Compliance Matrix: (Units=1/GPa)
#
#
# Indices 1 2 3 4 5 6 
#
# 1 0.009316 -0.004108 -0.002718 0.000000 -0.000043 0.000000
# 2 -0.004108 0.029402 -0.001251 0.000000 -0.011998 0.000000
# 3 -0.002718 -0.001251 0.014926 0.000000 -0.003238 0.000000
# 4 0.000000 0.000000 0.000000 1.386990 0.000000 -0.232300
# 5 -0.000043 -0.011998 -0.003238 0.000000 0.053340 0.000000
# 6 0.000000 0.000000 0.000000 -0.232300 0.000000 0.081417
#
#
# Mechanical properties :
#
#
# Convention : Reuss Voigt Hill
#
# Bulk Modulus (GPa) = 26.67368 39.11483 32.89426
# Shear Modulus (GPa) = 3.11712 21.47184 12.29448
#
# Velocity S-wave (km/s) = 1.29570 3.40066 2.57326
# Velocity P-wave (km/s) = 4.07487 6.04037 5.15222
#
# Compressibility (1/GPa) = 0.03749014
#
# Stress axis : x y z
#
# Youngs Moduli (GPa) = 107.34142 34.01102 66.99833
#
# Poissons Ratio (x) = 0.13972 0.18207
# Poissons Ratio (y) = 0.44098 0.08383
# Poissons Ratio (z) = 0.29170 0.04256
#
# Static dielectric constant tensor:
#      x y z
#    x 1.692760 0.000000 0.005420 
#    y 0.000000 1.614760 0.000000 
#    z 0.005420 0.000000 1.693320 
# 
# From -- ./inp_files/265260.got.cif
#   From: 2010.05.17/outbox.cif.g08.bks.cpg/sg15_133_cif.got.tgz:265260.got - 2010.06.03 18:47:42.
