data_PCOD9257126
_publ_section_title
;
Structure prediction by ZEFSAII (Michael W. Deem and Ramdas Pophale) SiO2 
 PCOD9257126
Probable space group: C 2/C
;
_chemical_formula_sum "Si O2"
_cell_formula_units_Z 48
_cell_length_a 11.012626
_cell_length_b 32.672820
_cell_length_c 14.384126
_cell_angle_alpha 90.000000
_cell_angle_beta 148.235421
_cell_angle_gamma 90.000000
_cell_volume 2724.594346
_symmetry_space_group_name_H-M "C 2/C"
_symmetry_group_IT_number 15
_symmetry_cell_setting 'monoclinic'
loop_
_space_group_symop_operation_xyz
x,y,z
-x,y,1/2-z
-x,-y,-z
x,-y,1/2+z
1/2+x,1/2+y,z
1/2-x,1/2+y,1/2-z
1/2-x,1/2-y,-z
1/2+x,1/2-y,1/2+z
loop_
_atom_site_type_symbol
_atom_site_label
_atom_site_fract_x
_atom_site_fract_y
_atom_site_fract_z
Si Si1 0.000000 0.451282 0.250000
Si Si2 0.104606 0.482872 0.665099
Si Si3 0.000000 0.581258 0.250000
Si Si4 0.795802 0.143316 0.337777
Si Si5 0.513747 0.427117 0.868167
Si Si6 0.106951 0.298789 0.993460
Si Si7 0.979328 0.206680 0.887372
O O1 0.097658 0.479495 0.230919
O O2 0.221188 0.427517 0.429797
O O3 0.971450 0.447440 0.639446
O O4 0.355485 0.463157 0.809549
O O5 0.000000 0.500000 0.500000
O O6 0.789535 0.611490 0.137990
O O7 0.905436 0.115368 0.330393
O O8 0.575354 0.166953 0.153277
O O9 0.966435 0.176551 0.492935
O O10 0.500000 0.432872 0.750000
O O11 0.982183 0.254620 0.914915
O O12 0.300879 0.297507 0.038925
O O13 0.250450 0.304594 0.181369
#
# Coordination Sequence:
#
# PCOD9257126 Si02
#       7
#     4   8   4   8   8   8   8
#     4  11  22  42  64  90 114 150 208 240 296 366
#     4  10  20  40  67  86 115 156 197 244 292 362
#     4   9  20  34  58  90 124 150 186 252 300 336
#     4  11  20  37  55  86 128 146 193 250 290 350
#     4  11  24  40  63  87 116 160 192 246 306 339
#     4  10  18  30  55  84 120 153 192 229 291 356
#     4  10  18  30  54  86 116 160 187 230 292 351
#
# _framework density 17.6173
#
# number of rings (size 3 to 8) (size 9 to 14) (size 15 to 20)
#    0.000    1.667    5.000    0.500    0.000    1.333 
#    0.000    0.000    3.667    1.000    0.000    0.000 
#    0.000    0.000    0.000    0.000    0.000    0.000 
#
# Total GULP energy -133775.360901 kJ/mol
# GULP energy per Si atom -5573.973371 kJ/mol
# Density = 1.757720 g / cm^3
# Si number density = 17.617300 Si / 1000 Ang^3
#
#
#
# Elastic Constant Matrix: (Units=GPa)
#
#
# Indices 1 2 3 4 5 6 
#
# 1 72.4327 26.2636 31.5848 0.0000 -2.6762 0.0000
# 2 26.2636 81.2294 44.1868 0.0000 5.0229 0.0000
# 3 31.5848 44.1868 129.6888 0.0000 2.3402 0.0000
# 4 0.0000 0.0000 0.0000 31.4784 0.0000 -3.6098
# 5 -2.6762 5.0229 2.3402 0.0000 21.1268 0.0000
# 6 0.0000 0.0000 0.0000 -3.6098 0.0000 22.8847
#
#
#
# Elastic Compliance Matrix: (Units=1/GPa)
#
#
# Indices 1 2 3 4 5 6 
#
# 1 0.016598 -0.004104 -0.002705 0.000000 0.003378 0.000000
# 2 -0.004104 0.016322 -0.004491 0.000000 -0.003903 0.000000
# 3 -0.002705 -0.004491 0.009907 0.000000 -0.000372 0.000000
# 4 0.000000 0.000000 0.000000 0.032353 0.000000 0.005103
# 5 0.003378 -0.003903 -0.000372 0.000000 0.048730 0.000000
# 6 0.000000 0.000000 0.000000 0.005103 0.000000 0.044502
#
#
# Mechanical properties :
#
#
# Convention : Reuss Voigt Hill
#
# Bulk Modulus (GPa) = 49.44050 54.15792 51.79921
# Shear Modulus (GPa) = 25.28372 27.18570 26.23471
#
# Velocity S-wave (km/s) = 3.79247 3.93252 3.86313
# Velocity P-wave (km/s) = 6.87762 7.17131 7.02600
#
# Compressibility (1/GPa) = 0.02022633
#
# Stress axis : x y z
#
# Youngs Moduli (GPa) = 60.24678 61.26601 100.94365
#
# Poissons Ratio (x) = 0.25144 0.27306
# Poissons Ratio (y) = 0.24726 0.45337
# Poissons Ratio (z) = 0.16297 0.27516
#
# Static dielectric constant tensor:
#      x y z
#    x 1.598800 0.000000 -0.008740 
#    y 0.000000 1.605820 0.000000 
#    z -0.008740 0.000000 1.593010 
# 
# From -- ./inp_files/149225.got.cif
#   From: 2010.05.17/outbox.cif.g08.bks.cpg/sg15_75_cif.got.tgz:149225.got - 2010.06.03 18:47:42.
