data_PCOD9257112
_publ_section_title
;
Structure prediction by ZEFSAII (Michael W. Deem and Ramdas Pophale) SiO2 
 PCOD9257112
Probable space group: C 2/C
;
_chemical_formula_sum "Si O2"
_cell_formula_units_Z 44
_cell_length_a 7.339619
_cell_length_b 18.156682
_cell_length_c 21.402693
_cell_angle_alpha 90.000000
_cell_angle_beta 49.667956
_cell_angle_gamma 90.000000
_cell_volume 2174.242777
_symmetry_space_group_name_H-M "C 2/C"
_symmetry_group_IT_number 15
_symmetry_cell_setting 'monoclinic'
loop_
_space_group_symop_operation_xyz
x,y,z
-x,y,1/2-z
-x,-y,-z
x,-y,1/2+z
1/2+x,1/2+y,z
1/2-x,1/2+y,1/2-z
1/2-x,1/2-y,-z
1/2+x,1/2-y,1/2+z
loop_
_atom_site_type_symbol
_atom_site_label
_atom_site_fract_x
_atom_site_fract_y
_atom_site_fract_z
Si Si1 0.565901 0.457869 0.084859
Si Si2 0.978669 0.250109 0.994031
Si Si3 0.479670 0.595469 0.472440
Si Si4 0.500000 0.683671 0.750000
Si Si5 0.933818 0.606823 0.588049
Si Si6 0.722410 0.310533 0.323712
O O1 0.624144 0.430700 0.001452
O O2 0.791591 0.454429 0.080337
O O3 0.387481 0.393335 0.147157
O O4 0.472048 0.540495 0.095362
O O5 0.974188 0.182060 0.043442
O O6 0.182010 0.230892 0.898356
O O7 0.750000 0.250000 0.000000
O O8 0.985617 0.325915 0.028869
O O9 0.196718 0.585265 0.552020
O O10 0.738857 0.636388 0.680829
O O11 0.425729 0.723687 0.702005
O O12 0.000000 0.312493 0.250000
#
# Coordination Sequence:
#
# PCOD9257112 Si02
#       6
#     8   8   8   4   8   8
#     4   9  19  34  52  80 110 134 186 234 274 330
#     4  11  19  37  55  84 117 143 193 239 273 338
#     4  10  19  32  55  79 107 144 183 225 286 330
#     4  10  18  30  54  80 106 140 184 232 278 326
#     4  11  20  34  56  87 109 149 190 238 279 341
#     4  10  20  35  56  81 108 144 188 235 280 331
#
# _framework density 20.236930000000001
#
# number of rings (size 3 to 8) (size 9 to 14) (size 15 to 20)
#    0.000    1.818    5.455    3.273    0.000    0.000 
#    0.000    0.000    2.000    0.000   23.636    0.000 
#    0.000    0.000    0.000    0.000    0.000    0.000 
#
# Total GULP energy -122586.121194 kJ/mol
# GULP energy per Si atom -5572.096418 kJ/mol
# Density = 2.019087 g / cm^3
# Si number density = 20.236930 Si / 1000 Ang^3
#
#
#
# Elastic Constant Matrix: (Units=GPa)
#
#
# Indices 1 2 3 4 5 6 
#
# 1 69.6890 5.6405 4.7078 0.0000 5.5807 -0.0001
# 2 5.6405 54.7075 25.3686 0.0000 9.5315 0.0000
# 3 4.7078 25.3686 83.1456 0.0000 -8.4182 0.0000
# 4 0.0000 0.0000 0.0000 12.0195 0.0000 7.9311
# 5 5.5807 9.5315 -8.4182 0.0000 40.3271 0.0000
# 6 -0.0001 0.0000 0.0000 7.9311 0.0000 28.0600
#
#
#
# Elastic Compliance Matrix: (Units=1/GPa)
#
#
# Indices 1 2 3 4 5 6 
#
# 1 0.014627 -0.000794 -0.000789 0.000000 -0.002001 0.000000
# 2 -0.000794 0.023160 -0.007728 0.000000 -0.006977 0.000000
# 3 -0.000789 -0.007728 0.014941 0.000000 0.005055 0.000000
# 4 0.000000 0.000000 0.000000 0.102273 0.000000 -0.028907
# 5 -0.002001 -0.006977 0.005055 0.000000 0.027778 0.000000
# 6 0.000000 0.000000 0.000000 -0.028907 0.000000 0.043809
#
#
# Mechanical properties :
#
#
# Convention : Reuss Voigt Hill
#
# Bulk Modulus (GPa) = 29.31851 30.99731 30.15791
# Shear Modulus (GPa) = 19.48723 27.53634 23.51178
#
# Velocity S-wave (km/s) = 3.10652 3.69276 3.41225
# Velocity P-wave (km/s) = 5.23320 5.79072 5.51900
#
# Compressibility (1/GPa) = 0.03410815
#
# Stress axis : x y z
#
# Youngs Moduli (GPa) = 68.36560 43.17789 66.92835
#
# Poissons Ratio (x) = 0.03427 0.05278
# Poissons Ratio (y) = 0.05426 0.51721
# Poissons Ratio (z) = 0.05392 0.33367
#
# Static dielectric constant tensor:
#      x y z
#    x 1.774550 0.000000 0.023800 
#    y 0.000000 1.782380 0.000000 
#    z 0.023800 0.000000 1.770080 
# 
# From -- ./inp_files/264924.got.cif
#   From: 2010.05.17/outbox.cif.g08.bks.cpg/sg15_133_cif.got.tgz:264924.got - 2010.06.03 18:47:42.
