data_PCOD9257164
_publ_section_title
;
Structure prediction by ZEFSAII (Michael W. Deem and Ramdas Pophale) SiO2 
 PCOD9257164
Probable space group: C 2/C
;
_chemical_formula_sum "Si O2"
_cell_formula_units_Z 64
_cell_length_a 14.618464
_cell_length_b 18.746202
_cell_length_c 25.366234
_cell_angle_alpha 90.000000
_cell_angle_beta 151.341343
_cell_angle_gamma 90.000000
_cell_volume 3333.815450
_symmetry_space_group_name_H-M "C 2/C"
_symmetry_group_IT_number 15
_symmetry_cell_setting 'monoclinic'
loop_
_space_group_symop_operation_xyz
x,y,z
-x,y,1/2-z
-x,-y,-z
x,-y,1/2+z
1/2+x,1/2+y,z
1/2-x,1/2+y,1/2-z
1/2-x,1/2-y,-z
1/2+x,1/2-y,1/2+z
loop_
_atom_site_type_symbol
_atom_site_label
_atom_site_fract_x
_atom_site_fract_y
_atom_site_fract_z
Si Si1 0.686326 0.146143 0.997553
Si Si2 0.010299 0.899314 0.318309
Si Si3 0.529681 0.440716 0.702057
Si Si4 0.029779 0.784470 0.487295
Si Si5 0.194377 0.321201 0.704938
Si Si6 0.312214 0.205414 0.839387
Si Si7 0.788835 0.666508 0.033237
Si Si8 0.177655 0.291861 0.379610
O O1 0.788400 0.212464 0.079577
O O2 0.825166 0.080501 0.074849
O O3 0.479518 0.147548 0.919495
O O4 0.653482 0.161450 0.919540
O O5 0.880293 0.834389 0.271983
O O6 0.000000 0.895353 0.250000
O O7 0.212268 0.883385 0.447471
O O8 0.931728 0.977208 0.292538
O O9 0.500000 0.434544 0.750000
O O10 0.688898 0.385903 0.761472
O O11 0.907600 0.728246 0.390585
O O12 0.869217 0.814493 0.445483
O O13 0.177493 0.739742 0.597831
O O14 0.151778 0.840260 0.514812
O O15 0.334812 0.269888 0.809247
O O16 0.016137 0.343376 0.652178
O O17 0.750000 0.750000 0.000000
O O18 0.000000 0.292763 0.250000
#
# Coordination Sequence:
#
# PCOD9257164 Si02
#       8
#     8   8   8   8   8   8   8   8
#     4  10  20  34  52  86 118 152 190 238 296 352
#     4  11  23  38  58  88 120 156 189 241 295 359
#     4  11  23  38  58  85 125 156 187 236 308 363
#     4  10  19  32  55  88 113 146 191 248 287 333
#     4  11  21  36  57  85 117 156 194 242 292 347
#     4  11  21  34  61  88 117 148 202 246 286 344
#     4  10  20  37  56  82 114 149 196 241 284 336
#     4  10  18  30  56  86 116 147 195 245 289 340
#
# _framework density 19.197223000000001
#
# number of rings (size 3 to 8) (size 9 to 14) (size 15 to 20)
#    0.000    1.500    2.500    7.125    0.000    1.000 
#    0.000    3.125    0.000    3.000    0.000    0.000 
#    0.000    0.000    0.000    0.000    0.000    0.000 
#
# Total GULP energy -178485.235741 kJ/mol
# GULP energy per Si atom -5577.663617 kJ/mol
# Density = 1.915353 g / cm^3
# Si number density = 19.197223 Si / 1000 Ang^3
#
#
#
# Elastic Constant Matrix: (Units=GPa)
#
#
# Indices 1 2 3 4 5 6 
#
# 1 78.8157 16.6275 14.9893 0.0000 3.7195 0.0000
# 2 16.6275 57.7431 13.9822 0.0002 -2.8759 -0.0001
# 3 14.9893 13.9822 87.1956 -0.0001 -3.9991 -0.0005
# 4 0.0000 0.0002 -0.0001 14.7136 0.0003 1.9015
# 5 3.7195 -2.8759 -3.9991 0.0003 35.6904 -0.0001
# 6 0.0000 -0.0001 -0.0005 1.9015 -0.0001 17.2620
#
#
#
# Elastic Compliance Matrix: (Units=1/GPa)
#
#
# Indices 1 2 3 4 5 6 
#
# 1 0.013909 -0.003643 -0.001897 0.000000 -0.001956 0.000000
# 2 -0.003643 0.019018 -0.002348 0.000000 0.001649 0.000000
# 3 -0.001897 -0.002348 0.012234 0.000000 0.001379 0.000000
# 4 0.000000 0.000000 0.000000 0.068946 -0.000001 -0.007595
# 5 -0.001956 0.001649 0.001379 -0.000001 0.028510 0.000000
# 6 0.000000 0.000000 0.000000 -0.007595 0.000000 0.058767
#
#
# Mechanical properties :
#
#
# Convention : Reuss Voigt Hill
#
# Bulk Modulus (GPa) = 34.02959 34.99472 34.51215
# Shear Modulus (GPa) = 22.03078 25.41023 23.72050
#
# Velocity S-wave (km/s) = 3.39130 3.64213 3.51895
# Velocity P-wave (km/s) = 5.75321 5.99629 5.87600
#
# Compressibility (1/GPa) = 0.02938619
#
# Stress axis : x y z
#
# Youngs Moduli (GPa) = 71.89343 52.58214 81.73804
#
# Poissons Ratio (x) = 0.19158 0.15502
# Poissons Ratio (y) = 0.26194 0.19189
# Poissons Ratio (z) = 0.13635 0.12344
#
# Static dielectric constant tensor:
#      x y z
#    x 1.760910 0.000000 0.013510 
#    y 0.000000 1.654080 0.000000 
#    z 0.013510 0.000000 1.693360 
# 
# From -- ./inp_files/274866.got.cif
#   From: 2010.05.17/outbox.cif.g08.bks.cpg/sg15_138_cif.got.tgz:274866.got - 2010.06.03 18:47:42.
