data_PCOD9257825
_publ_section_title
;
Structure prediction by ZEFSAII (Michael W. Deem and Ramdas Pophale) SiO2 
 PCOD9257825
Probable space group: C 2/C
;
_chemical_formula_sum "Si O2"
_cell_formula_units_Z 52
_cell_length_a 27.989102
_cell_length_b 17.165519
_cell_length_c 14.598274
_cell_angle_alpha 90.000000
_cell_angle_beta 160.895862
_cell_angle_gamma 90.000000
_cell_volume 2295.488037
_symmetry_space_group_name_H-M "C 2/C"
_symmetry_group_IT_number 15
_symmetry_cell_setting 'monoclinic'
loop_
_space_group_symop_operation_xyz
x,y,z
-x,y,1/2-z
-x,-y,-z
x,-y,1/2+z
1/2+x,1/2+y,z
1/2-x,1/2+y,1/2-z
1/2-x,1/2-y,-z
1/2+x,1/2-y,1/2+z
loop_
_atom_site_type_symbol
_atom_site_label
_atom_site_fract_x
_atom_site_fract_y
_atom_site_fract_z
Si Si1 0.939624 0.908344 0.966913
Si Si2 0.576653 0.730701 0.189056
Si Si3 0.330416 0.033634 0.626221
Si Si4 0.401174 0.873301 0.831639
Si Si5 0.372481 0.471204 0.583541
Si Si6 0.274006 0.373550 0.822129
Si Si7 0.500000 0.784369 0.250000
O O1 0.970999 0.851700 0.939550
O O2 0.783491 0.945028 0.657489
O O3 0.911391 0.856248 0.006311
O O4 0.045841 0.976961 0.190054
O O5 0.750000 0.750000 0.500000
O O6 0.530466 0.737689 0.211554
O O7 0.491271 0.796090 0.975269
O O8 0.356435 0.940748 0.680299
O O9 0.256728 0.064938 0.589092
O O10 0.483961 0.077784 0.896315
O O11 0.260927 0.847564 0.637164
O O12 0.500000 0.434824 0.750000
O O13 0.293467 0.533851 0.374573
O O14 0.139454 0.337405 0.523752
#
# Coordination Sequence:
#
# PCOD9257825 Si02
#       7
#     8   8   8   8   8   8   4
#     4  11  19  33  57  81 110 145 189 227 279 340
#     4  11  19  34  55  86 107 145 186 233 280 334
#     4  10  18  33  52  77 108 138 182 227 272 327
#     4   9  19  33  54  79 105 141 183 234 274 319
#     4   9  20  34  52  80 107 149 184 223 272 338
#     4   9  17  33  54  80 100 139 193 228 261 330
#     4  10  18  32  54  80 112 136 186 234 280 328
#
# _framework density 22.653134000000001
#
# number of rings (size 3 to 8) (size 9 to 14) (size 15 to 20)
#    0.000    2.154    3.077    1.385    0.000    0.000 
#    1.385    6.923    0.000    1.846   44.000    0.000 
#    0.000    0.000    0.000    0.000    0.000    0.000 
#
# Total GULP energy -144763.553734 kJ/mol
# GULP energy per Si atom -5567.828990 kJ/mol
# Density = 2.260157 g / cm^3
# Si number density = 22.653134 Si / 1000 Ang^3
#
#
#
# Elastic Constant Matrix: (Units=GPa)
#
#
# Indices 1 2 3 4 5 6 
#
# 1 121.2256 24.1606 24.2152 0.0000 6.8616 0.0000
# 2 24.1606 88.0527 28.7982 0.0000 -10.0969 0.0000
# 3 24.2152 28.7982 77.4293 0.0000 -5.3831 0.0000
# 4 0.0000 0.0000 0.0000 25.5205 0.0000 -3.7775
# 5 6.8616 -10.0969 -5.3831 0.0000 46.0471 0.0000
# 6 0.0000 0.0000 0.0000 -3.7775 0.0000 35.1778
#
#
#
# Elastic Compliance Matrix: (Units=1/GPa)
#
#
# Indices 1 2 3 4 5 6 
#
# 1 0.009226 -0.002026 -0.002277 0.000000 -0.002085 0.000000
# 2 -0.002026 0.013619 -0.004238 0.000000 0.002793 0.000000
# 3 -0.002277 -0.004238 0.015286 0.000000 0.001197 0.000000
# 4 0.000000 0.000000 0.000000 0.039817 0.000000 0.004276
# 5 -0.002085 0.002793 0.001197 0.000000 0.022780 0.000000
# 6 0.000000 0.000000 0.000000 0.004276 0.000000 0.028886
#
#
# Mechanical properties :
#
#
# Convention : Reuss Voigt Hill
#
# Bulk Modulus (GPa) = 47.50460 49.00618 48.25539
# Shear Modulus (GPa) = 32.52857 35.31799 33.92328
#
# Velocity S-wave (km/s) = 3.79349 3.95280 3.87396
# Velocity P-wave (km/s) = 6.34062 6.52021 6.43104
#
# Compressibility (1/GPa) = 0.02105059
#
# Stress axis : x y z
#
# Youngs Moduli (GPa) = 108.39343 73.42752 65.41808
#
# Poissons Ratio (x) = 0.14876 0.14894
# Poissons Ratio (y) = 0.21959 0.27721
# Poissons Ratio (z) = 0.24678 0.31115
#
# Static dielectric constant tensor:
#      x y z
#    x 1.930210 0.000000 0.008390 
#    y 0.000000 1.881190 0.000000 
#    z 0.008390 0.000000 1.919300 
# 
# From -- ./inp_files/182887.got.cif
#   From: 2010.05.17/outbox.cif.g08.bks.cpg/sg15_92_cif.got.tgz:182887.got - 2010.06.03 18:47:42.
