data_PCOD9257910
_publ_section_title
;
Structure prediction by ZEFSAII (Michael W. Deem and Ramdas Pophale) SiO2 
 PCOD9257910
Probable space group: C 2/C
;
_chemical_formula_sum "Si O2"
_cell_formula_units_Z 48
_cell_length_a 25.066899
_cell_length_b 7.190999
_cell_length_c 9.424587
_cell_angle_alpha 90.000000
_cell_angle_beta 94.308758
_cell_angle_gamma 90.000000
_cell_volume 1694.037290
_symmetry_space_group_name_H-M "C 2/C"
_symmetry_group_IT_number 15
_symmetry_cell_setting 'monoclinic'
loop_
_space_group_symop_operation_xyz
x,y,z
-x,y,1/2-z
-x,-y,-z
x,-y,1/2+z
1/2+x,1/2+y,z
1/2-x,1/2+y,1/2-z
1/2-x,1/2-y,-z
1/2+x,1/2-y,1/2+z
loop_
_atom_site_type_symbol
_atom_site_label
_atom_site_fract_x
_atom_site_fract_y
_atom_site_fract_z
Si Si1 0.127296 0.671646 0.106603
Si Si2 0.446383 0.731604 0.155379
Si Si3 0.756214 0.301718 0.752858
Si Si4 0.451055 0.165049 0.155152
Si Si5 0.279440 0.519961 0.515485
Si Si6 0.382470 0.266544 0.920597
O O1 0.187734 0.729303 0.154041
O O2 0.099634 0.671516 0.253635
O O3 0.088139 0.792779 0.997947
O O4 0.129374 0.454816 0.059824
O O5 0.500000 0.659115 0.250000
O O6 0.399566 0.706004 0.262890
O O7 0.462636 0.948743 0.129361
O O8 0.715452 0.347503 0.873380
O O9 0.755684 0.475457 0.636144
O O10 0.749899 0.150540 0.626710
O O11 0.500000 0.243028 0.250000
O O12 0.437435 0.287207 0.018498
O O13 0.335183 0.609875 0.474338
#
# Coordination Sequence:
#
# PCOD9257910 Si02
#       6
#     8   8   8   8   8   8
#     4  10  18  32  55  86 126 173 199 253 322 369
#     4   9  18  30  53  89 131 166 200 254 321 379
#     4  11  24  43  65  91 130 165 219 257 316 373
#     4   9  16  28  51  85 125 162 202 251 320 381
#     4  11  25  45  63  93 123 173 212 266 314 374
#     4  10  19  35  56  85 127 162 206 258 309 378
#
# _framework density 28.334679999999999
#
# number of rings (size 3 to 8) (size 9 to 14) (size 15 to 20)
#    0.000    2.000    1.667    3.000    4.667    4.667 
#    3.000    0.000    0.000    0.000    0.000    3.500 
#    0.000    1.333    0.000    0.000    0.000    0.000 
#
# Total GULP energy -133962.087267 kJ/mol
# GULP energy per Si atom -5581.753636 kJ/mol
# Density = 2.827019 g / cm^3
# Si number density = 28.334680 Si / 1000 Ang^3
#
#
#
# Elastic Constant Matrix: (Units=GPa)
#
#
# Indices 1 2 3 4 5 6 
#
# 1 128.3645 10.8173 30.4666 0.0000 23.1423 0.0000
# 2 10.8173 80.4095 0.3979 0.0000 -5.0239 0.0000
# 3 30.4666 0.3979 217.3470 0.0000 -0.4144 0.0000
# 4 0.0000 0.0000 0.0000 9.4964 0.0000 -3.1583
# 5 23.1423 -5.0239 -0.4144 0.0000 66.0262 0.0000
# 6 0.0000 0.0000 0.0000 -3.1583 0.0000 27.0928
#
#
#
# Elastic Compliance Matrix: (Units=1/GPa)
#
#
# Indices 1 2 3 4 5 6 
#
# 1 0.008773 -0.001373 -0.001233 0.000000 -0.003187 0.000000
# 2 -0.001373 0.012711 0.000172 0.000000 0.001450 0.000000
# 3 -0.001233 0.000172 0.004774 0.000000 0.000475 0.000000
# 4 0.000000 0.000000 0.000000 0.109551 0.000000 0.012771
# 5 -0.003187 0.001450 0.000475 0.000000 0.016376 0.000000
# 6 0.000000 0.000000 0.000000 0.012771 0.000000 0.038399
#
#
# Mechanical properties :
#
#
# Convention : Reuss Voigt Hill
#
# Bulk Modulus (GPa) = 46.75240 56.60939 51.68089
# Shear Modulus (GPa) = 24.68121 46.15236 35.41679
#
# Velocity S-wave (km/s) = 2.95457 4.04025 3.53929
# Velocity P-wave (km/s) = 5.30803 6.46429 5.91449
#
# Compressibility (1/GPa) = 0.02138928
#
# Stress axis : x y z
#
# Youngs Moduli (GPa) = 113.98077 78.67322 209.44963
#
# Poissons Ratio (x) = 0.10804 0.25833
# Poissons Ratio (y) = 0.15653 -0.03603
# Poissons Ratio (z) = 0.14058 -0.01353
#
# Static dielectric constant tensor:
#      x y z
#    x 2.227900 0.000000 -0.001510 
#    y 0.000000 2.660740 0.000000 
#    z -0.001510 0.000000 2.306190 
# 
# From -- ./inp_files/60623.got.cif
#   From: 2010.05.17/outbox.cif.g08.bks.cpg/sg15_31_cif.got.tgz:60623.got - 2010.06.03 18:47:42.
