data_PCOD9257655
_publ_section_title
;
Structure prediction by ZEFSAII (Michael W. Deem and Ramdas Pophale) SiO2 
 PCOD9257655
Probable space group: C 2/C
;
_chemical_formula_sum "Si O2"
_cell_formula_units_Z 60
_cell_length_a 21.472396
_cell_length_b 20.292024
_cell_length_c 12.611431
_cell_angle_alpha 90.000000
_cell_angle_beta 28.802854
_cell_angle_gamma 90.000000
_cell_volume 2647.491819
_symmetry_space_group_name_H-M "C 2/C"
_symmetry_group_IT_number 15
_symmetry_cell_setting 'monoclinic'
loop_
_space_group_symop_operation_xyz
x,y,z
-x,y,1/2-z
-x,-y,-z
x,-y,1/2+z
1/2+x,1/2+y,z
1/2-x,1/2+y,1/2-z
1/2-x,1/2-y,-z
1/2+x,1/2-y,1/2+z
loop_
_atom_site_type_symbol
_atom_site_label
_atom_site_fract_x
_atom_site_fract_y
_atom_site_fract_z
Si Si1 0.179917 0.222142 0.708312
Si Si2 0.500000 0.994073 0.250000
Si Si3 0.035967 0.604525 0.354721
Si Si4 0.719842 0.055969 0.663537
Si Si5 0.193731 0.418720 0.799175
Si Si6 0.139097 0.917061 0.340224
Si Si7 0.931568 0.744396 0.457197
Si Si8 0.157767 0.931629 0.737733
O O1 0.250000 0.250000 0.500000
O O2 0.191232 0.142452 0.692456
O O3 0.275621 0.245279 0.664193
O O4 0.023478 0.233265 0.920934
O O5 0.573654 0.047040 0.215906
O O6 0.409669 0.949938 0.461241
O O7 0.137058 0.627400 0.293209
O O8 0.927522 0.569075 0.588410
O O9 0.967904 0.666575 0.404741
O O10 0.801830 0.091659 0.631531
O O11 0.753233 0.077930 0.496694
O O12 0.746108 0.979442 0.650242
O O13 0.301445 0.392413 0.717690
O O14 0.985892 0.913817 0.578295
O O15 0.164209 0.990872 0.260175
O O16 0.000000 0.774572 0.250000
#
# Coordination Sequence:
#
# PCOD9257655 Si02
#       8
#     8   4   8   8   8   8   8   8
#     4  10  22  40  62  89 119 158 205 261 316 364
#     4  10  18  32  50  82 130 160 202 244 304 372
#     4  11  19  32  55  83 118 160 197 250 308 363
#     4  10  19  33  55  83 118 161 204 236 300 370
#     4  10  20  29  49  87 124 162 201 245 297 367
#     4  10  21  39  59  85 124 163 200 246 311 377
#     4  10  21  38  60  87 117 154 200 252 317 361
#     4  10  21  36  57  89 127 163 197 241 304 386
#
# _framework density 22.662960000000002
#
# number of rings (size 3 to 8) (size 9 to 14) (size 15 to 20)
#    0.000    1.867    2.000    3.600    0.000    3.200 
#    0.000   10.667    0.000    0.800    6.933    0.000 
#    0.000    0.000    0.000    0.000    0.000    0.000 
#
# Total GULP energy -167143.643356 kJ/mol
# GULP energy per Si atom -5571.454779 kJ/mol
# Density = 2.261138 g / cm^3
# Si number density = 22.662960 Si / 1000 Ang^3
#
#
#
# Elastic Constant Matrix: (Units=GPa)
#
#
# Indices 1 2 3 4 5 6 
#
# 1 178.7621 24.0398 31.5238 -0.0001 -16.4460 0.0000
# 2 24.0398 49.6865 -1.6346 0.0002 -3.4727 -0.0001
# 3 31.5238 -1.6346 45.4635 0.0003 -6.2529 -0.0001
# 4 -0.0001 0.0002 0.0003 16.1255 0.0000 -3.0248
# 5 -16.4460 -3.4727 -6.2529 0.0000 40.5703 0.0001
# 6 0.0000 -0.0001 -0.0001 -3.0248 0.0001 38.4796
#
#
#
# Elastic Compliance Matrix: (Units=1/GPa)
#
#
# Indices 1 2 3 4 5 6 
#
# 1 0.007068 -0.003449 -0.004773 0.000000 0.001834 0.000000
# 2 -0.003449 0.021973 0.003318 0.000000 0.000994 0.000000
# 3 -0.004773 0.003318 0.025743 -0.000001 0.002317 0.000000
# 4 0.000000 0.000000 -0.000001 0.062942 0.000000 0.004948
# 5 0.001834 0.000994 0.002317 0.000000 0.025834 0.000000
# 6 0.000000 0.000000 0.000000 0.004948 0.000000 0.026377
#
#
# Mechanical properties :
#
#
# Convention : Reuss Voigt Hill
#
# Bulk Modulus (GPa) = 22.23311 42.41890 32.32600
# Shear Modulus (GPa) = 25.67573 33.70063 29.68818
#
# Velocity S-wave (km/s) = 3.36957 3.86039 3.62330
# Velocity P-wave (km/s) = 4.99703 6.21515 5.63908
#
# Compressibility (1/GPa) = 0.04497796
#
# Stress axis : x y z
#
# Youngs Moduli (GPa) = 141.47865 45.50961 38.84564
#
# Poissons Ratio (x) = 0.15695 0.18540
# Poissons Ratio (y) = 0.48791 -0.12889
# Poissons Ratio (z) = 0.67523 -0.15100
#
# Static dielectric constant tensor:
#      x y z
#    x 1.961430 0.000000 -0.081410 
#    y 0.000000 1.866410 0.000000 
#    z -0.081410 0.000000 1.840510 
# 
# From -- ./inp_files/114817.got.cif
#   From: 2010.05.17/outbox.cif.g08.bks.cpg/sg15_58_cif.got.tgz:114817.got - 2010.06.03 18:47:42.
