data_PCOD9257116
_publ_section_title
;
Structure prediction by ZEFSAII (Michael W. Deem and Ramdas Pophale) SiO2 
 PCOD9257116
Probable space group: C 2/C
;
_chemical_formula_sum "Si O2"
_cell_formula_units_Z 52
_cell_length_a 9.953178
_cell_length_b 20.299680
_cell_length_c 14.169139
_cell_angle_alpha 90.000000
_cell_angle_beta 97.866925
_cell_angle_gamma 90.000000
_cell_volume 2835.879459
_symmetry_space_group_name_H-M "C 2/C"
_symmetry_group_IT_number 15
_symmetry_cell_setting 'monoclinic'
loop_
_space_group_symop_operation_xyz
x,y,z
-x,y,1/2-z
-x,-y,-z
x,-y,1/2+z
1/2+x,1/2+y,z
1/2-x,1/2+y,1/2-z
1/2-x,1/2-y,-z
1/2+x,1/2-y,1/2+z
loop_
_atom_site_type_symbol
_atom_site_label
_atom_site_fract_x
_atom_site_fract_y
_atom_site_fract_z
Si Si1 0.881854 0.645185 0.378578
Si Si2 0.282918 0.814023 0.381660
Si Si3 0.473923 0.733665 0.537031
Si Si4 0.657422 0.274229 0.788585
Si Si5 0.749562 0.662841 0.564473
Si Si6 0.500000 0.955329 0.750000
Si Si7 0.346678 0.916166 0.244931
O O1 0.742475 0.659184 0.309200
O O2 0.833603 0.637244 0.482488
O O3 0.972792 0.590023 0.338247
O O4 0.963045 0.714112 0.383466
O O5 0.405502 0.781724 0.452821
O O6 0.148924 0.806981 0.430394
O O7 0.276509 0.767730 0.289251
O O8 0.300856 0.887103 0.340873
O O9 0.596796 0.684475 0.523759
O O10 0.500000 0.283905 0.750000
O O11 0.681788 0.228564 0.883529
O O12 0.757633 0.611048 0.650693
O O13 0.626154 0.006427 0.763530
O O14 0.500000 0.886251 0.250000
#
# Coordination Sequence:
#
# PCOD9257116 Si02
#       7
#     8   8   8   8   8   4   8
#     4  11  20  35  55  83 110 136 182 233 261 328
#     4  10  18  33  53  81 122 136 172 221 275 335
#     4  10  20  31  56  94 109 138 170 226 292 320
#     4  10  18  30  54  83 114 142 165 221 291 330
#     4  10  19  33  56  84 111 137 180 220 280 327
#     4  10  24  38  54  74 106 148 202 214 264 308
#     4   9  20  37  53  74 106 152 186 212 260 322
#
# _framework density 18.336462000000001
#
# number of rings (size 3 to 8) (size 9 to 14) (size 15 to 20)
#    0.462    1.538    0.000    7.385    0.000    5.538 
#    0.000    0.000    3.385    0.923    0.000    0.000 
#    0.000    0.000    0.000    0.000    0.000    0.000 
#
# Total GULP energy -144767.151600 kJ/mol
# GULP energy per Si atom -5567.967369 kJ/mol
# Density = 1.829473 g / cm^3
# Si number density = 18.336462 Si / 1000 Ang^3
#
#
#
# Elastic Constant Matrix: (Units=GPa)
#
#
# Indices 1 2 3 4 5 6 
#
# 1 90.1864 27.0534 45.0473 0.0000 -8.7393 0.0000
# 2 27.0534 80.4551 29.0142 0.0000 -14.1897 0.0000
# 3 45.0473 29.0142 76.6997 0.0000 -4.3652 0.0000
# 4 0.0000 0.0000 0.0000 17.5920 0.0000 -9.4355
# 5 -8.7393 -14.1897 -4.3652 0.0000 24.6041 0.0000
# 6 0.0000 0.0000 0.0000 -9.4355 0.0000 28.3612
#
#
#
# Elastic Compliance Matrix: (Units=1/GPa)
#
#
# Indices 1 2 3 4 5 6 
#
# 1 0.016281 -0.001765 -0.008711 0.000000 0.003219 0.000000
# 2 -0.001765 0.016058 -0.004593 0.000000 0.007819 0.000000
# 3 -0.008711 -0.004593 0.019764 0.000000 -0.002236 0.000000
# 4 0.000000 0.000000 0.000000 0.069190 0.000000 0.023019
# 5 0.003219 0.007819 -0.002236 0.000000 0.045900 0.000000
# 6 0.000000 0.000000 0.000000 0.023019 0.000000 0.042918
#
#
# Mechanical properties :
#
#
# Convention : Reuss Voigt Hill
#
# Bulk Modulus (GPa) = 45.52708 49.95234 47.73971
# Shear Modulus (GPa) = 20.19627 23.85989 22.02808
#
# Velocity S-wave (km/s) = 3.32238 3.61117 3.46978
# Velocity P-wave (km/s) = 6.29287 6.68495 6.49187
#
# Compressibility (1/GPa) = 0.02196495
#
# Stress axis : x y z
#
# Youngs Moduli (GPa) = 61.42244 62.27346 50.59675
#
# Poissons Ratio (x) = 0.10993 0.44075
# Poissons Ratio (y) = 0.10843 0.23238
# Poissons Ratio (z) = 0.53505 0.28601
#
# Static dielectric constant tensor:
#      x y z
#    x 1.669210 0.000000 -0.002630 
#    y 0.000000 1.635600 0.000000 
#    z -0.002630 0.000000 1.696300 
# 
# From -- ./inp_files/136121.got.cif
#   From: 2010.05.17/outbox.cif.g08.bks.cpg/sg15_69_cif.got.tgz:136121.got - 2010.06.03 18:47:42.
