data_PCOD9257714
_publ_section_title
;
Structure prediction by ZEFSAII (Michael W. Deem and Ramdas Pophale) SiO2 
 PCOD9257714
Probable space group: C 2/C
;
_chemical_formula_sum "Si O2"
_cell_formula_units_Z 56
_cell_length_a 17.038476
_cell_length_b 26.051312
_cell_length_c 7.532609
_cell_angle_alpha 90.000000
_cell_angle_beta 66.684303
_cell_angle_gamma 90.000000
_cell_volume 3070.494463
_symmetry_space_group_name_H-M "C 2/C"
_symmetry_group_IT_number 15
_symmetry_cell_setting 'monoclinic'
loop_
_space_group_symop_operation_xyz
x,y,z
-x,y,1/2-z
-x,-y,-z
x,-y,1/2+z
1/2+x,1/2+y,z
1/2-x,1/2+y,1/2-z
1/2-x,1/2-y,-z
1/2+x,1/2-y,1/2+z
loop_
_atom_site_type_symbol
_atom_site_label
_atom_site_fract_x
_atom_site_fract_y
_atom_site_fract_z
Si Si1 0.741337 0.690272 0.547326
Si Si2 0.668444 0.387215 0.824991
Si Si3 0.357606 0.065684 0.756289
Si Si4 0.841406 0.447237 0.677122
Si Si5 0.675674 0.620651 0.899257
Si Si6 0.505918 0.560433 0.032886
Si Si7 0.585725 0.870634 0.596406
O O1 0.750000 0.750000 0.500000
O O2 0.698645 0.659073 0.422715
O O3 0.690227 0.671599 0.768923
O O4 0.837261 0.668983 0.482533
O O5 0.740977 0.431614 0.774967
O O6 0.665159 0.370723 0.620337
O O7 0.577317 0.410081 0.964085
O O8 0.262471 0.087554 0.801311
O O9 0.421266 0.100531 0.585175
O O10 0.357806 0.006910 0.694722
O O11 0.371625 0.067718 0.953518
O O12 0.886938 0.414550 0.788076
O O13 0.594976 0.587559 0.903153
O O14 0.500000 0.565176 0.250000
O O15 0.500000 0.500000 0.000000
O O16 0.500000 0.846824 0.750000
#
# Coordination Sequence:
#
# PCOD9257714 Si02
#       7
#     8   8   8   8   8   8   8
#     4  10  22  41  62  80  99 148 194 238 290 323
#     4   9  20  35  54  81 117 146 188 229 271 340
#     4  10  18  32  52  77 109 153 179 210 265 325
#     4  10  18  32  52  77 109 153 179 210 265 325
#     4   9  20  35  54  81 117 146 188 229 271 340
#     4  10  20  32  52  88 126 160 182 225 281 343
#     4  10  22  38  53  77 112 134 181 234 266 328
#
# _framework density 18.238105000000001
#
# number of rings (size 3 to 8) (size 9 to 14) (size 15 to 20)
#    0.000    2.286    1.429    0.857    2.000    1.714 
#    2.571    0.000    0.000    0.000    0.000    0.000 
#    0.000    0.000    0.000    0.000    0.000    0.000 
#
# Total GULP energy -156229.594715 kJ/mol
# GULP energy per Si atom -5579.628383 kJ/mol
# Density = 1.819659 g / cm^3
# Si number density = 18.238105 Si / 1000 Ang^3
#
#
#
# Elastic Constant Matrix: (Units=GPa)
#
#
# Indices 1 2 3 4 5 6 
#
# 1 38.9318 0.7927 8.9179 0.0000 -8.6544 0.0000
# 2 0.7927 93.9278 7.3125 0.0000 -3.5139 0.0000
# 3 8.9179 7.3125 60.4365 0.0000 -4.7381 0.0000
# 4 0.0000 0.0000 0.0000 20.8317 0.0000 -0.4655
# 5 -8.6544 -3.5139 -4.7381 0.0000 27.9694 0.0000
# 6 0.0000 0.0000 0.0000 -0.4655 0.0000 5.7746
#
#
#
# Elastic Compliance Matrix: (Units=1/GPa)
#
#
# Indices 1 2 3 4 5 6 
#
# 1 0.028321 0.000346 -0.003578 0.000000 0.008201 0.000000
# 2 0.000346 0.010788 -0.001258 0.000000 0.001249 0.000000
# 3 -0.003578 -0.001258 0.017358 0.000000 0.001675 0.000000
# 4 0.000000 0.000000 0.000000 0.048090 0.000000 0.003877
# 5 0.008201 0.001249 0.001675 0.000000 0.038732 0.000000
# 6 0.000000 0.000000 0.000000 0.003877 0.000000 0.173486
#
#
# Mechanical properties :
#
#
# Convention : Reuss Voigt Hill
#
# Bulk Modulus (GPa) = 21.05829 25.26025 23.15927
# Shear Modulus (GPa) = 14.63765 22.66668 18.65216
#
# Velocity S-wave (km/s) = 2.83607 3.52919 3.20144
# Velocity P-wave (km/s) = 4.72184 5.52152 5.13727
#
# Compressibility (1/GPa) = 0.04748723
#
# Stress axis : x y z
#
# Youngs Moduli (GPa) = 35.30890 92.69331 57.61077
#
# Poissons Ratio (x) = -0.03210 0.20613
# Poissons Ratio (y) = -0.01223 0.07250
# Poissons Ratio (z) = 0.12634 0.11665
#
# Static dielectric constant tensor:
#      x y z
#    x 1.648450 0.000000 -0.007980 
#    y 0.000000 1.569690 0.000000 
#    z -0.007980 0.000000 1.658210 
# 
# From -- ./inp_files/51166.got.cif
#   From: 2010.05.17/outbox.cif.g08.bks.cpg/sg15_26_cif.got.tgz:51166.got - 2010.06.03 18:47:42.
