data_PCOD9257704
_publ_section_title
;
Structure prediction by ZEFSAII (Michael W. Deem and Ramdas Pophale) SiO2 
 PCOD9257704
Probable space group: C 2/C
;
_chemical_formula_sum "Si O2"
_cell_formula_units_Z 56
_cell_length_a 26.408041
_cell_length_b 11.683368
_cell_length_c 13.853909
_cell_angle_alpha 90.000000
_cell_angle_beta 140.813788
_cell_angle_gamma 90.000000
_cell_volume 2700.757628
_symmetry_space_group_name_H-M "C 2/C"
_symmetry_group_IT_number 15
_symmetry_cell_setting 'monoclinic'
loop_
_space_group_symop_operation_xyz
x,y,z
-x,y,1/2-z
-x,-y,-z
x,-y,1/2+z
1/2+x,1/2+y,z
1/2-x,1/2+y,1/2-z
1/2-x,1/2-y,-z
1/2+x,1/2-y,1/2+z
loop_
_atom_site_type_symbol
_atom_site_label
_atom_site_fract_x
_atom_site_fract_y
_atom_site_fract_z
Si Si1 0.115598 0.920447 0.403401
Si Si2 0.310764 0.643245 0.172460
Si Si3 0.383200 0.541696 0.908659
Si Si4 0.277137 0.835645 0.271806
Si Si5 0.465306 0.352584 0.798714
Si Si6 0.792325 0.513113 0.627165
Si Si7 0.330109 0.803415 0.569551
O O1 0.104344 0.797759 0.338085
O O2 0.097334 0.936936 0.489370
O O3 0.069348 0.025116 0.287704
O O4 0.210096 0.947935 0.534781
O O5 0.343969 0.520433 0.260033
O O6 0.280948 0.717613 0.218255
O O7 0.387787 0.701246 0.234625
O O8 0.240752 0.611301 0.994237
O O9 0.314542 0.621786 0.853073
O O10 0.462894 0.617963 0.021511
O O11 0.321261 0.927646 0.267896
O O12 0.311318 0.828494 0.429639
O O13 0.500000 0.299358 0.750000
O O14 0.845995 0.419928 0.651604
O O15 0.250000 0.750000 0.500000
#
# Coordination Sequence:
#
# PCOD9257704 Si02
#       7
#     8   8   8   8   8   8   8
#     4   8  16  31  49  74 108 143 182 228 273 330
#     4  11  19  33  52  80 118 149 187 232 289 341
#     4  10  18  32  52  82 114 145 181 236 284 334
#     4  11  21  33  54  82 118 147 188 238 285 344
#     4   9  19  33  52  79 117 150 187 234 288 340
#     4   9  19  30  47  76 109 142 180 229 283 326
#     4  10  18  32  52  75 110 148 187 232 280 332
#
# _framework density 20.734922000000001
#
# number of rings (size 3 to 8) (size 9 to 14) (size 15 to 20)
#    0.000    2.286    2.857    1.714    0.000    0.000 
#    0.000    0.000    0.000    0.000    0.000   13.000 
#    0.000    0.000    0.000    0.000    0.000    0.000 
#
# Total GULP energy -155979.277684 kJ/mol
# GULP energy per Si atom -5570.688489 kJ/mol
# Density = 2.068773 g / cm^3
# Si number density = 20.734922 Si / 1000 Ang^3
#
#
#
# Elastic Constant Matrix: (Units=GPa)
#
#
# Indices 1 2 3 4 5 6 
#
# 1 84.1747 20.8934 18.2992 0.0000 -18.4352 0.0000
# 2 20.8934 38.4525 4.8860 0.0000 -9.8428 0.0000
# 3 18.2992 4.8860 40.8389 0.0000 -16.7209 0.0000
# 4 0.0000 0.0000 0.0000 21.3490 0.0000 -8.2650
# 5 -18.4352 -9.8428 -16.7209 0.0000 33.7572 0.0000
# 6 0.0000 0.0000 0.0000 -8.2650 0.0000 33.4695
#
#
#
# Elastic Compliance Matrix: (Units=1/GPa)
#
#
# Indices 1 2 3 4 5 6 
#
# 1 0.015442 -0.006733 -0.004346 0.000000 0.004317 0.000000
# 2 -0.006733 0.031039 0.001886 0.000000 0.006307 0.000000
# 3 -0.004346 0.001886 0.031939 0.000000 0.013997 0.000000
# 4 0.000000 0.000000 0.000000 0.051792 0.000000 0.012789
# 5 0.004317 0.006307 0.013997 0.000000 0.040753 0.000000
# 6 0.000000 0.000000 0.000000 0.012789 0.000000 0.033036
#
#
# Mechanical properties :
#
#
# Convention : Reuss Voigt Hill
#
# Bulk Modulus (GPa) = 16.65736 27.95814 22.30775
# Shear Modulus (GPa) = 20.62720 25.67431 23.15075
#
# Velocity S-wave (km/s) = 3.15747 3.52265 3.34505
# Velocity P-wave (km/s) = 4.61993 5.48254 5.06962
#
# Compressibility (1/GPa) = 0.06003353
#
# Stress axis : x y z
#
# Youngs Moduli (GPa) = 64.76036 32.21709 31.30974
#
# Poissons Ratio (x) = 0.21692 0.13607
# Poissons Ratio (y) = 0.43603 -0.05905
# Poissons Ratio (z) = 0.28145 -0.06076
#
# Static dielectric constant tensor:
#      x y z
#    x 1.822180 0.000000 -0.035600 
#    y 0.000000 1.809720 0.000000 
#    z -0.035600 0.000000 1.785910 
# 
# From -- ./inp_files/181576.got.cif
#   From: 2010.05.17/outbox.cif.g08.bks.cpg/sg15_91_cif.got.tgz:181576.got - 2010.06.03 18:47:42.
