data_PCOD9257456
_publ_section_title
;
Structure prediction by ZEFSAII (Michael W. Deem and Ramdas Pophale) SiO2 
 PCOD9257456
Probable space group: C 2/C
;
_chemical_formula_sum "Si O2"
_cell_formula_units_Z 56
_cell_length_a 11.045630
_cell_length_b 14.060660
_cell_length_c 25.644455
_cell_angle_alpha 90.000000
_cell_angle_beta 138.458378
_cell_angle_gamma 90.000000
_cell_volume 2641.256498
_symmetry_space_group_name_H-M "C 2/C"
_symmetry_group_IT_number 15
_symmetry_cell_setting 'monoclinic'
loop_
_space_group_symop_operation_xyz
x,y,z
-x,y,1/2-z
-x,-y,-z
x,-y,1/2+z
1/2+x,1/2+y,z
1/2-x,1/2+y,1/2-z
1/2-x,1/2-y,-z
1/2+x,1/2-y,1/2+z
loop_
_atom_site_type_symbol
_atom_site_label
_atom_site_fract_x
_atom_site_fract_y
_atom_site_fract_z
Si Si1 0.695672 0.352630 0.735257
Si Si2 0.248192 0.988321 0.969987
Si Si3 0.515532 0.446942 0.196155
Si Si4 0.088140 0.116864 0.082649
Si Si5 0.069429 0.547509 0.370188
Si Si6 0.573720 0.802131 0.468445
Si Si7 0.385614 0.147323 0.799564
O O1 0.584091 0.443495 0.719792
O O2 0.674933 0.355204 0.666080
O O3 0.608706 0.251910 0.723956
O O4 0.907698 0.375515 0.813693
O O5 0.162654 0.052085 0.897177
O O6 0.081887 0.948929 0.953630
O O7 0.386189 0.035885 0.054457
O O8 0.347291 0.894956 0.978281
O O9 0.500000 0.412718 0.250000
O O10 0.678726 0.386214 0.224859
O O11 0.021510 0.214415 0.033808
O O12 0.244331 0.071679 0.098779
O O13 0.002669 0.446426 0.324065
O O14 0.750000 0.750000 0.500000
O O15 0.446076 0.837206 0.379615
#
# Coordination Sequence:
#
# PCOD9257456 Si02
#       7
#     8   8   8   8   8   8   8
#     4   9  19  36  54  79 108 139 182 225 263 324
#     4   9  18  33  50  76 112 142 178 226 269 318
#     4  10  21  38  56  75 104 147 187 221 268 325
#     4   9  16  29  54  82 108 139 176 219 271 326
#     4  10  18  31  54  84 112 140 176 226 274 318
#     4   8  15  30  53  78 105 140 177 214 261 321
#     4   9  19  35  55  78 108 143 179 217 267 328
#
# _framework density 21.202030000000001
#
# number of rings (size 3 to 8) (size 9 to 14) (size 15 to 20)
#    0.000    2.857    0.000    1.714    0.000    2.286 
#    0.000   12.857    0.000    0.000    0.000    0.000 
#    0.000    0.000    0.000    0.000    0.000    0.000 
#
# Total GULP energy -155988.993262 kJ/mol
# GULP energy per Si atom -5571.035474 kJ/mol
# Density = 2.115377 g / cm^3
# Si number density = 21.202030 Si / 1000 Ang^3
#
#
#
# Elastic Constant Matrix: (Units=GPa)
#
#
# Indices 1 2 3 4 5 6 
#
# 1 31.6460 12.4159 -2.8021 0.0000 -0.5848 0.0000
# 2 12.4159 54.3380 17.8859 0.0000 13.6655 0.0000
# 3 -2.8021 17.8859 104.3683 0.0000 9.7066 0.0000
# 4 0.0000 0.0000 0.0000 27.0963 0.0000 -0.2220
# 5 -0.5848 13.6655 9.7066 0.0000 14.0354 0.0000
# 6 0.0000 0.0000 0.0000 -0.2220 0.0000 1.8963
#
#
#
# Elastic Compliance Matrix: (Units=1/GPa)
#
#
# Indices 1 2 3 4 5 6 
#
# 1 0.036704 -0.012014 0.001939 0.000000 0.011886 0.000000
# 2 -0.012014 0.028744 -0.002778 0.000000 -0.026566 0.000000
# 3 0.001939 -0.002778 0.010528 0.000000 -0.004495 0.000000
# 4 0.000000 0.000000 0.000000 0.036941 0.000000 0.004325
# 5 0.011886 -0.026566 -0.004495 0.000000 0.100719 0.000000
# 6 0.000000 0.000000 0.000000 0.004325 0.000000 0.527848
#
#
# Mechanical properties :
#
#
# Convention : Reuss Voigt Hill
#
# Bulk Modulus (GPa) = 19.89258 27.26131 23.57695
# Shear Modulus (GPa) = 6.37798 19.46243 12.92020
#
# Velocity S-wave (km/s) = 1.73630 3.03306 2.47125
# Velocity P-wave (km/s) = 3.66366 5.01515 4.39170
#
# Compressibility (1/GPa) = 0.05027000
#
# Stress axis : x y z
#
# Youngs Moduli (GPa) = 27.24462 34.78984 94.98817
#
# Poissons Ratio (x) = 0.41797 -0.18417
# Poissons Ratio (y) = 0.32732 0.26385
# Poissons Ratio (z) = -0.05283 0.09664
#
# Static dielectric constant tensor:
#      x y z
#    x 1.767950 0.000000 0.009800 
#    y 0.000000 1.825330 0.000000 
#    z 0.009800 0.000000 1.771920 
# 
# From -- ./inp_files/292896.got.cif
#   From: 2010.05.17/outbox.cif.g08.bks.cpg/sg15_147_cif.got.tgz:292896.got - 2010.06.03 18:47:42.
