data_PCOD9257646
_publ_section_title
;
Structure prediction by ZEFSAII (Michael W. Deem and Ramdas Pophale) SiO2 
 PCOD9257646
Probable space group: C 2/C
;
_chemical_formula_sum "Si O2"
_cell_formula_units_Z 48
_cell_length_a 18.453849
_cell_length_b 7.422001
_cell_length_c 18.170146
_cell_angle_alpha 90.000000
_cell_angle_beta 135.143052
_cell_angle_gamma 90.000000
_cell_volume 1755.352585
_symmetry_space_group_name_H-M "C 2/C"
_symmetry_group_IT_number 15
_symmetry_cell_setting 'monoclinic'
loop_
_space_group_symop_operation_xyz
x,y,z
-x,y,1/2-z
-x,-y,-z
x,-y,1/2+z
1/2+x,1/2+y,z
1/2-x,1/2+y,1/2-z
1/2-x,1/2-y,-z
1/2+x,1/2-y,1/2+z
loop_
_atom_site_type_symbol
_atom_site_label
_atom_site_fract_x
_atom_site_fract_y
_atom_site_fract_z
Si Si1 0.006330 0.709833 0.050372
Si Si2 0.124912 0.375990 0.506940
Si Si3 0.671520 0.387256 0.767679
Si Si4 0.294055 0.185932 0.218810
Si Si5 0.737606 0.957180 0.962192
Si Si6 0.032569 0.005176 0.851080
O O1 0.046469 0.750734 0.996936
O O2 0.106277 0.625064 0.163473
O O3 0.978426 0.871852 0.084491
O O4 0.915008 0.567412 0.988369
O O5 0.236326 0.315573 0.616485
O O6 0.147383 0.438498 0.439806
O O7 0.686433 0.604204 0.783712
O O8 0.697221 0.334740 0.702935
O O9 0.555630 0.352618 0.709046
O O10 0.281981 0.071308 0.137422
O O11 0.750000 0.750000 0.000000
O O12 0.848157 0.045709 0.061050
O O13 0.000000 0.100888 0.750000
#
# Coordination Sequence:
#
# PCOD9257646 Si02
#       6
#     8   8   8   8   8   8
#     4   9  19  30  49  77 111 141 176 222 289 319
#     4  10  18  32  50  78 110 142 175 234 280 324
#     4  10  20  36  53  84 112 147 182 231 284 332
#     4  10  21  34  55  83 111 147 181 236 278 338
#     4  12  19  32  56  84 111 137 194 239 277 321
#     4  11  19  32  56  83 106 145 193 235 271 335
#
# _framework density 27.344930999999999
#
# number of rings (size 3 to 8) (size 9 to 14) (size 15 to 20)
#    0.000    1.667    5.000    1.000    0.000    0.667 
#    0.000    0.000    0.000    9.000   13.000    0.000 
#    0.000    0.000    0.000    0.000    0.000    0.000 
#
# Total GULP energy -134288.797557 kJ/mol
# GULP energy per Si atom -5595.366565 kJ/mol
# Density = 2.728269 g / cm^3
# Si number density = 27.344931 Si / 1000 Ang^3
#
#
#
# Elastic Constant Matrix: (Units=GPa)
#
#
# Indices 1 2 3 4 5 6 
#
# 1 188.6280 19.7323 28.0319 0.0000 1.0432 0.0000
# 2 19.7323 109.4304 28.6391 0.0000 -7.5636 0.0000
# 3 28.0319 28.6391 121.1593 0.0000 0.1406 0.0000
# 4 0.0000 0.0000 0.0000 22.4712 0.0000 -1.9813
# 5 1.0432 -7.5636 0.1406 0.0000 51.4139 0.0000
# 6 0.0000 0.0000 0.0000 -1.9813 0.0000 22.6048
#
#
#
# Elastic Compliance Matrix: (Units=1/GPa)
#
#
# Indices 1 2 3 4 5 6 
#
# 1 0.005543 -0.000724 -0.001111 0.000000 -0.000216 0.000000
# 2 -0.000724 0.009943 -0.002185 0.000000 0.001483 0.000000
# 3 -0.001111 -0.002185 0.009027 0.000000 -0.000324 0.000000
# 4 0.000000 0.000000 0.000000 0.044848 0.000000 0.003931
# 5 -0.000216 0.001483 -0.000324 0.000000 0.019673 0.000000
# 6 0.000000 0.000000 0.000000 0.003931 0.000000 0.044583
#
#
# Mechanical properties :
#
#
# Convention : Reuss Voigt Hill
#
# Bulk Modulus (GPa) = 60.69836 63.55825 62.12831
# Shear Modulus (GPa) = 33.97915 42.15226 38.06571
#
# Velocity S-wave (km/s) = 3.52890 3.93046 3.73508
# Velocity P-wave (km/s) = 6.23295 6.62507 6.43200
#
# Compressibility (1/GPa) = 0.01647491
#
# Stress axis : x y z
#
# Youngs Moduli (GPa) = 180.39204 100.57350 110.77319
#
# Poissons Ratio (x) = 0.07278 0.12310
# Poissons Ratio (y) = 0.13055 0.24199
# Poissons Ratio (z) = 0.20046 0.21971
#
# Static dielectric constant tensor:
#      x y z
#    x 2.196870 0.000000 -0.032230 
#    y 0.000000 2.180360 0.000000 
#    z -0.032230 0.000000 2.189010 
# 
# From -- ./inp_files/210445.got.cif
#   From: 2010.05.17/outbox.cif.g08.bks.cpg/sg15_106_cif.got.tgz:210445.got - 2010.06.03 18:47:42.
