data_PCOD9257627
_publ_section_title
;
Structure prediction by ZEFSAII (Michael W. Deem and Ramdas Pophale) SiO2 
 PCOD9257627
Probable space group: C 2/C
;
_chemical_formula_sum "Si O2"
_cell_formula_units_Z 56
_cell_length_a 21.253687
_cell_length_b 13.357179
_cell_length_c 7.942534
_cell_angle_alpha 90.000000
_cell_angle_beta 89.868848
_cell_angle_gamma 90.000000
_cell_volume 2254.794524
_symmetry_space_group_name_H-M "C 2/C"
_symmetry_group_IT_number 15
_symmetry_cell_setting 'monoclinic'
loop_
_space_group_symop_operation_xyz
x,y,z
-x,y,1/2-z
-x,-y,-z
x,-y,1/2+z
1/2+x,1/2+y,z
1/2-x,1/2+y,1/2-z
1/2-x,1/2-y,-z
1/2+x,1/2-y,1/2+z
loop_
_atom_site_type_symbol
_atom_site_label
_atom_site_fract_x
_atom_site_fract_y
_atom_site_fract_z
Si Si1 0.723577 0.622843 0.326374
Si Si2 0.099490 0.904983 0.005255
Si Si3 0.079009 0.677362 0.413722
Si Si4 0.058303 0.320692 0.508119
Si Si5 0.188228 0.359266 0.368905
Si Si6 0.064962 0.104151 0.855309
Si Si7 0.279578 0.137818 0.988007
O O1 0.661281 0.576394 0.398796
O O2 0.780311 0.610493 0.456665
O O3 0.704430 0.741439 0.340714
O O4 0.741088 0.589808 0.139685
O O5 0.062610 0.005682 0.964410
O O6 0.066137 0.798549 0.964011
O O7 0.114585 0.898830 0.202373
O O8 0.073263 0.670495 0.209439
O O9 0.079297 0.796018 0.456618
O O10 0.146323 0.636481 0.465663
O O11 0.013869 0.641975 0.501410
O O12 0.113049 0.371682 0.396737
O O13 0.219628 0.402949 0.200789
O O14 0.000000 0.116542 0.750000
O O15 0.250000 0.250000 0.000000
#
# Coordination Sequence:
#
# PCOD9257627 Si02
#       7
#     8   8   8   8   8   8   8
#     4   9  18  34  48  66  99 123 171 211 262 304
#     4  10  21  34  47  68  96 142 176 220 250 289
#     4  10  18  32  50  70 103 138 177 211 256 306
#     4   9  17  32  49  68  97 141 165 210 266 289
#     4   9  17  30  50  70  91 124 164 211 261 307
#     4  11  21  34  49  69 101 140 187 215 251 288
#     4  10  20  30  49  76  91 129 173 211 259 309
#
# _framework density 24.835964000000001
#
# number of rings (size 3 to 8) (size 9 to 14) (size 15 to 20)
#    0.000    2.286    4.286    0.429    6.000    4.000 
#    0.000    0.000    0.000    0.000    0.000    0.000 
#    0.000    0.000    0.000   11.571    0.000    0.286 
#
# Total GULP energy -156372.335595 kJ/mol
# GULP energy per Si atom -5584.726271 kJ/mol
# Density = 2.477944 g / cm^3
# Si number density = 24.835964 Si / 1000 Ang^3
#
#
#
# Elastic Constant Matrix: (Units=GPa)
#
#
# Indices 1 2 3 4 5 6 
#
# 1 108.3485 -6.6403 35.7885 0.0000 -46.4249 0.0000
# 2 -6.6403 31.5029 4.8341 0.0000 -1.7273 0.0000
# 3 35.7885 4.8341 114.0376 0.0000 -54.1064 0.0000
# 4 0.0000 0.0000 0.0000 24.7853 0.0000 6.4183
# 5 -46.4249 -1.7273 -54.1064 0.0000 44.7278 0.0000
# 6 0.0000 0.0000 0.0000 6.4183 0.0000 7.7957
#
#
#
# Elastic Compliance Matrix: (Units=1/GPa)
#
#
# Indices 1 2 3 4 5 6 
#
# 1 0.020030 0.004663 0.008135 0.000000 0.030810 0.000000
# 2 0.004663 0.033054 0.000088 0.000000 0.006223 0.000000
# 3 0.008135 0.000088 0.023988 0.000000 0.037464 0.000000
# 4 0.000000 0.000000 0.000000 0.051279 0.000000 -0.042219
# 5 0.030810 0.006223 0.037464 0.000000 0.099896 0.000000
# 6 0.000000 0.000000 0.000000 -0.042219 0.000000 0.163034
#
#
# Mechanical properties :
#
#
# Convention : Reuss Voigt Hill
#
# Bulk Modulus (GPa) = 9.72365 35.76148 22.74256
# Shear Modulus (GPa) = 12.50653 30.12223 21.31438
#
# Velocity S-wave (km/s) = 2.24646 3.48637 2.93269
# Velocity P-wave (km/s) = 3.26381 5.53505 4.54363
#
# Compressibility (1/GPa) = 0.10284205
#
# Stress axis : x y z
#
# Youngs Moduli (GPa) = 49.92575 30.25381 41.68799
#
# Poissons Ratio (x) = -0.14107 -0.33911
# Poissons Ratio (y) = -0.23280 -0.00366
# Poissons Ratio (z) = -0.40612 -0.00266
#
# Static dielectric constant tensor:
#      x y z
#    x 1.842480 0.000000 0.023070 
#    y 0.000000 2.021630 0.000000 
#    z 0.023070 0.000000 1.966530 
# 
# From -- ./inp_files/56097.got.cif
#   From: 2010.05.17/outbox.cif.g08.bks.cpg/sg15_29_cif.got.tgz:56097.got - 2010.06.03 18:47:42.
