data_PCOD9257248
_publ_section_title
;
Structure prediction by ZEFSAII (Michael W. Deem and Ramdas Pophale) SiO2 
 PCOD9257248
Probable space group: C 2/C
;
_chemical_formula_sum "Si O2"
_cell_formula_units_Z 48
_cell_length_a 25.193572
_cell_length_b 10.557686
_cell_length_c 7.911806
_cell_angle_alpha 90.000000
_cell_angle_beta 90.775431
_cell_angle_gamma 90.000000
_cell_volume 2104.235500
_symmetry_space_group_name_H-M "C 2/C"
_symmetry_group_IT_number 15
_symmetry_cell_setting 'monoclinic'
loop_
_space_group_symop_operation_xyz
x,y,z
-x,y,1/2-z
-x,-y,-z
x,-y,1/2+z
1/2+x,1/2+y,z
1/2-x,1/2+y,1/2-z
1/2-x,1/2-y,-z
1/2+x,1/2-y,1/2+z
loop_
_atom_site_type_symbol
_atom_site_label
_atom_site_fract_x
_atom_site_fract_y
_atom_site_fract_z
Si Si1 0.712378 0.105765 0.848126
Si Si2 0.156329 0.150068 0.262921
Si Si3 0.109006 0.553429 0.287884
Si Si4 0.711934 0.440761 0.437296
Si Si5 0.566414 0.191528 0.624326
Si Si6 0.525326 0.866231 0.565676
O O1 0.680613 0.234795 0.872520
O O2 0.756393 0.131116 0.706030
O O3 0.668492 0.999756 0.792485
O O4 0.745792 0.046206 0.999951
O O5 0.098882 0.192317 0.199006
O O6 0.162672 0.017875 0.357797
O O7 0.192327 0.136828 0.096053
O O8 0.096999 0.633712 0.457233
O O9 0.073896 0.423672 0.260218
O O10 0.087185 0.628756 0.121387
O O11 0.506790 0.223436 0.562836
O O12 0.500000 0.843056 0.750000
O O13 0.500000 0.000000 0.500000
#
# Coordination Sequence:
#
# PCOD9257248 Si02
#       6
#     8   8   8   8   8   8
#     4  10  18  31  49  70 100 133 159 200 253 298
#     4  10  20  34  48  66  95 135 174 207 243 284
#     4   9  16  27  46  75 101 125 153 190 247 310
#     4  10  21  33  47  69  99 134 173 207 235 290
#     4   9  17  30  48  71 101 130 156 197 250 302
#     4   8  14  25  43  69  99 123 145 185 242 302
#
# _framework density 22.811135
#
# number of rings (size 3 to 8) (size 9 to 14) (size 15 to 20)
#    0.000    2.667    0.000    3.000    0.000    1.333 
#    0.000    6.667    0.000    0.000    0.000   10.500 
#    0.000   12.000    0.000   44.667    0.000    0.000 
#
# Total GULP energy -133770.090468 kJ/mol
# GULP energy per Si atom -5573.753770 kJ/mol
# Density = 2.275922 g / cm^3
# Si number density = 22.811135 Si / 1000 Ang^3
#
#
#
# Elastic Constant Matrix: (Units=GPa)
#
#
# Indices 1 2 3 4 5 6 
#
# 1 86.4545 27.4681 18.7215 0.0000 26.5672 0.0000
# 2 27.4681 39.7064 12.0059 0.0000 13.3234 0.0000
# 3 18.7215 12.0059 72.6619 0.0000 14.8510 0.0000
# 4 0.0000 0.0000 0.0000 12.9897 0.0000 17.3181
# 5 26.5672 13.3234 14.8510 0.0000 47.8646 0.0000
# 6 0.0000 0.0000 0.0000 17.3181 0.0000 26.9270
#
#
#
# Elastic Compliance Matrix: (Units=1/GPa)
#
#
# Indices 1 2 3 4 5 6 
#
# 1 0.016679 -0.008966 -0.001531 0.000000 -0.006287 0.000000
# 2 -0.008966 0.033320 -0.002474 0.000000 -0.003531 0.000000
# 3 -0.001531 -0.002474 0.015216 0.000000 -0.003183 0.000000
# 4 0.000000 0.000000 0.000000 0.540096 0.000000 -0.347363
# 5 -0.006287 -0.003531 -0.003183 0.000000 0.026352 0.000000
# 6 0.000000 0.000000 0.000000 -0.347363 0.000000 0.260544
#
#
# Mechanical properties :
#
#
# Convention : Reuss Voigt Hill
#
# Bulk Modulus (GPa) = 25.46211 35.02375 30.24293
# Shear Modulus (GPa) = 5.36919 26.93140 16.15029
#
# Velocity S-wave (km/s) = 1.53586 3.43975 2.66371
# Velocity P-wave (km/s) = 3.78570 5.58238 4.76941
#
# Compressibility (1/GPa) = 0.03927405
#
# Stress axis : x y z
#
# Youngs Moduli (GPa) = 59.95643 30.01212 65.71999
#
# Poissons Ratio (x) = 0.26908 0.10062
# Poissons Ratio (y) = 0.53755 0.16257
# Poissons Ratio (z) = 0.09179 0.07424
#
# Static dielectric constant tensor:
#      x y z
#    x 1.938980 0.000000 -0.012770 
#    y 0.000000 1.842970 0.000000 
#    z -0.012770 0.000000 1.958880 
# 
# From -- ./inp_files/64904.got.cif
#   From: 2010.05.17/outbox.cif.g08.bks.cpg/sg15_33_cif.got.tgz:64904.got - 2010.06.03 18:47:42.
