data_PCOD9257715
_publ_section_title
;
Structure prediction by ZEFSAII (Michael W. Deem and Ramdas Pophale) SiO2 
 PCOD9257715
Probable space group: C 2/C
;
_chemical_formula_sum "Si O2"
_cell_formula_units_Z 60
_cell_length_a 29.312577
_cell_length_b 20.706513
_cell_length_c 8.176327
_cell_angle_alpha 90.000000
_cell_angle_beta 46.482052
_cell_angle_gamma 90.000000
_cell_volume 3598.755059
_symmetry_space_group_name_H-M "C 2/C"
_symmetry_group_IT_number 15
_symmetry_cell_setting 'monoclinic'
loop_
_space_group_symop_operation_xyz
x,y,z
-x,y,1/2-z
-x,-y,-z
x,-y,1/2+z
1/2+x,1/2+y,z
1/2-x,1/2+y,1/2-z
1/2-x,1/2-y,-z
1/2+x,1/2-y,1/2+z
loop_
_atom_site_type_symbol
_atom_site_label
_atom_site_fract_x
_atom_site_fract_y
_atom_site_fract_z
Si Si1 0.579383 0.383393 0.930803
Si Si2 0.952982 0.891200 0.104271
Si Si3 0.289200 0.433522 0.825027
Si Si4 0.291232 0.814331 0.351878
Si Si5 0.110076 0.749007 0.689802
Si Si6 0.681313 0.431023 0.130193
Si Si7 0.726700 0.301107 0.188904
Si Si8 0.500000 0.721279 0.250000
O O1 0.646059 0.416485 0.741309
O O2 0.587735 0.310645 0.849069
O O3 0.524285 0.416250 0.958777
O O4 0.565846 0.379816 0.158712
O O5 0.895613 0.932419 0.170497
O O6 0.963024 0.827596 0.966209
O O7 0.301105 0.426989 0.603407
O O8 0.282005 0.508481 0.884264
O O9 0.239546 0.379590 0.001988
O O10 0.250000 0.750000 0.500000
O O11 0.359300 0.802416 0.262684
O O12 0.282617 0.815879 0.178758
O O13 0.167433 0.771548 0.432586
O O14 0.050213 0.735885 0.723924
O O15 0.703081 0.366132 0.163784
O O16 0.750000 0.250000 0.000000
#
# Coordination Sequence:
#
# PCOD9257715 Si02
#       8
#     8   8   8   8   8   8   8   4
#     4   9  18  33  47  69  98 142 177 214 254 298
#     4   9  19  31  48  69 101 135 179 215 251 299
#     4  11  21  33  51  70 104 136 184 213 264 306
#     4  10  19  34  50  73  97 135 168 219 261 308
#     4  10  19  32  55  71 104 133 172 220 262 308
#     4  11  22  34  49  72 100 139 172 223 255 306
#     4  11  21  33  53  76 101 134 177 210 267 314
#     4  10  18  32  52  78 100 134 176 216 260 312
#
# _framework density 16.672433000000002
#
# number of rings (size 3 to 8) (size 9 to 14) (size 15 to 20)
#    0.000    1.867    4.000    2.400    1.867    0.533 
#    0.000    1.333    0.000    0.000    0.000    0.000 
#    0.000    9.600    0.000    0.667    0.000    7.733 
#
# Total GULP energy -167094.627737 kJ/mol
# GULP energy per Si atom -5569.820925 kJ/mol
# Density = 1.663449 g / cm^3
# Si number density = 16.672433 Si / 1000 Ang^3
#
#
#
# Elastic Constant Matrix: (Units=GPa)
#
#
# Indices 1 2 3 4 5 6 
#
# 1 123.2766 37.9107 10.7306 0.0000 -0.9839 0.0000
# 2 37.9107 66.2982 11.2776 0.0000 -6.3484 0.0000
# 3 10.7306 11.2776 13.9890 0.0000 2.5834 0.0000
# 4 0.0000 0.0000 0.0000 16.5374 0.0000 -1.5940
# 5 -0.9839 -6.3484 2.5834 0.0000 18.2805 0.0000
# 6 0.0000 0.0000 0.0000 -1.5940 0.0000 25.1006
#
#
#
# Elastic Compliance Matrix: (Units=1/GPa)
#
#
# Indices 1 2 3 4 5 6 
#
# 1 0.010003 -0.005236 -0.003302 0.000000 -0.000813 0.000000
# 2 -0.005236 0.021533 -0.015065 0.000000 0.009325 0.000000
# 3 -0.003302 -0.015065 0.089497 0.000000 -0.018057 0.000000
# 4 0.000000 0.000000 0.000000 0.060841 0.000000 0.003864
# 5 -0.000813 0.009325 -0.018057 0.000000 0.060449 0.000000
# 6 0.000000 0.000000 0.000000 0.003864 0.000000 0.040085
#
#
# Mechanical properties :
#
#
# Convention : Reuss Voigt Hill
#
# Bulk Modulus (GPa) = 13.54504 35.93351 24.73927
# Shear Modulus (GPa) = 14.11538 21.56004 17.83771
#
# Velocity S-wave (km/s) = 2.91285 3.59995 3.27447
# Velocity P-wave (km/s) = 4.41075 6.23530 5.40063
#
# Compressibility (1/GPa) = 0.07382776
#
# Stress axis : x y z
#
# Youngs Moduli (GPa) = 99.96999 46.44016 11.17354
#
# Poissons Ratio (x) = 0.24317 0.03689
# Poissons Ratio (y) = 0.52347 0.16833
# Poissons Ratio (z) = 0.33005 0.69962
#
# Static dielectric constant tensor:
#      x y z
#    x 1.617610 0.000000 0.003170 
#    y 0.000000 1.559750 0.000000 
#    z 0.003170 0.000000 1.575360 
# 
# From -- ./inp_files/66892.got.cif
#   From: 2010.05.17/outbox.cif.g08.bks.cpg/sg15_34_cif.got.tgz:66892.got - 2010.06.03 18:47:42.
