data_PCOD9257603
_publ_section_title
;
Structure prediction by ZEFSAII (Michael W. Deem and Ramdas Pophale) SiO2 
 PCOD9257603
Probable space group: C 2/C
;
_chemical_formula_sum "Si O2"
_cell_formula_units_Z 56
_cell_length_a 25.243422
_cell_length_b 25.650229
_cell_length_c 5.266852
_cell_angle_alpha 90.000000
_cell_angle_beta 121.108942
_cell_angle_gamma 90.000000
_cell_volume 2919.839266
_symmetry_space_group_name_H-M "C 2/C"
_symmetry_group_IT_number 15
_symmetry_cell_setting 'monoclinic'
loop_
_space_group_symop_operation_xyz
x,y,z
-x,y,1/2-z
-x,-y,-z
x,-y,1/2+z
1/2+x,1/2+y,z
1/2-x,1/2+y,1/2-z
1/2-x,1/2-y,-z
1/2+x,1/2-y,1/2+z
loop_
_atom_site_type_symbol
_atom_site_label
_atom_site_fract_x
_atom_site_fract_y
_atom_site_fract_z
Si Si1 0.576024 0.191572 0.163105
Si Si2 0.852790 0.964674 0.744537
Si Si3 0.925248 0.806292 0.545585
Si Si4 0.280298 0.032039 0.481486
Si Si5 0.937828 0.351482 0.363746
Si Si6 0.425442 0.637057 0.548653
Si Si7 0.079474 0.534548 0.604885
O O1 0.598902 0.173105 0.492668
O O2 0.589951 0.249394 0.102873
O O3 0.596380 0.153861 0.987453
O O4 0.501449 0.181959 0.001333
O O5 0.902027 0.080614 0.407779
O O6 0.858281 0.992944 0.486017
O O7 0.783758 0.940174 0.607327
O O8 0.903805 0.846763 0.276358
O O9 0.000000 0.807764 0.750000
O O10 0.904807 0.822202 0.777771
O O11 0.348480 0.053090 0.705369
O O12 0.278080 0.016108 0.179600
O O13 0.955507 0.411380 0.445398
O O14 0.500000 0.637754 0.750000
O O15 0.069008 0.504704 0.314220
#
# Coordination Sequence:
#
# PCOD9257603 Si02
#       7
#     8   8   8   8   8   8   8
#     4  10  19  32  47  68  95 122 163 202 239 278
#     4  10  19  33  50  71 101 130 158 189 230 284
#     4  10  18  32  49  66  96 120 160 209 226 270
#     4   8  16  30  50  68  89 126 163 195 226 266
#     4  10  19  30  49  71  93 126 160 197 235 282
#     4  10  21  30  47  75  97 125 162 185 242 281
#     4  10  19  33  48  71 101 126 159 197 231 277
#
# _framework density 19.179138999999999
#
# number of rings (size 3 to 8) (size 9 to 14) (size 15 to 20)
#    0.000    2.286    1.429    2.571    4.000    0.571 
#    0.000    8.571    0.000    0.000    0.000    6.000 
#    0.000    0.000    0.000    0.000    0.000    0.000 
#
# Total GULP energy -155897.035402 kJ/mol
# GULP energy per Si atom -5567.751264 kJ/mol
# Density = 1.913549 g / cm^3
# Si number density = 19.179139 Si / 1000 Ang^3
#
#
#
# Elastic Constant Matrix: (Units=GPa)
#
#
# Indices 1 2 3 4 5 6 
#
# 1 28.6070 9.8100 30.1104 0.0000 -17.0191 0.0000
# 2 9.8100 68.1464 23.2770 0.0000 -3.7707 0.0000
# 3 30.1104 23.2770 100.6437 0.0000 -33.9342 0.0000
# 4 0.0000 0.0000 0.0000 20.6001 0.0000 -14.1023
# 5 -17.0191 -3.7707 -33.9342 0.0000 31.0879 0.0000
# 6 0.0000 0.0000 0.0000 -14.1023 0.0000 8.6947
#
#
#
# Elastic Compliance Matrix: (Units=1/GPa)
#
#
# Indices 1 2 3 4 5 6 
#
# 1 0.059158 -0.004081 -0.009498 0.000000 0.021524 0.000000
# 2 -0.004081 0.016432 -0.004210 0.000000 -0.004837 0.000000
# 3 -0.009498 -0.004210 0.018713 0.000000 0.014716 0.000000
# 4 0.000000 0.000000 0.000000 -0.439948 0.000000 -0.713569
# 5 0.021524 -0.004837 0.014716 0.000000 0.059427 0.000000
# 6 0.000000 0.000000 0.000000 -0.713569 0.000000 -1.042353
#
#
# Mechanical properties :
#
#
# Convention : Reuss Voigt Hill
#
# Bulk Modulus (GPa) = 17.02841 35.97688 26.50264
# Shear Modulus (GPa) = -3.92644 21.02321 8.54838
#
# Velocity S-wave (km/s) = -1.43237 3.31441 2.11348
# Velocity P-wave (km/s) = 2.48240 5.78326 4.45019
#
# Compressibility (1/GPa) = 0.05872539
#
# Stress axis : x y z
#
# Youngs Moduli (GPa) = 16.90391 60.85585 53.43807
#
# Poissons Ratio (x) = 0.24835 0.50754
# Poissons Ratio (y) = 0.06898 0.22500
# Poissons Ratio (z) = 0.16055 0.25623
#
# Static dielectric constant tensor:
#      x y z
#    x 1.538760 0.000000 -0.131980 
#    y 0.000000 1.662470 0.000000 
#    z -0.131980 0.000000 1.678140 
# 
# From -- ./inp_files/13723.got.cif
#   From: 2010.05.17/outbox.cif.g08.bks.cpg/sg15_7_cif.got.tgz:13723.got - 2010.06.03 18:47:42.
