data_PCOD9257245
_publ_section_title
;
Structure prediction by ZEFSAII (Michael W. Deem and Ramdas Pophale) SiO2 
 PCOD9257245
Probable space group: C 2/C
;
_chemical_formula_sum "Si O2"
_cell_formula_units_Z 60
_cell_length_a 19.702875
_cell_length_b 8.578548
_cell_length_c 17.640021
_cell_angle_alpha 90.000000
_cell_angle_beta 97.599410
_cell_angle_gamma 90.000000
_cell_volume 2955.365400
_symmetry_space_group_name_H-M "C 2/C"
_symmetry_group_IT_number 15
_symmetry_cell_setting 'monoclinic'
loop_
_space_group_symop_operation_xyz
x,y,z
-x,y,1/2-z
-x,-y,-z
x,-y,1/2+z
1/2+x,1/2+y,z
1/2-x,1/2+y,1/2-z
1/2-x,1/2-y,-z
1/2+x,1/2-y,1/2+z
loop_
_atom_site_type_symbol
_atom_site_label
_atom_site_fract_x
_atom_site_fract_y
_atom_site_fract_z
Si Si1 0.149538 0.272354 0.508255
Si Si2 0.757706 0.991762 0.992685
Si Si3 0.805671 0.769725 0.117757
Si Si4 0.593728 0.301790 0.153276
Si Si5 0.500000 0.487481 0.250000
Si Si6 0.714808 0.489339 0.251112
Si Si7 0.868336 0.551644 0.225768
Si Si8 0.617782 0.714577 0.326227
O O1 0.187502 0.440525 0.519400
O O2 0.093400 0.235104 0.563930
O O3 0.128903 0.243652 0.417667
O O4 0.207610 0.144155 0.535542
O O5 0.739280 0.860699 0.929736
O O6 0.810103 0.909144 0.058099
O O7 0.772925 0.855434 0.184529
O O8 0.872242 0.680143 0.158805
O O9 0.531373 0.384413 0.186866
O O10 0.657935 0.414461 0.186891
O O11 0.604483 0.136289 0.196238
O O12 0.557883 0.595299 0.296401
O O13 0.786812 0.526490 0.224312
O O14 0.683166 0.636007 0.293069
O O15 0.897791 0.384655 0.210366
#
# Coordination Sequence:
#
# PCOD9257245 Si02
#       8
#     8   8   8   8   4   8   8   8
#     4  11  21  36  61  95 123 163 198 257 309 365
#     4  10  20  30  54  90 137 156 187 239 318 376
#     4  10  18  31  48  83 130 170 184 230 289 380
#     4  10  23  39  64  89 122 162 209 253 304 362
#     4  10  26  48  64  82 114 172 222 252 298 362
#     4  10  20  35  57  94 127 166 197 241 312 383
#     4  11  21  35  62  92 126 162 201 250 313 375
#     4  11  22  41  64  87 123 166 210 257 302 357
#
# _framework density 20.302057999999999
#
# number of rings (size 3 to 8) (size 9 to 14) (size 15 to 20)
#    0.000    1.600    2.667    3.200    3.733    2.133 
#    0.000    0.000    0.000    1.600    0.000    0.000 
#    0.000    0.000    0.000    0.000    0.000    0.000 
#
# Total GULP energy -167277.995805 kJ/mol
# GULP energy per Si atom -5575.933194 kJ/mol
# Density = 2.025585 g / cm^3
# Si number density = 20.302058 Si / 1000 Ang^3
#
#
#
# Elastic Constant Matrix: (Units=GPa)
#
#
# Indices 1 2 3 4 5 6 
#
# 1 56.4299 17.1279 9.0699 0.0000 -15.8232 0.0000
# 2 17.1279 116.0713 27.1560 0.0000 -11.9055 0.0000
# 3 9.0699 27.1560 82.7406 0.0000 -15.8511 0.0000
# 4 0.0000 0.0000 0.0000 6.3752 0.0000 -3.7621
# 5 -15.8232 -11.9055 -15.8511 0.0000 17.6365 0.0000
# 6 0.0000 0.0000 0.0000 -3.7621 0.0000 14.7309
#
#
#
# Elastic Compliance Matrix: (Units=1/GPa)
#
#
# Indices 1 2 3 4 5 6 
#
# 1 0.024226 -0.001789 0.002252 0.000000 0.022551 0.000000
# 2 -0.001789 0.009740 -0.002475 0.000000 0.002746 0.000000
# 3 0.002252 -0.002475 0.015364 0.000000 0.014158 0.000000
# 4 0.000000 0.000000 0.000000 0.184692 0.000000 0.047169
# 5 0.022551 0.002746 0.014158 0.000000 0.091512 0.000000
# 6 0.000000 0.000000 0.000000 0.047169 0.000000 0.079931
#
#
# Mechanical properties :
#
#
# Convention : Reuss Voigt Hill
#
# Bulk Modulus (GPa) = 22.07191 40.21659 31.14425
# Shear Modulus (GPa) = 11.77609 21.20773 16.49191
#
# Velocity S-wave (km/s) = 2.41102 3.23555 2.85323
# Velocity P-wave (km/s) = 4.31811 5.81468 5.12136
#
# Compressibility (1/GPa) = 0.04530645
#
# Stress axis : x y z
#
# Youngs Moduli (GPa) = 41.27875 102.66994 65.08872
#
# Poissons Ratio (x) = 0.18363 -0.14656
# Poissons Ratio (y) = 0.07383 0.16106
# Poissons Ratio (z) = -0.09295 0.25406
#
# Static dielectric constant tensor:
#      x y z
#    x 1.753510 0.000000 -0.013400 
#    y 0.000000 1.758100 0.000000 
#    z -0.013400 0.000000 1.762480 
# 
# From -- ./inp_files/209607.got.cif
#   From: 2010.05.17/outbox.cif.g08.bks.cpg/sg15_105_cif.got.tgz:209607.got - 2010.06.03 18:47:42.
