data_PCOD9257401
_publ_section_title
;
Structure prediction by ZEFSAII (Michael W. Deem and Ramdas Pophale) SiO2 
 PCOD9257401
Probable space group: C 2/C
;
_chemical_formula_sum "Si O2"
_cell_formula_units_Z 64
_cell_length_a 15.318325
_cell_length_b 34.058612
_cell_length_c 9.224795
_cell_angle_alpha 90.000000
_cell_angle_beta 125.216040
_cell_angle_gamma 90.000000
_cell_volume 3931.952207
_symmetry_space_group_name_H-M "C 2/C"
_symmetry_group_IT_number 15
_symmetry_cell_setting 'monoclinic'
loop_
_space_group_symop_operation_xyz
x,y,z
-x,y,1/2-z
-x,-y,-z
x,-y,1/2+z
1/2+x,1/2+y,z
1/2-x,1/2+y,1/2-z
1/2-x,1/2-y,-z
1/2+x,1/2-y,1/2+z
loop_
_atom_site_type_symbol
_atom_site_label
_atom_site_fract_x
_atom_site_fract_y
_atom_site_fract_z
Si Si1 0.215729 0.029050 0.849141
Si Si2 0.510509 0.193629 0.597077
Si Si3 0.426839 0.024647 0.538732
Si Si4 0.401281 0.753791 0.750802
Si Si5 0.425007 0.517402 0.056043
Si Si6 0.282801 0.805691 0.394194
Si Si7 0.548623 0.890300 0.563959
Si Si8 0.826440 0.609711 0.022171
O O1 0.166794 0.034716 0.639318
O O2 0.132662 0.013487 0.891365
O O3 0.259345 0.070487 0.944925
O O4 0.313113 0.997501 0.939791
O O5 0.500000 0.207434 0.750000
O O6 0.446139 0.221248 0.426254
O O7 0.632120 0.194592 0.655224
O O8 0.463752 0.149397 0.539623
O O9 0.500000 0.024191 0.750000
O O10 0.416240 0.069948 0.481234
O O11 0.500000 0.000000 0.500000
O O12 0.500000 0.737767 0.750000
O O13 0.341028 0.784221 0.585816
O O14 0.322872 0.719697 0.728346
O O15 0.500000 0.539564 0.250000
O O16 0.500000 0.500000 0.000000
O O17 0.265644 0.851146 0.415158
O O18 0.628755 0.883560 0.773963
O O19 0.431422 0.896227 0.522576
#
# Coordination Sequence:
#
# PCOD9257401 Si02
#       8
#     8   8   8   8   8   8   8   8
#     4  11  20  33  55  78 102 139 181 218 271 315
#     4  10  19  32  51  79 108 144 174 208 262 322
#     4  12  22  32  47  79 116 147 169 210 262 325
#     4   9  17  34  56  78 101 133 181 220 264 308
#     4   9  20  38  55  70  91 130 187 236 262 297
#     4   9  18  33  55  77 103 136 175 219 258 315
#     4  10  19  32  47  74 116 146 171 206 251 324
#     4  10  18  31  53  77 106 138 176 214 258 318
#
# _framework density 16.276902
#
# number of rings (size 3 to 8) (size 9 to 14) (size 15 to 20)
#    0.000    2.000    2.500    2.625    0.000    0.500 
#    0.000    1.875    0.000    0.750    0.000    0.000 
#    0.000    0.000    0.000    0.000    0.000    0.000 
#
# Total GULP energy -178164.043344 kJ/mol
# GULP energy per Si atom -5567.626354 kJ/mol
# Density = 1.623986 g / cm^3
# Si number density = 16.276902 Si / 1000 Ang^3
#
#
#
# Elastic Constant Matrix: (Units=GPa)
#
#
# Indices 1 2 3 4 5 6 
#
# 1 75.0373 50.7354 33.9130 0.0000 -3.8920 0.0000
# 2 50.7354 98.4876 14.8739 0.0000 5.3938 0.0000
# 3 33.9130 14.8739 65.1253 0.0000 -7.1512 0.0000
# 4 0.0000 0.0000 0.0000 6.8904 0.0000 -10.7857
# 5 -3.8920 5.3938 -7.1512 0.0000 25.9850 0.0000
# 6 0.0000 0.0000 0.0000 -10.7857 0.0000 10.3117
#
#
#
# Elastic Compliance Matrix: (Units=1/GPa)
#
#
# Indices 1 2 3 4 5 6 
#
# 1 0.026675 -0.012327 -0.010678 0.000000 0.003615 0.000000
# 2 -0.012327 0.016434 0.002153 0.000000 -0.004665 0.000000
# 3 -0.010678 0.002153 0.020828 0.000000 0.003686 0.000000
# 4 0.000000 0.000000 0.000000 -0.227737 0.000000 -0.238204
# 5 0.003615 -0.004665 0.003686 0.000000 0.041008 0.000000
# 6 0.000000 0.000000 0.000000 -0.238204 0.000000 -0.152176
#
#
# Mechanical properties :
#
#
# Convention : Reuss Voigt Hill
#
# Bulk Modulus (GPa) = 44.97611 48.63276 46.80444
# Shear Modulus (GPa) = -22.13822 17.91262 -2.11280
#
# Velocity S-wave (km/s) = -3.69195 3.32097 -1.14055
# Velocity P-wave (km/s) = 3.08509 6.68194 5.20414
#
# Compressibility (1/GPa) = 0.02223403
#
# Stress axis : x y z
#
# Youngs Moduli (GPa) = 37.48867 60.84990 48.01138
#
# Poissons Ratio (x) = 0.75008 0.51267
# Poissons Ratio (y) = 0.46211 -0.10339
# Poissons Ratio (z) = 0.40031 -0.13103
#
# Static dielectric constant tensor:
#      x y z
#    x 1.554450 0.000000 0.019110 
#    y 0.000000 1.373150 0.000000 
#    z 0.019110 0.000000 1.567610 
# 
# From -- ./inp_files/44577.got.cif
#   From: 2010.05.17/outbox.cif.g08.bks.cpg/sg15_23_cif.got.tgz:44577.got - 2010.06.03 18:47:42.
