data_PCOD9257777
_publ_section_title
;
Structure prediction by ZEFSAII (Michael W. Deem and Ramdas Pophale) SiO2 
 PCOD9257777
Probable space group: C 2/C
;
_chemical_formula_sum "Si O2"
_cell_formula_units_Z 64
_cell_length_a 8.227445
_cell_length_b 21.720007
_cell_length_c 21.450796
_cell_angle_alpha 90.000000
_cell_angle_beta 129.356807
_cell_angle_gamma 90.000000
_cell_volume 2963.922637
_symmetry_space_group_name_H-M "C 2/C"
_symmetry_group_IT_number 15
_symmetry_cell_setting 'monoclinic'
loop_
_space_group_symop_operation_xyz
x,y,z
-x,y,1/2-z
-x,-y,-z
x,-y,1/2+z
1/2+x,1/2+y,z
1/2-x,1/2+y,1/2-z
1/2-x,1/2-y,-z
1/2+x,1/2-y,1/2+z
loop_
_atom_site_type_symbol
_atom_site_label
_atom_site_fract_x
_atom_site_fract_y
_atom_site_fract_z
Si Si1 0.441300 0.704729 0.428956
Si Si2 0.198833 0.402829 0.204853
Si Si3 0.286713 0.845679 0.734994
Si Si4 0.753487 0.459075 0.812321
Si Si5 0.578241 0.631116 0.870134
Si Si6 0.368508 0.167250 0.573566
Si Si7 0.993847 0.729211 0.383169
Si Si8 0.986245 0.619667 0.473011
O O1 0.402509 0.662517 0.358732
O O2 0.516308 0.769475 0.418171
O O3 0.623538 0.680978 0.518141
O O4 0.221699 0.708489 0.411564
O O5 0.159404 0.472848 0.175862
O O6 0.309343 0.369176 0.171429
O O7 0.362279 0.403350 0.301500
O O8 0.985916 0.364251 0.159543
O O9 0.500000 0.832879 0.750000
O O10 0.301968 0.912509 0.768174
O O11 0.301315 0.795921 0.794011
O O12 0.500000 0.464010 0.750000
O O13 0.857979 0.426245 0.897675
O O14 0.513265 0.698013 0.879514
O O15 0.764466 0.604933 0.959029
O O16 0.393552 0.122933 0.519579
O O17 0.972433 0.689331 0.441008
#
# Coordination Sequence:
#
# PCOD9257777 Si02
#       8
#     8   8   8   8   8   8   8   8
#     4  10  18  32  53  81 107 141 175 219 274 332
#     4  10  20  35  53  79 105 148 184 228 258 316
#     4   9  20  34  56  78 104 149 180 222 266 329
#     4  11  21  37  55  77 114 140 188 228 267 314
#     4  10  18  32  55  82 104 138 183 224 263 319
#     4  10  20  32  53  79 114 137 175 225 277 327
#     4  10  18  32  58  81 111 133 180 223 270 330
#     4  10  21  33  53  85 107 141 169 233 272 317
#
# _framework density 21.593005999999999
#
# number of rings (size 3 to 8) (size 9 to 14) (size 15 to 20)
#    0.000    2.000    3.750    1.875    3.500    2.000 
#    2.250    0.000    2.750    2.250    0.000    0.000 
#    0.000    0.000    0.000    0.000    0.000    0.000 
#
# Total GULP energy -178488.813635 kJ/mol
# GULP energy per Si atom -5577.775426 kJ/mol
# Density = 2.154386 g / cm^3
# Si number density = 21.593006 Si / 1000 Ang^3
#
#
#
# Elastic Constant Matrix: (Units=GPa)
#
#
# Indices 1 2 3 4 5 6 
#
# 1 15.7135 6.6994 15.1724 0.0000 -0.0275 0.0000
# 2 6.6994 90.7129 45.2391 0.0000 8.9310 0.0000
# 3 15.1724 45.2391 101.1732 0.0000 20.0154 0.0000
# 4 0.0000 0.0000 0.0000 19.5962 0.0000 0.8958
# 5 -0.0275 8.9310 20.0154 0.0000 27.0898 0.0000
# 6 0.0000 0.0000 0.0000 0.8958 0.0000 10.4902
#
#
#
# Elastic Compliance Matrix: (Units=1/GPa)
#
#
# Indices 1 2 3 4 5 6 
#
# 1 0.076679 0.000095 -0.013528 0.000000 0.010042 0.000000
# 2 0.000095 0.014188 -0.006363 0.000000 0.000024 0.000000
# 3 -0.013528 -0.006363 0.016802 0.000000 -0.010330 0.000000
# 4 0.000000 0.000000 0.000000 0.051230 0.000000 -0.004375
# 5 0.010042 0.000024 -0.010330 0.000000 0.044549 0.000000
# 6 0.000000 0.000000 0.000000 -0.004375 0.000000 0.095701
#
#
# Mechanical properties :
#
#
# Convention : Reuss Voigt Hill
#
# Bulk Modulus (GPa) = 14.68951 37.98016 26.33484
# Shear Modulus (GPa) = 13.83386 20.80115 17.31751
#
# Velocity S-wave (km/s) = 2.53388 3.10712 2.83503
# Velocity P-wave (km/s) = 3.92153 5.52264 4.78947
#
# Compressibility (1/GPa) = 0.06807577
#
# Stress axis : x y z
#
# Youngs Moduli (GPa) = 13.04141 70.48386 59.51834
#
# Poissons Ratio (x) = -0.00670 0.80518
# Poissons Ratio (y) = -0.00124 0.37871
# Poissons Ratio (z) = 0.17643 0.44848
#
# Static dielectric constant tensor:
#      x y z
#    x 1.842920 0.000000 -0.009250 
#    y 0.000000 1.759570 0.000000 
#    z -0.009250 0.000000 1.871530 
# 
# From -- ./inp_files/192184.got.cif
#   From: 2010.05.17/outbox.cif.g08.bks.cpg/sg15_97_cif.got.tgz:192184.got - 2010.06.03 18:47:42.
