data_PCOD9257684
_publ_section_title
;
Structure prediction by ZEFSAII (Michael W. Deem and Ramdas Pophale) SiO2 
 PCOD9257684
Probable space group: C 2/C
;
_chemical_formula_sum "Si O2"
_cell_formula_units_Z 60
_cell_length_a 8.177018
_cell_length_b 19.268685
_cell_length_c 23.043545
_cell_angle_alpha 90.000000
_cell_angle_beta 76.022339
_cell_angle_gamma 90.000000
_cell_volume 3523.243209
_symmetry_space_group_name_H-M "C 2/C"
_symmetry_group_IT_number 15
_symmetry_cell_setting 'monoclinic'
loop_
_space_group_symop_operation_xyz
x,y,z
-x,y,1/2-z
-x,-y,-z
x,-y,1/2+z
1/2+x,1/2+y,z
1/2-x,1/2+y,1/2-z
1/2-x,1/2-y,-z
1/2+x,1/2-y,1/2+z
loop_
_atom_site_type_symbol
_atom_site_label
_atom_site_fract_x
_atom_site_fract_y
_atom_site_fract_z
Si Si1 0.210921 0.333462 0.128242
Si Si2 0.899111 0.167998 0.892037
Si Si3 0.181967 0.416583 0.010328
Si Si4 0.500000 0.195683 0.750000
Si Si5 0.313428 0.252319 0.292771
Si Si6 0.796547 0.424598 0.002020
Si Si7 0.753621 0.191976 0.085737
Si Si8 0.147239 0.791442 0.557564
O O1 0.402748 0.340930 0.131795
O O2 0.189694 0.380012 0.072607
O O3 0.180999 0.252776 0.112431
O O4 0.079684 0.347960 0.190476
O O5 0.815621 0.180722 0.836239
O O6 0.858848 0.242637 0.926007
O O7 0.820084 0.108917 0.938302
O O8 0.245391 0.495435 0.006243
O O9 0.286724 0.369490 0.955894
O O10 0.988331 0.418497 0.007259
O O11 0.341068 0.239085 0.738048
O O12 0.500000 0.246786 0.250000
O O13 0.283334 0.190846 0.342064
O O14 0.780455 0.377027 0.946578
O O15 0.949264 0.211182 0.062335
O O16 0.250000 0.750000 0.500000
#
# Coordination Sequence:
#
# PCOD9257684 Si02
#       8
#     8   8   8   4   8   8   8   8
#     4  11  20  34  56  83 110 144 184 233 273 326
#     4  10  20  33  56  83 110 142 182 228 283 328
#     4  10  23  34  53  82 110 149 182 222 285 337
#     4  12  18  36  58  80 114 142 186 240 270 324
#     4  10  21  35  54  87 107 146 189 230 281 320
#     4  11  20  37  53  78 116 146 179 229 281 339
#     4  10  20  33  54  80 110 141 178 229 275 326
#     4  10  18  32  51  81 110 133 178 221 278 331
#
# _framework density 17.029765000000001
#
# number of rings (size 3 to 8) (size 9 to 14) (size 15 to 20)
#    0.800    0.800    2.667    5.200    0.000    2.133 
#    0.000    0.000    1.467    0.000    5.200    0.000 
#    0.000    0.000    0.000    0.000    0.000    0.000 
#
# Total GULP energy -167140.104039 kJ/mol
# GULP energy per Si atom -5571.336801 kJ/mol
# Density = 1.699100 g / cm^3
# Si number density = 17.029765 Si / 1000 Ang^3
#
#
#
# Elastic Constant Matrix: (Units=GPa)
#
#
# Indices 1 2 3 4 5 6 
#
# 1 91.3920 25.5697 33.3495 0.0000 -1.3713 0.0000
# 2 25.5697 89.4303 41.6064 0.0000 -7.4558 0.0000
# 3 33.3495 41.6064 93.8178 0.0000 -3.8474 0.0000
# 4 0.0000 0.0000 0.0000 7.1938 0.0000 2.8629
# 5 -1.3713 -7.4558 -3.8474 0.0000 31.1473 0.0000
# 6 0.0000 0.0000 0.0000 2.8629 0.0000 21.4272
#
#
#
# Elastic Compliance Matrix: (Units=1/GPa)
#
#
# Indices 1 2 3 4 5 6 
#
# 1 0.012841 -0.001980 -0.003702 0.000000 -0.000366 0.000000
# 2 -0.001980 0.014609 -0.005664 0.000000 0.002710 0.000000
# 3 -0.003702 -0.005664 0.014498 0.000000 0.000272 0.000000
# 4 0.000000 0.000000 0.000000 0.146816 0.000000 -0.019616
# 5 -0.000366 0.002710 0.000272 0.000000 0.032772 0.000000
# 6 0.000000 0.000000 0.000000 -0.019616 0.000000 0.049291
#
#
# Mechanical properties :
#
#
# Convention : Reuss Voigt Hill
#
# Bulk Modulus (GPa) = 51.92884 52.85457 52.39171
# Shear Modulus (GPa) = 16.67022 23.56128 20.11575
#
# Velocity S-wave (km/s) = 3.13211 3.72363 3.44060
# Velocity P-wave (km/s) = 6.60601 7.04210 6.82754
#
# Compressibility (1/GPa) = 0.01925712
#
# Stress axis : x y z
#
# Youngs Moduli (GPa) = 77.87533 68.45111 68.97628
#
# Poissons Ratio (x) = 0.13552 0.25532
# Poissons Ratio (y) = 0.15418 0.39067
# Poissons Ratio (z) = 0.28826 0.38770
#
# Static dielectric constant tensor:
#      x y z
#    x 1.645930 0.000000 -0.017990 
#    y 0.000000 1.576680 0.000000 
#    z -0.017990 0.000000 1.620750 
# 
# From -- ./inp_files/289262.got.cif
#   From: 2010.05.17/outbox.cif.g08.bks.cpg/sg15_145_cif.got.tgz:289262.got - 2010.06.03 18:47:42.
