data_PCOD9257429
_publ_section_title
;
Structure prediction by ZEFSAII (Michael W. Deem and Ramdas Pophale) SiO2 
 PCOD9257429
Probable space group: C 2/C
;
_chemical_formula_sum "Si O2"
_cell_formula_units_Z 36
_cell_length_a 11.741597
_cell_length_b 9.686750
_cell_length_c 21.674828
_cell_angle_alpha 90.000000
_cell_angle_beta 147.420492
_cell_angle_gamma 90.000000
_cell_volume 1327.461659
_symmetry_space_group_name_H-M "C 2/C"
_symmetry_group_IT_number 15
_symmetry_cell_setting 'monoclinic'
loop_
_space_group_symop_operation_xyz
x,y,z
-x,y,1/2-z
-x,-y,-z
x,-y,1/2+z
1/2+x,1/2+y,z
1/2-x,1/2+y,1/2-z
1/2-x,1/2-y,-z
1/2+x,1/2-y,1/2+z
loop_
_atom_site_type_symbol
_atom_site_label
_atom_site_fract_x
_atom_site_fract_y
_atom_site_fract_z
Si Si1 0.580486 0.318066 0.503105
Si Si2 0.065529 0.475920 0.343621
Si Si3 0.962278 0.776475 0.319546
Si Si4 0.611969 0.109976 0.004724
Si Si5 0.500000 0.507252 0.250000
O O1 0.700097 0.461599 0.560230
O O2 0.425512 0.305058 0.374080
O O3 0.474629 0.257689 0.514614
O O4 0.781727 0.218006 0.575839
O O5 0.920592 0.617722 0.282697
O O6 0.073562 0.412201 0.414992
O O7 0.000000 0.404577 0.250000
O O8 0.876221 0.898964 0.238406
O O9 0.854402 0.094057 0.137556
O O10 0.500000 0.000000 0.000000
#
# Coordination Sequence:
#
# PCOD9257429 Si02
#       5
#     8   8   8   8   4
#     4   9  16  31  49  80 123 155 202 248 318 358
#     4  10  18  31  53  87 127 156 200 264 309 371
#     4   9  14  28  48  78 118 151 192 256 297 362
#     4  12  19  31  55  91 122 161 208 260 309 376
#     4  12  18  28  52  90 126 144 212 260 286 386
#
# _framework density 27.119427000000002
#
# number of rings (size 3 to 8) (size 9 to 14) (size 15 to 20)
#    1.333    0.444    7.778    0.000    0.000    0.000 
#    0.000    0.000    0.000    1.333    5.778    6.222 
#    0.000    0.000    0.000    0.000    0.000    0.000 
#
# Total GULP energy -100648.959564 kJ/mol
# GULP energy per Si atom -5591.608865 kJ/mol
# Density = 2.705770 g / cm^3
# Si number density = 27.119427 Si / 1000 Ang^3
#
#
#
# Elastic Constant Matrix: (Units=GPa)
#
#
# Indices 1 2 3 4 5 6 
#
# 1 127.2711 63.9833 91.2891 0.0000 -47.6266 0.0000
# 2 63.9833 109.5266 49.9908 0.0000 -21.2404 0.0000
# 3 91.2891 49.9908 201.9528 0.0000 -73.0524 0.0000
# 4 0.0000 0.0000 0.0000 22.0477 0.0000 -8.3139
# 5 -47.6266 -21.2404 -73.0524 0.0000 52.1867 0.0000
# 6 0.0000 0.0000 0.0000 -8.3139 0.0000 43.4721
#
#
#
# Elastic Compliance Matrix: (Units=1/GPa)
#
#
# Indices 1 2 3 4 5 6 
#
# 1 0.016254 -0.006651 -0.002663 0.000000 0.008400 0.000000
# 2 -0.006651 0.013056 -0.001010 0.000000 -0.002171 0.000000
# 3 -0.002663 -0.001010 0.010894 0.000000 0.012408 0.000000
# 4 0.000000 0.000000 0.000000 0.048881 0.000000 0.009348
# 5 0.008400 -0.002171 0.012408 0.000000 0.043314 0.000000
# 6 0.000000 0.000000 0.000000 0.009348 0.000000 0.024791
#
#
# Mechanical properties :
#
#
# Convention : Reuss Voigt Hill
#
# Bulk Modulus (GPa) = 51.13660 94.36408 72.75034
# Shear Modulus (GPa) = 27.12138 39.10713 33.11425
#
# Velocity S-wave (km/s) = 3.16582 3.80153 3.49815
# Velocity P-wave (km/s) = 5.67981 7.35800 6.57269
#
# Compressibility (1/GPa) = 0.01955547
#
# Stress axis : x y z
#
# Youngs Moduli (GPa) = 61.52334 76.59370 91.79551
#
# Poissons Ratio (x) = 0.50943 0.24441
# Poissons Ratio (y) = 0.40920 0.09276
# Poissons Ratio (z) = 0.16381 0.07740
#
# Static dielectric constant tensor:
#      x y z
#    x 2.152820 0.000000 0.090250 
#    y 0.000000 2.145640 0.000000 
#    z 0.090250 0.000000 2.178560 
# 
# From -- ./inp_files/196391.got.cif
#   From: 2010.05.17/outbox.cif.g08.bks.cpg/sg15_99_cif.got.tgz:196391.got - 2010.06.03 18:47:42.
