data_PCOD9257902
_publ_section_title
;
Structure prediction by ZEFSAII (Michael W. Deem and Ramdas Pophale) SiO2 
 PCOD9257902
Probable space group: C 2/C
;
_chemical_formula_sum "Si O2"
_cell_formula_units_Z 60
_cell_length_a 19.495494
_cell_length_b 13.390448
_cell_length_c 24.520342
_cell_angle_alpha 90.000000
_cell_angle_beta 148.880496
_cell_angle_gamma 90.000000
_cell_volume 3308.256720
_symmetry_space_group_name_H-M "C 2/C"
_symmetry_group_IT_number 15
_symmetry_cell_setting 'monoclinic'
loop_
_space_group_symop_operation_xyz
x,y,z
-x,y,1/2-z
-x,-y,-z
x,-y,1/2+z
1/2+x,1/2+y,z
1/2-x,1/2+y,1/2-z
1/2-x,1/2-y,-z
1/2+x,1/2-y,1/2+z
loop_
_atom_site_type_symbol
_atom_site_label
_atom_site_fract_x
_atom_site_fract_y
_atom_site_fract_z
Si Si1 0.706589 0.909718 0.065497
Si Si2 0.214371 0.746419 0.667588
Si Si3 0.933521 0.828454 0.498705
Si Si4 0.000000 0.040685 0.750000
Si Si5 0.676843 0.877816 0.607383
Si Si6 0.427957 0.099014 0.343385
Si Si7 0.774912 0.924973 0.292027
Si Si8 0.445505 0.564746 0.326651
O O1 0.697946 0.821347 0.103462
O O2 0.858138 0.905095 0.148654
O O3 0.683399 0.017667 0.079389
O O4 0.584903 0.901247 0.940566
O O5 0.348389 0.810932 0.761328
O O6 0.219715 0.669687 0.721607
O O7 0.087866 0.818277 0.586525
O O8 0.876694 0.716234 0.462076
O O9 0.854605 0.888661 0.398967
O O10 0.939572 0.884128 0.560383
O O11 0.009875 0.979408 0.700418
O O12 0.589677 0.889017 0.602757
O O13 0.826008 0.859705 0.730482
O O14 0.345804 0.998611 0.275238
O O15 0.873018 0.982521 0.316216
#
# Coordination Sequence:
#
# PCOD9257902 Si02
#       8
#     8   8   8   4   8   8   8   8
#     4  11  21  38  57  77 114 157 196 229 272 342
#     4  12  19  32  57  87 121 143 187 238 296 347
#     4  12  20  32  59  93 119 142 178 251 309 333
#     4  10  22  42  62  72 114 172 202 216 260 362
#     4  10  18  32  55  84 112 142 184 236 290 343
#     4  11  20  32  53  87 116 143 185 243 296 334
#     4  11  20  34  55  88 121 145 181 247 303 335
#     4  10  21  37  55  83 114 154 196 226 285 341
#
# _framework density 18.13644
#
# number of rings (size 3 to 8) (size 9 to 14) (size 15 to 20)
#    0.000    1.067    9.333    1.600    0.000    0.000 
#    0.000    3.333    0.000    0.800    0.000    0.000 
#    0.000    0.000    0.000    0.000    0.000    0.000 
#
# Total GULP energy -167340.332585 kJ/mol
# GULP energy per Si atom -5578.011086 kJ/mol
# Density = 1.809516 g / cm^3
# Si number density = 18.136440 Si / 1000 Ang^3
#
#
#
# Elastic Constant Matrix: (Units=GPa)
#
#
# Indices 1 2 3 4 5 6 
#
# 1 44.9483 13.2700 31.3084 0.0001 7.9729 0.0001
# 2 13.2700 72.3454 51.8866 0.0001 2.9956 0.0001
# 3 31.3084 51.8866 142.6879 0.0002 15.6023 0.0001
# 4 0.0001 0.0001 0.0002 42.7985 0.0001 1.4543
# 5 7.9729 2.9956 15.6023 0.0001 21.4605 0.0001
# 6 0.0001 0.0001 0.0001 1.4543 0.0001 9.1944
#
#
#
# Elastic Compliance Matrix: (Units=1/GPa)
#
#
# Indices 1 2 3 4 5 6 
#
# 1 0.027091 -0.001276 -0.004779 0.000000 -0.006412 0.000000
# 2 -0.001276 0.018887 -0.006900 0.000000 0.002854 0.000000
# 3 -0.004779 -0.006900 0.011153 0.000000 -0.005370 0.000000
# 4 0.000000 0.000000 0.000000 0.023492 0.000000 -0.003716
# 5 -0.006412 0.002854 -0.005370 0.000000 0.052485 0.000000
# 6 0.000000 0.000000 0.000000 -0.003716 0.000000 0.109350
#
#
# Mechanical properties :
#
#
# Convention : Reuss Voigt Hill
#
# Bulk Modulus (GPa) = 32.03013 50.32350 41.17681
# Shear Modulus (GPa) = 17.93557 25.59177 21.76367
#
# Velocity S-wave (km/s) = 3.14813 3.76050 3.46786
# Velocity P-wave (km/s) = 5.55997 6.83100 6.22799
#
# Compressibility (1/GPa) = 0.03122061
#
# Stress axis : x y z
#
# Youngs Moduli (GPa) = 36.91310 52.94543 89.65957
#
# Poissons Ratio (x) = 0.06756 0.42849
# Poissons Ratio (y) = 0.04710 0.61867
# Poissons Ratio (z) = 0.17641 0.36534
#
# Static dielectric constant tensor:
#      x y z
#    x 1.632010 0.000000 0.026050 
#    y 0.000000 1.641890 0.000000 
#    z 0.026050 0.000000 1.663370 
# 
# From -- ./inp_files/280196.got.cif
#   From: 2010.05.17/outbox.cif.g08.bks.cpg/sg15_141_cif.got.tgz:280196.got - 2010.06.03 18:47:42.
