data_PCOD9257566
_publ_section_title
;
Structure prediction by ZEFSAII (Michael W. Deem and Ramdas Pophale) SiO2 
 PCOD9257566
Probable space group: C 2/C
;
_chemical_formula_sum "Si O2"
_cell_formula_units_Z 44
_cell_length_a 15.081317
_cell_length_b 7.990915
_cell_length_c 18.109909
_cell_angle_alpha 90.000000
_cell_angle_beta 131.403472
_cell_angle_gamma 90.000000
_cell_volume 1637.021635
_symmetry_space_group_name_H-M "C 2/C"
_symmetry_group_IT_number 15
_symmetry_cell_setting 'monoclinic'
loop_
_space_group_symop_operation_xyz
x,y,z
-x,y,1/2-z
-x,-y,-z
x,-y,1/2+z
1/2+x,1/2+y,z
1/2-x,1/2+y,1/2-z
1/2-x,1/2-y,-z
1/2+x,1/2-y,1/2+z
loop_
_atom_site_type_symbol
_atom_site_label
_atom_site_fract_x
_atom_site_fract_y
_atom_site_fract_z
Si Si1 0.336136 0.180763 0.422504
Si Si2 0.927492 0.160033 0.285383
Si Si3 0.737478 0.842873 0.069866
Si Si4 0.837850 0.962853 0.878601
Si Si5 0.500000 0.730797 0.750000
Si Si6 0.930448 0.476534 0.832412
O O1 0.206880 0.187359 0.313253
O O2 0.363636 0.377936 0.445485
O O3 0.315024 0.029200 0.468177
O O4 0.420259 0.100251 0.407330
O O5 0.971882 0.333344 0.346730
O O6 0.000000 0.136651 0.250000
O O7 0.918967 0.031809 0.349521
O O8 0.662968 0.717508 0.081654
O O9 0.870602 0.855376 0.177778
O O10 0.750000 0.750000 0.000000
O O11 0.703082 0.974566 0.774616
O O12 0.503046 0.852178 0.821719
#
# Coordination Sequence:
#
# PCOD9257566 Si02
#       6
#     8   8   8   8   4   8
#     4  10  21  36  59  92 129 173 210 267 329 385
#     4  10  18  31  60  99 128 163 223 271 313 390
#     4  11  24  43  66  96 135 174 218 274 328 388
#     4   9  20  36  59  89 133 171 216 266 332 383
#     4  10  22  38  68 100 124 172 228 262 328 398
#     4   9  17  34  58  93 126 166 213 263 320 389
#
# _framework density 26.878081999999999
#
# number of rings (size 3 to 8) (size 9 to 14) (size 15 to 20)
#    0.000    2.182    2.727    0.000    8.909    0.727 
#    0.000    0.909    0.000    2.182    0.000    0.000 
#    0.000    0.000    0.000    0.000    0.000    0.000 
#
# Total GULP energy -123058.503241 kJ/mol
# GULP energy per Si atom -5593.568329 kJ/mol
# Density = 2.681691 g / cm^3
# Si number density = 26.878082 Si / 1000 Ang^3
#
#
#
# Elastic Constant Matrix: (Units=GPa)
#
#
# Indices 1 2 3 4 5 6 
#
# 1 148.6561 60.3352 29.0343 0.0000 -15.6251 0.0000
# 2 60.3352 177.3816 31.8453 0.0000 10.9197 0.0000
# 3 29.0343 31.8453 83.2016 0.0000 25.4612 0.0000
# 4 0.0000 0.0000 0.0000 25.1551 0.0000 3.1827
# 5 -15.6251 10.9197 25.4612 0.0000 24.6395 0.0000
# 6 0.0000 0.0000 0.0000 3.1827 0.0000 22.7250
#
#
#
# Elastic Compliance Matrix: (Units=1/GPa)
#
#
# Indices 1 2 3 4 5 6 
#
# 1 0.011474 -0.003539 -0.007833 0.000000 0.016938 0.000000
# 2 -0.003539 0.007148 0.000227 0.000000 -0.005647 0.000000
# 3 -0.007833 0.000227 0.023716 0.000000 -0.029574 0.000000
# 4 0.000000 0.000000 0.000000 0.040471 0.000000 -0.005668
# 5 0.016938 -0.005647 -0.029574 0.000000 0.084390 0.000000
# 6 0.000000 0.000000 0.000000 -0.005668 0.000000 0.044798
#
#
# Mechanical properties :
#
#
# Convention : Reuss Voigt Hill
#
# Bulk Modulus (GPa) = 49.88007 72.40765 61.14386
# Shear Modulus (GPa) = 20.74959 33.70554 27.22756
#
# Velocity S-wave (km/s) = 2.78148 3.54505 3.18622
# Velocity P-wave (km/s) = 5.37715 6.61470 6.02777
#
# Compressibility (1/GPa) = 0.02004809
#
# Stress axis : x y z
#
# Youngs Moduli (GPa) = 87.15656 139.89427 42.16619
#
# Poissons Ratio (x) = 0.49511 0.33028
# Poissons Ratio (y) = 0.30847 -0.00958
# Poissons Ratio (z) = 0.68267 -0.03178
#
# Static dielectric constant tensor:
#      x y z
#    x 2.070840 0.000000 0.051290 
#    y 0.000000 2.181560 0.000000 
#    z 0.051290 0.000000 2.129800 
# 
# From -- ./inp_files/242631.got.cif
#   From: 2010.05.17/outbox.cif.g08.bks.cpg/sg15_122_cif.got.tgz:242631.got - 2010.06.03 18:47:42.
