data_PCOD9257500
_publ_section_title
;
Structure prediction by ZEFSAII (Michael W. Deem and Ramdas Pophale) SiO2 
 PCOD9257500
Probable space group: C 2/C
;
_chemical_formula_sum "Si O2"
_cell_formula_units_Z 36
_cell_length_a 14.550362
_cell_length_b 22.463016
_cell_length_c 9.107307
_cell_angle_alpha 90.000000
_cell_angle_beta 42.861342
_cell_angle_gamma 90.000000
_cell_volume 2024.815064
_symmetry_space_group_name_H-M "C 2/C"
_symmetry_group_IT_number 15
_symmetry_cell_setting 'monoclinic'
loop_
_space_group_symop_operation_xyz
x,y,z
-x,y,1/2-z
-x,-y,-z
x,-y,1/2+z
1/2+x,1/2+y,z
1/2-x,1/2+y,1/2-z
1/2-x,1/2-y,-z
1/2+x,1/2-y,1/2+z
loop_
_atom_site_type_symbol
_atom_site_label
_atom_site_fract_x
_atom_site_fract_y
_atom_site_fract_z
Si Si1 0.388334 0.822868 0.253147
Si Si2 0.500000 0.505232 0.250000
Si Si3 0.390539 0.309726 0.748907
Si Si4 0.530168 0.937932 0.042830
Si Si5 0.850723 0.926672 0.666367
O O1 0.500000 0.819509 0.250000
O O2 0.385241 0.756754 0.188300
O O3 0.247090 0.826959 0.504013
O O4 0.435000 0.881373 0.109054
O O5 0.412300 0.465082 0.462759
O O6 0.598737 0.543709 0.239286
O O7 0.500000 0.311319 0.750000
O O8 0.409972 0.360147 0.605098
O O9 0.500000 0.946617 0.250000
O O10 0.689067 0.924316 0.840603
O O11 0.500000 0.000000 0.000000
#
# Coordination Sequence:
#
# PCOD9257500 Si02
#       5
#     8   4   8   8   8
#     4   9  18  32  51  85 106 141 185 228 273 328
#     4  10  24  34  54  82 114 148 192 224 288 332
#     4  10  18  31  56  80 109 141 187 232 269 323
#     4  11  21  35  58  83 113 145 186 230 286 336
#     4  11  20  37  54  81 112 149 185 234 277 340
#
# _framework density 17.779402000000001
#
# number of rings (size 3 to 8) (size 9 to 14) (size 15 to 20)
#    0.000    1.778    5.556    1.333    0.000    0.000 
#    0.000    0.000    2.444    1.333    0.000    0.000 
#    0.000    0.000    0.000    0.000    0.000    0.000 
#
# Total GULP energy -100238.019141 kJ/mol
# GULP energy per Si atom -5568.778841 kJ/mol
# Density = 1.773894 g / cm^3
# Si number density = 17.779402 Si / 1000 Ang^3
#
#
#
# Elastic Constant Matrix: (Units=GPa)
#
#
# Indices 1 2 3 4 5 6 
#
# 1 48.7856 30.1559 26.5407 0.0000 -14.7658 0.0000
# 2 30.1559 185.6707 37.2501 0.0000 3.9036 0.0000
# 3 26.5407 37.2501 60.2827 0.0000 -14.0931 0.0000
# 4 0.0000 0.0000 0.0000 30.3956 0.0000 -5.2830
# 5 -14.7658 3.9036 -14.0931 0.0000 32.9983 0.0000
# 6 0.0000 0.0000 0.0000 -5.2830 0.0000 22.7113
#
#
#
# Elastic Compliance Matrix: (Units=1/GPa)
#
#
# Indices 1 2 3 4 5 6 
#
# 1 0.030571 -0.003380 -0.008976 0.000000 0.010246 0.000000
# 2 -0.003380 0.006731 -0.003567 0.000000 -0.003832 0.000000
# 3 -0.008976 -0.003567 0.024334 0.000000 0.006798 0.000000
# 4 0.000000 0.000000 0.000000 0.034286 0.000000 0.007975
# 5 0.010246 -0.003832 0.006798 0.000000 0.038246 0.000000
# 6 0.000000 0.000000 0.000000 0.007975 0.000000 0.045886
#
#
# Mechanical properties :
#
#
# Convention : Reuss Voigt Hill
#
# Bulk Modulus (GPa) = 33.56759 53.62581 43.59670
# Shear Modulus (GPa) = 22.53982 30.60721 26.57352
#
# Velocity S-wave (km/s) = 3.56441 4.15360 3.87023
# Velocity P-wave (km/s) = 5.98841 7.29592 6.67426
#
# Compressibility (1/GPa) = 0.02979064
#
# Stress axis : x y z
#
# Youngs Moduli (GPa) = 32.71042 148.56539 41.09530
#
# Poissons Ratio (x) = 0.50214 0.36886
# Poissons Ratio (y) = 0.11056 0.14659
# Poissons Ratio (z) = 0.29360 0.52994
#
# Static dielectric constant tensor:
#      x y z
#    x 1.591410 0.000000 0.012850 
#    y 0.000000 1.718150 0.000000 
#    z 0.012850 0.000000 1.502270 
# 
# From -- ./inp_files/30574.got.cif
#   From: 2010.05.17/outbox.cif.g08.bks.cpg/sg15_16_cif.got.tgz:30574.got - 2010.06.03 18:47:42.
