data_PCOD9257550
_publ_section_title
;
Structure prediction by ZEFSAII (Michael W. Deem and Ramdas Pophale) SiO2 
 PCOD9257550
Probable space group: C 2/C
;
_chemical_formula_sum "Si O2"
_cell_formula_units_Z 48
_cell_length_a 10.749200
_cell_length_b 15.506981
_cell_length_c 20.583312
_cell_angle_alpha 90.000000
_cell_angle_beta 144.900770
_cell_angle_gamma 90.000000
_cell_volume 1972.795925
_symmetry_space_group_name_H-M "C 2/C"
_symmetry_group_IT_number 15
_symmetry_cell_setting 'monoclinic'
loop_
_space_group_symop_operation_xyz
x,y,z
-x,y,1/2-z
-x,-y,-z
x,-y,1/2+z
1/2+x,1/2+y,z
1/2-x,1/2+y,1/2-z
1/2-x,1/2-y,-z
1/2+x,1/2-y,1/2+z
loop_
_atom_site_type_symbol
_atom_site_label
_atom_site_fract_x
_atom_site_fract_y
_atom_site_fract_z
Si Si1 0.208049 0.456023 0.939513
Si Si2 0.853957 0.682191 0.811875
Si Si3 0.870478 0.784590 0.987925
Si Si4 0.660846 0.930708 0.535605
Si Si5 0.500000 0.076393 0.750000
Si Si6 0.702283 0.843139 0.678404
Si Si7 0.000000 0.797257 0.250000
O O1 0.384112 0.385550 0.997171
O O2 0.278188 0.514651 0.030085
O O3 0.159674 0.513750 0.857121
O O4 0.984138 0.401906 0.864603
O O5 0.844347 0.785210 0.788904
O O6 0.617187 0.656144 0.740274
O O7 0.027037 0.642695 0.937698
O O8 0.901712 0.633764 0.765380
O O9 0.702379 0.758118 0.860740
O O10 0.750000 0.750000 0.000000
O O11 0.087108 0.732378 0.086637
O O12 0.783461 0.897782 0.651647
O O13 0.500000 0.000000 0.500000
#
# Coordination Sequence:
#
# PCOD9257550 Si02
#       7
#     8   8   8   8   4   8   4
#     4   9  18  33  57  81 115 162 195 236 304 376
#     4  11  22  36  60  90 117 162 201 255 293 366
#     4  10  18  31  58  95 111 145 208 257 287 353
#     4   9  19  35  56  86 121 158 197 243 310 371
#     4  10  23  40  52  83 126 156 198 240 319 364
#     4  10  19  34  61  91 115 149 214 255 292 353
#     4  12  19  32  64  91 116 148 210 252 291 340
#
# _framework density 24.330950000000001
#
# number of rings (size 3 to 8) (size 9 to 14) (size 15 to 20)
#    0.000    2.000    5.000    0.500    0.000    0.000 
#    0.000    4.167    0.000   15.000    0.000    0.000 
#    0.000    0.000    0.000    0.000    0.000    0.000 
#
# Total GULP energy -133711.958755 kJ/mol
# GULP energy per Si atom -5571.331615 kJ/mol
# Density = 2.427557 g / cm^3
# Si number density = 24.330950 Si / 1000 Ang^3
#
#
#
# Elastic Constant Matrix: (Units=GPa)
#
#
# Indices 1 2 3 4 5 6 
#
# 1 99.9998 37.3937 39.2174 -0.0001 -33.5576 0.0000
# 2 37.3937 79.7432 21.8311 -0.0001 -1.2868 0.0000
# 3 39.2174 21.8311 77.6901 -0.0004 -9.5701 -0.0001
# 4 -0.0001 -0.0001 -0.0004 32.7216 -0.0001 -14.2863
# 5 -33.5576 -1.2868 -9.5701 -0.0001 38.2140 0.0000
# 6 0.0000 0.0000 -0.0001 -14.2863 0.0000 13.1421
#
#
#
# Elastic Compliance Matrix: (Units=1/GPa)
#
#
# Indices 1 2 3 4 5 6 
#
# 1 0.020978 -0.007832 -0.006348 0.000000 0.016568 0.000000
# 2 -0.007832 0.016519 -0.001514 0.000000 -0.006701 0.000000
# 3 -0.006348 -0.001514 0.016312 0.000000 -0.001540 0.000001
# 4 0.000000 0.000000 0.000000 0.058168 0.000000 0.063233
# 5 0.016568 -0.006701 -0.001540 0.000000 0.040107 0.000000
# 6 0.000000 0.000000 0.000001 0.063233 0.000000 0.144830
#
#
# Mechanical properties :
#
#
# Convention : Reuss Voigt Hill
#
# Bulk Modulus (GPa) = 44.59965 50.47971 47.53968
# Shear Modulus (GPa) = 14.89093 27.41495 21.15294
#
# Velocity S-wave (km/s) = 2.47658 3.36035 2.95173
# Velocity P-wave (km/s) = 5.15249 5.98733 5.58553
#
# Compressibility (1/GPa) = 0.02242170
#
# Stress axis : x y z
#
# Youngs Moduli (GPa) = 47.66860 60.53564 61.30589
#
# Poissons Ratio (x) = 0.47412 0.38916
# Poissons Ratio (y) = 0.37334 0.09280
# Poissons Ratio (z) = 0.30259 0.09164
#
# Static dielectric constant tensor:
#      x y z
#    x 1.988870 0.000000 -0.023440 
#    y 0.000000 2.052500 0.000000 
#    z -0.023440 0.000000 2.030770 
# 
# From -- ./inp_files/239048.got.cif
#   From: 2010.05.17/outbox.cif.g08.bks.cpg/sg15_120_cif.got.tgz:239048.got - 2010.06.03 18:47:42.
