data_PCOD9257322
_publ_section_title
;
Structure prediction by ZEFSAII (Michael W. Deem and Ramdas Pophale) SiO2 
 PCOD9257322
Probable space group: C 2/C
;
_chemical_formula_sum "Si O2"
_cell_formula_units_Z 56
_cell_length_a 13.178921
_cell_length_b 20.769840
_cell_length_c 11.463167
_cell_angle_alpha 90.000000
_cell_angle_beta 133.869518
_cell_angle_gamma 90.000000
_cell_volume 2262.062724
_symmetry_space_group_name_H-M "C 2/C"
_symmetry_group_IT_number 15
_symmetry_cell_setting 'monoclinic'
loop_
_space_group_symop_operation_xyz
x,y,z
-x,y,1/2-z
-x,-y,-z
x,-y,1/2+z
1/2+x,1/2+y,z
1/2-x,1/2+y,1/2-z
1/2-x,1/2-y,-z
1/2+x,1/2-y,1/2+z
loop_
_atom_site_type_symbol
_atom_site_label
_atom_site_fract_x
_atom_site_fract_y
_atom_site_fract_z
Si Si1 0.598219 0.368889 0.631784
Si Si2 0.160817 0.694557 0.312425
Si Si3 0.957154 0.482955 0.336326
Si Si4 0.687139 0.129803 0.984834
Si Si5 0.979775 0.270228 0.044596
Si Si6 0.676554 0.426867 0.135805
Si Si7 0.721583 0.170789 0.605022
O O1 0.698497 0.346134 0.606450
O O2 0.694792 0.380119 0.821627
O O3 0.500939 0.305321 0.571852
O O4 0.489894 0.426011 0.516812
O O5 0.093703 0.701541 0.130763
O O6 0.173196 0.771847 0.346813
O O7 0.125721 0.664943 0.412138
O O8 0.786809 0.485094 0.210897
O O9 0.000000 0.518360 0.250000
O O10 0.000000 0.500000 0.500000
O O11 0.053396 0.417577 0.400527
O O12 0.617623 0.200026 0.934059
O O13 0.758118 0.113587 0.919977
O O14 0.134301 0.298930 0.143497
O O15 0.709323 0.392376 0.285919
#
# Coordination Sequence:
#
# PCOD9257322 Si02
#       7
#     8   8   8   8   8   8   8
#     4  10  21  36  56  90 128 166 203 240 293 356
#     4   9  19  32  48  76 126 169 201 242 273 342
#     4  10  23  47  73  92 118 150 204 268 328 386
#     4  10  22  39  60  89 124 158 204 252 302 366
#     4  10  18  34  52  85 125 166 205 241 281 342
#     4  11  21  39  60  88 119 161 199 251 309 360
#     4  10  18  31  51  76 115 169 207 233 287 338
#
# _framework density 24.756163999999998
#
# number of rings (size 3 to 8) (size 9 to 14) (size 15 to 20)
#    0.000    2.000    2.857    0.857    0.000    1.143 
#   10.286    0.714    0.000    0.000    0.000    0.000 
#    0.000    0.000    0.000    0.000    0.000    0.000 
#
# Total GULP energy -155889.141332 kJ/mol
# GULP energy per Si atom -5567.469333 kJ/mol
# Density = 2.469982 g / cm^3
# Si number density = 24.756164 Si / 1000 Ang^3
#
#
#
# Elastic Constant Matrix: (Units=GPa)
#
#
# Indices 1 2 3 4 5 6 
#
# 1 52.3856 16.5918 25.7620 0.0000 -14.4953 0.0000
# 2 16.5918 32.4352 9.5636 0.0000 -0.2953 0.0000
# 3 25.7620 9.5636 130.8011 0.0000 -11.0603 0.0000
# 4 0.0000 0.0000 0.0000 26.5695 0.0000 -4.5699
# 5 -14.4953 -0.2953 -11.0603 0.0000 50.3799 0.0000
# 6 0.0000 0.0000 0.0000 -4.5699 0.0000 10.3169
#
#
#
# Elastic Compliance Matrix: (Units=1/GPa)
#
#
# Indices 1 2 3 4 5 6 
#
# 1 0.026805 -0.012533 -0.003787 0.000000 0.006807 0.000000
# 2 -0.012533 0.037375 -0.000561 0.000000 -0.003510 0.000000
# 3 -0.003787 -0.000561 0.008497 0.000000 0.000773 0.000000
# 4 0.000000 0.000000 0.000000 0.040741 0.000000 0.018046
# 5 0.006807 -0.003510 0.000773 0.000000 0.021957 0.000000
# 6 0.000000 0.000000 0.000000 0.018046 0.000000 0.104922
#
#
# Mechanical properties :
#
#
# Convention : Reuss Voigt Hill
#
# Bulk Modulus (GPa) = 25.69723 35.49521 30.59622
# Shear Modulus (GPa) = 17.41966 28.36688 22.89327
#
# Velocity S-wave (km/s) = 2.65552 3.38871 3.04427
# Velocity P-wave (km/s) = 4.45028 5.44796 4.97420
#
# Compressibility (1/GPa) = 0.03891469
#
# Stress axis : x y z
#
# Youngs Moduli (GPa) = 37.30654 26.75561 117.68180
#
# Poissons Ratio (x) = 0.33533 0.44571
# Poissons Ratio (y) = 0.46757 0.06603
# Poissons Ratio (z) = 0.14129 0.01501
#
# Static dielectric constant tensor:
#      x y z
#    x 2.090030 0.000000 0.063910 
#    y 0.000000 3.106620 0.000000 
#    z 0.063910 0.000000 2.113030 
# 
# From -- ./inp_files/101124.got.cif
#   From: 2010.05.17/outbox.cif.g08.bks.cpg/sg15_51_cif.got.tgz:101124.got - 2010.06.03 18:47:42.
