data_PCOD9257925
_publ_section_title
;
Structure prediction by ZEFSAII (Michael W. Deem and Ramdas Pophale) SiO2 
 PCOD9257925
Probable space group: C 2/C
;
_chemical_formula_sum "Si O2"
_cell_formula_units_Z 64
_cell_length_a 8.123540
_cell_length_b 15.268511
_cell_length_c 25.442036
_cell_angle_alpha 90.000000
_cell_angle_beta 123.085869
_cell_angle_gamma 90.000000
_cell_volume 2644.002717
_symmetry_space_group_name_H-M "C 2/C"
_symmetry_group_IT_number 15
_symmetry_cell_setting 'monoclinic'
loop_
_space_group_symop_operation_xyz
x,y,z
-x,y,1/2-z
-x,-y,-z
x,-y,1/2+z
1/2+x,1/2+y,z
1/2-x,1/2+y,1/2-z
1/2-x,1/2-y,-z
1/2+x,1/2-y,1/2+z
loop_
_atom_site_type_symbol
_atom_site_label
_atom_site_fract_x
_atom_site_fract_y
_atom_site_fract_z
Si Si1 0.255394 0.843723 0.089044
Si Si2 0.899221 0.079353 0.042760
Si Si3 0.882562 0.166545 0.145056
Si Si4 0.381972 0.336843 0.102425
Si Si5 0.818756 0.512481 0.158186
Si Si6 0.443864 0.487836 0.299634
Si Si7 0.619081 0.072177 0.487301
Si Si8 0.018624 0.343045 0.646422
O O1 0.404519 0.763779 0.125751
O O2 0.064942 0.831480 0.093521
O O3 0.359587 0.932600 0.126037
O O4 0.165277 0.857139 0.015532
O O5 0.798450 0.117396 0.078147
O O6 0.124606 0.062505 0.099653
O O7 0.819015 0.983917 0.012874
O O8 0.033391 0.092540 0.189542
O O9 0.741849 0.177014 0.170737
O O10 0.410060 0.424703 0.141526
O O11 0.400643 0.245915 0.136375
O O12 0.181280 0.347812 0.035639
O O13 0.758066 0.471746 0.203791
O O14 0.984807 0.585190 0.184566
O O15 0.500000 0.467217 0.250000
O O16 0.550704 0.110361 0.420119
O O17 0.500000 0.000000 0.500000
#
# Coordination Sequence:
#
# PCOD9257925 Si02
#       8
#     8   8   8   8   8   8   8   8
#     4  10  18  32  56  77 113 153 181 224 271 331
#     4  11  18  33  51  80 120 161 189 210 263 343
#     4  10  21  36  53  85 114 146 192 230 276 339
#     4  10  21  37  54  83 114 150 197 227 276 343
#     4  10  20  36  56  81 111 146 193 224 273 338
#     4  10  21  44  65  75 102 148 191 242 290 336
#     4  12  19  32  52  84 125 162 184 222 277 330
#     4  11  21  34  57  87 119 149 179 234 280 334
#
# _framework density 24.205724
#
# number of rings (size 3 to 8) (size 9 to 14) (size 15 to 20)
#    0.000    1.500    6.250    1.875    0.000    1.000 
#    4.500    4.375    0.000    0.000    0.000    0.000 
#    0.000    0.000    0.000    0.000    0.000    0.000 
#
# Total GULP energy -178452.379232 kJ/mol
# GULP energy per Si atom -5576.636851 kJ/mol
# Density = 2.415063 g / cm^3
# Si number density = 24.205724 Si / 1000 Ang^3
#
#
#
# Elastic Constant Matrix: (Units=GPa)
#
#
# Indices 1 2 3 4 5 6 
#
# 1 30.8288 1.9364 8.6277 0.0000 -13.5813 0.0000
# 2 1.9364 117.4113 7.8802 0.0000 1.4442 0.0000
# 3 8.6277 7.8802 88.0397 0.0000 -28.8240 0.0000
# 4 0.0000 0.0000 0.0000 17.5286 0.0000 -3.0964
# 5 -13.5813 1.4442 -28.8240 0.0000 28.6208 0.0000
# 6 0.0000 0.0000 0.0000 -3.0964 0.0000 28.7411
#
#
#
# Elastic Compliance Matrix: (Units=1/GPa)
#
#
# Indices 1 2 3 4 5 6 
#
# 1 0.041927 -0.001238 0.003784 0.000000 0.023769 0.000000
# 2 -0.001238 0.008668 -0.001477 0.000000 -0.002512 0.000000
# 3 0.003784 -0.001477 0.017503 0.000000 0.019498 0.000000
# 4 0.000000 0.000000 0.000000 0.058156 0.000000 0.006265
# 5 0.023769 -0.002512 0.019498 0.000000 0.065981 0.000000
# 6 0.000000 0.000000 0.000000 0.006265 0.000000 0.035468
#
#
# Mechanical properties :
#
#
# Convention : Reuss Voigt Hill
#
# Bulk Modulus (GPa) = 14.23771 30.35204 22.29487
# Shear Modulus (GPa) = 20.08211 29.50048 24.79129
#
# Velocity S-wave (km/s) = 2.88348 3.49483 3.20377
# Velocity P-wave (km/s) = 4.12076 5.37136 4.78708
#
# Compressibility (1/GPa) = 0.07023602
#
# Stress axis : x y z
#
# Youngs Moduli (GPa) = 23.85098 115.37339 57.13165
#
# Poissons Ratio (x) = 0.14281 -0.21618
# Poissons Ratio (y) = 0.02952 0.08438
# Poissons Ratio (z) = -0.09025 0.17041
#
# Static dielectric constant tensor:
#      x y z
#    x 2.054080 0.000000 0.032720 
#    y 0.000000 1.945930 0.000000 
#    z 0.032720 0.000000 1.994000 
# 
# From -- ./inp_files/288810.got.cif
#   From: 2010.05.17/outbox.cif.g08.bks.cpg/sg15_145_cif.got.tgz:288810.got - 2010.06.03 18:47:42.
