data_PCOD9257335
_publ_section_title
;
Structure prediction by ZEFSAII (Michael W. Deem and Ramdas Pophale) SiO2 
 PCOD9257335
Probable space group: C 2/C
;
_chemical_formula_sum "Si O2"
_cell_formula_units_Z 60
_cell_length_a 19.309489
_cell_length_b 10.916728
_cell_length_c 26.615005
_cell_angle_alpha 90.000000
_cell_angle_beta 143.894873
_cell_angle_gamma 90.000000
_cell_volume 3306.002395
_symmetry_space_group_name_H-M "C 2/C"
_symmetry_group_IT_number 15
_symmetry_cell_setting 'monoclinic'
loop_
_space_group_symop_operation_xyz
x,y,z
-x,y,1/2-z
-x,-y,-z
x,-y,1/2+z
1/2+x,1/2+y,z
1/2-x,1/2+y,1/2-z
1/2-x,1/2-y,-z
1/2+x,1/2-y,1/2+z
loop_
_atom_site_type_symbol
_atom_site_label
_atom_site_fract_x
_atom_site_fract_y
_atom_site_fract_z
Si Si1 0.217435 0.885298 0.420897
Si Si2 0.364080 0.030409 0.916891
Si Si3 0.691982 0.378943 0.522094
Si Si4 0.359103 0.510318 0.912850
Si Si5 0.416553 0.353567 0.354343
Si Si6 0.708605 0.269661 0.687411
Si Si7 0.354718 0.400171 0.756339
Si Si8 0.500000 0.532025 0.250000
O O1 0.316217 0.948044 0.444865
O O2 0.229693 0.739479 0.418341
O O3 0.225696 0.910187 0.484935
O O4 0.096744 0.943164 0.330962
O O5 0.341832 0.155058 0.872531
O O6 0.277613 0.932079 0.839660
O O7 0.500000 0.000000 0.000000
O O8 0.693687 0.491822 0.562395
O O9 0.555234 0.332836 0.441980
O O10 0.351043 0.623802 0.869587
O O11 0.310027 0.391888 0.855206
O O12 0.500000 0.500000 0.000000
O O13 0.344612 0.254677 0.280520
O O14 0.400509 0.479688 0.313542
O O15 0.644585 0.292083 0.703035
O O16 0.436448 0.389327 0.755712
#
# Coordination Sequence:
#
# PCOD9257335 Si02
#       8
#     8   8   8   8   8   8   8   4
#     4  10  20  31  52  78 106 142 170 219 273 314
#     4  10  21  35  53  80 107 135 177 225 263 313
#     4  10  18  31  51  79 109 136 169 216 276 320
#     4   9  18  31  51  78 106 138 176 217 260 319
#     4   9  18  32  52  79 104 138 176 218 260 322
#     4  10  19  34  53  79 104 140 180 212 270 311
#     4   9  19  33  56  75  99 142 174 221 258 317
#     4  10  18  36  52  74 106 134 194 214 256 326
#
# _framework density 18.148807999999999
#
# number of rings (size 3 to 8) (size 9 to 14) (size 15 to 20)
#    0.000    2.400    2.667    0.000    1.867    0.000 
#    0.000    0.000    2.933    1.600    0.000    0.000 
#    0.000    0.000    0.000    0.000    0.000    0.000 
#
# Total GULP energy -167095.457201 kJ/mol
# GULP energy per Si atom -5569.848573 kJ/mol
# Density = 1.810750 g / cm^3
# Si number density = 18.148808 Si / 1000 Ang^3
#
#
#
# Elastic Constant Matrix: (Units=GPa)
#
#
# Indices 1 2 3 4 5 6 
#
# 1 136.1954 23.7323 31.4686 0.0000 -14.6132 0.0000
# 2 23.7323 28.9341 16.9542 0.0000 -0.4003 0.0000
# 3 31.4686 16.9542 67.1530 0.0000 7.2896 0.0000
# 4 0.0000 0.0000 0.0000 22.0608 0.0000 -6.1327
# 5 -14.6132 -0.4003 7.2896 0.0000 28.1807 0.0000
# 6 0.0000 0.0000 0.0000 -6.1327 0.0000 19.2874
#
#
#
# Elastic Compliance Matrix: (Units=1/GPa)
#
#
# Indices 1 2 3 4 5 6 
#
# 1 0.009880 -0.005779 -0.003826 0.000000 0.006031 0.000000
# 2 -0.005779 0.044246 -0.008443 0.000000 -0.000184 0.000000
# 3 -0.003826 -0.008443 0.019594 0.000000 -0.007172 0.000000
# 4 0.000000 0.000000 0.000000 0.049725 0.000000 0.015811
# 5 0.006031 -0.000184 -0.007172 0.000000 0.040465 0.000000
# 6 0.000000 0.000000 0.000000 0.015811 0.000000 0.056875
#
#
# Mechanical properties :
#
#
# Convention : Reuss Voigt Hill
#
# Bulk Modulus (GPa) = 26.57755 41.84362 34.21058
# Shear Modulus (GPa) = 18.55825 24.58093 21.56959
#
# Velocity S-wave (km/s) = 3.20122 3.68422 3.45118
# Velocity P-wave (km/s) = 5.32351 6.41903 5.89676
#
# Compressibility (1/GPa) = 0.03762574
#
# Stress axis : x y z
#
# Youngs Moduli (GPa) = 101.20990 22.60099 51.03536
#
# Poissons Ratio (x) = 0.13061 0.19525
# Poissons Ratio (y) = 0.58489 0.43088
# Poissons Ratio (z) = 0.38720 0.19081
#
# Static dielectric constant tensor:
#      x y z
#    x 1.669450 0.000000 -0.029210 
#    y 0.000000 1.612380 0.000000 
#    z -0.029210 0.000000 1.637710 
# 
# From -- ./inp_files/298787.got.cif
#   From: 2010.05.17/outbox.cif.g08.bks.cpg/sg15_150_cif.got.tgz:298787.got - 2010.06.03 18:47:42.
