data_PCOD9257418
_publ_section_title
;
Structure prediction by ZEFSAII (Michael W. Deem and Ramdas Pophale) SiO2 
 PCOD9257418
Probable space group: C 2/C
;
_chemical_formula_sum "Si O2"
_cell_formula_units_Z 52
_cell_length_a 19.551123
_cell_length_b 7.286874
_cell_length_c 26.771351
_cell_angle_alpha 90.000000
_cell_angle_beta 28.378691
_cell_angle_gamma 90.000000
_cell_volume 1812.793567
_symmetry_space_group_name_H-M "C 2/C"
_symmetry_group_IT_number 15
_symmetry_cell_setting 'monoclinic'
loop_
_space_group_symop_operation_xyz
x,y,z
-x,y,1/2-z
-x,-y,-z
x,-y,1/2+z
1/2+x,1/2+y,z
1/2-x,1/2+y,1/2-z
1/2-x,1/2-y,-z
1/2+x,1/2-y,1/2+z
loop_
_atom_site_type_symbol
_atom_site_label
_atom_site_fract_x
_atom_site_fract_y
_atom_site_fract_z
Si Si1 0.297650 0.810819 0.801919
Si Si2 0.762944 0.517875 0.427072
Si Si3 0.212262 0.434306 0.483114
Si Si4 0.682451 0.384560 0.716001
Si Si5 0.952177 0.337098 0.600704
Si Si6 0.500000 0.411902 0.750000
Si Si7 0.969836 0.105632 0.086052
O O1 0.334313 0.906662 0.830604
O O2 0.345440 0.600843 0.774938
O O3 0.373467 0.886423 0.703862
O O4 0.126414 0.827452 0.898907
O O5 0.829598 0.464673 0.437947
O O6 0.695724 0.710551 0.492713
O O7 0.639777 0.380167 0.486976
O O8 0.374352 0.486579 0.362881
O O9 0.095851 0.458540 0.513465
O O10 0.849351 0.377768 0.620727
O O11 0.598799 0.295423 0.723989
O O12 0.608579 0.320098 0.814454
O O13 0.952591 0.115506 0.598424
#
# Coordination Sequence:
#
# PCOD9257418 Si02
#       7
#     8   8   8   8   8   4   8
#     4  10  19  32  58  82 113 146 178 222 278 318
#     4  10  18  31  53  83 112 141 182 224 270 323
#     4  10  21  32  55  81 114 139 187 231 272 316
#     4  10  20  35  57  82 108 143 187 229 269 321
#     4   9  21  37  54  85 113 142 183 229 266 328
#     4  12  20  36  56  78 110 148 180 232 280 316
#     4   9  18  35  53  81 112 148 179 220 271 331
#
# _framework density 28.685006999999999
#
# number of rings (size 3 to 8) (size 9 to 14) (size 15 to 20)
#    0.000    2.154    3.077    0.462    2.154    1.231 
#    0.000    0.000    0.000    9.231    0.000    0.000 
#    0.000    0.000    0.000    0.000    0.000    0.000 
#
# Total GULP energy -145239.697335 kJ/mol
# GULP energy per Si atom -5586.142205 kJ/mol
# Density = 2.861972 g / cm^3
# Si number density = 28.685007 Si / 1000 Ang^3
#
#
#
# Elastic Constant Matrix: (Units=GPa)
#
#
# Indices 1 2 3 4 5 6 
#
# 1 212.9256 6.3917 37.1647 -0.0055 -23.5212 0.0058
# 2 6.3917 95.6310 1.9658 -0.0180 -1.5494 -0.0051
# 3 37.1647 1.9658 113.0809 -0.0075 -27.0484 0.0048
# 4 -0.0055 -0.0180 -0.0075 30.2220 -0.0024 -7.7403
# 5 -23.5212 -1.5494 -27.0484 -0.0024 55.5474 0.0027
# 6 0.0058 -0.0051 0.0048 -7.7403 0.0027 3.7414
#
#
#
# Elastic Compliance Matrix: (Units=1/GPa)
#
#
# Indices 1 2 3 4 5 6 
#
# 1 0.005101 -0.000289 -0.001309 -0.000003 0.001514 -0.000014
# 2 -0.000289 0.010480 -0.000053 0.000021 0.000144 0.000058
# 3 -0.001309 -0.000053 0.010347 -0.000002 0.004482 -0.000019
# 4 -0.000003 0.000021 -0.000002 0.070379 -0.000006 0.145601
# 5 0.001514 0.000144 0.004482 -0.000006 0.020831 -0.000035
# 6 -0.000014 0.000058 -0.000019 0.145601 -0.000035 0.568500
#
#
# Mechanical properties :
#
#
# Convention : Reuss Voigt Hill
#
# Bulk Modulus (GPa) = 44.19952 56.96466 50.58209
# Shear Modulus (GPa) = 7.17895 42.97652 25.07774
#
# Velocity S-wave (km/s) = 1.58370 3.87489 2.95997
# Velocity P-wave (km/s) = 4.33430 6.31834 5.41792
#
# Compressibility (1/GPa) = 0.02262468
#
# Stress axis : x y z
#
# Youngs Moduli (GPa) = 196.04127 95.42317 96.65037
#
# Poissons Ratio (x) = 0.02762 0.12653
# Poissons Ratio (y) = 0.05675 0.00508
# Poissons Ratio (z) = 0.25666 0.00502
#
# Static dielectric constant tensor:
#      x y z
#    x 2.506460 -0.000020 -0.085840 
#    y -0.000020 2.275090 0.000010 
#    z -0.085840 0.000010 2.301560 
# 
# From -- ./inp_files/315957.got.cif
#   From: 2010.05.17/outbox.cif.g08.bks.cpg/sg15_158_cif.got.tgz:315957.got - 2010.06.03 18:47:42.
