data_PCOD9257252
_publ_section_title
;
Structure prediction by ZEFSAII (Michael W. Deem and Ramdas Pophale) SiO2 
 PCOD9257252
Probable space group: C 2/C
;
_chemical_formula_sum "Si O2"
_cell_formula_units_Z 60
_cell_length_a 15.027543
_cell_length_b 7.865374
_cell_length_c 23.116639
_cell_angle_alpha 90.000000
_cell_angle_beta 55.163422
_cell_angle_gamma 90.000000
_cell_volume 2242.648954
_symmetry_space_group_name_H-M "C 2/C"
_symmetry_group_IT_number 15
_symmetry_cell_setting 'monoclinic'
loop_
_space_group_symop_operation_xyz
x,y,z
-x,y,1/2-z
-x,-y,-z
x,-y,1/2+z
1/2+x,1/2+y,z
1/2-x,1/2+y,1/2-z
1/2-x,1/2-y,-z
1/2+x,1/2-y,1/2+z
loop_
_atom_site_type_symbol
_atom_site_label
_atom_site_fract_x
_atom_site_fract_y
_atom_site_fract_z
Si Si1 0.422354 0.781069 0.900877
Si Si2 0.000000 0.720766 0.750000
Si Si3 0.824032 0.657984 0.737718
Si Si4 0.095207 0.490050 0.892038
Si Si5 0.045890 0.057218 0.379564
Si Si6 0.342552 0.332322 0.905639
Si Si7 0.715252 0.185064 0.938077
Si Si8 0.173717 0.153985 0.905618
O O1 0.486629 0.950058 0.896335
O O2 0.506148 0.622299 0.864026
O O3 0.328109 0.790058 0.886832
O O4 0.351389 0.740018 0.984174
O O5 0.927683 0.604777 0.736853
O O6 0.918599 0.830539 0.819614
O O7 0.812913 0.521675 0.691094
O O8 0.870105 0.829556 0.689334
O O9 0.733618 0.664859 0.820023
O O10 0.126958 0.643873 0.921870
O O11 0.105091 0.325857 0.928650
O O12 0.932349 0.161253 0.422476
O O13 0.097763 0.004565 0.421503
O O14 0.268790 0.499842 0.932611
O O15 0.261332 0.175211 0.923976
#
# Coordination Sequence:
#
# PCOD9257252 Si02
#       8
#     8   4   8   8   8   8   8   8
#     4   9  18  33  53  72  96 131 173 219 265 312
#     4   8  16  30  48  66  96 136 162 194 254 320
#     4  10  18  31  49  72 103 132 166 210 261 316
#     4  10  19  31  50  77 101 129 172 217 261 315
#     4   9  17  30  48  70  97 131 167 206 256 315
#     4   8  15  28  49  72  91 123 167 205 245 300
#     4   9  17  32  53  73  96 129 174 219 259 310
#     4   9  17  30  49  72  98 130 169 209 253 308
#
# _framework density 26.754076000000001
#
# number of rings (size 3 to 8) (size 9 to 14) (size 15 to 20)
#    0.000    2.933    0.000    1.200    0.000    1.067 
#    0.000    6.000    0.000   22.400    0.000    0.000 
#    0.000    0.000    0.000    0.000    0.000    0.000 
#
# Total GULP energy -167142.205651 kJ/mol
# GULP energy per Si atom -5571.406855 kJ/mol
# Density = 2.669318 g / cm^3
# Si number density = 26.754076 Si / 1000 Ang^3
#
#
#
# Elastic Constant Matrix: (Units=GPa)
#
#
# Indices 1 2 3 4 5 6 
#
# 1 173.6618 67.9288 26.5034 0.0000 -1.7135 0.0000
# 2 67.9288 116.7293 8.4308 0.0000 3.6415 0.0001
# 3 26.5034 8.4308 72.9571 0.0000 -18.8723 0.0000
# 4 0.0000 0.0000 0.0000 25.0177 0.0000 6.9068
# 5 -1.7135 3.6415 -18.8723 0.0000 33.4194 0.0000
# 6 0.0000 0.0001 0.0000 6.9068 0.0000 49.8897
#
#
#
# Elastic Compliance Matrix: (Units=1/GPa)
#
#
# Indices 1 2 3 4 5 6 
#
# 1 0.007839 -0.004367 -0.002478 0.000000 -0.000522 0.000000
# 2 -0.004367 0.011161 -0.000089 0.000000 -0.001490 0.000000
# 3 -0.002478 -0.000089 0.017082 0.000000 0.009529 0.000000
# 4 0.000000 0.000000 0.000000 0.041560 0.000000 -0.005754
# 5 -0.000522 -0.001490 0.009529 0.000000 0.035440 0.000000
# 6 0.000000 0.000000 0.000000 -0.005754 0.000000 0.020841
#
#
# Mechanical properties :
#
#
# Convention : Reuss Voigt Hill
#
# Bulk Modulus (GPa) = 45.01501 63.23048 54.12274
# Shear Modulus (GPa) = 32.21736 39.03105 35.62420
#
# Velocity S-wave (km/s) = 3.47393 3.82368 3.65299
# Velocity P-wave (km/s) = 5.74046 6.57109 6.16977
#
# Compressibility (1/GPa) = 0.02221481
#
# Stress axis : x y z
#
# Youngs Moduli (GPa) = 127.55939 89.59826 58.54050
#
# Poissons Ratio (x) = 0.39126 0.14508
# Poissons Ratio (y) = 0.55703 0.00520
# Poissons Ratio (z) = 0.31612 0.00796
#
# Static dielectric constant tensor:
#      x y z
#    x 2.204040 0.000000 0.007710 
#    y 0.000000 2.098580 0.000000 
#    z 0.007710 0.000000 2.084650 
# 
# From -- ./inp_files/273124.got.cif
#   From: 2010.05.17/outbox.cif.g08.bks.cpg/sg15_137_cif.got.tgz:273124.got - 2010.06.03 18:47:42.
