data_PCOD9257595
_publ_section_title
;
Structure prediction by ZEFSAII (Michael W. Deem and Ramdas Pophale) SiO2 
 PCOD9257595
Probable space group: C 2/C
;
_chemical_formula_sum "Si O2"
_cell_formula_units_Z 44
_cell_length_a 13.302519
_cell_length_b 14.204068
_cell_length_c 9.595493
_cell_angle_alpha 90.000000
_cell_angle_beta 68.118947
_cell_angle_gamma 90.000000
_cell_volume 1682.453102
_symmetry_space_group_name_H-M "C 2/C"
_symmetry_group_IT_number 15
_symmetry_cell_setting 'monoclinic'
loop_
_space_group_symop_operation_xyz
x,y,z
-x,y,1/2-z
-x,-y,-z
x,-y,1/2+z
1/2+x,1/2+y,z
1/2-x,1/2+y,1/2-z
1/2-x,1/2-y,-z
1/2+x,1/2-y,1/2+z
loop_
_atom_site_type_symbol
_atom_site_label
_atom_site_fract_x
_atom_site_fract_y
_atom_site_fract_z
Si Si1 0.338760 0.205107 0.092676
Si Si2 0.127786 0.122480 0.089484
Si Si3 0.359373 0.114752 0.356216
Si Si4 0.316629 0.849772 0.167037
Si Si5 0.660156 0.514434 0.331876
Si Si6 0.000000 0.444657 0.250000
O O1 0.260220 0.135907 0.045667
O O2 0.402995 0.157416 0.187179
O O3 0.251636 0.270928 0.218691
O O4 0.402415 0.274605 0.955462
O O5 0.097438 0.079919 0.255160
O O6 0.105155 0.049948 0.976946
O O7 0.349007 0.179630 0.495143
O O8 0.240247 0.082250 0.373265
O O9 0.421422 0.019313 0.367024
O O10 0.423720 0.883813 0.191246
O O11 0.235584 0.940241 0.207498
#
# Coordination Sequence:
#
# PCOD9257595 Si02
#       6
#     8   8   8   8   8   4
#     4   9  19  30  50  69 112 147 192 227 278 315
#     4   9  16  30  44  75  96 143 174 239 272 322
#     4  10  18  32  48  77 106 154 186 228 267 340
#     4  10  18  32  48  77 106 154 186 228 267 340
#     4   9  16  27  50  68 102 132 188 223 270 317
#     4  10  22  32  52  82 120 152 180 220 284 338
#
# _framework density 26.152289
#
# number of rings (size 3 to 8) (size 9 to 14) (size 15 to 20)
#    0.000    2.545    1.818    1.091    0.000    0.000 
#    6.545    0.000    0.000    0.000    0.000    0.000 
#    0.000   48.000    0.000    0.000    0.000    0.000 
#
# Total GULP energy -122988.820251 kJ/mol
# GULP energy per Si atom -5590.400921 kJ/mol
# Density = 2.609276 g / cm^3
# Si number density = 26.152289 Si / 1000 Ang^3
#
#
#
# Elastic Constant Matrix: (Units=GPa)
#
#
# Indices 1 2 3 4 5 6 
#
# 1 90.0176 35.6259 30.7399 0.0000 9.7824 0.0000
# 2 35.6259 111.0538 42.5616 0.0000 2.7426 0.0000
# 3 30.7399 42.5616 146.2525 0.0000 10.0923 0.0000
# 4 0.0000 0.0000 0.0000 53.4466 0.0000 2.9666
# 5 9.7824 2.7426 10.0923 0.0000 19.9844 0.0000
# 6 0.0000 0.0000 0.0000 2.9666 0.0000 34.8865
#
#
#
# Elastic Compliance Matrix: (Units=1/GPa)
#
#
# Indices 1 2 3 4 5 6 
#
# 1 0.013651 -0.003702 -0.001415 0.000000 -0.005459 0.000000
# 2 -0.003702 0.011139 -0.002573 0.000000 0.001583 0.000000
# 3 -0.001415 -0.002573 0.008094 0.000000 -0.003042 0.000000
# 4 0.000000 0.000000 0.000000 0.018799 0.000000 -0.001599
# 5 -0.005459 0.001583 -0.003042 0.000000 0.054030 0.000000
# 6 0.000000 0.000000 0.000000 -0.001599 0.000000 0.028800
#
#
# Mechanical properties :
#
#
# Convention : Reuss Voigt Hill
#
# Bulk Modulus (GPa) = 57.13097 62.79765 59.96431
# Shear Modulus (GPa) = 32.10748 37.55659 34.83204
#
# Velocity S-wave (km/s) = 3.50767 3.79367 3.65347
# Velocity P-wave (km/s) = 6.18853 6.57675 6.38559
#
# Compressibility (1/GPa) = 0.01750364
#
# Stress axis : x y z
#
# Youngs Moduli (GPa) = 73.25711 89.77337 123.55560
#
# Poissons Ratio (x) = 0.33233 0.17484
# Poissons Ratio (y) = 0.27119 0.31788
# Poissons Ratio (z) = 0.10366 0.23097
#
# Static dielectric constant tensor:
#      x y z
#    x 2.033230 0.000000 -0.038580 
#    y 0.000000 2.029090 0.000000 
#    z -0.038580 0.000000 2.093140 
# 
# From -- ./inp_files/47910.got.cif
#   From: 2010.05.17/outbox.cif.g08.bks.cpg/sg15_24_cif.got.tgz:47910.got - 2010.06.03 18:47:42.
