data_PCOD9257501
_publ_section_title
;
Structure prediction by ZEFSAII (Michael W. Deem and Ramdas Pophale) SiO2 
 PCOD9257501
Probable space group: C 2/C
;
_chemical_formula_sum "Si O2"
_cell_formula_units_Z 52
_cell_length_a 32.465730
_cell_length_b 10.016046
_cell_length_c 21.742924
_cell_angle_alpha 90.000000
_cell_angle_beta 24.731888
_cell_angle_gamma 90.000000
_cell_volume 2958.030899
_symmetry_space_group_name_H-M "C 2/C"
_symmetry_group_IT_number 15
_symmetry_cell_setting 'monoclinic'
loop_
_space_group_symop_operation_xyz
x,y,z
-x,y,1/2-z
-x,-y,-z
x,-y,1/2+z
1/2+x,1/2+y,z
1/2-x,1/2+y,1/2-z
1/2-x,1/2-y,-z
1/2+x,1/2-y,1/2+z
loop_
_atom_site_type_symbol
_atom_site_label
_atom_site_fract_x
_atom_site_fract_y
_atom_site_fract_z
Si Si1 0.992183 0.709166 0.473008
Si Si2 0.337417 0.594117 0.250666
Si Si3 0.315480 0.465385 0.158465
Si Si4 0.854289 0.261813 0.517325
Si Si5 0.534258 0.561355 0.828142
Si Si6 0.500000 0.561623 0.250000
Si Si7 0.104597 0.428553 0.930017
O O1 0.910271 0.802631 0.617052
O O2 0.943609 0.574241 0.512756
O O3 0.041589 0.794918 0.351233
O O4 0.064366 0.663851 0.429973
O O5 0.319564 0.472948 0.226671
O O6 0.232458 0.665102 0.402037
O O7 0.393518 0.537957 0.233264
O O8 0.304022 0.325953 0.139677
O O9 0.222028 0.553163 0.266486
O O10 0.420856 0.520019 0.994351
O O11 0.919427 0.161711 0.388858
O O12 0.916542 0.366441 0.473929
O O13 0.546350 0.533102 0.739679
#
# Coordination Sequence:
#
# PCOD9257501 Si02
#       7
#     8   8   8   8   8   4   8
#     4  10  18  32  52  85 109 131 172 222 282 321
#     4  10  18  31  56  81 106 136 176 229 271 311
#     4   9  17  32  52  80 109 134 170 222 279 317
#     4  10  19  34  53  81 107 140 182 212 267 321
#     4  10  20  35  53  75 105 150 183 216 256 316
#     4  10  22  38  56  70 106 154 188 218 244 312
#     4  10  19  30  54  85 110 134 161 231 284 310
#
# _framework density 17.579260999999999
#
# number of rings (size 3 to 8) (size 9 to 14) (size 15 to 20)
#    0.000    2.154    1.538    4.615    0.000    0.615 
#    0.000    0.769    0.000    3.692    0.000    0.000 
#    0.000    0.000    0.000    0.000    0.000    0.000 
#
# Total GULP energy -144786.494685 kJ/mol
# GULP energy per Si atom -5568.711334 kJ/mol
# Density = 1.753925 g / cm^3
# Si number density = 17.579261 Si / 1000 Ang^3
#
#
#
# Elastic Constant Matrix: (Units=GPa)
#
#
# Indices 1 2 3 4 5 6 
#
# 1 146.1490 59.8671 45.8644 0.0000 -7.5309 0.0000
# 2 59.8671 93.3306 24.4980 0.0001 2.0530 0.0000
# 3 45.8644 24.4980 38.2354 0.0000 -4.7741 0.0000
# 4 0.0000 0.0001 0.0000 25.4055 0.0000 9.2269
# 5 -7.5309 2.0530 -4.7741 0.0000 24.5949 0.0000
# 6 0.0000 0.0000 0.0000 9.2269 0.0000 40.1019
#
#
#
# Elastic Compliance Matrix: (Units=1/GPa)
#
#
# Indices 1 2 3 4 5 6 
#
# 1 0.012730 -0.005133 -0.011726 0.000000 0.002050 0.000000
# 2 -0.005133 0.015134 -0.003990 0.000000 -0.003609 0.000000
# 3 -0.011726 -0.003990 0.043421 0.000000 0.005171 0.000000
# 4 0.000000 0.000000 0.000000 0.042951 0.000000 -0.009882
# 5 0.002050 -0.003609 0.005171 0.000000 0.042592 0.000000
# 6 0.000000 0.000000 0.000000 -0.009882 0.000000 0.027210
#
#
# Mechanical properties :
#
#
# Convention : Reuss Voigt Hill
#
# Bulk Modulus (GPa) = 33.79733 59.79712 46.79723
# Shear Modulus (GPa) = 21.22262 27.85283 24.53772
#
# Velocity S-wave (km/s) = 3.47832 3.98479 3.74014
# Velocity P-wave (km/s) = 5.94971 7.43377 6.73276
#
# Compressibility (1/GPa) = 0.02958813
#
# Stress axis : x y z
#
# Youngs Moduli (GPa) = 78.55189 66.07635 23.03047
#
# Poissons Ratio (x) = 0.33919 0.27004
# Poissons Ratio (y) = 0.40323 0.09189
# Poissons Ratio (z) = 0.92106 0.26363
#
# Static dielectric constant tensor:
#      x y z
#    x 1.635090 0.000000 -0.009700 
#    y 0.000000 1.645690 0.000000 
#    z -0.009700 0.000000 1.592020 
# 
# From -- ./inp_files/258832.got.cif
#   From: 2010.05.17/outbox.cif.g08.bks.cpg/sg15_130_cif.got.tgz:258832.got - 2010.06.03 18:47:42.
