data_PCOD9257948
_publ_section_title
;
Structure prediction by ZEFSAII (Michael W. Deem and Ramdas Pophale) SiO2 
 PCOD9257948
Probable space group: C 2/C
;
_chemical_formula_sum "Si O2"
_cell_formula_units_Z 60
_cell_length_a 31.167857
_cell_length_b 16.947526
_cell_length_c 5.673046
_cell_angle_alpha 90.000000
_cell_angle_beta 53.452849
_cell_angle_gamma 90.000000
_cell_volume 2407.374138
_symmetry_space_group_name_H-M "C 2/C"
_symmetry_group_IT_number 15
_symmetry_cell_setting 'monoclinic'
loop_
_space_group_symop_operation_xyz
x,y,z
-x,y,1/2-z
-x,-y,-z
x,-y,1/2+z
1/2+x,1/2+y,z
1/2-x,1/2+y,1/2-z
1/2-x,1/2-y,-z
1/2+x,1/2-y,1/2+z
loop_
_atom_site_type_symbol
_atom_site_label
_atom_site_fract_x
_atom_site_fract_y
_atom_site_fract_z
Si Si1 0.660315 0.078005 0.859261
Si Si2 0.242190 0.970506 0.941502
Si Si3 0.000000 0.693349 0.750000
Si Si4 0.430812 0.288423 0.313823
Si Si5 0.060912 0.971576 0.244703
Si Si6 0.441125 0.131622 0.553415
Si Si7 0.266638 0.187945 0.192216
Si Si8 0.166550 0.727153 0.119947
O O1 0.695834 0.001193 0.788280
O O2 0.703656 0.130615 0.579579
O O3 0.651785 0.136409 0.109358
O O4 0.604885 0.074434 0.896149
O O5 0.218490 0.996262 0.764291
O O6 0.242370 0.876747 0.956038
O O7 0.954186 0.638948 0.786948
O O8 0.018595 0.751614 0.484783
O O9 0.438248 0.379906 0.339144
O O10 0.421275 0.219709 0.538588
O O11 0.382983 0.280032 0.285168
O O12 0.084202 0.982714 0.436865
O O13 0.000000 0.000000 0.500000
O O14 0.500000 0.113380 0.250000
O O15 0.215876 0.240588 0.299802
O O16 0.311796 0.233475 0.188093
#
# Coordination Sequence:
#
# PCOD9257948 Si02
#       8
#     8   8   4   8   8   8   8   8
#     4  10  19  36  59  87 117 160 198 243 298 369
#     4  10  20  37  62  88 119 159 206 239 301 366
#     4  10  18  32  56  82 114 150 192 250 298 358
#     4  10  21  34  56  82 113 152 197 248 295 352
#     4  10  22  36  56  78 112 156 202 238 292 360
#     4   9  20  33  55  87 117 146 197 249 301 348
#     4  10  20  35  60  87 116 155 197 248 298 357
#     4  10  20  37  57  88 117 148 203 250 299 344
#
# _framework density 24.923421000000001
#
# number of rings (size 3 to 8) (size 9 to 14) (size 15 to 20)
#    0.000    2.133    1.333    2.000    7.467    0.000 
#    0.000    2.667    0.000    3.200    1.733    0.000 
#    0.000    0.000    0.000    0.000    0.000    0.000 
#
# Total GULP energy -167237.164115 kJ/mol
# GULP energy per Si atom -5574.572137 kJ/mol
# Density = 2.486669 g / cm^3
# Si number density = 24.923421 Si / 1000 Ang^3
#
#
#
# Elastic Constant Matrix: (Units=GPa)
#
#
# Indices 1 2 3 4 5 6 
#
# 1 46.9448 37.2217 -12.1777 0.0000 12.8777 0.0000
# 2 37.2217 78.5698 -0.4959 0.0000 -1.4756 0.0000
# 3 -12.1777 -0.4959 73.5426 0.0000 8.2134 0.0000
# 4 0.0000 0.0000 0.0000 22.8721 0.0000 2.3121
# 5 12.8777 -1.4756 8.2134 0.0000 28.9558 0.0000
# 6 0.0000 0.0000 0.0000 2.3121 0.0000 35.7608
#
#
#
# Elastic Compliance Matrix: (Units=1/GPa)
#
#
# Indices 1 2 3 4 5 6 
#
# 1 0.051448 -0.024815 0.011410 0.000000 -0.027382 0.000000
# 2 -0.024815 0.024709 -0.005490 0.000000 0.013852 0.000000
# 3 0.011410 -0.005490 0.016573 0.000000 -0.010055 0.000000
# 4 0.000000 0.000000 0.000000 0.044009 0.000000 -0.002845
# 5 -0.027382 0.013852 -0.010055 0.000000 0.050271 0.000000
# 6 0.000000 0.000000 0.000000 -0.002845 0.000000 0.028148
#
#
# Mechanical properties :
#
#
# Convention : Reuss Voigt Hill
#
# Bulk Modulus (GPa) = 18.20165 27.57260 22.88712
# Shear Modulus (GPa) = 18.43244 29.15168 23.79206
#
# Velocity S-wave (km/s) = 2.72244 3.42373 3.09302
# Velocity P-wave (km/s) = 4.14742 5.16877 4.68600
#
# Compressibility (1/GPa) = 0.05494009
#
# Stress axis : x y z
#
# Youngs Moduli (GPa) = 19.43706 40.47107 60.33976
#
# Poissons Ratio (x) = 1.00430 -0.68847
# Poissons Ratio (y) = 0.48234 0.33124
# Poissons Ratio (z) = -0.22177 0.22217
#
# Static dielectric constant tensor:
#      x y z
#    x 2.060780 0.000000 0.099350 
#    y 0.000000 1.946700 0.000000 
#    z 0.099350 0.000000 2.196550 
# 
# From -- ./inp_files/18440.got.cif
#   From: 2010.05.17/outbox.cif.g08.bks.cpg/sg15_10_cif.got.tgz:18440.got - 2010.06.03 18:47:42.
