data_PCOD9257858
_publ_section_title
;
Structure prediction by ZEFSAII (Michael W. Deem and Ramdas Pophale) SiO2 
 PCOD9257858
Probable space group: C 2/C
;
_chemical_formula_sum "Si O2"
_cell_formula_units_Z 48
_cell_length_a 26.252158
_cell_length_b 19.236351
_cell_length_c 8.887330
_cell_angle_alpha 90.000000
_cell_angle_beta 152.593463
_cell_angle_gamma 90.000000
_cell_volume 2065.860527
_symmetry_space_group_name_H-M "C 2/C"
_symmetry_group_IT_number 15
_symmetry_cell_setting 'monoclinic'
loop_
_space_group_symop_operation_xyz
x,y,z
-x,y,1/2-z
-x,-y,-z
x,-y,1/2+z
1/2+x,1/2+y,z
1/2-x,1/2+y,1/2-z
1/2-x,1/2-y,-z
1/2+x,1/2-y,1/2+z
loop_
_atom_site_type_symbol
_atom_site_label
_atom_site_fract_x
_atom_site_fract_y
_atom_site_fract_z
Si Si1 0.072478 0.655878 0.214954
Si Si2 0.413779 0.593073 0.134124
Si Si3 0.286670 0.954519 0.217058
Si Si4 0.441955 0.318713 0.256795
Si Si5 0.245164 0.832043 0.523041
Si Si6 0.603782 0.053332 0.796921
O O1 0.140096 0.607438 0.512242
O O2 0.066209 0.735053 0.252218
O O3 0.133072 0.647438 0.213161
O O4 0.950298 0.627359 0.868509
O O5 0.500000 0.554496 0.250000
O O6 0.479403 0.648614 0.408307
O O7 0.336243 0.549579 0.041263
O O8 0.332750 0.632483 0.806618
O O9 0.301786 0.952936 0.080426
O O10 0.342175 0.026535 0.410850
O O11 0.500000 0.336648 0.250000
O O12 0.317360 0.342613 0.981398
O O13 0.250000 0.750000 0.500000
O O14 0.500000 0.000000 0.500000
#
# Coordination Sequence:
#
# PCOD9257858 Si02
#       6
#     8   8   8   8   8   8
#     4   9  17  33  55  79 113 147 175 217 270 327
#     4   9  19  37  56  75 110 150 179 220 274 327
#     4  10  20  37  56  80 107 139 181 228 272 322
#     4  10  18  32  54  84 113 143 181 224 269 325
#     4   8  16  32  51  74 110 148 178 210 262 327
#     4  10  19  35  56  78 106 141 179 223 272 318
#
# _framework density 23.234869
#
# number of rings (size 3 to 8) (size 9 to 14) (size 15 to 20)
#    0.000    2.667    0.000    3.000    0.000    0.000 
#    0.000   40.833    0.000    0.000    0.000    0.000 
#    0.000    0.000    0.000    0.000    0.000    0.000 
#
# Total GULP energy -133895.024728 kJ/mol
# GULP energy per Si atom -5578.959364 kJ/mol
# Density = 2.318199 g / cm^3
# Si number density = 23.234869 Si / 1000 Ang^3
#
#
#
# Elastic Constant Matrix: (Units=GPa)
#
#
# Indices 1 2 3 4 5 6 
#
# 1 192.8089 -0.1650 21.3090 0.0000 18.4496 0.0000
# 2 -0.1650 29.0305 -6.5358 0.0000 -10.7337 0.0000
# 3 21.3090 -6.5358 25.6722 0.0000 10.2583 0.0000
# 4 0.0000 0.0000 0.0000 16.5942 0.0000 -1.2400
# 5 18.4496 -10.7337 10.2583 0.0000 28.8877 0.0000
# 6 0.0000 0.0000 0.0000 -1.2400 0.0000 30.4309
#
#
#
# Elastic Compliance Matrix: (Units=1/GPa)
#
#
# Indices 1 2 3 4 5 6 
#
# 1 0.005945 -0.002049 -0.004236 0.000000 -0.003054 0.000000
# 2 -0.002049 0.041183 0.006465 0.000000 0.014315 0.000000
# 3 -0.004236 0.006465 0.049031 0.000000 -0.012304 0.000000
# 4 0.000000 0.000000 0.000000 0.060446 0.000000 0.002463
# 5 -0.003054 0.014315 -0.012304 0.000000 0.046256 0.000000
# 6 0.000000 0.000000 0.000000 0.002463 0.000000 0.032962
#
#
# Mechanical properties :
#
#
# Convention : Reuss Voigt Hill
#
# Bulk Modulus (GPa) = 10.36053 30.74757 20.55405
# Shear Modulus (GPa) = 18.68209 30.70945 24.69577
#
# Velocity S-wave (km/s) = 2.83866 3.63946 3.26371
# Velocity P-wave (km/s) = 3.90035 5.56084 4.80290
#
# Compressibility (1/GPa) = 0.09652012
#
# Stress axis : x y z
#
# Youngs Moduli (GPa) = 168.20502 24.28167 20.39519
#
# Poissons Ratio (x) = 0.04976 0.08639
# Poissons Ratio (y) = 0.34467 -0.13186
# Poissons Ratio (z) = 0.71252 -0.15699
#
# Static dielectric constant tensor:
#      x y z
#    x 1.915480 0.000000 0.024590 
#    y 0.000000 1.901960 0.000000 
#    z 0.024590 0.000000 1.897600 
# 
# From -- ./inp_files/67554.got.cif
#   From: 2010.05.17/outbox.cif.g08.bks.cpg/sg15_34_cif.got.tgz:67554.got - 2010.06.03 18:47:42.
