data_PCOD9257232
_publ_section_title
;
Structure prediction by ZEFSAII (Michael W. Deem and Ramdas Pophale) SiO2 
 PCOD9257232
Probable space group: C 2/C
;
_chemical_formula_sum "Si O2"
_cell_formula_units_Z 36
_cell_length_a 19.310427
_cell_length_b 11.196135
_cell_length_c 12.659949
_cell_angle_alpha 90.000000
_cell_angle_beta 149.301434
_cell_angle_gamma 90.000000
_cell_volume 1397.352284
_symmetry_space_group_name_H-M "C 2/C"
_symmetry_group_IT_number 15
_symmetry_cell_setting 'monoclinic'
loop_
_space_group_symop_operation_xyz
x,y,z
-x,y,1/2-z
-x,-y,-z
x,-y,1/2+z
1/2+x,1/2+y,z
1/2-x,1/2+y,1/2-z
1/2-x,1/2-y,-z
1/2+x,1/2-y,1/2+z
loop_
_atom_site_type_symbol
_atom_site_label
_atom_site_fract_x
_atom_site_fract_y
_atom_site_fract_z
Si Si1 0.119072 0.385961 0.775650
Si Si2 0.606901 0.552503 0.510123
Si Si3 0.500000 0.674486 0.750000
Si Si4 0.857299 0.444311 0.930382
Si Si5 0.810646 0.917208 0.608366
O O1 0.132772 0.372690 0.666818
O O2 0.087716 0.265912 0.795665
O O3 0.994430 0.480903 0.623946
O O4 0.245760 0.453148 0.994973
O O5 0.569882 0.417401 0.422937
O O6 0.734921 0.539930 0.752570
O O7 0.657815 0.619801 0.471076
O O8 0.459981 0.596283 0.355628
O O9 0.802997 0.371510 0.959861
#
# Coordination Sequence:
#
# PCOD9257232 Si02
#       5
#     8   8   4   8   8
#     4  10  19  30  53  75 105 140 173 210 258 303
#     4   9  21  29  52  79 111 135 163 214 277 300
#     4  10  18  36  48  82 114 130 158 226 272 302
#     4  10  18  31  47  77 107 138 175 208 250 315
#     4   9  16  32  47  72 103 137 170 211 246 310
#
# _framework density 25.763009
#
# number of rings (size 3 to 8) (size 9 to 14) (size 15 to 20)
#    0.000    2.667    2.222    0.667    0.000    8.000 
#    0.000    0.000    0.000    0.000    0.000   24.889 
#    0.000    0.000    0.000    0.000    0.000    0.000 
#
# Total GULP energy -100359.642124 kJ/mol
# GULP energy per Si atom -5575.535674 kJ/mol
# Density = 2.570437 g / cm^3
# Si number density = 25.763009 Si / 1000 Ang^3
#
#
#
# Elastic Constant Matrix: (Units=GPa)
#
#
# Indices 1 2 3 4 5 6 
#
# 1 191.7345 48.0401 11.0209 0.0000 18.9429 0.0000
# 2 48.0401 94.4226 3.7782 0.0000 0.9040 0.0000
# 3 11.0209 3.7782 97.4504 0.0000 13.6710 0.0000
# 4 0.0000 0.0000 0.0000 -0.6917 0.0000 -2.8514
# 5 18.9429 0.9040 13.6710 0.0000 46.2200 0.0000
# 6 0.0000 0.0000 0.0000 -2.8514 0.0000 4.3391
#
#
#
# Elastic Compliance Matrix: (Units=1/GPa)
#
#
# Indices 1 2 3 4 5 6 
#
# 1 0.006259 -0.003152 -0.000245 0.000000 -0.002431 0.000000
# 2 -0.003152 0.012194 -0.000276 0.000000 0.001135 0.000000
# 3 -0.000245 -0.000276 0.010730 0.000000 -0.003068 0.000000
# 4 0.000000 0.000000 0.000000 -0.389805 0.000000 -0.256155
# 5 -0.002431 0.001135 -0.003068 0.000000 0.023517 0.000000
# 6 0.000000 0.000000 0.000000 -0.256155 0.000000 0.062135
#
#
# Mechanical properties :
#
#
# Convention : Reuss Voigt Hill
#
# Bulk Modulus (GPa) = 45.78613 56.58731 51.18672
# Shear Modulus (GPa) = -19.20534 31.35803 6.07634
#
# Velocity S-wave (km/s) = -2.73328 3.49258 1.53742
# Velocity P-wave (km/s) = 2.80171 6.18680 4.80240
#
# Compressibility (1/GPa) = 0.02184067
#
# Stress axis : x y z
#
# Youngs Moduli (GPa) = 159.75780 82.00539 93.19308
#
# Poissons Ratio (x) = 0.25845 0.02280
# Poissons Ratio (y) = 0.50349 0.02568
# Poissons Ratio (z) = 0.03908 0.02260
#
# Static dielectric constant tensor:
#      x y z
#    x 2.186170 0.000000 0.010630 
#    y 0.000000 1.998370 0.000000 
#    z 0.010630 0.000000 2.068060 
# 
# From -- ./inp_files/168176.got.cif
#   From: 2010.05.17/outbox.cif.g08.bks.cpg/sg15_85_cif.got.tgz:168176.got - 2010.06.03 18:47:42.
