data_PCOD9257830
_publ_section_title
;
Structure prediction by ZEFSAII (Michael W. Deem and Ramdas Pophale) SiO2 
 PCOD9257830
Probable space group: C 2/C
;
_chemical_formula_sum "Si O2"
_cell_formula_units_Z 56
_cell_length_a 6.898172
_cell_length_b 13.845431
_cell_length_c 26.295028
_cell_angle_alpha 90.000000
_cell_angle_beta 119.594748
_cell_angle_gamma 90.000000
_cell_volume 2183.754447
_symmetry_space_group_name_H-M "C 2/C"
_symmetry_group_IT_number 15
_symmetry_cell_setting 'monoclinic'
loop_
_space_group_symop_operation_xyz
x,y,z
-x,y,1/2-z
-x,-y,-z
x,-y,1/2+z
1/2+x,1/2+y,z
1/2-x,1/2+y,1/2-z
1/2-x,1/2-y,-z
1/2+x,1/2-y,1/2+z
loop_
_atom_site_type_symbol
_atom_site_label
_atom_site_fract_x
_atom_site_fract_y
_atom_site_fract_z
Si Si1 0.122180 0.769020 0.629577
Si Si2 0.756474 0.890797 0.764172
Si Si3 0.644552 0.769286 0.659138
Si Si4 0.001940 0.364352 0.953529
Si Si5 0.388435 0.573004 0.445274
Si Si6 0.614070 0.915759 0.077696
Si Si7 0.863806 0.056964 0.848271
O O1 0.130171 0.807488 0.687378
O O2 0.384863 0.771106 0.645171
O O3 0.997824 0.847603 0.577370
O O4 0.056151 0.658463 0.614388
O O5 0.500000 0.897301 0.750000
O O6 0.753644 0.855041 0.706123
O O7 0.857410 0.990869 0.797056
O O8 0.638529 0.792137 0.598574
O O9 0.735742 0.661431 0.677225
O O10 0.253457 0.356117 0.965471
O O11 0.956186 0.473815 0.928249
O O12 0.001109 0.369400 0.013331
O O13 0.500000 0.500000 0.500000
O O14 0.279848 0.505560 0.386098
O O15 0.879067 0.921948 0.104291
#
# Coordination Sequence:
#
# PCOD9257830 Si02
#       7
#     8   8   8   8   8   8   8
#     4   8  18  32  55  76 104 144 180 219 261 331
#     4   9  18  37  55  79 109 138 184 229 272 316
#     4   9  19  34  56  79 104 148 186 216 267 329
#     4  10  21  35  53  80 117 145 173 225 272 324
#     4  10  18  32  54  81 106 138 181 220 265 316
#     4  10  20  36  54  81 112 144 180 218 277 322
#     4  10  20  35  59  82 103 141 188 224 263 326
#
# _framework density 25.643906000000001
#
# number of rings (size 3 to 8) (size 9 to 14) (size 15 to 20)
#    0.000    2.571    1.429    0.857    2.000    2.857 
#    0.000    7.143    0.000    0.000    0.000    0.000 
#    0.000    0.000    0.000    0.000    0.000    0.000 
#
# Total GULP energy -156374.808646 kJ/mol
# GULP energy per Si atom -5584.814594 kJ/mol
# Density = 2.558554 g / cm^3
# Si number density = 25.643906 Si / 1000 Ang^3
#
#
#
# Elastic Constant Matrix: (Units=GPa)
#
#
# Indices 1 2 3 4 5 6 
#
# 1 54.1658 -6.4453 17.2013 0.0000 -8.2670 0.0000
# 2 -6.4453 140.5854 43.9189 0.0000 -3.9705 0.0000
# 3 17.2013 43.9189 70.5925 0.0000 2.7871 0.0000
# 4 0.0000 0.0000 0.0000 5.0372 0.0000 -11.0696
# 5 -8.2670 -3.9705 2.7871 0.0000 30.6563 0.0000
# 6 0.0000 0.0000 0.0000 -11.0696 0.0000 23.5192
#
#
#
# Elastic Compliance Matrix: (Units=1/GPa)
#
#
# Indices 1 2 3 4 5 6 
#
# 1 0.022625 0.003795 -0.008164 0.000000 0.007335 0.000000
# 2 0.003795 0.009549 -0.006980 0.000000 0.002895 0.000000
# 3 -0.008164 -0.006980 0.020695 0.000000 -0.004987 0.000000
# 4 0.000000 0.000000 0.000000 -5.785140 0.000000 -2.722846
# 5 0.007335 0.002895 -0.004987 0.000000 0.035426 0.000000
# 6 0.000000 0.000000 0.000000 -2.722846 0.000000 -1.239022
#
#
# Mechanical properties :
#
#
# Convention : Reuss Voigt Hill
#
# Bulk Modulus (GPa) = 33.14391 41.63261 37.38826
# Shear Modulus (GPa) = -0.72431 25.88711 12.58140
#
# Velocity S-wave (km/s) = -0.53204 3.18068 2.21740
# Velocity P-wave (km/s) = 3.54617 5.45519 4.60079
#
# Compressibility (1/GPa) = 0.03017145
#
# Stress axis : x y z
#
# Youngs Moduli (GPa) = 44.19808 104.71821 48.32173
#
# Poissons Ratio (x) = -0.39738 0.39448
# Poissons Ratio (y) = -0.16772 0.33729
# Poissons Ratio (z) = 0.36082 0.73095
#
# Static dielectric constant tensor:
#      x y z
#    x 2.219740 0.000000 0.078190 
#    y 0.000000 1.982470 0.000000 
#    z 0.078190 0.000000 1.961090 
# 
# From -- ./inp_files/264827.got.cif
#   From: 2010.05.17/outbox.cif.g08.bks.cpg/sg15_133_cif.got.tgz:264827.got - 2010.06.03 18:47:42.
