data_PCOD9257570
_publ_section_title
;
Structure prediction by ZEFSAII (Michael W. Deem and Ramdas Pophale) SiO2 
 PCOD9257570
Probable space group: C 2/C
;
_chemical_formula_sum "Si O2"
_cell_formula_units_Z 60
_cell_length_a 25.548419
_cell_length_b 8.414603
_cell_length_c 22.473680
_cell_angle_alpha 90.000000
_cell_angle_beta 146.084379
_cell_angle_gamma 90.000000
_cell_volume 2695.775846
_symmetry_space_group_name_H-M "C 2/C"
_symmetry_group_IT_number 15
_symmetry_cell_setting 'monoclinic'
loop_
_space_group_symop_operation_xyz
x,y,z
-x,y,1/2-z
-x,-y,-z
x,-y,1/2+z
1/2+x,1/2+y,z
1/2-x,1/2+y,1/2-z
1/2-x,1/2-y,-z
1/2+x,1/2-y,1/2+z
loop_
_atom_site_type_symbol
_atom_site_label
_atom_site_fract_x
_atom_site_fract_y
_atom_site_fract_z
Si Si1 0.045587 0.655043 0.074536
Si Si2 0.493215 0.186614 0.163220
Si Si3 0.000000 0.987458 0.250000
Si Si4 0.779566 0.526626 0.726321
Si Si5 0.311821 0.091244 0.127341
Si Si6 0.705996 0.595554 0.428948
Si Si7 0.634588 0.705442 0.120705
Si Si8 0.203615 0.608974 0.566767
O O1 0.028019 0.679324 0.128034
O O2 0.154880 0.608455 0.179069
O O3 0.000000 0.500000 0.000000
O O4 0.978479 0.789387 0.982867
O O5 0.484999 0.364502 0.181012
O O6 0.576499 0.097683 0.276983
O O7 0.390588 0.113056 0.061366
O O8 0.906223 0.087115 0.173719
O O9 0.789105 0.511396 0.664497
O O10 0.676987 0.468832 0.649884
O O11 0.819725 0.696465 0.782544
O O12 0.281226 0.266917 0.117831
O O13 0.247244 0.038605 0.012417
O O14 0.750000 0.750000 0.500000
O O15 0.747055 0.557916 0.401857
O O16 0.669698 0.818656 0.097909
#
# Coordination Sequence:
#
# PCOD9257570 Si02
#       8
#     8   8   4   8   8   8   8   8
#     4   8  16  32  52  84 113 142 185 239 286 330
#     4  10  18  31  64  86 109 153 202 245 283 347
#     4  12  22  38  60  86 118 158 202 252 298 358
#     4   9  18  32  55  80 110 143 185 233 283 335
#     4  10  19  36  58  84 109 151 202 239 282 353
#     4  12  26  39  55  84 122 153 188 248 305 349
#     4   9  18  32  55  80 110 143 185 233 283 335
#     4  10  19  36  58  84 109 151 202 239 282 353
#
# _framework density 22.257041999999998
#
# number of rings (size 3 to 8) (size 9 to 14) (size 15 to 20)
#    0.000    2.133    2.667    1.200    0.000    2.133 
#    0.000    0.667    0.000    3.200    0.000    0.000 
#    0.000    0.000    0.000    0.000    0.000    0.000 
#
# Total GULP energy -167082.021683 kJ/mol
# GULP energy per Si atom -5569.400723 kJ/mol
# Density = 2.220638 g / cm^3
# Si number density = 22.257042 Si / 1000 Ang^3
#
#
#
# Elastic Constant Matrix: (Units=GPa)
#
#
# Indices 1 2 3 4 5 6 
#
# 1 39.7314 14.1801 25.4496 0.0000 9.3222 0.0000
# 2 14.1801 29.1027 -8.1822 0.0000 0.5467 0.0000
# 3 25.4496 -8.1822 91.1768 0.0000 16.9451 0.0000
# 4 0.0000 0.0000 0.0000 23.1563 0.0000 0.1677
# 5 9.3222 0.5467 16.9451 0.0000 54.3299 0.0000
# 6 0.0000 0.0000 0.0000 0.1677 0.0000 11.5642
#
#
#
# Elastic Compliance Matrix: (Units=1/GPa)
#
#
# Indices 1 2 3 4 5 6 
#
# 1 0.043769 -0.025190 -0.013937 0.000000 -0.002910 0.000000
# 2 -0.025190 0.049852 0.011459 0.000000 0.000247 0.000000
# 3 -0.013937 0.011459 0.016415 0.000000 -0.002844 0.000000
# 4 0.000000 0.000000 0.000000 0.043189 0.000000 -0.000626
# 5 -0.002910 0.000247 -0.002844 0.000000 0.019790 0.000000
# 6 0.000000 0.000000 0.000000 -0.000626 0.000000 0.086483
#
#
# Mechanical properties :
#
#
# Convention : Reuss Voigt Hill
#
# Bulk Modulus (GPa) = 18.28153 24.76734 21.52444
# Shear Modulus (GPa) = 15.01207 26.38099 20.69653
#
# Velocity S-wave (km/s) = 2.59990 3.44654 3.05271
# Velocity P-wave (km/s) = 4.15263 5.19521 4.70290
#
# Compressibility (1/GPa) = 0.05470001
#
# Stress axis : x y z
#
# Youngs Moduli (GPa) = 22.84720 20.05952 60.92149
#
# Poissons Ratio (x) = 0.50530 0.84905
# Poissons Ratio (y) = 0.57552 -0.69810
# Poissons Ratio (z) = 0.31842 -0.22986
#
# Static dielectric constant tensor:
#      x y z
#    x 1.936780 0.000000 -0.012790 
#    y 0.000000 1.877070 0.000000 
#    z -0.012790 0.000000 1.859140 
# 
# From -- ./inp_files/284341.got.cif
#   From: 2010.05.17/outbox.cif.g08.bks.cpg/sg15_143_cif.got.tgz:284341.got - 2010.06.03 18:47:42.
