data_PCOD9257064
_publ_section_title
;
Structure prediction by ZEFSAII (Michael W. Deem and Ramdas Pophale) SiO2 
 PCOD9257064
Probable space group: C 2/C
;
_chemical_formula_sum "Si O2"
_cell_formula_units_Z 36
_cell_length_a 24.523964
_cell_length_b 7.239344
_cell_length_c 8.816564
_cell_angle_alpha 90.000000
_cell_angle_beta 57.553400
_cell_angle_gamma 90.000000
_cell_volume 1320.918549
_symmetry_space_group_name_H-M "C 2/C"
_symmetry_group_IT_number 15
_symmetry_cell_setting 'monoclinic'
loop_
_space_group_symop_operation_xyz
x,y,z
-x,y,1/2-z
-x,-y,-z
x,-y,1/2+z
1/2+x,1/2+y,z
1/2-x,1/2+y,1/2-z
1/2-x,1/2-y,-z
1/2+x,1/2-y,1/2+z
loop_
_atom_site_type_symbol
_atom_site_label
_atom_site_fract_x
_atom_site_fract_y
_atom_site_fract_z
Si Si1 0.271138 0.134860 0.112743
Si Si2 0.569201 0.907056 0.381969
Si Si3 0.884221 0.194484 0.635430
Si Si4 0.000000 0.831132 0.750000
Si Si5 0.661035 0.741692 0.494912
O O1 0.328350 0.252295 0.103707
O O2 0.210419 0.128998 0.315706
O O3 0.297489 0.929960 0.038646
O O4 0.250000 0.250000 0.000000
O O5 0.555053 0.779623 0.260424
O O6 0.600445 0.802800 0.478011
O O7 0.500000 0.000000 0.500000
O O8 0.606507 0.097528 0.306823
O O9 0.949584 0.107170 0.463116
O O10 0.860046 0.113333 0.831713
#
# Coordination Sequence:
#
# PCOD9257064 Si02
#       5
#     8   8   8   4   8
#     4  11  22  37  56  82 118 157 198 244 295 356
#     4   9  17  30  50  79 113 145 183 237 292 338
#     4  10  19  32  51  80 115 151 190 239 295 350
#     4  10  18  30  52  84 120 152 188 246 308 354
#     4  11  22  37  58  87 121 158 197 241 297 358
#
# _framework density 27.253764
#
# number of rings (size 3 to 8) (size 9 to 14) (size 15 to 20)
#    0.000    1.778    0.000    8.667    0.000    2.667 
#    0.000    0.000    0.000    0.000    0.000   35.778 
#    0.000    8.889    0.000    0.000    0.000    0.000 
#
# Total GULP energy -100456.252174 kJ/mol
# GULP energy per Si atom -5580.902899 kJ/mol
# Density = 2.719173 g / cm^3
# Si number density = 27.253764 Si / 1000 Ang^3
#
#
#
# Elastic Constant Matrix: (Units=GPa)
#
#
# Indices 1 2 3 4 5 6 
#
# 1 145.9442 9.7140 32.5708 0.0000 7.9505 0.0000
# 2 9.7140 109.3683 21.6319 0.0000 0.6842 0.0000
# 3 32.5708 21.6319 232.2078 0.0000 -39.1312 0.0000
# 4 0.0000 0.0000 0.0000 15.3050 0.0000 8.0147
# 5 7.9505 0.6842 -39.1312 0.0000 46.1744 0.0000
# 6 0.0000 0.0000 0.0000 8.0147 0.0000 32.4656
#
#
#
# Elastic Compliance Matrix: (Units=1/GPa)
#
#
# Indices 1 2 3 4 5 6 
#
# 1 0.007323 -0.000357 -0.001406 0.000000 -0.002447 0.000000
# 2 -0.000357 0.009374 -0.000976 0.000000 -0.000904 0.000000
# 3 -0.001406 -0.000976 0.005411 0.000000 0.004842 0.000000
# 4 0.000000 0.000000 0.000000 0.075039 0.000000 -0.018525
# 5 -0.002447 -0.000904 0.004842 0.000000 0.026195 0.000000
# 6 0.000000 0.000000 0.000000 -0.018525 0.000000 0.035375
#
#
# Mechanical properties :
#
#
# Convention : Reuss Voigt Hill
#
# Bulk Modulus (GPa) = 60.13388 68.37261 64.25325
# Shear Modulus (GPa) = 29.45734 47.02924 38.24329
#
# Velocity S-wave (km/s) = 3.29120 4.15855 3.75003
# Velocity P-wave (km/s) = 6.04607 6.94261 6.50980
#
# Compressibility (1/GPa) = 0.01662956
#
# Stress axis : x y z
#
# Youngs Moduli (GPa) = 136.55841 106.68113 184.82341
#
# Poissons Ratio (x) = 0.03808 0.25992
# Poissons Ratio (y) = 0.04874 0.18030
# Poissons Ratio (z) = 0.19205 0.10407
#
# Static dielectric constant tensor:
#      x y z
#    x 1.570750 0.000000 -0.168720 
#    y 0.000000 9.266560 0.000000 
#    z -0.168720 0.000000 2.292800 
# 
# From -- ./inp_files/60256.got.cif
#   From: 2010.05.17/outbox.cif.g08.bks.cpg/sg15_31_cif.got.tgz:60256.got - 2010.06.03 18:47:42.
