data_PCOD9257038
_publ_section_title
;
Structure prediction by ZEFSAII (Michael W. Deem and Ramdas Pophale) SiO2 
 PCOD9257038
Probable space group: C 2/C
;
_chemical_formula_sum "Si O2"
_cell_formula_units_Z 56
_cell_length_a 11.789071
_cell_length_b 18.684738
_cell_length_c 13.406678
_cell_angle_alpha 90.000000
_cell_angle_beta 115.007095
_cell_angle_gamma 90.000000
_cell_volume 2676.322247
_symmetry_space_group_name_H-M "C 2/C"
_symmetry_group_IT_number 15
_symmetry_cell_setting 'monoclinic'
loop_
_space_group_symop_operation_xyz
x,y,z
-x,y,1/2-z
-x,-y,-z
x,-y,1/2+z
1/2+x,1/2+y,z
1/2-x,1/2+y,1/2-z
1/2-x,1/2-y,-z
1/2+x,1/2-y,1/2+z
loop_
_atom_site_type_symbol
_atom_site_label
_atom_site_fract_x
_atom_site_fract_y
_atom_site_fract_z
Si Si1 0.083821 0.478372 0.877818
Si Si2 0.895731 0.266892 0.863397
Si Si3 0.335373 0.255414 0.130588
Si Si4 0.972241 0.391093 0.020011
Si Si5 0.901345 0.897424 0.424371
Si Si6 0.842945 0.977074 0.032770
Si Si7 0.752740 0.902821 0.179883
O O1 0.225158 0.449682 0.922410
O O2 0.000000 0.476136 0.750000
O O3 0.094231 0.558677 0.924730
O O4 0.008608 0.435511 0.934535
O O5 0.809204 0.278368 0.731759
O O6 0.890750 0.188207 0.912157
O O7 0.032872 0.270679 0.863511
O O8 0.893620 0.324840 0.950126
O O9 0.335419 0.338200 0.165403
O O10 0.250000 0.250000 0.000000
O O11 0.110216 0.376298 0.117553
O O12 0.795931 0.921155 0.305794
O O13 0.035714 0.927508 0.437332
O O14 0.878855 0.942442 0.515999
O O15 0.784926 0.969103 0.120945
#
# Coordination Sequence:
#
# PCOD9257038 Si02
#       7
#     8   8   8   8   8   8   8
#     4  10  22  38  55  78 110 148 184 221 276 331
#     4  10  20  32  54  83 112 137 178 229 275 328
#     4  10  18  30  51  84 113 138 168 227 292 317
#     4  10  21  36  56  82 109 142 184 228 272 334
#     4  10  20  35  55  82 106 141 180 221 277 318
#     4  10  20  34  55  76 107 144 180 219 260 329
#     4  10  18  33  56  78 109 140 177 222 275 325
#
# _framework density 20.924237000000002
#
# number of rings (size 3 to 8) (size 9 to 14) (size 15 to 20)
#    0.000    2.000    2.857    1.286    2.000    0.000 
#    0.000    0.714    0.000    3.429    0.000    0.000 
#    0.000    0.000    0.000    0.000    0.000    0.000 
#
# Total GULP energy -155985.388043 kJ/mol
# GULP energy per Si atom -5570.906716 kJ/mol
# Density = 2.087661 g / cm^3
# Si number density = 20.924237 Si / 1000 Ang^3
#
#
#
# Elastic Constant Matrix: (Units=GPa)
#
#
# Indices 1 2 3 4 5 6 
#
# 1 28.1951 -4.3542 9.6778 0.0000 10.8232 0.0000
# 2 -4.3542 62.0417 37.0139 0.0000 -1.9425 0.0000
# 3 9.6778 37.0139 120.4912 0.0000 22.4164 0.0000
# 4 0.0000 0.0000 0.0000 34.7188 0.0000 -6.2304
# 5 10.8232 -1.9425 22.4164 0.0000 14.3176 0.0000
# 6 0.0000 0.0000 0.0000 -6.2304 0.0000 20.5396
#
#
#
# Elastic Compliance Matrix: (Units=1/GPa)
#
#
# Indices 1 2 3 4 5 6 
#
# 1 0.051577 -0.000628 0.004684 0.000000 -0.046407 0.000000
# 2 -0.000628 0.023269 -0.010968 0.000000 0.020803 0.000000
# 3 0.004684 -0.010968 0.017253 0.000000 -0.032042 0.000000
# 4 0.000000 0.000000 0.000000 0.030461 0.000000 0.009240
# 5 -0.046407 0.020803 -0.032042 0.000000 0.157914 0.000000
# 6 0.000000 0.000000 0.000000 0.009240 0.000000 0.051489
#
#
# Mechanical properties :
#
#
# Convention : Reuss Voigt Hill
#
# Bulk Modulus (GPa) = 12.77528 32.82255 22.79892
# Shear Modulus (GPa) = 13.44526 25.14124 19.29325
#
# Velocity S-wave (km/s) = 2.53764 3.47008 3.03983
# Velocity P-wave (km/s) = 3.83470 5.63699 4.82082
#
# Compressibility (1/GPa) = 0.07827616
#
# Stress axis : x y z
#
# Youngs Moduli (GPa) = 19.38850 42.97590 57.95941
#
# Poissons Ratio (x) = 0.02697 -0.27147
# Poissons Ratio (y) = 0.01217 0.63569
# Poissons Ratio (z) = -0.09081 0.47135
#
# Static dielectric constant tensor:
#      x y z
#    x 1.778790 0.000000 0.030530 
#    y 0.000000 1.821410 0.000000 
#    z 0.030530 0.000000 1.829550 
# 
# From -- ./inp_files/154911.got.cif
#   From: 2010.05.17/outbox.cif.g08.bks.cpg/sg15_78_cif.got.tgz:154911.got - 2010.06.03 18:47:42.
