data_PCOD9257519
_publ_section_title
;
Structure prediction by ZEFSAII (Michael W. Deem and Ramdas Pophale) SiO2 
 PCOD9257519
Probable space group: C 2/C
;
_chemical_formula_sum "Si O2"
_cell_formula_units_Z 48
_cell_length_a 10.962067
_cell_length_b 14.884365
_cell_length_c 20.203072
_cell_angle_alpha 90.000000
_cell_angle_beta 140.957366
_cell_angle_gamma 90.000000
_cell_volume 2076.398685
_symmetry_space_group_name_H-M "C 2/C"
_symmetry_group_IT_number 15
_symmetry_cell_setting 'monoclinic'
loop_
_space_group_symop_operation_xyz
x,y,z
-x,y,1/2-z
-x,-y,-z
x,-y,1/2+z
1/2+x,1/2+y,z
1/2-x,1/2+y,1/2-z
1/2-x,1/2-y,-z
1/2+x,1/2-y,1/2+z
loop_
_atom_site_type_symbol
_atom_site_label
_atom_site_fract_x
_atom_site_fract_y
_atom_site_fract_z
Si Si1 0.289199 0.317040 0.454308
Si Si2 0.089967 0.267891 0.625743
Si Si3 0.507358 0.083012 0.909671
Si Si4 0.304405 0.723568 0.345475
Si Si5 0.291471 0.526070 0.146482
Si Si6 0.688542 0.335500 0.410828
O O1 0.250000 0.250000 0.500000
O O2 0.280887 0.263210 0.381739
O O3 0.142866 0.399625 0.403092
O O4 0.516528 0.338722 0.558638
O O5 0.208199 0.306014 0.737068
O O6 0.908375 0.330146 0.529456
O O7 0.975495 0.180729 0.604571
O O8 0.387983 0.175747 0.865869
O O9 0.350885 0.003630 0.853242
O O10 0.657952 0.073260 0.034728
O O11 0.180049 0.749652 0.357611
O O12 0.500000 0.569876 0.250000
O O13 0.343721 0.430182 0.135944
#
# Coordination Sequence:
#
# PCOD9257519 Si02
#       6
#     8   8   8   8   8   8
#     4   9  19  34  47  77 113 133 179 233 269 331
#     4  10  18  31  57  82 105 154 177 228 294 316
#     4   9  19  35  51  77 110 136 184 228 260 339
#     4   9  17  33  54  81 112 140 180 233 280 324
#     4  10  19  36  57  78 107 150 184 227 278 322
#     4   9  18  32  54  84 111 137 196 228 259 343
#
# _framework density 23.116948000000001
#
# number of rings (size 3 to 8) (size 9 to 14) (size 15 to 20)
#    0.000    2.667    0.000    3.500    0.000    2.667 
#   15.000    0.833    0.000    0.000    4.333    0.000 
#    0.000    0.000    0.000    0.000    0.000    0.000 
#
# Total GULP energy -133759.916637 kJ/mol
# GULP energy per Si atom -5573.329860 kJ/mol
# Density = 2.306433 g / cm^3
# Si number density = 23.116948 Si / 1000 Ang^3
#
#
#
# Elastic Constant Matrix: (Units=GPa)
#
#
# Indices 1 2 3 4 5 6 
#
# 1 123.9440 26.5803 9.0033 0.0000 -8.3192 0.0000
# 2 26.5803 46.5840 6.9757 0.0000 5.7564 0.0000
# 3 9.0033 6.9757 123.8215 0.0000 5.8336 0.0000
# 4 0.0000 0.0000 0.0000 17.5494 0.0000 0.0548
# 5 -8.3192 5.7564 5.8336 0.0000 31.2805 0.0000
# 6 0.0000 0.0000 0.0000 0.0548 0.0000 20.5021
#
#
#
# Elastic Compliance Matrix: (Units=1/GPa)
#
#
# Indices 1 2 3 4 5 6 
#
# 1 0.009617 -0.005868 -0.000545 0.000000 0.003739 0.000000
# 2 -0.005868 0.025684 -0.000731 0.000000 -0.006151 0.000000
# 3 -0.000545 -0.000731 0.008230 0.000000 -0.001545 0.000000
# 4 0.000000 0.000000 0.000000 0.056982 0.000000 -0.000152
# 5 0.003739 -0.006151 -0.001545 0.000000 0.034383 0.000000
# 6 0.000000 0.000000 0.000000 -0.000152 0.000000 0.048776
#
#
# Mechanical properties :
#
#
# Convention : Reuss Voigt Hill
#
# Bulk Modulus (GPa) = 34.19443 42.16312 38.17877
# Shear Modulus (GPa) = 24.07232 30.65241 27.36236
#
# Velocity S-wave (km/s) = 3.23046 3.64534 3.44415
# Velocity P-wave (km/s) = 5.36084 5.99972 5.68925
#
# Compressibility (1/GPa) = 0.02924453
#
# Stress axis : x y z
#
# Youngs Moduli (GPa) = 103.98141 38.93443 121.51087
#
# Poissons Ratio (x) = 0.22846 0.06621
# Poissons Ratio (y) = 0.61015 0.08877
# Poissons Ratio (z) = 0.05666 0.02844
#
# Static dielectric constant tensor:
#      x y z
#    x 2.025370 0.000000 -0.003130 
#    y 0.000000 1.863630 0.000000 
#    z -0.003130 0.000000 1.946810 
# 
# From -- ./inp_files/146355.got.cif
#   From: 2010.05.17/outbox.cif.g08.bks.cpg/sg15_74_cif.got.tgz:146355.got - 2010.06.03 18:47:42.
