data_PCOD9257068
_publ_section_title
;
Structure prediction by ZEFSAII (Michael W. Deem and Ramdas Pophale) SiO2 
 PCOD9257068
Probable space group: C 2/C
;
_chemical_formula_sum "Si O2"
_cell_formula_units_Z 60
_cell_length_a 15.344073
_cell_length_b 12.235662
_cell_length_c 25.459512
_cell_angle_alpha 90.000000
_cell_angle_beta 35.338618
_cell_angle_gamma 90.000000
_cell_volume 2764.726514
_symmetry_space_group_name_H-M "C 2/C"
_symmetry_group_IT_number 15
_symmetry_cell_setting 'monoclinic'
loop_
_space_group_symop_operation_xyz
x,y,z
-x,y,1/2-z
-x,-y,-z
x,-y,1/2+z
1/2+x,1/2+y,z
1/2-x,1/2+y,1/2-z
1/2-x,1/2-y,-z
1/2+x,1/2-y,1/2+z
loop_
_atom_site_type_symbol
_atom_site_label
_atom_site_fract_x
_atom_site_fract_y
_atom_site_fract_z
Si Si1 0.321074 0.315822 0.124148
Si Si2 0.260055 0.178374 0.549321
Si Si3 0.377978 0.133007 0.678655
Si Si4 0.421750 0.913400 0.613211
Si Si5 0.115628 0.565816 0.648431
Si Si6 0.000000 0.818443 0.250000
Si Si7 0.144656 0.097681 0.448949
Si Si8 0.276094 0.825904 0.790343
O O1 0.256654 0.353690 0.212439
O O2 0.360553 0.186400 0.107556
O O3 0.198297 0.337817 0.139700
O O4 0.466905 0.390747 0.040956
O O5 0.250000 0.250000 0.500000
O O6 0.397993 0.094974 0.477712
O O7 0.114903 0.127678 0.650741
O O8 0.308759 0.277759 0.562650
O O9 0.521853 0.105581 0.644331
O O10 0.363927 0.249645 0.657709
O O11 0.366639 0.038718 0.639747
O O12 0.363255 0.877257 0.699082
O O13 0.249703 0.481108 0.568542
O O14 0.000000 0.518353 0.750000
O O15 0.900300 0.744993 0.259762
O O16 0.207183 0.080388 0.360025
#
# Coordination Sequence:
#
# PCOD9257068 Si02
#       8
#     8   8   8   8   8   4   8   8
#     4   9  20  36  55  85 116 148 193 246 294 342
#     4  10  18  30  52  86 114 146 186 236 293 347
#     4  10  21  36  57  84 114 153 195 240 289 352
#     4  10  19  35  56  83 115 154 185 237 295 345
#     4  10  19  32  56  83 109 148 195 239 289 344
#     4  10  20  32  56  84 118 146 190 240 294 344
#     4  10  20  32  57  87 114 148 190 248 293 342
#     4  10  20  34  57  86 117 145 195 241 293 345
#
# _framework density 21.701965000000001
#
# number of rings (size 3 to 8) (size 9 to 14) (size 15 to 20)
#    0.000    2.133    1.333    2.800    5.600    0.000 
#    0.000    6.667    7.333    3.200    0.000    0.000 
#    0.000    0.000    0.000    0.000    0.000    0.000 
#
# Total GULP energy -167061.036007 kJ/mol
# GULP energy per Si atom -5568.701200 kJ/mol
# Density = 2.165257 g / cm^3
# Si number density = 21.701965 Si / 1000 Ang^3
#
#
#
# Elastic Constant Matrix: (Units=GPa)
#
#
# Indices 1 2 3 4 5 6 
#
# 1 57.9587 13.4793 20.0932 0.0000 -12.7740 0.0000
# 2 13.4793 50.5604 26.3278 0.0000 -11.3284 0.0000
# 3 20.0932 26.3278 109.0005 -0.0002 -13.0529 0.0000
# 4 0.0000 0.0000 -0.0002 16.9398 0.0000 7.9552
# 5 -12.7740 -11.3284 -13.0529 0.0000 25.8435 0.0000
# 6 0.0000 0.0000 0.0000 7.9552 0.0000 10.2204
#
#
#
# Elastic Compliance Matrix: (Units=1/GPa)
#
#
# Indices 1 2 3 4 5 6 
#
# 1 0.020329 -0.002519 -0.002201 0.000000 0.007832 0.000000
# 2 -0.002519 0.024438 -0.004582 0.000000 0.007153 0.000000
# 3 -0.002201 -0.004582 0.010980 0.000000 0.002449 0.000000
# 4 0.000000 0.000000 0.000000 0.093043 0.000000 -0.072422
# 5 0.007832 0.007153 0.002449 0.000000 0.046939 0.000000
# 6 0.000000 0.000000 0.000000 -0.072422 0.000000 0.154214
#
#
# Mechanical properties :
#
#
# Convention : Reuss Voigt Hill
#
# Bulk Modulus (GPa) = 26.92223 37.48002 32.20113
# Shear Modulus (GPa) = 13.12584 21.10868 17.11726
#
# Velocity S-wave (km/s) = 2.46198 3.12214 2.81150
# Velocity P-wave (km/s) = 4.52926 5.50498 5.04078
#
# Compressibility (1/GPa) = 0.03714402
#
# Stress axis : x y z
#
# Youngs Moduli (GPa) = 49.19140 40.91919 91.07428
#
# Poissons Ratio (x) = 0.10306 0.20047
# Poissons Ratio (y) = 0.12389 0.41730
# Poissons Ratio (z) = 0.10828 0.18749
#
# Static dielectric constant tensor:
#      x y z
#    x 1.852360 0.000000 0.049870 
#    y 0.000000 1.822680 0.000000 
#    z 0.049870 0.000000 1.953480 
# 
# From -- ./inp_files/316048.got.cif
#   From: 2010.05.17/outbox.cif.g08.bks.cpg/sg15_159_cif.got.tgz:316048.got - 2010.06.03 18:47:42.
