data_PCOD9257094
_publ_section_title
;
Structure prediction by ZEFSAII (Michael W. Deem and Ramdas Pophale) SiO2 
 PCOD9257094
Probable space group: C 2/C
;
_chemical_formula_sum "Si O2"
_cell_formula_units_Z 44
_cell_length_a 7.069396
_cell_length_b 13.214457
_cell_length_c 18.996493
_cell_angle_alpha 90.000000
_cell_angle_beta 84.072964
_cell_angle_gamma 90.000000
_cell_volume 1765.131989
_symmetry_space_group_name_H-M "C 2/C"
_symmetry_group_IT_number 15
_symmetry_cell_setting 'monoclinic'
loop_
_space_group_symop_operation_xyz
x,y,z
-x,y,1/2-z
-x,-y,-z
x,-y,1/2+z
1/2+x,1/2+y,z
1/2-x,1/2+y,1/2-z
1/2-x,1/2-y,-z
1/2+x,1/2-y,1/2+z
loop_
_atom_site_type_symbol
_atom_site_label
_atom_site_fract_x
_atom_site_fract_y
_atom_site_fract_z
Si Si1 0.424244 0.570384 0.903397
Si Si2 0.000000 0.158093 0.750000
Si Si3 0.848615 0.607497 0.057921
Si Si4 0.638230 0.388178 0.851405
Si Si5 0.273119 0.842840 0.704985
Si Si6 0.517589 0.729557 0.475617
O O1 0.413679 0.599528 0.820848
O O2 0.252561 0.500466 0.938382
O O3 0.603188 0.491836 0.895172
O O4 0.455108 0.662040 0.955502
O O5 0.835738 0.229673 0.723250
O O6 0.908485 0.622207 0.136379
O O7 0.998630 0.653644 0.997692
O O8 0.677385 0.686841 0.049784
O O9 0.775096 0.398950 0.779648
O O10 0.437032 0.360073 0.819671
O O11 0.665192 0.300339 0.908296
#
# Coordination Sequence:
#
# PCOD9257094 Si02
#       6
#     8   4   8   8   8   8
#     4  10  18  30  53  84 100 140 188 231 270 335
#     4  12  20  30  52  80 106 142 188 224 274 338
#     4   9  16  30  50  78 111 132 180 237 275 322
#     4   9  18  35  55  77 106 139 181 229 279 325
#     4   9  18  32  50  76 106 142 178 224 276 328
#     4   9  16  29  53  84 100 138 183 233 275 333
#
# _framework density 24.927313000000002
#
# number of rings (size 3 to 8) (size 9 to 14) (size 15 to 20)
#    0.000    2.909    1.818    4.364    0.000    0.000 
#    0.000    0.909    0.000   20.727    0.000    1.273 
#    0.000    0.000    0.000    0.000    0.000    0.000 
#
# Total GULP energy -122584.036082 kJ/mol
# GULP energy per Si atom -5572.001640 kJ/mol
# Density = 2.487058 g / cm^3
# Si number density = 24.927313 Si / 1000 Ang^3
#
#
#
# Elastic Constant Matrix: (Units=GPa)
#
#
# Indices 1 2 3 4 5 6 
#
# 1 39.9174 -1.9776 2.2287 0.0000 15.4916 0.0000
# 2 -1.9776 51.2149 18.3304 0.0000 -22.9439 0.0000
# 3 2.2287 18.3304 130.8460 0.0000 -7.2877 0.0000
# 4 0.0000 0.0000 0.0000 -12.1741 0.0000 -17.0452
# 5 15.4916 -22.9439 -7.2877 0.0000 30.5982 0.0000
# 6 0.0000 0.0000 0.0000 -17.0452 0.0000 27.1065
#
#
#
# Elastic Compliance Matrix: (Units=1/GPa)
#
#
# Indices 1 2 3 4 5 6 
#
# 1 0.034129 -0.009436 -0.000624 0.000000 -0.024503 0.000000
# 2 -0.009436 0.033163 -0.002872 0.000000 0.028961 0.000000
# 3 -0.000624 -0.002872 0.008060 0.000000 0.000082 0.000000
# 4 0.000000 0.000000 0.000000 -0.043682 0.000000 -0.027468
# 5 -0.024503 0.028961 0.000082 0.000000 0.066823 0.000000
# 6 0.000000 0.000000 0.000000 -0.027468 0.000000 0.019619
#
#
# Mechanical properties :
#
#
# Convention : Reuss Voigt Hill
#
# Bulk Modulus (GPa) = 20.20717 28.79348 24.50033
# Shear Modulus (GPa) = 31.15800 22.66591 26.91196
#
# Velocity S-wave (km/s) = 3.53930 3.01870 3.28932
# Velocity P-wave (km/s) = 4.98260 4.87095 4.92709
#
# Compressibility (1/GPa) = 0.04948738
#
# Stress axis : x y z
#
# Youngs Moduli (GPa) = 29.30084 30.15370 124.06733
#
# Poissons Ratio (x) = 0.28453 0.07744
# Poissons Ratio (y) = 0.27649 0.35634
# Poissons Ratio (z) = 0.01829 0.08661
#
# Static dielectric constant tensor:
#      x y z
#    x 2.257480 0.000000 -0.160020 
#    y 0.000000 1.977490 0.000000 
#    z -0.160020 0.000000 2.061500 
# 
# From -- ./inp_files/188829.got.cif
#   From: 2010.05.17/outbox.cif.g08.bks.cpg/sg15_95_cif.got.tgz:188829.got - 2010.06.03 18:47:42.
