data_PCOD9257285
_publ_section_title
;
Structure prediction by ZEFSAII (Michael W. Deem and Ramdas Pophale) SiO2 
 PCOD9257285
Probable space group: C 2/C
;
_chemical_formula_sum "Si O2"
_cell_formula_units_Z 64
_cell_length_a 16.049090
_cell_length_b 10.829388
_cell_length_c 19.877552
_cell_angle_alpha 90.000000
_cell_angle_beta 123.726539
_cell_angle_gamma 90.000000
_cell_volume 2873.309289
_symmetry_space_group_name_H-M "C 2/C"
_symmetry_group_IT_number 15
_symmetry_cell_setting 'monoclinic'
loop_
_space_group_symop_operation_xyz
x,y,z
-x,y,1/2-z
-x,-y,-z
x,-y,1/2+z
1/2+x,1/2+y,z
1/2-x,1/2+y,1/2-z
1/2-x,1/2-y,-z
1/2+x,1/2-y,1/2+z
loop_
_atom_site_type_symbol
_atom_site_label
_atom_site_fract_x
_atom_site_fract_y
_atom_site_fract_z
Si Si1 0.242759 0.844492 0.309845
Si Si2 0.111015 0.237408 0.239711
Si Si3 0.593903 0.488112 0.163190
Si Si4 0.606768 0.060925 0.132218
Si Si5 0.208314 0.638745 0.905138
Si Si6 0.571329 0.684234 0.540218
Si Si7 0.705854 0.909829 0.819172
Si Si8 0.962787 0.353150 0.085109
O O1 0.303924 0.783574 0.274809
O O2 0.136723 0.886598 0.233333
O O3 0.306835 0.966514 0.356336
O O4 0.225931 0.729898 0.351653
O O5 0.163021 0.257099 0.334530
O O6 0.019963 0.327587 0.180585
O O7 0.069109 0.103335 0.200149
O O8 0.532227 0.416640 0.076893
O O9 0.690873 0.536193 0.165383
O O10 0.504669 0.983213 0.079406
O O11 0.601478 0.190998 0.093293
O O12 0.632690 0.085677 0.221954
O O13 0.327747 0.637199 0.951117
O O14 0.172612 0.506608 0.859856
O O15 0.154928 0.651286 0.952899
O O16 0.504172 0.742401 0.450671
#
# Coordination Sequence:
#
# PCOD9257285 Si02
#       8
#     8   8   8   8   8   8   8   8
#     4   9  14  28  51  81  97 125 178 220 259 293
#     4  10  18  31  50  76 104 133 172 224 264 300
#     4   9  16  28  50  75 101 126 173 219 255 302
#     4  10  18  32  52  78 106 134 173 224 268 303
#     4  11  19  35  54  75 104 136 178 215 264 328
#     4  11  20  35  53  77 106 138 178 217 263 328
#     4   9  15  27  52  78  96 127 175 220 251 301
#     4  11  23  32  50  78 110 141 166 217 280 322
#
# _framework density 22.273966999999999
#
# number of rings (size 3 to 8) (size 9 to 14) (size 15 to 20)
#    0.000    2.000    6.250    2.625    0.000    0.500 
#    0.000    0.000    0.000    5.250    0.000    0.000 
#    0.000    0.000    0.000    0.000    0.000    0.000 
#
# Total GULP energy -178263.101015 kJ/mol
# GULP energy per Si atom -5570.721907 kJ/mol
# Density = 2.222327 g / cm^3
# Si number density = 22.273967 Si / 1000 Ang^3
#
#
#
# Elastic Constant Matrix: (Units=GPa)
#
#
# Indices 1 2 3 4 5 6 
#
# 1 32.2380 -3.0482 -9.9150 0.0000 1.4963 0.0000
# 2 -3.0482 103.9966 5.3871 0.0000 -4.2779 0.0000
# 3 -9.9150 5.3871 41.2764 0.0000 -1.7012 0.0000
# 4 0.0000 0.0000 0.0000 34.9625 0.0000 6.0605
# 5 1.4963 -4.2779 -1.7012 0.0000 13.5031 0.0000
# 6 0.0000 0.0000 0.0000 6.0605 0.0000 11.3234
#
#
#
# Elastic Compliance Matrix: (Units=1/GPa)
#
#
# Indices 1 2 3 4 5 6 
#
# 1 0.033615 0.000470 0.007907 0.000000 -0.002580 0.000000
# 2 0.000470 0.009804 -0.001046 0.000000 0.002922 0.000000
# 3 0.007907 -0.001046 0.026350 0.000000 0.002112 0.000000
# 4 0.000000 0.000000 0.000000 0.031527 0.000000 -0.016874
# 5 -0.002580 0.002922 0.002112 0.000000 0.075535 0.000000
# 6 0.000000 0.000000 0.000000 -0.016874 0.000000 0.097344
#
#
# Mechanical properties :
#
#
# Convention : Reuss Voigt Hill
#
# Bulk Modulus (GPa) = 11.84417 18.03987 14.94202
# Shear Modulus (GPa) = 17.38178 24.29692 20.83935
#
# Velocity S-wave (km/s) = 2.79653 3.30634 3.06206
# Velocity P-wave (km/s) = 3.96944 4.76367 4.38457
#
# Compressibility (1/GPa) = 0.08442976
#
# Stress axis : x y z
#
# Youngs Moduli (GPa) = 29.74836 102.00057 37.95084
#
# Poissons Ratio (x) = -0.04790 -0.30008
# Poissons Ratio (y) = -0.01397 0.03971
# Poissons Ratio (z) = -0.23522 0.10672
#
# Static dielectric constant tensor:
#      x y z
#    x 1.862970 0.000000 0.000660 
#    y 0.000000 1.908120 0.000000 
#    z 0.000660 0.000000 1.903410 
# 
# From -- ./inp_files/248394.got.cif
#   From: 2010.05.17/outbox.cif.g08.bks.cpg/sg15_125_cif.got.tgz:248394.got - 2010.06.03 18:47:42.
