data_PCOD9257619
_publ_section_title
;
Structure prediction by ZEFSAII (Michael W. Deem and Ramdas Pophale) SiO2 
 PCOD9257619
Probable space group: C 2/C
;
_chemical_formula_sum "Si O2"
_cell_formula_units_Z 64
_cell_length_a 14.297883
_cell_length_b 9.896698
_cell_length_c 19.198035
_cell_angle_alpha 90.000000
_cell_angle_beta 104.456287
_cell_angle_gamma 90.000000
_cell_volume 2630.546495
_symmetry_space_group_name_H-M "C 2/C"
_symmetry_group_IT_number 15
_symmetry_cell_setting 'monoclinic'
loop_
_space_group_symop_operation_xyz
x,y,z
-x,y,1/2-z
-x,-y,-z
x,-y,1/2+z
1/2+x,1/2+y,z
1/2-x,1/2+y,1/2-z
1/2-x,1/2-y,-z
1/2+x,1/2-y,1/2+z
loop_
_atom_site_type_symbol
_atom_site_label
_atom_site_fract_x
_atom_site_fract_y
_atom_site_fract_z
Si Si1 0.669525 0.614088 0.831466
Si Si2 0.104087 0.623157 0.670547
Si Si3 0.718716 0.155264 0.929847
Si Si4 0.532012 0.663893 0.059175
Si Si5 0.620207 0.175537 0.215039
Si Si6 0.845042 0.824790 0.704904
Si Si7 0.713429 0.399320 0.496998
Si Si8 0.418165 0.610768 0.900656
O O1 0.784269 0.620256 0.834311
O O2 0.625949 0.752267 0.791643
O O3 0.625917 0.480922 0.787768
O O4 0.669710 0.578088 0.912792
O O5 0.044032 0.691499 0.596855
O O6 0.080664 0.475237 0.695936
O O7 0.100087 0.731581 0.731014
O O8 0.650486 0.248420 0.869164
O O9 0.802380 0.113364 0.889790
O O10 0.750000 0.250000 0.000000
O O11 0.706667 0.009604 0.965267
O O12 0.530366 0.530947 0.107555
O O13 0.628672 0.617029 0.036751
O O14 0.453708 0.659492 0.983701
O O15 0.732012 0.170307 0.209001
O O16 0.563509 0.277278 0.153864
O O17 0.750000 0.250000 0.500000
#
# Coordination Sequence:
#
# PCOD9257619 Si02
#       8
#     8   8   8   8   8   8   8   8
#     4  10  18  32  49  79 109 136 176 216 269 315
#     4  10  19  31  52  78 105 137 178 220 265 311
#     4  10  19  34  55  82 109 134 176 220 268 313
#     4  10  20  36  54  77 107 142 181 215 263 320
#     4   9  19  31  51  76 106 137 176 221 263 311
#     4   9  18  31  51  76 106 138 172 221 263 313
#     4  11  21  31  53  81 113 139 171 220 271 313
#     4   9  20  36  55  77 104 141 182 218 257 317
#
# _framework density 24.329547000000002
#
# number of rings (size 3 to 8) (size 9 to 14) (size 15 to 20)
#    0.000    2.250    2.500    0.750    1.750    3.500 
#    0.000    0.625    0.000    0.750    3.250    0.000 
#    0.000    0.000    0.000    0.000    0.000    0.000 
#
# Total GULP energy -178533.757512 kJ/mol
# GULP energy per Si atom -5579.179922 kJ/mol
# Density = 2.427417 g / cm^3
# Si number density = 24.329547 Si / 1000 Ang^3
#
#
#
# Elastic Constant Matrix: (Units=GPa)
#
#
# Indices 1 2 3 4 5 6 
#
# 1 56.0471 9.0289 -7.4712 0.0000 -12.3602 0.0000
# 2 9.0289 175.8189 37.8314 0.0000 4.9069 0.0000
# 3 -7.4712 37.8314 73.0009 0.0000 -0.6203 0.0000
# 4 0.0000 0.0000 0.0000 48.2226 0.0000 2.7919
# 5 -12.3602 4.9069 -0.6203 0.0000 21.1709 0.0000
# 6 0.0000 0.0000 0.0000 2.7919 0.0000 8.3880
#
#
#
# Elastic Compliance Matrix: (Units=1/GPa)
#
#
# Indices 1 2 3 4 5 6 
#
# 1 0.021578 -0.002224 0.003473 0.000000 0.013215 0.000000
# 2 -0.002224 0.006684 -0.003717 0.000000 -0.002957 0.000000
# 3 0.003473 -0.003717 0.016009 0.000000 0.003358 0.000000
# 4 0.000000 0.000000 0.000000 0.021145 0.000000 -0.007038
# 5 0.013215 -0.002957 0.003358 0.000000 0.055734 0.000000
# 6 0.000000 0.000000 0.000000 -0.007038 0.000000 0.121561
#
#
# Mechanical properties :
#
#
# Convention : Reuss Voigt Hill
#
# Bulk Modulus (GPa) = 25.42246 42.62722 34.02484
# Shear Modulus (GPa) = 19.17499 33.25482 26.21490
#
# Velocity S-wave (km/s) = 2.81042 3.70110 3.28608
# Velocity P-wave (km/s) = 4.58292 5.98523 5.33039
#
# Compressibility (1/GPa) = 0.03933530
#
# Stress axis : x y z
#
# Youngs Moduli (GPa) = 46.34385 149.60775 62.46648
#
# Poissons Ratio (x) = 0.33277 -0.21697
# Poissons Ratio (y) = 0.10308 0.23217
# Poissons Ratio (z) = -0.16097 0.55605
#
# Static dielectric constant tensor:
#      x y z
#    x 2.172450 0.000000 0.213780 
#    y 0.000000 2.205890 0.000000 
#    z 0.213780 0.000000 2.163490 
# 
# From -- ./inp_files/251903.got.cif
#   From: 2010.05.17/outbox.cif.g08.bks.cpg/sg15_126_cif.got.tgz:251903.got - 2010.06.03 18:47:42.
