data_PCOD9257912
_publ_section_title
;
Structure prediction by ZEFSAII (Michael W. Deem and Ramdas Pophale) SiO2 
 PCOD9257912
Probable space group: C 2/C
;
_chemical_formula_sum "Si O2"
_cell_formula_units_Z 48
_cell_length_a 10.830707
_cell_length_b 16.513343
_cell_length_c 13.526237
_cell_angle_alpha 90.000000
_cell_angle_beta 103.569922
_cell_angle_gamma 90.000000
_cell_volume 2351.650261
_symmetry_space_group_name_H-M "C 2/C"
_symmetry_group_IT_number 15
_symmetry_cell_setting 'monoclinic'
loop_
_space_group_symop_operation_xyz
x,y,z
-x,y,1/2-z
-x,-y,-z
x,-y,1/2+z
1/2+x,1/2+y,z
1/2-x,1/2+y,1/2-z
1/2-x,1/2-y,-z
1/2+x,1/2-y,1/2+z
loop_
_atom_site_type_symbol
_atom_site_label
_atom_site_fract_x
_atom_site_fract_y
_atom_site_fract_z
Si Si1 0.911611 0.660942 0.515012
Si Si2 0.746888 0.264881 0.149130
Si Si3 0.716812 0.000597 0.015149
Si Si4 0.668163 0.132320 0.662336
Si Si5 0.358386 0.028757 0.221701
Si Si6 0.865191 0.903465 0.682103
O O1 0.801524 0.675123 0.576013
O O2 0.877948 0.720953 0.418564
O O3 0.895869 0.566528 0.481262
O O4 0.044699 0.675091 0.593280
O O5 0.745912 0.308327 0.255105
O O6 0.849754 0.192442 0.170188
O O7 0.694571 0.977762 0.898562
O O8 0.723073 0.919471 0.081716
O O9 0.838676 0.051861 0.073541
O O10 0.626687 0.060825 0.729158
O O11 0.500000 0.066336 0.250000
O O12 0.250291 0.070793 0.267331
O O13 0.000000 0.926858 0.750000
#
# Coordination Sequence:
#
# PCOD9257912 Si02
#       6
#     8   8   8   8   8   8
#     4  10  18  32  55  87 118 150 201 251 296 334
#     4  10  20  33  55  85 118 156 199 245 293 352
#     4  10  21  34  60  90 116 154 201 247 300 352
#     4  11  19  34  59  89 122 147 197 255 300 341
#     4  11  21  36  62  92 119 151 199 253 299 344
#     4  10  23  38  57  85 123 162 199 241 295 359
#
# _framework density 20.411200000000001
#
# number of rings (size 3 to 8) (size 9 to 14) (size 15 to 20)
#    0.000    1.667    3.333    2.000    4.667    0.667 
#    0.000    0.833    0.000    4.000    0.000    0.000 
#    0.000    0.000    0.000    0.000    0.000    0.000 
#
# Total GULP energy -133774.771312 kJ/mol
# GULP energy per Si atom -5573.948805 kJ/mol
# Density = 2.036474 g / cm^3
# Si number density = 20.411200 Si / 1000 Ang^3
#
#
#
# Elastic Constant Matrix: (Units=GPa)
#
#
# Indices 1 2 3 4 5 6 
#
# 1 58.6115 19.4905 35.9136 0.0000 17.3764 0.0000
# 2 19.4905 73.4818 45.4021 0.0000 11.1586 0.0000
# 3 35.9136 45.4021 177.3578 0.0000 27.2139 0.0000
# 4 0.0000 0.0000 0.0000 44.4578 0.0000 4.9953
# 5 17.3764 11.1586 27.2139 0.0000 25.3373 0.0000
# 6 0.0000 0.0000 0.0000 4.9953 0.0000 14.5272
#
#
#
# Elastic Compliance Matrix: (Units=1/GPa)
#
#
# Indices 1 2 3 4 5 6 
#
# 1 0.022909 -0.002983 -0.001995 0.000000 -0.012255 0.000000
# 2 -0.002983 0.016774 -0.003437 0.000000 -0.001650 0.000000
# 3 -0.001995 -0.003437 0.007759 0.000000 -0.005451 0.000000
# 4 0.000000 0.000000 0.000000 0.023397 0.000000 -0.008045
# 5 -0.012255 -0.001650 -0.005451 0.000000 0.054454 0.000000
# 6 0.000000 0.000000 0.000000 -0.008045 0.000000 0.071603
#
#
# Mechanical properties :
#
#
# Convention : Reuss Voigt Hill
#
# Bulk Modulus (GPa) = 32.66654 56.78483 44.72568
# Shear Modulus (GPa) = 22.32852 30.77413 26.55133
#
# Velocity S-wave (km/s) = 3.31106 3.88713 3.61060
# Velocity P-wave (km/s) = 5.53683 6.93017 6.27231
#
# Compressibility (1/GPa) = 0.03061236
#
# Stress axis : x y z
#
# Youngs Moduli (GPa) = 43.65114 59.61576 128.89016
#
# Poissons Ratio (x) = 0.17783 0.25712
# Poissons Ratio (y) = 0.13021 0.44297
# Poissons Ratio (z) = 0.08708 0.20489
#
# Static dielectric constant tensor:
#      x y z
#    x 1.730830 0.000000 -0.006690 
#    y 0.000000 1.774650 0.000000 
#    z -0.006690 0.000000 1.780960 
# 
# From -- ./inp_files/145195.got.cif
#   From: 2010.05.17/outbox.cif.g08.bks.cpg/sg15_73_cif.got.tgz:145195.got - 2010.06.03 18:47:42.
