data_PCOD9257988
_publ_section_title
;
Structure prediction by ZEFSAII (Michael W. Deem and Ramdas Pophale) SiO2 
 PCOD9257988
Probable space group: C 2/C
;
_chemical_formula_sum "Si O2"
_cell_formula_units_Z 60
_cell_length_a 25.977107
_cell_length_b 17.167921
_cell_length_c 9.431633
_cell_angle_alpha 90.000000
_cell_angle_beta 47.999660
_cell_angle_gamma 90.000000
_cell_volume 3125.838388
_symmetry_space_group_name_H-M "C 2/C"
_symmetry_group_IT_number 15
_symmetry_cell_setting 'monoclinic'
loop_
_space_group_symop_operation_xyz
x,y,z
-x,y,1/2-z
-x,-y,-z
x,-y,1/2+z
1/2+x,1/2+y,z
1/2-x,1/2+y,1/2-z
1/2-x,1/2-y,-z
1/2+x,1/2-y,1/2+z
loop_
_atom_site_type_symbol
_atom_site_label
_atom_site_fract_x
_atom_site_fract_y
_atom_site_fract_z
Si Si1 0.000000 0.793663 0.250000
Si Si2 0.645860 0.645235 0.561479
Si Si3 0.088550 0.330757 0.423787
Si Si4 0.761779 0.435629 0.986314
Si Si5 0.078129 0.626820 0.618902
Si Si6 0.163854 0.721066 0.261757
Si Si7 0.773937 0.759922 0.793593
Si Si8 0.339819 0.025332 0.614454
O O1 0.064611 0.848165 0.175797
O O2 0.968783 0.731333 0.421036
O O3 0.682909 0.574575 0.577211
O O4 0.655000 0.717987 0.653018
O O5 0.691012 0.660527 0.334172
O O6 0.088251 0.338459 0.255789
O O7 0.162083 0.297642 0.338832
O O8 0.094947 0.416764 0.480395
O O9 0.798077 0.354766 0.871144
O O10 0.800877 0.504731 0.831557
O O11 0.781529 0.445677 0.112727
O O12 0.095131 0.689730 0.465444
O O13 0.129579 0.555333 0.500561
O O14 0.000000 0.599112 0.750000
O O15 0.211273 0.754644 0.301128
O O16 0.750000 0.750000 0.000000
#
# Coordination Sequence:
#
# PCOD9257988 Si02
#       8
#     4   8   8   8   8   8   8   8
#     4  10  22  36  60  84 110 154 184 228 296 338
#     4  10  20  36  58  82 112 143 194 238 285 340
#     4  11  21  37  54  80 114 149 187 226 274 350
#     4  10  20  36  56  81 109 147 189 241 273 324
#     4  11  23  34  49  75 119 155 184 223 271 344
#     4  10  19  36  53  81 110 147 192 236 288 324
#     4  10  18  32  57  81 104 140 188 243 286 310
#     4  11  22  36  54  80 113 148 193 222 277 328
#
# _framework density 19.194851
#
# number of rings (size 3 to 8) (size 9 to 14) (size 15 to 20)
#    0.000    1.600    2.667    4.800    0.933    1.600 
#    0.000    0.000    0.000    0.800    0.000    0.000 
#    0.000    0.000    0.000    0.000    0.000    0.000 
#
# Total GULP energy -167153.076898 kJ/mol
# GULP energy per Si atom -5571.769230 kJ/mol
# Density = 1.915116 g / cm^3
# Si number density = 19.194851 Si / 1000 Ang^3
#
#
#
# Elastic Constant Matrix: (Units=GPa)
#
#
# Indices 1 2 3 4 5 6 
#
# 1 87.1740 3.5779 17.6667 0.0000 -6.0786 0.0000
# 2 3.5779 17.0544 2.8602 0.0000 -2.1058 0.0000
# 3 17.6667 2.8602 68.6549 0.0000 1.6453 0.0000
# 4 0.0000 0.0000 0.0000 6.4341 0.0000 -1.1836
# 5 -6.0786 -2.1058 1.6453 0.0000 35.5629 0.0000
# 6 0.0000 0.0000 0.0000 -1.1836 0.0000 31.1747
#
#
#
# Elastic Compliance Matrix: (Units=1/GPa)
#
#
# Indices 1 2 3 4 5 6 
#
# 1 0.012333 -0.001794 -0.003150 0.000000 0.002148 0.000000
# 2 -0.001794 0.059777 -0.002109 0.000000 0.003330 0.000000
# 3 -0.003150 -0.002109 0.015497 0.000000 -0.001380 0.000000
# 4 0.000000 0.000000 0.000000 0.156515 0.000000 0.005942
# 5 0.002148 0.003330 -0.001380 0.000000 0.028747 0.000000
# 6 0.000000 0.000000 0.000000 0.005942 0.000000 0.032303
#
#
# Mechanical properties :
#
#
# Convention : Reuss Voigt Hill
#
# Bulk Modulus (GPa) = 13.60511 24.56589 19.08550
# Shear Modulus (GPa) = 14.54423 24.55289 19.54856
#
# Velocity S-wave (km/s) = 2.75565 3.58039 3.19474
# Velocity P-wave (km/s) = 4.15067 5.46975 4.85522
#
# Compressibility (1/GPa) = 0.07350178
#
# Stress axis : x y z
#
# Youngs Moduli (GPa) = 81.08229 16.72881 64.52776
#
# Poissons Ratio (x) = 0.03001 0.20329
# Poissons Ratio (y) = 0.14545 0.13606
# Poissons Ratio (z) = 0.25544 0.03527
#
# Static dielectric constant tensor:
#      x y z
#    x 1.710870 0.000000 -0.003260 
#    y 0.000000 1.725350 0.000000 
#    z -0.003260 0.000000 1.693170 
# 
# From -- ./inp_files/67026.got.cif
#   From: 2010.05.17/outbox.cif.g08.bks.cpg/sg15_34_cif.got.tgz:67026.got - 2010.06.03 18:47:42.
