data_PCOD9257329
_publ_section_title
;
Structure prediction by ZEFSAII (Michael W. Deem and Ramdas Pophale) SiO2 
 PCOD9257329
Probable space group: C 2/C
;
_chemical_formula_sum "Si O2"
_cell_formula_units_Z 40
_cell_length_a 9.505149
_cell_length_b 22.645668
_cell_length_c 10.431597
_cell_angle_alpha 90.000000
_cell_angle_beta 135.149379
_cell_angle_gamma 90.000000
_cell_volume 1583.596881
_symmetry_space_group_name_H-M "C 2/C"
_symmetry_group_IT_number 15
_symmetry_cell_setting 'monoclinic'
loop_
_space_group_symop_operation_xyz
x,y,z
-x,y,1/2-z
-x,-y,-z
x,-y,1/2+z
1/2+x,1/2+y,z
1/2-x,1/2+y,1/2-z
1/2-x,1/2-y,-z
1/2+x,1/2-y,1/2+z
loop_
_atom_site_type_symbol
_atom_site_label
_atom_site_fract_x
_atom_site_fract_y
_atom_site_fract_z
Si Si1 0.749474 0.364139 0.834497
Si Si2 0.766265 0.364353 0.339033
Si Si3 0.241539 0.437796 0.409931
Si Si4 0.812909 0.733157 0.683610
Si Si5 0.756719 0.570880 0.085516
O O1 0.659647 0.299542 0.745711
O O2 0.692022 0.408084 0.683609
O O3 0.699147 0.392170 0.939801
O O4 0.991781 0.358130 0.989683
O O5 0.711377 0.415568 0.202656
O O6 0.707041 0.304731 0.224154
O O7 0.698589 0.383054 0.436648
O O8 0.309340 0.504123 0.484210
O O9 0.000000 0.440752 0.250000
O O10 0.750000 0.750000 0.500000
O O11 0.000000 0.695541 0.750000
O O12 0.000000 0.570225 0.250000
#
# Coordination Sequence:
#
# PCOD9257329 Si02
#       5
#     8   8   8   8   8
#     4  10  19  32  51  78 105 135 174 215 257 306
#     4  10  18  31  51  78 108 134 170 217 256 306
#     4   9  15  28  50  77 107 137 170 210 255 307
#     4  12  21  36  56  77 101 138 179 217 253 305
#     4   9  18  29  48  80 111 134 165 216 269 300
#
# _framework density 25.258953000000002
#
# number of rings (size 3 to 8) (size 9 to 14) (size 15 to 20)
#    0.000    2.000    4.000    1.800    0.000    5.600 
#    0.000    0.000    0.000    1.200    0.000    0.000 
#    0.000    0.000    0.000    0.000    0.000    0.000 
#
# Total GULP energy -111654.690856 kJ/mol
# GULP energy per Si atom -5582.734543 kJ/mol
# Density = 2.520146 g / cm^3
# Si number density = 25.258953 Si / 1000 Ang^3
#
#
#
# Elastic Constant Matrix: (Units=GPa)
#
#
# Indices 1 2 3 4 5 6 
#
# 1 79.6629 17.0613 25.5520 0.0000 -17.7823 0.0000
# 2 17.0613 193.1976 56.5664 0.0000 -32.1079 0.0000
# 3 25.5520 56.5664 133.9495 0.0000 -29.4686 0.0000
# 4 0.0000 0.0000 0.0000 37.6678 0.0000 -7.4814
# 5 -17.7823 -32.1079 -29.4686 0.0000 53.0853 0.0000
# 6 0.0000 0.0000 0.0000 -7.4814 0.0000 24.2301
#
#
#
# Elastic Compliance Matrix: (Units=1/GPa)
#
#
# Indices 1 2 3 4 5 6 
#
# 1 0.013965 -0.000099 -0.001830 0.000000 0.003603 0.000000
# 2 -0.000099 0.006211 -0.002033 0.000000 0.002595 0.000000
# 3 -0.001830 -0.002033 0.009418 0.000000 0.003385 0.000000
# 4 0.000000 0.000000 0.000000 0.028282 0.000000 0.008733
# 5 0.003603 0.002595 0.003385 0.000000 0.023493 0.000000
# 6 0.000000 0.000000 0.000000 0.008733 0.000000 0.043967
#
#
# Mechanical properties :
#
#
# Convention : Reuss Voigt Hill
#
# Bulk Modulus (GPa) = 46.14499 67.24103 56.69301
# Shear Modulus (GPa) = 35.59109 43.50531 39.54820
#
# Velocity S-wave (km/s) = 3.75780 4.15465 3.96120
# Velocity P-wave (km/s) = 6.09397 7.04935 6.58900
#
# Compressibility (1/GPa) = 0.02167083
#
# Stress axis : x y z
#
# Youngs Moduli (GPa) = 71.60713 160.99487 106.18017
#
# Poissons Ratio (x) = 0.01591 0.19428
# Poissons Ratio (y) = 0.00708 0.21589
# Poissons Ratio (z) = 0.13102 0.32735
#
# Static dielectric constant tensor:
#      x y z
#    x 2.042200 0.000000 0.129390 
#    y 0.000000 2.025470 0.000000 
#    z 0.129390 0.000000 2.048290 
# 
# From -- ./inp_files/31760.got.cif
#   From: 2010.05.17/outbox.cif.g08.bks.cpg/sg15_16_cif.got.tgz:31760.got - 2010.06.03 18:47:42.
