data_PCOD9257939
_publ_section_title
;
Structure prediction by ZEFSAII (Michael W. Deem and Ramdas Pophale) SiO2 
 PCOD9257939
Probable space group: C 2/C
;
_chemical_formula_sum "Si O2"
_cell_formula_units_Z 52
_cell_length_a 18.740218
_cell_length_b 7.921676
_cell_length_c 14.929061
_cell_angle_alpha 90.000000
_cell_angle_beta 88.679617
_cell_angle_gamma 90.000000
_cell_volume 2215.689377
_symmetry_space_group_name_H-M "C 2/C"
_symmetry_group_IT_number 15
_symmetry_cell_setting 'monoclinic'
loop_
_space_group_symop_operation_xyz
x,y,z
-x,y,1/2-z
-x,-y,-z
x,-y,1/2+z
1/2+x,1/2+y,z
1/2-x,1/2+y,1/2-z
1/2-x,1/2-y,-z
1/2+x,1/2-y,1/2+z
loop_
_atom_site_type_symbol
_atom_site_label
_atom_site_fract_x
_atom_site_fract_y
_atom_site_fract_z
Si Si1 0.890512 0.589486 0.693067
Si Si2 0.746429 0.717439 0.636490
Si Si3 0.102331 0.592437 0.145602
Si Si4 0.500000 0.344602 0.250000
Si Si5 0.591314 0.276595 0.399270
Si Si6 0.047111 0.265123 0.481771
Si Si7 0.328057 0.525374 0.003273
O O1 0.809851 0.658139 0.697611
O O2 0.913420 0.571568 0.795410
O O3 0.893409 0.399650 0.651431
O O4 0.938823 0.693436 0.622047
O O5 0.679615 0.831497 0.666826
O O6 0.712057 0.552615 0.589104
O O7 0.787767 0.839493 0.566394
O O8 0.046161 0.729186 0.182463
O O9 0.088818 0.591571 0.040155
O O10 0.558881 0.404736 0.322414
O O11 0.532098 0.247929 0.478302
O O12 0.661272 0.351823 0.445127
O O13 0.091586 0.098107 0.506409
#
# Coordination Sequence:
#
# PCOD9257939 Si02
#       7
#     8   8   8   4   8   8   8
#     4  10  20  33  55  82 108 144 186 225 274 328
#     4   9  19  35  51  76 112 145 181 223 272 329
#     4   9  18  34  55  74 106 147 178 220 275 328
#     4   8  18  32  50  78 104 138 186 220 266 330
#     4  10  18  32  56  81 109 144 183 227 272 325
#     4   9  18  35  56  80 108 142 184 227 274 323
#     4   9  18  33  56  80 106 145 184 219 271 334
#
# _framework density 23.468996000000001
#
# number of rings (size 3 to 8) (size 9 to 14) (size 15 to 20)
#    0.000    2.769    0.000    1.846    0.000    3.077 
#    0.000    1.538    0.000   31.385    0.000    0.000 
#    0.000    0.000    0.000    0.000    0.000    0.000 
#
# Total GULP energy -144806.573406 kJ/mol
# GULP energy per Si atom -5569.483593 kJ/mol
# Density = 2.341558 g / cm^3
# Si number density = 23.468996 Si / 1000 Ang^3
#
#
#
# Elastic Constant Matrix: (Units=GPa)
#
#
# Indices 1 2 3 4 5 6 
#
# 1 91.1908 9.6405 11.5152 0.0000 -5.8510 0.0000
# 2 9.6405 35.7387 2.3023 0.0000 5.8003 0.0000
# 3 11.5152 2.3023 61.4571 0.0000 8.6386 0.0000
# 4 0.0000 0.0000 0.0000 23.2084 0.0000 7.1709
# 5 -5.8510 5.8003 8.6386 0.0000 20.1551 0.0000
# 6 0.0000 0.0000 0.0000 7.1709 0.0000 3.8908
#
#
#
# Elastic Compliance Matrix: (Units=1/GPa)
#
#
# Indices 1 2 3 4 5 6 
#
# 1 0.012152 -0.004055 -0.002963 0.000000 0.005965 0.000000
# 2 -0.004055 0.030706 0.001082 0.000000 -0.010478 0.000000
# 3 -0.002963 0.001082 0.018038 0.000000 -0.008903 0.000000
# 4 0.000000 0.000000 0.000000 0.100080 0.000000 -0.184454
# 5 0.005965 -0.010478 -0.008903 0.000000 0.058178 0.000000
# 6 0.000000 0.000000 0.000000 -0.184454 0.000000 0.596980
#
#
# Mechanical properties :
#
#
# Convention : Reuss Voigt Hill
#
# Bulk Modulus (GPa) = 20.39882 26.14475 23.27178
# Shear Modulus (GPa) = 5.92174 20.44608 13.18391
#
# Velocity S-wave (km/s) = 1.59019 2.95480 2.37272
# Velocity P-wave (km/s) = 3.47596 4.77551 4.17659
#
# Compressibility (1/GPa) = 0.04902245
#
# Stress axis : x y z
#
# Youngs Moduli (GPa) = 82.29359 32.56741 55.43977
#
# Poissons Ratio (x) = 0.13206 0.16429
# Poissons Ratio (y) = 0.33371 -0.06000
# Poissons Ratio (z) = 0.24386 -0.03525
#
# Static dielectric constant tensor:
#      x y z
#    x 1.968330 0.000000 0.055250 
#    y 0.000000 1.962620 0.000000 
#    z 0.055250 0.000000 1.956340 
# 
# From -- ./inp_files/166272.got.cif
#   From: 2010.05.17/outbox.cif.g08.bks.cpg/sg15_84_cif.got.tgz:166272.got - 2010.06.03 18:47:42.
