data_PCOD9257794
_publ_section_title
;
Structure prediction by ZEFSAII (Michael W. Deem and Ramdas Pophale) SiO2 
 PCOD9257794
Probable space group: C 2/C
;
_chemical_formula_sum "Si O2"
_cell_formula_units_Z 60
_cell_length_a 19.703952
_cell_length_b 20.566796
_cell_length_c 14.439697
_cell_angle_alpha 90.000000
_cell_angle_beta 31.620101
_cell_angle_gamma 90.000000
_cell_volume 3067.928488
_symmetry_space_group_name_H-M "C 2/C"
_symmetry_group_IT_number 15
_symmetry_cell_setting 'monoclinic'
loop_
_space_group_symop_operation_xyz
x,y,z
-x,y,1/2-z
-x,-y,-z
x,-y,1/2+z
1/2+x,1/2+y,z
1/2-x,1/2+y,1/2-z
1/2-x,1/2-y,-z
1/2+x,1/2-y,1/2+z
loop_
_atom_site_type_symbol
_atom_site_label
_atom_site_fract_x
_atom_site_fract_y
_atom_site_fract_z
Si Si1 0.962856 0.186141 0.098133
Si Si2 0.933692 0.046541 0.500508
Si Si3 0.743300 0.387642 0.031576
Si Si4 0.326314 0.115380 0.632731
Si Si5 0.602434 0.854046 0.813830
Si Si6 0.939103 0.781057 0.222019
Si Si7 0.783435 0.745240 0.174005
Si Si8 0.000000 0.966319 0.250000
O O1 0.822246 0.217416 0.273498
O O2 0.979541 0.111792 0.106289
O O3 0.996838 0.190647 0.947092
O O4 0.074713 0.228548 0.017665
O O5 0.789487 0.071247 0.693109
O O6 0.931127 0.009947 0.406587
O O7 0.000000 0.000000 0.500000
O O8 0.828201 0.404016 0.022056
O O9 0.701000 0.313481 0.103489
O O10 0.606892 0.424887 0.181783
O O11 0.811089 0.396433 0.854583
O O12 0.472588 0.111793 0.500765
O O13 0.281080 0.190249 0.705024
O O14 0.555822 0.795352 0.801118
O O15 0.686013 0.814522 0.791742
O O16 0.000000 0.795852 0.250000
#
# Coordination Sequence:
#
# PCOD9257794 Si02
#       8
#     8   8   8   8   8   8   8   4
#     4  10  20  34  57  82 122 155 202 246 297 357
#     4  11  23  43  62  83 117 159 215 258 293 354
#     4  12  21  32  51  84 124 160 194 243 286 370
#     4  11  20  37  54  86 122 161 196 247 298 366
#     4  11  22  28  51  85 134 161 190 227 311 375
#     4  11  17  27  46  83 124 156 184 219 297 373
#     4  10  18  32  53  91 123 162 187 240 305 370
#     4  12  26  42  64  82 106 164 224 256 296 344
#
# _framework density 19.557171
#
# number of rings (size 3 to 8) (size 9 to 14) (size 15 to 20)
#    0.000    1.067    8.667    2.400    1.867    0.000 
#    0.000    0.667    0.000    3.200    0.000    0.000 
#    0.000    0.000    0.000    0.000    0.000    0.000 
#
# Total GULP energy -167179.337943 kJ/mol
# GULP energy per Si atom -5572.644598 kJ/mol
# Density = 1.951266 g / cm^3
# Si number density = 19.557171 Si / 1000 Ang^3
#
#
#
# Elastic Constant Matrix: (Units=GPa)
#
#
# Indices 1 2 3 4 5 6 
#
# 1 20.2993 13.6710 10.8813 0.0003 -15.8483 -0.0004
# 2 13.6710 66.4376 29.3190 0.0002 -8.1753 -0.0003
# 3 10.8813 29.3190 74.8006 0.0007 -28.0003 -0.0004
# 4 0.0003 0.0002 0.0007 25.0239 -0.0003 2.6087
# 5 -15.8483 -8.1753 -28.0003 -0.0003 29.5502 0.0003
# 6 -0.0004 -0.0003 -0.0004 2.6087 0.0003 15.6318
#
#
#
# Elastic Compliance Matrix: (Units=1/GPa)
#
#
# Indices 1 2 3 4 5 6 
#
# 1 0.109032 -0.022262 0.019292 -0.000001 0.070597 0.000002
# 2 -0.022262 0.022882 -0.012134 0.000000 -0.017107 0.000000
# 3 0.019292 -0.012134 0.027793 -0.000001 0.033325 0.000001
# 4 -0.000001 0.000000 -0.000001 0.040669 0.000000 -0.006787
# 5 0.070597 -0.017107 0.033325 0.000000 0.098547 0.000001
# 6 0.000002 0.000000 0.000001 -0.006787 0.000001 0.065105
#
#
# Mechanical properties :
#
#
# Convention : Reuss Voigt Hill
#
# Bulk Modulus (GPa) = 7.72210 29.91999 18.82105
# Shear Modulus (GPa) = 11.43107 21.21893 16.32500
#
# Velocity S-wave (km/s) = 2.42026 3.29746 2.89231
# Velocity P-wave (km/s) = 3.43034 5.46165 4.56053
#
# Compressibility (1/GPa) = 0.12949846
#
# Stress axis : x y z
#
# Youngs Moduli (GPa) = 9.17163 43.70168 35.97989
#
# Poissons Ratio (x) = 0.97289 -0.69411
# Poissons Ratio (y) = 0.20418 0.43659
# Poissons Ratio (z) = -0.17694 0.53028
#
# Static dielectric constant tensor:
#      x y z
#    x 1.712490 0.000000 -0.025710 
#    y 0.000000 1.696480 0.000000 
#    z -0.025710 0.000000 1.742020 
# 
# From -- ./inp_files/169456.got.cif
#   From: 2010.05.17/outbox.cif.g08.bks.cpg/sg15_85_cif.got.tgz:169456.got - 2010.06.03 18:47:42.
