data_PCOD9257390
_publ_section_title
;
Structure prediction by ZEFSAII (Michael W. Deem and Ramdas Pophale) SiO2 
 PCOD9257390
Probable space group: C 2/C
;
_chemical_formula_sum "Si O2"
_cell_formula_units_Z 44
_cell_length_a 12.607403
_cell_length_b 22.496573
_cell_length_c 9.952675
_cell_angle_alpha 90.000000
_cell_angle_beta 47.852708
_cell_angle_gamma 90.000000
_cell_volume 2092.894897
_symmetry_space_group_name_H-M "C 2/C"
_symmetry_group_IT_number 15
_symmetry_cell_setting 'monoclinic'
loop_
_space_group_symop_operation_xyz
x,y,z
-x,y,1/2-z
-x,-y,-z
x,-y,1/2+z
1/2+x,1/2+y,z
1/2-x,1/2+y,1/2-z
1/2-x,1/2-y,-z
1/2+x,1/2-y,1/2+z
loop_
_atom_site_type_symbol
_atom_site_label
_atom_site_fract_x
_atom_site_fract_y
_atom_site_fract_z
Si Si1 0.768509 0.650917 0.521858
Si Si2 0.000000 0.641058 0.750000
Si Si3 0.335309 0.930440 0.195702
Si Si4 0.897968 0.448630 0.720970
Si Si5 0.828316 0.730357 0.069741
Si Si6 0.910275 0.229763 0.005459
O O1 0.742951 0.607367 0.669736
O O2 0.831243 0.608313 0.350843
O O3 0.877099 0.703413 0.477420
O O4 0.635744 0.685555 0.572810
O O5 0.866923 0.604020 0.805652
O O6 0.061301 0.681104 0.577686
O O7 0.295255 0.998768 0.257850
O O8 0.492240 0.932735 0.990392
O O9 0.000000 0.476551 0.750000
O O10 0.703108 0.715900 0.279797
O O11 0.750000 0.750000 0.000000
O O12 0.932957 0.774049 0.063856
#
# Coordination Sequence:
#
# PCOD9257390 Si02
#       6
#     8   4   8   8   8   8
#     4  10  21  36  54  87 128 163 202 261 305 382
#     4  12  20  34  56  86 132 156 210 254 314 366
#     4  10  18  31  52  86 123 167 197 264 310 362
#     4   9  18  31  53  82 128 160 210 253 319 359
#     4  12  22  40  58  92 126 168 205 255 310 385
#     4  11  24  37  62  89 127 171 206 249 322 371
#
# _framework density 21.023510999999999
#
# number of rings (size 3 to 8) (size 9 to 14) (size 15 to 20)
#    0.000    1.455    4.545    1.091    5.091    2.182 
#    0.000    0.000    0.000    0.000    0.000   11.455 
#    0.000    0.000    0.000    0.000    0.000    0.000 
#
# Total GULP energy -122760.327362 kJ/mol
# GULP energy per Si atom -5580.014880 kJ/mol
# Density = 2.097566 g / cm^3
# Si number density = 21.023511 Si / 1000 Ang^3
#
#
#
# Elastic Constant Matrix: (Units=GPa)
#
#
# Indices 1 2 3 4 5 6 
#
# 1 153.8460 48.9883 14.0296 0.0000 -0.5522 0.0000
# 2 48.9883 118.7080 10.4641 0.0000 13.2483 0.0000
# 3 14.0296 10.4641 60.0562 0.0000 9.7996 0.0000
# 4 0.0000 0.0000 0.0000 3.2093 0.0000 2.2588
# 5 -0.5522 13.2483 9.7996 0.0000 29.9744 0.0000
# 6 0.0000 0.0000 0.0000 2.2588 0.0000 31.6140
#
#
#
# Elastic Compliance Matrix: (Units=1/GPa)
#
#
# Indices 1 2 3 4 5 6 
#
# 1 0.007692 -0.003270 -0.001570 0.000000 0.002100 0.000000
# 2 -0.003270 0.010304 -0.000294 0.000000 -0.004518 0.000000
# 3 -0.001570 -0.000294 0.018013 0.000000 -0.005788 0.000000
# 4 0.000000 0.000000 0.000000 0.328093 0.000000 -0.023442
# 5 0.002100 -0.004518 -0.005788 0.000000 0.037290 0.000000
# 6 0.000000 0.000000 0.000000 -0.023442 0.000000 0.033306
#
#
# Mechanical properties :
#
#
# Convention : Reuss Voigt Hill
#
# Bulk Modulus (GPa) = 38.84882 53.28604 46.06743
# Shear Modulus (GPa) = 11.02421 30.23476 20.62948
#
# Velocity S-wave (km/s) = 2.29241 3.79640 3.13590
# Velocity P-wave (km/s) = 5.05230 6.67965 5.92214
#
# Compressibility (1/GPa) = 0.02574081
#
# Stress axis : x y z
#
# Youngs Moduli (GPa) = 130.00397 97.05129 55.51393
#
# Poissons Ratio (x) = 0.31740 0.08715
# Poissons Ratio (y) = 0.42516 0.01633
# Poissons Ratio (z) = 0.20408 0.02854
#
# Static dielectric constant tensor:
#      x y z
#    x 1.826050 0.000000 0.037850 
#    y 0.000000 1.830930 0.000000 
#    z 0.037850 0.000000 1.763640 
# 
# From -- ./inp_files/91144.got.cif
#   From: 2010.05.17/outbox.cif.g08.bks.cpg/sg15_46_cif.got.tgz:91144.got - 2010.06.03 18:47:42.
