data_PCOD9257803
_publ_section_title
;
Structure prediction by ZEFSAII (Michael W. Deem and Ramdas Pophale) SiO2 
 PCOD9257803
Probable space group: C 2/C
;
_chemical_formula_sum "Si O2"
_cell_formula_units_Z 48
_cell_length_a 8.307986
_cell_length_b 16.270653
_cell_length_c 19.464494
_cell_angle_alpha 90.000000
_cell_angle_beta 48.136344
_cell_angle_gamma 90.000000
_cell_volume 1959.501645
_symmetry_space_group_name_H-M "C 2/C"
_symmetry_group_IT_number 15
_symmetry_cell_setting 'monoclinic'
loop_
_space_group_symop_operation_xyz
x,y,z
-x,y,1/2-z
-x,-y,-z
x,-y,1/2+z
1/2+x,1/2+y,z
1/2-x,1/2+y,1/2-z
1/2-x,1/2-y,-z
1/2+x,1/2-y,1/2+z
loop_
_atom_site_type_symbol
_atom_site_label
_atom_site_fract_x
_atom_site_fract_y
_atom_site_fract_z
Si Si1 0.494606 0.620317 0.942765
Si Si2 0.715293 0.635767 0.642251
Si Si3 0.788786 0.958566 0.862038
Si Si4 0.629337 0.543268 0.381231
Si Si5 0.330944 0.710975 0.193289
Si Si6 0.188143 0.713985 0.382178
O O1 0.348657 0.639845 0.918880
O O2 0.682173 0.554284 0.866000
O O3 0.575366 0.707901 0.946865
O O4 0.383028 0.574492 0.037678
O O5 0.500000 0.629467 0.750000
O O6 0.820648 0.545852 0.622776
O O7 0.822144 0.718075 0.639438
O O8 0.628212 0.881838 0.903170
O O9 0.000000 0.948432 0.750000
O O10 0.898936 0.960447 0.905981
O O11 0.740065 0.620032 0.310945
O O12 0.194440 0.734217 0.299333
O O13 0.574112 0.709326 0.152485
#
# Coordination Sequence:
#
# PCOD9257803 Si02
#       6
#     8   8   8   8   8   8
#     4  10  20  34  56  78 101 139 176 208 253 313
#     4  10  19  32  53  75 103 139 172 205 255 315
#     4   9  16  31  52  73  98 136 174 203 243 309
#     4   9  19  35  54  76 105 137 174 210 252 308
#     4  10  19  32  52  77 106 133 168 220 259 294
#     4  10  18  32  54  77 102 131 176 218 254 292
#
# _framework density 24.496023999999998
#
# number of rings (size 3 to 8) (size 9 to 14) (size 15 to 20)
#    0.000    2.333    5.000    0.000    0.000    3.333 
#    0.000    1.667    3.667   10.000    0.000    0.000 
#    0.000    0.000    0.000    0.000    0.000    0.000 
#
# Total GULP energy -133813.022763 kJ/mol
# GULP energy per Si atom -5575.542615 kJ/mol
# Density = 2.444027 g / cm^3
# Si number density = 24.496024 Si / 1000 Ang^3
#
#
#
# Elastic Constant Matrix: (Units=GPa)
#
#
# Indices 1 2 3 4 5 6 
#
# 1 41.2554 30.1455 44.7696 -0.0007 19.5516 0.0008
# 2 30.1455 205.9450 24.8530 -0.0003 -3.3004 0.0006
# 3 44.7696 24.8530 71.6920 -0.0005 27.5885 0.0009
# 4 -0.0007 -0.0003 -0.0005 34.5187 0.0004 14.5607
# 5 19.5516 -3.3004 27.5885 0.0004 33.3312 -0.0004
# 6 0.0008 0.0006 0.0009 14.5607 -0.0004 25.9683
#
#
#
# Elastic Compliance Matrix: (Units=1/GPa)
#
#
# Indices 1 2 3 4 5 6 
#
# 1 0.085301 -0.007155 -0.045871 0.000002 -0.012777 -0.000002
# 2 -0.007155 0.005862 0.000877 0.000000 0.004052 0.000000
# 3 -0.045871 0.000877 0.046813 0.000000 -0.011753 0.000000
# 4 0.000002 0.000000 0.000000 0.037944 -0.000002 -0.021276
# 5 -0.012777 0.004052 -0.011753 -0.000002 0.047626 0.000003
# 6 -0.000002 0.000000 0.000000 -0.021276 0.000003 0.050438
#
#
# Mechanical properties :
#
#
# Convention : Reuss Voigt Hill
#
# Bulk Modulus (GPa) = 29.69357 57.60318 43.64837
# Shear Modulus (GPa) = 12.83669 33.37192 23.10431
#
# Velocity S-wave (km/s) = 2.29166 3.69499 3.07446
# Velocity P-wave (km/s) = 4.37611 6.46300 5.51909
#
# Compressibility (1/GPa) = 0.03367733
#
# Stress axis : x y z
#
# Youngs Moduli (GPa) = 11.72317 170.58606 21.36181
#
# Poissons Ratio (x) = 1.22058 0.97988
# Poissons Ratio (y) = 0.08388 -0.01873
# Poissons Ratio (z) = 0.53775 -0.14957
#
# Static dielectric constant tensor:
#      x y z
#    x 1.916290 0.000000 -0.052790 
#    y 0.000000 2.088980 0.000000 
#    z -0.052790 0.000000 2.034640 
# 
# From -- ./inp_files/231067.got.cif
#   From: 2010.05.17/outbox.cif.g08.bks.cpg/sg15_116_cif.got.tgz:231067.got - 2010.06.03 18:47:42.
