data_PCOD9257999
_publ_section_title
;
Structure prediction by ZEFSAII (Michael W. Deem and Ramdas Pophale) SiO2 
 PCOD9257999
Probable space group: C 2/C
;
_chemical_formula_sum "Si O2"
_cell_formula_units_Z 56
_cell_length_a 10.762719
_cell_length_b 17.356092
_cell_length_c 14.440543
_cell_angle_alpha 90.000000
_cell_angle_beta 86.454170
_cell_angle_gamma 90.000000
_cell_volume 2692.311335
_symmetry_space_group_name_H-M "C 2/C"
_symmetry_group_IT_number 15
_symmetry_cell_setting 'monoclinic'
loop_
_space_group_symop_operation_xyz
x,y,z
-x,y,1/2-z
-x,-y,-z
x,-y,1/2+z
1/2+x,1/2+y,z
1/2-x,1/2+y,1/2-z
1/2-x,1/2-y,-z
1/2+x,1/2-y,1/2+z
loop_
_atom_site_type_symbol
_atom_site_label
_atom_site_fract_x
_atom_site_fract_y
_atom_site_fract_z
Si Si1 0.793594 0.260777 0.211749
Si Si2 0.788124 0.285860 0.595458
Si Si3 0.149408 0.567546 0.737035
Si Si4 0.657870 0.037167 0.076427
Si Si5 0.875431 0.546444 0.110549
Si Si6 0.963717 0.800473 0.348943
Si Si7 0.166594 0.180400 0.461485
O O1 0.804815 0.229268 0.314710
O O2 0.802140 0.353044 0.222895
O O3 0.652397 0.248042 0.180435
O O4 0.881717 0.221745 0.130617
O O5 0.750000 0.250000 0.500000
O O6 0.809029 0.376071 0.585572
O O7 0.917879 0.247686 0.622512
O O8 0.188782 0.540622 0.632855
O O9 0.182297 0.494090 0.797864
O O10 0.000000 0.576108 0.750000
O O11 0.522055 0.062706 0.119973
O O12 0.756738 0.105499 0.073507
O O13 0.635758 0.014792 0.971235
O O14 0.918664 0.841668 0.445895
O O15 0.000000 0.843058 0.250000
O O16 0.250000 0.250000 0.500000
#
# Coordination Sequence:
#
# PCOD9257999 Si02
#       7
#     8   8   8   8   8   8   8
#     4  10  20  35  57  83 114 154 195 236 286 351
#     4  11  22  36  56  83 116 154 197 244 290 347
#     4  10  21  35  56  87 119 147 183 239 300 350
#     4  10  20  33  54  86 116 146 183 237 297 350
#     4  10  19  33  53  80 117 148 179 231 299 349
#     4   9  20  36  56  80 110 149 195 237 284 342
#     4  10  18  32  57  84 112 148 193 235 280 347
#
# _framework density 20.799972
#
# number of rings (size 3 to 8) (size 9 to 14) (size 15 to 20)
#    0.000    2.000    0.000    5.143    0.000    7.429 
#    0.000    0.000    0.000   15.429    0.000    1.000 
#    0.000    0.000    0.000    0.000    0.000    0.000 
#
# Total GULP energy -155966.042380 kJ/mol
# GULP energy per Si atom -5570.215799 kJ/mol
# Density = 2.075263 g / cm^3
# Si number density = 20.799972 Si / 1000 Ang^3
#
#
#
# Elastic Constant Matrix: (Units=GPa)
#
#
# Indices 1 2 3 4 5 6 
#
# 1 31.4973 18.3057 20.0657 0.0000 1.6149 0.0000
# 2 18.3057 84.9745 17.7819 0.0000 -1.4323 0.0000
# 3 20.0657 17.7819 141.3396 0.0000 -14.8547 0.0000
# 4 0.0000 0.0000 0.0000 27.4291 0.0000 2.7217
# 5 1.6149 -1.4323 -14.8547 0.0000 31.8186 0.0000
# 6 0.0000 0.0000 0.0000 2.7217 0.0000 15.8032
#
#
#
# Elastic Compliance Matrix: (Units=1/GPa)
#
#
# Indices 1 2 3 4 5 6 
#
# 1 0.039682 -0.007544 -0.005186 0.000000 -0.004775 0.000000
# 2 -0.007544 0.013521 -0.000553 0.000000 0.000733 0.000000
# 3 -0.005186 -0.000553 0.008314 0.000000 0.004120 0.000000
# 4 0.000000 0.000000 0.000000 0.037091 0.000000 -0.006388
# 5 -0.004775 0.000733 0.004120 0.000000 0.033627 0.000000
# 6 0.000000 0.000000 0.000000 -0.006388 0.000000 0.064378
#
#
# Mechanical properties :
#
#
# Convention : Reuss Voigt Hill
#
# Bulk Modulus (GPa) = 28.61138 41.12421 34.86780
# Shear Modulus (GPa) = 21.29195 28.45407 24.87301
#
# Velocity S-wave (km/s) = 3.20293 3.70264 3.46181
# Velocity P-wave (km/s) = 5.24058 6.17200 5.72526
#
# Compressibility (1/GPa) = 0.03495112
#
# Stress axis : x y z
#
# Youngs Moduli (GPa) = 25.20045 73.95660 120.27877
#
# Poissons Ratio (x) = 0.55790 0.62380
# Poissons Ratio (y) = 0.19010 0.06653
# Poissons Ratio (z) = 0.13070 0.04090
#
# Static dielectric constant tensor:
#      x y z
#    x 1.795020 0.000000 -0.035580 
#    y 0.000000 1.718900 0.000000 
#    z -0.035580 0.000000 1.952970 
# 
# From -- ./inp_files/144239.got.cif
#   From: 2010.05.17/outbox.cif.g08.bks.cpg/sg15_73_cif.got.tgz:144239.got - 2010.06.03 18:47:42.
