data_PCOD9257779
_publ_section_title
;
Structure prediction by ZEFSAII (Michael W. Deem and Ramdas Pophale) SiO2 
 PCOD9257779
Probable space group: C 2/C
;
_chemical_formula_sum "Si O2"
_cell_formula_units_Z 52
_cell_length_a 15.012960
_cell_length_b 15.371623
_cell_length_c 21.667087
_cell_angle_alpha 90.000000
_cell_angle_beta 23.555818
_cell_angle_gamma 90.000000
_cell_volume 1998.287697
_symmetry_space_group_name_H-M "C 2/C"
_symmetry_group_IT_number 15
_symmetry_cell_setting 'monoclinic'
loop_
_space_group_symop_operation_xyz
x,y,z
-x,y,1/2-z
-x,-y,-z
x,-y,1/2+z
1/2+x,1/2+y,z
1/2-x,1/2+y,1/2-z
1/2-x,1/2-y,-z
1/2+x,1/2-y,1/2+z
loop_
_atom_site_type_symbol
_atom_site_label
_atom_site_fract_x
_atom_site_fract_y
_atom_site_fract_z
Si Si1 0.463792 0.290790 0.966006
Si Si2 0.000000 0.728211 0.750000
Si Si3 0.987177 0.408964 0.147892
Si Si4 0.458658 0.217175 0.105802
Si Si5 0.674895 0.965340 0.440677
Si Si6 0.805375 0.014984 0.574521
Si Si7 0.047248 0.888916 0.338719
O O1 0.247130 0.229357 0.090533
O O2 0.515607 0.264501 0.004072
O O3 0.692293 0.293838 0.783584
O O4 0.358969 0.386121 0.020745
O O5 0.001623 0.674425 0.683713
O O6 0.177854 0.455827 0.987451
O O7 0.914146 0.481507 0.244867
O O8 0.774347 0.393842 0.237405
O O9 0.572951 0.123398 0.034119
O O10 0.515594 0.287968 0.121985
O O11 0.884890 0.934525 0.267398
O O12 0.500000 0.000000 0.500000
O O13 0.854344 0.943161 0.493460
O O14 0.000000 0.000000 0.500000
#
# Coordination Sequence:
#
# PCOD9257779 Si02
#       7
#     8   4   8   8   8   8   8
#     4  11  22  33  51  77 114 148 185 216 265 331
#     4  10  20  38  54  74 108 158 192 212 250 336
#     4   9  18  33  54  74 102 145 186 218 265 324
#     4  12  20  33  52  83 113 140 177 230 282 325
#     4  10  21  33  52  78 112 139 174 238 284 315
#     4   9  15  31  52  73 103 136 180 225 268 321
#     4  10  18  32  53  81 109 134 175 235 284 320
#
# _framework density 26.022281
#
# number of rings (size 3 to 8) (size 9 to 14) (size 15 to 20)
#    0.000    1.846    6.154    2.769    0.000    0.615 
#    0.000    0.000    0.000   14.769    0.000    9.692 
#    0.000    0.000    0.000    0.000    0.000    0.000 
#
# Total GULP energy -145113.495926 kJ/mol
# GULP energy per Si atom -5581.288305 kJ/mol
# Density = 2.596305 g / cm^3
# Si number density = 26.022281 Si / 1000 Ang^3
#
#
#
# Elastic Constant Matrix: (Units=GPa)
#
#
# Indices 1 2 3 4 5 6 
#
# 1 66.6389 -9.1104 -15.1814 0.0297 12.9785 -0.0053
# 2 -9.1104 155.0079 48.9341 -0.0135 9.6960 0.0067
# 3 -15.1814 48.9341 133.0717 -0.0361 20.0812 0.0208
# 4 0.0297 -0.0135 -0.0361 33.9754 0.0008 3.7704
# 5 12.9785 9.6960 20.0812 0.0008 33.4169 -0.0030
# 6 -0.0053 0.0067 0.0208 3.7704 -0.0030 22.1083
#
#
#
# Elastic Compliance Matrix: (Units=1/GPa)
#
#
# Indices 1 2 3 4 5 6 
#
# 1 0.017521 0.000600 0.003114 -0.000012 -0.008850 0.000002
# 2 0.000600 0.007329 -0.002497 0.000000 -0.000859 0.000000
# 3 0.003114 -0.002497 0.009745 0.000008 -0.006341 -0.000010
# 4 -0.000012 0.000000 0.000008 0.030001 -0.000001 -0.005116
# 5 -0.008850 -0.000859 -0.006341 -0.000001 0.037422 0.000009
# 6 0.000002 0.000000 -0.000010 -0.005116 0.000009 0.046104
#
#
# Mechanical properties :
#
#
# Convention : Reuss Voigt Hill
#
# Bulk Modulus (GPa) = 27.00547 44.88924 35.94735
# Shear Modulus (GPa) = 31.63947 39.90522 35.77235
#
# Velocity S-wave (km/s) = 3.49070 3.92024 3.71169
# Velocity P-wave (km/s) = 5.16208 6.14645 5.67564
#
# Compressibility (1/GPa) = 0.03702954
#
# Stress axis : x y z
#
# Youngs Moduli (GPa) = 57.07330 136.45347 102.61720
#
# Poissons Ratio (x) = -0.08193 -0.31951
# Poissons Ratio (y) = -0.03427 0.25621
# Poissons Ratio (z) = -0.17771 0.34069
#
# Static dielectric constant tensor:
#      x y z
#    x 2.156500 0.000390 -0.046060 
#    y 0.000390 2.279540 -0.000280 
#    z -0.046060 -0.000280 2.081160 
# 
# From -- ./inp_files/249090.got.cif
#   From: 2010.05.17/outbox.cif.g08.bks.cpg/sg15_125_cif.got.tgz:249090.got - 2010.06.03 18:47:42.
