data_PCOD9257585
_publ_section_title
;
Structure prediction by ZEFSAII (Michael W. Deem and Ramdas Pophale) SiO2 
 PCOD9257585
Probable space group: C 2/C
;
_chemical_formula_sum "Si O2"
_cell_formula_units_Z 56
_cell_length_a 24.079867
_cell_length_b 25.916853
_cell_length_c 5.591092
_cell_angle_alpha 90.000000
_cell_angle_beta 75.972829
_cell_angle_gamma 90.000000
_cell_volume 3385.210698
_symmetry_space_group_name_H-M "C 2/C"
_symmetry_group_IT_number 15
_symmetry_cell_setting 'monoclinic'
loop_
_space_group_symop_operation_xyz
x,y,z
-x,y,1/2-z
-x,-y,-z
x,-y,1/2+z
1/2+x,1/2+y,z
1/2-x,1/2+y,1/2-z
1/2-x,1/2-y,-z
1/2+x,1/2-y,1/2+z
loop_
_atom_site_type_symbol
_atom_site_label
_atom_site_fract_x
_atom_site_fract_y
_atom_site_fract_z
Si Si1 0.687591 0.721571 0.550461
Si Si2 0.595281 0.789261 0.843859
Si Si3 0.000000 0.556105 0.750000
Si Si4 0.219592 0.806790 0.517400
Si Si5 0.000000 0.723968 0.750000
Si Si6 0.666593 0.864339 0.085148
Si Si7 0.563342 0.860476 0.497556
Si Si8 0.623749 0.027068 0.470871
O O1 0.750000 0.750000 0.500000
O O2 0.634097 0.760632 0.608667
O O3 0.687934 0.689767 0.304947
O O4 0.683720 0.693108 0.810347
O O5 0.640649 0.814611 0.975999
O O6 0.562351 0.838866 0.765797
O O7 0.547036 0.753519 0.018336
O O8 0.029452 0.590978 0.928165
O O9 0.054183 0.529523 0.566138
O O10 0.250000 0.750000 0.500000
O O11 0.267888 0.850550 0.447444
O O12 0.959621 0.687047 0.635090
O O13 0.650689 0.915790 0.957274
O O14 0.629754 0.870097 0.364984
O O15 0.640351 0.998340 0.701141
#
# Coordination Sequence:
#
# PCOD9257585 Si02
#       8
#     8   8   4   8   4   8   8   8
#     4  10  19  29  49  69  97 112 141 188 243 288
#     4  11  19  31  48  65  94 120 153 199 245 295
#     4   9  20  38  52  60  84 120 162 226 254 294
#     4  10  18  32  47  77  91 112 142 182 252 297
#     4   9  20  28  36  64  86 122 156 184 226 284
#     4  10  21  32  53  66  91 118 148 204 254 293
#     4   9  18  32  45  66  82 117 160 196 253 292
#     4  11  25  40  50  68  88 122 166 208 257 300
#
# _framework density 16.542542999999998
#
# number of rings (size 3 to 8) (size 9 to 14) (size 15 to 20)
#    0.000    2.000    2.857    3.429    6.000    0.000 
#    7.714    0.000    0.000    0.000    0.000    0.000 
#    0.000    0.000    0.000    0.000    0.000    0.000 
#
# Total GULP energy -155933.430621 kJ/mol
# GULP energy per Si atom -5569.051094 kJ/mol
# Density = 1.650489 g / cm^3
# Si number density = 16.542543 Si / 1000 Ang^3
#
#
#
# Elastic Constant Matrix: (Units=GPa)
#
#
# Indices 1 2 3 4 5 6 
#
# 1 44.1625 26.7868 24.6262 0.0000 -5.5155 0.0000
# 2 26.7868 38.5633 17.5659 0.0000 -6.8319 0.0000
# 3 24.6262 17.5659 102.7931 0.0000 2.0377 0.0000
# 4 0.0000 0.0000 0.0000 14.8534 0.0000 0.3469
# 5 -5.5155 -6.8319 2.0377 0.0000 27.2261 0.0000
# 6 0.0000 0.0000 0.0000 0.3469 0.0000 24.8250
#
#
#
# Elastic Compliance Matrix: (Units=1/GPa)
#
#
# Indices 1 2 3 4 5 6 
#
# 1 0.041935 -0.026150 -0.005624 0.000000 0.002354 0.000000
# 2 -0.026150 0.046011 -0.001724 0.000000 0.006377 0.000000
# 3 -0.005624 -0.001724 0.011418 0.000000 -0.002427 0.000000
# 4 0.000000 0.000000 0.000000 0.067347 0.000000 -0.000941
# 5 0.002354 0.006377 -0.002427 0.000000 0.038988 0.000000
# 6 0.000000 0.000000 0.000000 -0.000941 0.000000 0.040295
#
#
# Mechanical properties :
#
#
# Convention : Reuss Voigt Hill
#
# Bulk Modulus (GPa) = 30.89540 35.94184 33.41862
# Shear Modulus (GPa) = 15.44252 21.15023 18.29637
#
# Velocity S-wave (km/s) = 3.05864 3.57954 3.32929
# Velocity P-wave (km/s) = 5.58485 6.23364 5.91814
#
# Compressibility (1/GPa) = 0.03236728
#
# Stress axis : x y z
#
# Youngs Moduli (GPa) = 23.84627 21.73398 87.57727
#
# Poissons Ratio (x) = 0.56834 0.49257
# Poissons Ratio (y) = 0.62358 0.15101
# Poissons Ratio (z) = 0.13412 0.03748
#
# Static dielectric constant tensor:
#      x y z
#    x 1.620420 0.000000 0.069160 
#    y 0.000000 1.588380 0.000000 
#    z 0.069160 0.000000 1.828200 
# 
# From -- ./inp_files/16302.got.cif
#   From: 2010.05.17/outbox.cif.g08.bks.cpg/sg15_9_cif.got.tgz:16302.got - 2010.06.03 18:47:42.
