data_PCOD9257011
_publ_section_title
;
Structure prediction by ZEFSAII (Michael W. Deem and Ramdas Pophale) SiO2 
 PCOD9257011
Probable space group: C 2/C
;
_chemical_formula_sum "Si O2"
_cell_formula_units_Z 64
_cell_length_a 8.372089
_cell_length_b 21.208056
_cell_length_c 20.073073
_cell_angle_alpha 90.000000
_cell_angle_beta 90.000099
_cell_angle_gamma 90.000000
_cell_volume 3564.089177
_symmetry_space_group_name_H-M "C 2/C"
_symmetry_group_IT_number 15
_symmetry_cell_setting 'monoclinic'
loop_
_space_group_symop_operation_xyz
x,y,z
-x,y,1/2-z
-x,-y,-z
x,-y,1/2+z
1/2+x,1/2+y,z
1/2-x,1/2+y,1/2-z
1/2-x,1/2-y,-z
1/2+x,1/2-y,1/2+z
loop_
_atom_site_type_symbol
_atom_site_label
_atom_site_fract_x
_atom_site_fract_y
_atom_site_fract_z
Si Si1 0.442903 0.060810 0.540454
Si Si2 0.554628 0.313740 0.963773
Si Si3 0.058768 0.993238 0.177921
Si Si4 0.942903 0.060810 0.959546
Si Si5 0.554628 0.186260 0.036226
Si Si6 0.558770 0.006761 0.822079
Si Si7 0.441133 0.362956 0.677232
Si Si8 0.941135 0.362955 0.822768
O O1 0.250000 0.061555 0.539279
O O2 0.497952 0.124832 0.505317
O O3 0.500000 0.000000 0.500000
O O4 0.494374 0.050311 0.616715
O O5 0.750000 0.313324 0.963740
O O6 0.504488 0.322935 0.886861
O O7 0.502048 0.375167 0.005317
O O8 0.501559 0.250000 0.999999
O O9 0.249999 0.995994 0.178531
O O10 0.000000 0.971562 0.250000
O O11 0.996642 0.064629 0.167564
O O12 0.005626 0.949688 0.116714
O O13 0.000000 0.000000 0.000000
O O14 0.504488 0.177065 0.113139
O O15 0.500000 0.028437 0.750000
O O16 0.496646 0.935370 0.832435
O O17 0.500000 0.341837 0.750000
O O18 0.249999 0.363026 0.678291
O O19 0.000000 0.341835 0.750000
#
# Coordination Sequence:
#
# PCOD9257011 Si02
#       8
#     8   8   8   8   8   8   8   8
#     4  10  19  32  52  76 100 129 167 210 252 296
#     4   9  18  33  52  74 100 134 172 205 245 301
#     4  10  19  30  48  74 103 131 164 208 253 301
#     4  10  19  32  52  76 100 129 167 210 252 296
#     4   9  18  33  52  74 100 134 172 205 245 301
#     4  10  19  30  48  74 103 131 164 208 253 301
#     4  10  18  30  51  74  99 130 166 208 249 298
#     4  10  18  30  51  74  99 130 166 208 249 298
#
# _framework density 17.956903000000001
#
# number of rings (size 3 to 8) (size 9 to 14) (size 15 to 20)
#    0.000    2.250    2.500    3.000    0.000    1.000 
#    0.000    1.250    0.000    6.750    0.000    0.000 
#    0.000    0.000    0.000    0.000    0.000    0.000 
#
# Total GULP energy -178472.898481 kJ/mol
# GULP energy per Si atom -5577.278078 kJ/mol
# Density = 1.791603 g / cm^3
# Si number density = 17.956903 Si / 1000 Ang^3
#
#
#
# Elastic Constant Matrix: (Units=GPa)
#
#
# Indices 1 2 3 4 5 6 
#
# 1 22.8083 10.4461 27.1916 0.0000 -0.0007 0.0000
# 2 10.4461 119.7770 95.8770 0.0000 -0.0008 0.0000
# 3 27.1916 95.8770 212.0547 0.0000 -0.0014 0.0000
# 4 0.0000 0.0000 0.0000 30.4879 0.0000 0.0000
# 5 -0.0007 -0.0008 -0.0014 0.0000 15.6670 0.0000
# 6 0.0000 0.0000 0.0000 0.0000 0.0000 13.3281
#
#
#
# Elastic Compliance Matrix: (Units=1/GPa)
#
#
# Indices 1 2 3 4 5 6 
#
# 1 0.051876 0.001254 -0.007219 0.000000 0.000002 0.000000
# 2 0.001254 0.013115 -0.006090 0.000000 0.000000 0.000000
# 3 -0.007219 -0.006090 0.008395 0.000000 0.000000 0.000000
# 4 0.000000 0.000000 0.000000 0.032800 0.000000 0.000000
# 5 0.000002 0.000000 0.000000 0.000000 0.063828 0.000000
# 6 0.000000 0.000000 0.000000 0.000000 0.000000 0.075030
#
#
# Mechanical properties :
#
#
# Convention : Reuss Voigt Hill
#
# Bulk Modulus (GPa) = 20.29418 69.07438 44.68428
# Shear Modulus (GPa) = 17.50832 26.63829 22.07330
#
# Velocity S-wave (km/s) = 3.12592 3.85575 3.50985
# Velocity P-wave (km/s) = 4.93504 7.64020 6.43146
#
# Compressibility (1/GPa) = 0.04927521
#
# Stress axis : x y z
#
# Youngs Moduli (GPa) = 19.27685 76.25104 119.11652
#
# Poissons Ratio (x) = -0.09565 0.85992
# Poissons Ratio (y) = -0.02418 0.72547
# Poissons Ratio (z) = 0.13916 0.46440
#
# Static dielectric constant tensor:
#      x y z
#    x 1.624810 0.000000 0.000000 
#    y 0.000000 1.580250 0.000000 
#    z 0.000000 0.000000 1.648290 
# 
# From -- ./inp_files/233526.got.cif
#   From: 2010.05.17/outbox.cif.g08.bks.cpg/sg15_117_cif.got.tgz:233526.got - 2010.06.03 18:47:42.
