data_PCOD9257898
_publ_section_title
;
Structure prediction by ZEFSAII (Michael W. Deem and Ramdas Pophale) SiO2 
 PCOD9257898
Probable space group: C 2/C
;
_chemical_formula_sum "Si O2"
_cell_formula_units_Z 48
_cell_length_a 26.374550
_cell_length_b 12.255803
_cell_length_c 9.131833
_cell_angle_alpha 90.000000
_cell_angle_beta 136.266776
_cell_angle_gamma 90.000000
_cell_volume 2040.573784
_symmetry_space_group_name_H-M "C 2/C"
_symmetry_group_IT_number 15
_symmetry_cell_setting 'monoclinic'
loop_
_space_group_symop_operation_xyz
x,y,z
-x,y,1/2-z
-x,-y,-z
x,-y,1/2+z
1/2+x,1/2+y,z
1/2-x,1/2+y,1/2-z
1/2-x,1/2-y,-z
1/2+x,1/2-y,1/2+z
loop_
_atom_site_type_symbol
_atom_site_label
_atom_site_fract_x
_atom_site_fract_y
_atom_site_fract_z
Si Si1 0.930121 0.520469 0.679458
Si Si2 0.429059 0.794042 0.819917
Si Si3 0.171562 0.574778 0.789092
Si Si4 0.673176 0.298965 0.659942
Si Si5 0.213553 0.348293 0.833525
Si Si6 0.031755 0.103909 0.980847
O O1 0.956246 0.411780 0.821749
O O2 0.884122 0.591602 0.694743
O O3 0.874981 0.471471 0.444910
O O4 0.000000 0.572459 0.750000
O O5 0.379954 0.743771 0.583582
O O6 0.372121 0.814368 0.833314
O O7 0.494783 0.710521 0.976557
O O8 0.201118 0.689984 0.799034
O O9 0.220452 0.467522 0.923942
O O10 0.742717 0.354453 0.727483
O O11 0.619132 0.374118 0.644883
O O12 0.250000 0.250000 0.000000
O O13 0.000000 0.094967 0.750000
O O14 0.000000 0.000000 0.000000
#
# Coordination Sequence:
#
# PCOD9257898 Si02
#       6
#     8   8   8   8   8   8
#     4  10  18  32  55  83 112 143 181 234 293 347
#     4   8  16  32  55  78 103 142 191 232 279 344
#     4  10  20  34  56  85 112 147 191 235 288 349
#     4   9  18  34  54  79 112 147 187 233 284 348
#     4   9  18  34  57  83 112 152 196 237 288 350
#     4  10  20  36  56  80 110 149 192 237 288 344
#
# _framework density 23.522794000000001
#
# number of rings (size 3 to 8) (size 9 to 14) (size 15 to 20)
#    0.000    2.667    0.000    4.000    0.000    2.667 
#    0.000    8.333    0.000    0.000    0.000    0.000 
#    0.000    0.000    0.000    0.000    0.000    0.000 
#
# Total GULP energy -134038.410063 kJ/mol
# GULP energy per Si atom -5584.933753 kJ/mol
# Density = 2.346926 g / cm^3
# Si number density = 23.522794 Si / 1000 Ang^3
#
#
#
# Elastic Constant Matrix: (Units=GPa)
#
#
# Indices 1 2 3 4 5 6 
#
# 1 201.4104 74.6971 14.8041 0.0000 21.5873 0.0000
# 2 74.6971 116.9549 32.1985 0.0000 14.5912 0.0000
# 3 14.8041 32.1985 48.5094 0.0000 10.6117 0.0000
# 4 0.0000 0.0000 0.0000 35.7797 0.0000 2.8579
# 5 21.5873 14.5912 10.6117 0.0000 22.6385 0.0000
# 6 0.0000 0.0000 0.0000 2.8579 0.0000 40.4231
#
#
#
# Elastic Compliance Matrix: (Units=1/GPa)
#
#
# Indices 1 2 3 4 5 6 
#
# 1 0.006945 -0.004345 0.001784 0.000000 -0.004658 0.000000
# 2 -0.004345 0.013497 -0.007394 0.000000 -0.001090 0.000000
# 3 0.001784 -0.007394 0.027085 0.000000 -0.009631 0.000000
# 4 0.000000 0.000000 0.000000 0.028108 0.000000 -0.001987
# 5 -0.004658 -0.001090 -0.009631 0.000000 0.053831 0.000000
# 6 0.000000 0.000000 0.000000 -0.001987 0.000000 0.024879
#
#
# Mechanical properties :
#
#
# Convention : Reuss Voigt Hill
#
# Bulk Modulus (GPa) = 36.21219 67.80824 52.01021
# Shear Modulus (GPa) = 27.25367 36.11327 31.68347
#
# Velocity S-wave (km/s) = 3.40752 3.92247 3.67403
# Velocity P-wave (km/s) = 5.55964 7.02877 6.33692
#
# Compressibility (1/GPa) = 0.02761501
#
# Stress axis : x y z
#
# Youngs Moduli (GPa) = 143.99506 74.08844 36.92057
#
# Poissons Ratio (x) = 0.32195 -0.06586
# Poissons Ratio (y) = 0.62573 0.27301
# Poissons Ratio (z) = -0.25686 0.54785
#
# Static dielectric constant tensor:
#      x y z
#    x 1.904830 0.000000 -0.015700 
#    y 0.000000 1.884930 0.000000 
#    z -0.015700 0.000000 2.000470 
# 
# From -- ./inp_files/122500.got.cif
#   From: 2010.05.17/outbox.cif.g08.bks.cpg/sg15_62_cif.got.tgz:122500.got - 2010.06.03 18:47:42.
