data_PCOD9257276
_publ_section_title
;
Structure prediction by ZEFSAII (Michael W. Deem and Ramdas Pophale) SiO2 
 PCOD9257276
Probable space group: C 2/C
;
_chemical_formula_sum "Si O2"
_cell_formula_units_Z 44
_cell_length_a 12.014012
_cell_length_b 22.781956
_cell_length_c 10.116253
_cell_angle_alpha 90.000000
_cell_angle_beta 107.453484
_cell_angle_gamma 90.000000
_cell_volume 2641.370154
_symmetry_space_group_name_H-M "C 2/C"
_symmetry_group_IT_number 15
_symmetry_cell_setting 'monoclinic'
loop_
_space_group_symop_operation_xyz
x,y,z
-x,y,1/2-z
-x,-y,-z
x,-y,1/2+z
1/2+x,1/2+y,z
1/2-x,1/2+y,1/2-z
1/2-x,1/2-y,-z
1/2+x,1/2-y,1/2+z
loop_
_atom_site_type_symbol
_atom_site_label
_atom_site_fract_x
_atom_site_fract_y
_atom_site_fract_z
Si Si1 0.851658 0.456307 0.843886
Si Si2 0.134657 0.443853 0.950419
Si Si3 0.595998 0.814394 0.015825
Si Si4 0.170550 0.665114 0.025205
Si Si5 0.500000 0.733134 0.750000
Si Si6 0.772623 0.215542 0.802147
O O1 0.818399 0.459207 0.678286
O O2 0.806843 0.396843 0.896748
O O3 0.993482 0.451558 0.895484
O O4 0.820373 0.512682 0.920255
O O5 0.152231 0.375711 0.989959
O O6 0.679914 0.784589 0.151261
O O7 0.469735 0.828066 0.035357
O O8 0.567262 0.774625 0.878722
O O9 0.213478 0.719442 0.130600
O O10 0.228431 0.673405 0.903203
O O11 0.399791 0.698706 0.791770
#
# Coordination Sequence:
#
# PCOD9257276 Si02
#       6
#     8   8   8   8   4   8
#     4   9  17  29  43  67 104 129 158 193 240 301
#     4   9  17  27  45  69  98 134 156 190 244 302
#     4  10  18  31  50  70 101 131 164 197 251 299
#     4   9  19  32  47  72 106 128 161 206 248 288
#     4  10  20  32  46  70 102 132 168 208 238 288
#     4  10  19  31  49  70  97 138 164 202 245 294
#
# _framework density 16.658021000000002
#
# number of rings (size 3 to 8) (size 9 to 14) (size 15 to 20)
#    0.000    2.545    0.000    4.364    2.545    0.000 
#    0.000    0.000    0.000    0.000    0.000    1.273 
#   10.909    0.182    0.000    0.000    0.000    0.000 
#
# Total GULP energy -122628.336877 kJ/mol
# GULP energy per Si atom -5574.015313 kJ/mol
# Density = 1.662011 g / cm^3
# Si number density = 16.658021 Si / 1000 Ang^3
#
#
#
# Elastic Constant Matrix: (Units=GPa)
#
#
# Indices 1 2 3 4 5 6 
#
# 1 63.9754 26.1175 49.1605 0.0000 -23.4657 0.0000
# 2 26.1175 53.2465 46.4542 0.0000 -7.5432 0.0000
# 3 49.1605 46.4542 129.2859 0.0000 -13.5559 0.0000
# 4 0.0000 0.0000 0.0000 13.7541 0.0000 -6.6862
# 5 -23.4657 -7.5432 -13.5559 0.0000 29.6046 0.0000
# 6 0.0000 0.0000 0.0000 -6.6862 0.0000 17.8834
#
#
#
# Elastic Compliance Matrix: (Units=1/GPa)
#
#
# Indices 1 2 3 4 5 6 
#
# 1 0.031112 -0.005757 -0.007699 0.000000 0.019668 0.000000
# 2 -0.005757 0.028612 -0.008200 0.000000 -0.001027 0.000000
# 3 -0.007699 -0.008200 0.013393 0.000000 -0.002059 0.000000
# 4 0.000000 0.000000 0.000000 0.088855 0.000000 0.033221
# 5 0.019668 -0.001027 -0.002059 0.000000 0.048163 0.000000
# 6 0.000000 0.000000 0.000000 0.033221 0.000000 0.068338
#
#
# Mechanical properties :
#
#
# Convention : Reuss Voigt Hill
#
# Bulk Modulus (GPa) = 33.55114 54.44137 43.99626
# Shear Modulus (GPa) = 15.07296 20.56679 17.81987
#
# Velocity S-wave (km/s) = 3.01133 3.51757 3.27425
# Velocity P-wave (km/s) = 5.68117 7.01787 6.38460
#
# Compressibility (1/GPa) = 0.02980524
#
# Stress axis : x y z
#
# Youngs Moduli (GPa) = 32.14237 34.94996 74.66752
#
# Poissons Ratio (x) = 0.20120 0.57489
# Poissons Ratio (y) = 0.18504 0.61224
# Poissons Ratio (z) = 0.24748 0.28657
#
# Static dielectric constant tensor:
#      x y z
#    x 1.566670 0.000000 -0.027790 
#    y 0.000000 1.552340 0.000000 
#    z -0.027790 0.000000 1.560950 
# 
# From -- ./inp_files/31891.got.cif
#   From: 2010.05.17/outbox.cif.g08.bks.cpg/sg15_16_cif.got.tgz:31891.got - 2010.06.03 18:47:42.
