data_PCOD9257792
_publ_section_title
;
Structure prediction by ZEFSAII (Michael W. Deem and Ramdas Pophale) SiO2 
 PCOD9257792
Probable space group: C 2/C
;
_chemical_formula_sum "Si O2"
_cell_formula_units_Z 60
_cell_length_a 16.580394
_cell_length_b 16.806136
_cell_length_c 8.699184
_cell_angle_alpha 90.000000
_cell_angle_beta 90.106638
_cell_angle_gamma 90.000000
_cell_volume 2424.043923
_symmetry_space_group_name_H-M "C 2/C"
_symmetry_group_IT_number 15
_symmetry_cell_setting 'monoclinic'
loop_
_space_group_symop_operation_xyz
x,y,z
-x,y,1/2-z
-x,-y,-z
x,-y,1/2+z
1/2+x,1/2+y,z
1/2-x,1/2+y,1/2-z
1/2-x,1/2-y,-z
1/2+x,1/2-y,1/2+z
loop_
_atom_site_type_symbol
_atom_site_label
_atom_site_fract_x
_atom_site_fract_y
_atom_site_fract_z
Si Si1 0.381450 0.444148 0.464926
Si Si2 0.856652 0.769011 0.059565
Si Si3 0.897109 0.640946 0.867411
Si Si4 0.582796 0.184875 0.961811
Si Si5 0.000000 0.153897 0.750000
Si Si6 0.303900 0.298303 0.380494
Si Si7 0.591941 0.391082 0.691995
Si Si8 0.562354 0.965875 0.623883
O O1 0.454851 0.404860 0.369031
O O2 0.306256 0.393358 0.398791
O O3 0.376036 0.424441 0.645289
O O4 0.394409 0.536056 0.426764
O O5 0.938959 0.794091 0.147730
O O6 0.795532 0.782403 0.199741
O O7 0.848374 0.677666 0.007497
O O8 0.865020 0.820090 0.902145
O O9 0.878396 0.681426 0.705445
O O10 0.891376 0.546764 0.835366
O O11 0.988739 0.667284 0.919605
O O12 0.609604 0.262107 0.054561
O O13 0.610355 0.108367 0.060250
O O14 0.250000 0.250000 0.500000
O O15 0.500000 0.369580 0.750000
O O16 0.500000 0.934798 0.750000
O O17 0.500000 0.000000 0.500000
#
# Coordination Sequence:
#
# PCOD9257792 Si02
#       8
#     8   8   8   8   4   8   8   8
#     4  11  21  38  62  91 129 166 199 251 312 375
#     4  11  23  34  60  90 127 161 204 250 313 373
#     4  10  19  35  58  98 122 150 191 248 333 377
#     4  10  21  35  60  86 125 157 195 257 308 372
#     4  10  18  34  52  94 120 164 192 240 318 374
#     4  11  26  45  62  82 121 173 225 256 291 352
#     4  12  22  36  64 102 139 156 191 252 336 399
#     4  10  18  32  53  87 128 152 179 233 317 379
#
# _framework density 24.752026999999998
#
# number of rings (size 3 to 8) (size 9 to 14) (size 15 to 20)
#    0.000    1.333    4.667    4.400    5.600    0.000 
#    0.000    2.667   11.733    0.000    0.000    0.000 
#    0.000    0.000    0.000    0.000    0.000    0.000 
#
# Total GULP energy -167306.043941 kJ/mol
# GULP energy per Si atom -5576.868131 kJ/mol
# Density = 2.469569 g / cm^3
# Si number density = 24.752027 Si / 1000 Ang^3
#
#
#
# Elastic Constant Matrix: (Units=GPa)
#
#
# Indices 1 2 3 4 5 6 
#
# 1 55.8691 8.7698 17.5075 0.0000 -16.8826 0.0000
# 2 8.7698 122.1963 37.9315 0.0000 -10.1708 0.0000
# 3 17.5075 37.9315 169.7142 0.0000 -24.1553 0.0000
# 4 0.0000 0.0000 0.0000 47.8639 0.0000 -2.1513
# 5 -16.8826 -10.1708 -24.1553 0.0000 32.3395 0.0000
# 6 0.0000 0.0000 0.0000 -2.1513 0.0000 12.9746
#
#
#
# Elastic Compliance Matrix: (Units=1/GPa)
#
#
# Indices 1 2 3 4 5 6 
#
# 1 0.021348 -0.000469 -0.000596 0.000000 0.010552 0.000000
# 2 -0.000469 0.008865 -0.001758 0.000000 0.001230 0.000000
# 3 -0.000596 -0.001758 0.006964 0.000000 0.004338 0.000000
# 4 0.000000 0.000000 0.000000 0.021049 0.000000 0.003490
# 5 0.010552 0.001230 0.004338 0.000000 0.040058 0.000000
# 6 0.000000 0.000000 0.000000 0.003490 0.000000 0.077653
#
#
# Mechanical properties :
#
#
# Convention : Reuss Voigt Hill
#
# Bulk Modulus (GPa) = 31.71339 52.91078 42.31208
# Shear Modulus (GPa) = 26.02914 37.54032 31.78473
#
# Velocity S-wave (km/s) = 3.24635 3.89865 3.58736
# Velocity P-wave (km/s) = 5.18575 6.45668 5.85580
#
# Compressibility (1/GPa) = 0.03153242
#
# Stress axis : x y z
#
# Youngs Moduli (GPa) = 46.84300 112.79938 143.59563
#
# Poissons Ratio (x) = 0.05290 0.08551
# Poissons Ratio (y) = 0.02197 0.25243
# Poissons Ratio (z) = 0.02790 0.19829
#
# Static dielectric constant tensor:
#      x y z
#    x 2.225690 0.000000 -0.015380 
#    y 0.000000 2.009780 0.000000 
#    z -0.015380 0.000000 1.945670 
# 
# From -- ./inp_files/56589.got.cif
#   From: 2010.05.17/outbox.cif.g08.bks.cpg/sg15_29_cif.got.tgz:56589.got - 2010.06.03 18:47:42.
