data_PCOD9257314
_publ_section_title
;
Structure prediction by ZEFSAII (Michael W. Deem and Ramdas Pophale) SiO2 
 PCOD9257314
Probable space group: C 2/C
;
_chemical_formula_sum "Si O2"
_cell_formula_units_Z 56
_cell_length_a 12.042910
_cell_length_b 11.142124
_cell_length_c 20.813178
_cell_angle_alpha 90.000000
_cell_angle_beta 58.051948
_cell_angle_gamma 90.000000
_cell_volume 2369.758610
_symmetry_space_group_name_H-M "C 2/C"
_symmetry_group_IT_number 15
_symmetry_cell_setting 'monoclinic'
loop_
_space_group_symop_operation_xyz
x,y,z
-x,y,1/2-z
-x,-y,-z
x,-y,1/2+z
1/2+x,1/2+y,z
1/2-x,1/2+y,1/2-z
1/2-x,1/2-y,-z
1/2+x,1/2-y,1/2+z
loop_
_atom_site_type_symbol
_atom_site_label
_atom_site_fract_x
_atom_site_fract_y
_atom_site_fract_z
Si Si1 0.590275 0.325537 0.346319
Si Si2 0.885636 0.617744 0.244573
Si Si3 0.859426 0.958834 0.741541
Si Si4 0.636102 0.763046 0.175585
Si Si5 0.782551 0.754185 0.594959
Si Si6 0.166749 0.070542 0.529966
Si Si7 0.040923 0.181317 0.083179
O O1 0.555717 0.195710 0.330983
O O2 0.584230 0.410647 0.285321
O O3 0.732111 0.318629 0.336015
O O4 0.480932 0.376990 0.425671
O O5 0.785883 0.530165 0.241283
O O6 0.802384 0.707113 0.316761
O O7 0.000000 0.561958 0.250000
O O8 0.855033 0.879877 0.806671
O O9 0.939959 0.880780 0.664969
O O10 0.500000 0.802267 0.250000
O O11 0.621749 0.771481 0.103724
O O12 0.764809 0.866052 0.551212
O O13 0.733924 0.632908 0.572948
O O14 0.937386 0.755203 0.567191
O O15 0.137870 0.928141 0.533827
#
# Coordination Sequence:
#
# PCOD9257314 Si02
#       7
#     8   8   8   8   8   8   8
#     4  10  19  33  55  80 105 140 178 222 274 332
#     4  10  18  31  51  76 103 132 171 226 271 317
#     4   8  18  30  49  76 101 132 175 214 268 322
#     4   9  18  33  51  78 110 137 176 228 276 328
#     4  10  20  34  53  82 108 138 190 235 276 330
#     4  10  20  34  57  79 105 145 188 232 280 332
#     4   9  18  34  54  74 106 143 180 227 272 330
#
# _framework density 23.6311
#
# number of rings (size 3 to 8) (size 9 to 14) (size 15 to 20)
#    0.000    2.571    1.429    1.286    2.000    1.143 
#    0.000    0.714    0.000    5.143    0.000    0.000 
#    0.000    0.000    0.000    0.000    0.000    0.000 
#
# Total GULP energy -156019.891239 kJ/mol
# GULP energy per Si atom -5572.138973 kJ/mol
# Density = 2.357731 g / cm^3
# Si number density = 23.631100 Si / 1000 Ang^3
#
#
#
# Elastic Constant Matrix: (Units=GPa)
#
#
# Indices 1 2 3 4 5 6 
#
# 1 182.7785 22.9773 4.1385 0.0000 -0.0259 0.0000
# 2 22.9773 42.8769 6.4073 0.0000 -11.5326 0.0000
# 3 4.1385 6.4073 48.4606 0.0000 -7.3677 0.0000
# 4 0.0000 0.0000 0.0000 18.0123 0.0000 -7.1425
# 5 -0.0259 -11.5326 -7.3677 0.0000 22.8707 0.0000
# 6 0.0000 0.0000 0.0000 -7.1425 0.0000 16.2849
#
#
#
# Elastic Compliance Matrix: (Units=1/GPa)
#
#
# Indices 1 2 3 4 5 6 
#
# 1 0.005938 -0.003656 -0.000319 0.000000 -0.001939 0.000000
# 2 -0.003656 0.029348 -0.001387 0.000000 0.014348 0.000000
# 3 -0.000319 -0.001387 0.021808 0.000000 0.006326 0.000000
# 4 0.000000 0.000000 0.000000 0.067206 0.000000 0.029476
# 5 -0.001939 0.014348 0.006326 0.000000 0.052995 0.000000
# 6 0.000000 0.000000 0.000000 0.029476 0.000000 0.074335
#
#
# Mechanical properties :
#
#
# Convention : Reuss Voigt Hill
#
# Bulk Modulus (GPa) = 21.56518 37.90692 29.73605
# Shear Modulus (GPa) = 17.99800 27.47310 22.73555
#
# Velocity S-wave (km/s) = 2.76275 3.41337 3.10514
# Velocity P-wave (km/s) = 4.39575 5.62234 5.04645
#
# Compressibility (1/GPa) = 0.04637105
#
# Stress axis : x y z
#
# Youngs Moduli (GPa) = 168.41709 34.07358 45.85561
#
# Poissons Ratio (x) = 0.12457 0.01461
# Poissons Ratio (y) = 0.61573 0.06359
# Poissons Ratio (z) = 0.05365 0.04725
#
# Static dielectric constant tensor:
#      x y z
#    x 1.965320 0.000000 0.021570 
#    y 0.000000 1.891880 0.000000 
#    z 0.021570 0.000000 1.908950 
# 
# From -- ./inp_files/236970.got.cif
#   From: 2010.05.17/outbox.cif.g08.bks.cpg/sg15_119_cif.got.tgz:236970.got - 2010.06.03 18:47:42.
