data_PCOD9257630
_publ_section_title
;
Structure prediction by ZEFSAII (Michael W. Deem and Ramdas Pophale) SiO2 
 PCOD9257630
Probable space group: C 2/C
;
_chemical_formula_sum "Si O2"
_cell_formula_units_Z 36
_cell_length_a 13.937023
_cell_length_b 13.288306
_cell_length_c 8.764721
_cell_angle_alpha 90.000000
_cell_angle_beta 52.248572
_cell_angle_gamma 90.000000
_cell_volume 1283.439391
_symmetry_space_group_name_H-M "C 2/C"
_symmetry_group_IT_number 15
_symmetry_cell_setting 'monoclinic'
loop_
_space_group_symop_operation_xyz
x,y,z
-x,y,1/2-z
-x,-y,-z
x,-y,1/2+z
1/2+x,1/2+y,z
1/2-x,1/2+y,1/2-z
1/2-x,1/2-y,-z
1/2+x,1/2-y,1/2+z
loop_
_atom_site_type_symbol
_atom_site_label
_atom_site_fract_x
_atom_site_fract_y
_atom_site_fract_z
Si Si1 0.251651 0.199206 0.829315
Si Si2 0.481961 0.808529 0.444105
Si Si3 0.407940 0.532642 0.219560
Si Si4 0.749000 0.543637 0.386723
Si Si5 0.500000 0.996140 0.750000
O O1 0.383428 0.208311 0.620060
O O2 0.245765 0.078502 0.864475
O O3 0.250000 0.250000 0.000000
O O4 0.128630 0.245638 0.878734
O O5 0.500000 0.776439 0.250000
O O6 0.461279 0.927416 0.424792
O O7 0.500000 0.581551 0.250000
O O8 0.303670 0.586223 0.220271
O O9 0.341500 0.445921 0.382202
O O10 0.500000 0.500000 0.000000
O O11 0.884079 0.566412 0.310393
#
# Coordination Sequence:
#
# PCOD9257630 Si02
#       5
#     8   8   8   8   4
#     4   9  14  25  44  72  97 117 148 205 246 277
#     4   7  13  22  36  67 102 108 147 189 249 270
#     4   9  20  34  46  68  96 131 166 200 233 288
#     4  10  18  32  50  71 102 125 163 201 244 285
#     4   8  16  28  46  74 102 116 160 206 236 292
#
# _framework density 28.049631000000002
#
# number of rings (size 3 to 8) (size 9 to 14) (size 15 to 20)
#    0.667    2.667    2.222    0.000    0.000    8.889 
#    0.000    0.000    0.000    0.000    0.000   24.889 
#    0.000    0.000    0.000    0.000    0.000    0.000 
#
# Total GULP energy -100444.036692 kJ/mol
# GULP energy per Si atom -5580.224261 kJ/mol
# Density = 2.798579 g / cm^3
# Si number density = 28.049631 Si / 1000 Ang^3
#
#
#
# Elastic Constant Matrix: (Units=GPa)
#
#
# Indices 1 2 3 4 5 6 
#
# 1 227.4428 37.0120 97.0815 0.0000 -37.7575 0.0000
# 2 37.0120 82.9354 6.6643 0.0000 19.8633 0.0000
# 3 97.0815 6.6643 117.1021 0.0000 -14.2438 0.0000
# 4 0.0000 0.0000 0.0000 21.2990 0.0000 -0.5886
# 5 -37.7575 19.8633 -14.2438 0.0000 68.6096 0.0000
# 6 0.0000 0.0000 0.0000 -0.5886 0.0000 25.4750
#
#
#
# Elastic Compliance Matrix: (Units=1/GPa)
#
#
# Indices 1 2 3 4 5 6 
#
# 1 0.008591 -0.004457 -0.006296 0.000000 0.004711 0.000000
# 2 -0.004457 0.015441 0.002025 0.000000 -0.006503 0.000000
# 3 -0.006296 0.002025 0.013492 0.000000 -0.001250 0.000000
# 4 0.000000 0.000000 0.000000 0.046980 0.000000 0.001086
# 5 0.004711 -0.006503 -0.001250 0.000000 0.018791 0.000000
# 6 0.000000 0.000000 0.000000 0.001086 0.000000 0.039279
#
#
# Mechanical properties :
#
#
# Convention : Reuss Voigt Hill
#
# Bulk Modulus (GPa) = 49.82748 78.77732 64.30240
# Shear Modulus (GPa) = 29.99052 42.19158 36.09105
#
# Velocity S-wave (km/s) = 3.27340 3.88258 3.59093
# Velocity P-wave (km/s) = 5.66476 6.94587 6.33777
#
# Compressibility (1/GPa) = 0.02006925
#
# Stress axis : x y z
#
# Youngs Moduli (GPa) = 116.39647 64.76236 74.11958
#
# Poissons Ratio (x) = 0.28862 0.46664
# Poissons Ratio (y) = 0.51872 -0.15009
# Poissons Ratio (z) = 0.73281 -0.13114
#
# Static dielectric constant tensor:
#      x y z
#    x 2.336110 0.000000 -0.056170 
#    y 0.000000 2.228400 0.000000 
#    z -0.056170 0.000000 2.273520 
# 
# From -- ./inp_files/38873.got.cif
#   From: 2010.05.17/outbox.cif.g08.bks.cpg/sg15_20_cif.got.tgz:38873.got - 2010.06.03 18:47:42.
