data_PCOD9257287
_publ_section_title
;
Structure prediction by ZEFSAII (Michael W. Deem and Ramdas Pophale) SiO2 
 PCOD9257287
Probable space group: C 2/C
;
_chemical_formula_sum "Si O2"
_cell_formula_units_Z 56
_cell_length_a 12.912934
_cell_length_b 7.701187
_cell_length_c 25.451439
_cell_angle_alpha 90.000000
_cell_angle_beta 67.051918
_cell_angle_gamma 90.000000
_cell_volume 2330.707957
_symmetry_space_group_name_H-M "C 2/C"
_symmetry_group_IT_number 15
_symmetry_cell_setting 'monoclinic'
loop_
_space_group_symop_operation_xyz
x,y,z
-x,y,1/2-z
-x,-y,-z
x,-y,1/2+z
1/2+x,1/2+y,z
1/2-x,1/2+y,1/2-z
1/2-x,1/2-y,-z
1/2+x,1/2-y,1/2+z
loop_
_atom_site_type_symbol
_atom_site_label
_atom_site_fract_x
_atom_site_fract_y
_atom_site_fract_z
Si Si1 0.878615 0.097291 0.021546
Si Si2 0.454741 0.841014 0.924320
Si Si3 0.273629 0.530832 0.317800
Si Si4 0.437716 0.167247 0.605654
Si Si5 0.702027 0.336058 0.390871
Si Si6 0.951899 0.256525 0.810097
Si Si7 0.124130 0.041299 0.311099
O O1 0.880588 0.240021 0.067327
O O2 0.793217 0.946258 0.056605
O O3 0.872047 0.206766 0.969500
O O4 0.000000 0.000000 0.000000
O O5 0.576477 0.750296 0.912139
O O6 0.428388 0.854167 0.868021
O O7 0.467381 0.042321 0.937469
O O8 0.147364 0.459127 0.346187
O O9 0.283936 0.679148 0.360050
O O10 0.347604 0.363032 0.315330
O O11 0.308384 0.602969 0.253687
O O12 0.455941 0.319806 0.644117
O O13 0.705016 0.468310 0.340768
O O14 0.000000 0.356182 0.750000
O O15 0.048265 0.117449 0.806619
#
# Coordination Sequence:
#
# PCOD9257287 Si02
#       7
#     8   8   8   8   8   8   8
#     4   9  17  32  53  75 100 130 171 216 253 298
#     4   9  17  32  52  72  99 134 170 208 249 300
#     4  10  18  31  50  76 106 131 165 214 256 301
#     4  10  19  31  54  82  98 128 177 215 250 298
#     4   8  16  29  49  74  97 130 170 208 253 300
#     4   9  19  35  52  72 105 141 166 200 258 312
#     4   9  17  32  51  73 102 136 167 203 255 311
#
# _framework density 24.027035999999999
#
# number of rings (size 3 to 8) (size 9 to 14) (size 15 to 20)
#    0.000    2.857    0.000    2.143    0.000    1.143 
#    0.000    6.429    0.000    0.000    0.000    0.000 
#    0.000    0.000    0.000    0.000    0.000    0.000 
#
# Total GULP energy -156118.327095 kJ/mol
# GULP energy per Si atom -5575.654539 kJ/mol
# Density = 2.397235 g / cm^3
# Si number density = 24.027036 Si / 1000 Ang^3
#
#
#
# Elastic Constant Matrix: (Units=GPa)
#
#
# Indices 1 2 3 4 5 6 
#
# 1 39.0293 -9.5847 3.5344 0.0000 -5.5252 0.0000
# 2 -9.5847 54.2654 0.8999 0.0000 -3.4390 0.0000
# 3 3.5344 0.8999 52.9025 0.0000 -6.4813 0.0000
# 4 0.0000 0.0000 0.0000 25.1039 0.0000 -4.2591
# 5 -5.5252 -3.4390 -6.4813 0.0000 16.8838 0.0000
# 6 0.0000 0.0000 0.0000 -4.2591 0.0000 -0.4109
#
#
#
# Elastic Compliance Matrix: (Units=1/GPa)
#
#
# Indices 1 2 3 4 5 6 
#
# 1 0.028535 0.005700 -0.000752 0.000000 0.010210 0.000000
# 2 0.005700 0.019809 0.000005 0.000000 0.005902 0.000000
# 3 -0.000752 0.000005 0.019857 0.000000 0.007377 0.000000
# 4 0.000000 0.000000 0.000000 0.014441 0.000000 -0.149674
# 5 0.010210 0.005902 0.007377 0.000000 0.066604 0.000000
# 6 0.000000 0.000000 0.000000 -0.149674 0.000000 -0.882204
#
#
# Mechanical properties :
#
#
# Convention : Reuss Voigt Hill
#
# Bulk Modulus (GPa) = 12.80323 15.09960 13.95142
# Shear Modulus (GPa) = -6.97517 18.40520 5.71502
#
# Velocity S-wave (km/s) = -1.70568 2.77071 1.54394
# Velocity P-wave (km/s) = 1.20876 4.06618 2.99958
#
# Compressibility (1/GPa) = 0.07810527
#
# Stress axis : x y z
#
# Youngs Moduli (GPa) = 35.04466 50.48312 50.36082
#
# Poissons Ratio (x) = -0.28773 0.03789
# Poissons Ratio (y) = -0.19974 -0.00027
# Poissons Ratio (z) = 0.02637 -0.00027
#
# Static dielectric constant tensor:
#      x y z
#    x 1.970900 0.000000 -0.062130 
#    y 0.000000 1.929280 0.000000 
#    z -0.062130 0.000000 1.968340 
# 
# From -- ./inp_files/297964.got.cif
#   From: 2010.05.17/outbox.cif.g08.bks.cpg/sg15_149_cif.got.tgz:297964.got - 2010.06.03 18:47:42.
