data_PCOD9257897
_publ_section_title
;
Structure prediction by ZEFSAII (Michael W. Deem and Ramdas Pophale) SiO2 
 PCOD9257897
Probable space group: C 2/C
;
_chemical_formula_sum "Si O2"
_cell_formula_units_Z 40
_cell_length_a 14.017195
_cell_length_b 12.633340
_cell_length_c 9.595801
_cell_angle_alpha 90.000000
_cell_angle_beta 99.486638
_cell_angle_gamma 90.000000
_cell_volume 1676.023725
_symmetry_space_group_name_H-M "C 2/C"
_symmetry_group_IT_number 15
_symmetry_cell_setting 'monoclinic'
loop_
_space_group_symop_operation_xyz
x,y,z
-x,y,1/2-z
-x,-y,-z
x,-y,1/2+z
1/2+x,1/2+y,z
1/2-x,1/2+y,1/2-z
1/2-x,1/2-y,-z
1/2+x,1/2-y,1/2+z
loop_
_atom_site_type_symbol
_atom_site_label
_atom_site_fract_x
_atom_site_fract_y
_atom_site_fract_z
Si Si1 0.966195 0.382912 0.529675
Si Si2 0.211287 0.978389 0.925226
Si Si3 0.587250 0.730059 0.385557
Si Si4 0.779049 0.670483 0.798688
Si Si5 0.193850 0.604880 0.308244
O O1 0.873611 0.361949 0.407419
O O2 0.914281 0.387601 0.666059
O O3 0.000000 0.500000 0.500000
O O4 0.041079 0.290324 0.506594
O O5 0.128668 0.888748 0.918747
O O6 0.292551 0.923932 0.848490
O O7 0.197463 0.085225 0.826782
O O8 0.249767 0.020510 0.081469
O O9 0.500000 0.724128 0.250000
O O10 0.675076 0.801929 0.342569
O O11 0.743264 0.783294 0.841126
#
# Coordination Sequence:
#
# PCOD9257897 Si02
#       5
#     8   8   8   8   8
#     4  10  18  32  55  83 110 146 190 237 282 336
#     4  10  19  37  61  85 112 154 197 234 282 354
#     4   9  19  35  57  84 113 149 195 242 291 340
#     4   9  19  38  58  79 114 159 193 229 291 359
#     4  10  21  38  61  83 115 158 194 232 292 355
#
# _framework density 23.866012000000001
#
# number of rings (size 3 to 8) (size 9 to 14) (size 15 to 20)
#    0.000    2.400    0.000    3.600    0.000    1.600 
#    0.000   32.000    0.000    9.600    0.000    0.000 
#    0.000    0.000    0.000    2.000    0.000    0.000 
#
# Total GULP energy -111623.572363 kJ/mol
# GULP energy per Si atom -5581.178618 kJ/mol
# Density = 2.381169 g / cm^3
# Si number density = 23.866012 Si / 1000 Ang^3
#
#
#
# Elastic Constant Matrix: (Units=GPa)
#
#
# Indices 1 2 3 4 5 6 
#
# 1 97.4463 86.9901 36.3970 0.0000 -18.4183 0.0000
# 2 86.9901 208.4026 27.8124 0.0000 -6.5122 0.0000
# 3 36.3970 27.8124 71.5389 0.0000 -16.9978 0.0000
# 4 0.0000 0.0000 0.0000 39.1297 0.0000 -9.7733
# 5 -18.4183 -6.5122 -16.9978 0.0000 39.8213 0.0000
# 6 0.0000 0.0000 0.0000 -9.7733 0.0000 82.3743
#
#
#
# Elastic Compliance Matrix: (Units=1/GPa)
#
#
# Indices 1 2 3 4 5 6 
#
# 1 0.020247 -0.007467 -0.006080 0.000000 0.005548 0.000000
# 2 -0.007467 0.007815 0.000271 0.000000 -0.002060 0.000000
# 3 -0.006080 0.000271 0.018149 0.000000 0.004979 0.000000
# 4 0.000000 0.000000 0.000000 0.026336 0.000000 0.003125
# 5 0.005548 -0.002060 0.004979 0.000000 0.029467 0.000000
# 6 0.000000 0.000000 0.000000 0.003125 0.000000 0.012510
#
#
# Mechanical properties :
#
#
# Convention : Reuss Voigt Hill
#
# Bulk Modulus (GPa) = 50.86369 75.53188 63.19779
# Shear Modulus (GPa) = 33.86860 47.34427 40.60644
#
# Velocity S-wave (km/s) = 3.77120 4.45877 4.12932
# Velocity P-wave (km/s) = 6.34989 7.63050 7.01946
#
# Compressibility (1/GPa) = 0.01966039
#
# Stress axis : x y z
#
# Youngs Moduli (GPa) = 49.38947 127.96687 55.09831
#
# Poissons Ratio (x) = 0.95549 0.33500
# Poissons Ratio (y) = 0.36878 -0.01495
# Poissons Ratio (z) = 0.30029 -0.03473
#
# Static dielectric constant tensor:
#      x y z
#    x 2.031230 0.000000 0.975270 
#    y 0.000000 1.894880 0.000000 
#    z 0.975270 0.000000 9.325000 
# 
# From -- ./inp_files/94487.got.cif
#   From: 2010.05.17/outbox.cif.g08.bks.cpg/sg15_48_cif.got.tgz:94487.got - 2010.06.03 18:47:42.
