data_PCOD9257576
_publ_section_title
;
Structure prediction by ZEFSAII (Michael W. Deem and Ramdas Pophale) SiO2 
 PCOD9257576
Probable space group: C 2/C
;
_chemical_formula_sum "Si O2"
_cell_formula_units_Z 56
_cell_length_a 17.550918
_cell_length_b 15.358280
_cell_length_c 25.341284
_cell_angle_alpha 90.000000
_cell_angle_beta 159.799445
_cell_angle_gamma 90.000000
_cell_volume 2358.722127
_symmetry_space_group_name_H-M "C 2/C"
_symmetry_group_IT_number 15
_symmetry_cell_setting 'monoclinic'
loop_
_space_group_symop_operation_xyz
x,y,z
-x,y,1/2-z
-x,-y,-z
x,-y,1/2+z
1/2+x,1/2+y,z
1/2-x,1/2+y,1/2-z
1/2-x,1/2-y,-z
1/2+x,1/2-y,1/2+z
loop_
_atom_site_type_symbol
_atom_site_label
_atom_site_fract_x
_atom_site_fract_y
_atom_site_fract_z
Si Si1 0.644541 0.367559 0.196212
Si Si2 0.500000 0.912568 0.250000
Si Si3 0.278436 0.044308 0.333991
Si Si4 0.186979 0.054150 0.089592
Si Si5 0.530392 0.073483 0.402532
Si Si6 0.420706 0.698435 0.645386
Si Si7 0.573922 0.864992 0.414718
Si Si8 0.500000 0.626603 0.250000
O O1 0.661257 0.469070 0.224047
O O2 0.618344 0.321117 0.234612
O O3 0.854715 0.333350 0.301564
O O4 0.431429 0.370177 0.020275
O O5 0.541553 0.860122 0.330850
O O6 0.297692 0.979274 0.126147
O O7 0.383065 0.105611 0.356524
O O8 0.128031 0.078299 0.284095
O O9 0.500000 0.000000 0.500000
O O10 0.379134 0.089879 0.252822
O O11 0.000000 0.000000 0.000000
O O12 0.773556 0.113755 0.563856
O O13 0.569114 0.969282 0.424490
O O14 0.500000 0.740899 0.750000
O O15 0.250000 0.750000 0.500000
O O16 0.796210 0.829356 0.585860
#
# Coordination Sequence:
#
# PCOD9257576 Si02
#       8
#     8   4   8   8   8   8   8   4
#     4  11  21  37  58  84 123 160 211 253 313 378
#     4  10  18  32  44  78 120 158 194 226 298 380
#     4  11  19  31  53  88 121 163 197 247 327 380
#     4  11  18  33  56  87 123 165 199 247 309 383
#     4  10  21  37  57  85 122 164 211 248 318 373
#     4  12  29  46  66  88 124 174 221 269 315 371
#     4  10  21  32  57  90 123 165 192 250 315 380
#     4  12  20  28  48  82 132 146 192 240 310 384
#
# _framework density 23.741669999999999
#
# number of rings (size 3 to 8) (size 9 to 14) (size 15 to 20)
#    0.000    1.143    7.143    4.286    4.000    0.000 
#    0.000    0.000    0.000    0.000    0.000    2.000 
#    0.000    0.000    0.000    0.000    0.000    0.000 
#
# Total GULP energy -156355.481454 kJ/mol
# GULP energy per Si atom -5584.124338 kJ/mol
# Density = 2.368763 g / cm^3
# Si number density = 23.741670 Si / 1000 Ang^3
#
#
#
# Elastic Constant Matrix: (Units=GPa)
#
#
# Indices 1 2 3 4 5 6 
#
# 1 210.4049 17.1592 68.0489 -0.0158 6.2772 -0.0002
# 2 17.1592 22.1046 6.5187 -0.0131 7.3619 0.0183
# 3 68.0489 6.5187 148.9830 -0.0425 -17.0108 -0.0056
# 4 -0.0158 -0.0131 -0.0425 5.2720 0.0106 -7.4038
# 5 6.2772 7.3619 -17.0108 0.0106 57.5264 0.0165
# 6 -0.0002 0.0183 -0.0056 -7.4038 0.0165 -3.5380
#
#
#
# Elastic Compliance Matrix: (Units=1/GPa)
#
#
# Indices 1 2 3 4 5 6 
#
# 1 0.005930 -0.003486 -0.002669 -0.000009 -0.000990 0.000001
# 2 -0.003486 0.050506 -0.001358 0.000113 -0.006485 -0.000003
# 3 -0.002669 -0.001358 0.008325 0.000010 0.002927 -0.000028
# 4 -0.000009 0.000113 0.000010 0.048157 0.000010 -0.100775
# 5 -0.000990 -0.006485 0.002927 0.000010 0.019187 0.000031
# 6 0.000001 -0.000003 -0.000028 -0.100775 0.000031 -0.071758
#
#
# Mechanical properties :
#
#
# Convention : Reuss Voigt Hill
#
# Bulk Modulus (GPa) = 20.10686 62.77178 41.43932
# Shear Modulus (GPa) = 54.37709 31.16978 42.77343
#
# Velocity S-wave (km/s) = 4.79097 3.62729 4.24915
# Velocity P-wave (km/s) = 6.25235 6.63625 6.44716
#
# Compressibility (1/GPa) = 0.04973428
#
# Stress axis : x y z
#
# Youngs Moduli (GPa) = 168.63981 19.79966 120.12252
#
# Poissons Ratio (x) = 0.06903 0.32061
# Poissons Ratio (y) = 0.58793 0.16311
# Poissons Ratio (z) = 0.45010 0.02689
#
# Static dielectric constant tensor:
#      x y z
#    x 1.582820 0.000710 -0.224840 
#    y 0.000710 1.968180 0.000350 
#    z -0.224840 0.000350 1.854720 
# 
# From -- ./inp_files/299324.got.cif
#   From: 2010.05.17/outbox.cif.g08.bks.cpg/sg15_150_cif.got.tgz:299324.got - 2010.06.03 18:47:42.
