data_PCOD9257729
_publ_section_title
;
Structure prediction by ZEFSAII (Michael W. Deem and Ramdas Pophale) SiO2 
 PCOD9257729
Probable space group: C 2/C
;
_chemical_formula_sum "Si O2"
_cell_formula_units_Z 52
_cell_length_a 16.325584
_cell_length_b 22.912859
_cell_length_c 22.707602
_cell_angle_alpha 90.000000
_cell_angle_beta 161.221892
_cell_angle_gamma 90.000000
_cell_volume 2734.296543
_symmetry_space_group_name_H-M "C 2/C"
_symmetry_group_IT_number 15
_symmetry_cell_setting 'monoclinic'
loop_
_space_group_symop_operation_xyz
x,y,z
-x,y,1/2-z
-x,-y,-z
x,-y,1/2+z
1/2+x,1/2+y,z
1/2-x,1/2+y,1/2-z
1/2-x,1/2-y,-z
1/2+x,1/2-y,1/2+z
loop_
_atom_site_type_symbol
_atom_site_label
_atom_site_fract_x
_atom_site_fract_y
_atom_site_fract_z
Si Si1 0.591488 0.085801 0.440764
Si Si2 0.835583 0.785654 0.930912
Si Si3 0.000000 0.814674 0.250000
Si Si4 0.500000 0.511156 0.250000
Si Si5 0.129182 0.770237 0.674450
Si Si6 0.500000 0.118716 0.250000
Si Si7 0.234404 0.827415 0.867357
Si Si8 0.158775 0.560144 0.112165
O O1 0.772327 0.143040 0.573010
O O2 0.508624 0.084621 0.316796
O O3 0.373238 0.080629 0.342114
O O4 0.770555 0.030776 0.575573
O O5 0.640323 0.730684 0.801552
O O6 0.845199 0.804760 0.869470
O O7 0.736629 0.837068 0.904668
O O8 0.108814 0.764361 0.137285
O O9 0.418196 0.545017 0.253830
O O10 0.111796 0.808108 0.721499
O O11 0.899493 0.725080 0.507136
O O12 0.419153 0.882278 0.978514
O O13 0.000000 0.841302 0.750000
O O14 0.000000 0.500000 0.000000
#
# Coordination Sequence:
#
# PCOD9257729 Si02
#       8
#     8   8   4   4   8   4   8   8
#     4  10  20  33  55  80 110 139 193 231 292 350
#     4  10  19  31  49  76 120 148 186 222 279 345
#     4  10  18  32  52  80 110 156 188 232 270 340
#     4   9  20  39  58  78  98 141 192 247 284 340
#     4  10  21  34  53  84 116 157 194 231 295 350
#     4  11  20  31  50  82 116 149 172 233 298 346
#     4  11  21  37  59  84 119 150 196 247 293 348
#     4  10  20  37  61  85 107 148 200 251 289 333
#
# _framework density 19.017688
#
# number of rings (size 3 to 8) (size 9 to 14) (size 15 to 20)
#    0.000    1.846    0.769    5.077    0.000    4.923 
#    0.000    0.769    0.000    7.385    0.000    0.000 
#    0.000    0.000    0.000    0.000    0.000    0.000 
#
# Total GULP energy -144768.287908 kJ/mol
# GULP energy per Si atom -5568.011073 kJ/mol
# Density = 1.897440 g / cm^3
# Si number density = 19.017688 Si / 1000 Ang^3
#
#
#
# Elastic Constant Matrix: (Units=GPa)
#
#
# Indices 1 2 3 4 5 6 
#
# 1 182.5385 48.1657 48.8609 -0.0087 1.5302 0.0041
# 2 48.1657 73.6839 12.3130 -0.0394 0.0768 0.0065
# 3 48.8609 12.3130 35.4024 0.0231 -0.1297 0.0071
# 4 -0.0087 -0.0394 0.0231 8.9359 0.0086 4.2733
# 5 1.5302 0.0768 -0.1297 0.0086 27.5578 0.0141
# 6 0.0041 0.0065 0.0071 4.2733 0.0141 36.0487
#
#
#
# Elastic Compliance Matrix: (Units=1/GPa)
#
#
# Indices 1 2 3 4 5 6 
#
# 1 0.009901 -0.004446 -0.012121 0.000022 -0.000594 0.000000
# 2 -0.004446 0.016405 0.000431 0.000072 0.000203 -0.000011
# 3 -0.012121 0.000431 0.044828 -0.000130 0.000883 0.000008
# 4 0.000022 0.000072 -0.000130 0.118634 -0.000032 -0.014063
# 5 -0.000594 0.000203 0.000883 -0.000032 0.036324 -0.000011
# 6 0.000000 -0.000011 0.000008 -0.014063 -0.000011 0.029407
#
#
# Mechanical properties :
#
#
# Convention : Reuss Voigt Hill
#
# Bulk Modulus (GPa) = 25.73106 56.70045 41.21575
# Shear Modulus (GPa) = 16.62644 26.66083 21.64364
#
# Velocity S-wave (km/s) = 2.96000 3.74825 3.37720
# Velocity P-wave (km/s) = 5.02410 6.97222 6.07673
#
# Compressibility (1/GPa) = 0.03886354
#
# Stress axis : x y z
#
# Youngs Moduli (GPa) = 101.00244 60.95522 22.30729
#
# Poissons Ratio (x) = 0.27100 0.27038
# Poissons Ratio (y) = 0.44904 -0.00961
# Poissons Ratio (z) = 1.22420 -0.02626
#
# Static dielectric constant tensor:
#      x y z
#    x 1.695100 -0.000010 0.017500 
#    y -0.000010 1.709220 -0.000020 
#    z 0.017500 -0.000020 1.649720 
# 
# From -- ./inp_files/164039.got.cif
#   From: 2010.05.17/outbox.cif.g08.bks.cpg/sg15_83_cif.got.tgz:164039.got - 2010.06.03 18:47:42.
