data_PCOD9257295
_publ_section_title
;
Structure prediction by ZEFSAII (Michael W. Deem and Ramdas Pophale) SiO2 
 PCOD9257295
Probable space group: C 2/C
;
_chemical_formula_sum "Si O2"
_cell_formula_units_Z 60
_cell_length_a 23.833123
_cell_length_b 11.487346
_cell_length_c 13.775156
_cell_angle_alpha 90.000000
_cell_angle_beta 130.138498
_cell_angle_gamma 90.000000
_cell_volume 2883.155723
_symmetry_space_group_name_H-M "C 2/C"
_symmetry_group_IT_number 15
_symmetry_cell_setting 'monoclinic'
loop_
_space_group_symop_operation_xyz
x,y,z
-x,y,1/2-z
-x,-y,-z
x,-y,1/2+z
1/2+x,1/2+y,z
1/2-x,1/2+y,1/2-z
1/2-x,1/2-y,-z
1/2+x,1/2-y,1/2+z
loop_
_atom_site_type_symbol
_atom_site_label
_atom_site_fract_x
_atom_site_fract_y
_atom_site_fract_z
Si Si1 0.607981 0.966382 0.707941
Si Si2 0.247806 0.445644 0.977622
Si Si3 0.457632 0.258817 0.608539
Si Si4 0.713268 0.664603 0.381489
Si Si5 0.000000 0.526212 0.750000
Si Si6 0.914618 0.717834 0.884222
Si Si7 0.693824 0.773375 0.071762
Si Si8 0.324190 0.223782 0.352480
O O1 0.687450 0.001992 0.839922
O O2 0.625716 0.853834 0.663311
O O3 0.549810 0.954845 0.730857
O O4 0.581036 0.078295 0.619141
O O5 0.290284 0.345377 0.967922
O O6 0.299543 0.541329 0.082561
O O7 0.198686 0.378799 0.002743
O O8 0.500000 0.311107 0.750000
O O9 0.451743 0.121618 0.635100
O O10 0.509794 0.266746 0.573035
O O11 0.377450 0.295571 0.483473
O O12 0.750000 0.750000 0.500000
O O13 0.644173 0.727965 0.257023
O O14 0.773236 0.644144 0.363817
O O15 0.880488 0.740308 0.950928
O O16 0.763650 0.791519 0.221877
#
# Coordination Sequence:
#
# PCOD9257295 Si02
#       8
#     8   8   8   8   4   8   8   8
#     4  10  18  31  50  80 113 137 171 215 262 343
#     4  10  19  35  53  75 112 139 175 217 274 306
#     4   9  18  33  48  73 109 139 168 219 261 319
#     4  11  19  32  56  80 103 139 179 226 258 318
#     4   8  18  28  46  76 110 140 168 192 280 324
#     4  10  19  32  50  81 103 136 183 211 265 310
#     4   9  21  35  52  80 107 144 174 220 263 323
#     4  10  20  32  52  79 108 140 176 215 274 312
#
# _framework density 20.810528999999999
#
# number of rings (size 3 to 8) (size 9 to 14) (size 15 to 20)
#    0.400    1.867    1.333    2.400    0.000    3.200 
#    0.000    0.000    0.000    0.800    3.467    0.000 
#    0.000    0.000    0.000    0.000    0.000    0.000 
#
# Total GULP energy -167251.904420 kJ/mol
# GULP energy per Si atom -5575.063481 kJ/mol
# Density = 2.076316 g / cm^3
# Si number density = 20.810529 Si / 1000 Ang^3
#
#
#
# Elastic Constant Matrix: (Units=GPa)
#
#
# Indices 1 2 3 4 5 6 
#
# 1 107.5980 8.2498 10.6397 0.0000 -11.3360 0.0000
# 2 8.2498 34.9175 -0.4951 0.0000 -4.2208 0.0000
# 3 10.6397 -0.4951 51.9222 0.0000 -0.8996 0.0000
# 4 0.0000 0.0000 0.0000 11.6171 0.0000 -0.0279
# 5 -11.3360 -4.2208 -0.8996 0.0000 23.3943 0.0000
# 6 0.0000 0.0000 0.0000 -0.0279 0.0000 12.7487
#
#
#
# Elastic Compliance Matrix: (Units=1/GPa)
#
#
# Indices 1 2 3 4 5 6 
#
# 1 0.010109 -0.001875 -0.002012 0.000000 0.004483 0.000000
# 2 -0.001875 0.029632 0.000744 0.000000 0.004466 0.000000
# 3 -0.002012 0.000744 0.019677 0.000000 -0.000084 0.000000
# 4 0.000000 0.000000 0.000000 0.086081 0.000000 0.000188
# 5 0.004483 0.004466 -0.000084 0.000000 0.045720 0.000000
# 6 0.000000 0.000000 0.000000 0.000188 0.000000 0.078440
#
#
# Mechanical properties :
#
#
# Convention : Reuss Voigt Hill
#
# Bulk Modulus (GPa) = 18.82050 25.69186 22.25618
# Shear Modulus (GPa) = 17.02677 21.28825 19.15751
#
# Velocity S-wave (km/s) = 2.86349 3.20184 3.03738
# Velocity P-wave (km/s) = 4.47170 5.10308 4.79779
#
# Compressibility (1/GPa) = 0.05313354
#
# Stress axis : x y z
#
# Youngs Moduli (GPa) = 98.92358 33.74685 50.81961
#
# Poissons Ratio (x) = 0.06328 0.10223
# Poissons Ratio (y) = 0.18548 -0.03782
# Poissons Ratio (z) = 0.19900 -0.02511
#
# Static dielectric constant tensor:
#      x y z
#    x 1.776360 0.000000 -0.029580 
#    y 0.000000 1.711280 0.000000 
#    z -0.029580 0.000000 1.823400 
# 
# From -- ./inp_files/173178.got.cif
#   From: 2010.05.17/outbox.cif.g08.bks.cpg/sg15_87_cif.got.tgz:173178.got - 2010.06.03 18:47:42.
