data_PCOD9257924
_publ_section_title
;
Structure prediction by ZEFSAII (Michael W. Deem and Ramdas Pophale) SiO2 
 PCOD9257924
Probable space group: C 2/C
;
_chemical_formula_sum "Si O2"
_cell_formula_units_Z 48
_cell_length_a 16.904018
_cell_length_b 10.194688
_cell_length_c 26.351985
_cell_angle_alpha 90.000000
_cell_angle_beta 28.669757
_cell_angle_gamma 90.000000
_cell_volume 2178.721165
_symmetry_space_group_name_H-M "C 2/C"
_symmetry_group_IT_number 15
_symmetry_cell_setting 'monoclinic'
loop_
_space_group_symop_operation_xyz
x,y,z
-x,y,1/2-z
-x,-y,-z
x,-y,1/2+z
1/2+x,1/2+y,z
1/2-x,1/2+y,1/2-z
1/2-x,1/2-y,-z
1/2+x,1/2-y,1/2+z
loop_
_atom_site_type_symbol
_atom_site_label
_atom_site_fract_x
_atom_site_fract_y
_atom_site_fract_z
Si Si1 0.864190 0.048704 0.369435
Si Si2 0.565786 0.372110 0.993070
Si Si3 0.348756 0.706390 0.715931
Si Si4 0.832266 0.085024 0.241656
Si Si5 0.587515 0.866868 0.967440
Si Si6 0.156171 0.252479 0.606355
O O1 0.690300 0.120959 0.461546
O O2 0.000000 0.080336 0.250000
O O3 0.971408 0.073463 0.359497
O O4 0.824169 0.895062 0.383690
O O5 0.458679 0.335259 0.104107
O O6 0.532959 0.252645 0.973227
O O7 0.500000 0.500000 0.000000
O O8 0.753431 0.358619 0.908882
O O9 0.225614 0.822161 0.770683
O O10 0.271904 0.565525 0.772380
O O11 0.466638 0.757967 0.694943
O O12 0.735963 0.147641 0.343200
O O13 0.500000 0.000000 0.000000
O O14 0.250000 0.250000 0.500000
#
# Coordination Sequence:
#
# PCOD9257924 Si02
#       6
#     8   8   8   8   8   8
#     4   9  17  32  54  77  99 134 179 216 255 314
#     4  10  20  34  53  80 108 134 169 224 271 308
#     4   9  19  36  55  75 104 141 173 217 263 322
#     4   9  19  34  53  75 104 137 173 215 265 308
#     4  10  18  32  56  77 100 136 177 212 256 318
#     4   9  17  33  55  72 103 139 173 207 267 321
#
# _framework density 22.031272000000001
#
# number of rings (size 3 to 8) (size 9 to 14) (size 15 to 20)
#    0.000    2.667    1.667    0.000    0.000    1.333 
#    6.000    0.000    0.000    4.000    0.000    0.000 
#    0.000    0.000    0.000    0.000    0.000    0.000 
#
# Total GULP energy -133660.364369 kJ/mol
# GULP energy per Si atom -5569.181849 kJ/mol
# Density = 2.198113 g / cm^3
# Si number density = 22.031272 Si / 1000 Ang^3
#
#
#
# Elastic Constant Matrix: (Units=GPa)
#
#
# Indices 1 2 3 4 5 6 
#
# 1 144.7698 89.8838 30.0295 0.0001 -53.3876 0.0000
# 2 89.8838 122.9715 10.6460 0.0007 -36.3780 0.0000
# 3 30.0295 10.6460 42.5734 0.0014 4.2755 0.0005
# 4 0.0001 0.0007 0.0014 23.1744 0.0003 -6.3825
# 5 -53.3876 -36.3780 4.2755 0.0003 33.5626 -0.0001
# 6 0.0000 0.0000 0.0005 -6.3825 -0.0001 43.9704
#
#
#
# Elastic Compliance Matrix: (Units=1/GPa)
#
#
# Indices 1 2 3 4 5 6 
#
# 1 0.043248 -0.010330 -0.034143 0.000001 0.061947 0.000001
# 2 -0.010330 0.015290 0.003493 -0.000001 -0.000304 0.000000
# 3 -0.034143 0.003493 0.052443 -0.000003 -0.057206 -0.000001
# 4 0.000001 -0.000001 -0.000003 0.044948 0.000002 0.006524
# 5 0.061947 -0.000304 -0.057206 0.000002 0.135291 0.000001
# 6 0.000001 0.000000 -0.000001 0.006524 0.000001 0.023690
#
#
# Mechanical properties :
#
#
# Convention : Reuss Voigt Hill
#
# Bulk Modulus (GPa) = 34.45682 63.49258 48.97470
# Shear Modulus (GPa) = 12.29878 32.12518 22.21198
#
# Velocity S-wave (km/s) = 2.36528 3.82273 3.17866
# Velocity P-wave (km/s) = 4.80971 6.95458 5.97911
#
# Compressibility (1/GPa) = 0.02902183
#
# Stress axis : x y z
#
# Youngs Moduli (GPa) = 23.12240 65.40176 19.06815
#
# Poissons Ratio (x) = 0.67560 0.65105
# Poissons Ratio (y) = 0.23886 -0.06661
# Poissons Ratio (z) = 0.78948 -0.22848
#
# Static dielectric constant tensor:
#      x y z
#    x 1.962430 0.000000 0.005940 
#    y 0.000000 1.774270 0.000000 
#    z 0.005940 0.000000 1.898730 
# 
# From -- ./inp_files/208574.got.cif
#   From: 2010.05.17/outbox.cif.g08.bks.cpg/sg15_105_cif.got.tgz:208574.got - 2010.06.03 18:47:42.
