data_PCOD9257958
_publ_section_title
;
Structure prediction by ZEFSAII (Michael W. Deem and Ramdas Pophale) SiO2 
 PCOD9257958
Probable space group: C 2/C
;
_chemical_formula_sum "Si O2"
_cell_formula_units_Z 60
_cell_length_a 29.454695
_cell_length_b 9.053225
_cell_length_c 11.453597
_cell_angle_alpha 90.000000
_cell_angle_beta 71.743148
_cell_angle_gamma 90.000000
_cell_volume 2900.471824
_symmetry_space_group_name_H-M "C 2/C"
_symmetry_group_IT_number 15
_symmetry_cell_setting 'monoclinic'
loop_
_space_group_symop_operation_xyz
x,y,z
-x,y,1/2-z
-x,-y,-z
x,-y,1/2+z
1/2+x,1/2+y,z
1/2-x,1/2+y,1/2-z
1/2-x,1/2-y,-z
1/2+x,1/2-y,1/2+z
loop_
_atom_site_type_symbol
_atom_site_label
_atom_site_fract_x
_atom_site_fract_y
_atom_site_fract_z
Si Si1 0.433583 0.249615 0.677993
Si Si2 0.127947 0.014626 0.686939
Si Si3 0.629512 0.748807 0.883970
Si Si4 0.000000 0.715845 0.250000
Si Si5 0.368484 0.990762 0.303888
Si Si6 0.693617 0.746482 0.058309
Si Si7 0.098713 0.288092 0.556741
Si Si8 0.023850 0.838127 0.482288
O O1 0.415487 0.404267 0.744879
O O2 0.414609 0.116104 0.770497
O O3 0.406220 0.227600 0.576440
O O4 0.488723 0.249324 0.597083
O O5 0.142066 0.117294 0.784440
O O6 0.110743 0.127760 0.600814
O O7 0.171755 0.909158 0.618423
O O8 0.577987 0.695089 0.974397
O O9 0.626087 0.897358 0.808951
O O10 0.666948 0.770257 0.956390
O O11 0.048052 0.654987 0.150928
O O12 0.021382 0.794912 0.347649
O O13 0.324881 0.875849 0.340478
O O14 0.364681 0.094143 0.420925
O O15 0.750000 0.750000 0.000000
O O16 0.000000 0.000000 0.500000
#
# Coordination Sequence:
#
# PCOD9257958 Si02
#       8
#     8   8   8   4   8   8   8   8
#     4  10  20  34  57  87 125 162 192 230 292 352
#     4  10  20  39  62  90 117 154 200 252 303 356
#     4  11  22  41  62  91 124 160 200 251 305 362
#     4  10  18  32  56  84 124 160 192 228 282 348
#     4  10  22  42  58  86 123 159 197 250 300 357
#     4  11  26  44  63  87 116 156 211 266 313 360
#     4  10  19  36  58  86 122 160 192 236 287 357
#     4  11  20  34  58  92 126 161 198 237 288 363
#
# _framework density 20.68629
#
# number of rings (size 3 to 8) (size 9 to 14) (size 15 to 20)
#    0.000    1.600    4.000    1.600    1.867    1.600 
#    2.400    2.667    0.000    0.000    0.000    0.000 
#    0.000    0.000    0.000    0.000    0.000    0.000 
#
# Total GULP energy -167433.933065 kJ/mol
# GULP energy per Si atom -5581.131102 kJ/mol
# Density = 2.063921 g / cm^3
# Si number density = 20.686290 Si / 1000 Ang^3
#
#
#
# Elastic Constant Matrix: (Units=GPa)
#
#
# Indices 1 2 3 4 5 6 
#
# 1 116.3419 36.8953 25.2593 0.0000 -17.5600 0.0000
# 2 36.8953 131.1869 32.9620 0.0000 -8.5164 0.0000
# 3 25.2593 32.9620 47.9820 0.0000 -4.1233 0.0000
# 4 0.0000 0.0000 0.0000 23.2067 0.0000 0.3069
# 5 -17.5600 -8.5164 -4.1233 0.0000 35.8431 0.0000
# 6 0.0000 0.0000 0.0000 0.3069 0.0000 10.5620
#
#
#
# Elastic Compliance Matrix: (Units=1/GPa)
#
#
# Indices 1 2 3 4 5 6 
#
# 1 0.010677 -0.001694 -0.004082 0.000000 0.004359 0.000000
# 2 -0.001694 0.009560 -0.005607 0.000000 0.000796 0.000000
# 3 -0.004082 -0.005607 0.026821 0.000000 -0.000247 0.000000
# 4 0.000000 0.000000 0.000000 0.043108 0.000000 -0.001253
# 5 0.004359 0.000796 -0.000247 0.000000 0.030196 0.000000
# 6 0.000000 0.000000 0.000000 -0.001253 0.000000 0.094716
#
#
# Mechanical properties :
#
#
# Convention : Reuss Voigt Hill
#
# Bulk Modulus (GPa) = 41.16812 53.97153 47.56983
# Shear Modulus (GPa) = 20.33023 27.28197 23.80610
#
# Velocity S-wave (km/s) = 3.13835 3.63553 3.39605
# Velocity P-wave (km/s) = 5.75123 6.61588 6.19865
#
# Compressibility (1/GPa) = 0.02429064
#
# Stress axis : x y z
#
# Youngs Moduli (GPa) = 93.66135 104.60634 37.28465
#
# Poissons Ratio (x) = 0.17721 0.15221
# Poissons Ratio (y) = 0.15867 0.20905
# Poissons Ratio (z) = 0.38235 0.58651
#
# Static dielectric constant tensor:
#      x y z
#    x 1.739850 0.000000 0.006670 
#    y 0.000000 1.795710 0.000000 
#    z 0.006670 0.000000 1.781910 
# 
# From -- ./inp_files/125896.got.cif
#   From: 2010.05.17/outbox.cif.g08.bks.cpg/sg15_63_cif.got.tgz:125896.got - 2010.06.03 18:47:42.
