data_PCOD9257306
_publ_section_title
;
Structure prediction by ZEFSAII (Michael W. Deem and Ramdas Pophale) SiO2 
 PCOD9257306
Probable space group: C 2/C
;
_chemical_formula_sum "Si O2"
_cell_formula_units_Z 48
_cell_length_a 15.059763
_cell_length_b 18.361079
_cell_length_c 8.509909
_cell_angle_alpha 90.000000
_cell_angle_beta 89.999938
_cell_angle_gamma 90.000000
_cell_volume 2353.104707
_symmetry_space_group_name_H-M "C 2/C"
_symmetry_group_IT_number 15
_symmetry_cell_setting 'monoclinic'
loop_
_space_group_symop_operation_xyz
x,y,z
-x,y,1/2-z
-x,-y,-z
x,-y,1/2+z
1/2+x,1/2+y,z
1/2-x,1/2+y,1/2-z
1/2-x,1/2-y,-z
1/2+x,1/2-y,1/2+z
loop_
_atom_site_type_symbol
_atom_site_label
_atom_site_fract_x
_atom_site_fract_y
_atom_site_fract_z
Si Si1 0.846470 0.226062 0.437587
Si Si2 0.096291 0.373620 0.937642
Si Si3 0.403709 0.873620 0.937642
Si Si4 0.711589 0.420898 0.063221
Si Si5 0.653530 0.726062 0.437587
Si Si6 0.211589 0.079102 0.936779
O O1 0.750000 0.250000 0.500000
O O2 0.905392 0.288161 0.516411
O O3 0.852240 0.231572 0.250000
O O4 0.850099 0.142357 0.489870
O O5 0.106018 0.380631 0.750000
O O6 1.000000 0.405158 0.984929
O O7 0.184914 0.406500 0.015140
O O8 0.315085 0.906500 0.015140
O O9 0.405392 0.788161 0.983588
O O10 0.705837 0.417084 0.250000
O O11 0.649901 0.357643 0.989870
O O12 0.686950 0.500000 1.000000
O O13 0.750000 0.750000 0.500000
#
# Coordination Sequence:
#
# PCOD9257306 Si02
#       6
#     8   8   8   8   8   8
#     4  10  18  31  51  73  98 129 168 207 245 291
#     4  10  20  34  52  75 103 134 168 205 247 295
#     4  10  20  34  52  75 103 134 168 205 247 295
#     4  11  21  34  52  74 102 133 168 207 250 298
#     4  10  18  31  51  73  98 129 168 207 245 291
#     4  11  21  34  52  74 102 133 168 207 250 298
#
# _framework density 20.398582999999999
#
# number of rings (size 3 to 8) (size 9 to 14) (size 15 to 20)
#    0.000    1.667    0.000   11.000    0.000    3.333 
#    0.000    0.000    0.000    1.000    0.000    0.000 
#    0.000    0.000    0.000    0.000    0.000    0.000 
#
# Total GULP energy -133921.330442 kJ/mol
# GULP energy per Si atom -5580.055435 kJ/mol
# Density = 2.035216 g / cm^3
# Si number density = 20.398583 Si / 1000 Ang^3
#
#
#
# Elastic Constant Matrix: (Units=GPa)
#
#
# Indices 1 2 3 4 5 6 
#
# 1 19.9716 -23.6370 -11.9484 0.0000 0.0001 0.0000
# 2 -23.6370 101.2755 -13.1219 0.0000 0.0000 0.0000
# 3 -11.9484 -13.1219 83.2664 0.0000 0.0000 0.0000
# 4 0.0000 0.0000 0.0000 36.0696 0.0000 0.0000
# 5 0.0001 0.0000 0.0000 0.0000 9.7746 0.0000
# 6 0.0000 0.0000 0.0000 0.0000 0.0000 6.8865
#
#
#
# Elastic Compliance Matrix: (Units=1/GPa)
#
#
# Indices 1 2 3 4 5 6 
#
# 1 0.085526 0.022000 0.015740 0.000000 -0.000001 0.000000
# 2 0.022000 0.015739 0.005637 0.000000 0.000000 0.000000
# 3 0.015740 0.005637 0.015157 0.000000 0.000000 0.000000
# 4 0.000000 0.000000 0.000000 0.027724 0.000000 0.000000
# 5 -0.000001 0.000000 0.000000 0.000000 0.102306 0.000000
# 6 0.000000 0.000000 0.000000 0.000000 0.000000 0.145212
#
#
# Mechanical properties :
#
#
# Convention : Reuss Voigt Hill
#
# Bulk Modulus (GPa) = 4.92184 11.89989 8.41087
# Shear Modulus (GPa) = 13.41797 27.42751 20.42274
#
# Velocity S-wave (km/s) = 2.56752 3.67083 3.16758
# Velocity P-wave (km/s) = 3.34778 4.87986 4.18453
#
# Compressibility (1/GPa) = 0.20317605
#
# Stress axis : x y z
#
# Youngs Moduli (GPa) = 11.69240 63.53566 65.97787
#
# Poissons Ratio (x) = -1.39781 -1.03847
# Poissons Ratio (y) = -0.25724 -0.37194
# Poissons Ratio (z) = -0.18403 -0.35817
#
# Static dielectric constant tensor:
#      x y z
#    x 1.716480 0.000000 0.000000 
#    y 0.000000 1.792090 0.000000 
#    z 0.000000 0.000000 1.671550 
# 
# From -- ./inp_files/48025.got.cif
#   From: 2010.05.17/outbox.cif.g08.bks.cpg/sg15_25_cif.got.tgz:48025.got - 2010.06.03 18:47:42.
