data_PCOD9257626
_publ_section_title
;
Structure prediction by ZEFSAII (Michael W. Deem and Ramdas Pophale) SiO2 
 PCOD9257626
Probable space group: C 2/C
;
_chemical_formula_sum "Si O2"
_cell_formula_units_Z 56
_cell_length_a 15.017731
_cell_length_b 24.006676
_cell_length_c 5.888553
_cell_angle_alpha 90.000000
_cell_angle_beta 91.591616
_cell_angle_gamma 90.000000
_cell_volume 2122.156230
_symmetry_space_group_name_H-M "C 2/C"
_symmetry_group_IT_number 15
_symmetry_cell_setting 'monoclinic'
loop_
_space_group_symop_operation_xyz
x,y,z
-x,y,1/2-z
-x,-y,-z
x,-y,1/2+z
1/2+x,1/2+y,z
1/2-x,1/2+y,1/2-z
1/2-x,1/2-y,-z
1/2+x,1/2-y,1/2+z
loop_
_atom_site_type_symbol
_atom_site_label
_atom_site_fract_x
_atom_site_fract_y
_atom_site_fract_z
Si Si1 0.808006 0.778524 0.269814
Si Si2 0.195157 0.120162 0.072940
Si Si3 0.075132 0.841591 0.936673
Si Si4 0.875851 0.336963 0.617255
Si Si5 0.633687 0.845696 0.384510
Si Si6 0.408866 0.551024 0.772338
Si Si7 0.712385 0.971988 0.400577
O O1 0.895955 0.786830 0.430354
O O2 0.819855 0.720798 0.141071
O O3 0.714685 0.798623 0.380623
O O4 0.822443 0.829396 0.098341
O O5 0.162756 0.139280 0.311515
O O6 0.300733 0.114250 0.095547
O O7 0.134692 0.072172 0.966370
O O8 0.000000 0.830580 0.750000
O O9 0.056002 0.895249 0.085101
O O10 0.913357 0.336971 0.363995
O O11 0.915525 0.342132 0.874190
O O12 0.674196 0.908695 0.386229
O O13 0.500000 0.515811 0.750000
O O14 0.320382 0.531886 0.898476
O O15 0.688615 0.998518 0.650527
#
# Coordination Sequence:
#
# PCOD9257626 Si02
#       7
#     8   8   8   8   8   8   8
#     4  10  21  30  52  80  98 125 169 217 263 314
#     4  10  18  32  50  70 101 126 171 215 270 308
#     4  11  20  31  53  71 102 141 175 212 267 319
#     4  11  20  33  57  80 100 123 162 226 268 311
#     4  11  20  36  53  74 102 127 162 220 265 316
#     4  11  22  36  51  69  92 135 186 239 276 307
#     4  12  26  39  56  73  99 137 183 230 282 316
#
# _framework density 26.388255999999998
#
# number of rings (size 3 to 8) (size 9 to 14) (size 15 to 20)
#    0.000    1.143    7.143    3.000    4.000    0.571 
#    0.000    0.000    0.000    0.000    0.000    0.000 
#    0.000    0.000    0.000    0.000    0.000   14.286 
#
# Total GULP energy -156200.272239 kJ/mol
# GULP energy per Si atom -5578.581151 kJ/mol
# Density = 2.632819 g / cm^3
# Si number density = 26.388256 Si / 1000 Ang^3
#
#
#
# Elastic Constant Matrix: (Units=GPa)
#
#
# Indices 1 2 3 4 5 6 
#
# 1 38.7136 12.8820 55.6421 0.0000 0.4249 0.0000
# 2 12.8820 118.7224 44.2057 0.0000 12.4651 0.0000
# 3 55.6421 44.2057 224.0596 0.0000 4.8544 0.0000
# 4 0.0000 0.0000 0.0000 48.3287 0.0000 3.2780
# 5 0.4249 12.4651 4.8544 0.0000 62.5929 0.0000
# 6 0.0000 0.0000 0.0000 3.2780 0.0000 0.8393
#
#
#
# Elastic Compliance Matrix: (Units=1/GPa)
#
#
# Indices 1 2 3 4 5 6 
#
# 1 0.040246 -0.000764 -0.009858 0.000000 0.000643 0.000000
# 2 -0.000764 0.009284 -0.001605 0.000000 -0.001719 0.000000
# 3 -0.009858 -0.001605 0.007232 0.000000 -0.000174 0.000000
# 4 0.000000 0.000000 0.000000 0.028148 0.000000 -0.109936
# 5 0.000643 -0.001719 -0.000174 0.000000 0.016328 0.000000
# 6 0.000000 0.000000 0.000000 -0.109936 0.000000 1.620824
#
#
# Mechanical properties :
#
#
# Convention : Reuss Voigt Hill
#
# Bulk Modulus (GPa) = 30.95137 67.43947 49.19542
# Shear Modulus (GPa) = 2.84530 40.26990 21.55760
#
# Velocity S-wave (km/s) = 1.03951 3.91071 2.86132
# Velocity P-wave (km/s) = 3.63256 6.78260 5.44055
#
# Compressibility (1/GPa) = 0.03230875
#
# Stress axis : x y z
#
# Youngs Moduli (GPa) = 24.84698 107.71324 138.28327
#
# Poissons Ratio (x) = 0.08229 1.36317
# Poissons Ratio (y) = 0.01898 0.22190
# Poissons Ratio (z) = 0.24494 0.17285
#
# Static dielectric constant tensor:
#      x y z
#    x 2.140110 0.000000 -0.015140 
#    y 0.000000 2.090050 0.000000 
#    z -0.015140 0.000000 2.192300 
# 
# From -- ./inp_files/16057.got.cif
#   From: 2010.05.17/outbox.cif.g08.bks.cpg/sg15_9_cif.got.tgz:16057.got - 2010.06.03 18:47:42.
