data_PCOD9257520
_publ_section_title
;
Structure prediction by ZEFSAII (Michael W. Deem and Ramdas Pophale) SiO2 
 PCOD9257520
Probable space group: C 2/C
;
_chemical_formula_sum "Si O2"
_cell_formula_units_Z 48
_cell_length_a 21.623692
_cell_length_b 18.351227
_cell_length_c 5.475895
_cell_angle_alpha 90.000000
_cell_angle_beta 99.737326
_cell_angle_gamma 90.000000
_cell_volume 2141.647028
_symmetry_space_group_name_H-M "C 2/C"
_symmetry_group_IT_number 15
_symmetry_cell_setting 'monoclinic'
loop_
_space_group_symop_operation_xyz
x,y,z
-x,y,1/2-z
-x,-y,-z
x,-y,1/2+z
1/2+x,1/2+y,z
1/2-x,1/2+y,1/2-z
1/2-x,1/2-y,-z
1/2+x,1/2-y,1/2+z
loop_
_atom_site_type_symbol
_atom_site_label
_atom_site_fract_x
_atom_site_fract_y
_atom_site_fract_z
Si Si1 0.387511 0.773326 0.419148
Si Si2 0.500000 0.165627 0.250000
Si Si3 0.323973 0.324308 0.577656
Si Si4 0.231449 0.957896 0.201382
Si Si5 0.699677 0.179398 0.255166
Si Si6 0.630617 0.918563 0.377604
Si Si7 0.000000 0.572309 0.750000
O O1 0.439803 0.783192 0.660428
O O2 0.385235 0.697327 0.274605
O O3 0.320242 0.790545 0.498166
O O4 0.395047 0.842101 0.247764
O O5 0.493966 0.116569 0.488750
O O6 0.312433 0.387510 0.375358
O O7 0.312232 0.247744 0.432325
O O8 0.270115 0.341956 0.740766
O O9 0.219284 0.008401 0.957020
O O10 0.306574 0.940561 0.227391
O O11 0.657622 0.108773 0.156376
O O12 0.568498 0.967294 0.301596
#
# Coordination Sequence:
#
# PCOD9257520 Si02
#       7
#     8   4   8   8   8   8   4
#     4  10  18  31  57  82 114 140 170 219 274 342
#     4  10  20  30  52  87 120 139 168 208 280 332
#     4   9  20  32  52  80 104 142 179 220 283 320
#     4  11  26  40  54  75 107 146 191 236 265 309
#     4   9  16  31  53  81 108 135 171 224 271 343
#     4   9  20  34  53  79 108 147 181 218 274 315
#     4  10  18  34  52  79 110 147 178 216 262 328
#
# _framework density 22.412656999999999
#
# number of rings (size 3 to 8) (size 9 to 14) (size 15 to 20)
#    0.000    2.333    1.667    1.500    7.000    0.000 
#    0.000    0.833    0.000    0.000    0.000    1.167 
#    0.000    0.000    0.000    0.000    0.000    0.000 
#
# Total GULP energy -133744.684798 kJ/mol
# GULP energy per Si atom -5572.695200 kJ/mol
# Density = 2.236164 g / cm^3
# Si number density = 22.412657 Si / 1000 Ang^3
#
#
#
# Elastic Constant Matrix: (Units=GPa)
#
#
# Indices 1 2 3 4 5 6 
#
# 1 29.4370 19.9323 25.5766 0.0000 1.5925 0.0000
# 2 19.9323 79.9506 45.3226 0.0000 16.6873 0.0000
# 3 25.5766 45.3226 125.6612 0.0000 6.0894 0.0000
# 4 0.0000 0.0000 0.0000 48.6682 0.0000 -1.3240
# 5 1.5925 16.6873 6.0894 0.0000 31.3458 0.0000
# 6 0.0000 0.0000 0.0000 -1.3240 0.0000 14.6910
#
#
#
# Elastic Compliance Matrix: (Units=1/GPa)
#
#
# Indices 1 2 3 4 5 6 
#
# 1 0.044900 -0.008328 -0.006299 0.000000 0.003376 0.000000
# 2 -0.008328 0.019138 -0.004779 0.000000 -0.008837 0.000000
# 3 -0.006299 -0.004779 0.010928 0.000000 0.000741 0.000000
# 4 0.000000 0.000000 0.000000 0.020598 0.000000 0.001856
# 5 0.003376 -0.008837 0.000741 0.000000 0.036291 0.000000
# 6 0.000000 0.000000 0.000000 0.001856 0.000000 0.068236
#
#
# Mechanical properties :
#
#
# Convention : Reuss Voigt Hill
#
# Bulk Modulus (GPa) = 27.65977 46.30131 36.98054
# Shear Modulus (GPa) = 19.92408 28.55549 24.23978
#
# Velocity S-wave (km/s) = 2.98479 3.57330 3.29222
# Velocity P-wave (km/s) = 4.92408 6.14231 5.56662
#
# Compressibility (1/GPa) = 0.03615358
#
# Stress axis : x y z
#
# Youngs Moduli (GPa) = 22.27182 52.25332 91.51061
#
# Poissons Ratio (x) = 0.43516 0.57640
# Poissons Ratio (y) = 0.18548 0.43734
# Poissons Ratio (z) = 0.14028 0.24973
#
# Static dielectric constant tensor:
#      x y z
#    x 1.955170 0.000000 0.024830 
#    y 0.000000 1.905840 0.000000 
#    z 0.024830 0.000000 1.881200 
# 
# From -- ./inp_files/15360.got.cif
#   From: 2010.05.17/outbox.cif.g08.bks.cpg/sg15_8_cif.got.tgz:15360.got - 2010.06.03 18:47:42.
