data_PCOD9257640
_publ_section_title
;
Structure prediction by ZEFSAII (Michael W. Deem and Ramdas Pophale) SiO2 
 PCOD9257640
Probable space group: C 2/C
;
_chemical_formula_sum "Si O2"
_cell_formula_units_Z 44
_cell_length_a 25.421563
_cell_length_b 13.409438
_cell_length_c 5.262331
_cell_angle_alpha 90.000000
_cell_angle_beta 76.687771
_cell_angle_gamma 90.000000
_cell_volume 1745.668345
_symmetry_space_group_name_H-M "C 2/C"
_symmetry_group_IT_number 15
_symmetry_cell_setting 'monoclinic'
loop_
_space_group_symop_operation_xyz
x,y,z
-x,y,1/2-z
-x,-y,-z
x,-y,1/2+z
1/2+x,1/2+y,z
1/2-x,1/2+y,1/2-z
1/2-x,1/2-y,-z
1/2+x,1/2-y,1/2+z
loop_
_atom_site_type_symbol
_atom_site_label
_atom_site_fract_x
_atom_site_fract_y
_atom_site_fract_z
Si Si1 0.775878 0.857989 0.776702
Si Si2 0.000000 0.069489 0.250000
Si Si3 0.609319 0.109129 0.181737
Si Si4 0.228712 0.625711 0.825997
Si Si5 0.436533 0.117569 0.763383
Si Si6 0.615707 0.568612 0.135401
O O1 0.763867 0.743380 0.733584
O O2 0.772202 0.902718 0.496049
O O3 0.832889 0.865354 0.854797
O O4 0.734512 0.907706 0.025253
O O5 0.057514 0.876557 0.701303
O O6 0.000000 0.000000 0.500000
O O7 0.598832 0.158629 0.464779
O O8 0.584428 0.997780 0.242215
O O9 0.670626 0.107095 0.017376
O O10 0.576071 0.162780 0.996316
O O11 0.500000 0.118038 0.750000
O O12 0.617705 0.487101 0.362326
#
# Coordination Sequence:
#
# PCOD9257640 Si02
#       6
#     8   4   8   8   8   8
#     4  10  21  38  54  76 110 148 188 217 280 332
#     4   8  16  30  54  78 108 132 164 208 280 334
#     4  10  18  32  50  76 102 139 186 219 260 315
#     4  10  21  37  55  74 109 157 183 223 266 332
#     4  10  19  33  53  80 108 144 177 219 275 318
#     4  10  19  35  55  87 108 139 176 233 281 331
#
# _framework density 25.205247
#
# number of rings (size 3 to 8) (size 9 to 14) (size 15 to 20)
#    0.000    2.182    0.000    4.909    0.000    0.000 
#   19.636    0.000    2.000    0.000   28.364    0.000 
#    0.000    0.000    0.000    0.000    0.000    0.000 
#
# Total GULP energy -122819.577866 kJ/mol
# GULP energy per Si atom -5582.708085 kJ/mol
# Density = 2.514788 g / cm^3
# Si number density = 25.205247 Si / 1000 Ang^3
#
#
#
# Elastic Constant Matrix: (Units=GPa)
#
#
# Indices 1 2 3 4 5 6 
#
# 1 122.8669 -10.6009 38.4082 0.0000 -6.1784 0.0000
# 2 -10.6009 56.8788 12.3461 0.0000 -1.9441 0.0000
# 3 38.4082 12.3461 141.0457 0.0000 5.9692 0.0000
# 4 0.0000 0.0000 0.0000 -1.6731 0.0000 6.4452
# 5 -6.1784 -1.9441 5.9692 0.0000 41.0040 0.0000
# 6 0.0000 0.0000 0.0000 6.4452 0.0000 87.2212
#
#
#
# Elastic Compliance Matrix: (Units=1/GPa)
#
#
# Indices 1 2 3 4 5 6 
#
# 1 0.009331 0.002420 -0.002835 0.000000 0.001933 0.000000
# 2 0.002420 0.018598 -0.002354 0.000000 0.001589 0.000000
# 3 -0.002835 -0.002354 0.008141 0.000000 -0.001724 0.000000
# 4 0.000000 0.000000 0.000000 -0.465254 0.000000 0.034380
# 5 0.001933 0.001589 -0.001724 0.000000 0.025005 0.000000
# 6 0.000000 0.000000 0.000000 0.034380 0.000000 0.008925
#
#
# Mechanical properties :
#
#
# Convention : Reuss Voigt Hill
#
# Bulk Modulus (GPa) = 32.75180 44.56647 38.65913
# Shear Modulus (GPa) = -13.17384 44.01961 15.42288
#
# Velocity S-wave (km/s) = -2.28866 4.18358 2.47633
# Velocity P-wave (km/s) = 2.45729 6.40752 4.85256
#
# Compressibility (1/GPa) = 0.03053267
#
# Stress axis : x y z
#
# Youngs Moduli (GPa) = 107.16898 53.77011 122.83751
#
# Poissons Ratio (x) = -0.13015 0.34820
# Poissons Ratio (y) = -0.25940 0.28919
# Poissons Ratio (z) = 0.30379 0.12659
#
# Static dielectric constant tensor:
#      x y z
#    x 2.008120 0.000000 -0.003220 
#    y 0.000000 1.410300 0.000000 
#    z -0.003220 0.000000 2.083780 
# 
# From -- ./inp_files/15102.got.cif
#   From: 2010.05.17/outbox.cif.g08.bks.cpg/sg15_8_cif.got.tgz:15102.got - 2010.06.03 18:47:42.
