data_PCOD9257745
_publ_section_title
;
Structure prediction by ZEFSAII (Michael W. Deem and Ramdas Pophale) SiO2 
 PCOD9257745
Probable space group: C 2/C
;
_chemical_formula_sum "Si O2"
_cell_formula_units_Z 56
_cell_length_a 21.806217
_cell_length_b 11.238606
_cell_length_c 17.516737
_cell_angle_alpha 90.000000
_cell_angle_beta 46.957991
_cell_angle_gamma 90.000000
_cell_volume 3137.446267
_symmetry_space_group_name_H-M "C 2/C"
_symmetry_group_IT_number 15
_symmetry_cell_setting 'monoclinic'
loop_
_space_group_symop_operation_xyz
x,y,z
-x,y,1/2-z
-x,-y,-z
x,-y,1/2+z
1/2+x,1/2+y,z
1/2-x,1/2+y,1/2-z
1/2-x,1/2-y,-z
1/2+x,1/2-y,1/2+z
loop_
_atom_site_type_symbol
_atom_site_label
_atom_site_fract_x
_atom_site_fract_y
_atom_site_fract_z
Si Si1 0.410848 0.239988 0.134009
Si Si2 0.040352 0.951709 0.296892
Si Si3 0.191310 0.509207 0.257476
Si Si4 0.454185 0.320278 0.870326
Si Si5 0.061120 0.301046 0.399582
Si Si6 0.180472 0.888496 0.732883
Si Si7 0.204929 0.821636 0.411126
O O1 0.437920 0.340125 0.170276
O O2 0.355720 0.133920 0.217174
O O3 0.355306 0.296772 0.112015
O O4 0.497421 0.192605 0.023817
O O5 0.125819 0.029391 0.223770
O O6 0.000000 0.918660 0.250000
O O7 0.976240 0.049210 0.386600
O O8 0.121223 0.413455 0.341317
O O9 0.253970 0.535188 0.274404
O O10 0.246032 0.444916 0.145205
O O11 0.500000 0.320124 0.750000
O O12 0.499992 0.217395 0.878998
O O13 0.355277 0.311115 0.964924
O O14 0.119893 0.183148 0.343746
O O15 0.228250 0.784547 0.647852
#
# Coordination Sequence:
#
# PCOD9257745 Si02
#       7
#     8   8   8   8   8   8   8
#     4  10  19  32  55  79 109 144 179 224 263 325
#     4  10  20  35  52  75 111 147 180 212 260 332
#     4  10  18  32  52  84 109 132 176 239 272 304
#     4   9  19  35  55  76 108 142 180 223 268 330
#     4   9  19  32  53  80 104 140 186 219 268 321
#     4   9  18  32  53  80 108 133 180 230 271 308
#     4   9  18  32  57  85 101 135 181 230 280 308
#
# _framework density 17.848911000000001
#
# number of rings (size 3 to 8) (size 9 to 14) (size 15 to 20)
#    0.000    2.571    1.429    0.429    2.000    1.714 
#    0.000   12.143    0.000   10.286    0.000    0.000 
#    0.000    0.000    0.000    0.000    0.000    0.000 
#
# Total GULP energy -155881.556404 kJ/mol
# GULP energy per Si atom -5567.198443 kJ/mol
# Density = 1.780829 g / cm^3
# Si number density = 17.848911 Si / 1000 Ang^3
#
#
#
# Elastic Constant Matrix: (Units=GPa)
#
#
# Indices 1 2 3 4 5 6 
#
# 1 62.0859 21.1214 21.6750 0.0000 -4.6201 0.0000
# 2 21.1214 58.2762 29.8629 0.0000 -0.7231 0.0000
# 3 21.6750 29.8629 104.4231 0.0000 -20.9160 0.0000
# 4 0.0000 0.0000 0.0000 9.6654 0.0000 -12.2879
# 5 -4.6201 -0.7231 -20.9160 0.0000 23.9064 0.0000
# 6 0.0000 0.0000 0.0000 -12.2879 0.0000 28.0193
#
#
#
# Elastic Compliance Matrix: (Units=1/GPa)
#
#
# Indices 1 2 3 4 5 6 
#
# 1 0.018893 -0.005862 -0.001879 0.000000 0.001830 0.000000
# 2 -0.005862 0.022509 -0.006439 0.000000 -0.006086 0.000000
# 3 -0.001879 -0.006439 0.014181 0.000000 0.011850 0.000000
# 4 0.000000 0.000000 0.000000 0.233833 0.000000 0.102547
# 5 0.001830 -0.006086 0.011850 0.000000 0.052367 0.000000
# 6 0.000000 0.000000 0.000000 0.102547 0.000000 0.080662
#
#
# Mechanical properties :
#
#
# Convention : Reuss Voigt Hill
#
# Bulk Modulus (GPa) = 36.73348 41.12264 38.92806
# Shear Modulus (GPa) = 10.87244 22.45995 16.66619
#
# Velocity S-wave (km/s) = 2.47075 3.55115 3.05903
# Velocity P-wave (km/s) = 5.36324 6.31693 5.85952
#
# Compressibility (1/GPa) = 0.02722312
#
# Stress axis : x y z
#
# Youngs Moduli (GPa) = 52.92949 44.42765 70.51540
#
# Poissons Ratio (x) = 0.26044 0.13246
# Poissons Ratio (y) = 0.31028 0.45406
# Poissons Ratio (z) = 0.09943 0.28608
#
# Static dielectric constant tensor:
#      x y z
#    x 1.636230 0.000000 -0.016140 
#    y 0.000000 1.613580 0.000000 
#    z -0.016140 0.000000 1.636420 
# 
# From -- ./inp_files/214774.got.cif
#   From: 2010.05.17/outbox.cif.g08.bks.cpg/sg15_108_cif.got.tgz:214774.got - 2010.06.03 18:47:42.
