data_PCOD9257893
_publ_section_title
;
Structure prediction by ZEFSAII (Michael W. Deem and Ramdas Pophale) SiO2 
 PCOD9257893
Probable space group: C 2/C
;
_chemical_formula_sum "Si O2"
_cell_formula_units_Z 60
_cell_length_a 26.451274
_cell_length_b 22.615086
_cell_length_c 13.826022
_cell_angle_alpha 90.000000
_cell_angle_beta 21.724669
_cell_angle_gamma 90.000000
_cell_volume 3061.371541
_symmetry_space_group_name_H-M "C 2/C"
_symmetry_group_IT_number 15
_symmetry_cell_setting 'monoclinic'
loop_
_space_group_symop_operation_xyz
x,y,z
-x,y,1/2-z
-x,-y,-z
x,-y,1/2+z
1/2+x,1/2+y,z
1/2-x,1/2+y,1/2-z
1/2-x,1/2-y,-z
1/2+x,1/2-y,1/2+z
loop_
_atom_site_type_symbol
_atom_site_label
_atom_site_fract_x
_atom_site_fract_y
_atom_site_fract_z
Si Si1 0.265473 0.018176 0.408480
Si Si2 0.000000 0.811871 0.750000
Si Si3 0.909619 0.642786 0.594290
Si Si4 0.399881 0.250679 0.282496
Si Si5 0.408382 0.622707 0.698772
Si Si6 0.252726 0.314535 0.298362
Si Si7 0.989231 0.518749 0.154006
Si Si8 0.647629 0.397880 0.639042
O O1 0.178649 0.076635 0.583601
O O2 0.343955 0.999489 0.368636
O O3 0.169878 0.962470 0.554254
O O4 0.386111 0.018756 0.114189
O O5 0.121347 0.780435 0.476539
O O6 0.068229 0.853949 0.708463
O O7 0.820086 0.648513 0.655548
O O8 0.996764 0.584451 0.417709
O O9 0.000617 0.701553 0.440973
O O10 0.799680 0.630724 0.874221
O O11 0.250000 0.250000 0.500000
O O12 0.447826 0.317297 0.184662
O O13 0.360084 0.228892 0.459184
O O14 0.313266 0.644250 0.776436
O O15 0.548756 0.596657 0.406534
O O16 0.000000 0.520138 0.250000
#
# Coordination Sequence:
#
# PCOD9257893 Si02
#       8
#     8   4   8   8   8   8   8   8
#     4  10  20  33  54  79 108 142 180 220 269 334
#     4   8  16  32  54  80 102 122 176 232 268 298
#     4  10  18  32  55  81  99 128 180 235 270 304
#     4  10  19  29  49  74 102 132 163 211 268 320
#     4  10  19  33  50  76 108 140 171 212 271 335
#     4   9  17  31  54  76 100 128 174 225 264 302
#     4  10  19  33  56  81 104 135 184 236 271 306
#     4   9  19  33  54  79 103 137 178 226 272 315
#
# _framework density 19.599057999999999
#
# number of rings (size 3 to 8) (size 9 to 14) (size 15 to 20)
#    0.000    2.400    0.000    4.000    0.000    1.600 
#    0.000    0.000   10.267    0.000    0.000    0.000 
#    0.000    0.000    0.000    0.000    0.000    0.000 
#
# Total GULP energy -167027.835792 kJ/mol
# GULP energy per Si atom -5567.594526 kJ/mol
# Density = 1.955445 g / cm^3
# Si number density = 19.599058 Si / 1000 Ang^3
#
#
#
# Elastic Constant Matrix: (Units=GPa)
#
#
# Indices 1 2 3 4 5 6 
#
# 1 22.4518 10.3143 16.7606 -0.0011 2.2641 0.0008
# 2 10.3143 82.1570 56.2587 -0.0039 5.8163 0.0026
# 3 16.7606 56.2587 122.6486 -0.0077 7.3324 0.0051
# 4 -0.0011 -0.0039 -0.0077 -21.8688 0.0034 27.4876
# 5 2.2641 5.8163 7.3324 0.0034 17.4086 -0.0022
# 6 0.0008 0.0026 0.0051 27.4876 -0.0022 -19.5336
#
#
#
# Elastic Compliance Matrix: (Units=1/GPa)
#
#
# Indices 1 2 3 4 5 6 
#
# 1 0.050098 -0.002186 -0.005639 0.000000 -0.003410 0.000000
# 2 -0.002186 0.017954 -0.007791 0.000000 -0.002433 0.000001
# 3 -0.005639 -0.007791 0.012616 0.000000 -0.001977 0.000003
# 4 0.000000 0.000000 0.000000 0.059482 -0.000001 0.083704
# 5 -0.003410 -0.002433 -0.001977 -0.000001 0.059532 -0.000009
# 6 0.000000 0.000001 0.000003 0.083704 -0.000009 0.066594
#
#
# Mechanical properties :
#
#
# Convention : Reuss Voigt Hill
#
# Bulk Modulus (GPa) = 20.22908 43.76938 31.99923
# Shear Modulus (GPa) = 15.92423 4.79619 10.36021
#
# Velocity S-wave (km/s) = 2.85353 1.56604 2.30164
# Velocity P-wave (km/s) = 4.60442 5.06466 4.84002
#
# Compressibility (1/GPa) = 0.04943378
#
# Stress axis : x y z
#
# Youngs Moduli (GPa) = 19.96091 55.69915 79.26445
#
# Poissons Ratio (x) = 0.12178 0.44701
# Poissons Ratio (y) = 0.04364 0.61756
# Poissons Ratio (z) = 0.11257 0.43396
#
# Static dielectric constant tensor:
#      x y z
#    x 1.239740 -0.000010 -0.043610 
#    y -0.000010 1.699630 0.000000 
#    z -0.043610 0.000000 1.767660 
# 
# From -- ./inp_files/183193.got.cif
#   From: 2010.05.17/outbox.cif.g08.bks.cpg/sg15_92_cif.got.tgz:183193.got - 2010.06.03 18:47:42.
