data_PCOD9257261
_publ_section_title
;
Structure prediction by ZEFSAII (Michael W. Deem and Ramdas Pophale) SiO2 
 PCOD9257261
Probable space group: C 2/C
;
_chemical_formula_sum "Si O2"
_cell_formula_units_Z 48
_cell_length_a 18.830929
_cell_length_b 6.974437
_cell_length_c 19.251807
_cell_angle_alpha 90.000000
_cell_angle_beta 49.192752
_cell_angle_gamma 90.000000
_cell_volume 1913.806457
_symmetry_space_group_name_H-M "C 2/C"
_symmetry_group_IT_number 15
_symmetry_cell_setting 'monoclinic'
loop_
_space_group_symop_operation_xyz
x,y,z
-x,y,1/2-z
-x,-y,-z
x,-y,1/2+z
1/2+x,1/2+y,z
1/2-x,1/2+y,1/2-z
1/2-x,1/2-y,-z
1/2+x,1/2-y,1/2+z
loop_
_atom_site_type_symbol
_atom_site_label
_atom_site_fract_x
_atom_site_fract_y
_atom_site_fract_z
Si Si1 0.316504 0.428729 0.373183
Si Si2 0.387450 0.066466 0.506021
Si Si3 0.405008 0.509887 0.459435
Si Si4 0.241893 0.522112 0.151226
Si Si5 0.114974 0.001238 0.320484
Si Si6 0.589102 0.038403 0.348953
O O1 0.211828 0.487461 0.462301
O O2 0.385823 0.481322 0.390493
O O3 0.300493 0.201567 0.365504
O O4 0.350866 0.521750 0.280019
O O5 0.399707 0.294531 0.492871
O O6 0.479660 0.991854 0.409174
O O7 0.387031 0.013548 0.587229
O O8 0.314609 0.597774 0.556930
O O9 0.510797 0.578887 0.403771
O O10 0.307935 0.576622 0.175077
O O11 0.152678 0.440350 0.249746
O O12 0.105945 0.768407 0.333870
#
# Coordination Sequence:
#
# PCOD9257261 Si02
#       6
#     8   8   8   8   8   8
#     4  10  19  33  53  77 106 133 168 216 262 304
#     4   9  16  31  48  71  99 132 171 207 260 296
#     4  10  20  32  52  77 108 132 167 218 262 306
#     4  10  18  31  49  76 105 136 170 213 257 307
#     4  10  19  32  51  78 105 136 173 209 257 312
#     4   9  18  29  48  72  99 135 171 213 248 305
#
# _framework density 25.080905999999999
#
# number of rings (size 3 to 8) (size 9 to 14) (size 15 to 20)
#    0.000    2.333    1.667    3.000    0.000    0.000 
#    0.000    2.500    0.000    4.000    0.000    0.000 
#    5.000    0.000    0.000    0.000    0.000    0.000 
#
# Total GULP energy -134131.954751 kJ/mol
# GULP energy per Si atom -5588.831448 kJ/mol
# Density = 2.502382 g / cm^3
# Si number density = 25.080906 Si / 1000 Ang^3
#
#
#
# Elastic Constant Matrix: (Units=GPa)
#
#
# Indices 1 2 3 4 5 6 
#
# 1 75.8987 -0.3291 27.9107 -0.0001 7.1961 -0.0003
# 2 -0.3291 94.0558 11.6536 -0.0003 -3.4879 -0.0003
# 3 27.9107 11.6536 151.3630 -0.0001 -4.1620 0.0000
# 4 -0.0001 -0.0003 -0.0001 -6.1165 0.0001 5.7610
# 5 7.1961 -3.4879 -4.1620 0.0001 52.1595 0.0001
# 6 -0.0003 -0.0003 0.0000 5.7610 0.0001 11.6187
#
#
#
# Elastic Compliance Matrix: (Units=1/GPa)
#
#
# Indices 1 2 3 4 5 6 
#
# 1 0.014390 0.000309 -0.002737 0.000000 -0.002183 0.000000
# 2 0.000309 0.010763 -0.000869 0.000000 0.000608 0.000000
# 3 -0.002737 -0.000869 0.007203 0.000000 0.000894 0.000000
# 4 0.000000 0.000000 0.000000 -0.111445 0.000000 0.055258
# 5 -0.002183 0.000608 0.000894 0.000000 0.019585 0.000000
# 6 0.000000 0.000000 0.000000 0.055258 0.000000 0.058669
#
#
# Mechanical properties :
#
#
# Convention : Reuss Voigt Hill
#
# Bulk Modulus (GPa) = 38.81797 44.42089 41.61943
# Shear Modulus (GPa) = 348.48057 30.33783 189.40920
#
# Velocity S-wave (km/s) = 11.80018 3.48170 8.69961
# Velocity P-wave (km/s) = 14.18343 5.82344 10.84164
#
# Compressibility (1/GPa) = 0.02576127
#
# Stress axis : x y z
#
# Youngs Moduli (GPa) = 69.49089 92.90866 138.83367
#
# Poissons Ratio (x) = -0.02867 0.38003
# Poissons Ratio (y) = -0.02144 0.12063
# Poissons Ratio (z) = 0.19022 0.08072
#
# Static dielectric constant tensor:
#      x y z
#    x 1.915000 0.000000 -0.066740 
#    y 0.000000 2.037000 0.000000 
#    z -0.066740 0.000000 2.028650 
# 
# From -- ./inp_files/151813.got.cif
#   From: 2010.05.17/outbox.cif.g08.bks.cpg/sg15_76_cif.got.tgz:151813.got - 2010.06.03 18:47:42.
