data_PCOD9257846
_publ_section_title
;
Structure prediction by ZEFSAII (Michael W. Deem and Ramdas Pophale) SiO2 
 PCOD9257846
Probable space group: C 2/C
;
_chemical_formula_sum "Si O2"
_cell_formula_units_Z 64
_cell_length_a 12.687751
_cell_length_b 19.093356
_cell_length_c 20.540736
_cell_angle_alpha 90.000000
_cell_angle_beta 41.910339
_cell_angle_gamma 90.000000
_cell_volume 3323.822559
_symmetry_space_group_name_H-M "C 2/C"
_symmetry_group_IT_number 15
_symmetry_cell_setting 'monoclinic'
loop_
_space_group_symop_operation_xyz
x,y,z
-x,y,1/2-z
-x,-y,-z
x,-y,1/2+z
1/2+x,1/2+y,z
1/2-x,1/2+y,1/2-z
1/2-x,1/2-y,-z
1/2+x,1/2-y,1/2+z
loop_
_atom_site_type_symbol
_atom_site_label
_atom_site_fract_x
_atom_site_fract_y
_atom_site_fract_z
Si Si1 0.292195 0.863297 0.976949
Si Si2 0.689679 0.410087 0.664505
Si Si3 0.478263 0.321216 0.190740
Si Si4 0.857534 0.695092 0.173895
Si Si5 0.200368 0.021545 0.023672
Si Si6 0.853324 0.034244 0.719131
Si Si7 0.810957 0.372705 0.827702
Si Si8 0.688747 0.035540 0.665691
O O1 0.464280 0.834412 0.912554
O O2 0.245659 0.841996 0.924510
O O3 0.153762 0.835437 0.085065
O O4 0.295507 0.947920 0.979120
O O5 0.500000 0.403838 0.750000
O O6 0.765191 0.338301 0.656008
O O7 0.742153 0.433506 0.568232
O O8 0.723327 0.474166 0.700194
O O9 0.500000 0.283102 0.250000
O O10 0.383225 0.275688 0.181670
O O11 0.396366 0.396201 0.239635
O O12 0.774550 0.663051 0.276627
O O13 0.018023 0.997909 0.116222
O O14 0.235250 0.057688 0.938146
O O15 0.754684 0.063107 0.703372
O O16 0.765052 0.453692 0.847732
O O17 0.000000 0.373329 0.750000
O O18 0.500000 0.042709 0.750000
#
# Coordination Sequence:
#
# PCOD9257846 Si02
#       8
#     8   8   8   8   8   8   8   8
#     4   9  18  33  55  85 114 140 180 233 279 338
#     4  10  21  38  57  84 113 146 191 235 272 334
#     4  11  22  37  55  84 118 149 181 228 286 342
#     4  11  20  34  57  82 111 150 184 228 281 332
#     4   9  19  33  54  83 113 145 181 236 285 326
#     4  10  19  36  57  80 116 151 181 228 291 334
#     4   8  15  29  51  81 107 133 178 227 271 318
#     4  10  18  32  54  83 111 141 190 234 271 329
#
# _framework density 19.254939
#
# number of rings (size 3 to 8) (size 9 to 14) (size 15 to 20)
#    0.000    2.250    1.250    4.500    0.000    0.500 
#    2.250    0.625    0.000    0.750    0.000    0.000 
#    0.000    0.000    0.000    0.000    0.000    0.000 
#
# Total GULP energy -178348.399053 kJ/mol
# GULP energy per Si atom -5573.387470 kJ/mol
# Density = 1.921111 g / cm^3
# Si number density = 19.254939 Si / 1000 Ang^3
#
#
#
# Elastic Constant Matrix: (Units=GPa)
#
#
# Indices 1 2 3 4 5 6 
#
# 1 84.6527 31.3280 18.5871 -0.0003 26.4962 -0.0002
# 2 31.3280 50.7185 7.3590 -0.0003 4.0791 0.0000
# 3 18.5871 7.3590 61.0360 -0.0021 22.0488 0.0009
# 4 -0.0003 -0.0003 -0.0021 12.5731 0.0008 3.6185
# 5 26.4962 4.0791 22.0488 0.0008 21.8361 -0.0001
# 6 -0.0002 0.0000 0.0009 3.6185 -0.0001 25.1917
#
#
#
# Elastic Compliance Matrix: (Units=1/GPa)
#
#
# Indices 1 2 3 4 5 6 
#
# 1 0.027745 -0.015111 0.007107 0.000004 -0.038019 -0.000001
# 2 -0.015111 0.028356 -0.005553 -0.000002 0.018645 0.000000
# 3 0.007107 -0.005553 0.027753 0.000007 -0.035609 -0.000002
# 4 0.000004 -0.000002 0.000007 0.082964 -0.000015 -0.011917
# 5 -0.038019 0.018645 -0.035609 -0.000015 0.124402 0.000004
# 6 -0.000001 0.000000 -0.000002 -0.011917 0.000004 0.041407
#
#
# Mechanical properties :
#
#
# Convention : Reuss Voigt Hill
#
# Bulk Modulus (GPa) = 17.62410 34.55060 26.08735
# Shear Modulus (GPa) = 13.20468 21.19572 17.20020
#
# Velocity S-wave (km/s) = 2.62158 3.32142 2.99203
# Velocity P-wave (km/s) = 4.28211 5.71768 5.05115
#
# Compressibility (1/GPa) = 0.05674049
#
# Stress axis : x y z
#
# Youngs Moduli (GPa) = 36.04307 35.26530 36.03270
#
# Poissons Ratio (x) = 0.53289 -0.25608
# Poissons Ratio (y) = 0.54464 0.20008
# Poissons Ratio (z) = -0.25616 0.19582
#
# Static dielectric constant tensor:
#      x y z
#    x 1.698750 0.000000 0.042180 
#    y 0.000000 1.696130 0.000000 
#    z 0.042180 0.000000 1.687590 
# 
# From -- ./inp_files/200349.got.cif
#   From: 2010.05.17/outbox.cif.g08.bks.cpg/sg15_101_cif.got.tgz:200349.got - 2010.06.03 18:47:42.
