data_PCOD9257490
_publ_section_title
;
Structure prediction by ZEFSAII (Michael W. Deem and Ramdas Pophale) SiO2 
 PCOD9257490
Probable space group: C 2/C
;
_chemical_formula_sum "Si O2"
_cell_formula_units_Z 64
_cell_length_a 28.291164
_cell_length_b 8.737527
_cell_length_c 13.628867
_cell_angle_alpha 90.000000
_cell_angle_beta 129.404991
_cell_angle_gamma 90.000000
_cell_volume 2603.141672
_symmetry_space_group_name_H-M "C 2/C"
_symmetry_group_IT_number 15
_symmetry_cell_setting 'monoclinic'
loop_
_space_group_symop_operation_xyz
x,y,z
-x,y,1/2-z
-x,-y,-z
x,-y,1/2+z
1/2+x,1/2+y,z
1/2-x,1/2+y,1/2-z
1/2-x,1/2-y,-z
1/2+x,1/2-y,1/2+z
loop_
_atom_site_type_symbol
_atom_site_label
_atom_site_fract_x
_atom_site_fract_y
_atom_site_fract_z
Si Si1 0.400361 0.677468 0.739663
Si Si2 0.873208 0.790669 0.994381
Si Si3 0.699152 0.562323 0.408604
Si Si4 0.764464 0.439820 0.318407
Si Si5 0.582401 0.865758 0.140229
Si Si6 0.546808 0.802980 0.504966
Si Si7 0.189311 0.552073 0.325697
Si Si8 0.158717 0.151127 0.548391
O O1 0.415598 0.722056 0.647593
O O2 0.366920 0.514371 0.696990
O O3 0.449143 0.701924 0.889461
O O4 0.346403 0.794558 0.698361
O O5 0.815631 0.673706 0.930836
O O6 0.900994 0.747111 0.926262
O O7 0.855660 0.968808 0.969949
O O8 0.732067 0.562551 0.346994
O O9 0.748792 0.457557 0.531783
O O10 0.686167 0.685523 0.476770
O O11 0.795430 0.522681 0.267454
O O12 0.710859 0.339859 0.199225
O O13 0.564138 0.025389 0.061909
O O14 0.641001 0.913654 0.281125
O O15 0.523334 0.808125 0.120999
O O16 0.597908 0.741328 0.498201
#
# Coordination Sequence:
#
# PCOD9257490 Si02
#       8
#     8   8   8   8   8   8   8   8
#     4  10  18  31  59  86 119 158 215 254 308 374
#     4  10  21  35  58  93 119 158 214 268 316 388
#     4  10  18  31  55  92 126 166 204 261 325 399
#     4  10  19  31  55  89 133 165 200 258 327 401
#     4   9  21  38  60  83 119 163 216 255 329 380
#     4  10  20  39  61  86 118 167 211 268 321 392
#     4   9  18  31  54  86 123 167 205 255 312 385
#     4  10  22  33  60  92 125 162 210 267 332 380
#
# _framework density 24.585677
#
# number of rings (size 3 to 8) (size 9 to 14) (size 15 to 20)
#    0.000    2.250    2.500    0.375    3.500    2.000 
#    0.000    0.000    8.250   10.500    0.000    0.000 
#    0.000    0.000    0.000    0.000    0.000    0.000 
#
# Total GULP energy -178754.497302 kJ/mol
# GULP energy per Si atom -5586.078041 kJ/mol
# Density = 2.452972 g / cm^3
# Si number density = 24.585677 Si / 1000 Ang^3
#
#
#
# Elastic Constant Matrix: (Units=GPa)
#
#
# Indices 1 2 3 4 5 6 
#
# 1 104.9991 20.9188 20.5239 0.0000 16.2563 0.0000
# 2 20.9188 56.5813 22.4486 0.0000 2.9922 0.0000
# 3 20.5239 22.4486 54.1262 0.0000 -1.6980 0.0000
# 4 0.0000 0.0000 0.0000 15.5648 0.0000 -3.7814
# 5 16.2563 2.9922 -1.6980 0.0000 27.5186 0.0000
# 6 0.0000 0.0000 0.0000 -3.7814 0.0000 31.2636
#
#
#
# Elastic Compliance Matrix: (Units=1/GPa)
#
#
# Indices 1 2 3 4 5 6 
#
# 1 0.011817 -0.002560 -0.003637 0.000000 -0.006927 0.000000
# 2 -0.002560 0.021934 -0.008170 0.000000 -0.001377 0.000000
# 3 -0.003637 -0.008170 0.023383 0.000000 0.004479 0.000000
# 4 0.000000 0.000000 0.000000 0.066193 0.000000 0.008006
# 5 -0.006927 -0.001377 0.004479 0.000000 0.040857 0.000000
# 6 0.000000 0.000000 0.000000 0.008006 0.000000 0.032954
#
#
# Mechanical properties :
#
#
# Convention : Reuss Voigt Hill
#
# Bulk Modulus (GPa) = 35.20825 38.16547 36.68686
# Shear Modulus (GPa) = 21.24602 24.99041 23.11821
#
# Velocity S-wave (km/s) = 2.94285 3.19166 3.06978
# Velocity P-wave (km/s) = 5.08910 5.39809 5.24587
#
# Compressibility (1/GPa) = 0.02840243
#
# Stress axis : x y z
#
# Youngs Moduli (GPa) = 84.62273 45.59085 42.76590
#
# Poissons Ratio (x) = 0.11671 0.15552
# Poissons Ratio (y) = 0.21662 0.34938
# Poissons Ratio (z) = 0.30773 0.37246
#
# Static dielectric constant tensor:
#      x y z
#    x 1.970850 0.000000 -0.008030 
#    y 0.000000 1.981830 0.000000 
#    z -0.008030 0.000000 1.971950 
# 
# From -- ./inp_files/181183.got.cif
#   From: 2010.05.17/outbox.cif.g08.bks.cpg/sg15_91_cif.got.tgz:181183.got - 2010.06.03 18:47:42.
