data_PCOD9257153
_publ_section_title
;
Structure prediction by ZEFSAII (Michael W. Deem and Ramdas Pophale) SiO2 
 PCOD9257153
Probable space group: C 2/C
;
_chemical_formula_sum "Si O2"
_cell_formula_units_Z 44
_cell_length_a 22.310278
_cell_length_b 13.505951
_cell_length_c 10.352875
_cell_angle_alpha 90.000000
_cell_angle_beta 125.405745
_cell_angle_gamma 90.000000
_cell_volume 2542.645854
_symmetry_space_group_name_H-M "C 2/C"
_symmetry_group_IT_number 15
_symmetry_cell_setting 'monoclinic'
loop_
_space_group_symop_operation_xyz
x,y,z
-x,y,1/2-z
-x,-y,-z
x,-y,1/2+z
1/2+x,1/2+y,z
1/2-x,1/2+y,1/2-z
1/2-x,1/2-y,-z
1/2+x,1/2-y,1/2+z
loop_
_atom_site_type_symbol
_atom_site_label
_atom_site_fract_x
_atom_site_fract_y
_atom_site_fract_z
Si Si1 0.500000 0.704334 0.250000
Si Si2 0.067970 0.108684 0.079237
Si Si3 0.855553 0.775138 0.433935
Si Si4 0.805056 0.981229 0.499420
Si Si5 0.418093 0.602609 0.794339
Si Si6 0.233193 0.891987 0.781637
O O1 0.533783 0.640433 0.174842
O O2 0.569066 0.759062 0.401577
O O3 0.149667 0.152088 0.169933
O O4 0.080506 0.990713 0.103585
O O5 0.003946 0.131570 0.897204
O O6 0.829676 0.874834 0.475436
O O7 0.874676 0.810263 0.312215
O O8 0.793271 0.693066 0.361105
O O9 0.766088 0.957426 0.586819
O O10 0.873759 0.053799 0.621406
O O11 0.759078 0.038208 0.333708
#
# Coordination Sequence:
#
# PCOD9257153 Si02
#       6
#     4   8   8   8   8   8
#     4  10  18  30  56  78 112 130 186 210 270 320
#     4   9  17  30  49  82 108 140 158 225 263 326
#     4  11  20  35  54  83 104 145 177 218 261 329
#     4  11  20  37  53  82 108 146 169 223 263 322
#     4   9  18  30  52  78 112 130 172 210 277 313
#     4  11  23  34  56  78 113 139 182 213 274 311
#
# _framework density 17.30481
#
# number of rings (size 3 to 8) (size 9 to 14) (size 15 to 20)
#    0.000    1.818    7.273    0.545    0.000    1.455 
#    0.000    0.000    0.000    1.091    0.000    0.000 
#    0.000    0.000    0.000    0.000    0.000    0.000 
#
# Total GULP energy -122522.456041 kJ/mol
# GULP energy per Si atom -5569.202547 kJ/mol
# Density = 1.726542 g / cm^3
# Si number density = 17.304810 Si / 1000 Ang^3
#
#
#
# Elastic Constant Matrix: (Units=GPa)
#
#
# Indices 1 2 3 4 5 6 
#
# 1 97.8153 56.0185 57.9882 0.0000 17.5077 0.0000
# 2 56.0185 55.8662 59.0589 0.0000 14.1781 0.0000
# 3 57.9882 59.0589 118.4863 0.0000 2.5691 0.0000
# 4 0.0000 0.0000 0.0000 21.5628 0.0000 9.1491
# 5 17.5077 14.1781 2.5691 0.0000 34.8511 0.0000
# 6 0.0000 0.0000 0.0000 9.1491 0.0000 33.2472
#
#
#
# Elastic Compliance Matrix: (Units=1/GPa)
#
#
# Indices 1 2 3 4 5 6 
#
# 1 0.024215 -0.023592 -0.000036 0.000000 -0.002564 0.000000
# 2 -0.023592 0.069179 -0.022619 0.000000 -0.014624 0.000000
# 3 -0.000036 -0.022619 0.019563 0.000000 0.007778 0.000000
# 4 0.000000 0.000000 0.000000 0.052507 0.000000 -0.014449
# 5 -0.002564 -0.014624 0.007778 0.000000 0.035358 0.000000
# 6 0.000000 0.000000 0.000000 -0.014449 0.000000 0.034054
#
#
# Mechanical properties :
#
#
# Convention : Reuss Voigt Hill
#
# Bulk Modulus (GPa) = 48.86782 68.69990 58.78386
# Shear Modulus (GPa) = 14.96157 24.53903 19.75030
#
# Velocity S-wave (km/s) = 2.94358 3.76978 3.38201
# Velocity P-wave (km/s) = 6.31297 7.66384 7.02097
#
# Compressibility (1/GPa) = 0.02046336
#
# Stress axis : x y z
#
# Youngs Moduli (GPa) = 41.29741 14.45527 51.11697
#
# Poissons Ratio (x) = 0.34103 0.00184
# Poissons Ratio (y) = 0.97428 1.15620
# Poissons Ratio (z) = 0.00149 0.32696
#
# Static dielectric constant tensor:
#      x y z
#    x 1.670910 0.000000 -0.026700 
#    y 0.000000 1.539550 0.000000 
#    z -0.026700 0.000000 1.671060 
# 
# From -- ./inp_files/61707.got.cif
#   From: 2010.05.17/outbox.cif.g08.bks.cpg/sg15_31_cif.got.tgz:61707.got - 2010.06.03 18:47:42.
