data_PCOD9257449
_publ_section_title
;
Structure prediction by ZEFSAII (Michael W. Deem and Ramdas Pophale) SiO2 
 PCOD9257449
Probable space group: C 2/C
;
_chemical_formula_sum "Si O2"
_cell_formula_units_Z 44
_cell_length_a 8.758612
_cell_length_b 24.760114
_cell_length_c 12.758447
_cell_angle_alpha 90.000000
_cell_angle_beta 119.143583
_cell_angle_gamma 90.000000
_cell_volume 2416.573113
_symmetry_space_group_name_H-M "C 2/C"
_symmetry_group_IT_number 15
_symmetry_cell_setting 'monoclinic'
loop_
_space_group_symop_operation_xyz
x,y,z
-x,y,1/2-z
-x,-y,-z
x,-y,1/2+z
1/2+x,1/2+y,z
1/2-x,1/2+y,1/2-z
1/2-x,1/2-y,-z
1/2+x,1/2-y,1/2+z
loop_
_atom_site_type_symbol
_atom_site_label
_atom_site_fract_x
_atom_site_fract_y
_atom_site_fract_z
Si Si1 0.000000 0.918846 0.250000
Si Si2 0.198687 0.717747 0.829401
Si Si3 0.500000 0.960740 0.250000
Si Si4 0.000000 0.900913 0.750000
Si Si5 0.849153 0.627112 0.861856
Si Si6 0.186160 0.673610 0.060864
Si Si7 0.633415 0.507656 0.138079
O O1 0.165057 0.887820 0.352903
O O2 0.091092 0.956796 0.196994
O O3 0.207913 0.672862 0.742168
O O4 0.314942 0.771322 0.871728
O O5 0.000000 0.738557 0.750000
O O6 0.220337 0.689913 0.950256
O O7 0.554827 0.920700 0.172776
O O8 0.333476 0.998625 0.170639
O O9 0.841772 0.865044 0.650986
O O10 0.914810 0.939461 0.810813
O O11 0.995076 0.647236 0.991321
O O12 0.500000 0.500000 0.000000
#
# Coordination Sequence:
#
# PCOD9257449 Si02
#       7
#     4   8   4   4   8   8   8
#     4   9  22  36  54  80 106 142 196 211 276 334
#     4   9  17  31  54  83 106 136 179 225 276 317
#     4  10  18  35  56  74 100 143 188 210 274 326
#     4  11  22  33  54  88 112 141 180 227 282 320
#     4  10  18  35  57  79 106 147 181 226 275 328
#     4  10  18  31  54  83 109 133 182 230 262 328
#     4  10  22  37  54  79 111 146 180 231 269 321
#
# _framework density 18.207602000000001
#
# number of rings (size 3 to 8) (size 9 to 14) (size 15 to 20)
#    0.000    2.182    3.636    1.091    2.545    1.455 
#    0.000    6.364    0.000    1.091    0.000    0.000 
#    0.000    0.000    0.000    0.000    0.000    0.000 
#
# Total GULP energy -122470.590106 kJ/mol
# GULP energy per Si atom -5566.845005 kJ/mol
# Density = 1.816616 g / cm^3
# Si number density = 18.207602 Si / 1000 Ang^3
#
#
#
# Elastic Constant Matrix: (Units=GPa)
#
#
# Indices 1 2 3 4 5 6 
#
# 1 92.1501 35.9403 34.9176 0.0000 38.9505 0.0000
# 2 35.9403 83.7990 47.3299 0.0000 25.2922 0.0000
# 3 34.9176 47.3299 111.8346 0.0000 37.5120 0.0000
# 4 0.0000 0.0000 0.0000 -2.1713 0.0000 65.5591
# 5 38.9505 25.2922 37.5120 0.0000 33.5982 0.0000
# 6 0.0000 0.0000 0.0000 65.5591 0.0000 -69.0236
#
#
#
# Elastic Compliance Matrix: (Units=1/GPa)
#
#
# Indices 1 2 3 4 5 6 
#
# 1 0.022423 -0.003373 0.003668 0.000000 -0.027551 0.000000
# 2 -0.003373 0.017300 -0.005135 0.000000 -0.003380 0.000000
# 3 0.003668 -0.005135 0.016146 0.000000 -0.018413 0.000000
# 4 0.000000 0.000000 0.000000 0.016640 0.000000 0.015805
# 5 -0.027551 -0.003380 -0.018413 0.000000 0.084806 0.000000
# 6 0.000000 0.000000 0.000000 0.015805 0.000000 0.000523
#
#
# Mechanical properties :
#
#
# Convention : Reuss Voigt Hill
#
# Bulk Modulus (GPa) = 21.65024 58.23991 39.94507
# Shear Modulus (GPa) = 27.33513 3.78707 15.56110
#
# Velocity S-wave (km/s) = 3.87887 1.44376 2.92661
# Velocity P-wave (km/s) = 5.65486 5.90214 5.77982
#
# Compressibility (1/GPa) = 0.04618886
#
# Stress axis : x y z
#
# Youngs Moduli (GPa) = 44.59724 57.80250 61.93468
#
# Poissons Ratio (x) = 0.19497 -0.22716
# Poissons Ratio (y) = 0.15043 0.31802
# Poissons Ratio (z) = -0.16357 0.29680
#
# Static dielectric constant tensor:
#      x y z
#    x 1.667130 0.000000 0.039570 
#    y 0.000000 1.688940 0.000000 
#    z 0.039570 0.000000 1.619820 
# 
# From -- ./inp_files/78742.got.cif
#   From: 2010.05.17/outbox.cif.g08.bks.cpg/sg15_40_cif.got.tgz:78742.got - 2010.06.03 18:47:42.
