data_PCOD9257636
_publ_section_title
;
Structure prediction by ZEFSAII (Michael W. Deem and Ramdas Pophale) SiO2 
 PCOD9257636
Probable space group: C 2/C
;
_chemical_formula_sum "Si O2"
_cell_formula_units_Z 64
_cell_length_a 15.324387
_cell_length_b 26.908617
_cell_length_c 10.196982
_cell_angle_alpha 90.000000
_cell_angle_beta 107.700566
_cell_angle_gamma 90.000000
_cell_volume 4005.745723
_symmetry_space_group_name_H-M "C 2/C"
_symmetry_group_IT_number 15
_symmetry_cell_setting 'monoclinic'
loop_
_space_group_symop_operation_xyz
x,y,z
-x,y,1/2-z
-x,-y,-z
x,-y,1/2+z
1/2+x,1/2+y,z
1/2-x,1/2+y,1/2-z
1/2-x,1/2-y,-z
1/2+x,1/2-y,1/2+z
loop_
_atom_site_type_symbol
_atom_site_label
_atom_site_fract_x
_atom_site_fract_y
_atom_site_fract_z
Si Si1 0.398310 0.765218 0.473167
Si Si2 0.276344 0.859700 0.481556
Si Si3 0.273384 0.146137 0.295223
Si Si4 0.893344 0.451163 0.859179
Si Si5 0.113397 0.741314 0.058621
Si Si6 0.891860 0.456761 0.550761
Si Si7 0.891913 0.201664 0.209906
Si Si8 0.393876 0.312893 0.205499
O O1 0.339371 0.814682 0.458550
O O2 0.506986 0.775214 0.518026
O O3 0.375381 0.733536 0.333877
O O4 0.381760 0.730610 0.591724
O O5 0.267193 0.853156 0.634368
O O6 0.326110 0.911735 0.481686
O O7 0.178638 0.854454 0.366960
O O8 0.330324 0.096800 0.356591
O O9 0.326813 0.194755 0.370459
O O10 0.172404 0.153492 0.309399
O O11 0.878763 0.466930 0.700287
O O12 0.002164 0.439842 0.918838
O O13 0.875474 0.495386 0.953036
O O14 0.125413 0.786780 0.165155
O O15 0.131864 0.763207 0.923657
O O16 0.000000 0.189828 0.250000
O O17 0.500000 0.328861 0.250000
#
# Coordination Sequence:
#
# PCOD9257636 Si02
#       8
#     8   8   8   8   8   8   8   8
#     4  10  18  32  50  73 105 134 166 203 243 290
#     4  11  19  31  55  77  95 131 175 207 241 294
#     4  11  19  32  54  74  98 135 173 201 244 301
#     4   9  19  36  56  76 100 128 158 203 253 298
#     4  10  20  31  47  75 107 135 166 202 242 294
#     4   9  19  36  55  77 102 125 158 203 253 300
#     4  10  21  34  46  69 108 142 166 201 245 290
#     4  10  19  31  49  72 101 134 166 205 242 282
#
# _framework density 15.977050999999999
#
# number of rings (size 3 to 8) (size 9 to 14) (size 15 to 20)
#    0.000    2.000    2.500    2.250    0.000    1.000 
#    4.500    0.000    0.000    0.750    0.000    3.500 
#    0.000    0.000    0.000    0.000    0.000    0.000 
#
# Total GULP energy -178521.789767 kJ/mol
# GULP energy per Si atom -5578.805930 kJ/mol
# Density = 1.594069 g / cm^3
# Si number density = 15.977051 Si / 1000 Ang^3
#
#
#
# Elastic Constant Matrix: (Units=GPa)
#
#
# Indices 1 2 3 4 5 6 
#
# 1 80.6249 68.5616 36.6724 0.0000 15.3817 0.0000
# 2 68.5616 84.9933 36.1800 0.0000 15.5482 0.0000
# 3 36.6724 36.1800 71.7662 0.0000 15.2496 0.0000
# 4 0.0000 0.0000 0.0000 21.2839 0.0000 3.9577
# 5 15.3817 15.5482 15.2496 0.0000 22.4990 0.0000
# 6 0.0000 0.0000 0.0000 3.9577 0.0000 26.8915
#
#
#
# Elastic Compliance Matrix: (Units=1/GPa)
#
#
# Indices 1 2 3 4 5 6 
#
# 1 0.041378 -0.030589 -0.004911 0.000000 -0.003821 0.000000
# 2 -0.030589 0.038350 -0.002938 0.000000 -0.003598 0.000000
# 3 -0.004911 -0.002938 0.019603 0.000000 -0.007899 0.000000
# 4 0.000000 0.000000 0.000000 0.048306 0.000000 -0.007109
# 5 -0.003821 -0.003598 -0.007899 0.000000 0.054899 0.000000
# 6 0.000000 0.000000 0.000000 -0.007109 0.000000 0.038233
#
#
# Mechanical properties :
#
#
# Convention : Reuss Voigt Hill
#
# Bulk Modulus (GPa) = 44.53372 57.80138 51.16755
# Shear Modulus (GPa) = 15.37845 20.53291 17.95568
#
# Velocity S-wave (km/s) = 3.10584 3.58879 3.35601
# Velocity P-wave (km/s) = 6.38715 7.30950 6.86384
#
# Compressibility (1/GPa) = 0.02245489
#
# Stress axis : x y z
#
# Youngs Moduli (GPa) = 24.16741 26.07581 51.01155
#
# Poissons Ratio (x) = 0.79763 0.25053
# Poissons Ratio (y) = 0.73925 0.14987
# Poissons Ratio (z) = 0.11869 0.07661
#
# Static dielectric constant tensor:
#      x y z
#    x 1.570060 0.000000 0.012480 
#    y 0.000000 1.488110 0.000000 
#    z 0.012480 0.000000 1.539000 
# 
# From -- ./inp_files/43530.got.cif
#   From: 2010.05.17/outbox.cif.g08.bks.cpg/sg15_22_cif.got.tgz:43530.got - 2010.06.03 18:47:42.
