data_PCOD9257136
_publ_section_title
;
Structure prediction by ZEFSAII (Michael W. Deem and Ramdas Pophale) SiO2 
 PCOD9257136
Probable space group: C 2/C
;
_chemical_formula_sum "Si O2"
_cell_formula_units_Z 52
_cell_length_a 18.371171
_cell_length_b 12.403361
_cell_length_c 9.302947
_cell_angle_alpha 90.000000
_cell_angle_beta 93.869260
_cell_angle_gamma 90.000000
_cell_volume 2114.977352
_symmetry_space_group_name_H-M "C 2/C"
_symmetry_group_IT_number 15
_symmetry_cell_setting 'monoclinic'
loop_
_space_group_symop_operation_xyz
x,y,z
-x,y,1/2-z
-x,-y,-z
x,-y,1/2+z
1/2+x,1/2+y,z
1/2-x,1/2+y,1/2-z
1/2-x,1/2-y,-z
1/2+x,1/2-y,1/2+z
loop_
_atom_site_type_symbol
_atom_site_label
_atom_site_fract_x
_atom_site_fract_y
_atom_site_fract_z
Si Si1 0.373710 0.288563 0.315750
Si Si2 0.948267 0.380009 0.618772
Si Si3 0.241816 0.604965 0.140452
Si Si4 0.890262 0.970770 0.751439
Si Si5 0.169818 0.550220 0.853686
Si Si6 0.953655 0.281841 0.107129
Si Si7 0.000000 0.000000 0.500000
O O1 0.419327 0.227843 0.196065
O O2 0.304657 0.212180 0.333906
O O3 0.358358 0.408951 0.268946
O O4 0.423063 0.291448 0.469341
O O5 0.880808 0.457362 0.582770
O O6 0.000000 0.430810 0.750000
O O7 0.993258 0.357862 0.481394
O O8 0.324569 0.607989 0.202511
O O9 0.201266 0.507203 0.217977
O O10 0.233648 0.580769 0.971796
O O11 0.931086 0.943310 0.903094
O O12 0.948029 0.985126 0.633370
O O13 0.114875 0.651128 0.839845
O O14 0.000000 0.241796 0.250000
#
# Coordination Sequence:
#
# PCOD9257136 Si02
#       7
#     8   8   8   8   8   8   4
#     4   9  22  40  68  91 135 182 219 276 347 394
#     4   9  17  30  54  87 128 185 220 264 333 396
#     4  10  21  39  66  95 133 181 223 277 343 402
#     4  11  23  50  70  98 136 172 232 283 330 411
#     4  10  18  32  54  91 132 175 224 268 330 400
#     4  10  18  30  54  95 135 174 223 273 319 395
#     4  10  26  42  78  96 126 182 224 276 340 382
#
# _framework density 24.586552000000001
#
# number of rings (size 3 to 8) (size 9 to 14) (size 15 to 20)
#    0.000    2.154    0.000    3.692    6.462    0.000 
#    2.769   13.846    0.000    0.000    0.000    0.000 
#    0.000    0.000    0.000    0.000    0.000    0.000 
#
# Total GULP energy -145043.198546 kJ/mol
# GULP energy per Si atom -5578.584559 kJ/mol
# Density = 2.453059 g / cm^3
# Si number density = 24.586552 Si / 1000 Ang^3
#
#
#
# Elastic Constant Matrix: (Units=GPa)
#
#
# Indices 1 2 3 4 5 6 
#
# 1 123.5980 23.0678 68.4910 0.0000 13.8588 0.0000
# 2 23.0678 93.5395 29.1128 0.0000 -0.4648 0.0000
# 3 68.4910 29.1128 143.5809 0.0000 15.4664 0.0000
# 4 0.0000 0.0000 0.0000 20.1988 0.0000 -6.2547
# 5 13.8588 -0.4648 15.4664 0.0000 54.6632 0.0000
# 6 0.0000 0.0000 0.0000 -6.2547 0.0000 -3.5453
#
#
#
# Elastic Compliance Matrix: (Units=1/GPa)
#
#
# Indices 1 2 3 4 5 6 
#
# 1 0.011227 -0.001236 -0.004948 0.000000 -0.001457 0.000000
# 2 -0.001236 0.011579 -0.001859 0.000000 0.000938 0.000000
# 3 -0.004948 -0.001859 0.009869 0.000000 -0.001554 0.000000
# 4 0.000000 0.000000 0.000000 0.032017 0.000000 -0.056485
# 5 -0.001457 0.000938 -0.001554 0.000000 0.019111 0.000000
# 6 0.000000 0.000000 0.000000 -0.056485 0.000000 -0.182412
#
#
# Mechanical properties :
#
#
# Convention : Reuss Voigt Hill
#
# Bulk Modulus (GPa) = 60.28162 66.89574 63.58868
# Shear Modulus (GPa) = -64.93966 30.26647 -17.33660
#
# Velocity S-wave (km/s) = -5.14490 3.51239 -2.65830
# Velocity P-wave (km/s) = 3.27445 6.61185 4.06168
#
# Compressibility (1/GPa) = 0.01658880
#
# Stress axis : x y z
#
# Youngs Moduli (GPa) = 89.07466 86.36498 101.32483
#
# Poissons Ratio (x) = 0.10674 0.50133
# Poissons Ratio (y) = 0.11009 0.18838
# Poissons Ratio (z) = 0.44072 0.16057
#
# Static dielectric constant tensor:
#      x y z
#    x 1.988380 0.000000 0.031930 
#    y 0.000000 1.989200 0.000000 
#    z 0.031930 0.000000 1.844790 
# 
# From -- ./inp_files/55376.got.cif
#   From: 2010.05.17/outbox.cif.g08.bks.cpg/sg15_28_cif.got.tgz:55376.got - 2010.06.03 18:47:42.
