data_PCOD9257218
_publ_section_title
;
Structure prediction by ZEFSAII (Michael W. Deem and Ramdas Pophale) SiO2 
 PCOD9257218
Probable space group: C 2/C
;
_chemical_formula_sum "Si O2"
_cell_formula_units_Z 64
_cell_length_a 26.124085
_cell_length_b 12.655561
_cell_length_c 21.520171
_cell_angle_alpha 90.000000
_cell_angle_beta 157.165824
_cell_angle_gamma 90.000000
_cell_volume 2761.042701
_symmetry_space_group_name_H-M "C 2/C"
_symmetry_group_IT_number 15
_symmetry_cell_setting 'monoclinic'
loop_
_space_group_symop_operation_xyz
x,y,z
-x,y,1/2-z
-x,-y,-z
x,-y,1/2+z
1/2+x,1/2+y,z
1/2-x,1/2+y,1/2-z
1/2-x,1/2-y,-z
1/2+x,1/2-y,1/2+z
loop_
_atom_site_type_symbol
_atom_site_label
_atom_site_fract_x
_atom_site_fract_y
_atom_site_fract_z
Si Si1 0.077934 0.613660 0.156568
Si Si2 0.924468 0.056050 0.357741
Si Si3 0.571645 0.873727 0.122914
Si Si4 0.141154 0.625486 0.007288
Si Si5 0.372001 0.618055 0.693435
Si Si6 0.347929 0.409605 0.021411
Si Si7 0.405905 0.102162 0.087728
Si Si8 0.139794 0.850276 0.015689
O O1 0.097798 0.499668 0.146588
O O2 0.220442 0.633612 0.343938
O O3 0.977867 0.612385 0.102325
O O4 0.008237 0.677233 0.023510
O O5 0.776253 0.102939 0.198106
O O6 0.900422 0.968479 0.277918
O O7 0.022942 0.139606 0.435469
O O8 0.000000 0.000000 0.500000
O O9 0.719501 0.833852 0.294099
O O10 0.482016 0.871134 0.083696
O O11 0.134280 0.742396 0.969444
O O12 0.126243 0.524892 0.945536
O O13 0.522247 0.657581 0.852556
O O14 0.336951 0.588424 0.583363
O O15 0.232305 0.662915 0.559871
O O16 0.360666 0.535492 0.018486
O O17 0.500000 0.129035 0.250000
#
# Coordination Sequence:
#
# PCOD9257218 Si02
#       8
#     8   8   8   8   8   8   8   8
#     4   9  17  29  49  71  94 126 168 216 254 294
#     4  10  22  34  52  74 104 138 178 225 267 305
#     4   9  19  30  52  71  94 130 176 211 259 303
#     4  10  21  35  50  73 105 141 178 212 260 319
#     4   9  18  30  46  70 100 134 170 213 246 310
#     4   9  17  31  48  68 101 134 168 207 249 310
#     4  10  18  31  46  72 102 134 169 213 248 303
#     4  10  20  35  51  72 106 141 173 216 256 313
#
# _framework density 23.179648
#
# number of rings (size 3 to 8) (size 9 to 14) (size 15 to 20)
#    0.000    2.500    1.250    0.750   10.500    0.000 
#    4.500    1.250    0.000    0.000    0.000    0.000 
#    0.000   11.000    0.000    0.000    0.000    0.000 
#
# Total GULP energy -178170.191526 kJ/mol
# GULP energy per Si atom -5567.818485 kJ/mol
# Density = 2.312689 g / cm^3
# Si number density = 23.179648 Si / 1000 Ang^3
#
#
#
# Elastic Constant Matrix: (Units=GPa)
#
#
# Indices 1 2 3 4 5 6 
#
# 1 41.7322 -3.4741 36.7399 0.0001 3.0024 0.0000
# 2 -3.4741 98.3244 13.6437 0.0001 -11.1805 0.0001
# 3 36.7399 13.6437 167.6934 0.0003 13.2811 0.0002
# 4 0.0001 0.0001 0.0003 -1.6132 0.0002 -17.7523
# 5 3.0024 -11.1805 13.2811 0.0002 42.0905 0.0001
# 6 0.0000 0.0001 0.0002 -17.7523 0.0001 10.0289
#
#
#
# Elastic Compliance Matrix: (Units=1/GPa)
#
#
# Indices 1 2 3 4 5 6 
#
# 1 0.030084 0.002070 -0.006803 0.000000 0.000550 0.000000
# 2 0.002070 0.010832 -0.001591 0.000000 0.003232 0.000000
# 3 -0.006803 -0.001591 0.007772 0.000000 -0.002390 0.000000
# 4 0.000000 0.000000 0.000000 -0.030269 0.000000 -0.053580
# 5 0.000550 0.003232 -0.002390 0.000000 0.025332 0.000000
# 6 0.000000 0.000000 0.000000 -0.053580 0.000000 0.004869
#
#
# Mechanical properties :
#
#
# Convention : Reuss Voigt Hill
#
# Bulk Modulus (GPa) = 27.74691 44.61877 36.18284
# Shear Modulus (GPa) = 68.23015 27.49061 47.86038
#
# Velocity S-wave (km/s) = 5.43132 3.44754 4.54889
# Velocity P-wave (km/s) = 7.16441 5.92776 6.57522
#
# Compressibility (1/GPa) = 0.03604005
#
# Stress axis : x y z
#
# Youngs Moduli (GPa) = 33.23996 92.32148 128.65980
#
# Poissons Ratio (x) = -0.19106 0.87529
# Poissons Ratio (y) = -0.06879 0.20465
# Poissons Ratio (z) = 0.22614 0.14685
#
# Static dielectric constant tensor:
#      x y z
#    x 1.835020 0.000000 0.021080 
#    y 0.000000 2.247720 0.000000 
#    z 0.021080 0.000000 1.935700 
# 
# From -- ./inp_files/284815.got.cif
#   From: 2010.05.17/outbox.cif.g08.bks.cpg/sg15_143_cif.got.tgz:284815.got - 2010.06.03 18:47:42.
