data_PCOD9257120
_publ_section_title
;
Structure prediction by ZEFSAII (Michael W. Deem and Ramdas Pophale) SiO2 
 PCOD9257120
Probable space group: C 2/C
;
_chemical_formula_sum "Si O2"
_cell_formula_units_Z 52
_cell_length_a 8.428181
_cell_length_b 19.189597
_cell_length_c 21.837050
_cell_angle_alpha 90.000000
_cell_angle_beta 46.724686
_cell_angle_gamma 90.000000
_cell_volume 2571.376823
_symmetry_space_group_name_H-M "C 2/C"
_symmetry_group_IT_number 15
_symmetry_cell_setting 'monoclinic'
loop_
_space_group_symop_operation_xyz
x,y,z
-x,y,1/2-z
-x,-y,-z
x,-y,1/2+z
1/2+x,1/2+y,z
1/2-x,1/2+y,1/2-z
1/2-x,1/2-y,-z
1/2+x,1/2-y,1/2+z
loop_
_atom_site_type_symbol
_atom_site_label
_atom_site_fract_x
_atom_site_fract_y
_atom_site_fract_z
Si Si1 0.001831 0.850827 0.353456
Si Si2 0.477330 0.999580 0.106449
Si Si3 0.392810 0.236343 0.713064
Si Si4 0.265116 0.887085 0.404857
Si Si5 0.863290 0.181607 0.441915
Si Si6 0.455674 0.113921 0.501496
Si Si7 0.500000 0.467903 0.250000
O O1 0.146918 0.788737 0.288092
O O2 0.117853 0.874543 0.385100
O O3 0.748047 0.835985 0.432397
O O4 0.008526 0.915938 0.305550
O O5 0.624858 0.962696 0.118335
O O6 0.225082 0.010090 0.190430
O O7 0.576037 0.068469 0.050704
O O8 0.468510 0.940875 0.054655
O O9 0.500000 0.256670 0.750000
O O10 0.533162 0.167934 0.654628
O O11 0.429725 0.294012 0.651378
O O12 0.127709 0.870044 0.502703
O O13 0.750000 0.250000 0.500000
O O14 0.685932 0.151799 0.441341
#
# Coordination Sequence:
#
# PCOD9257120 Si02
#       7
#     8   8   8   8   8   8   4
#     4  10  19  31  56  83 111 141 196 245 278 347
#     4   9  17  32  52  78 111 143 182 232 291 348
#     4   9  17  32  53  79 102 144 194 237 276 337
#     4   9  17  32  53  80 111 143 186 233 294 348
#     4   9  18  34  54  74 108 150 190 236 287 335
#     4   9  19  33  51  80 111 142 188 233 285 355
#     4  10  18  30  54  84 108 146 190 236 284 344
#
# _framework density 20.222629000000001
#
# number of rings (size 3 to 8) (size 9 to 14) (size 15 to 20)
#    0.000    2.769    1.538    0.000    2.154    0.615 
#    1.385    6.923    0.000    0.000    0.000    0.000 
#    0.000    0.000    0.000    0.000    0.000    0.000 
#
# Total GULP energy -144955.772102 kJ/mol
# GULP energy per Si atom -5575.222004 kJ/mol
# Density = 2.017660 g / cm^3
# Si number density = 20.222629 Si / 1000 Ang^3
#
#
#
# Elastic Constant Matrix: (Units=GPa)
#
#
# Indices 1 2 3 4 5 6 
#
# 1 61.0626 15.8883 31.6960 -0.0003 2.2846 -0.0003
# 2 15.8883 24.6195 26.8888 -0.0001 -2.8517 -0.0001
# 3 31.6960 26.8888 105.9002 0.0003 -5.1831 0.0001
# 4 -0.0003 -0.0001 0.0003 12.6925 0.0002 -5.0187
# 5 2.2846 -2.8517 -5.1831 0.0002 22.3028 0.0003
# 6 -0.0003 -0.0001 0.0001 -5.0187 0.0003 16.5399
#
#
#
# Elastic Compliance Matrix: (Units=1/GPa)
#
#
# Indices 1 2 3 4 5 6 
#
# 1 0.021190 -0.009714 -0.004089 0.000001 -0.004363 0.000001
# 2 -0.009714 0.060998 -0.012290 0.000000 0.005938 0.000000
# 3 -0.004089 -0.012290 0.013889 -0.000001 0.002075 0.000000
# 4 0.000001 0.000000 -0.000001 0.089528 -0.000001 0.027166
# 5 -0.004363 0.005938 0.002075 -0.000001 0.046526 -0.000001
# 6 0.000001 0.000000 0.000000 0.027166 -0.000001 0.068703
#
#
# Mechanical properties :
#
#
# Convention : Reuss Voigt Hill
#
# Bulk Modulus (GPa) = 22.78411 37.83649 30.31030
# Shear Modulus (GPa) = 13.59990 18.11434 15.85712
#
# Velocity S-wave (km/s) = 2.59609 2.99615 2.80327
# Velocity P-wave (km/s) = 4.50304 5.54254 5.04961
#
# Compressibility (1/GPa) = 0.04389023
#
# Stress axis : x y z
#
# Youngs Moduli (GPa) = 47.19187 16.39406 72.00085
#
# Poissons Ratio (x) = 0.15926 0.29443
# Poissons Ratio (y) = 0.45844 0.88486
# Poissons Ratio (z) = 0.19298 0.20148
#
# Static dielectric constant tensor:
#      x y z
#    x 1.741990 0.000000 0.003820 
#    y 0.000000 1.706350 0.000000 
#    z 0.003820 0.000000 1.762970 
# 
# From -- ./inp_files/135992.got.cif
#   From: 2010.05.17/outbox.cif.g08.bks.cpg/sg15_68_cif.got.tgz:135992.got - 2010.06.03 18:47:42.
