data_PCOD9257790
_publ_section_title
;
Structure prediction by ZEFSAII (Michael W. Deem and Ramdas Pophale) SiO2 
 PCOD9257790
Probable space group: C 2/C
;
_chemical_formula_sum "Si O2"
_cell_formula_units_Z 56
_cell_length_a 12.599025
_cell_length_b 23.133406
_cell_length_c 24.755901
_cell_angle_alpha 90.000000
_cell_angle_beta 157.854569
_cell_angle_gamma 90.000000
_cell_volume 2719.876288
_symmetry_space_group_name_H-M "C 2/C"
_symmetry_group_IT_number 15
_symmetry_cell_setting 'monoclinic'
loop_
_space_group_symop_operation_xyz
x,y,z
-x,y,1/2-z
-x,-y,-z
x,-y,1/2+z
1/2+x,1/2+y,z
1/2-x,1/2+y,1/2-z
1/2-x,1/2-y,-z
1/2+x,1/2-y,1/2+z
loop_
_atom_site_type_symbol
_atom_site_label
_atom_site_fract_x
_atom_site_fract_y
_atom_site_fract_z
Si Si1 0.000000 0.141340 0.750000
Si Si2 0.824751 0.885670 0.008313
Si Si3 0.850736 0.705559 0.001574
Si Si4 0.326261 0.075547 0.823216
Si Si5 0.153928 0.533509 0.233877
Si Si6 0.000000 0.548009 0.750000
Si Si7 0.837671 0.800369 0.413360
Si Si8 0.159652 0.883160 0.998168
O O1 0.896212 0.183521 0.653921
O O2 0.758105 0.098487 0.657860
O O3 0.644955 0.935846 0.896862
O O4 0.593728 0.850791 0.935649
O O5 0.058388 0.909244 0.159327
O O6 0.987814 0.844208 0.043444
O O7 0.750000 0.750000 0.000000
O O8 0.070655 0.737801 0.066400
O O9 0.591298 0.112972 0.927920
O O10 0.372234 0.007631 0.831490
O O11 0.192213 0.490214 0.301860
O O12 0.400721 0.580151 0.353421
O O13 0.803550 0.584155 0.617167
O O14 0.500000 0.804563 0.250000
O O15 0.913843 0.820886 0.510327
#
# Coordination Sequence:
#
# PCOD9257790 Si02
#       8
#     4   8   8   8   8   4   8   8
#     4  10  22  44  67  86 117 176 216 242 318 392
#     4  10  20  39  59  85 124 164 199 250 313 375
#     4   9  22  40  66  88 120 162 211 262 310 372
#     4  10  20  39  60  83 122 166 199 241 311 378
#     4  11  21  33  57  93 125 158 205 256 300 366
#     4  10  18  32  53  86 125 166 192 240 330 382
#     4  11  19  37  61  88 118 164 200 257 329 363
#     4  11  20  33  56  92 124 155 207 260 305 376
#
# _framework density 20.589172000000001
#
# number of rings (size 3 to 8) (size 9 to 14) (size 15 to 20)
#    0.000    1.714    2.143    3.857    0.000    2.286 
#    2.571    7.143    0.000    0.000    0.000    0.000 
#    0.000    0.000    0.000    0.000    0.000    0.000 
#
# Total GULP energy -155979.272297 kJ/mol
# GULP energy per Si atom -5570.688296 kJ/mol
# Density = 2.054231 g / cm^3
# Si number density = 20.589172 Si / 1000 Ang^3
#
#
#
# Elastic Constant Matrix: (Units=GPa)
#
#
# Indices 1 2 3 4 5 6 
#
# 1 71.2718 26.5815 18.1499 -0.0312 17.6260 -0.0014
# 2 26.5815 57.4655 24.5197 -0.0440 18.2989 0.0080
# 3 18.1499 24.5197 71.9144 -0.0428 20.4468 -0.0025
# 4 -0.0312 -0.0440 -0.0428 21.3037 0.0166 9.1928
# 5 17.6260 18.2989 20.4468 0.0166 30.8416 0.0085
# 6 -0.0014 0.0080 -0.0025 9.1928 0.0085 21.3019
#
#
#
# Elastic Compliance Matrix: (Units=1/GPa)
#
#
# Indices 1 2 3 4 5 6 
#
# 1 0.018007 -0.006040 -0.000713 0.000018 -0.006235 -0.000002
# 2 -0.006040 0.024764 -0.004588 0.000052 -0.008200 -0.000029
# 3 -0.000713 -0.004588 0.018188 0.000037 -0.008929 -0.000008
# 4 0.000018 0.000052 0.000037 0.057682 -0.000090 -0.024893
# 5 -0.006235 -0.008200 -0.008929 -0.000090 0.046772 0.000022
# 6 -0.000002 -0.000029 -0.000008 -0.024893 0.000022 0.057687
#
#
# Mechanical properties :
#
#
# Convention : Reuss Voigt Hill
#
# Bulk Modulus (GPa) = 26.12401 37.68376 31.90389
# Shear Modulus (GPa) = 19.33943 23.44950 21.39447
#
# Velocity S-wave (km/s) = 3.06813 3.37846 3.22702
# Velocity P-wave (km/s) = 5.02663 5.79319 5.42347
#
# Compressibility (1/GPa) = 0.03827896
#
# Stress axis : x y z
#
# Youngs Moduli (GPa) = 55.53454 40.38082 54.98086
#
# Poissons Ratio (x) = 0.24389 0.03917
# Poissons Ratio (y) = 0.33542 0.25224
# Poissons Ratio (z) = 0.03957 0.18526
#
# Static dielectric constant tensor:
#      x y z
#    x 1.793190 0.000010 0.022860 
#    y 0.000010 1.833610 -0.000030 
#    z 0.022860 -0.000030 1.715450 
# 
# From -- ./inp_files/293972.got.cif
#   From: 2010.05.17/outbox.cif.g08.bks.cpg/sg15_147_cif.got.tgz:293972.got - 2010.06.03 18:47:42.
