data_PCOD9257872
_publ_section_title
;
Structure prediction by ZEFSAII (Michael W. Deem and Ramdas Pophale) SiO2 
 PCOD9257872
Probable space group: C 2/C
;
_chemical_formula_sum "Si O2"
_cell_formula_units_Z 60
_cell_length_a 18.402123
_cell_length_b 9.797188
_cell_length_c 20.924361
_cell_angle_alpha 90.000000
_cell_angle_beta 131.592366
_cell_angle_gamma 90.000000
_cell_volume 2821.352140
_symmetry_space_group_name_H-M "C 2/C"
_symmetry_group_IT_number 15
_symmetry_cell_setting 'monoclinic'
loop_
_space_group_symop_operation_xyz
x,y,z
-x,y,1/2-z
-x,-y,-z
x,-y,1/2+z
1/2+x,1/2+y,z
1/2-x,1/2+y,1/2-z
1/2-x,1/2-y,-z
1/2+x,1/2-y,1/2+z
loop_
_atom_site_type_symbol
_atom_site_label
_atom_site_fract_x
_atom_site_fract_y
_atom_site_fract_z
Si Si1 0.048587 0.302419 0.626497
Si Si2 0.645449 0.171385 0.766890
Si Si3 0.828649 0.978673 0.715160
Si Si4 0.851225 0.940596 0.377582
Si Si5 0.000000 0.520918 0.250000
Si Si6 0.851057 0.735021 0.178408
Si Si7 0.117262 0.573648 0.615460
Si Si8 0.122573 0.806661 0.523912
O O1 0.945846 0.222617 0.576906
O O2 0.119810 0.304003 0.730498
O O3 0.046995 0.458421 0.601871
O O4 0.099483 0.205302 0.603799
O O5 0.641925 0.326945 0.787362
O O6 0.743765 0.091609 0.841909
O O7 0.554245 0.082488 0.734868
O O8 0.651381 0.168129 0.693943
O O9 0.850999 0.000674 0.804313
O O10 0.712080 0.995952 0.644636
O O11 0.869169 0.101803 0.694618
O O12 0.895534 0.049531 0.452278
O O13 0.917937 0.628167 0.179053
O O14 0.739245 0.713595 0.092095
O O15 0.084051 0.683216 0.545424
#
# Coordination Sequence:
#
# PCOD9257872 Si02
#       8
#     8   8   8   8   4   8   8   8
#     4  11  20  34  57  89 117 144 178 235 296 339
#     4  11  19  33  58  80 111 152 189 229 287 322
#     4   9  18  33  58  82 113 147 173 241 289 326
#     4  10  18  32  54  87 115 137 183 228 287 353
#     4  12  22  36  60  76 108 158 200 244 258 336
#     4  10  22  38  55  81 115 149 199 225 273 343
#     4  10  18  32  54  87 115 137 183 228 287 353
#     4  11  20  34  57  89 117 144 178 235 296 339
#
# _framework density 21.266399
#
# number of rings (size 3 to 8) (size 9 to 14) (size 15 to 20)
#    0.000    1.600    5.333    2.400    0.000    0.533 
#    0.000    0.667    0.000    0.000    0.000    8.400 
#    0.000    0.000    0.000    0.000    0.000    0.000 
#
# Total GULP energy -167023.987708 kJ/mol
# GULP energy per Si atom -5567.466257 kJ/mol
# Density = 2.121800 g / cm^3
# Si number density = 21.266399 Si / 1000 Ang^3
#
#
#
# Elastic Constant Matrix: (Units=GPa)
#
#
# Indices 1 2 3 4 5 6 
#
# 1 50.1073 33.1594 18.8062 0.0000 17.6851 0.0000
# 2 33.1594 150.6632 3.8251 0.0000 9.2797 0.0000
# 3 18.8062 3.8251 40.5263 0.0000 25.1328 0.0000
# 4 0.0000 0.0000 0.0000 17.9529 0.0000 8.6095
# 5 17.6851 9.2797 25.1328 0.0000 24.0672 0.0000
# 6 0.0000 0.0000 0.0000 8.6095 0.0000 33.5429
#
#
#
# Elastic Compliance Matrix: (Units=1/GPa)
#
#
# Indices 1 2 3 4 5 6 
#
# 1 0.031001 -0.005674 -0.003064 0.000000 -0.017392 0.000000
# 2 -0.005674 0.007950 0.003400 0.000000 -0.002446 0.000000
# 3 -0.003064 0.003400 0.071493 0.000000 -0.073718 0.000000
# 4 0.000000 0.000000 0.000000 0.063520 0.000000 -0.016304
# 5 -0.017392 -0.002446 -0.073718 0.000000 0.132255 0.000000
# 6 0.000000 0.000000 0.000000 -0.016304 0.000000 0.033997
#
#
# Mechanical properties :
#
#
# Convention : Reuss Voigt Hill
#
# Bulk Modulus (GPa) = 10.02334 39.20870 24.61602
# Shear Modulus (GPa) = 13.01577 27.47967 20.24772
#
# Velocity S-wave (km/s) = 2.47662 3.59857 3.08896
# Velocity P-wave (km/s) = 3.59188 5.97856 4.93178
#
# Compressibility (1/GPa) = 0.09976714
#
# Stress axis : x y z
#
# Youngs Moduli (GPa) = 32.25749 125.77904 13.98736
#
# Poissons Ratio (x) = 0.71365 0.04286
# Poissons Ratio (y) = 0.18302 -0.04755
# Poissons Ratio (z) = 0.09885 -0.42762
#
# Static dielectric constant tensor:
#      x y z
#    x 1.832660 0.000000 0.032160 
#    y 0.000000 1.760700 0.000000 
#    z 0.032160 0.000000 1.937030 
# 
# From -- ./inp_files/300538.got.cif
#   From: 2010.05.17/outbox.cif.g08.bks.cpg/sg15_151_cif.got.tgz:300538.got - 2010.06.03 18:47:42.
