data_PCOD9257521
_publ_section_title
;
Structure prediction by ZEFSAII (Michael W. Deem and Ramdas Pophale) SiO2 
 PCOD9257521
Probable space group: C 2/C
;
_chemical_formula_sum "Si O2"
_cell_formula_units_Z 56
_cell_length_a 16.331419
_cell_length_b 11.210494
_cell_length_c 29.915807
_cell_angle_alpha 90.000000
_cell_angle_beta 155.439640
_cell_angle_gamma 90.000000
_cell_volume 2276.558905
_symmetry_space_group_name_H-M "C 2/C"
_symmetry_group_IT_number 15
_symmetry_cell_setting 'monoclinic'
loop_
_space_group_symop_operation_xyz
x,y,z
-x,y,1/2-z
-x,-y,-z
x,-y,1/2+z
1/2+x,1/2+y,z
1/2-x,1/2+y,1/2-z
1/2-x,1/2-y,-z
1/2+x,1/2-y,1/2+z
loop_
_atom_site_type_symbol
_atom_site_label
_atom_site_fract_x
_atom_site_fract_y
_atom_site_fract_z
Si Si1 0.417738 0.299190 0.930495
Si Si2 0.796299 0.465351 0.362971
Si Si3 0.902685 0.145088 0.068859
Si Si4 0.019952 0.434068 0.712334
Si Si5 0.843581 0.048464 0.610941
Si Si6 0.370085 0.299622 0.003156
Si Si7 0.844832 0.643304 0.311277
O O1 0.547372 0.368344 0.958696
O O2 0.186531 0.338612 0.812553
O O3 0.489963 0.317645 0.016744
O O4 0.409586 0.159277 0.915618
O O5 0.763572 0.502822 0.398092
O O6 0.574594 0.443327 0.235797
O O7 0.879803 0.568607 0.373465
O O8 0.827229 0.031720 0.058935
O O9 0.117026 0.178895 0.195286
O O10 0.750000 0.250000 0.000000
O O11 0.117106 0.448686 0.711047
O O12 0.000000 0.506345 0.750000
O O13 0.802849 0.396511 0.587409
O O14 0.757762 0.179281 0.563688
O O15 0.520071 0.262554 0.117288
#
# Coordination Sequence:
#
# PCOD9257521 Si02
#       7
#     8   8   8   8   8   8   8
#     4   9  18  32  54  80 109 146 173 215 276 334
#     4   9  17  32  52  82 112 136 180 221 268 326
#     4  10  22  35  47  73 116 154 174 206 278 346
#     4   9  17  34  53  77 104 135 172 222 277 320
#     4   9  18  32  53  81 111 145 171 227 274 326
#     4  10  18  31  57  83 106 131 182 234 273 311
#     4  10  21  31  50  83 102 134 182 226 265 318
#
# _framework density 24.598528999999999
#
# number of rings (size 3 to 8) (size 9 to 14) (size 15 to 20)
#    0.000    2.571    1.429    0.429    4.000    1.143 
#    0.000    0.000    0.000    0.000   18.571    5.000 
#    0.000    0.000    0.000    0.000    0.000    0.000 
#
# Total GULP energy -156164.467916 kJ/mol
# GULP energy per Si atom -5577.302426 kJ/mol
# Density = 2.454254 g / cm^3
# Si number density = 24.598529 Si / 1000 Ang^3
#
#
#
# Elastic Constant Matrix: (Units=GPa)
#
#
# Indices 1 2 3 4 5 6 
#
# 1 174.0053 25.6258 28.8767 -0.0002 -21.8368 -0.0003
# 2 25.6258 24.6744 16.0009 -0.0007 -0.4922 -0.0001
# 3 28.8767 16.0009 83.4691 -0.0002 -8.2241 0.0003
# 4 -0.0002 -0.0007 -0.0002 20.3034 0.0000 -2.6013
# 5 -21.8368 -0.4922 -8.2241 0.0000 28.3098 0.0000
# 6 -0.0003 -0.0001 0.0003 -2.6013 0.0000 29.0156
#
#
#
# Elastic Compliance Matrix: (Units=1/GPa)
#
#
# Indices 1 2 3 4 5 6 
#
# 1 0.007648 -0.007390 -0.000680 0.000000 0.005573 0.000000
# 2 -0.007390 0.053515 -0.008413 0.000002 -0.007214 0.000000
# 3 -0.000680 -0.008413 0.014168 0.000000 0.003445 0.000000
# 4 0.000000 0.000002 0.000000 0.049825 0.000000 0.004467
# 5 0.005573 -0.007214 0.003445 0.000000 0.040498 0.000000
# 6 0.000000 0.000000 0.000000 0.004467 0.000000 0.034865
#
#
# Mechanical properties :
#
#
# Convention : Reuss Voigt Hill
#
# Bulk Modulus (GPa) = 23.60489 47.01731 35.31110
# Shear Modulus (GPa) = 20.19349 29.63545 24.91447
#
# Velocity S-wave (km/s) = 2.86828 3.47474 3.18597
# Velocity P-wave (km/s) = 4.53721 5.93749 5.28394
#
# Compressibility (1/GPa) = 0.04236410
#
# Stress axis : x y z
#
# Youngs Moduli (GPa) = 130.76109 18.68648 70.58237
#
# Poissons Ratio (x) = 0.13810 0.04799
# Poissons Ratio (y) = 0.96637 0.59379
# Poissons Ratio (z) = 0.08891 0.15720
#
# Static dielectric constant tensor:
#      x y z
#    x 2.063610 0.000000 -0.039510 
#    y 0.000000 1.932590 0.000000 
#    z -0.039510 0.000000 2.002610 
# 
# From -- ./inp_files/274147.got.cif
#   From: 2010.05.17/outbox.cif.g08.bks.cpg/sg15_138_cif.got.tgz:274147.got - 2010.06.03 18:47:42.
