data_PCOD9257226
_publ_section_title
;
Structure prediction by ZEFSAII (Michael W. Deem and Ramdas Pophale) SiO2 
 PCOD9257226
Probable space group: C 2/C
;
_chemical_formula_sum "Si O2"
_cell_formula_units_Z 64
_cell_length_a 27.577217
_cell_length_b 12.107031
_cell_length_c 11.890923
_cell_angle_alpha 90.000000
_cell_angle_beta 103.731941
_cell_angle_gamma 90.000000
_cell_volume 3856.642024
_symmetry_space_group_name_H-M "C 2/C"
_symmetry_group_IT_number 15
_symmetry_cell_setting 'monoclinic'
loop_
_space_group_symop_operation_xyz
x,y,z
-x,y,1/2-z
-x,-y,-z
x,-y,1/2+z
1/2+x,1/2+y,z
1/2-x,1/2+y,1/2-z
1/2-x,1/2-y,-z
1/2+x,1/2-y,1/2+z
loop_
_atom_site_type_symbol
_atom_site_label
_atom_site_fract_x
_atom_site_fract_y
_atom_site_fract_z
Si Si1 0.667531 0.223841 0.495340
Si Si2 0.327774 0.411798 0.312290
Si Si3 0.469880 0.607775 0.344522
Si Si4 0.855343 0.161156 0.291466
Si Si5 0.261990 0.587708 0.571003
Si Si6 0.002284 0.145887 0.600690
Si Si7 0.793903 0.160616 0.032190
Si Si8 0.586377 0.298716 0.290806
O O1 0.650924 0.250498 0.612845
O O2 0.701194 0.329017 0.474959
O O3 0.705602 0.122446 0.515285
O O4 0.621227 0.217272 0.383146
O O5 0.335151 0.543148 0.326749
O O6 0.277955 0.394752 0.210000
O O7 0.323195 0.351892 0.429644
O O8 0.373587 0.367736 0.260491
O O9 0.500000 0.632496 0.250000
O O10 0.413158 0.641508 0.299781
O O11 0.493188 0.665950 0.465908
O O12 0.474371 0.476110 0.370561
O O13 0.827598 0.187152 0.159624
O O14 0.272641 0.462278 0.543676
O O15 0.041733 0.229850 0.679073
O O16 0.948410 0.142218 0.633456
O O17 0.750000 0.250000 0.000000
#
# Coordination Sequence:
#
# PCOD9257226 Si02
#       8
#     8   8   8   8   8   8   8   8
#     4  10  18  34  52  72  97 136 181 205 251 309
#     4  10  19  32  49  71 104 136 174 206 260 310
#     4  11  20  28  45  71 107 144 163 202 260 323
#     4  11  20  31  52  73 105 146 172 200 262 315
#     4   9  20  34  53  71  97 135 174 219 253 301
#     4  10  19  29  43  70 106 133 173 207 253 311
#     4  11  23  36  52  76 106 137 174 223 263 305
#     4  10  18  31  47  70 100 140 166 215 248 310
#
# _framework density 16.594747999999999
#
# number of rings (size 3 to 8) (size 9 to 14) (size 15 to 20)
#    0.000    1.750    5.000    0.750    1.750    0.000 
#    0.000    0.000    0.000    0.000    0.000    0.000 
#    3.750    6.000    0.000    0.000    0.000    0.000 
#
# Total GULP energy -178182.661540 kJ/mol
# GULP energy per Si atom -5568.208173 kJ/mol
# Density = 1.655698 g / cm^3
# Si number density = 16.594748 Si / 1000 Ang^3
#
#
#
# Elastic Constant Matrix: (Units=GPa)
#
#
# Indices 1 2 3 4 5 6 
#
# 1 96.4750 15.3559 59.2872 0.0000 16.7935 0.0000
# 2 15.3559 19.6018 16.2881 0.0000 4.7514 0.0000
# 3 59.2872 16.2881 144.5042 0.0000 5.3439 0.0000
# 4 0.0000 0.0000 0.0000 11.8842 0.0000 7.2099
# 5 16.7935 4.7514 5.3439 0.0000 30.0187 0.0000
# 6 0.0000 0.0000 0.0000 7.2099 0.0000 20.5596
#
#
#
# Elastic Compliance Matrix: (Units=1/GPa)
#
#
# Indices 1 2 3 4 5 6 
#
# 1 0.016017 -0.006189 -0.005616 0.000000 -0.006981 0.000000
# 2 -0.006189 0.060570 -0.004088 0.000000 -0.005397 0.000000
# 3 -0.005616 -0.004088 0.009608 0.000000 0.002078 0.000000
# 4 0.000000 0.000000 0.000000 0.106885 0.000000 -0.037483
# 5 -0.006981 -0.005397 0.002078 0.000000 0.037702 0.000000
# 6 0.000000 0.000000 0.000000 -0.037483 0.000000 0.061784
#
#
# Mechanical properties :
#
#
# Convention : Reuss Voigt Hill
#
# Bulk Modulus (GPa) = 18.37944 49.16036 33.76990
# Shear Modulus (GPa) = 14.59907 23.80248 19.20078
#
# Velocity S-wave (km/s) = 2.96926 3.79137 3.40522
# Velocity P-wave (km/s) = 4.78067 6.98959 5.98787
#
# Compressibility (1/GPa) = 0.05440862
#
# Stress axis : x y z
#
# Youngs Moduli (GPa) = 62.43533 16.50993 104.07847
#
# Poissons Ratio (x) = 0.10218 0.58446
# Poissons Ratio (y) = 0.38640 0.42552
# Poissons Ratio (z) = 0.35061 0.06750
#
# Static dielectric constant tensor:
#      x y z
#    x 1.566140 0.000000 0.004490 
#    y 0.000000 1.542550 0.000000 
#    z 0.004490 0.000000 1.606120 
# 
# From -- ./inp_files/117625.got.cif
#   From: 2010.05.17/outbox.cif.g08.bks.cpg/sg15_59_cif.got.tgz:117625.got - 2010.06.03 18:47:42.
