data_PCOD9257044
_publ_section_title
;
Structure prediction by ZEFSAII (Michael W. Deem and Ramdas Pophale) SiO2 
 PCOD9257044
Probable space group: C 2/C
;
_chemical_formula_sum "Si O2"
_cell_formula_units_Z 48
_cell_length_a 18.783737
_cell_length_b 8.642513
_cell_length_c 11.503976
_cell_angle_alpha 90.000000
_cell_angle_beta 58.476043
_cell_angle_gamma 90.000000
_cell_volume 1591.931816
_symmetry_space_group_name_H-M "C 2/C"
_symmetry_group_IT_number 15
_symmetry_cell_setting 'monoclinic'
loop_
_space_group_symop_operation_xyz
x,y,z
-x,y,1/2-z
-x,-y,-z
x,-y,1/2+z
1/2+x,1/2+y,z
1/2-x,1/2+y,1/2-z
1/2-x,1/2-y,-z
1/2+x,1/2-y,1/2+z
loop_
_atom_site_type_symbol
_atom_site_label
_atom_site_fract_x
_atom_site_fract_y
_atom_site_fract_z
Si Si1 0.830117 0.158674 0.629014
Si Si2 0.000000 0.630863 0.750000
Si Si3 0.071163 0.873573 0.845533
Si Si4 0.575813 0.120756 0.320270
Si Si5 0.673694 0.791414 0.420908
Si Si6 0.234396 0.485838 0.552616
Si Si7 0.000000 0.109833 0.750000
O O1 0.903076 0.283729 0.581290
O O2 0.746617 0.215518 0.763580
O O3 0.860003 0.002665 0.673312
O O4 0.795738 0.124191 0.530656
O O5 0.069338 0.752994 0.738817
O O6 0.004392 0.503281 0.851521
O O7 0.085192 0.753810 0.940863
O O8 0.997616 0.991752 0.863482
O O9 0.660830 0.032808 0.210016
O O10 0.566960 0.264173 0.236671
O O11 0.700845 0.655102 0.484530
O O12 0.687669 0.954087 0.472864
#
# Coordination Sequence:
#
# PCOD9257044 Si02
#       7
#     8   4   8   8   8   8   4
#     4   9  17  31  52  75  99 127 162 206 254 297
#     4  10  18  30  52  70  94 136 168 200 246 294
#     4   9  17  30  49  72  98 130 169 204 244 295
#     4   9  17  30  49  72  98 130 169 204 244 295
#     4   9  17  30  51  77 101 127 163 207 252 296
#     4   9  17  30  51  77 101 127 163 207 252 296
#     4   8  16  30  48  70  96 136 176 202 234 288
#
# _framework density 30.152045000000001
#
# number of rings (size 3 to 8) (size 9 to 14) (size 15 to 20)
#    0.000    3.000    0.000    1.000    0.000    0.000 
#    0.000    1.667    0.000   37.000    0.000    0.000 
#    0.000    0.000    0.000    0.000    0.000    0.167 
#
# Total GULP energy -133653.653590 kJ/mol
# GULP energy per Si atom -5568.902233 kJ/mol
# Density = 3.008342 g / cm^3
# Si number density = 30.152045 Si / 1000 Ang^3
#
#
#
# Elastic Constant Matrix: (Units=GPa)
#
#
# Indices 1 2 3 4 5 6 
#
# 1 231.4277 120.9882 58.8291 0.0000 37.4676 0.0000
# 2 120.9882 191.0035 67.0460 0.0000 22.0246 0.0000
# 3 58.8291 67.0460 53.2229 0.0000 1.6071 0.0000
# 4 0.0000 0.0000 0.0000 33.2383 0.0000 25.8966
# 5 37.4676 22.0246 1.6071 0.0000 35.5474 0.0000
# 6 0.0000 0.0000 0.0000 25.8966 0.0000 126.7715
#
#
#
# Elastic Compliance Matrix: (Units=1/GPa)
#
#
# Indices 1 2 3 4 5 6 
#
# 1 0.008130 -0.002285 -0.005901 0.000000 -0.006887 0.000000
# 2 -0.002285 0.011138 -0.011385 0.000000 -0.003978 0.000000
# 3 -0.005901 -0.011385 0.039306 0.000000 0.011497 0.000000
# 4 0.000000 0.000000 0.000000 0.035780 0.000000 -0.007309
# 5 -0.006887 -0.003978 0.011497 0.000000 0.037336 0.000000
# 6 0.000000 0.000000 0.000000 -0.007309 0.000000 0.009381
#
#
# Mechanical properties :
#
#
# Convention : Reuss Voigt Hill
#
# Bulk Modulus (GPa) = 51.45817 107.70895 79.58356
# Shear Modulus (GPa) = 26.78219 54.36416 40.57317
#
# Velocity S-wave (km/s) = 2.98357 4.25078 3.67225
# Velocity P-wave (km/s) = 5.38258 7.73897 6.66573
#
# Compressibility (1/GPa) = 0.01943326
#
# Stress axis : x y z
#
# Youngs Moduli (GPa) = 122.99473 89.78486 25.44114
#
# Poissons Ratio (x) = 0.20512 0.15013
# Poissons Ratio (y) = 0.28099 0.28965
# Poissons Ratio (z) = 0.72579 1.02221
#
# Static dielectric constant tensor:
#      x y z
#    x 2.269130 0.000000 0.067970 
#    y 0.000000 2.349400 0.000000 
#    z 0.067970 0.000000 2.410350 
# 
# From -- ./inp_files/166192.got.cif
#   From: 2010.05.17/outbox.cif.g08.bks.cpg/sg15_84_cif.got.tgz:166192.got - 2010.06.03 18:47:42.
