data_PCOD9257338
_publ_section_title
;
Structure prediction by ZEFSAII (Michael W. Deem and Ramdas Pophale) SiO2 
 PCOD9257338
Probable space group: C 2/C
;
_chemical_formula_sum "Si O2"
_cell_formula_units_Z 40
_cell_length_a 14.530912
_cell_length_b 14.776163
_cell_length_c 12.658778
_cell_angle_alpha 90.000000
_cell_angle_beta 35.793801
_cell_angle_gamma 90.000000
_cell_volume 1589.665012
_symmetry_space_group_name_H-M "C 2/C"
_symmetry_group_IT_number 15
_symmetry_cell_setting 'monoclinic'
loop_
_space_group_symop_operation_xyz
x,y,z
-x,y,1/2-z
-x,-y,-z
x,-y,1/2+z
1/2+x,1/2+y,z
1/2-x,1/2+y,1/2-z
1/2-x,1/2-y,-z
1/2+x,1/2-y,1/2+z
loop_
_atom_site_type_symbol
_atom_site_label
_atom_site_fract_x
_atom_site_fract_y
_atom_site_fract_z
Si Si1 0.046181 0.196537 0.359604
Si Si2 0.475013 0.657671 0.666837
Si Si3 0.897786 0.627344 0.011157
Si Si4 0.374491 0.479162 0.023373
Si Si5 0.152249 0.566561 0.915005
O O1 0.225976 0.170397 0.177954
O O2 0.016836 0.196917 0.513771
O O3 0.004121 0.295971 0.359195
O O4 0.932758 0.116296 0.422377
O O5 0.500000 0.714298 0.750000
O O6 0.593777 0.570151 0.571010
O O7 0.292424 0.628218 0.826515
O O8 0.868891 0.525092 0.997953
O O9 0.987030 0.610932 0.040097
O O10 0.217691 0.463041 0.236324
O O11 0.500000 0.500000 0.000000
#
# Coordination Sequence:
#
# PCOD9257338 Si02
#       5
#     8   8   8   8   8
#     4  10  18  31  51  80 100 134 171 216 247 293
#     4  10  18  34  54  75 108 138 165 201 262 313
#     4  11  18  31  55  77 105 125 182 214 250 291
#     4   8  14  32  50  71  99 127 176 205 244 294
#     4   9  18  33  53  77  98 136 173 212 249 302
#
# _framework density 25.162533
#
# number of rings (size 3 to 8) (size 9 to 14) (size 15 to 20)
#    0.000    2.800    6.000    2.400    0.000    0.000 
#    0.000    5.000    0.000    1.200    0.000    0.000 
#    0.000    0.000    0.000    0.000    0.000    0.000 
#
# Total GULP energy -111493.454667 kJ/mol
# GULP energy per Si atom -5574.672733 kJ/mol
# Density = 2.510526 g / cm^3
# Si number density = 25.162533 Si / 1000 Ang^3
#
#
#
# Elastic Constant Matrix: (Units=GPa)
#
#
# Indices 1 2 3 4 5 6 
#
# 1 78.2401 -7.7187 38.1136 0.0000 14.2786 0.0000
# 2 -7.7187 115.2550 17.2959 0.0000 -13.5791 0.0000
# 3 38.1136 17.2959 64.1382 0.0001 -29.6129 0.0000
# 4 0.0000 0.0000 0.0001 33.1313 0.0000 -14.0468
# 5 14.2786 -13.5791 -29.6129 0.0000 42.1703 0.0000
# 6 0.0000 0.0000 0.0000 -14.0468 0.0000 1.7670
#
#
#
# Elastic Compliance Matrix: (Units=1/GPa)
#
#
# Indices 1 2 3 4 5 6 
#
# 1 0.053537 0.005740 -0.060490 0.000000 -0.058756 0.000000
# 2 0.005740 0.009749 -0.008121 0.000000 -0.004507 0.000000
# 3 -0.060490 -0.008121 0.091710 0.000000 0.082267 0.000000
# 4 0.000000 0.000000 0.000000 -0.012733 0.000000 -0.101224
# 5 -0.058756 -0.004507 0.082267 0.000000 0.099926 0.000000
# 6 0.000000 0.000000 0.000000 -0.101224 0.000000 -0.238752
#
#
# Mechanical properties :
#
#
# Convention : Reuss Voigt Hill
#
# Bulk Modulus (GPa) = 34.18295 39.22389 36.70342
# Shear Modulus (GPa) = 35.98934 29.40990 32.69962
#
# Velocity S-wave (km/s) = 3.78600 3.42248 3.60882
# Velocity P-wave (km/s) = 5.72067 5.58926 5.65535
#
# Compressibility (1/GPa) = 0.02925435
#
# Stress axis : x y z
#
# Youngs Moduli (GPa) = 18.67854 102.57972 10.90389
#
# Poissons Ratio (x) = -0.58885 0.65958
# Poissons Ratio (y) = -0.10722 0.08855
# Poissons Ratio (z) = 1.12987 0.83307
#
# Static dielectric constant tensor:
#      x y z
#    x 1.979740 0.000000 0.023930 
#    y 0.000000 2.158820 0.000000 
#    z 0.023930 0.000000 2.028310 
# 
# From -- ./inp_files/211032.got.cif
#   From: 2010.05.17/outbox.cif.g08.bks.cpg/sg15_106_cif.got.tgz:211032.got - 2010.06.03 18:47:42.
