data_PCOD9257569
_publ_section_title
;
Structure prediction by ZEFSAII (Michael W. Deem and Ramdas Pophale) SiO2 
 PCOD9257569
Probable space group: C 2/C
;
_chemical_formula_sum "Si O2"
_cell_formula_units_Z 48
_cell_length_a 14.830591
_cell_length_b 11.131540
_cell_length_c 16.978227
_cell_angle_alpha 90.000000
_cell_angle_beta 44.119251
_cell_angle_gamma 90.000000
_cell_volume 1951.243165
_symmetry_space_group_name_H-M "C 2/C"
_symmetry_group_IT_number 15
_symmetry_cell_setting 'monoclinic'
loop_
_space_group_symop_operation_xyz
x,y,z
-x,y,1/2-z
-x,-y,-z
x,-y,1/2+z
1/2+x,1/2+y,z
1/2-x,1/2+y,1/2-z
1/2-x,1/2-y,-z
1/2+x,1/2-y,1/2+z
loop_
_atom_site_type_symbol
_atom_site_label
_atom_site_fract_x
_atom_site_fract_y
_atom_site_fract_z
Si Si1 0.154547 0.743980 0.137364
Si Si2 0.282433 0.988463 0.104645
Si Si3 0.839885 0.806864 0.740804
Si Si4 0.155837 0.061979 0.423837
Si Si5 0.583167 0.309760 0.421726
Si Si6 0.483858 0.899555 0.099531
O O1 0.201312 0.869712 0.145395
O O2 0.209402 0.620362 0.139973
O O3 0.000000 0.739945 0.250000
O O4 0.250000 0.750000 0.000000
O O5 0.365946 0.971718 0.133250
O O6 0.191663 0.104884 0.168091
O O7 0.393020 0.014089 0.969412
O O8 0.876773 0.892663 0.644773
O O9 0.704244 0.744947 0.800822
O O10 0.934495 0.694374 0.695175
O O11 0.038584 0.127965 0.544820
O O12 0.144226 0.919676 0.433822
O O13 0.528179 0.197012 0.504686
#
# Coordination Sequence:
#
# PCOD9257569 Si02
#       6
#     8   8   8   8   8   8
#     4  12  29  44  63  90 141 194 218 260 316 427
#     4  10  20  39  59  94 135 163 221 267 343 396
#     4  10  18  31  63  94 120 155 195 294 342 369
#     4  10  21  35  56  91 123 161 213 259 328 394
#     4   9  18  32  57  88 118 145 194 287 327 362
#     4   9  18  33  60  93 119 155 197 295 331 370
#
# _framework density 24.599701
#
# number of rings (size 3 to 8) (size 9 to 14) (size 15 to 20)
#    0.000    2.000    3.333    1.000    2.333    4.000 
#    0.000    0.000    0.000   13.000    0.000    0.000 
#    0.000    0.000    0.000    0.000    0.000    0.000 
#
# Total GULP energy -133688.556946 kJ/mol
# GULP energy per Si atom -5570.356539 kJ/mol
# Density = 2.454371 g / cm^3
# Si number density = 24.599701 Si / 1000 Ang^3
#
#
#
# Elastic Constant Matrix: (Units=GPa)
#
#
# Indices 1 2 3 4 5 6 
#
# 1 43.9918 38.0744 35.1490 0.0000 -28.5752 0.0000
# 2 38.0744 150.6142 42.5636 0.0000 -34.8496 0.0000
# 3 35.1490 42.5636 111.5517 0.0000 -33.2230 0.0000
# 4 0.0000 0.0000 0.0000 64.4989 0.0000 -21.3559
# 5 -28.5752 -34.8496 -33.2230 0.0000 30.8112 0.0000
# 6 0.0000 0.0000 0.0000 -21.3559 0.0000 29.7132
#
#
#
# Elastic Compliance Matrix: (Units=1/GPa)
#
#
# Indices 1 2 3 4 5 6 
#
# 1 0.058920 -0.002906 -0.003183 0.000000 0.047925 0.000000
# 2 -0.002906 0.009163 -0.000437 0.000000 0.007198 0.000000
# 3 -0.003183 -0.000437 0.013416 0.000000 0.011020 0.000000
# 4 0.000000 0.000000 0.000000 0.020346 0.000000 0.014623
# 5 0.047925 0.007198 0.011020 0.000000 0.096927 0.000000
# 6 0.000000 0.000000 0.000000 0.014623 0.000000 0.044166
#
#
# Mechanical properties :
#
#
# Convention : Reuss Voigt Hill
#
# Bulk Modulus (GPa) = 14.60977 59.74799 37.17888
# Shear Modulus (GPa) = 17.93364 37.69603 27.81483
#
# Velocity S-wave (km/s) = 2.70296 3.91881 3.36623
# Velocity P-wave (km/s) = 3.96147 6.69454 5.50046
#
# Compressibility (1/GPa) = 0.06844737
#
# Stress axis : x y z
#
# Youngs Moduli (GPa) = 16.97218 109.13434 74.53672
#
# Poissons Ratio (x) = 0.31715 0.23725
# Poissons Ratio (y) = 0.04932 0.03256
# Poissons Ratio (z) = 0.05402 0.04768
#
# Static dielectric constant tensor:
#      x y z
#    x 2.011380 0.000000 0.041430 
#    y 0.000000 1.915630 0.000000 
#    z 0.041430 0.000000 2.146290 
# 
# From -- ./inp_files/248295.got.cif
#   From: 2010.05.17/outbox.cif.g08.bks.cpg/sg15_125_cif.got.tgz:248295.got - 2010.06.03 18:47:42.
