data_PCOD9257169
_publ_section_title
;
Structure prediction by ZEFSAII (Michael W. Deem and Ramdas Pophale) SiO2 
 PCOD9257169
Probable space group: C 2/C
;
_chemical_formula_sum "Si O2"
_cell_formula_units_Z 52
_cell_length_a 17.335143
_cell_length_b 8.820816
_cell_length_c 16.703098
_cell_angle_alpha 90.000000
_cell_angle_beta 61.480182
_cell_angle_gamma 90.000000
_cell_volume 2244.140949
_symmetry_space_group_name_H-M "C 2/C"
_symmetry_group_IT_number 15
_symmetry_cell_setting 'monoclinic'
loop_
_space_group_symop_operation_xyz
x,y,z
-x,y,1/2-z
-x,-y,-z
x,-y,1/2+z
1/2+x,1/2+y,z
1/2-x,1/2+y,1/2-z
1/2-x,1/2-y,-z
1/2+x,1/2-y,1/2+z
loop_
_atom_site_type_symbol
_atom_site_label
_atom_site_fract_x
_atom_site_fract_y
_atom_site_fract_z
Si Si1 0.392765 0.585815 0.130149
Si Si2 0.285020 0.625265 0.582835
Si Si3 0.500000 0.722556 0.250000
Si Si4 0.140924 0.365743 0.266339
Si Si5 0.443777 0.202105 0.456634
Si Si6 0.917049 0.991143 0.393804
Si Si7 0.130396 0.574850 0.421760
O O1 0.338645 0.439902 0.132750
O O2 0.335284 0.698179 0.213175
O O3 0.410338 0.685282 0.042673
O O4 0.489560 0.538388 0.111424
O O5 0.186300 0.595124 0.659900
O O6 0.331634 0.544228 0.485289
O O7 0.305512 0.802294 0.572150
O O8 0.537871 0.833373 0.299448
O O9 0.424607 0.603332 0.314363
O O10 0.158841 0.481162 0.328919
O O11 0.425358 0.307533 0.387806
O O12 0.542966 0.160187 0.432273
O O13 0.393040 0.045996 0.497233
#
# Coordination Sequence:
#
# PCOD9257169 Si02
#       7
#     8   8   4   8   8   8   8
#     4   9  16  32  52  83 107 136 177 217 280 330
#     4  11  18  32  59  86 108 135 174 236 285 310
#     4  10  24  40  52  70 106 162 198 202 248 336
#     4  10  22  34  52  80 115 145 178 223 263 326
#     4   9  16  29  54  83 103 135 167 221 280 317
#     4  10  18  35  57  73 108 149 189 210 258 340
#     4  10  18  30  56  90 112 123 168 237 289 309
#
# _framework density 23.171451000000001
#
# number of rings (size 3 to 8) (size 9 to 14) (size 15 to 20)
#    0.000    2.154    3.077    1.846    2.154    0.615 
#    0.000    0.769    0.000    0.923    0.000    0.000 
#    0.000    0.000    0.000    0.000    0.000    0.000 
#
# Total GULP energy -144774.773573 kJ/mol
# GULP energy per Si atom -5568.260522 kJ/mol
# Density = 2.311871 g / cm^3
# Si number density = 23.171451 Si / 1000 Ang^3
#
#
#
# Elastic Constant Matrix: (Units=GPa)
#
#
# Indices 1 2 3 4 5 6 
#
# 1 21.9762 15.4822 -10.4596 0.0000 -1.6117 0.0000
# 2 15.4822 104.9473 19.3102 0.0000 -10.1332 0.0000
# 3 -10.4596 19.3102 98.4628 0.0000 -17.6724 0.0000
# 4 0.0000 0.0000 0.0000 19.1813 0.0000 -7.7137
# 5 -1.6117 -10.1332 -17.6724 0.0000 18.4949 0.0000
# 6 0.0000 0.0000 0.0000 -7.7137 0.0000 6.4058
#
#
#
# Elastic Compliance Matrix: (Units=1/GPa)
#
#
# Indices 1 2 3 4 5 6 
#
# 1 0.057273 -0.009335 0.009526 0.000000 0.008979 0.000000
# 2 -0.009335 0.011699 -0.002754 0.000000 0.002965 0.000000
# 3 0.009526 -0.002754 0.013985 0.000000 0.012684 0.000000
# 4 0.000000 0.000000 0.000000 0.101087 0.000000 0.121728
# 5 0.008979 0.002965 0.012684 0.000000 0.068596 0.000000
# 6 0.000000 0.000000 0.000000 0.121728 0.000000 0.302693
#
#
# Mechanical properties :
#
#
# Convention : Reuss Voigt Hill
#
# Bulk Modulus (GPa) = 12.84828 30.45020 21.64924
# Shear Modulus (GPa) = 8.52659 22.21996 15.37327
#
# Velocity S-wave (km/s) = 1.92036 3.10003 2.57856
# Velocity P-wave (km/s) = 3.23635 5.09739 4.26950
#
# Compressibility (1/GPa) = 0.07783141
#
# Stress axis : x y z
#
# Youngs Moduli (GPa) = 17.46032 85.47967 71.50646
#
# Poissons Ratio (x) = 0.79795 -0.68120
# Poissons Ratio (y) = 0.16299 0.19692
# Poissons Ratio (z) = -0.16633 0.23540
#
# Static dielectric constant tensor:
#      x y z
#    x 1.949590 0.000000 0.061720 
#    y 0.000000 1.897400 0.000000 
#    z 0.061720 0.000000 1.998590 
# 
# From -- ./inp_files/213322.got.cif
#   From: 2010.05.17/outbox.cif.g08.bks.cpg/sg15_107_cif.got.tgz:213322.got - 2010.06.03 18:47:42.
