data_PCOD9257417
_publ_section_title
;
Structure prediction by ZEFSAII (Michael W. Deem and Ramdas Pophale) SiO2 
 PCOD9257417
Probable space group: C 2/C
;
_chemical_formula_sum "Si O2"
_cell_formula_units_Z 32
_cell_length_a 7.927105
_cell_length_b 19.315887
_cell_length_c 9.124904
_cell_angle_alpha 90.000000
_cell_angle_beta 115.231208
_cell_angle_gamma 90.000000
_cell_volume 1263.897211
_symmetry_space_group_name_H-M "C 2/C"
_symmetry_group_IT_number 15
_symmetry_cell_setting 'monoclinic'
loop_
_space_group_symop_operation_xyz
x,y,z
-x,y,1/2-z
-x,-y,-z
x,-y,1/2+z
1/2+x,1/2+y,z
1/2-x,1/2+y,1/2-z
1/2-x,1/2-y,-z
1/2+x,1/2-y,1/2+z
loop_
_atom_site_type_symbol
_atom_site_label
_atom_site_fract_x
_atom_site_fract_y
_atom_site_fract_z
Si Si1 0.720931 0.058807 0.361922
Si Si2 0.387502 0.167635 0.951326
Si Si3 0.769307 0.917790 0.547155
Si Si4 0.863438 0.208790 0.917185
O O1 0.500000 0.049614 0.250000
O O2 0.727897 0.123385 0.474893
O O3 0.802678 0.069749 0.230894
O O4 0.781617 0.989508 0.466141
O O5 0.264339 0.190890 0.768436
O O6 0.559785 0.117232 0.964525
O O7 0.474134 0.236715 0.055695
O O8 0.899688 0.863102 0.512461
O O9 0.750000 0.250000 0.000000
#
# Coordination Sequence:
#
# PCOD9257417 Si02
#       4
#     8   8   8   8
#     4  10  18  31  53  84 110 143 192 239 276 330
#     4  10  20  34  53  81 113 150 187 231 283 338
#     4  10  18  31  53  83 111 144 189 238 280 330
#     4  10  19  34  53  80 113 151 186 230 284 338
#
# _framework density 25.318511999999998
#
# number of rings (size 3 to 8) (size 9 to 14) (size 15 to 20)
#    0.000    2.000    0.000    9.000    0.000    0.000 
#    0.000   22.500    0.000    0.000    0.000  155.750 
#    0.000    0.000    0.000    0.000    0.000    0.000 
#
# Total GULP energy -89694.636044 kJ/mol
# GULP energy per Si atom -5605.914753 kJ/mol
# Density = 2.526089 g / cm^3
# Si number density = 25.318512 Si / 1000 Ang^3
#
#
#
# Elastic Constant Matrix: (Units=GPa)
#
#
# Indices 1 2 3 4 5 6 
#
# 1 138.1209 72.9836 60.6863 0.0000 -20.8827 0.0000
# 2 72.9836 260.9605 148.0609 0.0000 -16.3224 0.0000
# 3 60.6863 148.0609 245.8333 0.0000 -11.8753 0.0000
# 4 0.0000 0.0000 0.0000 72.1718 0.0000 -3.2307
# 5 -20.8827 -16.3224 -11.8753 0.0000 26.2015 0.0000
# 6 0.0000 0.0000 0.0000 -3.2307 0.0000 19.6674
#
#
#
# Elastic Compliance Matrix: (Units=1/GPa)
#
#
# Indices 1 2 3 4 5 6 
#
# 1 0.009504 -0.001693 -0.001034 0.000000 0.006051 0.000000
# 2 -0.001693 0.006236 -0.003287 0.000000 0.001046 0.000000
# 3 -0.001034 -0.003287 0.006302 0.000000 -0.000016 0.000000
# 4 0.000000 0.000000 0.000000 0.013958 0.000000 0.002293
# 5 0.006051 0.001046 -0.000016 0.000000 0.043633 0.000000
# 6 0.000000 0.000000 0.000000 0.002293 0.000000 0.051222
#
#
# Mechanical properties :
#
#
# Convention : Reuss Voigt Hill
#
# Bulk Modulus (GPa) = 99.86750 134.26403 117.06576
# Shear Modulus (GPa) = 34.19455 47.82041 41.00748
#
# Velocity S-wave (km/s) = 3.67900 4.35069 4.02887
# Velocity P-wave (km/s) = 7.58794 8.85343 8.24500
#
# Compressibility (1/GPa) = 0.01001327
#
# Stress axis : x y z
#
# Youngs Moduli (GPa) = 105.22129 160.35953 158.67084
#
# Poissons Ratio (x) = 0.27142 0.16412
# Poissons Ratio (y) = 0.17810 0.52163
# Poissons Ratio (z) = 0.10884 0.52718
#
# Static dielectric constant tensor:
#      x y z
#    x 1.749990 0.000000 0.087280 
#    y 0.000000 -28.129790 0.000000 
#    z 0.087280 0.000000 1.902730 
# 
# From -- ./inp_files/28885.got.cif
#   From: 2010.05.17/outbox.cif.g08.bks.cpg/sg15_15_cif.got.tgz:28885.got - 2010.06.03 18:47:42.
