data_PCOD9257843
_publ_section_title
;
Structure prediction by ZEFSAII (Michael W. Deem and Ramdas Pophale) SiO2 
 PCOD9257843
Probable space group: C 2/C
;
_chemical_formula_sum "Si O2"
_cell_formula_units_Z 60
_cell_length_a 31.856477
_cell_length_b 8.861463
_cell_length_c 20.819593
_cell_angle_alpha 90.000000
_cell_angle_beta 35.713436
_cell_angle_gamma 90.000000
_cell_volume 3430.746560
_symmetry_space_group_name_H-M "C 2/C"
_symmetry_group_IT_number 15
_symmetry_cell_setting 'monoclinic'
loop_
_space_group_symop_operation_xyz
x,y,z
-x,y,1/2-z
-x,-y,-z
x,-y,1/2+z
1/2+x,1/2+y,z
1/2-x,1/2+y,1/2-z
1/2-x,1/2-y,-z
1/2+x,1/2-y,1/2+z
loop_
_atom_site_type_symbol
_atom_site_label
_atom_site_fract_x
_atom_site_fract_y
_atom_site_fract_z
Si Si1 0.500000 0.544045 0.750000
Si Si2 0.313452 0.232786 0.674455
Si Si3 0.837833 0.621175 0.148087
Si Si4 0.918793 0.613830 0.913668
Si Si5 0.573906 0.726763 0.220185
Si Si6 0.405107 0.381851 0.667628
Si Si7 0.456157 0.719965 0.585671
Si Si8 0.554610 0.780581 0.580724
O O1 0.439762 0.434948 0.795510
O O2 0.531092 0.647509 0.655901
O O3 0.233570 0.280362 0.755648
O O4 0.341729 0.333654 0.698470
O O5 0.370525 0.259279 0.546643
O O6 0.320044 0.054815 0.680818
O O7 0.899132 0.675189 0.120863
O O8 0.867935 0.641585 0.037995
O O9 0.890677 0.669695 0.879120
O O10 0.936173 0.436697 0.893229
O O11 0.994213 0.701902 0.830004
O O12 0.607014 0.694740 0.248265
O O13 0.418495 0.562090 0.653110
O O14 0.479215 0.319012 0.544074
O O15 0.495190 0.795417 0.598184
#
# Coordination Sequence:
#
# PCOD9257843 Si02
#       8
#     4   8   8   8   8   8   8   8
#     4  10  18  32  54  82 112 138 184 214 276 316
#     4  10  24  35  60  77 115 139 189 222 281 318
#     4  11  21  39  54  83 105 152 177 231 270 332
#     4   9  20  32  55  77 114 140 181 217 272 320
#     4  10  19  32  53  85 110 148 173 228 262 329
#     4  10  19  35  53  87 108 144 178 233 265 323
#     4  10  20  32  59  79 116 136 186 225 275 313
#     4  10  20  36  54  89 104 147 174 233 266 325
#
# _framework density 17.488904000000002
#
# number of rings (size 3 to 8) (size 9 to 14) (size 15 to 20)
#    0.000    2.133    2.667    1.600    1.867    3.733 
#    0.000    0.667    0.000    0.800    0.000    0.000 
#    0.000    0.000    0.000    0.000    0.000    0.000 
#
# Total GULP energy -167335.075025 kJ/mol
# GULP energy per Si atom -5577.835834 kJ/mol
# Density = 1.744910 g / cm^3
# Si number density = 17.488904 Si / 1000 Ang^3
#
#
#
# Elastic Constant Matrix: (Units=GPa)
#
#
# Indices 1 2 3 4 5 6 
#
# 1 53.7236 30.5562 34.2169 -0.0011 12.8767 0.0064
# 2 30.5562 84.2183 34.5014 0.0106 13.2174 0.0139
# 3 34.2169 34.5014 52.7333 0.0270 1.4359 0.0008
# 4 -0.0011 0.0106 0.0270 20.6953 -0.0083 4.8925
# 5 12.8767 13.2174 1.4359 -0.0083 31.5110 0.0011
# 6 0.0064 0.0139 0.0008 4.8925 0.0011 24.4924
#
#
#
# Elastic Compliance Matrix: (Units=1/GPa)
#
#
# Indices 1 2 3 4 5 6 
#
# 1 0.037354 -0.002306 -0.022368 0.000030 -0.013278 -0.000013
# 2 -0.002306 0.017731 -0.009940 0.000004 -0.006042 -0.000010
# 3 -0.022368 -0.009940 0.039667 -0.000048 0.011502 0.000019
# 4 0.000030 0.000004 -0.000048 0.050715 0.000002 -0.010131
# 5 -0.013278 -0.006042 0.011502 0.000002 0.039171 0.000004
# 6 -0.000013 -0.000010 0.000019 -0.010131 0.000004 0.042853
#
#
# Mechanical properties :
#
#
# Convention : Reuss Voigt Hill
#
# Bulk Modulus (GPa) = 39.17695 43.24712 41.21203
# Shear Modulus (GPa) = 16.38132 21.43311 18.90722
#
# Velocity S-wave (km/s) = 3.06383 3.50455 3.29157
# Velocity P-wave (km/s) = 5.91318 6.41544 6.16942
#
# Compressibility (1/GPa) = 0.02552522
#
# Stress axis : x y z
#
# Youngs Moduli (GPa) = 26.77111 56.39906 25.20976
#
# Poissons Ratio (x) = 0.13003 0.56388
# Poissons Ratio (y) = 0.06172 0.25059
# Poissons Ratio (z) = 0.59881 0.56061
#
# Static dielectric constant tensor:
#      x y z
#    x 1.587540 0.000000 0.022980 
#    y 0.000000 1.602300 0.000000 
#    z 0.022980 0.000000 1.583340 
# 
# From -- ./inp_files/258724.got.cif
#   From: 2010.05.17/outbox.cif.g08.bks.cpg/sg15_130_cif.got.tgz:258724.got - 2010.06.03 18:47:42.
