data_PCOD9257337
_publ_section_title
;
Structure prediction by ZEFSAII (Michael W. Deem and Ramdas Pophale) SiO2 
 PCOD9257337
Probable space group: C 2/C
;
_chemical_formula_sum "Si O2"
_cell_formula_units_Z 48
_cell_length_a 13.866528
_cell_length_b 20.831009
_cell_length_c 12.572983
_cell_angle_alpha 90.000000
_cell_angle_beta 147.547070
_cell_angle_gamma 90.000000
_cell_volume 1948.822766
_symmetry_space_group_name_H-M "C 2/C"
_symmetry_group_IT_number 15
_symmetry_cell_setting 'monoclinic'
loop_
_space_group_symop_operation_xyz
x,y,z
-x,y,1/2-z
-x,-y,-z
x,-y,1/2+z
1/2+x,1/2+y,z
1/2-x,1/2+y,1/2-z
1/2-x,1/2-y,-z
1/2+x,1/2-y,1/2+z
loop_
_atom_site_type_symbol
_atom_site_label
_atom_site_fract_x
_atom_site_fract_y
_atom_site_fract_z
Si Si1 0.244415 0.388515 0.072159
Si Si2 0.546575 0.006926 0.173470
Si Si3 0.212235 0.675588 0.935127
Si Si4 0.205702 0.840319 0.768704
Si Si5 0.600212 0.430306 0.491543
Si Si6 0.376929 0.803365 0.367993
O O1 0.394701 0.434516 0.266635
O O2 0.218973 0.323132 0.112813
O O3 0.059798 0.426600 0.908750
O O4 0.313741 0.382185 0.017183
O O5 0.500000 0.974043 0.250000
O O6 0.762583 0.010654 0.381136
O O7 0.500000 0.000000 0.000000
O O8 0.238322 0.664503 0.835258
O O9 0.000000 0.667913 0.750000
O O10 0.250000 0.750000 0.000000
O O11 0.311060 0.641580 0.123130
O O12 0.124902 0.896448 0.625547
O O13 0.120215 0.771888 0.656759
O O14 0.419560 0.829797 0.946325
#
# Coordination Sequence:
#
# PCOD9257337 Si02
#       6
#     8   8   8   8   8   8
#     4  10  21  38  59  84 116 152 190 237 293 349
#     4  10  22  44  68  90 118 154 194 250 309 354
#     4   8  16  28  44  68 104 150 190 232 278 322
#     4  10  18  31  51  79 116 157 197 235 281 344
#     4  10  21  38  59  84 116 152 190 237 293 349
#     4  10  18  31  51  79 116 157 197 235 281 344
#
# _framework density 24.630254999999998
#
# number of rings (size 3 to 8) (size 9 to 14) (size 15 to 20)
#    0.000    2.333    1.667    1.000    0.000    2.667 
#    3.000    0.000    0.000    0.000    0.000    0.000 
#    0.000    0.000    0.000    0.000    0.000    0.000 
#
# Total GULP energy -133689.747480 kJ/mol
# GULP energy per Si atom -5570.406145 kJ/mol
# Density = 2.457420 g / cm^3
# Si number density = 24.630255 Si / 1000 Ang^3
#
#
#
# Elastic Constant Matrix: (Units=GPa)
#
#
# Indices 1 2 3 4 5 6 
#
# 1 93.6965 9.5787 34.2147 0.0000 -14.8615 0.0000
# 2 9.5787 23.4669 12.7723 0.0000 3.5485 0.0000
# 3 34.2147 12.7723 124.2378 0.0000 -7.3724 0.0000
# 4 0.0000 0.0000 0.0000 20.7372 0.0000 -10.4212
# 5 -14.8615 3.5485 -7.3724 0.0000 48.0627 0.0000
# 6 0.0000 0.0000 0.0000 -10.4212 0.0000 18.8297
#
#
#
# Elastic Compliance Matrix: (Units=1/GPa)
#
#
# Indices 1 2 3 4 5 6 
#
# 1 0.012752 -0.004231 -0.002850 0.000000 0.003818 0.000000
# 2 -0.004231 0.047350 -0.004024 0.000000 -0.005421 0.000000
# 3 -0.002850 -0.004024 0.009298 0.000000 0.000842 0.000000
# 4 0.000000 0.000000 0.000000 0.066802 0.000000 0.036971
# 5 0.003818 -0.005421 0.000842 0.000000 0.022516 0.000000
# 6 0.000000 0.000000 0.000000 0.036971 0.000000 0.073569
#
#
# Mechanical properties :
#
#
# Convention : Reuss Voigt Hill
#
# Bulk Modulus (GPa) = 21.19156 39.39250 30.29203
# Shear Modulus (GPa) = 18.50289 29.84828 24.17559
#
# Velocity S-wave (km/s) = 2.74382 3.48495 3.13635
# Velocity P-wave (km/s) = 4.31980 5.67639 5.04391
#
# Compressibility (1/GPa) = 0.04718859
#
# Stress axis : x y z
#
# Youngs Moduli (GPa) = 78.42081 21.11912 107.55328
#
# Poissons Ratio (x) = 0.08936 0.30655
# Poissons Ratio (y) = 0.33180 0.43284
# Poissons Ratio (z) = 0.22352 0.08499
#
# Static dielectric constant tensor:
#      x y z
#    x 2.039180 0.000000 -0.041600 
#    y 0.000000 1.978780 0.000000 
#    z -0.041600 0.000000 2.002600 
# 
# From -- ./inp_files/101207.got.cif
#   From: 2010.05.17/outbox.cif.g08.bks.cpg/sg15_51_cif.got.tgz:101207.got - 2010.06.03 18:47:42.
