data_PCOD9257933
_publ_section_title
;
Structure prediction by ZEFSAII (Michael W. Deem and Ramdas Pophale) SiO2 
 PCOD9257933
Probable space group: C 2/C
;
_chemical_formula_sum "Si O2"
_cell_formula_units_Z 64
_cell_length_a 18.946749
_cell_length_b 13.444653
_cell_length_c 10.446086
_cell_angle_alpha 90.000000
_cell_angle_beta 81.448193
_cell_angle_gamma 90.000000
_cell_volume 2631.372215
_symmetry_space_group_name_H-M "C 2/C"
_symmetry_group_IT_number 15
_symmetry_cell_setting 'monoclinic'
loop_
_space_group_symop_operation_xyz
x,y,z
-x,y,1/2-z
-x,-y,-z
x,-y,1/2+z
1/2+x,1/2+y,z
1/2-x,1/2+y,1/2-z
1/2-x,1/2-y,-z
1/2+x,1/2-y,1/2+z
loop_
_atom_site_type_symbol
_atom_site_label
_atom_site_fract_x
_atom_site_fract_y
_atom_site_fract_z
Si Si1 0.650320 0.090405 0.062050
Si Si2 0.970324 0.196146 0.405447
Si Si3 0.634429 0.592233 0.217589
Si Si4 0.074196 0.064257 0.891115
Si Si5 0.562709 0.902727 0.134127
Si Si6 0.304721 0.544978 0.976476
Si Si7 0.674472 0.795292 0.290251
Si Si8 0.162603 0.780364 0.215297
O O1 0.638386 0.172015 0.175758
O O2 0.593330 0.002597 0.065601
O O3 0.659442 0.147324 0.925418
O O4 0.729222 0.046121 0.065361
O O5 0.891027 0.156959 0.397171
O O6 0.990050 0.110907 0.504656
O O7 0.968637 0.311608 0.443817
O O8 0.000000 0.197334 0.250000
O O9 0.572984 0.513456 0.272713
O O10 0.698867 0.525088 0.149875
O O11 0.649354 0.680662 0.310898
O O12 0.106572 0.163588 0.818910
O O13 0.134155 0.002481 0.953266
O O14 0.500000 0.928215 0.250000
O O15 0.628065 0.852526 0.196363
O O16 0.325615 0.651846 0.914426
O O17 0.758860 0.785109 0.241692
#
# Coordination Sequence:
#
# PCOD9257933 Si02
#       8
#     8   8   8   8   8   8   8   8
#     4  11  21  35  57  84 118 155 197 243 290 346
#     4   9  20  37  53  74 105 145 195 236 276 339
#     4   9  18  32  53  79 106 139 181 231 299 355
#     4  10  18  32  56  80 110 143 179 238 293 344
#     4  10  23  41  57  79 113 160 211 238 274 347
#     4   9  18  33  53  81 113 144 179 229 297 365
#     4  10  20  36  58  82 117 155 186 244 297 340
#     4  10  20  32  54  89 118 144 188 239 302 357
#
# _framework density 24.321911
#
# number of rings (size 3 to 8) (size 9 to 14) (size 15 to 20)
#    0.000    2.250    0.000    3.750    0.000    5.000 
#    0.000    6.250    0.000    7.500    0.000    0.000 
#    0.000    0.000    0.000    0.000    0.000    0.000 
#
# Total GULP energy -178396.273260 kJ/mol
# GULP energy per Si atom -5574.883539 kJ/mol
# Density = 2.426655 g / cm^3
# Si number density = 24.321911 Si / 1000 Ang^3
#
#
#
# Elastic Constant Matrix: (Units=GPa)
#
#
# Indices 1 2 3 4 5 6 
#
# 1 19.7986 15.3019 -5.5835 0.0000 -0.6286 0.0000
# 2 15.3019 167.3868 31.1967 0.0000 -22.4519 0.0000
# 3 -5.5835 31.1967 42.9109 0.0000 -9.6270 0.0000
# 4 0.0000 0.0000 0.0000 41.9054 0.0000 -4.3906
# 5 -0.6286 -22.4519 -9.6270 0.0000 28.1597 0.0000
# 6 0.0000 0.0000 0.0000 -4.3906 0.0000 23.1329
#
#
#
# Elastic Compliance Matrix: (Units=1/GPa)
#
#
# Indices 1 2 3 4 5 6 
#
# 1 0.060679 -0.008168 0.013730 0.000000 -0.000464 0.000000
# 2 -0.008168 0.008478 -0.006229 0.000000 0.004448 0.000000
# 3 0.013730 -0.006229 0.030947 0.000000 0.005920 0.000000
# 4 0.000000 0.000000 0.000000 0.024347 0.000000 0.004621
# 5 -0.000464 0.004448 0.005920 0.000000 0.041072 0.000000
# 6 0.000000 0.000000 0.000000 0.004621 0.000000 0.044106
#
#
# Mechanical properties :
#
#
# Convention : Reuss Voigt Hill
#
# Bulk Modulus (GPa) = 10.12456 34.65850 22.39153
# Shear Modulus (GPa) = 20.50127 31.25167 25.87647
#
# Velocity S-wave (km/s) = 2.90645 3.58846 3.26531
# Velocity P-wave (km/s) = 3.92874 5.60806 4.84176
#
# Compressibility (1/GPa) = 0.09876970
#
# Stress axis : x y z
#
# Youngs Moduli (GPa) = 16.48020 117.94653 32.31318
#
# Poissons Ratio (x) = 0.96341 -0.44365
# Poissons Ratio (y) = 0.13461 0.20127
# Poissons Ratio (z) = -0.22627 0.73466
#
# Static dielectric constant tensor:
#      x y z
#    x 2.025520 0.000000 0.095830 
#    y 0.000000 1.978090 0.000000 
#    z 0.095830 0.000000 2.221070 
# 
# From -- ./inp_files/117986.got.cif
#   From: 2010.05.17/outbox.cif.g08.bks.cpg/sg15_59_cif.got.tgz:117986.got - 2010.06.03 18:47:42.
