data_PCOD9257834
_publ_section_title
;
Structure prediction by ZEFSAII (Michael W. Deem and Ramdas Pophale) SiO2 
 PCOD9257834
Probable space group: C 2/C
;
_chemical_formula_sum "Si O2"
_cell_formula_units_Z 56
_cell_length_a 5.034975
_cell_length_b 25.851459
_cell_length_c 20.727902
_cell_angle_alpha 90.000000
_cell_angle_beta 104.654660
_cell_angle_gamma 90.000000
_cell_volume 2610.203985
_symmetry_space_group_name_H-M "C 2/C"
_symmetry_group_IT_number 15
_symmetry_cell_setting 'monoclinic'
loop_
_space_group_symop_operation_xyz
x,y,z
-x,y,1/2-z
-x,-y,-z
x,-y,1/2+z
1/2+x,1/2+y,z
1/2-x,1/2+y,1/2-z
1/2-x,1/2-y,-z
1/2+x,1/2-y,1/2+z
loop_
_atom_site_type_symbol
_atom_site_label
_atom_site_fract_x
_atom_site_fract_y
_atom_site_fract_z
Si Si1 0.092138 0.950166 0.330625
Si Si2 0.204856 0.347084 0.202956
Si Si3 0.238274 0.825471 0.817395
Si Si4 0.071207 0.201671 0.013407
Si Si5 0.684285 0.229791 0.890177
Si Si6 0.210790 0.123391 0.123963
Si Si7 0.591959 0.011568 0.331570
O O1 0.232154 0.894173 0.342279
O O2 0.000000 0.951511 0.250000
O O3 0.320432 0.994175 0.352246
O O4 0.815141 0.965428 0.349536
O O5 0.500000 0.332425 0.250000
O O6 0.000000 0.362381 0.250000
O O7 0.061866 0.300566 0.157273
O O8 0.314555 0.767702 0.845646
O O9 0.529102 0.851826 0.822687
O O10 0.000000 0.820055 0.750000
O O11 0.075871 0.861329 0.859653
O O12 0.211541 0.151872 0.054104
O O13 0.910248 0.228840 0.062192
O O14 0.250000 0.250000 0.000000
O O15 0.879226 0.190438 0.940347
O O16 0.268844 0.062849 0.132187
O O17 0.500000 0.019092 0.250000
#
# Coordination Sequence:
#
# PCOD9257834 Si02
#       7
#     8   8   8   8   8   8   8
#     4   9  18  34  54  80 116 147 181 229 289 358
#     4  11  23  38  61  93 121 153 195 243 304 361
#     4  11  21  34  52  84 119 145 182 240 297 352
#     4  10  21  41  58  79 114 160 208 241 283 344
#     4  10  23  37  59  83 114 158 198 241 290 349
#     4  11  22  35  57  82 114 153 197 236 286 353
#     4  10  18  32  54  81 112 146 181 231 294 350
#
# _framework density 21.454262
#
# number of rings (size 3 to 8) (size 9 to 14) (size 15 to 20)
#    0.000    1.714    1.429    4.714    2.000    3.429 
#    0.000    0.000    0.000    1.714    0.000    0.000 
#    0.000    0.000    0.000    0.000    0.000    0.000 
#
# Total GULP energy -156158.513925 kJ/mol
# GULP energy per Si atom -5577.089783 kJ/mol
# Density = 2.140543 g / cm^3
# Si number density = 21.454262 Si / 1000 Ang^3
#
#
#
# Elastic Constant Matrix: (Units=GPa)
#
#
# Indices 1 2 3 4 5 6 
#
# 1 77.7413 8.6572 6.4700 0.0000 19.9156 0.0000
# 2 8.6572 81.3667 14.2967 0.0000 13.9321 0.0000
# 3 6.4700 14.2967 37.1063 0.0000 21.3569 0.0000
# 4 0.0000 0.0000 0.0000 143.8337 0.0000 154.3564
# 5 19.9156 13.9321 21.3569 0.0000 19.1133 0.0000
# 6 0.0000 0.0000 0.0000 154.3564 0.0000 187.4847
#
#
#
# Elastic Compliance Matrix: (Units=1/GPa)
#
#
# Indices 1 2 3 4 5 6 
#
# 1 0.026729 0.002773 0.032124 0.000000 -0.065767 0.000000
# 2 0.002773 0.014354 0.004682 0.000000 -0.018584 0.000000
# 3 0.032124 0.004682 0.114252 0.000000 -0.164549 0.000000
# 4 0.000000 0.000000 0.000000 0.059695 0.000000 -0.049147
# 5 -0.065767 -0.018584 -0.164549 0.000000 0.318258 0.000000
# 6 0.000000 0.000000 0.000000 -0.049147 0.000000 0.045796
#
#
# Mechanical properties :
#
#
# Convention : Reuss Voigt Hill
#
# Bulk Modulus (GPa) = 4.26452 28.34024 16.30238
# Shear Modulus (GPa) = 8.64916 81.20571 44.92743
#
# Velocity S-wave (km/s) = 2.01002 6.15896 4.58110
# Velocity P-wave (km/s) = 2.71642 7.98845 5.96633
#
# Compressibility (1/GPa) = 0.23449322
#
# Stress axis : x y z
#
# Youngs Moduli (GPa) = 37.41271 69.66480 8.75258
#
# Poissons Ratio (x) = -0.19316 -0.28117
# Poissons Ratio (y) = -0.10374 -0.04098
# Poissons Ratio (z) = -1.20184 -0.32620
#
# Static dielectric constant tensor:
#      x y z
#    x 1.811570 0.000000 -0.014810 
#    y 0.000000 1.814790 0.000000 
#    z -0.014810 0.000000 1.829930 
# 
# From -- ./inp_files/261759.got.cif
#   From: 2010.05.17/outbox.cif.g08.bks.cpg/sg15_131_cif.got.tgz:261759.got - 2010.06.03 18:47:42.
