data_PCOD9257469
_publ_section_title
;
Structure prediction by ZEFSAII (Michael W. Deem and Ramdas Pophale) SiO2 
 PCOD9257469
Probable space group: C 2/C
;
_chemical_formula_sum "Si O2"
_cell_formula_units_Z 48
_cell_length_a 13.519273
_cell_length_b 7.120446
_cell_length_c 20.779277
_cell_angle_alpha 90.000000
_cell_angle_beta 110.606513
_cell_angle_gamma 90.000000
_cell_volume 1872.301910
_symmetry_space_group_name_H-M "C 2/C"
_symmetry_group_IT_number 15
_symmetry_cell_setting 'monoclinic'
loop_
_space_group_symop_operation_xyz
x,y,z
-x,y,1/2-z
-x,-y,-z
x,-y,1/2+z
1/2+x,1/2+y,z
1/2-x,1/2+y,1/2-z
1/2-x,1/2-y,-z
1/2+x,1/2-y,1/2+z
loop_
_atom_site_type_symbol
_atom_site_label
_atom_site_fract_x
_atom_site_fract_y
_atom_site_fract_z
Si Si1 0.799138 0.060259 0.584791
Si Si2 0.247533 0.465208 0.940652
Si Si3 0.063134 0.182708 0.181555
Si Si4 0.982316 0.765272 0.318488
Si Si5 0.504951 0.039830 0.925996
Si Si6 0.820879 0.269296 0.176430
O O1 0.728522 0.244588 0.559799
O O2 0.815162 0.968247 0.517803
O O3 0.905606 0.155206 0.633016
O O4 0.767329 0.910209 0.630270
O O5 0.242274 0.559642 0.869763
O O6 0.129226 0.517811 0.937809
O O7 0.046481 0.262373 0.106620
O O8 0.159282 0.275557 0.243249
O O9 0.944927 0.241504 0.181725
O O10 0.080962 0.960787 0.196747
O O11 0.000000 0.689272 0.250000
O O12 0.952783 0.611172 0.364355
O O13 0.500000 0.000000 0.000000
#
# Coordination Sequence:
#
# PCOD9257469 Si02
#       6
#     8   8   8   8   8   8
#     4   9  16  28  45  76  98 120 157 207 253 281
#     4   9  18  28  47  69 102 127 156 202 244 296
#     4   9  17  29  48  73  98 121 166 204 241 292
#     4  10  18  31  55  78  97 125 168 214 251 287
#     4  10  22  33  48  72 103 138 163 198 253 307
#     4   9  15  26  46  74  94 117 154 206 248 278
#
# _framework density 25.636892
#
# number of rings (size 3 to 8) (size 9 to 14) (size 15 to 20)
#    0.000    2.667    3.333    0.500    7.000    0.667 
#    0.000    0.000    0.000    2.000    0.000    0.000 
#    0.000    0.000    0.000    0.000    0.000    0.000 
#
# Total GULP energy -133847.569221 kJ/mol
# GULP energy per Si atom -5576.982051 kJ/mol
# Density = 2.557854 g / cm^3
# Si number density = 25.636892 Si / 1000 Ang^3
#
#
#
# Elastic Constant Matrix: (Units=GPa)
#
#
# Indices 1 2 3 4 5 6 
#
# 1 47.8056 -17.6432 19.4072 0.0000 -8.4359 0.0000
# 2 -17.6432 96.8463 47.7084 0.0000 6.0669 0.0000
# 3 19.4072 47.7084 207.2989 0.0000 4.3265 0.0000
# 4 0.0000 0.0000 0.0000 51.4924 0.0000 11.2550
# 5 -8.4359 6.0669 4.3265 0.0000 22.1869 0.0000
# 6 0.0000 0.0000 0.0000 11.2550 0.0000 -7.0862
#
#
#
# Elastic Compliance Matrix: (Units=1/GPa)
#
#
# Indices 1 2 3 4 5 6 
#
# 1 0.026532 0.006290 -0.004123 0.000000 0.009172 0.000000
# 2 0.006290 0.013297 -0.003638 0.000000 -0.000535 0.000000
# 3 -0.004123 -0.003638 0.006084 0.000000 -0.001759 0.000000
# 4 0.000000 0.000000 0.000000 0.014416 0.000000 0.022897
# 5 0.009172 -0.000535 -0.001759 0.000000 0.049048 0.000000
# 6 0.000000 0.000000 0.000000 0.022897 0.000000 -0.104753
#
#
# Mechanical properties :
#
#
# Convention : Reuss Voigt Hill
#
# Bulk Modulus (GPa) = 23.27158 50.09952 36.68555
# Shear Modulus (GPa) = 228.42309 33.48385 130.95347
#
# Velocity S-wave (km/s) = 9.44949 3.61789 7.15479
# Velocity P-wave (km/s) = 11.32052 6.08577 9.08820
#
# Compressibility (1/GPa) = 0.04297087
#
# Stress axis : x y z
#
# Youngs Moduli (GPa) = 37.69083 75.20404 164.36835
#
# Poissons Ratio (x) = -0.47303 0.67767
# Poissons Ratio (y) = -0.23707 0.59796
# Poissons Ratio (z) = 0.15540 0.27359
#
# Static dielectric constant tensor:
#      x y z
#    x 2.113060 0.000000 -0.084250 
#    y 0.000000 2.121960 0.000000 
#    z -0.084250 0.000000 2.157170 
# 
# From -- ./inp_files/218387.got.cif
#   From: 2010.05.17/outbox.cif.g08.bks.cpg/sg15_110_cif.got.tgz:218387.got - 2010.06.03 18:47:42.
