data_PCOD9257196
_publ_section_title
;
Structure prediction by ZEFSAII (Michael W. Deem and Ramdas Pophale) SiO2 
 PCOD9257196
Probable space group: C 2/C
;
_chemical_formula_sum "Si O2"
_cell_formula_units_Z 44
_cell_length_a 13.922659
_cell_length_b 11.929036
_cell_length_c 23.532820
_cell_angle_alpha 90.000000
_cell_angle_beta 28.362334
_cell_angle_gamma 90.000000
_cell_volume 1856.679823
_symmetry_space_group_name_H-M "C 2/C"
_symmetry_group_IT_number 15
_symmetry_cell_setting 'monoclinic'
loop_
_space_group_symop_operation_xyz
x,y,z
-x,y,1/2-z
-x,-y,-z
x,-y,1/2+z
1/2+x,1/2+y,z
1/2-x,1/2+y,1/2-z
1/2-x,1/2-y,-z
1/2+x,1/2-y,1/2+z
loop_
_atom_site_type_symbol
_atom_site_label
_atom_site_fract_x
_atom_site_fract_y
_atom_site_fract_z
Si Si1 0.412170 0.657711 0.016079
Si Si2 0.151906 0.071925 0.750513
Si Si3 0.483895 0.072508 0.869650
Si Si4 0.534591 0.417894 0.571504
Si Si5 0.796636 0.612639 0.548062
Si Si6 0.500000 0.060681 0.250000
O O1 0.471974 0.657591 0.051071
O O2 0.437516 0.778050 0.975811
O O3 0.173316 0.640791 0.139473
O O4 0.474917 0.543193 0.952406
O O5 0.322164 0.129333 0.702141
O O6 0.245174 0.073050 0.638860
O O7 0.927948 0.126829 0.862633
O O8 0.101028 0.947018 0.802823
O O9 0.560582 0.017616 0.770934
O O10 0.262057 0.120426 0.969376
O O11 0.415094 0.978987 0.950459
#
# Coordination Sequence:
#
# PCOD9257196 Si02
#       6
#     8   8   8   8   8   4
#     4  10  19  36  54  92 119 149 197 244 294 345
#     4  10  19  38  56  88 120 159 198 239 297 353
#     4  10  20  35  57  87 115 163 197 239 299 352
#     4   9  20  35  59  84 123 157 190 237 299 363
#     4  10  22  34  60  87 121 151 204 250 284 347
#     4  10  18  30  60  78 118 156 192 238 290 358
#
# _framework density 23.698215000000001
#
# number of rings (size 3 to 8) (size 9 to 14) (size 15 to 20)
#    0.000    2.182    1.818    1.636    0.000    8.000 
#    0.000    0.909    0.000    0.000    4.727    0.000 
#    0.000    0.000    0.000    0.000    0.000    0.000 
#
# Total GULP energy -122639.698901 kJ/mol
# GULP energy per Si atom -5574.531768 kJ/mol
# Density = 2.364428 g / cm^3
# Si number density = 23.698215 Si / 1000 Ang^3
#
#
#
# Elastic Constant Matrix: (Units=GPa)
#
#
# Indices 1 2 3 4 5 6 
#
# 1 152.6586 29.3951 1.6731 0.0001 -12.3937 0.0005
# 2 29.3951 50.1676 7.4952 -0.0001 0.1792 0.0004
# 3 1.6731 7.4952 59.7252 -0.0058 -5.7583 0.0045
# 4 0.0001 -0.0001 -0.0058 7.6960 0.0004 -5.6921
# 5 -12.3937 0.1792 -5.7583 0.0004 37.9140 -0.0007
# 6 0.0005 0.0004 0.0045 -5.6921 -0.0007 -7.2472
#
#
#
# Elastic Compliance Matrix: (Units=1/GPa)
#
#
# Indices 1 2 3 4 5 6 
#
# 1 0.007637 -0.004575 0.000612 0.000000 0.002611 0.000000
# 2 -0.004575 0.023064 -0.002964 -0.000001 -0.002055 0.000000
# 3 0.000612 -0.002964 0.017373 0.000013 0.002853 0.000000
# 4 0.000000 -0.000001 0.000013 0.082192 0.000000 -0.064555
# 5 0.002611 -0.002055 0.002853 0.000000 0.027672 -0.000001
# 6 0.000000 0.000000 0.000000 -0.064555 -0.000001 -0.087282
#
#
# Mechanical properties :
#
#
# Convention : Reuss Voigt Hill
#
# Bulk Modulus (GPa) = 29.22381 37.74204 33.48292
# Shear Modulus (GPa) = 52.12736 22.60508 37.36622
#
# Velocity S-wave (km/s) = 4.69511 3.09183 3.97514
# Velocity P-wave (km/s) = 6.46146 5.35785 5.93537
#
# Compressibility (1/GPa) = 0.03421867
#
# Stress axis : x y z
#
# Youngs Moduli (GPa) = 130.94373 43.35691 57.55975
#
# Poissons Ratio (x) = 0.19838 -0.03523
# Poissons Ratio (y) = 0.59913 0.17063
# Poissons Ratio (z) = -0.08014 0.12853
#
# Static dielectric constant tensor:
#      x y z
#    x 2.002040 0.000000 -0.002400 
#    y 0.000000 2.009160 0.000000 
#    z -0.002400 0.000000 1.969610 
# 
# From -- ./inp_files/274119.got.cif
#   From: 2010.05.17/outbox.cif.g08.bks.cpg/sg15_138_cif.got.tgz:274119.got - 2010.06.03 18:47:42.
