data_PCOD9257706
_publ_section_title
;
Structure prediction by ZEFSAII (Michael W. Deem and Ramdas Pophale) SiO2 
 PCOD9257706
Probable space group: C 2/C
;
_chemical_formula_sum "Si O2"
_cell_formula_units_Z 48
_cell_length_a 11.233780
_cell_length_b 14.612603
_cell_length_c 20.589581
_cell_angle_alpha 90.000000
_cell_angle_beta 141.220745
_cell_angle_gamma 90.000000
_cell_volume 2116.890509
_symmetry_space_group_name_H-M "C 2/C"
_symmetry_group_IT_number 15
_symmetry_cell_setting 'monoclinic'
loop_
_space_group_symop_operation_xyz
x,y,z
-x,y,1/2-z
-x,-y,-z
x,-y,1/2+z
1/2+x,1/2+y,z
1/2-x,1/2+y,1/2-z
1/2-x,1/2-y,-z
1/2+x,1/2-y,1/2+z
loop_
_atom_site_type_symbol
_atom_site_label
_atom_site_fract_x
_atom_site_fract_y
_atom_site_fract_z
Si Si1 0.732715 0.946390 0.656933
Si Si2 0.638229 0.035038 0.250145
Si Si3 0.186616 0.852966 0.368079
Si Si4 0.884546 0.111484 0.099743
Si Si5 0.023944 0.069628 0.924690
Si Si6 0.908154 0.815537 0.919655
O O1 0.578023 0.949876 0.649010
O O2 0.757769 0.047795 0.637754
O O3 0.728461 0.884384 0.590079
O O4 0.922969 0.914843 0.777284
O O5 0.500000 0.009011 0.250000
O O6 0.804901 0.958292 0.318419
O O7 0.729832 0.131227 0.311700
O O8 0.115613 0.863352 0.411187
O O9 0.345964 0.778848 0.423827
O O10 0.000000 0.823153 0.250000
O O11 0.940015 0.191817 0.074278
O O12 0.863162 0.024990 0.041953
O O13 0.034498 0.114597 0.999024
#
# Coordination Sequence:
#
# PCOD9257706 Si02
#       6
#     8   8   8   8   8   8
#     4   8  14  29  50  64  93 139 175 191 248 318
#     4  10  18  32  52  75  99 140 182 214 241 312
#     4  11  16  30  50  76 100 137 176 209 255 315
#     4   8  13  28  47  68  94 135 169 198 247 317
#     4   9  17  31  48  72 105 140 164 206 276 313
#     4  10  19  26  49  82 108 117 171 235 259 285
#
# _framework density 22.674766000000002
#
# number of rings (size 3 to 8) (size 9 to 14) (size 15 to 20)
#    0.000    3.000    5.000    3.000    0.000    0.000 
#    0.000    0.000    7.333   10.000    0.000    4.667 
#    0.000    0.000    0.000    0.000    0.000    0.000 
#
# Total GULP energy -133666.125414 kJ/mol
# GULP energy per Si atom -5569.421892 kJ/mol
# Density = 2.262316 g / cm^3
# Si number density = 22.674766 Si / 1000 Ang^3
#
#
#
# Elastic Constant Matrix: (Units=GPa)
#
#
# Indices 1 2 3 4 5 6 
#
# 1 229.8349 51.6627 55.2276 0.0000 -55.7739 0.0000
# 2 51.6627 45.2480 7.8569 0.0000 -1.4564 0.0000
# 3 55.2276 7.8569 26.5284 0.0000 -17.7650 0.0000
# 4 0.0000 0.0000 0.0000 -3.0258 0.0000 -1.9078
# 5 -55.7739 -1.4564 -17.7650 0.0000 44.8529 0.0000
# 6 0.0000 0.0000 0.0000 -1.9078 0.0000 35.0223
#
#
#
# Elastic Compliance Matrix: (Units=1/GPa)
#
#
# Indices 1 2 3 4 5 6 
#
# 1 0.014067 -0.012409 -0.019279 0.000000 0.009453 0.000000
# 2 -0.012409 0.034486 0.008216 0.000000 -0.011057 0.000000
# 3 -0.019279 0.008216 0.081010 0.000000 0.008379 0.000000
# 4 0.000000 0.000000 0.000000 -0.319513 0.000000 -0.017405
# 5 0.009453 -0.011057 0.008379 0.000000 0.037010 0.000000
# 6 0.000000 0.000000 0.000000 -0.017405 0.000000 0.027605
#
#
# Mechanical properties :
#
#
# Convention : Reuss Voigt Hill
#
# Bulk Modulus (GPa) = 12.10404 59.01175 35.55789
# Shear Modulus (GPa) = -98.32664 27.82749 -35.24958
#
# Velocity S-wave (km/s) = -6.59227 3.50701 -3.94708
# Velocity P-wave (km/s) = 7.25220 6.51771 2.24875
#
# Compressibility (1/GPa) = 0.08261703
#
# Stress axis : x y z
#
# Youngs Moduli (GPa) = 71.08832 28.99694 12.34422
#
# Poissons Ratio (x) = 0.35983 0.23799
# Poissons Ratio (y) = 0.88215 -0.10142
# Poissons Ratio (z) = 1.37054 -0.23823
#
# Static dielectric constant tensor:
#      x y z
#    x 1.979970 0.000000 0.005830 
#    y 0.000000 1.845400 0.000000 
#    z 0.005830 0.000000 1.917330 
# 
# From -- ./inp_files/238481.got.cif
#   From: 2010.05.17/outbox.cif.g08.bks.cpg/sg15_120_cif.got.tgz:238481.got - 2010.06.03 18:47:42.
