data_PCOD9257166
_publ_section_title
;
Structure prediction by ZEFSAII (Michael W. Deem and Ramdas Pophale) SiO2 
 PCOD9257166
Probable space group: C 2/C
;
_chemical_formula_sum "Si O2"
_cell_formula_units_Z 52
_cell_length_a 10.184989
_cell_length_b 20.478154
_cell_length_c 18.612459
_cell_angle_alpha 90.000000
_cell_angle_beta 42.798656
_cell_angle_gamma 90.000000
_cell_volume 2637.521850
_symmetry_space_group_name_H-M "C 2/C"
_symmetry_group_IT_number 15
_symmetry_cell_setting 'monoclinic'
loop_
_space_group_symop_operation_xyz
x,y,z
-x,y,1/2-z
-x,-y,-z
x,-y,1/2+z
1/2+x,1/2+y,z
1/2-x,1/2+y,1/2-z
1/2-x,1/2-y,-z
1/2+x,1/2-y,1/2+z
loop_
_atom_site_type_symbol
_atom_site_label
_atom_site_fract_x
_atom_site_fract_y
_atom_site_fract_z
Si Si1 0.829553 0.804366 0.895029
Si Si2 0.381572 0.066243 0.501595
Si Si3 0.070352 0.654879 0.878119
Si Si4 0.295890 0.451761 0.858544
Si Si5 0.500000 0.186938 0.750000
Si Si6 0.658258 0.187937 0.077388
Si Si7 0.257628 0.287123 0.696464
O O1 0.821943 0.875279 0.861949
O O2 0.836881 0.740063 0.841281
O O3 0.036545 0.804400 0.851694
O O4 0.631848 0.808699 0.019530
O O5 0.397744 0.098122 0.576122
O O6 0.599636 0.047249 0.390832
O O7 0.303368 0.123280 0.483565
O O8 0.260551 0.000010 0.553745
O O9 0.236287 0.709147 0.819365
O O10 0.053886 0.644952 0.798646
O O11 0.500000 0.477290 0.750000
O O12 0.426765 0.196173 0.180865
O O13 0.737714 0.181915 0.126062
O O14 0.750000 0.250000 0.000000
#
# Coordination Sequence:
#
# PCOD9257166 Si02
#       7
#     8   8   8   8   4   8   8
#     4  10  20  36  58  87 111 145 195 235 280 337
#     4  10  22  38  58  85 115 146 196 234 278 340
#     4  10  21  34  56  90 114 142 184 241 288 337
#     4  10  20  38  61  80 108 154 197 236 272 332
#     4  10  18  30  56  88 112 140 174 230 298 324
#     4  11  22  36  54  81 122 156 179 233 287 346
#     4  10  21  34  56  84 117 151 186 224 295 346
#
# _framework density 19.715475999999999
#
# number of rings (size 3 to 8) (size 9 to 14) (size 15 to 20)
#    0.000    1.846    2.308    2.769    6.462    3.692 
#    0.000    0.769    0.000   20.308    0.000    0.000 
#    0.000    0.000    0.000    0.000    0.000    0.000 
#
# Total GULP energy -144770.510394 kJ/mol
# GULP energy per Si atom -5568.096554 kJ/mol
# Density = 1.967060 g / cm^3
# Si number density = 19.715476 Si / 1000 Ang^3
#
#
#
# Elastic Constant Matrix: (Units=GPa)
#
#
# Indices 1 2 3 4 5 6 
#
# 1 55.3368 -4.9654 13.2914 0.0002 12.1525 -0.0003
# 2 -4.9654 43.0217 5.1440 -0.0001 3.2213 0.0002
# 3 13.2914 5.1440 83.3551 0.0000 1.9608 0.0001
# 4 0.0002 -0.0001 0.0000 18.8437 -0.0001 3.5339
# 5 12.1525 3.2213 1.9608 -0.0001 33.9540 0.0002
# 6 -0.0003 0.0002 0.0001 3.5339 0.0002 26.6123
#
#
#
# Elastic Compliance Matrix: (Units=1/GPa)
#
#
# Indices 1 2 3 4 5 6 
#
# 1 0.020846 0.003375 -0.003354 0.000000 -0.007587 0.000000
# 2 0.003375 0.024120 -0.001947 0.000000 -0.003384 0.000000
# 3 -0.003354 -0.001947 0.012636 0.000000 0.000655 0.000000
# 4 0.000000 0.000000 0.000000 0.054424 0.000000 -0.007227
# 5 -0.007587 -0.003384 0.000655 0.000000 0.032450 0.000000
# 6 0.000000 0.000000 0.000000 -0.007227 0.000000 0.038536
#
#
# Mechanical properties :
#
#
# Convention : Reuss Voigt Hill
#
# Bulk Modulus (GPa) = 18.60448 23.18373 20.89410
# Shear Modulus (GPa) = 24.41637 27.09823 25.75730
#
# Velocity S-wave (km/s) = 3.52296 3.71140 3.61841
# Velocity P-wave (km/s) = 5.09954 5.49096 5.29887
#
# Compressibility (1/GPa) = 0.05375050
#
# Stress axis : x y z
#
# Youngs Moduli (GPa) = 47.97119 41.45975 79.13659
#
# Poissons Ratio (x) = -0.13993 0.26541
# Poissons Ratio (y) = -0.16191 0.15408
# Poissons Ratio (z) = 0.16088 0.08072
#
# Static dielectric constant tensor:
#      x y z
#    x 1.742230 0.000000 0.028990 
#    y 0.000000 1.707360 0.000000 
#    z 0.028990 0.000000 1.784570 
# 
# From -- ./inp_files/239750.got.cif
#   From: 2010.05.17/outbox.cif.g08.bks.cpg/sg15_120_cif.got.tgz:239750.got - 2010.06.03 18:47:42.
