data_PCOD9257983
_publ_section_title
;
Structure prediction by ZEFSAII (Michael W. Deem and Ramdas Pophale) SiO2 
 PCOD9257983
Probable space group: C 2/C
;
_chemical_formula_sum "Si O2"
_cell_formula_units_Z 64
_cell_length_a 13.010034
_cell_length_b 23.265706
_cell_length_c 15.282886
_cell_angle_alpha 90.000000
_cell_angle_beta 139.608669
_cell_angle_gamma 90.000000
_cell_volume 2997.631041
_symmetry_space_group_name_H-M "C 2/C"
_symmetry_group_IT_number 15
_symmetry_cell_setting 'monoclinic'
loop_
_space_group_symop_operation_xyz
x,y,z
-x,y,1/2-z
-x,-y,-z
x,-y,1/2+z
1/2+x,1/2+y,z
1/2-x,1/2+y,1/2-z
1/2-x,1/2-y,-z
1/2+x,1/2-y,1/2+z
loop_
_atom_site_type_symbol
_atom_site_label
_atom_site_fract_x
_atom_site_fract_y
_atom_site_fract_z
Si Si1 0.320473 0.586625 0.028186
Si Si2 0.125017 0.518702 0.386630
Si Si3 0.647944 0.223645 0.111176
Si Si4 0.669999 0.189983 0.646183
Si Si5 0.090501 0.690356 0.891944
Si Si6 0.186149 0.100297 0.267676
Si Si7 0.631761 0.006692 0.660750
Si Si8 0.319535 0.583346 0.660871
O O1 0.501730 0.600773 0.122980
O O2 0.309730 0.579460 0.127631
O O3 0.260186 0.527013 0.947293
O O4 0.210478 0.641506 0.938371
O O5 0.209758 0.559176 0.511924
O O6 0.000000 0.556395 0.250000
O O7 0.984236 0.478055 0.335572
O O8 0.728599 0.268861 0.226443
O O9 0.732264 0.162364 0.182469
O O10 0.458155 0.221426 0.999017
O O11 0.662104 0.231978 0.014327
O O12 0.546232 0.160298 0.634913
O O13 0.775375 0.147711 0.658286
O O14 0.000000 0.717043 0.750000
O O15 0.284085 0.054817 0.274521
O O16 0.767233 0.048192 0.713468
O O17 0.500000 0.000000 0.500000
O O18 0.500000 0.575121 0.750000
#
# Coordination Sequence:
#
# PCOD9257983 Si02
#       8
#     8   8   8   8   8   8   8   8
#     4  10  18  32  56  90 132 162 201 247 317 388
#     4  11  22  36  60  98 138 167 208 256 317 392
#     4   9  21  39  60  88 126 167 217 263 316 379
#     4  10  22  42  62  90 121 166 218 271 317 374
#     4   9  20  37  59  89 127 164 207 252 323 385
#     4  10  18  34  58  90 121 168 207 253 314 376
#     4  10  18  34  63  90 123 167 202 245 311 383
#     4  11  22  41  68  93 124 171 221 262 318 380
#
# _framework density 21.350192
#
# number of rings (size 3 to 8) (size 9 to 14) (size 15 to 20)
#    0.750    1.250    2.500    3.375    0.000    1.500 
#    4.500    6.875    0.000    0.750    0.000    0.000 
#    0.000    0.000    0.000    0.000    0.000    0.000 
#
# Total GULP energy -178225.952937 kJ/mol
# GULP energy per Si atom -5569.561029 kJ/mol
# Density = 2.130160 g / cm^3
# Si number density = 21.350192 Si / 1000 Ang^3
#
#
#
# Elastic Constant Matrix: (Units=GPa)
#
#
# Indices 1 2 3 4 5 6 
#
# 1 59.0148 17.1162 43.0612 0.0000 31.6213 0.0000
# 2 17.1162 86.4764 64.9708 0.0000 4.5230 0.0000
# 3 43.0612 64.9708 164.3867 0.0000 16.1078 0.0000
# 4 0.0000 0.0000 0.0000 24.2626 0.0000 6.6554
# 5 31.6213 4.5230 16.1078 0.0000 26.3280 0.0000
# 6 0.0000 0.0000 0.0000 6.6554 0.0000 19.5426
#
#
#
# Elastic Compliance Matrix: (Units=1/GPa)
#
#
# Indices 1 2 3 4 5 6 
#
# 1 0.057732 -0.002035 -0.008041 0.000000 -0.064070 0.000000
# 2 -0.002035 0.016557 -0.006352 0.000000 0.003486 0.000000
# 3 -0.008041 -0.006352 0.010262 0.000000 0.004470 0.000000
# 4 0.000000 0.000000 0.000000 0.045463 0.000000 -0.015483
# 5 -0.064070 0.003486 0.004470 0.000000 0.111600 0.000000
# 6 0.000000 0.000000 0.000000 -0.015483 0.000000 0.056443
#
#
# Mechanical properties :
#
#
# Convention : Reuss Voigt Hill
#
# Bulk Modulus (GPa) = 19.34407 62.24160 40.79284
# Shear Modulus (GPa) = 14.36188 26.34196 20.35192
#
# Velocity S-wave (km/s) = 2.59642 3.51637 3.09081
# Velocity P-wave (km/s) = 4.25072 6.76036 5.64673
#
# Compressibility (1/GPa) = 0.05169542
#
# Stress axis : x y z
#
# Youngs Moduli (GPa) = 17.32143 60.39788 97.44560
#
# Poissons Ratio (x) = 0.12289 0.78353
# Poissons Ratio (y) = 0.03524 0.61901
# Poissons Ratio (z) = 0.13928 0.38367
#
# Static dielectric constant tensor:
#      x y z
#    x 1.918960 0.000000 -0.112890 
#    y 0.000000 1.807710 0.000000 
#    z -0.112890 0.000000 1.914110 
# 
# From -- ./inp_files/207382.got.cif
#   From: 2010.05.17/outbox.cif.g08.bks.cpg/sg15_104_cif.got.tgz:207382.got - 2010.06.03 18:47:42.
