data_PCOD9257518
_publ_section_title
;
Structure prediction by ZEFSAII (Michael W. Deem and Ramdas Pophale) SiO2 
 PCOD9257518
Probable space group: C 2/C
;
_chemical_formula_sum "Si O2"
_cell_formula_units_Z 60
_cell_length_a 16.110141
_cell_length_b 9.093372
_cell_length_c 18.893276
_cell_angle_alpha 90.000000
_cell_angle_beta 71.278106
_cell_angle_gamma 90.000000
_cell_volume 2621.330391
_symmetry_space_group_name_H-M "C 2/C"
_symmetry_group_IT_number 15
_symmetry_cell_setting 'monoclinic'
loop_
_space_group_symop_operation_xyz
x,y,z
-x,y,1/2-z
-x,-y,-z
x,-y,1/2+z
1/2+x,1/2+y,z
1/2-x,1/2+y,1/2-z
1/2-x,1/2-y,-z
1/2+x,1/2-y,1/2+z
loop_
_atom_site_type_symbol
_atom_site_label
_atom_site_fract_x
_atom_site_fract_y
_atom_site_fract_z
Si Si1 0.000000 0.933436 0.250000
Si Si2 0.068763 0.182649 0.478778
Si Si3 0.032643 0.188124 0.134179
Si Si4 0.243573 0.201137 0.152084
Si Si5 0.121728 0.857799 0.479362
Si Si6 0.793903 0.378239 0.116521
Si Si7 0.601086 0.115747 0.762804
Si Si8 0.651782 0.205469 0.228346
O O1 0.078054 0.829694 0.254126
O O2 0.965536 0.042870 0.319660
O O3 0.044645 0.153446 0.402856
O O4 0.134573 0.319762 0.459477
O O5 0.969059 0.197765 0.534960
O O6 0.111802 0.032439 0.493194
O O7 0.993030 0.329487 0.184012
O O8 0.114021 0.212880 0.059475
O O9 0.295342 0.312438 0.087641
O O10 0.252071 0.038443 0.116924
O O11 0.148598 0.261981 0.200533
O O12 0.295188 0.199559 0.212755
O O13 0.842488 0.390438 0.179375
O O14 0.718765 0.256670 0.148886
O O15 0.610368 0.954261 0.728005
#
# Coordination Sequence:
#
# PCOD9257518 Si02
#       8
#     4   8   8   8   8   8   8   8
#     4  12  22  34  52  72 106 142 178 212 244 318
#     4   8  16  31  52  77 104 133 163 216 261 304
#     4   9  19  34  51  74 102 139 172 207 256 308
#     4  10  18  31  57  81 103 132 167 222 265 305
#     4   9  17  30  51  80 105 133 166 211 271 301
#     4   9  17  32  52  83 108 130 170 217 263 305
#     4   9  18  35  54  77 106 134 175 217 261 301
#     4  10  21  32  51  79 105 137 174 213 257 306
#
# _framework density 22.889140000000001
#
# number of rings (size 3 to 8) (size 9 to 14) (size 15 to 20)
#    0.800    1.867    0.000    2.400    0.000    5.333 
#    0.000    0.000    0.000    6.400    0.000    0.000 
#    0.000    0.000    0.000    0.000    0.000    0.000 
#
# Total GULP energy -167411.669817 kJ/mol
# GULP energy per Si atom -5580.388994 kJ/mol
# Density = 2.283704 g / cm^3
# Si number density = 22.889140 Si / 1000 Ang^3
#
#
#
# Elastic Constant Matrix: (Units=GPa)
#
#
# Indices 1 2 3 4 5 6 
#
# 1 77.6805 37.7033 9.3226 0.0000 -33.3631 0.0000
# 2 37.7033 102.2592 -0.7422 0.0000 -17.6952 0.0000
# 3 9.3226 -0.7422 46.3869 0.0000 -17.8490 0.0000
# 4 0.0000 0.0000 0.0000 30.3047 0.0000 -5.9760
# 5 -33.3631 -17.6952 -17.8490 0.0000 31.7372 0.0000
# 6 0.0000 0.0000 0.0000 -5.9760 0.0000 20.3316
#
#
#
# Elastic Compliance Matrix: (Units=1/GPa)
#
#
# Indices 1 2 3 4 5 6 
#
# 1 0.026903 -0.004921 0.005540 0.000000 0.028653 0.000000
# 2 -0.004921 0.012105 0.002283 0.000000 0.002860 0.000000
# 3 0.005540 0.002283 0.029622 0.000000 0.023756 0.000000
# 4 0.000000 0.000000 0.000000 0.035028 0.000000 0.010296
# 5 0.028653 0.002860 0.023756 0.000000 0.076585 0.000000
# 6 0.000000 0.000000 0.000000 0.010296 0.000000 0.052211
#
#
# Mechanical properties :
#
#
# Convention : Reuss Voigt Hill
#
# Bulk Modulus (GPa) = 13.43467 35.43266 24.43366
# Shear Modulus (GPa) = 19.88380 28.47756 24.18068
#
# Velocity S-wave (km/s) = 2.95057 3.53108 3.25380
# Velocity P-wave (km/s) = 4.18211 5.66908 4.98139
#
# Compressibility (1/GPa) = 0.07443428
#
# Stress axis : x y z
#
# Youngs Moduli (GPa) = 37.17045 82.61099 33.75882
#
# Poissons Ratio (x) = 0.40651 -0.18701
# Poissons Ratio (y) = 0.18291 -0.07708
# Poissons Ratio (z) = -0.20591 -0.18862
#
# Static dielectric constant tensor:
#      x y z
#    x 1.972280 0.000000 0.036570 
#    y 0.000000 1.809260 0.000000 
#    z 0.036570 0.000000 1.862540 
# 
# From -- ./inp_files/276560.got.cif
#   From: 2010.05.17/outbox.cif.g08.bks.cpg/sg15_139_cif.got.tgz:276560.got - 2010.06.03 18:47:42.
