data_PCOD9257176
_publ_section_title
;
Structure prediction by ZEFSAII (Michael W. Deem and Ramdas Pophale) SiO2 
 PCOD9257176
Probable space group: C 2/C
;
_chemical_formula_sum "Si O2"
_cell_formula_units_Z 44
_cell_length_a 13.541436
_cell_length_b 14.438142
_cell_length_c 8.948853
_cell_angle_alpha 90.000000
_cell_angle_beta 107.546667
_cell_angle_gamma 90.000000
_cell_volume 1668.211908
_symmetry_space_group_name_H-M "C 2/C"
_symmetry_group_IT_number 15
_symmetry_cell_setting 'monoclinic'
loop_
_space_group_symop_operation_xyz
x,y,z
-x,y,1/2-z
-x,-y,-z
x,-y,1/2+z
1/2+x,1/2+y,z
1/2-x,1/2+y,1/2-z
1/2-x,1/2-y,-z
1/2+x,1/2-y,1/2+z
loop_
_atom_site_type_symbol
_atom_site_label
_atom_site_fract_x
_atom_site_fract_y
_atom_site_fract_z
Si Si1 0.000000 0.042300 0.750000
Si Si2 0.326345 0.093488 0.913302
Si Si3 0.420857 0.618855 0.416851
Si Si4 0.301506 0.227504 0.680878
Si Si5 0.542073 0.204931 0.975282
Si Si6 0.883420 0.582213 0.254115
O O1 0.927914 0.096777 0.597485
O O2 0.066495 0.974193 0.672959
O O3 0.253843 0.153125 0.772154
O O4 0.347957 0.993987 0.855236
O O5 0.433531 0.153774 0.958274
O O6 0.306775 0.084436 0.079187
O O7 0.337191 0.683851 0.293655
O O8 0.521556 0.686424 0.446470
O O9 0.250000 0.250000 0.500000
O O10 0.400156 0.174139 0.648016
O O11 0.606778 0.178294 0.152163
O O12 0.000000 0.557444 0.250000
#
# Coordination Sequence:
#
# PCOD9257176 Si02
#       6
#     4   8   8   8   8   8
#     4  10  20  36  64  88 104 138 206 254 278 326
#     4  10  19  33  56  84 112 144 188 227 275 333
#     4  10  20  37  61  86 108 142 192 248 292 322
#     4  11  22  38  55  79 120 156 186 229 295 348
#     4  10  19  34  57  83 111 143 187 228 279 337
#     4  10  18  30  57  89 111 138 177 230 276 336
#
# _framework density 26.375544999999999
#
# number of rings (size 3 to 8) (size 9 to 14) (size 15 to 20)
#    0.000    1.818    1.818    6.000    6.364    0.000 
#    0.000    4.545    0.000    0.000    0.000    0.000 
#    0.000    0.000    0.000    0.000    0.000    0.000 
#
# Total GULP energy -122940.439924 kJ/mol
# GULP energy per Si atom -5588.201815 kJ/mol
# Density = 2.631551 g / cm^3
# Si number density = 26.375545 Si / 1000 Ang^3
#
#
#
# Elastic Constant Matrix: (Units=GPa)
#
#
# Indices 1 2 3 4 5 6 
#
# 1 42.2969 13.2642 33.3732 0.0000 -2.9307 0.0000
# 2 13.2642 90.7399 72.0525 0.0000 -6.0246 0.0000
# 3 33.3732 72.0525 262.7555 0.0000 -4.5164 0.0000
# 4 0.0000 0.0000 0.0000 66.0619 0.0000 -13.9521
# 5 -2.9307 -6.0246 -4.5164 0.0000 50.6514 0.0000
# 6 0.0000 0.0000 0.0000 -13.9521 0.0000 18.1824
#
#
#
# Elastic Compliance Matrix: (Units=1/GPa)
#
#
# Indices 1 2 3 4 5 6 
#
# 1 0.026501 -0.001462 -0.002946 0.000000 0.001097 0.000000
# 2 -0.001462 0.014259 -0.003702 0.000000 0.001281 0.000000
# 3 -0.002946 -0.003702 0.005193 0.000000 -0.000148 0.000000
# 4 0.000000 0.000000 0.000000 0.018065 0.000000 0.013862
# 5 0.001097 0.001281 -0.000148 0.000000 0.019945 0.000000
# 6 0.000000 0.000000 0.000000 0.013862 0.000000 0.065635
#
#
# Mechanical properties :
#
#
# Convention : Reuss Voigt Hill
#
# Bulk Modulus (GPa) = 33.63303 70.35246 51.99274
# Shear Modulus (GPa) = 28.45260 45.45263 36.95261
#
# Velocity S-wave (km/s) = 3.28799 4.15575 3.74708
# Velocity P-wave (km/s) = 5.21477 7.05396 6.20291
#
# Compressibility (1/GPa) = 0.02973268
#
# Stress axis : x y z
#
# Youngs Moduli (GPa) = 37.73376 70.13016 192.57437
#
# Poissons Ratio (x) = 0.10250 0.56740
# Poissons Ratio (y) = 0.05515 0.71300
# Poissons Ratio (z) = 0.11118 0.25966
#
# Static dielectric constant tensor:
#      x y z
#    x 2.371770 0.000000 0.207750 
#    y 0.000000 1.991330 0.000000 
#    z 0.207750 0.000000 2.164850 
# 
# From -- ./inp_files/47200.got.cif
#   From: 2010.05.17/outbox.cif.g08.bks.cpg/sg15_24_cif.got.tgz:47200.got - 2010.06.03 18:47:42.
