data_PCOD9257853
_publ_section_title
;
Structure prediction by ZEFSAII (Michael W. Deem and Ramdas Pophale) SiO2 
 PCOD9257853
Probable space group: C 2/C
;
_chemical_formula_sum "Si O2"
_cell_formula_units_Z 44
_cell_length_a 16.608953
_cell_length_b 10.808240
_cell_length_c 30.948857
_cell_angle_alpha 90.000000
_cell_angle_beta 159.593080
_cell_angle_gamma 90.000000
_cell_volume 1937.204291
_symmetry_space_group_name_H-M "C 2/C"
_symmetry_group_IT_number 15
_symmetry_cell_setting 'monoclinic'
loop_
_space_group_symop_operation_xyz
x,y,z
-x,y,1/2-z
-x,-y,-z
x,-y,1/2+z
1/2+x,1/2+y,z
1/2-x,1/2+y,1/2-z
1/2-x,1/2-y,-z
1/2+x,1/2-y,1/2+z
loop_
_atom_site_type_symbol
_atom_site_label
_atom_site_fract_x
_atom_site_fract_y
_atom_site_fract_z
Si Si1 0.609202 0.941500 0.436897
Si Si2 0.691728 0.716585 0.534278
Si Si3 0.960348 0.154638 0.599697
Si Si4 0.000000 0.348278 0.750000
Si Si5 0.990810 0.140633 0.976620
Si Si6 0.801658 0.628722 0.239311
O O1 0.638868 0.855296 0.493173
O O2 0.617692 0.846062 0.400412
O O3 0.835417 0.029143 0.550560
O O4 0.389682 0.032570 0.319831
O O5 0.703921 0.703141 0.591796
O O6 0.463160 0.637740 0.406295
O O7 0.750000 0.250000 0.500000
O O8 0.039945 0.145198 0.590041
O O9 0.144635 0.228835 0.720736
O O10 0.742396 0.294327 0.612216
O O11 0.951891 0.409883 0.772472
O O12 0.000000 0.000000 0.000000
#
# Coordination Sequence:
#
# PCOD9257853 Si02
#       6
#     8   8   8   4   8   8
#     4  10  20  38  54  86 120 148 186 252 286 336
#     4  10  22  34  59  88 118 149 196 238 292 335
#     4  10  19  37  57  78 116 151 189 232 291 338
#     4  10  18  32  54  84 108 140 200 230 268 342
#     4  11  19  35  57  85 111 151 191 235 281 340
#     4  10  21  35  60  83 113 161 192 233 293 356
#
# _framework density 22.713144
#
# number of rings (size 3 to 8) (size 9 to 14) (size 15 to 20)
#    0.000    1.818    5.455    0.000    2.545    0.000 
#    0.000    3.636    0.000    0.000    0.000    0.000 
#    0.000    0.000    0.000    0.000    0.000    0.000 
#
# Total GULP energy -122515.168306 kJ/mol
# GULP energy per Si atom -5568.871287 kJ/mol
# Density = 2.266145 g / cm^3
# Si number density = 22.713144 Si / 1000 Ang^3
#
#
#
# Elastic Constant Matrix: (Units=GPa)
#
#
# Indices 1 2 3 4 5 6 
#
# 1 121.5137 48.6076 -5.7336 -0.0004 -4.6642 -0.0004
# 2 48.6076 111.2875 3.3026 -0.0004 -12.2297 0.0005
# 3 -5.7336 3.3026 60.8097 0.0030 1.7747 -0.0031
# 4 -0.0004 -0.0004 0.0030 25.6277 -0.0003 -2.2754
# 5 -4.6642 -12.2297 1.7747 -0.0003 25.8574 0.0002
# 6 -0.0004 0.0005 -0.0031 -2.2754 0.0002 31.2002
#
#
#
# Elastic Compliance Matrix: (Units=1/GPa)
#
#
# Indices 1 2 3 4 5 6 
#
# 1 0.010060 -0.004472 0.001203 0.000000 -0.000383 0.000000
# 2 -0.004472 0.011492 -0.001183 0.000000 0.004710 0.000000
# 3 0.001203 -0.001183 0.016666 -0.000002 -0.001487 0.000002
# 4 0.000000 0.000000 -0.000002 0.039275 0.000001 0.002864
# 5 -0.000383 0.004710 -0.001487 0.000001 0.040934 0.000000
# 6 0.000000 0.000000 0.000002 0.002864 0.000000 0.032260
#
#
# Mechanical properties :
#
#
# Convention : Reuss Voigt Hill
#
# Bulk Modulus (GPa) = 34.11475 42.88488 38.49981
# Shear Modulus (GPa) = 29.52246 33.03267 31.27757
#
# Velocity S-wave (km/s) = 3.60918 3.81772 3.71491
# Velocity P-wave (km/s) = 5.69392 6.19317 5.94878
#
# Compressibility (1/GPa) = 0.02931284
#
# Stress axis : x y z
#
# Youngs Moduli (GPa) = 99.39947 87.01984 60.00321
#
# Poissons Ratio (x) = 0.38914 -0.07216
# Poissons Ratio (y) = 0.44450 0.07100
# Poissons Ratio (z) = -0.11954 0.10296
#
# Static dielectric constant tensor:
#      x y z
#    x 1.926300 0.000000 0.007010 
#    y 0.000000 1.909730 0.000000 
#    z 0.007010 0.000000 1.994160 
# 
# From -- ./inp_files/151404.got.cif
#   From: 2010.05.17/outbox.cif.g08.bks.cpg/sg15_76_cif.got.tgz:151404.got - 2010.06.03 18:47:42.
