data_PCOD9257813
_publ_section_title
;
Structure prediction by ZEFSAII (Michael W. Deem and Ramdas Pophale) SiO2 
 PCOD9257813
Probable space group: C 2/C
;
_chemical_formula_sum "Si O2"
_cell_formula_units_Z 48
_cell_length_a 10.143254
_cell_length_b 23.693575
_cell_length_c 14.544772
_cell_angle_alpha 90.000000
_cell_angle_beta 48.686348
_cell_angle_gamma 90.000000
_cell_volume 2625.527289
_symmetry_space_group_name_H-M "C 2/C"
_symmetry_group_IT_number 15
_symmetry_cell_setting 'monoclinic'
loop_
_space_group_symop_operation_xyz
x,y,z
-x,y,1/2-z
-x,-y,-z
x,-y,1/2+z
1/2+x,1/2+y,z
1/2-x,1/2+y,1/2-z
1/2-x,1/2-y,-z
1/2+x,1/2-y,1/2+z
loop_
_atom_site_type_symbol
_atom_site_label
_atom_site_fract_x
_atom_site_fract_y
_atom_site_fract_z
Si Si1 0.500000 0.273741 0.750000
Si Si2 0.874102 0.861256 0.956317
Si Si3 0.985362 0.983546 0.899976
Si Si4 0.779535 0.183191 0.688678
Si Si5 0.496442 0.918065 0.150167
Si Si6 0.500000 0.647797 0.750000
Si Si7 0.761116 0.958176 0.366822
O O1 0.407829 0.314244 0.865656
O O2 0.649039 0.234658 0.727854
O O3 0.995514 0.916134 0.887535
O O4 0.891209 0.832405 0.047423
O O5 0.677539 0.886474 0.046528
O O6 0.802674 0.004541 0.937398
O O7 0.127433 0.014231 0.769510
O O8 0.000000 0.000000 0.000000
O O9 0.651659 0.130008 0.766020
O O10 0.912832 0.185532 0.711717
O O11 0.500000 0.947649 0.250000
O O12 0.427463 0.950857 0.092586
O O13 0.652401 0.603105 0.649921
#
# Coordination Sequence:
#
# PCOD9257813 Si02
#       7
#     4   8   8   8   8   4   8
#     4  12  22  35  56  78 112 147 186 224 270 318
#     4  11  21  34  54  82 109 142 185 225 264 330
#     4  10  18  32  54  78 107 141 175 219 276 326
#     4  10  19  35  57  78 104 146 187 227 269 317
#     4   9  17  33  55  79 105 138 185 226 266 324
#     4   8  16  33  56  78 104 135 188 224 268 328
#     4   9  18  32  52  80 106 138 179 225 271 330
#
# _framework density 18.282042000000001
#
# number of rings (size 3 to 8) (size 9 to 14) (size 15 to 20)
#    0.000    2.333    2.500    5.500    0.000    0.667 
#    0.000    0.833    3.667    0.000    2.167    0.000 
#    0.000    0.000    0.000    0.000    0.000    0.000 
#
# Total GULP energy -133696.584026 kJ/mol
# GULP energy per Si atom -5570.691001 kJ/mol
# Density = 1.824043 g / cm^3
# Si number density = 18.282042 Si / 1000 Ang^3
#
#
#
# Elastic Constant Matrix: (Units=GPa)
#
#
# Indices 1 2 3 4 5 6 
#
# 1 156.7273 51.4682 42.5724 0.0000 34.8293 0.0000
# 2 51.4682 82.1407 31.1426 0.0000 18.0058 0.0000
# 3 42.5724 31.1426 63.4080 0.0000 23.1847 0.0000
# 4 0.0000 0.0000 0.0000 22.4791 0.0000 9.2394
# 5 34.8293 18.0058 23.1847 0.0000 29.0583 0.0000
# 6 0.0000 0.0000 0.0000 9.2394 0.0000 11.4008
#
#
#
# Elastic Compliance Matrix: (Units=1/GPa)
#
#
# Indices 1 2 3 4 5 6 
#
# 1 0.009907 -0.003730 -0.001868 0.000000 -0.008073 0.000000
# 2 -0.003730 0.016856 -0.005069 0.000000 -0.001930 0.000000
# 3 -0.001868 -0.005069 0.024775 0.000000 -0.014388 0.000000
# 4 0.000000 0.000000 0.000000 0.066705 0.000000 -0.054058
# 5 -0.008073 -0.001930 -0.014388 0.000000 0.056765 0.000000
# 6 0.000000 0.000000 0.000000 -0.054058 0.000000 0.131522
#
#
# Mechanical properties :
#
#
# Convention : Reuss Voigt Hill
#
# Bulk Modulus (GPa) = 33.10685 61.40472 47.25578
# Shear Modulus (GPa) = 14.79589 24.39383 19.59486
#
# Velocity S-wave (km/s) = 2.84793 3.65678 3.27740
# Velocity P-wave (km/s) = 5.38168 7.17563 6.34241
#
# Compressibility (1/GPa) = 0.03020523
#
# Stress axis : x y z
#
# Youngs Moduli (GPa) = 100.94224 59.32577 40.36274
#
# Poissons Ratio (x) = 0.22126 0.07539
# Poissons Ratio (y) = 0.37647 0.20460
# Poissons Ratio (z) = 0.18854 0.30072
#
# Static dielectric constant tensor:
#      x y z
#    x 1.688340 0.000000 0.015530 
#    y 0.000000 1.632190 0.000000 
#    z 0.015530 0.000000 1.759770 
# 
# From -- ./inp_files/146637.got.cif
#   From: 2010.05.17/outbox.cif.g08.bks.cpg/sg15_74_cif.got.tgz:146637.got - 2010.06.03 18:47:42.
