data_PCOD9257192
_publ_section_title
;
Structure prediction by ZEFSAII (Michael W. Deem and Ramdas Pophale) SiO2 
 PCOD9257192
Probable space group: C 2/C
;
_chemical_formula_sum "Si O2"
_cell_formula_units_Z 64
_cell_length_a 14.250696
_cell_length_b 14.845377
_cell_length_c 18.450252
_cell_angle_alpha 90.000000
_cell_angle_beta 102.406844
_cell_angle_gamma 90.000000
_cell_volume 3812.124369
_symmetry_space_group_name_H-M "C 2/C"
_symmetry_group_IT_number 15
_symmetry_cell_setting 'monoclinic'
loop_
_space_group_symop_operation_xyz
x,y,z
-x,y,1/2-z
-x,-y,-z
x,-y,1/2+z
1/2+x,1/2+y,z
1/2-x,1/2+y,1/2-z
1/2-x,1/2-y,-z
1/2+x,1/2-y,1/2+z
loop_
_atom_site_type_symbol
_atom_site_label
_atom_site_fract_x
_atom_site_fract_y
_atom_site_fract_z
Si Si1 0.758964 0.147754 0.577640
Si Si2 0.660197 0.930625 0.357954
Si Si3 0.997043 0.872857 0.951326
Si Si4 0.836129 0.003023 0.474545
Si Si5 0.148722 0.430435 0.185463
Si Si6 0.514929 0.223589 0.833912
Si Si7 0.500201 0.958219 0.581530
Si Si8 0.913905 0.732654 0.041770
O O1 0.736356 0.105329 0.651632
O O2 0.845022 0.220266 0.589496
O O3 0.662734 0.196407 0.531151
O O4 0.785645 0.069509 0.524220
O O5 0.758469 0.948170 0.416027
O O6 0.667795 0.948477 0.273078
O O7 0.614546 0.831128 0.358451
O O8 0.583161 0.996270 0.383845
O O9 0.006208 0.804670 0.887194
O O10 0.089031 0.936342 0.974461
O O11 0.901879 0.934487 0.933729
O O12 0.980450 0.809633 0.018712
O O13 0.067671 0.351814 0.168546
O O14 0.099673 0.514576 0.136397
O O15 0.500000 0.256322 0.750000
O O16 0.476184 0.853011 0.574261
O O17 0.500000 0.000000 0.500000
#
# Coordination Sequence:
#
# PCOD9257192 Si02
#       8
#     8   8   8   8   8   8   8   8
#     4  10  18  33  55  82  99 140 184 217 251 320
#     4  10  20  34  53  79 112 143 170 222 268 318
#     4  10  20  36  56  77 104 140 175 222 261 313
#     4  10  21  36  56  77 107 138 181 218 265 307
#     4  10  19  33  55  79 112 140 174 216 278 312
#     4   9  18  33  53  77 105 139 173 212 267 320
#     4  11  17  30  55  86 104 135 178 224 260 311
#     4  10  18  30  59  79 101 133 184 222 256 302
#
# _framework density 16.788537999999999
#
# number of rings (size 3 to 8) (size 9 to 14) (size 15 to 20)
#    0.000    2.000    3.750    1.875    0.000    0.500 
#    2.250    0.000    8.250    0.000    0.000    0.000 
#    0.000    0.000    0.000    0.000    0.000    0.000 
#
# Total GULP energy -178379.656971 kJ/mol
# GULP energy per Si atom -5574.364280 kJ/mol
# Density = 1.675033 g / cm^3
# Si number density = 16.788538 Si / 1000 Ang^3
#
#
#
# Elastic Constant Matrix: (Units=GPa)
#
#
# Indices 1 2 3 4 5 6 
#
# 1 56.2253 20.6846 35.5362 0.0000 -8.0751 0.0000
# 2 20.6846 62.4944 22.4685 0.0000 -2.5484 0.0000
# 3 35.5362 22.4685 75.1145 0.0000 -17.7271 0.0000
# 4 0.0000 0.0000 0.0000 23.6163 0.0000 -9.3083
# 5 -8.0751 -2.5484 -17.7271 0.0000 16.5142 0.0000
# 6 0.0000 0.0000 0.0000 -9.3083 0.0000 14.0208
#
#
#
# Elastic Compliance Matrix: (Units=1/GPa)
#
#
# Indices 1 2 3 4 5 6 
#
# 1 0.026597 -0.004815 -0.011048 0.000000 0.000404 0.000000
# 2 -0.004815 0.019001 -0.004379 0.000000 -0.004123 0.000000
# 3 -0.011048 -0.004379 0.024663 0.000000 0.020397 0.000000
# 4 0.000000 0.000000 0.000000 0.057351 0.000000 0.038075
# 5 0.000404 -0.004123 0.020397 0.000000 0.082010 0.000000
# 6 0.000000 0.000000 0.000000 0.038075 0.000000 0.096600
#
#
# Mechanical properties :
#
#
# Convention : Reuss Voigt Hill
#
# Bulk Modulus (GPa) = 33.58058 39.02365 36.30212
# Shear Modulus (GPa) = 14.02010 18.50657 16.26333
#
# Velocity S-wave (km/s) = 2.89294 3.32374 3.11580
# Velocity P-wave (km/s) = 5.58608 6.16639 5.88340
#
# Compressibility (1/GPa) = 0.02977911
#
# Stress axis : x y z
#
# Youngs Moduli (GPa) = 37.59782 52.62804 40.54675
#
# Poissons Ratio (x) = 0.25340 0.44794
# Poissons Ratio (y) = 0.18103 0.17754
# Poissons Ratio (z) = 0.41536 0.23044
#
# Static dielectric constant tensor:
#      x y z
#    x 1.581530 0.000000 -0.019840 
#    y 0.000000 1.567110 0.000000 
#    z -0.019840 0.000000 1.554270 
# 
# From -- ./inp_files/205125.got.cif
#   From: 2010.05.17/outbox.cif.g08.bks.cpg/sg15_103_cif.got.tgz:205125.got - 2010.06.03 18:47:42.
