data_PCOD9257255
_publ_section_title
;
Structure prediction by ZEFSAII (Michael W. Deem and Ramdas Pophale) SiO2 
 PCOD9257255
Probable space group: C 2/C
;
_chemical_formula_sum "Si O2"
_cell_formula_units_Z 56
_cell_length_a 20.376397
_cell_length_b 19.830061
_cell_length_c 14.885171
_cell_angle_alpha 90.000000
_cell_angle_beta 150.686921
_cell_angle_gamma 90.000000
_cell_volume 2944.626914
_symmetry_space_group_name_H-M "C 2/C"
_symmetry_group_IT_number 15
_symmetry_cell_setting 'monoclinic'
loop_
_space_group_symop_operation_xyz
x,y,z
-x,y,1/2-z
-x,-y,-z
x,-y,1/2+z
1/2+x,1/2+y,z
1/2-x,1/2+y,1/2-z
1/2-x,1/2-y,-z
1/2+x,1/2-y,1/2+z
loop_
_atom_site_type_symbol
_atom_site_label
_atom_site_fract_x
_atom_site_fract_y
_atom_site_fract_z
Si Si1 0.633877 0.518517 0.870620
Si Si2 0.272789 0.618759 0.363150
Si Si3 0.224316 0.380868 0.188125
Si Si4 0.649952 0.759765 0.964616
Si Si5 0.124921 0.508677 0.954136
Si Si6 0.998055 0.422357 0.033572
Si Si7 0.490073 0.575367 0.953073
O O1 0.500000 0.483640 0.750000
O O2 0.574695 0.570048 0.724522
O O3 0.700766 0.562095 0.029481
O O4 0.750431 0.475500 0.962667
O O5 0.334032 0.688971 0.466287
O O6 0.115992 0.618098 0.156432
O O7 0.358907 0.599472 0.378414
O O8 0.385048 0.383744 0.387499
O O9 0.186726 0.319578 0.077396
O O10 0.182789 0.450169 0.087369
O O11 0.138644 0.387247 0.177277
O O12 0.500000 0.770299 0.750000
O O13 0.750000 0.750000 0.000000
O O14 0.000000 0.478392 0.750000
O O15 0.057133 0.567803 0.931580
O O16 0.000000 0.500000 0.000000
O O17 0.500000 0.500000 0.000000
#
# Coordination Sequence:
#
# PCOD9257255 Si02
#       7
#     8   8   8   8   8   8   8
#     4   9  17  28  44  67  95 128 161 201 251 301
#     4  11  20  33  50  74 106 138 172 209 255 317
#     4  10  20  33  48  73 105 140 175 213 258 312
#     4  12  22  34  52  77 110 149 181 208 249 317
#     4  10  18  31  49  72  99 130 168 215 263 310
#     4  10  20  33  50  72 101 138 174 218 268 311
#     4  10  19  32  48  67  96 135 175 214 255 298
#
# _framework density 19.017689000000001
#
# number of rings (size 3 to 8) (size 9 to 14) (size 15 to 20)
#    0.000    1.714    0.000    9.429    0.000    1.143 
#    0.000    0.000    0.000    0.000    0.000    1.000 
#    0.000   11.429    0.000    0.286    0.000    0.000 
#
# Total GULP energy -156084.613669 kJ/mol
# GULP energy per Si atom -5574.450488 kJ/mol
# Density = 1.897440 g / cm^3
# Si number density = 19.017689 Si / 1000 Ang^3
#
#
#
# Elastic Constant Matrix: (Units=GPa)
#
#
# Indices 1 2 3 4 5 6 
#
# 1 148.2206 34.4625 17.3491 0.0000 40.1682 0.0000
# 2 34.4625 60.0049 -2.3186 0.0000 1.8316 0.0000
# 3 17.3491 -2.3186 35.5486 0.0000 18.1081 0.0000
# 4 0.0000 0.0000 0.0000 20.8252 0.0000 2.2496
# 5 40.1682 1.8316 18.1081 0.0000 27.2924 0.0000
# 6 0.0000 0.0000 0.0000 2.2496 0.0000 17.0502
#
#
#
# Elastic Compliance Matrix: (Units=1/GPa)
#
#
# Indices 1 2 3 4 5 6 
#
# 1 0.014309 -0.007322 0.004556 0.000000 -0.023592 0.000000
# 2 -0.007322 0.020595 0.000198 0.000000 0.009263 0.000000
# 3 0.004556 0.000198 0.044322 0.000000 -0.036126 0.000000
# 4 0.000000 0.000000 0.000000 0.048713 0.000000 -0.006427
# 5 -0.023592 0.009263 -0.036126 0.000000 0.094710 0.000000
# 6 0.000000 0.000000 0.000000 -0.006427 0.000000 0.059498
#
#
# Mechanical properties :
#
#
# Convention : Reuss Voigt Hill
#
# Bulk Modulus (GPa) = 13.49663 38.08444 25.79053
# Shear Modulus (GPa) = 16.02668 25.98562 21.00615
#
# Velocity S-wave (km/s) = 2.90612 3.70048 3.32710
# Velocity P-wave (km/s) = 4.28638 6.19091 5.32449
#
# Compressibility (1/GPa) = 0.07409257
#
# Stress axis : x y z
#
# Youngs Moduli (GPa) = 69.88507 48.55431 22.56202
#
# Poissons Ratio (x) = 0.35552 -0.10280
# Poissons Ratio (y) = 0.51170 -0.00448
# Poissons Ratio (z) = -0.31842 -0.00964
#
# Static dielectric constant tensor:
#      x y z
#    x 1.909510 0.000000 0.119480 
#    y 0.000000 1.650370 0.000000 
#    z 0.119480 0.000000 1.681990 
# 
# From -- ./inp_files/169181.got.cif
#   From: 2010.05.17/outbox.cif.g08.bks.cpg/sg15_85_cif.got.tgz:169181.got - 2010.06.03 18:47:42.
