data_PCOD9257473
_publ_section_title
;
Structure prediction by ZEFSAII (Michael W. Deem and Ramdas Pophale) SiO2 
 PCOD9257473
Probable space group: C 2/C
;
_chemical_formula_sum "Si O2"
_cell_formula_units_Z 48
_cell_length_a 10.610190
_cell_length_b 17.757562
_cell_length_c 10.382061
_cell_angle_alpha 90.000000
_cell_angle_beta 76.582717
_cell_angle_gamma 90.000000
_cell_volume 1902.705790
_symmetry_space_group_name_H-M "C 2/C"
_symmetry_group_IT_number 15
_symmetry_cell_setting 'monoclinic'
loop_
_space_group_symop_operation_xyz
x,y,z
-x,y,1/2-z
-x,-y,-z
x,-y,1/2+z
1/2+x,1/2+y,z
1/2-x,1/2+y,1/2-z
1/2-x,1/2-y,-z
1/2+x,1/2-y,1/2+z
loop_
_atom_site_type_symbol
_atom_site_label
_atom_site_fract_x
_atom_site_fract_y
_atom_site_fract_z
Si Si1 0.480056 0.666436 0.937246
Si Si2 0.519278 0.839892 0.937564
Si Si3 0.235273 0.631907 0.843557
Si Si4 0.269771 0.381959 0.990759
Si Si5 0.125365 0.485977 0.881090
Si Si6 0.366286 0.282410 0.730281
O O1 0.617121 0.626224 0.932613
O O2 0.400649 0.673724 0.091106
O O3 0.511916 0.753827 0.896268
O O4 0.379870 0.628257 0.863809
O O5 0.623413 0.847614 0.032569
O O6 0.585605 0.904521 0.832292
O O7 0.374054 0.859402 0.017017
O O8 0.175357 0.557105 0.789131
O O9 0.223924 0.712151 0.777370
O O10 0.242890 0.466496 0.950384
O O11 0.320506 0.335589 0.854974
O O12 0.000000 0.500000 0.000000
O O13 0.500000 0.249743 0.750000
#
# Coordination Sequence:
#
# PCOD9257473 Si02
#       6
#     8   8   8   8   8   8
#     4  10  18  31  55  83 102 140 187 229 264 329
#     4   8  16  31  53  75 102 138 182 218 256 328
#     4  10  18  33  55  79 110 137 184 232 269 319
#     4   9  18  32  56  77 109 143 185 221 275 331
#     4   8  17  32  55  77 107 138 180 231 267 325
#     4   9  18  32  53  76 108 145 177 216 276 328
#
# _framework density 25.227232000000001
#
# number of rings (size 3 to 8) (size 9 to 14) (size 15 to 20)
#    1.000    2.000    0.000    2.500    0.000    0.667 
#    0.000    3.333   22.000    4.000    0.000    0.000 
#    0.000    0.000    0.000    0.000    0.000    0.000 
#
# Total GULP energy -133718.340586 kJ/mol
# GULP energy per Si atom -5571.597524 kJ/mol
# Density = 2.516981 g / cm^3
# Si number density = 25.227232 Si / 1000 Ang^3
#
#
#
# Elastic Constant Matrix: (Units=GPa)
#
#
# Indices 1 2 3 4 5 6 
#
# 1 190.6893 39.9712 37.8775 0.0000 14.7084 0.0000
# 2 39.9712 82.0889 -2.5761 0.0000 -3.1709 0.0000
# 3 37.8775 -2.5761 60.1101 0.0000 15.7974 0.0000
# 4 0.0000 0.0000 0.0000 5.1766 0.0000 -7.5114
# 5 14.7084 -3.1709 15.7974 0.0000 38.9817 0.0000
# 6 0.0000 0.0000 0.0000 -7.5114 0.0000 37.1876
#
#
#
# Elastic Compliance Matrix: (Units=1/GPa)
#
#
# Indices 1 2 3 4 5 6 
#
# 1 0.006912 -0.003543 -0.004193 0.000000 -0.001197 0.000000
# 2 -0.003543 0.014042 0.002443 0.000000 0.001489 0.000000
# 3 -0.004193 0.002443 0.021169 0.000000 -0.006798 0.000000
# 4 0.000000 0.000000 0.000000 0.273272 0.000000 0.055197
# 5 -0.001197 0.001489 -0.006798 0.000000 0.028981 0.000000
# 6 0.000000 0.000000 0.000000 0.055197 0.000000 0.038040
#
#
# Mechanical properties :
#
#
# Convention : Reuss Voigt Hill
#
# Bulk Modulus (GPa) = 31.70864 53.71485 42.71175
# Shear Modulus (GPa) = 12.39115 33.44356 22.91736
#
# Velocity S-wave (km/s) = 2.21867 3.64496 3.01730
# Velocity P-wave (km/s) = 4.37719 6.24923 5.39503
#
# Compressibility (1/GPa) = 0.03153715
#
# Stress axis : x y z
#
# Youngs Moduli (GPa) = 144.67454 71.21733 47.23783
#
# Poissons Ratio (x) = 0.25236 0.19806
# Poissons Ratio (y) = 0.51265 -0.11542
# Poissons Ratio (z) = 0.60659 -0.17401
#
# Static dielectric constant tensor:
#      x y z
#    x 1.988300 0.000000 0.023320 
#    y 0.000000 2.042170 0.000000 
#    z 0.023320 0.000000 2.134800 
# 
# From -- ./inp_files/146260.got.cif
#   From: 2010.05.17/outbox.cif.g08.bks.cpg/sg15_74_cif.got.tgz:146260.got - 2010.06.03 18:47:42.
