data_PCOD9257686
_publ_section_title
;
Structure prediction by ZEFSAII (Michael W. Deem and Ramdas Pophale) SiO2 
 PCOD9257686
Probable space group: C 2/C
;
_chemical_formula_sum "Si O2"
_cell_formula_units_Z 48
_cell_length_a 16.102942
_cell_length_b 27.511918
_cell_length_c 9.584615
_cell_angle_alpha 90.000000
_cell_angle_beta 38.080886
_cell_angle_gamma 90.000000
_cell_volume 2618.944813
_symmetry_space_group_name_H-M "C 2/C"
_symmetry_group_IT_number 15
_symmetry_cell_setting 'monoclinic'
loop_
_space_group_symop_operation_xyz
x,y,z
-x,y,1/2-z
-x,-y,-z
x,-y,1/2+z
1/2+x,1/2+y,z
1/2-x,1/2+y,1/2-z
1/2-x,1/2-y,-z
1/2+x,1/2-y,1/2+z
loop_
_atom_site_type_symbol
_atom_site_label
_atom_site_fract_x
_atom_site_fract_y
_atom_site_fract_z
Si Si1 0.097405 0.800706 0.952313
Si Si2 0.500000 0.612663 0.750000
Si Si3 0.128982 0.030845 0.773860
Si Si4 0.000000 0.301063 0.250000
Si Si5 0.835361 0.770165 0.167479
Si Si6 0.837121 0.051550 0.469197
Si Si7 0.231307 0.839704 0.494390
O O1 0.195999 0.758588 0.879697
O O2 0.147831 0.812598 0.727617
O O3 0.099172 0.851065 0.035254
O O4 0.940176 0.785498 0.148831
O O5 0.575642 0.577198 0.758497
O O6 0.204703 0.994177 0.569725
O O7 0.204804 0.045699 0.814346
O O8 0.000000 0.000000 0.000000
O O9 0.112590 0.330865 0.181573
O O10 0.921116 0.267738 0.462783
O O11 0.806428 0.815695 0.103759
O O12 0.796036 0.103477 0.466001
O O13 0.000000 0.051971 0.250000
#
# Coordination Sequence:
#
# PCOD9257686 Si02
#       7
#     8   4   8   4   8   8   8
#     4  11  22  32  56  79 118 153 192 230 282 337
#     4  12  22  34  51  86 116 151 184 234 292 344
#     4  10  18  34  53  78 116 137 183 238 296 331
#     4  10  18  32  51  84 104 145 188 244 272 328
#     4  11  18  37  54  81 113 150 192 238 276 330
#     4  10  19  31  54  81 107 140 177 240 293 336
#     4  11  19  32  58  81 109 145 196 234 287 331
#
# _framework density 18.327992999999999
#
# number of rings (size 3 to 8) (size 9 to 14) (size 15 to 20)
#    0.000    1.333    5.833    5.000    0.000    0.667 
#    0.000    0.000    0.000    1.000    0.000    0.000 
#    0.000    0.000    0.000    0.000    0.000    0.000 
#
# Total GULP energy -133854.412325 kJ/mol
# GULP energy per Si atom -5577.267180 kJ/mol
# Density = 1.828628 g / cm^3
# Si number density = 18.327993 Si / 1000 Ang^3
#
#
#
# Elastic Constant Matrix: (Units=GPa)
#
#
# Indices 1 2 3 4 5 6 
#
# 1 77.4848 33.9697 34.2556 0.0000 -8.1732 0.0000
# 2 33.9697 95.2480 22.5061 0.0000 -0.1218 0.0000
# 3 34.2556 22.5061 44.7576 0.0000 5.1329 0.0000
# 4 0.0000 0.0000 0.0000 10.1537 0.0000 29.8726
# 5 -8.1732 -0.1218 5.1329 0.0000 23.9758 0.0000
# 6 0.0000 0.0000 0.0000 29.8726 0.0000 18.9670
#
#
#
# Elastic Compliance Matrix: (Units=1/GPa)
#
#
# Indices 1 2 3 4 5 6 
#
# 1 0.023703 -0.004350 -0.017303 0.000000 0.011762 0.000000
# 2 -0.004350 0.012757 -0.002997 0.000000 -0.000777 0.000000
# 3 -0.017303 -0.002997 0.038721 0.000000 -0.014203 0.000000
# 4 0.000000 0.000000 0.000000 -0.027104 0.000000 0.042688
# 5 0.011762 -0.000777 -0.014203 0.000000 0.048755 0.000000
# 6 0.000000 0.000000 0.000000 0.042688 0.000000 -0.014510
#
#
# Mechanical properties :
#
#
# Convention : Reuss Voigt Hill
#
# Bulk Modulus (GPa) = 38.63599 44.32813 41.48206
# Shear Modulus (GPa) = 35.65069 19.06990 27.36029
#
# Velocity S-wave (km/s) = 4.41517 3.22915 3.86789
# Velocity P-wave (km/s) = 6.86423 6.17590 6.52914
#
# Compressibility (1/GPa) = 0.02588260
#
# Stress axis : x y z
#
# Youngs Moduli (GPa) = 42.18867 78.38587 25.82570
#
# Poissons Ratio (x) = 0.34098 0.44686
# Poissons Ratio (y) = 0.18352 0.07739
# Poissons Ratio (z) = 0.72998 0.23489
#
# Static dielectric constant tensor:
#      x y z
#    x 1.691880 0.000000 0.020600 
#    y 0.000000 1.692480 0.000000 
#    z 0.020600 0.000000 1.678770 
# 
# From -- ./inp_files/44469.got.cif
#   From: 2010.05.17/outbox.cif.g08.bks.cpg/sg15_23_cif.got.tgz:44469.got - 2010.06.03 18:47:42.
