data_PCOD9257599
_publ_section_title
;
Structure prediction by ZEFSAII (Michael W. Deem and Ramdas Pophale) SiO2 
 PCOD9257599
Probable space group: C 2/C
;
_chemical_formula_sum "Si O2"
_cell_formula_units_Z 52
_cell_length_a 12.514729
_cell_length_b 22.461714
_cell_length_c 10.905152
_cell_angle_alpha 90.000000
_cell_angle_beta 70.371082
_cell_angle_gamma 90.000000
_cell_volume 2887.322810
_symmetry_space_group_name_H-M "C 2/C"
_symmetry_group_IT_number 15
_symmetry_cell_setting 'monoclinic'
loop_
_space_group_symop_operation_xyz
x,y,z
-x,y,1/2-z
-x,-y,-z
x,-y,1/2+z
1/2+x,1/2+y,z
1/2-x,1/2+y,1/2-z
1/2-x,1/2-y,-z
1/2+x,1/2-y,1/2+z
loop_
_atom_site_type_symbol
_atom_site_label
_atom_site_fract_x
_atom_site_fract_y
_atom_site_fract_z
Si Si1 0.126355 0.924301 0.517726
Si Si2 0.928939 0.948513 0.397482
Si Si3 0.059125 0.745375 0.557428
Si Si4 0.921376 0.291634 0.891321
Si Si5 0.500000 0.345069 0.750000
Si Si6 0.239727 0.321168 0.145842
Si Si7 0.795639 0.170326 0.904174
O O1 0.225936 0.886825 0.415583
O O2 0.015876 0.926735 0.470262
O O3 0.094046 0.888340 0.654808
O O4 0.143607 0.994053 0.535319
O O5 0.853849 0.892929 0.389342
O O6 0.000000 0.967016 0.250000
O O7 0.126119 0.706227 0.631669
O O8 0.156940 0.779832 0.443183
O O9 0.990971 0.705294 0.489870
O O10 0.981157 0.797434 0.647222
O O11 0.887919 0.222328 0.885777
O O12 0.000000 0.311840 0.750000
O O13 0.801346 0.323403 0.956010
O O14 0.241780 0.320250 0.291066
#
# Coordination Sequence:
#
# PCOD9257599 Si02
#       7
#     8   8   8   8   4   8   8
#     4  10  21  34  55  82 118 144 185 233 285 325
#     4  11  20  36  56  84 112 148 182 239 278 337
#     4  10  20  33  53  79 121 142 187 225 279 326
#     4  11  22  38  54  85 113 150 182 233 278 343
#     4  10  18  32  48  80 108 148 174 222 272 330
#     4  10  19  34  54  83 109 153 183 227 273 342
#     4  11  21  35  61  79 112 149 192 225 283 332
#
# _framework density 18.009763
#
# number of rings (size 3 to 8) (size 9 to 14) (size 15 to 20)
#    0.000    1.538    3.846    3.231    0.000    1.231 
#    2.769    0.000    0.000    0.923    2.000    0.000 
#    0.000    0.000    0.000    0.000    0.000    0.000 
#
# Total GULP energy -145001.541921 kJ/mol
# GULP energy per Si atom -5576.982382 kJ/mol
# Density = 1.796877 g / cm^3
# Si number density = 18.009763 Si / 1000 Ang^3
#
#
#
# Elastic Constant Matrix: (Units=GPa)
#
#
# Indices 1 2 3 4 5 6 
#
# 1 50.7564 17.9953 15.4384 0.0000 10.5144 0.0000
# 2 17.9953 76.4416 6.0868 0.0000 2.4829 0.0000
# 3 15.4384 6.0868 69.5255 0.0000 -5.5024 0.0000
# 4 0.0000 0.0000 0.0000 12.2106 0.0000 -4.3511
# 5 10.5144 2.4829 -5.5024 0.0000 24.8553 0.0000
# 6 0.0000 0.0000 0.0000 -4.3511 0.0000 16.5550
#
#
#
# Elastic Compliance Matrix: (Units=1/GPa)
#
#
# Indices 1 2 3 4 5 6 
#
# 1 0.025892 -0.005216 -0.006227 0.000000 -0.011810 0.000000
# 2 -0.005216 0.014287 -0.000032 0.000000 0.000772 0.000000
# 3 -0.006227 -0.000032 0.016262 0.000000 0.006238 0.000000
# 4 0.000000 0.000000 0.000000 0.090359 0.000000 0.023749
# 5 -0.011810 0.000772 0.006238 0.000000 0.046533 0.000000
# 6 0.000000 0.000000 0.000000 0.023749 0.000000 0.066647
#
#
# Mechanical properties :
#
#
# Convention : Reuss Voigt Hill
#
# Bulk Modulus (GPa) = 29.85786 30.64050 30.24918
# Shear Modulus (GPa) = 17.00140 21.20436 19.10288
#
# Velocity S-wave (km/s) = 3.07581 3.43502 3.26037
# Velocity P-wave (km/s) = 5.40637 5.72562 5.56828
#
# Compressibility (1/GPa) = 0.03349202
#
# Stress axis : x y z
#
# Youngs Moduli (GPa) = 38.62204 69.99279 61.49125
#
# Poissons Ratio (x) = 0.36507 0.38294
# Poissons Ratio (y) = 0.20145 0.00194
# Poissons Ratio (z) = 0.24052 0.00220
#
# Static dielectric constant tensor:
#      x y z
#    x 1.615630 0.000000 0.010060 
#    y 0.000000 1.598920 0.000000 
#    z 0.010060 0.000000 1.655550 
# 
# From -- ./inp_files/90289.got.cif
#   From: 2010.05.17/outbox.cif.g08.bks.cpg/sg15_46_cif.got.tgz:90289.got - 2010.06.03 18:47:42.
