data_PCOD9257923
_publ_section_title
;
Structure prediction by ZEFSAII (Michael W. Deem and Ramdas Pophale) SiO2 
 PCOD9257923
Probable space group: C 2/C
;
_chemical_formula_sum "Si O2"
_cell_formula_units_Z 36
_cell_length_a 7.313178
_cell_length_b 17.621285
_cell_length_c 17.184386
_cell_angle_alpha 90.000000
_cell_angle_beta 39.851778
_cell_angle_gamma 90.000000
_cell_volume 1419.066579
_symmetry_space_group_name_H-M "C 2/C"
_symmetry_group_IT_number 15
_symmetry_cell_setting 'monoclinic'
loop_
_space_group_symop_operation_xyz
x,y,z
-x,y,1/2-z
-x,-y,-z
x,-y,1/2+z
1/2+x,1/2+y,z
1/2-x,1/2+y,1/2-z
1/2-x,1/2-y,-z
1/2+x,1/2-y,1/2+z
loop_
_atom_site_type_symbol
_atom_site_label
_atom_site_fract_x
_atom_site_fract_y
_atom_site_fract_z
Si Si1 0.801527 0.432907 0.408492
Si Si2 0.550802 0.333418 0.865263
Si Si3 0.377043 0.447438 0.422200
Si Si4 0.500000 0.434311 0.750000
Si Si5 0.404541 0.821296 0.082085
O O1 0.526600 0.390321 0.539341
O O2 0.693543 0.442912 0.356361
O O3 0.814156 0.512837 0.448618
O O4 0.047132 0.377830 0.360225
O O5 0.672705 0.378422 0.752094
O O6 0.692764 0.258990 0.853319
O O7 0.227229 0.309206 0.944436
O O8 0.361157 0.508820 0.357769
O O9 0.275977 0.367337 0.421610
#
# Coordination Sequence:
#
# PCOD9257923 Si02
#       5
#     8   8   8   4   8
#     4   8  17  32  54  79  99 136 190 215 251 341
#     4   8  18  35  54  78 109 136 186 221 276 312
#     4  10  18  32  56  76 109 138 182 220 277 311
#     4  10  20  34  52  78 118 142 162 252 272 304
#     4   9  17  35  57  77  96 152 184 212 265 342
#
# _framework density 25.368789
#
# number of rings (size 3 to 8) (size 9 to 14) (size 15 to 20)
#    1.333    1.778    0.000    0.667    0.000    0.889 
#    4.000    0.000    4.889    0.000    0.000    0.000 
#    0.000    0.000    0.000    0.000    0.000    0.000 
#
# Total GULP energy -100318.899528 kJ/mol
# GULP energy per Si atom -5573.272196 kJ/mol
# Density = 2.531105 g / cm^3
# Si number density = 25.368789 Si / 1000 Ang^3
#
#
#
# Elastic Constant Matrix: (Units=GPa)
#
#
# Indices 1 2 3 4 5 6 
#
# 1 129.6122 57.0223 20.8099 -0.0003 3.4098 -0.0020
# 2 57.0223 154.5700 24.3223 0.0000 21.3652 -0.0003
# 3 20.8099 24.3223 65.5063 -0.0001 17.0959 0.0000
# 4 -0.0003 0.0000 -0.0001 19.5640 0.0001 16.1028
# 5 3.4098 21.3652 17.0959 0.0001 35.2484 0.0006
# 6 -0.0020 -0.0003 0.0000 16.1028 0.0006 43.1933
#
#
#
# Elastic Compliance Matrix: (Units=1/GPa)
#
#
# Indices 1 2 3 4 5 6 
#
# 1 0.009562 -0.003479 -0.002353 0.000000 0.002325 0.000001
# 2 -0.003479 0.008501 -0.000909 0.000000 -0.004375 0.000000
# 3 -0.002353 -0.000909 0.018488 0.000000 -0.008188 0.000000
# 4 0.000000 0.000000 0.000000 0.073742 0.000000 -0.027491
# 5 0.002325 -0.004375 -0.008188 0.000000 0.034768 0.000000
# 6 0.000001 0.000000 0.000000 -0.027491 0.000000 0.033401
#
#
# Mechanical properties :
#
#
# Convention : Reuss Voigt Hill
#
# Bulk Modulus (GPa) = 43.34839 61.55526 52.45183
# Shear Modulus (GPa) = 25.04594 36.10342 30.57468
#
# Velocity S-wave (km/s) = 3.14550 3.77655 3.47538
# Velocity P-wave (km/s) = 5.50605 6.58280 6.06836
#
# Compressibility (1/GPa) = 0.02306891
#
# Stress axis : x y z
#
# Youngs Moduli (GPa) = 104.57644 117.63694 54.09005
#
# Poissons Ratio (x) = 0.40923 0.12726
# Poissons Ratio (y) = 0.36380 0.04919
# Poissons Ratio (z) = 0.24605 0.10698
#
# Static dielectric constant tensor:
#      x y z
#    x 2.072100 0.000000 -0.097140 
#    y 0.000000 1.975930 0.000000 
#    z -0.097140 0.000000 2.111540 
# 
# From -- ./inp_files/189392.got.cif
#   From: 2010.05.17/outbox.cif.g08.bks.cpg/sg15_95_cif.got.tgz:189392.got - 2010.06.03 18:47:42.
