data_PCOD9257633
_publ_section_title
;
Structure prediction by ZEFSAII (Michael W. Deem and Ramdas Pophale) SiO2 
 PCOD9257633
Probable space group: C 2/C
;
_chemical_formula_sum "Si O2"
_cell_formula_units_Z 36
_cell_length_a 14.473336
_cell_length_b 33.506177
_cell_length_c 15.675102
_cell_angle_alpha 90.000000
_cell_angle_beta 19.320864
_cell_angle_gamma 90.000000
_cell_volume 2515.044110
_symmetry_space_group_name_H-M "C 2/C"
_symmetry_group_IT_number 15
_symmetry_cell_setting 'monoclinic'
loop_
_space_group_symop_operation_xyz
x,y,z
-x,y,1/2-z
-x,-y,-z
x,-y,1/2+z
1/2+x,1/2+y,z
1/2-x,1/2+y,1/2-z
1/2-x,1/2-y,-z
1/2+x,1/2-y,1/2+z
loop_
_atom_site_type_symbol
_atom_site_label
_atom_site_fract_x
_atom_site_fract_y
_atom_site_fract_z
Si Si1 0.772979 0.102523 0.302917
Si Si2 0.000000 0.046464 0.250000
Si Si3 0.203215 0.524378 0.257914
Si Si4 0.500000 0.777427 0.250000
Si Si5 0.000000 0.505969 0.250000
Si Si6 0.640284 0.855372 0.217242
O O1 0.842266 0.073723 0.321100
O O2 0.730412 0.070137 0.265746
O O3 0.519778 0.128873 0.560022
O O4 0.042786 0.130161 0.054543
O O5 0.773350 0.020270 0.495374
O O6 0.069190 0.526291 0.280210
O O7 0.000000 0.500000 0.500000
O O8 0.500000 0.500000 0.000000
O O9 0.603677 0.808125 0.233207
O O10 0.250000 0.750000 0.500000
O O11 0.500000 0.871806 0.250000
#
# Coordination Sequence:
#
# PCOD9257633 Si02
#       6
#     8   4   8   4   4   8
#     4  12  19  31  45  68  90 125 164 210 234 284
#     4  12  18  29  52  58  90 119 160 215 250 276
#     4  12  23  33  49  67  89 130 170 217 265 285
#     4  10  18  32  50  72 102 132 154 182 236 302
#     4  12  22  35  42  68  88 117 172 217 250 298
#     4  10  20  29  47  70  94 123 160 182 234 283
#
# _framework density 14.313865
#
# number of rings (size 3 to 8) (size 9 to 14) (size 15 to 20)
#    0.667    0.000    6.667    4.000    0.000    0.000 
#    0.000    0.000    0.000    0.000    0.000    0.000 
#    0.000    0.000    0.000   20.000    0.000    0.000 
#
# Total GULP energy -100254.272110 kJ/mol
# GULP energy per Si atom -5569.681784 kJ/mol
# Density = 1.428129 g / cm^3
# Si number density = 14.313865 Si / 1000 Ang^3
#
#
#
# Elastic Constant Matrix: (Units=GPa)
#
#
# Indices 1 2 3 4 5 6 
#
# 1 75.7222 29.5399 8.8950 0.0015 15.1882 -0.0070
# 2 29.5399 100.1912 51.1983 0.0040 9.0081 -0.0060
# 3 8.8950 51.1983 128.7271 -0.0213 8.7591 0.0131
# 4 0.0015 0.0040 -0.0213 33.5900 -0.0023 -6.8249
# 5 15.1882 9.0081 8.7591 -0.0023 11.4884 0.0044
# 6 -0.0070 -0.0060 0.0131 -6.8249 0.0044 24.1970
#
#
#
# Elastic Compliance Matrix: (Units=1/GPa)
#
#
# Indices 1 2 3 4 5 6 
#
# 1 0.019574 -0.004728 0.002148 0.000001 -0.023808 0.000008
# 2 -0.004728 0.014125 -0.005234 -0.000004 -0.000834 0.000004
# 3 0.002148 -0.005234 0.010142 0.000006 -0.006468 -0.000003
# 4 0.000001 -0.000004 0.000006 0.031581 0.000000 0.008907
# 5 -0.023808 -0.000834 -0.006468 0.000000 0.124104 -0.000026
# 6 0.000008 0.000004 -0.000003 0.008907 -0.000026 0.043840
#
#
# Mechanical properties :
#
#
# Convention : Reuss Voigt Hill
#
# Bulk Modulus (GPa) = 35.44697 53.76747 44.60722
# Shear Modulus (GPa) = 18.62908 28.18890 23.40899
#
# Velocity S-wave (km/s) = 3.61150 4.44254 4.04840
# Velocity P-wave (km/s) = 6.49680 7.99748 7.28588
#
# Compressibility (1/GPa) = 0.02821116
#
# Stress axis : x y z
#
# Youngs Moduli (GPa) = 51.08928 70.79827 98.60105
#
# Poissons Ratio (x) = 0.33474 -0.21179
# Poissons Ratio (y) = 0.24155 0.51611
# Poissons Ratio (z) = -0.10973 0.37058
#
# Static dielectric constant tensor:
#      x y z
#    x 1.488460 0.000000 0.008130 
#    y 0.000000 1.471750 -0.000010 
#    z 0.008130 -0.000010 1.485510 
# 
# From -- ./inp_files/157435.got.cif
#   From: 2010.05.17/outbox.cif.g08.bks.cpg/sg15_79_cif.got.tgz:157435.got - 2010.06.03 18:47:42.
