data_PCOD9257875
_publ_section_title
;
Structure prediction by ZEFSAII (Michael W. Deem and Ramdas Pophale) SiO2 
 PCOD9257875
Probable space group: C 2/C
;
_chemical_formula_sum "Si O2"
_cell_formula_units_Z 56
_cell_length_a 27.934784
_cell_length_b 18.013042
_cell_length_c 8.573123
_cell_angle_alpha 90.000000
_cell_angle_beta 41.293073
_cell_angle_gamma 90.000000
_cell_volume 2846.798273
_symmetry_space_group_name_H-M "C 2/C"
_symmetry_group_IT_number 15
_symmetry_cell_setting 'monoclinic'
loop_
_space_group_symop_operation_xyz
x,y,z
-x,y,1/2-z
-x,-y,-z
x,-y,1/2+z
1/2+x,1/2+y,z
1/2-x,1/2+y,1/2-z
1/2-x,1/2-y,-z
1/2+x,1/2-y,1/2+z
loop_
_atom_site_type_symbol
_atom_site_label
_atom_site_fract_x
_atom_site_fract_y
_atom_site_fract_z
Si Si1 0.370344 0.646679 0.931055
Si Si2 0.558897 0.936729 0.819689
Si Si3 0.763231 0.945157 0.839676
Si Si4 0.000000 0.818669 0.750000
Si Si5 0.000000 0.945456 0.250000
Si Si6 0.660221 0.008271 0.332706
Si Si7 0.382463 0.438620 0.100724
Si Si8 0.531234 0.232397 0.350236
O O1 0.447673 0.607000 0.778317
O O2 0.346498 0.601473 0.836689
O O3 0.388082 0.731928 0.860026
O O4 0.313587 0.626754 0.203237
O O5 0.599311 0.957579 0.561206
O O6 0.527378 0.854827 0.889667
O O7 0.620531 0.942201 0.801460
O O8 0.500000 0.000000 0.000000
O O9 0.699813 0.944522 0.868016
O O10 0.818939 0.014396 0.674622
O O11 0.722193 0.959325 0.100172
O O12 0.070331 0.872896 0.591549
O O13 0.002789 0.772592 0.580033
O O14 0.944565 0.998552 0.480807
O O15 0.500000 0.244989 0.250000
#
# Coordination Sequence:
#
# PCOD9257875 Si02
#       8
#     8   8   8   4   4   8   8   8
#     4  10  18  32  54  89 129 167 198 242 301 353
#     4  11  24  44  69  90 108 146 209 275 328 367
#     4  10  19  35  60  88 127 164 198 236 290 369
#     4   9  22  36  60  95 134 168 208 245 298 364
#     4   9  16  26  50  85 122 168 212 241 270 346
#     4  10  22  39  63  90 114 148 209 254 305 372
#     4   9  17  31  54  88 129 168 210 233 282 353
#     4  11  23  40  61  93 129 158 204 266 320 362
#
# _framework density 19.671222
#
# number of rings (size 3 to 8) (size 9 to 14) (size 15 to 20)
#    0.000    2.000    2.143    1.714    2.000    2.286 
#    0.000    1.429    0.000    0.000    0.000    0.000 
#    0.000    0.000    0.000    0.000    0.000    0.000 
#
# Total GULP energy -155911.848420 kJ/mol
# GULP energy per Si atom -5568.280301 kJ/mol
# Density = 1.962645 g / cm^3
# Si number density = 19.671222 Si / 1000 Ang^3
#
#
#
# Elastic Constant Matrix: (Units=GPa)
#
#
# Indices 1 2 3 4 5 6 
#
# 1 68.6893 14.6789 2.7393 0.0000 8.2980 0.0000
# 2 14.6789 110.3306 40.1880 0.0000 3.7343 0.0000
# 3 2.7393 40.1880 111.0854 0.0000 5.7751 0.0000
# 4 0.0000 0.0000 0.0000 13.5094 0.0000 4.3922
# 5 8.2980 3.7343 5.7751 0.0000 25.8289 0.0000
# 6 0.0000 0.0000 0.0000 4.3922 0.0000 15.8421
#
#
#
# Elastic Compliance Matrix: (Units=1/GPa)
#
#
# Indices 1 2 3 4 5 6 
#
# 1 0.015575 -0.002142 0.000643 0.000000 -0.004838 0.000000
# 2 -0.002142 0.010746 -0.003834 0.000000 -0.000008 0.000000
# 3 0.000643 -0.003834 0.010477 0.000000 -0.001995 0.000000
# 4 0.000000 0.000000 0.000000 0.081356 0.000000 -0.022556
# 5 -0.004838 -0.000008 -0.001995 0.000000 0.040718 0.000000
# 6 0.000000 0.000000 0.000000 -0.022556 0.000000 0.069376
#
#
# Mechanical properties :
#
#
# Convention : Reuss Voigt Hill
#
# Bulk Modulus (GPa) = 38.27132 45.03530 41.65331
# Shear Modulus (GPa) = 20.19173 26.53602 23.36388
#
# Velocity S-wave (km/s) = 3.20732 3.67683 3.45007
# Velocity P-wave (km/s) = 5.76312 6.40071 6.09027
#
# Compressibility (1/GPa) = 0.02612923
#
# Stress axis : x y z
#
# Youngs Moduli (GPa) = 64.20573 93.06122 95.44650
#
# Poissons Ratio (x) = 0.19938 -0.06133
# Poissons Ratio (y) = 0.13756 0.36597
# Poissons Ratio (z) = -0.04125 0.35682
#
# Static dielectric constant tensor:
#      x y z
#    x 1.729170 0.000000 0.028620 
#    y 0.000000 1.684480 0.000000 
#    z 0.028620 0.000000 1.730620 
# 
# From -- ./inp_files/56524.got.cif
#   From: 2010.05.17/outbox.cif.g08.bks.cpg/sg15_29_cif.got.tgz:56524.got - 2010.06.03 18:47:42.
