data_PCOD9257597
_publ_section_title
;
Structure prediction by ZEFSAII (Michael W. Deem and Ramdas Pophale) SiO2 
 PCOD9257597
Probable space group: C 2/C
;
_chemical_formula_sum "Si O2"
_cell_formula_units_Z 44
_cell_length_a 16.962236
_cell_length_b 34.300612
_cell_length_c 5.111111
_cell_angle_alpha 90.000000
_cell_angle_beta 128.265919
_cell_angle_gamma 90.000000
_cell_volume 2334.802194
_symmetry_space_group_name_H-M "C 2/C"
_symmetry_group_IT_number 15
_symmetry_cell_setting 'monoclinic'
loop_
_space_group_symop_operation_xyz
x,y,z
-x,y,1/2-z
-x,-y,-z
x,-y,1/2+z
1/2+x,1/2+y,z
1/2-x,1/2+y,1/2-z
1/2-x,1/2-y,-z
1/2+x,1/2-y,1/2+z
loop_
_atom_site_type_symbol
_atom_site_label
_atom_site_fract_x
_atom_site_fract_y
_atom_site_fract_z
Si Si1 0.931849 0.698302 0.861530
Si Si2 0.609724 0.281886 0.839999
Si Si3 0.245929 0.348653 0.289180
Si Si4 0.827334 0.887577 0.978047
Si Si5 0.621225 0.523865 0.997943
Si Si6 0.500000 0.663790 0.750000
O O1 0.867311 0.736697 0.652954
O O2 0.860408 0.664098 0.812766
O O3 0.000000 0.688670 0.750000
O O4 0.000000 0.710015 0.250000
O O5 0.500000 0.282798 0.750000
O O6 0.583549 0.306433 0.527951
O O7 0.694427 0.308102 0.146532
O O8 0.247120 0.372779 0.024559
O O9 0.301940 0.372846 0.632955
O O10 0.838404 0.933722 0.991576
O O11 0.932693 0.866449 0.280040
O O12 0.500000 0.526909 0.750000
O O13 0.651098 0.492083 0.842590
#
# Coordination Sequence:
#
# PCOD9257597 Si02
#       6
#     8   8   8   8   8   4
#     4  11  23  39  56  74 108 146 193 245 291 322
#     4  10  19  34  51  78 107 147 189 230 279 322
#     4  11  23  35  56  81 108 145 194 235 278 326
#     4  11  21  35  55  80 116 143 190 220 266 321
#     4  10  20  34  53  81 116 154 181 206 260 333
#     4  10  18  32  48  78 108 152 184 222 258 314
#
# _framework density 18.845278
#
# number of rings (size 3 to 8) (size 9 to 14) (size 15 to 20)
#    0.000    1.455    3.636    2.727    0.000    0.000 
#    0.000    5.455    0.000    0.000    0.000    0.000 
#    0.000   50.909    0.000    0.000    0.000    0.000 
#
# Total GULP energy -122655.013815 kJ/mol
# GULP energy per Si atom -5575.227901 kJ/mol
# Density = 1.880239 g / cm^3
# Si number density = 18.845278 Si / 1000 Ang^3
#
#
#
# Elastic Constant Matrix: (Units=GPa)
#
#
# Indices 1 2 3 4 5 6 
#
# 1 104.4768 45.2318 3.5420 0.0000 -17.0722 0.0000
# 2 45.2318 97.9252 -3.3458 0.0000 -2.4525 0.0000
# 3 3.5420 -3.3458 15.5701 0.0000 -12.7879 0.0000
# 4 0.0000 0.0000 0.0000 14.7775 0.0000 -8.9036
# 5 -17.0722 -2.4525 -12.7879 0.0000 23.6906 0.0000
# 6 0.0000 0.0000 0.0000 -8.9036 0.0000 27.8674
#
#
#
# Elastic Compliance Matrix: (Units=1/GPa)
#
#
# Indices 1 2 3 4 5 6 
#
# 1 0.014025 -0.005956 0.005972 0.000000 0.012714 0.000000
# 2 -0.005956 0.013038 0.003126 0.000000 -0.001255 0.000000
# 3 0.005972 0.003126 0.120969 0.000000 0.069925 0.000000
# 4 0.000000 0.000000 0.000000 0.083803 0.000000 0.026775
# 5 0.012714 -0.001255 0.069925 0.000000 0.088987 0.000000
# 6 0.000000 0.000000 0.000000 0.026775 0.000000 0.044439
#
#
# Mechanical properties :
#
#
# Convention : Reuss Voigt Hill
#
# Bulk Modulus (GPa) = 6.48021 34.31423 20.39722
# Shear Modulus (GPa) = 12.18277 24.77003 18.47640
#
# Velocity S-wave (km/s) = 2.54532 3.62938 3.13457
# Velocity P-wave (km/s) = 3.47625 5.98424 4.89364
#
# Compressibility (1/GPa) = 0.15431598
#
# Stress axis : x y z
#
# Youngs Moduli (GPa) = 71.30117 76.69752 8.26660
#
# Poissons Ratio (x) = 0.45679 -0.04937
# Poissons Ratio (y) = 0.42465 -0.02584
# Poissons Ratio (z) = -0.42578 -0.23976
#
# Static dielectric constant tensor:
#      x y z
#    x 1.705610 0.000000 -0.020530 
#    y 0.000000 1.638530 0.000000 
#    z -0.020530 0.000000 1.720070 
# 
# From -- ./inp_files/5771.got.cif
#   From: 2010.05.17/outbox.cif.g08.bks.cpg/sg15_3_cif.got.tgz:5771.got - 2010.06.03 18:47:42.
