data_PCOD9257824
_publ_section_title
;
Structure prediction by ZEFSAII (Michael W. Deem and Ramdas Pophale) SiO2 
 PCOD9257824
Probable space group: C 2/C
;
_chemical_formula_sum "Si O2"
_cell_formula_units_Z 56
_cell_length_a 14.681947
_cell_length_b 13.535774
_cell_length_c 15.143055
_cell_angle_alpha 90.000000
_cell_angle_beta 48.441081
_cell_angle_gamma 90.000000
_cell_volume 2251.857282
_symmetry_space_group_name_H-M "C 2/C"
_symmetry_group_IT_number 15
_symmetry_cell_setting 'monoclinic'
loop_
_space_group_symop_operation_xyz
x,y,z
-x,y,1/2-z
-x,-y,-z
x,-y,1/2+z
1/2+x,1/2+y,z
1/2-x,1/2+y,1/2-z
1/2-x,1/2-y,-z
1/2+x,1/2-y,1/2+z
loop_
_atom_site_type_symbol
_atom_site_label
_atom_site_fract_x
_atom_site_fract_y
_atom_site_fract_z
Si Si1 0.136352 0.482530 0.505334
Si Si2 0.009822 0.645874 0.499549
Si Si3 0.726050 0.823549 0.643601
Si Si4 0.125480 0.126472 0.615916
Si Si5 0.000000 0.466761 0.750000
Si Si6 0.000000 0.166315 0.250000
Si Si7 0.657684 0.316233 0.498771
Si Si8 0.182323 0.703199 0.749562
O O1 0.108003 0.560087 0.447819
O O2 0.274334 0.454908 0.423320
O O3 0.070419 0.531058 0.631746
O O4 0.060220 0.379301 0.545457
O O5 0.070904 0.744333 0.495998
O O6 0.894520 0.633591 0.638247
O O7 0.845531 0.858397 0.508972
O O8 0.671005 0.728661 0.629404
O O9 0.616963 0.902982 0.708813
O O10 0.755622 0.782159 0.722626
O O11 0.000000 0.105386 0.750000
O O12 0.094353 0.234089 0.243173
O O13 0.922510 0.121009 0.381061
O O14 0.750000 0.250000 0.500000
O O15 0.734291 0.361057 0.369493
#
# Coordination Sequence:
#
# PCOD9257824 Si02
#       8
#     8   8   8   8   4   4   8   8
#     4  10  21  36  54  85 116 154 189 236 290 353
#     4  10  20  35  56  83 115 147 197 238 291 347
#     4  10  19  31  53  86 113 148 191 247 291 333
#     4  10  20  34  53  80 120 152 195 232 294 360
#     4  10  20  33  54  86 119 148 192 238 288 344
#     4   8  18  31  46  78 113 138 188 224 282 342
#     4   9  18  32  53  78 110 143 186 240 284 335
#     4  10  18  32  54  80 111 150 189 245 293 331
#
# _framework density 24.868359999999999
#
# number of rings (size 3 to 8) (size 9 to 14) (size 15 to 20)
#    0.000    2.286    2.143    0.857    0.000    5.714 
#    0.000    0.000    9.429    0.000    0.000    5.000 
#    0.000    0.000    0.000    0.000    0.000    0.000 
#
# Total GULP energy -155904.463218 kJ/mol
# GULP energy per Si atom -5568.016544 kJ/mol
# Density = 2.481176 g / cm^3
# Si number density = 24.868360 Si / 1000 Ang^3
#
#
#
# Elastic Constant Matrix: (Units=GPa)
#
#
# Indices 1 2 3 4 5 6 
#
# 1 110.0676 28.4850 26.4019 0.0000 5.2585 0.0000
# 2 28.4850 38.5562 -4.9578 0.0000 -6.6257 0.0000
# 3 26.4019 -4.9578 206.7422 0.0000 -10.1256 0.0000
# 4 0.0000 0.0000 0.0000 -22.0956 0.0000 3.0237
# 5 5.2585 -6.6257 -10.1256 0.0000 34.4186 0.0000
# 6 0.0000 0.0000 0.0000 3.0237 0.0000 37.4186
#
#
#
# Elastic Compliance Matrix: (Units=1/GPa)
#
#
# Indices 1 2 3 4 5 6 
#
# 1 0.012436 -0.010220 -0.002052 0.000000 -0.004471 0.000000
# 2 -0.010220 0.035392 0.002601 0.000000 0.009140 0.000000
# 3 -0.002052 0.002601 0.005277 0.000000 0.002367 0.000000
# 4 0.000000 0.000000 0.000000 -0.044763 0.000000 0.003617
# 5 -0.004471 0.009140 0.002367 0.000000 0.032193 0.000000
# 6 0.000000 0.000000 0.000000 0.003617 0.000000 0.026432
#
#
# Mechanical properties :
#
#
# Convention : Reuss Voigt Hill
#
# Bulk Modulus (GPa) = 29.61748 50.58046 40.09897
# Shear Modulus (GPa) = 51.24881 30.31077 40.77979
#
# Velocity S-wave (km/s) = 4.54453 3.49499 4.05387
# Velocity P-wave (km/s) = 6.28272 6.05558 6.17020
#
# Compressibility (1/GPa) = 0.03376384
#
# Stress axis : x y z
#
# Youngs Moduli (GPa) = 80.41142 28.25527 189.48992
#
# Poissons Ratio (x) = 0.28876 0.38887
# Poissons Ratio (y) = 0.82179 -0.49295
# Poissons Ratio (z) = 0.16502 -0.07351
#
# Static dielectric constant tensor:
#      x y z
#    x 2.088420 0.000000 0.057240 
#    y 0.000000 1.938850 0.000000 
#    z 0.057240 0.000000 2.120600 
# 
# From -- ./inp_files/155171.got.cif
#   From: 2010.05.17/outbox.cif.g08.bks.cpg/sg15_78_cif.got.tgz:155171.got - 2010.06.03 18:47:42.
