data_PCOD9257709
_publ_section_title
;
Structure prediction by ZEFSAII (Michael W. Deem and Ramdas Pophale) SiO2 
 PCOD9257709
Probable space group: C 2/C
;
_chemical_formula_sum "Si O2"
_cell_formula_units_Z 60
_cell_length_a 24.519645
_cell_length_b 7.177498
_cell_length_c 24.591335
_cell_angle_alpha 90.000000
_cell_angle_beta 144.424737
_cell_angle_gamma 90.000000
_cell_volume 2517.804931
_symmetry_space_group_name_H-M "C 2/C"
_symmetry_group_IT_number 15
_symmetry_cell_setting 'monoclinic'
loop_
_space_group_symop_operation_xyz
x,y,z
-x,y,1/2-z
-x,-y,-z
x,-y,1/2+z
1/2+x,1/2+y,z
1/2-x,1/2+y,1/2-z
1/2-x,1/2-y,-z
1/2+x,1/2-y,1/2+z
loop_
_atom_site_type_symbol
_atom_site_label
_atom_site_fract_x
_atom_site_fract_y
_atom_site_fract_z
Si Si1 0.653554 0.056150 0.051261
Si Si2 0.323928 0.312233 0.890115
Si Si3 0.481654 0.843308 0.640350
Si Si4 0.349051 0.015364 0.761938
Si Si5 0.198922 0.271009 0.388838
Si Si6 0.000000 0.647192 0.750000
Si Si7 0.189172 0.116525 0.990483
Si Si8 0.515202 0.801874 0.042616
O O1 0.735671 0.105621 0.077046
O O2 0.691287 0.912003 0.126434
O O3 0.591084 0.230635 0.021906
O O4 0.578392 0.939445 0.955752
O O5 0.248738 0.433076 0.796722
O O6 0.306033 0.350805 0.939895
O O7 0.429791 0.333603 0.953676
O O8 0.586456 0.835549 0.701978
O O9 0.420380 0.666633 0.609649
O O10 0.488069 0.001682 0.691134
O O11 0.325502 0.128403 0.688418
O O12 0.410930 0.150790 0.849644
O O13 0.262363 0.414693 0.475122
O O14 0.095357 0.235626 0.327216
O O15 0.250000 0.250000 0.000000
O O16 0.500000 0.000000 0.000000
#
# Coordination Sequence:
#
# PCOD9257709 Si02
#       8
#     8   8   8   8   8   4   8   8
#     4   9  19  36  56  79 114 146 184 239 289 343
#     4   9  19  35  57  82 110 146 194 231 283 346
#     4   9  18  34  55  74 106 147 188 230 281 333
#     4   9  19  35  55  81 107 146 188 233 282 344
#     4  10  20  34  57  83 112 146 192 231 289 338
#     4  10  18  32  52  76 106 148 184 226 280 338
#     4  10  18  35  56  82 109 151 194 233 272 341
#     4   9  18  35  57  80 109 149 184 229 294 345
#
# _framework density 23.830283000000001
#
# number of rings (size 3 to 8) (size 9 to 14) (size 15 to 20)
#    0.000    2.667    1.333    0.800    0.000    2.667 
#    0.000    8.000    0.000    0.800    0.000    0.000 
#    0.000    0.000    0.000    0.000    0.000    0.000 
#
# Total GULP energy -167058.019369 kJ/mol
# GULP energy per Si atom -5568.600646 kJ/mol
# Density = 2.377604 g / cm^3
# Si number density = 23.830283 Si / 1000 Ang^3
#
#
#
# Elastic Constant Matrix: (Units=GPa)
#
#
# Indices 1 2 3 4 5 6 
#
# 1 95.1234 16.1167 27.2425 0.0000 22.1523 0.0000
# 2 16.1167 38.8013 8.9316 -0.0003 12.4429 -0.0005
# 3 27.2425 8.9316 71.5958 0.0000 12.8018 0.0000
# 4 0.0000 -0.0003 0.0000 27.6037 0.0000 8.9496
# 5 22.1523 12.4429 12.8018 0.0000 47.8432 0.0000
# 6 0.0000 -0.0005 0.0000 8.9496 0.0000 31.2722
#
#
#
# Elastic Compliance Matrix: (Units=1/GPa)
#
#
# Indices 1 2 3 4 5 6 
#
# 1 0.013142 -0.003221 -0.003844 0.000000 -0.004219 0.000000
# 2 -0.003221 0.029276 -0.001399 0.000000 -0.005748 0.000000
# 3 -0.003844 -0.001399 0.015986 0.000000 -0.002134 0.000000
# 4 0.000000 0.000000 0.000000 0.039932 0.000000 -0.011428
# 5 -0.004219 -0.005748 -0.002134 0.000000 0.024921 0.000000
# 6 0.000000 0.000000 0.000000 -0.011428 0.000000 0.035248
#
#
# Mechanical properties :
#
#
# Convention : Reuss Voigt Hill
#
# Bulk Modulus (GPa) = 24.11069 34.45578 29.28324
# Shear Modulus (GPa) = 26.41906 31.55913 28.98909
#
# Velocity S-wave (km/s) = 3.33323 3.64308 3.49159
# Velocity P-wave (km/s) = 4.99535 5.67329 5.34508
#
# Compressibility (1/GPa) = 0.04147538
#
# Stress axis : x y z
#
# Youngs Moduli (GPa) = 76.09309 34.15824 62.55426
#
# Poissons Ratio (x) = 0.11002 0.24048
# Poissons Ratio (y) = 0.24509 0.08750
# Poissons Ratio (z) = 0.29253 0.04778
#
# Static dielectric constant tensor:
#      x y z
#    x 2.182610 0.000000 -0.023890 
#    y 0.000000 2.000800 0.000000 
#    z -0.023890 0.000000 1.965610 
# 
# From -- ./inp_files/176190.got.cif
#   From: 2010.05.17/outbox.cif.g08.bks.cpg/sg15_89_cif.got.tgz:176190.got - 2010.06.03 18:47:42.
