data_PCOD9257471
_publ_section_title
;
Structure prediction by ZEFSAII (Michael W. Deem and Ramdas Pophale) SiO2 
 PCOD9257471
Probable space group: C 2/C
;
_chemical_formula_sum "Si O2"
_cell_formula_units_Z 44
_cell_length_a 8.580096
_cell_length_b 26.046207
_cell_length_c 16.501221
_cell_angle_alpha 90.000000
_cell_angle_beta 147.662862
_cell_angle_gamma 90.000000
_cell_volume 1972.538145
_symmetry_space_group_name_H-M "C 2/C"
_symmetry_group_IT_number 15
_symmetry_cell_setting 'monoclinic'
loop_
_space_group_symop_operation_xyz
x,y,z
-x,y,1/2-z
-x,-y,-z
x,-y,1/2+z
1/2+x,1/2+y,z
1/2-x,1/2+y,1/2-z
1/2-x,1/2-y,-z
1/2+x,1/2-y,1/2+z
loop_
_atom_site_type_symbol
_atom_site_label
_atom_site_fract_x
_atom_site_fract_y
_atom_site_fract_z
Si Si1 0.000000 0.910907 0.750000
Si Si2 0.872783 0.500667 0.353142
Si Si3 0.917211 0.132258 0.858254
Si Si4 0.000000 0.449852 0.250000
Si Si5 0.500000 0.410682 0.250000
Si Si6 0.114306 0.670775 0.987739
Si Si7 0.163116 0.223364 0.570308
O O1 0.824422 0.948602 0.734033
O O2 0.782756 0.874605 0.605585
O O3 0.051964 0.487069 0.350897
O O4 0.679323 0.449990 0.274311
O O5 0.000000 0.500000 0.500000
O O6 0.772698 0.089494 0.854391
O O7 0.657196 0.149044 0.682057
O O8 0.996401 0.182435 0.943172
O O9 0.154379 0.117615 0.893681
O O10 0.323539 0.697214 0.012226
O O11 0.038331 0.719540 0.010332
O O12 0.500000 0.226776 0.750000
#
# Coordination Sequence:
#
# PCOD9257471 Si02
#       7
#     4   8   8   4   4   8   8
#     4  11  20  33  54  84 108 141 180 225 286 316
#     4  10  22  38  54  79 112 145 182 236 272 325
#     4  10  18  35  56  79 106 144 181 225 271 335
#     4  10  18  37  56  74 104 141 188 218 272 328
#     4   9  20  36  54  78 104 142 184 213 278 332
#     4  10  18  31  55  81 109 136 178 232 264 323
#     4   9  17  31  53  84 107 134 182 224 270 322
#
# _framework density 22.306287000000001
#
# number of rings (size 3 to 8) (size 9 to 14) (size 15 to 20)
#    0.000    2.182    3.636    2.182    0.000    0.000 
#    3.273    4.545    0.000    1.091    0.000    0.000 
#    0.000    0.000    0.000    0.000    0.000    0.000 
#
# Total GULP energy -122470.040991 kJ/mol
# GULP energy per Si atom -5566.820045 kJ/mol
# Density = 2.225552 g / cm^3
# Si number density = 22.306287 Si / 1000 Ang^3
#
#
#
# Elastic Constant Matrix: (Units=GPa)
#
#
# Indices 1 2 3 4 5 6 
#
# 1 98.3257 56.6123 16.3662 0.0000 -29.2691 0.0000
# 2 56.6123 162.9184 30.9746 0.0000 -20.0499 0.0000
# 3 16.3662 30.9746 49.1374 0.0001 -14.3545 -0.0002
# 4 0.0000 0.0000 0.0001 23.1190 0.0000 -14.0542
# 5 -29.2691 -20.0499 -14.3545 0.0000 25.3338 0.0000
# 6 0.0000 0.0000 -0.0002 -14.0542 0.0000 25.9869
#
#
#
# Elastic Compliance Matrix: (Units=1/GPa)
#
#
# Indices 1 2 3 4 5 6 
#
# 1 0.017752 -0.004326 0.002164 0.000000 0.018312 0.000000
# 2 -0.004326 0.008318 -0.004002 0.000000 -0.000683 0.000000
# 3 0.002164 -0.004002 0.026314 0.000000 0.014242 0.000000
# 4 0.000000 0.000000 0.000000 0.064440 0.000000 0.034850
# 5 0.018312 -0.000683 0.014242 0.000000 0.068159 0.000000
# 6 0.000000 0.000000 0.000000 0.034850 0.000000 0.057329
#
#
# Mechanical properties :
#
#
# Convention : Reuss Voigt Hill
#
# Bulk Modulus (GPa) = 24.96572 57.58753 41.27662
# Shear Modulus (GPa) = 18.65725 28.64985 23.65355
#
# Velocity S-wave (km/s) = 2.89522 3.58772 3.25991
# Velocity P-wave (km/s) = 4.73211 6.56011 5.71961
#
# Compressibility (1/GPa) = 0.04005493
#
# Stress axis : x y z
#
# Youngs Moduli (GPa) = 56.33151 120.21698 38.00302
#
# Poissons Ratio (x) = 0.52012 -0.08224
# Poissons Ratio (y) = 0.24372 0.15209
# Poissons Ratio (z) = -0.12190 0.48111
#
# Static dielectric constant tensor:
#      x y z
#    x 2.111300 0.000000 0.004070 
#    y 0.000000 2.057450 0.000000 
#    z 0.004070 0.000000 1.878800 
# 
# From -- ./inp_files/193636.got.cif
#   From: 2010.05.17/outbox.cif.g08.bks.cpg/sg15_97_cif.got.tgz:193636.got - 2010.06.03 18:47:42.
