data_PCOD9257067
_publ_section_title
;
Structure prediction by ZEFSAII (Michael W. Deem and Ramdas Pophale) SiO2 
 PCOD9257067
Probable space group: C 2/C
;
_chemical_formula_sum "Si O2"
_cell_formula_units_Z 36
_cell_length_a 23.526839
_cell_length_b 14.788349
_cell_length_c 7.034302
_cell_angle_alpha 90.000000
_cell_angle_beta 138.426314
_cell_angle_gamma 90.000000
_cell_volume 1624.049790
_symmetry_space_group_name_H-M "C 2/C"
_symmetry_group_IT_number 15
_symmetry_cell_setting 'monoclinic'
loop_
_space_group_symop_operation_xyz
x,y,z
-x,y,1/2-z
-x,-y,-z
x,-y,1/2+z
1/2+x,1/2+y,z
1/2-x,1/2+y,1/2-z
1/2-x,1/2-y,-z
1/2+x,1/2-y,1/2+z
loop_
_atom_site_type_symbol
_atom_site_label
_atom_site_fract_x
_atom_site_fract_y
_atom_site_fract_z
Si Si1 0.117633 0.733961 0.871015
Si Si2 0.056426 0.693495 0.153767
Si Si3 0.816805 0.564569 0.340549
Si Si4 0.734653 0.867226 0.180635
Si Si5 0.000000 0.526839 0.250000
O O1 0.086022 0.715747 0.011629
O O2 0.166221 0.638414 0.952868
O O3 0.185114 0.813708 0.040821
O O4 0.030142 0.751584 0.537710
O O5 0.146287 0.689523 0.490661
O O6 0.015777 0.595882 0.113553
O O7 0.770733 0.471077 0.268942
O O8 0.911563 0.528661 0.516654
O O9 0.766053 0.618143 0.050099
#
# Coordination Sequence:
#
# PCOD9257067 Si02
#       5
#     8   8   8   8   4
#     4  10  19  33  54  76 105 142 170 204 259 315
#     4   9  18  32  52  76 105 132 166 212 260 307
#     4  10  18  31  51  77 109 134 164 213 261 308
#     4  10  20  34  53  79 106 135 172 211 258 308
#     4  10  18  30  52  86 106 122 162 226 284 304
#
# _framework density 22.166808
#
# number of rings (size 3 to 8) (size 9 to 14) (size 15 to 20)
#    0.000    2.222    0.000    6.667    0.000    6.222 
#    0.000   12.222    0.000   12.000    0.000    0.000 
#    0.000    0.000    0.000    0.000    0.000    0.000 
#
# Total GULP energy -100243.145995 kJ/mol
# GULP energy per Si atom -5569.063666 kJ/mol
# Density = 2.211636 g / cm^3
# Si number density = 22.166808 Si / 1000 Ang^3
#
#
#
# Elastic Constant Matrix: (Units=GPa)
#
#
# Indices 1 2 3 4 5 6 
#
# 1 48.1320 22.5187 15.9462 0.0000 -1.5223 0.0000
# 2 22.5187 92.1698 64.8904 0.0000 25.6287 0.0000
# 3 15.9462 64.8904 154.1619 0.0000 24.4356 0.0000
# 4 0.0000 0.0000 0.0000 37.2177 0.0000 -5.1598
# 5 -1.5223 25.6287 24.4356 0.0000 30.6412 0.0000
# 6 0.0000 0.0000 0.0000 -5.1598 0.0000 18.9504
#
#
#
# Elastic Compliance Matrix: (Units=1/GPa)
#
#
# Indices 1 2 3 4 5 6 
#
# 1 0.024995 -0.008082 -0.000517 0.000000 0.008414 0.000000
# 2 -0.008082 0.020451 -0.005720 0.000000 -0.012945 0.000000
# 3 -0.000517 -0.005720 0.009379 0.000000 -0.002721 0.000000
# 4 0.000000 0.000000 0.000000 0.027923 0.000000 0.007603
# 5 0.008414 -0.012945 -0.002721 0.000000 0.046051 0.000000
# 6 0.000000 0.000000 0.000000 0.007603 0.000000 0.054839
#
#
# Mechanical properties :
#
#
# Convention : Reuss Voigt Hill
#
# Bulk Modulus (GPa) = 38.18886 55.68602 46.93744
# Shear Modulus (GPa) = 22.62370 30.10243 26.36306
#
# Velocity S-wave (km/s) = 3.19817 3.68910 3.45237
# Velocity P-wave (km/s) = 5.55905 6.58193 6.09200
#
# Compressibility (1/GPa) = 0.02618564
#
# Stress axis : x y z
#
# Youngs Moduli (GPa) = 40.00798 48.89707 106.61768
#
# Poissons Ratio (x) = 0.39520 0.05513
# Poissons Ratio (y) = 0.32336 0.60990
# Poissons Ratio (z) = 0.02069 0.27971
#
# Static dielectric constant tensor:
#      x y z
#    x 2.017600 0.000000 -0.097250 
#    y 0.000000 1.812800 0.000000 
#    z -0.097250 0.000000 1.855940 
# 
# From -- ./inp_files/37621.got.cif
#   From: 2010.05.17/outbox.cif.g08.bks.cpg/sg15_19_cif.got.tgz:37621.got - 2010.06.03 18:47:42.
