data_PCOD9257185
_publ_section_title
;
Structure prediction by ZEFSAII (Michael W. Deem and Ramdas Pophale) SiO2 
 PCOD9257185
Probable space group: C 2/C
;
_chemical_formula_sum "Si O2"
_cell_formula_units_Z 32
_cell_length_a 9.307796
_cell_length_b 9.965565
_cell_length_c 18.345328
_cell_angle_alpha 90.000000
_cell_angle_beta 129.219848
_cell_angle_gamma 90.000000
_cell_volume 1318.323865
_symmetry_space_group_name_H-M "C 2/C"
_symmetry_group_IT_number 15
_symmetry_cell_setting 'monoclinic'
loop_
_space_group_symop_operation_xyz
x,y,z
-x,y,1/2-z
-x,-y,-z
x,-y,1/2+z
1/2+x,1/2+y,z
1/2-x,1/2+y,1/2-z
1/2-x,1/2-y,-z
1/2+x,1/2-y,1/2+z
loop_
_atom_site_type_symbol
_atom_site_label
_atom_site_fract_x
_atom_site_fract_y
_atom_site_fract_z
Si Si1 0.281384 0.738372 0.171857
Si Si2 0.979431 0.129283 0.656471
Si Si3 0.167725 0.571864 0.010658
Si Si4 0.000484 0.425932 0.664866
O O1 0.500000 0.740911 0.250000
O O2 0.174844 0.859835 0.177047
O O3 0.205576 0.708820 0.066066
O O4 0.199500 0.611952 0.193330
O O5 0.898092 0.281174 0.618571
O O6 0.000000 0.114420 0.750000
O O7 0.850692 0.016127 0.582323
O O8 0.000000 0.500000 0.000000
O O9 0.096694 0.549200 0.906251
O O10 0.000000 0.443894 0.750000
#
# Coordination Sequence:
#
# PCOD9257185 Si02
#       4
#     8   8   8   8
#     4   9  18  32  54  84 114 152 196 240 286 355
#     4   9  18  33  57  82 118 157 189 240 300 346
#     4  10  18  30  58  90 111 151 203 238 291 357
#     4   8  17  32  53  79 115 152 193 242 293 344
#
# _framework density 24.273243999999998
#
# number of rings (size 3 to 8) (size 9 to 14) (size 15 to 20)
#    1.500    1.500    0.000    1.500    0.000    0.000 
#    0.000    1.250    0.000   33.000    0.000    0.000 
#    0.000    0.000    0.000    0.000    0.000    0.000 
#
# Total GULP energy -89328.531049 kJ/mol
# GULP energy per Si atom -5583.033191 kJ/mol
# Density = 2.421800 g / cm^3
# Si number density = 24.273244 Si / 1000 Ang^3
#
#
#
# Elastic Constant Matrix: (Units=GPa)
#
#
# Indices 1 2 3 4 5 6 
#
# 1 133.3598 29.3707 66.9238 0.0000 13.2962 0.0000
# 2 29.3707 68.2942 -5.1193 0.0000 11.8952 0.0000
# 3 66.9238 -5.1193 98.3533 0.0000 -5.7684 0.0000
# 4 0.0000 0.0000 0.0000 22.4787 0.0000 12.7475
# 5 13.2962 11.8952 -5.7684 0.0000 50.0682 0.0000
# 6 0.0000 0.0000 0.0000 12.7475 0.0000 34.5620
#
#
#
# Elastic Compliance Matrix: (Units=1/GPa)
#
#
# Indices 1 2 3 4 5 6 
#
# 1 0.014466 -0.006386 -0.010382 0.000000 -0.003521 0.000000
# 2 -0.006386 0.018128 0.005171 0.000000 -0.002015 0.000000
# 3 -0.010382 0.005171 0.017710 0.000000 0.003569 0.000000
# 4 0.000000 0.000000 0.000000 0.056252 0.000000 -0.020748
# 5 -0.003521 -0.002015 0.003569 0.000000 0.021798 0.000000
# 6 0.000000 0.000000 0.000000 -0.020748 0.000000 0.036586
#
#
# Mechanical properties :
#
#
# Convention : Reuss Voigt Hill
#
# Bulk Modulus (GPa) = 36.88839 53.59530 45.24185
# Shear Modulus (GPa) = 25.35860 35.34393 30.35127
#
# Velocity S-wave (km/s) = 3.23571 3.82001 3.53994
# Velocity P-wave (km/s) = 5.40277 6.44861 5.94872
#
# Compressibility (1/GPa) = 0.02710880
#
# Stress axis : x y z
#
# Youngs Moduli (GPa) = 69.12684 55.16434 56.46382
#
# Poissons Ratio (x) = 0.35230 0.58622
# Poissons Ratio (y) = 0.44147 -0.29197
# Poissons Ratio (z) = 0.71769 -0.28525
#
# Static dielectric constant tensor:
#      x y z
#    x 1.947790 0.000000 -0.035470 
#    y 0.000000 1.993570 0.000000 
#    z -0.035470 0.000000 1.936450 
# 
# From -- ./inp_files/236741.got.cif
#   From: 2010.05.17/outbox.cif.g08.bks.cpg/sg15_119_cif.got.tgz:236741.got - 2010.06.03 18:47:42.
