data_PCOD9257593
_publ_section_title
;
Structure prediction by ZEFSAII (Michael W. Deem and Ramdas Pophale) SiO2 
 PCOD9257593
Probable space group: C 2/C
;
_chemical_formula_sum "Si O2"
_cell_formula_units_Z 52
_cell_length_a 26.796936
_cell_length_b 21.049371
_cell_length_c 11.169727
_cell_angle_alpha 90.000000
_cell_angle_beta 28.167978
_cell_angle_gamma 90.000000
_cell_volume 2974.146186
_symmetry_space_group_name_H-M "C 2/C"
_symmetry_group_IT_number 15
_symmetry_cell_setting 'monoclinic'
loop_
_space_group_symop_operation_xyz
x,y,z
-x,y,1/2-z
-x,-y,-z
x,-y,1/2+z
1/2+x,1/2+y,z
1/2-x,1/2+y,1/2-z
1/2-x,1/2-y,-z
1/2+x,1/2-y,1/2+z
loop_
_atom_site_type_symbol
_atom_site_label
_atom_site_fract_x
_atom_site_fract_y
_atom_site_fract_z
Si Si1 0.715635 0.324484 0.400883
Si Si2 0.108611 0.084436 0.708394
Si Si3 0.500000 0.326473 0.250000
Si Si4 0.440699 0.201330 0.494413
Si Si5 0.428040 0.552944 0.282819
Si Si6 0.483881 0.763931 0.152563
Si Si7 0.197032 0.810245 0.173959
O O1 0.821128 0.321985 0.254387
O O2 0.654302 0.390381 0.534630
O O3 0.630760 0.269382 0.608591
O O4 0.750089 0.316352 0.190193
O O5 0.192751 0.125121 0.606854
O O6 0.075562 0.129483 0.668364
O O7 0.131492 0.013698 0.613742
O O8 0.007067 0.071310 0.007843
O O9 0.441164 0.277387 0.463487
O O10 0.495187 0.194630 0.508501
O O11 0.500000 0.174810 0.250000
O O12 0.500000 0.547947 0.250000
O O13 0.500000 0.794442 0.250000
O O14 0.574203 0.709516 0.955303
O O15 0.250000 0.750000 0.000000
#
# Coordination Sequence:
#
# PCOD9257593 Si02
#       7
#     8   8   4   8   8   8   8
#     4  11  19  32  53  77 109 145 190 217 282 337
#     4  11  20  32  51  76 110 141 181 224 273 332
#     4  10  18  32  48  76 108 132 174 228 282 310
#     4  10  20  33  52  80 110 140 180 233 281 325
#     4  11  20  34  52  75 109 148 180 223 271 334
#     4  10  19  32  50  74 107 145 180 221 278 337
#     4  11  19  33  52  80 111 146 179 230 281 336
#
# _framework density 17.484009
#
# number of rings (size 3 to 8) (size 9 to 14) (size 15 to 20)
#    0.462    0.923    5.385    2.769    0.000    0.000 
#    0.000    0.000    0.000    0.000    0.000    9.692 
#    0.000    0.000    0.000    0.000    0.000    0.000 
#
# Total GULP energy -144878.275108 kJ/mol
# GULP energy per Si atom -5572.241350 kJ/mol
# Density = 1.744421 g / cm^3
# Si number density = 17.484009 Si / 1000 Ang^3
#
#
#
# Elastic Constant Matrix: (Units=GPa)
#
#
# Indices 1 2 3 4 5 6 
#
# 1 90.8490 7.8429 10.2331 0.0000 15.8229 0.0000
# 2 7.8429 67.7323 10.6901 0.0000 7.3330 0.0000
# 3 10.2331 10.6901 40.7890 0.0000 3.9577 0.0000
# 4 0.0000 0.0000 0.0000 23.4558 0.0000 -1.2421
# 5 15.8229 7.3330 3.9577 0.0000 26.4767 0.0000
# 6 0.0000 0.0000 0.0000 -1.2421 0.0000 22.5750
#
#
#
# Elastic Compliance Matrix: (Units=1/GPa)
#
#
# Indices 1 2 3 4 5 6 
#
# 1 0.012529 -0.000313 -0.002378 0.000000 -0.007046 0.000000
# 2 -0.000313 0.015778 -0.003704 0.000000 -0.003629 0.000000
# 3 -0.002378 -0.003704 0.026227 0.000000 -0.001473 0.000000
# 4 0.000000 0.000000 0.000000 0.042758 0.000000 0.002353
# 5 -0.007046 -0.003629 -0.001473 0.000000 0.043205 0.000000
# 6 0.000000 0.000000 0.000000 0.002353 0.000000 0.044426
#
#
# Mechanical properties :
#
#
# Convention : Reuss Voigt Hill
#
# Bulk Modulus (GPa) = 23.95558 28.54470 26.25014
# Shear Modulus (GPa) = 23.62641 25.87511 24.75076
#
# Velocity S-wave (km/s) = 3.68001 3.85116 3.76656
# Velocity P-wave (km/s) = 5.63807 6.01139 5.82772
#
# Compressibility (1/GPa) = 0.04174393
#
# Stress axis : x y z
#
# Youngs Moduli (GPa) = 79.81349 63.38022 38.12903
#
# Poissons Ratio (x) = 0.01982 0.09066
# Poissons Ratio (y) = 0.02496 0.14125
# Poissons Ratio (z) = 0.18977 0.23479
#
# Static dielectric constant tensor:
#      x y z
#    x 1.649050 0.000000 0.039800 
#    y 0.000000 1.589870 0.000000 
#    z 0.039800 0.000000 1.614000 
# 
# From -- ./inp_files/123873.got.cif
#   From: 2010.05.17/outbox.cif.g08.bks.cpg/sg15_62_cif.got.tgz:123873.got - 2010.06.03 18:47:42.
