data_PCOD9257931
_publ_section_title
;
Structure prediction by ZEFSAII (Michael W. Deem and Ramdas Pophale) SiO2 
 PCOD9257931
Probable space group: C 2/C
;
_chemical_formula_sum "Si O2"
_cell_formula_units_Z 36
_cell_length_a 10.002656
_cell_length_b 18.079423
_cell_length_c 9.022681
_cell_angle_alpha 90.000000
_cell_angle_beta 62.652433
_cell_angle_gamma 90.000000
_cell_volume 1449.318878
_symmetry_space_group_name_H-M "C 2/C"
_symmetry_group_IT_number 15
_symmetry_cell_setting 'monoclinic'
loop_
_space_group_symop_operation_xyz
x,y,z
-x,y,1/2-z
-x,-y,-z
x,-y,1/2+z
1/2+x,1/2+y,z
1/2-x,1/2+y,1/2-z
1/2-x,1/2-y,-z
1/2+x,1/2-y,1/2+z
loop_
_atom_site_type_symbol
_atom_site_label
_atom_site_fract_x
_atom_site_fract_y
_atom_site_fract_z
Si Si1 0.317219 0.503814 0.393602
Si Si2 0.845426 0.103862 0.109339
Si Si3 0.627700 0.232608 0.934834
Si Si4 0.664433 0.909396 0.235206
Si Si5 0.500000 0.855650 0.750000
O O1 0.380009 0.552898 0.229349
O O2 0.402502 0.436361 0.432227
O O3 0.184954 0.460711 0.369628
O O4 0.268458 0.558797 0.550948
O O5 0.906906 0.185762 0.103973
O O6 0.661875 0.104526 0.179385
O O7 0.685621 0.174579 0.783435
O O8 0.750000 0.250000 0.000000
O O9 0.501458 0.192416 0.097709
O O10 0.500000 0.913746 0.250000
#
# Coordination Sequence:
#
# PCOD9257931 Si02
#       5
#     8   8   8   8   4
#     4  10  21  31  54  84 119 141 174 233 284 339
#     4  10  21  35  56  84 111 148 183 227 282 331
#     4  10  20  37  53  80 115 150 191 217 278 334
#     4  11  20  32  54  86 116 146 178 227 283 340
#     4  10  18  32  56  80 106 152 178 226 276 330
#
# _framework density 24.839254
#
# number of rings (size 3 to 8) (size 9 to 14) (size 15 to 20)
#    0.000    1.778    4.444    2.000    6.222    0.889 
#    0.000    0.000    0.000    1.333    0.000    0.000 
#    0.000    0.000    0.000    0.000    0.000    0.000 
#
# Total GULP energy -100566.664156 kJ/mol
# GULP energy per Si atom -5587.036898 kJ/mol
# Density = 2.478272 g / cm^3
# Si number density = 24.839254 Si / 1000 Ang^3
#
#
#
# Elastic Constant Matrix: (Units=GPa)
#
#
# Indices 1 2 3 4 5 6 
#
# 1 95.3575 30.3768 33.1355 0.0000 21.7281 0.0000
# 2 30.3768 200.1403 82.2173 0.0000 23.7667 0.0000
# 3 33.1355 82.2173 156.3134 0.0000 23.5229 0.0000
# 4 0.0000 0.0000 0.0000 50.2356 0.0000 10.8501
# 5 21.7281 23.7667 23.5229 0.0000 39.4903 0.0000
# 6 0.0000 0.0000 0.0000 10.8501 0.0000 25.0132
#
#
#
# Elastic Compliance Matrix: (Units=1/GPa)
#
#
# Indices 1 2 3 4 5 6 
#
# 1 0.012476 -0.000622 -0.001473 0.000000 -0.005613 0.000000
# 2 -0.000622 0.006555 -0.003047 0.000000 -0.001788 0.000000
# 3 -0.001473 -0.003047 0.008694 0.000000 -0.002534 0.000000
# 4 0.000000 0.000000 0.000000 0.021964 0.000000 -0.009527
# 5 -0.005613 -0.001788 -0.002534 0.000000 0.030996 0.000000
# 6 0.000000 0.000000 0.000000 -0.009527 0.000000 0.044112
#
#
# Mechanical properties :
#
#
# Convention : Reuss Voigt Hill
#
# Bulk Modulus (GPa) = 57.33676 82.58559 69.96118
# Shear Modulus (GPa) = 35.48793 43.35326 39.42060
#
# Velocity S-wave (km/s) = 3.78392 4.18227 3.98807
# Velocity P-wave (km/s) = 6.49800 7.52609 7.03086
#
# Compressibility (1/GPa) = 0.01744082
#
# Stress axis : x y z
#
# Youngs Moduli (GPa) = 80.15596 152.55948 115.02780
#
# Poissons Ratio (x) = 0.09489 0.16942
# Poissons Ratio (y) = 0.04986 0.35047
# Poissons Ratio (z) = 0.11806 0.46482
#
# Static dielectric constant tensor:
#      x y z
#    x 2.064710 0.000000 -0.089400 
#    y 0.000000 2.049490 0.000000 
#    z -0.089400 0.000000 1.987150 
# 
# From -- ./inp_files/28737.got.cif
#   From: 2010.05.17/outbox.cif.g08.bks.cpg/sg15_15_cif.got.tgz:28737.got - 2010.06.03 18:47:42.
