data_PCOD9257323
_publ_section_title
;
Structure prediction by ZEFSAII (Michael W. Deem and Ramdas Pophale) SiO2 
 PCOD9257323
Probable space group: C 2/C
;
_chemical_formula_sum "Si O2"
_cell_formula_units_Z 56
_cell_length_a 5.488151
_cell_length_b 27.824294
_cell_length_c 24.657009
_cell_angle_alpha 90.000000
_cell_angle_beta 129.432876
_cell_angle_gamma 90.000000
_cell_volume 2908.141738
_symmetry_space_group_name_H-M "C 2/C"
_symmetry_group_IT_number 15
_symmetry_cell_setting 'monoclinic'
loop_
_space_group_symop_operation_xyz
x,y,z
-x,y,1/2-z
-x,-y,-z
x,-y,1/2+z
1/2+x,1/2+y,z
1/2-x,1/2+y,1/2-z
1/2-x,1/2-y,-z
1/2+x,1/2-y,1/2+z
loop_
_atom_site_type_symbol
_atom_site_label
_atom_site_fract_x
_atom_site_fract_y
_atom_site_fract_z
Si Si1 0.059853 0.121932 0.367700
Si Si2 0.047763 0.556720 0.004549
Si Si3 0.375500 0.747366 0.794196
Si Si4 0.521051 0.390533 0.021206
Si Si5 0.948051 0.350373 0.639853
Si Si6 0.550099 0.697152 0.593467
Si Si7 0.834407 0.282202 0.960016
O O1 0.220772 0.074826 0.414809
O O2 0.207866 0.133603 0.331087
O O3 0.173835 0.167956 0.420755
O O4 0.692709 0.122493 0.328340
O O5 0.223745 0.577725 0.975747
O O6 0.710637 0.580549 0.971262
O O7 0.000000 0.500000 0.000000
O O8 0.500000 0.743686 0.750000
O O9 0.542814 0.794019 0.844776
O O10 0.454388 0.700930 0.842512
O O11 0.000000 0.754197 0.750000
O O12 0.281312 0.366350 0.942839
O O13 0.678312 0.348876 0.079806
O O14 0.720903 0.745149 0.596563
O O15 0.195460 0.703427 0.521343
O O16 0.750000 0.250000 0.000000
#
# Coordination Sequence:
#
# PCOD9257323 Si02
#       7
#     8   8   8   8   8   8   8
#     4  10  18  31  51  77 100 138 173 203 267 305
#     4  10  19  32  49  80 119 136 157 209 281 347
#     4  12  26  37  48  71 109 156 187 222 271 303
#     4  10  20  34  56  81  99 145 180 216 267 318
#     4  10  18  36  50  72 102 134 188 216 247 319
#     4  11  21  34  50  76 106 140 190 221 255 326
#     4  11  19  29  55  78  98 141 177 227 258 301
#
# _framework density 19.256284000000001
#
# number of rings (size 3 to 8) (size 9 to 14) (size 15 to 20)
#    0.000    1.429    4.286    4.714    2.000    0.000 
#    0.000    0.000    0.000    0.000    0.000    0.000 
#    0.000   68.571    0.000    0.000    0.000    0.000 
#
# Total GULP energy -156085.492924 kJ/mol
# GULP energy per Si atom -5574.481890 kJ/mol
# Density = 1.921246 g / cm^3
# Si number density = 19.256284 Si / 1000 Ang^3
#
#
#
# Elastic Constant Matrix: (Units=GPa)
#
#
# Indices 1 2 3 4 5 6 
#
# 1 169.2084 45.6944 34.1687 0.0000 -25.7224 0.0000
# 2 45.6944 115.5365 47.7375 0.0000 -16.8422 0.0000
# 3 34.1687 47.7375 59.1700 0.0000 -15.6718 0.0000
# 4 0.0000 0.0000 0.0000 8.5812 0.0000 0.1326
# 5 -25.7224 -16.8422 -15.6718 0.0000 22.9034 0.0000
# 6 0.0000 0.0000 0.0000 0.1326 0.0000 29.7376
#
#
#
# Elastic Compliance Matrix: (Units=1/GPa)
#
#
# Indices 1 2 3 4 5 6 
#
# 1 0.007580 -0.001434 -0.001520 0.000000 0.006418 0.000000
# 2 -0.001434 0.013415 -0.009537 0.000000 0.001728 0.000000
# 3 -0.001520 -0.009537 0.028290 0.000000 0.010637 0.000000
# 4 0.000000 0.000000 0.000000 0.116542 0.000000 -0.000520
# 5 0.006418 0.001728 0.010637 0.000000 0.059419 0.000000
# 6 0.000000 0.000000 0.000000 -0.000520 0.000000 0.033630
#
#
# Mechanical properties :
#
#
# Convention : Reuss Voigt Hill
#
# Bulk Modulus (GPa) = 41.14880 66.56845 53.85862
# Shear Modulus (GPa) = 17.12570 26.66541 21.89555
#
# Velocity S-wave (km/s) = 2.98544 3.72528 3.37569
# Velocity P-wave (km/s) = 5.77055 7.29029 6.57448
#
# Compressibility (1/GPa) = 0.02430205
#
# Stress axis : x y z
#
# Youngs Moduli (GPa) = 131.93065 74.54387 35.34816
#
# Poissons Ratio (x) = 0.10690 0.05374
# Poissons Ratio (y) = 0.18920 0.33712
# Poissons Ratio (z) = 0.20056 0.71093
#
# Static dielectric constant tensor:
#      x y z
#    x 1.841770 0.000000 -0.009760 
#    y 0.000000 1.662340 0.000000 
#    z -0.009760 0.000000 1.726350 
# 
# From -- ./inp_files/261898.got.cif
#   From: 2010.05.17/outbox.cif.g08.bks.cpg/sg15_131_cif.got.tgz:261898.got - 2010.06.03 18:47:42.
