data_PCOD9257444
_publ_section_title
;
Structure prediction by ZEFSAII (Michael W. Deem and Ramdas Pophale) SiO2 
 PCOD9257444
Probable space group: C 2/C
;
_chemical_formula_sum "Si O2"
_cell_formula_units_Z 56
_cell_length_a 18.279407
_cell_length_b 14.487836
_cell_length_c 14.388541
_cell_angle_alpha 90.000000
_cell_angle_beta 53.488855
_cell_angle_gamma 90.000000
_cell_volume 3062.658561
_symmetry_space_group_name_H-M "C 2/C"
_symmetry_group_IT_number 15
_symmetry_cell_setting 'monoclinic'
loop_
_space_group_symop_operation_xyz
x,y,z
-x,y,1/2-z
-x,-y,-z
x,-y,1/2+z
1/2+x,1/2+y,z
1/2-x,1/2+y,1/2-z
1/2-x,1/2-y,-z
1/2+x,1/2-y,1/2+z
loop_
_atom_site_type_symbol
_atom_site_label
_atom_site_fract_x
_atom_site_fract_y
_atom_site_fract_z
Si Si1 0.709836 0.713293 0.933009
Si Si2 0.286919 0.136431 0.231686
Si Si3 0.018726 0.255046 0.125691
Si Si4 0.495754 0.842288 0.642474
Si Si5 0.993223 0.457203 0.365470
Si Si6 0.865021 0.251567 0.090324
Si Si7 0.301409 0.074050 0.727809
O O1 0.723471 0.795659 0.848253
O O2 0.755144 0.622867 0.852405
O O3 0.750000 0.750000 0.000000
O O4 0.603045 0.694067 0.030235
O O5 0.389860 0.153523 0.191720
O O6 0.208625 0.170963 0.361884
O O7 0.268966 0.028225 0.225764
O O8 0.053259 0.360364 0.076823
O O9 0.000000 0.249536 0.250000
O O10 0.927076 0.238846 0.136636
O O11 0.500000 0.833488 0.750000
O O12 0.558824 0.766933 0.545560
O O13 0.537806 0.942290 0.579826
O O14 0.000000 0.462643 0.250000
O O15 0.094409 0.443441 0.324587
O O16 0.805494 0.345288 0.148060
#
# Coordination Sequence:
#
# PCOD9257444 Si02
#       7
#     8   8   8   8   8   8   8
#     4  11  20  34  60  88 115 149 191 239 290 343
#     4  10  21  38  56  82 117 149 185 241 291 337
#     4  10  18  31  54  81 113 145 183 235 291 340
#     4  10  20  34  56  80 108 148 191 232 285 341
#     4   8  15  28  48  78 105 133 179 231 282 334
#     4  10  20  35  56  81 111 146 190 231 282 343
#     4   9  20  34  52  83 116 144 186 230 291 342
#
# _framework density 18.284768
#
# number of rings (size 3 to 8) (size 9 to 14) (size 15 to 20)
#    0.000    2.286    1.429    3.429    2.000    2.286 
#    0.000    0.714    0.000    0.857    0.000    0.000 
#    0.000    0.000    0.000    0.000    0.000    0.000 
#
# Total GULP energy -155895.263463 kJ/mol
# GULP energy per Si atom -5567.687981 kJ/mol
# Density = 1.824315 g / cm^3
# Si number density = 18.284768 Si / 1000 Ang^3
#
#
#
# Elastic Constant Matrix: (Units=GPa)
#
#
# Indices 1 2 3 4 5 6 
#
# 1 41.0686 10.5608 26.2955 0.0000 13.7537 0.0000
# 2 10.5608 63.0508 27.7056 0.0000 3.9288 0.0000
# 3 26.2955 27.7056 100.4197 0.0000 -4.9648 0.0000
# 4 0.0000 0.0000 0.0000 36.2666 0.0000 -5.6499
# 5 13.7537 3.9288 -4.9648 0.0000 22.4860 0.0000
# 6 0.0000 0.0000 0.0000 -5.6499 0.0000 17.5284
#
#
#
# Elastic Compliance Matrix: (Units=1/GPa)
#
#
# Indices 1 2 3 4 5 6 
#
# 1 0.041680 0.000216 -0.012371 0.000000 -0.028263 0.000000
# 2 0.000216 0.018470 -0.005377 0.000000 -0.004547 0.000000
# 3 -0.012371 -0.005377 0.015268 0.000000 0.011878 0.000000
# 4 0.000000 0.000000 0.000000 0.029031 0.000000 0.009358
# 5 -0.028263 -0.004547 0.011878 0.000000 0.065177 0.000000
# 6 0.000000 0.000000 0.000000 0.009358 0.000000 0.060066
#
#
# Mechanical properties :
#
#
# Convention : Reuss Voigt Hill
#
# Bulk Modulus (GPa) = 24.78067 37.07366 30.92716
# Shear Modulus (GPa) = 17.97207 24.58801 21.28004
#
# Velocity S-wave (km/s) = 3.13852 3.67103 3.41517
# Velocity P-wave (km/s) = 5.16873 6.18776 5.70106
#
# Compressibility (1/GPa) = 0.04035404
#
# Stress axis : x y z
#
# Youngs Moduli (GPa) = 23.99218 54.14127 65.49445
#
# Poissons Ratio (x) = -0.01169 0.81024
# Poissons Ratio (y) = -0.00518 0.35218
# Poissons Ratio (z) = 0.29681 0.29113
#
# Static dielectric constant tensor:
#      x y z
#    x 1.641270 0.000000 0.025510 
#    y 0.000000 1.688300 0.000000 
#    z 0.025510 0.000000 1.717470 
# 
# From -- ./inp_files/162190.got.cif
#   From: 2010.05.17/outbox.cif.g08.bks.cpg/sg15_82_cif.got.tgz:162190.got - 2010.06.03 18:47:42.
