data_PCOD9257339
_publ_section_title
;
Structure prediction by ZEFSAII (Michael W. Deem and Ramdas Pophale) SiO2 
 PCOD9257339
Probable space group: C 2/C
;
_chemical_formula_sum "Si O2"
_cell_formula_units_Z 64
_cell_length_a 18.176663
_cell_length_b 8.121453
_cell_length_c 22.095102
_cell_angle_alpha 90.000000
_cell_angle_beta 52.187744
_cell_angle_gamma 90.000000
_cell_volume 2576.820253
_symmetry_space_group_name_H-M "C 2/C"
_symmetry_group_IT_number 15
_symmetry_cell_setting 'monoclinic'
loop_
_space_group_symop_operation_xyz
x,y,z
-x,y,1/2-z
-x,-y,-z
x,-y,1/2+z
1/2+x,1/2+y,z
1/2-x,1/2+y,1/2-z
1/2-x,1/2-y,-z
1/2+x,1/2-y,1/2+z
loop_
_atom_site_type_symbol
_atom_site_label
_atom_site_fract_x
_atom_site_fract_y
_atom_site_fract_z
Si Si1 0.180888 0.440549 0.821976
Si Si2 0.633684 0.384727 0.039253
Si Si3 0.112797 0.914384 0.731992
Si Si4 0.440831 0.302041 0.876076
Si Si5 0.867957 0.760044 0.324498
Si Si6 0.815453 0.459024 0.401066
Si Si7 0.645550 0.244866 0.910708
Si Si8 0.799984 0.911743 0.156557
O O1 0.281384 0.412806 0.802713
O O2 0.121185 0.577889 0.887698
O O3 0.149592 0.248923 0.840232
O O4 0.215628 0.525739 0.742480
O O5 0.581467 0.559658 0.064067
O O6 0.618276 0.318912 0.113817
O O7 0.742883 0.431453 0.976148
O O8 0.606295 0.267124 0.997939
O O9 0.098796 0.855200 0.670536
O O10 0.049543 0.803972 0.807042
O O11 0.084775 0.108861 0.743768
O O12 0.378375 0.142109 0.915757
O O13 0.885007 0.566799 0.323681
O O14 0.758414 0.767614 0.362096
O O15 0.745111 0.378742 0.387103
O O16 0.636358 0.424353 0.883737
#
# Coordination Sequence:
#
# PCOD9257339 Si02
#       8
#     8   8   8   8   8   8   8   8
#     4  11  18  33  53  75 106 133 174 227 269 301
#     4   9  17  31  49  75 106 136 171 212 264 315
#     4   9  19  32  50  70 104 147 171 202 260 326
#     4  10  18  32  49  73 108 143 166 205 261 324
#     4   8  16  31  49  71 104 134 170 209 261 315
#     4  10  18  31  51  80 105 129 177 224 259 309
#     4   9  18  30  48  78 102 128 168 217 268 309
#     4  10  19  30  51  79 100 130 174 226 269 300
#
# _framework density 24.836811999999998
#
# number of rings (size 3 to 8) (size 9 to 14) (size 15 to 20)
#    0.000    2.750    2.500    1.875    0.000    0.000 
#    4.500    5.000    0.000    3.000    0.000    0.875 
#    0.000    1.750    0.000    0.000    0.000    0.000 
#
# Total GULP energy -178248.847256 kJ/mol
# GULP energy per Si atom -5570.276477 kJ/mol
# Density = 2.478028 g / cm^3
# Si number density = 24.836812 Si / 1000 Ang^3
#
#
#
# Elastic Constant Matrix: (Units=GPa)
#
#
# Indices 1 2 3 4 5 6 
#
# 1 37.1062 11.1941 9.3125 0.0000 6.7051 0.0006
# 2 11.1941 110.1549 39.0692 0.0001 17.9077 0.0012
# 3 9.3125 39.0692 63.8010 0.0000 7.4224 0.0000
# 4 0.0000 0.0001 0.0000 17.4834 0.0000 21.2899
# 5 6.7051 17.9077 7.4224 0.0000 24.4941 0.0001
# 6 0.0006 0.0012 0.0000 21.2899 0.0001 -2.4325
#
#
#
# Elastic Compliance Matrix: (Units=1/GPa)
#
#
# Indices 1 2 3 4 5 6 
#
# 1 0.029119 -0.000856 -0.002977 -0.000001 -0.006443 0.000001
# 2 -0.000856 0.012736 -0.006860 -0.000001 -0.006998 0.000000
# 3 -0.002977 -0.006860 0.020348 0.000000 -0.000336 0.000000
# 4 -0.000001 -0.000001 0.000000 0.004906 0.000000 0.042942
# 5 -0.006443 -0.006998 -0.000336 0.000000 0.047808 0.000000
# 6 0.000001 0.000000 0.000000 0.042942 0.000000 -0.035264
#
#
# Mechanical properties :
#
#
# Convention : Reuss Voigt Hill
#
# Bulk Modulus (GPa) = 24.49876 36.69041 30.59459
# Shear Modulus (GPa) = 43.61316 18.00808 30.81062
#
# Velocity S-wave (km/s) = 4.19500 2.69561 3.52593
# Velocity P-wave (km/s) = 5.77489 4.94905 5.37784
#
# Compressibility (1/GPa) = 0.04081839
#
# Stress axis : x y z
#
# Youngs Moduli (GPa) = 34.34158 78.51889 49.14496
#
# Poissons Ratio (x) = 0.06721 0.14628
# Poissons Ratio (y) = 0.02939 0.33713
# Poissons Ratio (z) = 0.10222 0.53863
#
# Static dielectric constant tensor:
#      x y z
#    x 1.979310 0.000000 -0.003260 
#    y 0.000000 2.269230 0.000000 
#    z -0.003260 0.000000 1.984920 
# 
# From -- ./inp_files/281495.got.cif
#   From: 2010.05.17/outbox.cif.g08.bks.cpg/sg15_141_cif.got.tgz:281495.got - 2010.06.03 18:47:42.
