data_PCOD9257412
_publ_section_title
;
Structure prediction by ZEFSAII (Michael W. Deem and Ramdas Pophale) SiO2 
 PCOD9257412
Probable space group: C 2/C
;
_chemical_formula_sum "Si O2"
_cell_formula_units_Z 64
_cell_length_a 9.431957
_cell_length_b 27.146922
_cell_length_c 29.008097
_cell_angle_alpha 90.000000
_cell_angle_beta 150.470064
_cell_angle_gamma 90.000000
_cell_volume 3660.844562
_symmetry_space_group_name_H-M "C 2/C"
_symmetry_group_IT_number 15
_symmetry_cell_setting 'monoclinic'
loop_
_space_group_symop_operation_xyz
x,y,z
-x,y,1/2-z
-x,-y,-z
x,-y,1/2+z
1/2+x,1/2+y,z
1/2-x,1/2+y,1/2-z
1/2-x,1/2-y,-z
1/2+x,1/2-y,1/2+z
loop_
_atom_site_type_symbol
_atom_site_label
_atom_site_fract_x
_atom_site_fract_y
_atom_site_fract_z
Si Si1 0.659614 0.255482 0.656625
Si Si2 0.322768 0.094910 0.400308
Si Si3 0.870731 0.817944 0.759520
Si Si4 0.167834 0.177720 0.510127
Si Si5 0.319207 0.004441 0.839267
Si Si6 0.770274 0.032868 0.406887
Si Si7 0.284398 0.862332 0.557944
Si Si8 0.269966 0.428111 0.520980
O O1 0.606010 0.285282 0.688679
O O2 0.463722 0.206859 0.600232
O O3 0.541909 0.289230 0.581338
O O4 0.000000 0.246204 0.750000
O O5 0.603553 0.124847 0.461589
O O6 0.318706 0.077134 0.451356
O O7 0.056416 0.132210 0.318915
O O8 0.298377 0.047431 0.360685
O O9 0.546375 0.833672 0.656461
O O10 0.000000 0.793419 0.750000
O O11 0.213731 0.126130 0.496787
O O12 0.005633 0.166796 0.512485
O O13 0.535472 0.039756 0.927637
O O14 0.000000 0.025625 0.750000
O O15 0.463600 0.992797 0.830183
O O16 0.749969 0.085479 0.426209
O O17 0.920478 0.045060 0.400614
O O18 0.000000 0.000000 0.500000
#
# Coordination Sequence:
#
# PCOD9257412 Si02
#       8
#     8   8   8   8   8   8   8   8
#     4  11  21  37  57  78 110 139 185 237 279 338
#     4  10  18  31  53  82 109 142 178 223 273 334
#     4  10  19  33  53  79 109 136 175 230 282 329
#     4  10  21  36  55  81 105 145 185 227 285 332
#     4  10  19  33  50  76 112 147 181 224 273 329
#     4   8  16  30  49  73 104 141 175 216 265 322
#     4   9  17  32  52  76 108 139 173 219 276 328
#     4  10  19  33  54  78 107 143 188 224 272 335
#
# _framework density 17.482305
#
# number of rings (size 3 to 8) (size 9 to 14) (size 15 to 20)
#    0.000    2.250    2.500    2.250    0.000    0.500 
#    0.000    5.625    0.000    0.000    0.000    3.500 
#    0.000    0.000    0.000    0.000    0.000    0.000 
#
# Total GULP energy -178207.017918 kJ/mol
# GULP energy per Si atom -5568.969310 kJ/mol
# Density = 1.744251 g / cm^3
# Si number density = 17.482305 Si / 1000 Ang^3
#
#
#
# Elastic Constant Matrix: (Units=GPa)
#
#
# Indices 1 2 3 4 5 6 
#
# 1 122.6102 19.1293 38.2189 0.0006 11.7281 0.0027
# 2 19.1293 31.0024 17.6946 -0.0023 5.9885 0.0052
# 3 38.2189 17.6946 70.7242 -0.0106 23.9686 0.0106
# 4 0.0006 -0.0023 -0.0106 22.7090 -0.0008 0.7287
# 5 11.7281 5.9885 23.9686 -0.0008 26.1549 0.0012
# 6 0.0027 0.0052 0.0106 0.7287 0.0012 7.4274
#
#
#
# Elastic Compliance Matrix: (Units=1/GPa)
#
#
# Indices 1 2 3 4 5 6 
#
# 1 0.010160 -0.003657 -0.004808 -0.000003 0.000688 0.000006
# 2 -0.003657 0.038945 -0.007689 0.000001 -0.000230 -0.000015
# 3 -0.004808 -0.007689 0.025143 0.000011 -0.019125 -0.000027
# 4 -0.000003 0.000001 0.000011 0.044174 -0.000008 -0.004334
# 5 0.000688 -0.000230 -0.019125 -0.000008 0.055504 0.000019
# 6 0.000006 -0.000015 -0.000027 -0.004334 0.000019 0.135061
#
#
# Mechanical properties :
#
#
# Convention : Reuss Voigt Hill
#
# Bulk Modulus (GPa) = 23.84468 41.60249 32.72359
# Shear Modulus (GPa) = 14.07353 21.21121 17.64237
#
# Velocity S-wave (km/s) = 2.84036 3.48702 3.18017
# Velocity P-wave (km/s) = 4.94224 6.32937 5.67833
#
# Compressibility (1/GPa) = 0.04193807
#
# Stress axis : x y z
#
# Youngs Moduli (GPa) = 98.42991 25.67694 39.77254
#
# Poissons Ratio (x) = 0.09391 0.19124
# Poissons Ratio (y) = 0.35999 0.30582
# Poissons Ratio (z) = 0.47328 0.19744
#
# Static dielectric constant tensor:
#      x y z
#    x 1.641580 -0.000010 0.030940 
#    y -0.000010 1.608040 0.000000 
#    z 0.030940 0.000000 1.593190 
# 
# From -- ./inp_files/234706.got.cif
#   From: 2010.05.17/outbox.cif.g08.bks.cpg/sg15_118_cif.got.tgz:234706.got - 2010.06.03 18:47:42.
