data_PCOD9257644
_publ_section_title
;
Structure prediction by ZEFSAII (Michael W. Deem and Ramdas Pophale) SiO2 
 PCOD9257644
Probable space group: C 2/C
;
_chemical_formula_sum "Si O2"
_cell_formula_units_Z 44
_cell_length_a 26.544888
_cell_length_b 13.385831
_cell_length_c 5.324927
_cell_angle_alpha 90.000000
_cell_angle_beta 112.554330
_cell_angle_gamma 90.000000
_cell_volume 1747.368214
_symmetry_space_group_name_H-M "C 2/C"
_symmetry_group_IT_number 15
_symmetry_cell_setting 'monoclinic'
loop_
_space_group_symop_operation_xyz
x,y,z
-x,y,1/2-z
-x,-y,-z
x,-y,1/2+z
1/2+x,1/2+y,z
1/2-x,1/2+y,1/2-z
1/2-x,1/2-y,-z
1/2+x,1/2-y,1/2+z
loop_
_atom_site_type_symbol
_atom_site_label
_atom_site_fract_x
_atom_site_fract_y
_atom_site_fract_z
Si Si1 0.272465 0.140562 0.604745
Si Si2 0.064445 0.891007 0.917307
Si Si3 0.268293 0.363651 0.973585
Si Si4 0.610168 0.618282 0.002228
Si Si5 0.000000 0.431454 0.750000
Si Si6 0.617631 0.067661 0.501157
O O1 0.250000 0.250000 0.500000
O O2 0.233121 0.094131 0.744306
O O3 0.331254 0.138303 0.846900
O O4 0.272605 0.096848 0.321945
O O5 0.095236 0.838810 0.745231
O O6 0.000000 0.899485 0.750000
O O7 0.090101 0.002514 0.990142
O O8 0.075991 0.839715 0.203959
O O9 0.327410 0.374696 0.962722
O O10 0.250000 0.250000 0.000000
O O11 0.000000 0.500000 0.500000
O O12 0.941433 0.379596 0.617755
O O13 0.620633 0.009500 0.242070
#
# Coordination Sequence:
#
# PCOD9257644 Si02
#       6
#     8   8   8   8   4   8
#     4  10  21  38  55  78 115 163 199 239 293 360
#     4  10  19  33  53  82 115 143 180 233 295 342
#     4  10  21  37  54  76 107 158 198 233 283 339
#     4  10  18  32  50  77 108 145 183 230 280 340
#     4   8  16  30  54  80 120 144 176 236 306 362
#     4  10  19  35  55  90 119 149 193 248 305 360
#
# _framework density 25.180727999999998
#
# number of rings (size 3 to 8) (size 9 to 14) (size 15 to 20)
#    0.000    2.182    0.000    4.909    0.000    0.000 
#   19.636    0.000    0.000    0.000   47.273    0.000 
#   10.909    0.000    0.000    0.000    0.000    0.000 
#
# Total GULP energy -122810.670169 kJ/mol
# GULP energy per Si atom -5582.303190 kJ/mol
# Density = 2.512342 g / cm^3
# Si number density = 25.180728 Si / 1000 Ang^3
#
#
#
# Elastic Constant Matrix: (Units=GPa)
#
#
# Indices 1 2 3 4 5 6 
#
# 1 132.9783 31.3211 32.9533 0.0000 14.8548 0.0000
# 2 31.3211 81.5785 14.2059 0.0000 5.6034 0.0000
# 3 32.9533 14.2059 161.5510 0.0000 -31.7221 0.0000
# 4 0.0000 0.0000 0.0000 10.9594 0.0000 0.6989
# 5 14.8548 5.6034 -31.7221 0.0000 85.6095 0.0000
# 6 0.0000 0.0000 0.0000 0.6989 0.0000 30.1160
#
#
#
# Elastic Compliance Matrix: (Units=1/GPa)
#
#
# Indices 1 2 3 4 5 6 
#
# 1 0.008936 -0.002944 -0.001974 0.000000 -0.002089 0.000000
# 2 -0.002944 0.013557 -0.000718 0.000000 -0.000643 0.000000
# 3 -0.001974 -0.000718 0.007261 0.000000 0.003080 0.000000
# 4 0.000000 0.000000 0.000000 0.091381 0.000000 -0.002121
# 5 -0.002089 -0.000643 0.003080 0.000000 0.013227 0.000000
# 6 0.000000 0.000000 0.000000 -0.002121 0.000000 0.033254
#
#
# Mechanical properties :
#
#
# Convention : Reuss Voigt Hill
#
# Bulk Modulus (GPa) = 54.10485 59.22981 56.66733
# Shear Modulus (GPa) = 27.01991 45.17880 36.09935
#
# Velocity S-wave (km/s) = 3.27928 4.24037 3.79041
# Velocity P-wave (km/s) = 5.98928 6.89545 6.45828
#
# Compressibility (1/GPa) = 0.01848263
#
# Stress axis : x y z
#
# Youngs Moduli (GPa) = 111.90723 73.76031 137.72971
#
# Poissons Ratio (x) = 0.21712 0.27191
# Poissons Ratio (y) = 0.32941 0.09888
# Poissons Ratio (z) = 0.22093 0.05295
#
# Static dielectric constant tensor:
#      x y z
#    x 2.050780 0.000000 -0.075640 
#    y 0.000000 2.140720 0.000000 
#    z -0.075640 0.000000 2.103380 
# 
# From -- ./inp_files/16950.got.cif
#   From: 2010.05.17/outbox.cif.g08.bks.cpg/sg15_9_cif.got.tgz:16950.got - 2010.06.03 18:47:42.
