data_PCOD9257303
_publ_section_title
;
Structure prediction by ZEFSAII (Michael W. Deem and Ramdas Pophale) SiO2 
 PCOD9257303
Probable space group: C 2/C
;
_chemical_formula_sum "Si O2"
_cell_formula_units_Z 48
_cell_length_a 23.333040
_cell_length_b 13.461364
_cell_length_c 23.403252
_cell_angle_alpha 90.000000
_cell_angle_beta 154.409827
_cell_angle_gamma 90.000000
_cell_volume 3175.053471
_symmetry_space_group_name_H-M "C 2/C"
_symmetry_group_IT_number 15
_symmetry_cell_setting 'monoclinic'
loop_
_space_group_symop_operation_xyz
x,y,z
-x,y,1/2-z
-x,-y,-z
x,-y,1/2+z
1/2+x,1/2+y,z
1/2-x,1/2+y,1/2-z
1/2-x,1/2-y,-z
1/2+x,1/2-y,1/2+z
loop_
_atom_site_type_symbol
_atom_site_label
_atom_site_fract_x
_atom_site_fract_y
_atom_site_fract_z
Si Si1 0.895854 0.545888 0.302373
Si Si2 0.647099 0.156667 0.672173
Si Si3 0.146711 0.872860 0.359092
Si Si4 0.854625 0.363179 0.645428
Si Si5 0.842079 0.664441 0.368657
Si Si6 0.200815 0.538150 0.605582
O O1 0.857956 0.435277 0.288275
O O2 0.840555 0.578910 0.191971
O O3 0.849719 0.619007 0.311620
O O4 0.056127 0.551395 0.446506
O O5 0.742284 0.243850 0.778650
O O6 0.494026 0.188865 0.523343
O O7 0.699972 0.110605 0.659872
O O8 0.157274 0.755228 0.354333
O O9 0.247719 0.891918 0.501788
O O10 0.189143 0.933604 0.341466
O O11 0.000000 0.893043 0.250000
O O12 0.000000 0.380673 0.750000
O O13 0.794351 0.573743 0.365949
#
# Coordination Sequence:
#
# PCOD9257303 Si02
#       6
#     8   8   8   8   8   8
#     4   9  17  32  53  72  94 132 164 186 237 298
#     4   9  18  33  52  73  96 126 162 198 238 285
#     4  10  20  31  47  76 101 124 158 201 242 275
#     4  10  18  31  51  70  98 130 161 193 234 295
#     4   9  18  33  52  72  97 127 159 200 240 282
#     4   9  17  33  52  69  99 132 158 192 240 292
#
# _framework density 15.117855
#
# number of rings (size 3 to 8) (size 9 to 14) (size 15 to 20)
#    0.000    2.667    1.667    3.000    0.000    0.000 
#    6.000    1.667    0.000    2.000    0.000    0.000 
#    0.000    0.000    0.000    0.000    0.000    0.000 
#
# Total GULP energy -133756.607852 kJ/mol
# GULP energy per Si atom -5573.191994 kJ/mol
# Density = 1.508345 g / cm^3
# Si number density = 15.117855 Si / 1000 Ang^3
#
#
#
# Elastic Constant Matrix: (Units=GPa)
#
#
# Indices 1 2 3 4 5 6 
#
# 1 107.2653 49.7473 58.9072 0.0001 -8.6884 -0.0001
# 2 49.7473 68.6288 56.0386 0.0002 -0.1092 0.0000
# 3 58.9072 56.0386 102.1410 0.0000 -5.2182 -0.0003
# 4 0.0001 0.0002 0.0000 27.0125 -0.0001 1.1701
# 5 -8.6884 -0.1092 -5.2182 -0.0001 17.5629 -0.0003
# 6 -0.0001 0.0000 -0.0003 1.1701 -0.0003 14.7138
#
#
#
# Elastic Compliance Matrix: (Units=1/GPa)
#
#
# Indices 1 2 3 4 5 6 
#
# 1 0.016012 -0.007839 -0.004601 0.000000 0.006505 0.000000
# 2 -0.007839 0.030543 -0.012616 0.000000 -0.007437 0.000000
# 3 -0.004601 -0.012616 0.019542 0.000000 0.003451 0.000000
# 4 0.000000 0.000000 0.000000 0.037148 0.000000 -0.002954
# 5 0.006505 -0.007437 0.003451 0.000000 0.061136 0.000001
# 6 0.000000 0.000000 0.000000 -0.002954 0.000001 0.068198
#
#
# Mechanical properties :
#
#
# Convention : Reuss Voigt Hill
#
# Bulk Modulus (GPa) = 62.56159 67.49124 65.02642
# Shear Modulus (GPa) = 17.35981 19.41398 18.38690
#
# Velocity S-wave (km/s) = 3.39233 3.58743 3.49124
# Velocity P-wave (km/s) = 7.53766 7.86764 7.70442
#
# Compressibility (1/GPa) = 0.01598425
#
# Stress axis : x y z
#
# Youngs Moduli (GPa) = 62.45219 32.74020 51.17143
#
# Poissons Ratio (x) = 0.25666 0.23546
# Poissons Ratio (y) = 0.48958 0.64559
# Poissons Ratio (z) = 0.28736 0.41306
#
# Static dielectric constant tensor:
#      x y z
#    x 1.488890 0.000000 0.004240 
#    y 0.000000 1.482680 0.000000 
#    z 0.004240 0.000000 1.494950 
# 
# From -- ./inp_files/55232.got.cif
#   From: 2010.05.17/outbox.cif.g08.bks.cpg/sg15_28_cif.got.tgz:55232.got - 2010.06.03 18:47:42.
