data_PCOD9257537
_publ_section_title
;
Structure prediction by ZEFSAII (Michael W. Deem and Ramdas Pophale) SiO2 
 PCOD9257537
Probable space group: C 2/C
;
_chemical_formula_sum "Si O2"
_cell_formula_units_Z 44
_cell_length_a 18.368381
_cell_length_b 8.574514
_cell_length_c 21.707648
_cell_angle_alpha 90.000000
_cell_angle_beta 29.746255
_cell_angle_gamma 90.000000
_cell_volume 1696.347011
_symmetry_space_group_name_H-M "C 2/C"
_symmetry_group_IT_number 15
_symmetry_cell_setting 'monoclinic'
loop_
_space_group_symop_operation_xyz
x,y,z
-x,y,1/2-z
-x,-y,-z
x,-y,1/2+z
1/2+x,1/2+y,z
1/2-x,1/2+y,1/2-z
1/2-x,1/2-y,-z
1/2+x,1/2-y,1/2+z
loop_
_atom_site_type_symbol
_atom_site_label
_atom_site_fract_x
_atom_site_fract_y
_atom_site_fract_z
Si Si1 0.054170 0.635731 0.503257
Si Si2 0.730577 0.575363 0.428986
Si Si3 0.809733 0.411724 0.000521
Si Si4 0.937843 0.115854 0.165586
Si Si5 0.000000 0.960165 0.750000
Si Si6 0.165096 0.065511 0.860631
O O1 0.131195 0.554006 0.504072
O O2 0.151789 0.755494 0.391342
O O3 0.000000 0.500000 0.500000
O O4 0.926105 0.734623 0.630502
O O5 0.843743 0.574447 0.402875
O O6 0.657359 0.747047 0.490585
O O7 0.607252 0.444319 0.533360
O O8 0.771431 0.532376 0.328560
O O9 0.633284 0.429302 0.132508
O O10 0.936540 0.137753 0.239500
O O11 0.835015 0.982046 0.211188
O O12 0.000000 0.000000 0.000000
#
# Coordination Sequence:
#
# PCOD9257537 Si02
#       6
#     8   8   8   8   4   8
#     4  10  18  31  58  82 100 139 190 225 251 310
#     4   8  16  30  53  76  98 135 181 222 248 301
#     4  10  18  32  54  78 105 137 179 216 262 319
#     4   9  18  34  54  76 109 140 176 223 272 315
#     4  10  22  34  50  78 114 144 162 216 288 328
#     4   8  15  29  50  76 102 130 173 223 259 296
#
# _framework density 25.938088
#
# number of rings (size 3 to 8) (size 9 to 14) (size 15 to 20)
#    0.000    3.273    0.000    3.273    0.000    6.545 
#    0.000    3.636    0.000   37.091    0.000    0.000 
#    0.000    0.000    0.000    0.000    0.000    0.000 
#
# Total GULP energy -122764.765698 kJ/mol
# GULP energy per Si atom -5580.216623 kJ/mol
# Density = 2.587905 g / cm^3
# Si number density = 25.938088 Si / 1000 Ang^3
#
#
#
# Elastic Constant Matrix: (Units=GPa)
#
#
# Indices 1 2 3 4 5 6 
#
# 1 185.8428 79.7769 17.8606 0.0000 54.4531 0.0000
# 2 79.7769 149.9636 11.7495 0.0004 21.0851 -0.0002
# 3 17.8606 11.7495 65.6494 0.0007 7.1884 -0.0003
# 4 0.0000 0.0004 0.0007 16.6485 -0.0002 8.6339
# 5 54.4531 21.0851 7.1884 -0.0002 38.4009 0.0001
# 6 0.0000 -0.0002 -0.0003 8.6339 0.0001 59.7358
#
#
#
# Elastic Compliance Matrix: (Units=1/GPa)
#
#
# Indices 1 2 3 4 5 6 
#
# 1 0.011077 -0.003945 -0.000842 0.000000 -0.013383 0.000000
# 2 -0.003945 0.008681 -0.000583 0.000000 0.000936 0.000000
# 3 -0.000842 -0.000583 0.015722 -0.000001 -0.001429 0.000000
# 4 0.000000 0.000000 -0.000001 0.064932 0.000001 -0.009385
# 5 -0.013383 0.000936 -0.001429 0.000001 0.044772 0.000000
# 6 0.000000 0.000000 0.000000 -0.009385 0.000000 0.018097
#
#
# Mechanical properties :
#
#
# Convention : Reuss Voigt Hill
#
# Bulk Modulus (GPa) = 40.42028 68.91443 54.66736
# Shear Modulus (GPa) = 27.43225 42.42827 34.93026
#
# Velocity S-wave (km/s) = 3.25561 4.04883 3.67369
# Velocity P-wave (km/s) = 5.45428 6.96304 6.25432
#
# Compressibility (1/GPa) = 0.02474005
#
# Stress axis : x y z
#
# Youngs Moduli (GPa) = 90.28093 115.19647 63.60378
#
# Poissons Ratio (x) = 0.45443 0.05356
# Poissons Ratio (y) = 0.35614 0.03708
# Poissons Ratio (z) = 0.07602 0.06715
#
# Static dielectric constant tensor:
#      x y z
#    x 2.103600 0.000000 0.060750 
#    y 0.000000 2.102750 0.000000 
#    z 0.060750 0.000000 2.301980 
# 
# From -- ./inp_files/276000.got.cif
#   From: 2010.05.17/outbox.cif.g08.bks.cpg/sg15_138_cif.got.tgz:276000.got - 2010.06.03 18:47:42.
