data_PCOD9257110
_publ_section_title
;
Structure prediction by ZEFSAII (Michael W. Deem and Ramdas Pophale) SiO2 
 PCOD9257110
Probable space group: C 2/C
;
_chemical_formula_sum "Si O2"
_cell_formula_units_Z 60
_cell_length_a 24.965349
_cell_length_b 10.892647
_cell_length_c 26.150645
_cell_angle_alpha 90.000000
_cell_angle_beta 161.175797
_cell_angle_gamma 90.000000
_cell_volume 2294.595188
_symmetry_space_group_name_H-M "C 2/C"
_symmetry_group_IT_number 15
_symmetry_cell_setting 'monoclinic'
loop_
_space_group_symop_operation_xyz
x,y,z
-x,y,1/2-z
-x,-y,-z
x,-y,1/2+z
1/2+x,1/2+y,z
1/2-x,1/2+y,1/2-z
1/2-x,1/2-y,-z
1/2+x,1/2-y,1/2+z
loop_
_atom_site_type_symbol
_atom_site_label
_atom_site_fract_x
_atom_site_fract_y
_atom_site_fract_z
Si Si1 0.886590 0.040270 0.579720
Si Si2 0.154013 0.056350 0.255377
Si Si3 0.483168 0.897136 0.634475
Si Si4 0.689636 0.716663 0.084732
Si Si5 0.398859 0.133136 0.704322
Si Si6 0.646774 0.731175 0.558074
Si Si7 0.000000 0.765955 0.250000
Si Si8 0.588900 0.384526 0.105920
O O1 0.738579 0.946351 0.449812
O O2 0.063018 0.977123 0.727005
O O3 0.868945 0.135508 0.609914
O O4 0.864584 0.116650 0.507362
O O5 0.332707 0.122514 0.418541
O O6 0.167512 0.941296 0.228285
O O7 0.015993 0.154529 0.106805
O O8 0.326962 0.843024 0.462354
O O9 0.521124 0.819372 0.720555
O O10 0.498154 0.036069 0.667470
O O11 0.638201 0.843214 0.741586
O O12 0.557638 0.708158 0.010532
O O13 0.500000 0.196311 0.750000
O O14 0.287538 0.208004 0.642675
O O15 0.694812 0.675441 0.656780
O O16 0.500000 0.500000 0.000000
#
# Coordination Sequence:
#
# PCOD9257110 Si02
#       8
#     8   8   8   8   8   8   4   8
#     4   8  18  34  51  72 108 145 177 212 275 326
#     4   9  19  40  57  79 109 141 179 227 263 322
#     4  10  19  31  52  80 114 141 175 224 270 323
#     4   9  19  31  50  82 109 138 179 214 272 328
#     4  10  20  35  51  77 111 144 178 223 268 323
#     4  10  21  38  60  80 106 146 185 216 272 323
#     4  10  18  30  54  80 104 148 182 218 274 316
#     4   9  18  36  61  78 107 147 175 217 275 332
#
# _framework density 26.148402000000001
#
# number of rings (size 3 to 8) (size 9 to 14) (size 15 to 20)
#    0.000    2.667    0.667    2.400    1.867    4.800 
#    3.600    3.333    0.000    0.000    0.000    0.000 
#    0.000    0.000    0.000    0.000    0.000    0.000 
#
# Total GULP energy -167410.109010 kJ/mol
# GULP energy per Si atom -5580.336967 kJ/mol
# Density = 2.608889 g / cm^3
# Si number density = 26.148402 Si / 1000 Ang^3
#
#
#
# Elastic Constant Matrix: (Units=GPa)
#
#
# Indices 1 2 3 4 5 6 
#
# 1 116.7390 9.7212 36.1063 -0.0053 8.1797 -0.0031
# 2 9.7212 30.0261 17.5302 -0.0128 4.9136 -0.0061
# 3 36.1063 17.5302 57.8296 -0.0081 -5.4870 -0.0006
# 4 -0.0053 -0.0128 -0.0081 47.4949 -0.0013 3.1184
# 5 8.1797 4.9136 -5.4870 -0.0013 31.3154 0.0005
# 6 -0.0031 -0.0061 -0.0006 3.1184 0.0005 38.3525
#
#
#
# Elastic Compliance Matrix: (Units=1/GPa)
#
#
# Indices 1 2 3 4 5 6 
#
# 1 0.011207 0.001780 -0.007973 0.000000 -0.004604 0.000001
# 2 0.001780 0.043187 -0.015142 0.000009 -0.009895 0.000006
# 3 -0.007973 -0.015142 0.027745 0.000000 0.009320 -0.000003
# 4 0.000000 0.000009 0.000000 0.021168 0.000000 -0.001721
# 5 -0.004604 -0.009895 0.009320 0.000000 0.036321 -0.000002
# 6 0.000001 0.000006 -0.000003 -0.001721 -0.000002 0.026214
#
#
# Mechanical properties :
#
#
# Convention : Reuss Voigt Hill
#
# Bulk Modulus (GPa) = 25.33656 36.81223 31.07439
# Shear Modulus (GPa) = 22.55628 32.84837 27.70233
#
# Velocity S-wave (km/s) = 2.94024 3.54818 3.25842
# Velocity P-wave (km/s) = 4.60838 5.55831 5.10549
#
# Compressibility (1/GPa) = 0.03946866
#
# Stress axis : x y z
#
# Youngs Moduli (GPa) = 89.23383 23.15487 36.04293
#
# Poissons Ratio (x) = -0.04122 0.28738
# Poissons Ratio (y) = -0.15886 0.54576
# Poissons Ratio (z) = 0.71149 0.35061
#
# Static dielectric constant tensor:
#      x y z
#    x 2.047170 0.000000 -0.008590 
#    y 0.000000 2.090580 -0.000010 
#    z -0.008590 -0.000010 2.287250 
# 
# From -- ./inp_files/319560.got.cif
#   From: 2010.05.17/outbox.cif.g08.bks.cpg/sg15_160_cif.got.tgz:319560.got - 2010.06.03 18:47:42.
