data_PCOD9257592
_publ_section_title
;
Structure prediction by ZEFSAII (Michael W. Deem and Ramdas Pophale) SiO2 
 PCOD9257592
Probable space group: C 2/C
;
_chemical_formula_sum "Si O2"
_cell_formula_units_Z 52
_cell_length_a 19.003393
_cell_length_b 17.969737
_cell_length_c 18.067938
_cell_angle_alpha 90.000000
_cell_angle_beta 27.092361
_cell_angle_gamma 90.000000
_cell_volume 2809.955796
_symmetry_space_group_name_H-M "C 2/C"
_symmetry_group_IT_number 15
_symmetry_cell_setting 'monoclinic'
loop_
_space_group_symop_operation_xyz
x,y,z
-x,y,1/2-z
-x,-y,-z
x,-y,1/2+z
1/2+x,1/2+y,z
1/2-x,1/2+y,1/2-z
1/2-x,1/2-y,-z
1/2+x,1/2-y,1/2+z
loop_
_atom_site_type_symbol
_atom_site_label
_atom_site_fract_x
_atom_site_fract_y
_atom_site_fract_z
Si Si1 0.500000 0.044706 0.250000
Si Si2 0.993653 0.393210 0.989928
Si Si3 0.587078 0.754417 0.522741
Si Si4 0.645450 0.973608 0.967414
Si Si5 0.962133 0.011135 0.701231
Si Si6 0.138685 0.822162 0.178518
Si Si7 0.753786 0.094067 0.125538
O O1 0.633970 0.089293 0.168723
O O2 0.416729 0.997185 0.393216
O O3 0.041182 0.408880 0.029348
O O4 0.148067 0.408967 0.796731
O O5 0.925729 0.312729 0.032294
O O6 0.881071 0.456731 0.063570
O O7 0.683840 0.798936 0.495488
O O8 0.412857 0.734548 0.709025
O O9 0.655726 0.671671 0.454315
O O10 0.828416 0.957927 0.796387
O O11 0.876512 0.091538 0.788242
O O12 0.000000 0.989544 0.750000
O O13 0.117671 0.029896 0.509874
O O14 0.000000 0.812131 0.250000
#
# Coordination Sequence:
#
# PCOD9257592 Si02
#       7
#     4   8   8   8   8   8   8
#     4  10  20  36  54  80 104 144 178 212 260 314
#     4  10  21  35  48  75 105 150 172 212 264 315
#     4  11  19  32  45  71 107 140 178 208 254 315
#     4  10  20  35  54  70 109 137 182 217 256 320
#     4  10  18  32  48  75 101 135 171 222 256 298
#     4  10  20  26  44  69 103 139 174 208 252 297
#     4  10  21  31  53  77 108 139 176 216 259 311
#
# _framework density 18.505628999999999
#
# number of rings (size 3 to 8) (size 9 to 14) (size 15 to 20)
#    0.000    1.846    4.615    0.462    1.077    0.615 
#    0.000    0.000    0.000    0.000    0.000    1.077 
#    0.000    0.000    0.000    0.000    0.000    0.000 
#
# Total GULP energy -144737.383307 kJ/mol
# GULP energy per Si atom -5566.822435 kJ/mol
# Density = 1.846351 g / cm^3
# Si number density = 18.505629 Si / 1000 Ang^3
#
#
#
# Elastic Constant Matrix: (Units=GPa)
#
#
# Indices 1 2 3 4 5 6 
#
# 1 89.4950 36.6812 26.3306 0.0024 -14.5433 0.0000
# 2 36.6812 41.2676 1.9403 0.0020 -3.1088 -0.0022
# 3 26.3306 1.9403 69.0444 0.0020 -13.9913 -0.0009
# 4 0.0024 0.0020 0.0020 12.0348 -0.0016 -3.9293
# 5 -14.5433 -3.1088 -13.9913 -0.0016 27.4683 0.0009
# 6 0.0000 -0.0022 -0.0009 -3.9293 0.0009 28.2950
#
#
#
# Elastic Compliance Matrix: (Units=1/GPa)
#
#
# Indices 1 2 3 4 5 6 
#
# 1 0.021646 -0.018479 -0.006509 0.000000 0.006054 -0.000002
# 2 -0.018479 0.040216 0.005416 -0.000003 -0.002474 0.000003
# 3 -0.006509 0.005416 0.018108 -0.000002 0.006391 0.000001
# 4 0.000000 -0.000003 -0.000002 0.087039 0.000003 0.012087
# 5 0.006054 -0.002474 0.006391 0.000003 0.042586 -0.000001
# 6 -0.000002 0.000003 0.000001 0.012087 -0.000001 0.037020
#
#
# Mechanical properties :
#
#
# Convention : Reuss Voigt Hill
#
# Bulk Modulus (GPa) = 24.49359 36.63457 30.56408
# Shear Modulus (GPa) = 16.70179 22.54993 19.62586
#
# Velocity S-wave (km/s) = 3.00746 3.49455 3.26012
# Velocity P-wave (km/s) = 5.03232 6.01015 5.54284
#
# Compressibility (1/GPa) = 0.04082702
#
# Stress axis : x y z
#
# Youngs Moduli (GPa) = 46.19708 24.86573 55.22274
#
# Poissons Ratio (x) = 0.45948 0.35944
# Poissons Ratio (y) = 0.85365 -0.29906
# Poissons Ratio (z) = 0.30069 -0.13466
#
# Static dielectric constant tensor:
#      x y z
#    x 1.683140 0.000000 0.001680 
#    y 0.000000 1.651670 0.000000 
#    z 0.001680 0.000000 1.737680 
# 
# From -- ./inp_files/48536.got.cif
#   From: 2010.05.17/outbox.cif.g08.bks.cpg/sg15_25_cif.got.tgz:48536.got - 2010.06.03 18:47:42.
