data_PCOD9257967
_publ_section_title
;
Structure prediction by ZEFSAII (Michael W. Deem and Ramdas Pophale) SiO2 
 PCOD9257967
Probable space group: C 2/C
;
_chemical_formula_sum "Si O2"
_cell_formula_units_Z 60
_cell_length_a 28.432199
_cell_length_b 22.258891
_cell_length_c 15.193427
_cell_angle_alpha 90.000000
_cell_angle_beta 19.603348
_cell_angle_gamma 90.000000
_cell_volume 3226.047862
_symmetry_space_group_name_H-M "C 2/C"
_symmetry_group_IT_number 15
_symmetry_cell_setting 'monoclinic'
loop_
_space_group_symop_operation_xyz
x,y,z
-x,y,1/2-z
-x,-y,-z
x,-y,1/2+z
1/2+x,1/2+y,z
1/2-x,1/2+y,1/2-z
1/2-x,1/2-y,-z
1/2+x,1/2-y,1/2+z
loop_
_atom_site_type_symbol
_atom_site_label
_atom_site_fract_x
_atom_site_fract_y
_atom_site_fract_z
Si Si1 0.203968 0.983071 0.335293
Si Si2 0.964736 0.593291 0.125184
Si Si3 0.166465 0.300425 0.261817
Si Si4 0.500000 0.951812 0.750000
Si Si5 0.288149 0.995864 0.372107
Si Si6 0.371541 0.655857 0.545194
Si Si7 0.889422 0.048316 0.160534
Si Si8 0.080439 0.180069 0.323063
O O1 0.162220 0.914917 0.382776
O O2 0.180946 0.989700 0.480161
O O3 0.132527 0.032979 0.402003
O O4 0.369069 0.988546 0.019013
O O5 0.945779 0.587025 0.263335
O O6 0.831709 0.564914 0.310768
O O7 0.031403 0.657147 0.987874
O O8 0.085929 0.546300 0.883156
O O9 0.239592 0.313327 0.227869
O O10 0.116654 0.233615 0.326153
O O11 0.287831 0.319251 0.977785
O O12 0.243040 0.968806 0.544757
O O13 0.437795 0.684992 0.516363
O O14 0.500000 0.658509 0.250000
O O15 0.926717 0.116225 0.116314
O O16 0.000000 0.000000 0.000000
#
# Coordination Sequence:
#
# PCOD9257967 Si02
#       8
#     8   8   8   4   8   8   8   8
#     4  11  21  33  57  85 112 152 185 239 281 343
#     4  10  18  33  57  81 113 142 184 243 275 335
#     4  10  19  36  60  76 114 152 183 237 282 341
#     4  10  18  32  56  86 102 144 200 220 282 338
#     4  10  20  34  53  85 116 143 187 233 291 327
#     4  10  18  35  57  81 106 145 193 227 281 341
#     4  12  22  35  58  85 120 148 188 242 281 346
#     4  10  21  35  54  85 112 146 191 229 290 336
#
# _framework density 18.598607999999999
#
# number of rings (size 3 to 8) (size 9 to 14) (size 15 to 20)
#    0.000    1.600    6.667    0.800    0.000    0.000 
#    2.400    0.000    1.467    4.800    0.000    0.000 
#    0.000    0.000    0.000    0.000    0.000    0.000 
#
# Total GULP energy -167105.371961 kJ/mol
# GULP energy per Si atom -5570.179065 kJ/mol
# Density = 1.855628 g / cm^3
# Si number density = 18.598608 Si / 1000 Ang^3
#
#
#
# Elastic Constant Matrix: (Units=GPa)
#
#
# Indices 1 2 3 4 5 6 
#
# 1 87.7672 53.9292 -4.2540 0.0004 -2.4328 0.0002
# 2 53.9292 127.8952 6.0902 0.0014 -12.2229 -0.0006
# 3 -4.2540 6.0902 19.3585 0.0013 2.6195 -0.0006
# 4 0.0004 0.0014 0.0013 23.5734 -0.0008 -3.8904
# 5 -2.4328 -12.2229 2.6195 -0.0008 20.0989 0.0002
# 6 0.0002 -0.0006 -0.0006 -3.8904 0.0002 22.9647
#
#
#
# Elastic Compliance Matrix: (Units=1/GPa)
#
#
# Indices 1 2 3 4 5 6 
#
# 1 0.016188 -0.007454 0.006363 0.000000 -0.003403 0.000000
# 2 -0.007454 0.011953 -0.006373 0.000000 0.007198 0.000000
# 3 0.006363 -0.006373 0.056476 -0.000003 -0.010466 0.000001
# 4 0.000000 0.000000 -0.000003 0.043641 0.000002 0.007393
# 5 -0.003403 0.007198 -0.010466 0.000002 0.055083 0.000000
# 6 0.000000 0.000000 0.000001 0.007393 0.000000 0.044798
#
#
# Mechanical properties :
#
#
# Convention : Reuss Voigt Hill
#
# Bulk Modulus (GPa) = 14.34928 38.50574 26.42751
# Shear Modulus (GPa) = 18.77603 25.27777 22.02690
#
# Velocity S-wave (km/s) = 3.18077 3.69063 3.44514
# Velocity P-wave (km/s) = 4.60671 6.23775 5.48321
#
# Compressibility (1/GPa) = 0.06968991
#
# Stress axis : x y z
#
# Youngs Moduli (GPa) = 61.77343 83.65792 17.70663
#
# Poissons Ratio (x) = 0.62361 -0.11267
# Poissons Ratio (y) = 0.46047 0.11284
# Poissons Ratio (z) = -0.39306 0.53311
#
# Static dielectric constant tensor:
#      x y z
#    x 1.723510 0.000000 0.001040 
#    y 0.000000 1.607370 0.000000 
#    z 0.001040 0.000000 1.795500 
# 
# From -- ./inp_files/183068.got.cif
#   From: 2010.05.17/outbox.cif.g08.bks.cpg/sg15_92_cif.got.tgz:183068.got - 2010.06.03 18:47:42.
