data_PCOD9257915
_publ_section_title
;
Structure prediction by ZEFSAII (Michael W. Deem and Ramdas Pophale) SiO2 
 PCOD9257915
Probable space group: C 2/C
;
_chemical_formula_sum "Si O2"
_cell_formula_units_Z 48
_cell_length_a 15.019048
_cell_length_b 20.770461
_cell_length_c 12.799093
_cell_angle_alpha 90.000000
_cell_angle_beta 149.014509
_cell_angle_gamma 90.000000
_cell_volume 2055.530797
_symmetry_space_group_name_H-M "C 2/C"
_symmetry_group_IT_number 15
_symmetry_cell_setting 'monoclinic'
loop_
_space_group_symop_operation_xyz
x,y,z
-x,y,1/2-z
-x,-y,-z
x,-y,1/2+z
1/2+x,1/2+y,z
1/2-x,1/2+y,1/2-z
1/2-x,1/2-y,-z
1/2+x,1/2-y,1/2+z
loop_
_atom_site_type_symbol
_atom_site_label
_atom_site_fract_x
_atom_site_fract_y
_atom_site_fract_z
Si Si1 0.650740 0.813350 0.671142
Si Si2 0.795150 0.174453 0.542438
Si Si3 0.752779 0.664192 0.773124
Si Si4 0.291613 0.935182 0.856772
Si Si5 0.903527 0.510897 0.245920
Si Si6 0.434597 0.431808 0.576055
O O1 0.675961 0.736771 0.692165
O O2 0.452597 0.828002 0.447628
O O3 0.748221 0.858855 0.687172
O O4 0.712958 0.839704 0.847348
O O5 0.750000 0.250000 0.500000
O O6 0.743814 0.143925 0.601340
O O7 0.000000 0.166339 0.750000
O O8 0.654907 0.615267 0.598589
O O9 0.105145 0.964579 0.696697
O O10 0.367995 0.955769 0.821308
O O11 0.447746 0.956622 0.087528
O O12 0.000000 0.549655 0.250000
O O13 0.714218 0.481302 0.036001
O O14 0.500000 0.399776 0.750000
#
# Coordination Sequence:
#
# PCOD9257915 Si02
#       6
#     8   8   8   8   8   8
#     4  11  21  40  63  98 137 179 225 290 342 425
#     4  10  18  32  55  87 127 172 215 272 342 404
#     4  11  22  38  63  96 139 183 229 279 354 414
#     4  11  24  44  71  97 139 177 232 291 353 408
#     4  11  24  47  71 101 133 181 231 295 353 411
#     4  12  24  45  71 101 142 190 233 293 344 414
#
# _framework density 23.351633
#
# number of rings (size 3 to 8) (size 9 to 14) (size 15 to 20)
#    0.000    1.000    3.333    7.000    0.000    1.333 
#    0.000    5.000    0.000    0.000    0.000    0.000 
#    0.000    0.000    0.000    0.000    0.000    0.000 
#
# Total GULP energy -133894.836779 kJ/mol
# GULP energy per Si atom -5578.951532 kJ/mol
# Density = 2.329848 g / cm^3
# Si number density = 23.351633 Si / 1000 Ang^3
#
#
#
# Elastic Constant Matrix: (Units=GPa)
#
#
# Indices 1 2 3 4 5 6 
#
# 1 126.9697 14.8628 37.5989 0.0000 17.8142 0.0000
# 2 14.8628 42.8662 32.9450 0.0000 -6.5938 0.0000
# 3 37.5989 32.9450 142.8555 0.0000 2.2140 0.0000
# 4 0.0000 0.0000 0.0000 38.9473 0.0000 -0.7231
# 5 17.8142 -6.5938 2.2140 0.0000 53.5168 0.0000
# 6 0.0000 0.0000 0.0000 -0.7231 0.0000 21.0604
#
#
#
# Elastic Compliance Matrix: (Units=1/GPa)
#
#
# Indices 1 2 3 4 5 6 
#
# 1 0.009139 -0.002258 -0.001834 0.000000 -0.003244 0.000000
# 2 -0.002258 0.029691 -0.006325 0.000000 0.004672 0.000000
# 3 -0.001834 -0.006325 0.008950 0.000000 -0.000539 0.000000
# 4 0.000000 0.000000 0.000000 0.025692 0.000000 0.000882
# 5 -0.003244 0.004672 -0.000539 0.000000 0.020364 0.000000
# 6 0.000000 0.000000 0.000000 0.000882 0.000000 0.047513
#
#
# Mechanical properties :
#
#
# Convention : Reuss Voigt Hill
#
# Bulk Modulus (GPa) = 37.11319 53.72276 45.41798
# Shear Modulus (GPa) = 29.21158 37.85720 33.53439
#
# Velocity S-wave (km/s) = 3.54071 4.03076 3.79365
# Velocity P-wave (km/s) = 5.71342 6.68720 6.21940
#
# Compressibility (1/GPa) = 0.02694460
#
# Stress axis : x y z
#
# Youngs Moduli (GPa) = 109.42661 33.67989 111.73227
#
# Poissons Ratio (x) = 0.07605 0.20494
# Poissons Ratio (y) = 0.24707 0.70676
# Poissons Ratio (z) = 0.20071 0.21304
#
# Static dielectric constant tensor:
#      x y z
#    x 1.991130 0.000000 0.007990 
#    y 0.000000 1.993010 0.000000 
#    z 0.007990 0.000000 1.887380 
# 
# From -- ./inp_files/101402.got.cif
#   From: 2010.05.17/outbox.cif.g08.bks.cpg/sg15_51_cif.got.tgz:101402.got - 2010.06.03 18:47:42.
