data_PCOD9257393
_publ_section_title
;
Structure prediction by ZEFSAII (Michael W. Deem and Ramdas Pophale) SiO2 
 PCOD9257393
Probable space group: C 2/C
;
_chemical_formula_sum "Si O2"
_cell_formula_units_Z 56
_cell_length_a 11.240240
_cell_length_b 29.975788
_cell_length_c 9.698266
_cell_angle_alpha 90.000000
_cell_angle_beta 62.486815
_cell_angle_gamma 90.000000
_cell_volume 2898.125366
_symmetry_space_group_name_H-M "C 2/C"
_symmetry_group_IT_number 15
_symmetry_cell_setting 'monoclinic'
loop_
_space_group_symop_operation_xyz
x,y,z
-x,y,1/2-z
-x,-y,-z
x,-y,1/2+z
1/2+x,1/2+y,z
1/2-x,1/2+y,1/2-z
1/2-x,1/2-y,-z
1/2+x,1/2-y,1/2+z
loop_
_atom_site_type_symbol
_atom_site_label
_atom_site_fract_x
_atom_site_fract_y
_atom_site_fract_z
Si Si1 0.427911 0.133152 0.022601
Si Si2 0.864842 0.032698 0.401786
Si Si3 0.055054 0.273380 0.374518
Si Si4 0.000000 0.434609 0.250000
Si Si5 0.707126 0.991532 0.720360
Si Si6 0.139622 0.861945 0.602363
Si Si7 0.000000 0.581556 0.250000
Si Si8 0.318575 0.723058 0.591958
O O1 0.270245 0.143282 0.130297
O O2 0.496832 0.111798 0.117351
O O3 0.507201 0.176776 0.933660
O O4 0.431629 0.097333 0.897584
O O5 0.749055 0.022300 0.351207
O O6 0.872817 0.085714 0.427164
O O7 0.000000 0.019777 0.250000
O O8 0.830801 0.005757 0.557583
O O9 0.215324 0.270347 0.273035
O O10 0.000000 0.263203 0.250000
O O11 0.968999 0.242121 0.522037
O O12 0.106125 0.466581 0.269079
O O13 0.628359 0.950634 0.693128
O O14 0.170975 0.828458 0.460184
O O15 0.000000 0.848733 0.750000
O O16 0.250000 0.750000 0.500000
#
# Coordination Sequence:
#
# PCOD9257393 Si02
#       8
#     8   8   8   4   8   8   4   8
#     4  12  20  37  55  85 115 150 190 232 290 341
#     4  11  23  37  56  79 115 149 192 233 288 339
#     4  10  19  31  57  86 116 138 185 242 289 335
#     4  11  20  34  60  78 112 144 196 242 276 329
#     4  11  21  38  55  82 108 152 192 240 281 334
#     4  11  20  33  53  80 114 147 186 236 284 339
#     4  11  24  36  56  80 118 152 190 236 286 341
#     4  10  18  31  52  90 112 139 179 240 291 330
#
# _framework density 19.322835000000001
#
# number of rings (size 3 to 8) (size 9 to 14) (size 15 to 20)
#    0.000    1.143    6.429    2.571    0.000    2.286 
#    0.000    0.000    0.000    0.857    0.000    0.000 
#    0.000    0.000    0.000    0.000    0.000    0.000 
#
# Total GULP energy -156257.478375 kJ/mol
# GULP energy per Si atom -5580.624228 kJ/mol
# Density = 1.927886 g / cm^3
# Si number density = 19.322835 Si / 1000 Ang^3
#
#
#
# Elastic Constant Matrix: (Units=GPa)
#
#
# Indices 1 2 3 4 5 6 
#
# 1 52.3468 24.8614 30.7355 0.0000 -11.2519 0.0000
# 2 24.8614 79.0881 29.6556 0.0000 -7.8281 0.0000
# 3 30.7355 29.6556 73.0004 0.0000 -26.9807 0.0000
# 4 0.0000 0.0000 0.0000 25.2529 0.0000 -5.6946
# 5 -11.2519 -7.8281 -26.9807 0.0000 33.2936 0.0000
# 6 0.0000 0.0000 0.0000 -5.6946 0.0000 3.3821
#
#
#
# Elastic Compliance Matrix: (Units=1/GPa)
#
#
# Indices 1 2 3 4 5 6 
#
# 1 0.026945 -0.005000 -0.009112 0.000000 0.000547 0.000000
# 2 -0.005000 0.015938 -0.005152 0.000000 -0.002118 0.000000
# 3 -0.009112 -0.005152 0.025757 0.000000 0.016582 0.000000
# 4 0.000000 0.000000 0.000000 0.063838 0.000000 0.107487
# 5 0.000547 -0.002118 0.016582 0.000000 0.043161 0.000000
# 6 0.000000 0.000000 0.000000 0.107487 0.000000 0.476655
#
#
# Mechanical properties :
#
#
# Convention : Reuss Voigt Hill
#
# Bulk Modulus (GPa) = 33.20844 41.66005 37.43424
# Shear Modulus (GPa) = 7.13411 20.33122 13.73266
#
# Velocity S-wave (km/s) = 1.92356 3.24726 2.66878
# Velocity P-wave (km/s) = 4.70711 5.97214 5.37695
#
# Compressibility (1/GPa) = 0.03011283
#
# Stress axis : x y z
#
# Youngs Moduli (GPa) = 37.11216 62.74259 38.82496
#
# Poissons Ratio (x) = 0.31369 0.35376
# Poissons Ratio (y) = 0.18554 0.20004
# Poissons Ratio (z) = 0.33815 0.32327
#
# Static dielectric constant tensor:
#      x y z
#    x 1.705860 0.000000 -0.071160 
#    y 0.000000 1.681680 0.000000 
#    z -0.071160 0.000000 1.678560 
# 
# From -- ./inp_files/35628.got.cif
#   From: 2010.05.17/outbox.cif.g08.bks.cpg/sg15_18_cif.got.tgz:35628.got - 2010.06.03 18:47:42.
