data_PCOD9257269
_publ_section_title
;
Structure prediction by ZEFSAII (Michael W. Deem and Ramdas Pophale) SiO2 
 PCOD9257269
Probable space group: C 2/C
;
_chemical_formula_sum "Si O2"
_cell_formula_units_Z 64
_cell_length_a 18.187374
_cell_length_b 29.684395
_cell_length_c 5.458439
_cell_angle_alpha 90.000000
_cell_angle_beta 111.746365
_cell_angle_gamma 90.000000
_cell_volume 2737.186099
_symmetry_space_group_name_H-M "C 2/C"
_symmetry_group_IT_number 15
_symmetry_cell_setting 'monoclinic'
loop_
_space_group_symop_operation_xyz
x,y,z
-x,y,1/2-z
-x,-y,-z
x,-y,1/2+z
1/2+x,1/2+y,z
1/2-x,1/2+y,1/2-z
1/2-x,1/2-y,-z
1/2+x,1/2-y,1/2+z
loop_
_atom_site_type_symbol
_atom_site_label
_atom_site_fract_x
_atom_site_fract_y
_atom_site_fract_z
Si Si1 0.742770 0.373253 0.406256
Si Si2 0.383709 0.059433 0.013673
Si Si3 0.093378 0.752117 0.807037
Si Si4 0.456752 0.569963 0.438053
Si Si5 0.112793 0.550738 0.985204
Si Si6 0.170287 0.280909 0.905819
Si Si7 0.145989 0.853891 0.793591
Si Si8 0.215836 0.972202 0.801977
O O1 0.797440 0.417451 0.433061
O O2 0.802226 0.331189 0.493417
O O3 0.694176 0.365211 0.601039
O O4 0.685759 0.371972 0.096004
O O5 0.418402 0.071736 0.798301
O O6 0.387994 0.004218 0.015600
O O7 0.423628 0.070215 0.316918
O O8 0.113009 0.732386 0.561430
O O9 0.133064 0.801529 0.833065
O O10 0.000000 0.755341 0.750000
O O11 0.132384 0.725937 0.088268
O O12 0.500000 0.551355 0.250000
O O13 0.437875 0.622299 0.364684
O O14 0.369693 0.549173 0.328372
O O15 0.500000 0.563028 0.750000
O O16 0.207022 0.559146 0.099850
O O17 0.250000 0.250000 0.000000
O O18 0.221619 0.002204 0.565933
#
# Coordination Sequence:
#
# PCOD9257269 Si02
#       8
#     8   8   8   8   8   8   8   8
#     4  12  23  36  65  91 116 153 198 258 306 366
#     4  10  18  31  49  80 107 144 186 234 305 358
#     4  12  25  44  67  93 128 168 207 249 317 381
#     4  12  27  41  51  72 104 142 198 265 306 354
#     4  10  18  32  51  73 105 139 185 239 293 375
#     4  12  23  44  66  97 127 163 206 263 312 369
#     4  12  24  39  62  83 111 154 202 254 317 359
#     4  12  21  34  53  64  89 135 185 245 305 358
#
# _framework density 23.381675999999999
#
# number of rings (size 3 to 8) (size 9 to 14) (size 15 to 20)
#    0.000    0.500    5.000    5.625    0.000    2.500 
#    0.000    0.000    0.000    0.000    0.000    0.000 
#    0.000    0.000    0.000   45.000    0.000    0.000 
#
# Total GULP energy -178595.881924 kJ/mol
# GULP energy per Si atom -5581.121310 kJ/mol
# Density = 2.332846 g / cm^3
# Si number density = 23.381676 Si / 1000 Ang^3
#
#
#
# Elastic Constant Matrix: (Units=GPa)
#
#
# Indices 1 2 3 4 5 6 
#
# 1 110.9746 12.8471 81.1769 0.0000 -18.1897 0.0000
# 2 12.8471 49.8026 26.8231 0.0000 -8.5829 0.0000
# 3 81.1769 26.8231 251.5833 0.0000 -31.3260 0.0000
# 4 0.0000 0.0000 0.0000 19.8013 0.0000 3.8130
# 5 -18.1897 -8.5829 -31.3260 0.0000 60.0634 0.0000
# 6 0.0000 0.0000 0.0000 3.8130 0.0000 56.4275
#
#
#
# Elastic Compliance Matrix: (Units=1/GPa)
#
#
# Indices 1 2 3 4 5 6 
#
# 1 0.011996 -0.000888 -0.003571 0.000000 0.001643 0.000000
# 2 -0.000888 0.021593 -0.001781 0.000000 0.001888 0.000000
# 3 -0.003571 -0.001781 0.005508 0.000000 0.001537 0.000000
# 4 0.000000 0.000000 0.000000 0.051167 0.000000 -0.003458
# 5 0.001643 0.001888 0.001537 0.000000 0.018218 0.000000
# 6 0.000000 0.000000 0.000000 -0.003458 0.000000 0.017956
#
#
# Mechanical properties :
#
#
# Convention : Reuss Voigt Hill
#
# Bulk Modulus (GPa) = 37.56950 72.67272 55.12111
# Shear Modulus (GPa) = 33.83195 46.69267 40.26231
#
# Velocity S-wave (km/s) = 3.80800 4.47360 4.15415
# Velocity P-wave (km/s) = 5.95292 7.60478 6.82898
#
# Compressibility (1/GPa) = 0.02661734
#
# Stress axis : x y z
#
# Youngs Moduli (GPa) = 83.36433 46.31202 181.54227
#
# Poissons Ratio (x) = 0.04111 0.64834
# Poissons Ratio (y) = 0.07400 0.32326
# Poissons Ratio (z) = 0.29772 0.08246
#
# Static dielectric constant tensor:
#      x y z
#    x 1.906220 0.000000 -0.047100 
#    y 0.000000 1.956140 0.000000 
#    z -0.047100 0.000000 1.926310 
# 
# From -- ./inp_files/14663.got.cif
#   From: 2010.05.17/outbox.cif.g08.bks.cpg/sg15_8_cif.got.tgz:14663.got - 2010.06.03 18:47:42.
