data_PCOD9257310
_publ_section_title
;
Structure prediction by ZEFSAII (Michael W. Deem and Ramdas Pophale) SiO2 
 PCOD9257310
Probable space group: C 2/C
;
_chemical_formula_sum "Si O2"
_cell_formula_units_Z 64
_cell_length_a 13.128054
_cell_length_b 12.792379
_cell_length_c 18.959072
_cell_angle_alpha 90.000000
_cell_angle_beta 108.742088
_cell_angle_gamma 90.000000
_cell_volume 3015.136905
_symmetry_space_group_name_H-M "C 2/C"
_symmetry_group_IT_number 15
_symmetry_cell_setting 'monoclinic'
loop_
_space_group_symop_operation_xyz
x,y,z
-x,y,1/2-z
-x,-y,-z
x,-y,1/2+z
1/2+x,1/2+y,z
1/2-x,1/2+y,1/2-z
1/2-x,1/2-y,-z
1/2+x,1/2-y,1/2+z
loop_
_atom_site_type_symbol
_atom_site_label
_atom_site_fract_x
_atom_site_fract_y
_atom_site_fract_z
Si Si1 0.107914 0.673013 0.229434
Si Si2 0.243882 0.624939 0.749812
Si Si3 0.461890 0.885222 0.577899
Si Si4 0.541067 0.505034 0.188950
Si Si5 0.108033 0.890401 0.568328
Si Si6 0.845930 0.353560 0.416528
Si Si7 0.321855 0.005252 0.647087
Si Si8 0.891224 0.848093 0.084897
O O1 0.193691 0.765850 0.246355
O O2 0.151968 0.576446 0.284198
O O3 0.000000 0.702137 0.250000
O O4 0.073571 0.639539 0.142437
O O5 0.339220 0.538868 0.773057
O O6 0.166366 0.607031 0.665942
O O7 0.186386 0.613624 0.812843
O O8 0.441133 0.891442 0.489571
O O9 0.409496 0.982750 0.606943
O O10 0.396892 0.777694 0.584072
O O11 0.500000 0.560113 0.250000
O O12 0.537672 0.576514 0.119159
O O13 0.464546 0.405001 0.158360
O O14 0.146643 0.771767 0.587404
O O15 0.207927 0.970160 0.590040
O O16 0.061729 0.887156 0.479431
O O17 0.732365 0.378235 0.429858
#
# Coordination Sequence:
#
# PCOD9257310 Si02
#       8
#     8   8   8   8   8   8   8   8
#     4  10  18  33  54  77 104 135 174 224 262 314
#     4  11  20  31  51  78 106 135 181 217 269 315
#     4  10  18  31  51  75 103 138 176 219 270 310
#     4  11  21  30  46  77 111 143 171 219 270 323
#     4  10  19  30  47  74 113 138 176 214 274 319
#     4  11  18  32  52  74 106 144 174 224 268 319
#     4  10  19  31  49  79 106 138 176 220 263 321
#     4  11  17  30  49  76 110 138 172 223 274 309
#
# _framework density 21.226234000000002
#
# number of rings (size 3 to 8) (size 9 to 14) (size 15 to 20)
#    0.000    1.500    6.250    2.250    0.000    0.000 
#    0.000    0.625    0.000    2.250    0.000    0.875 
#    0.000    0.250    0.000    0.000    0.000    0.000 
#
# Total GULP energy -178530.722090 kJ/mol
# GULP energy per Si atom -5579.085065 kJ/mol
# Density = 2.117792 g / cm^3
# Si number density = 21.226234 Si / 1000 Ang^3
#
#
#
# Elastic Constant Matrix: (Units=GPa)
#
#
# Indices 1 2 3 4 5 6 
#
# 1 36.3118 19.7389 22.1553 0.0000 -8.8045 0.0000
# 2 19.7389 39.2419 15.9588 0.0000 -4.2201 0.0000
# 3 22.1553 15.9588 117.4720 0.0000 8.9391 0.0000
# 4 0.0000 0.0000 0.0000 24.3736 0.0000 -7.1273
# 5 -8.8045 -4.2201 8.9391 0.0000 25.6777 0.0000
# 6 0.0000 0.0000 0.0000 -7.1273 0.0000 22.1777
#
#
#
# Elastic Compliance Matrix: (Units=1/GPa)
#
#
# Indices 1 2 3 4 5 6 
#
# 1 0.045632 -0.018369 -0.007264 0.000000 0.015156 0.000000
# 2 -0.018369 0.035255 -0.001322 0.000000 -0.000044 0.000000
# 3 -0.007264 -0.001322 0.010548 0.000000 -0.006380 0.000000
# 4 0.000000 0.000000 0.000000 0.045283 0.000000 0.014553
# 5 0.015156 -0.000044 -0.006380 0.000000 0.046355 0.000000
# 6 0.000000 0.000000 0.000000 0.014553 0.000000 0.049767
#
#
# Mechanical properties :
#
#
# Convention : Reuss Voigt Hill
#
# Bulk Modulus (GPa) = 26.64870 34.30354 30.47612
# Shear Modulus (GPa) = 16.70801 23.45733 20.08267
#
# Velocity S-wave (km/s) = 2.80864 3.32793 3.07925
# Velocity P-wave (km/s) = 4.80623 5.56442 5.19917
#
# Compressibility (1/GPa) = 0.03752528
#
# Stress axis : x y z
#
# Youngs Moduli (GPa) = 21.91468 28.36443 94.80737
#
# Poissons Ratio (x) = 0.52102 0.68868
# Poissons Ratio (y) = 0.40255 0.12532
# Poissons Ratio (z) = 0.15919 0.03749
#
# Static dielectric constant tensor:
#      x y z
#    x 1.790000 0.000000 -0.012660 
#    y 0.000000 1.783650 0.000000 
#    z -0.012660 0.000000 1.835420 
# 
# From -- ./inp_files/243738.got.cif
#   From: 2010.05.17/outbox.cif.g08.bks.cpg/sg15_122_cif.got.tgz:243738.got - 2010.06.03 18:47:42.
