data_PCOD9257734
_publ_section_title
;
Structure prediction by ZEFSAII (Michael W. Deem and Ramdas Pophale) SiO2 
 PCOD9257734
Probable space group: C 2/C
;
_chemical_formula_sum "Si O2"
_cell_formula_units_Z 48
_cell_length_a 25.686436
_cell_length_b 11.962989
_cell_length_c 8.248185
_cell_angle_alpha 90.000000
_cell_angle_beta 84.506536
_cell_angle_gamma 90.000000
_cell_volume 2522.915424
_symmetry_space_group_name_H-M "C 2/C"
_symmetry_group_IT_number 15
_symmetry_cell_setting 'monoclinic'
loop_
_space_group_symop_operation_xyz
x,y,z
-x,y,1/2-z
-x,-y,-z
x,-y,1/2+z
1/2+x,1/2+y,z
1/2-x,1/2+y,1/2-z
1/2-x,1/2-y,-z
1/2+x,1/2-y,1/2+z
loop_
_atom_site_type_symbol
_atom_site_label
_atom_site_fract_x
_atom_site_fract_y
_atom_site_fract_z
Si Si1 0.384658 0.116516 0.201860
Si Si2 0.775523 0.642738 0.076020
Si Si3 0.585052 0.145613 0.799614
Si Si4 0.484161 0.130629 0.999056
Si Si5 0.333701 0.234470 0.527475
Si Si6 0.242144 0.908691 0.954766
O O1 0.338835 0.144162 0.084407
O O2 0.364092 0.169247 0.375099
O O3 0.392408 0.981535 0.195559
O O4 0.444131 0.158463 0.154015
O O5 0.754343 0.623414 0.265256
O O6 0.750000 0.750000 0.000000
O O7 0.756237 0.536075 0.980020
O O8 0.540560 0.180634 0.944616
O O9 0.553571 0.148995 0.643131
O O10 0.633111 0.226048 0.819835
O O11 0.500000 0.000000 0.000000
O O12 0.281269 0.161076 0.558212
O O13 0.315100 0.359135 0.491163
#
# Coordination Sequence:
#
# PCOD9257734 Si02
#       6
#     8   8   8   8   8   8
#     4  10  19  32  53  78 115 156 197 236 304 356
#     4  11  25  38  60  84 118 163 200 251 304 354
#     4  10  18  32  52  81 118 157 188 244 304 352
#     4   9  19  30  49  80 118 151 196 239 291 371
#     4  10  21  35  54  80 118 159 188 248 292 356
#     4  10  24  39  56  84 119 150 211 241 296 363
#
# _framework density 19.02561
#
# number of rings (size 3 to 8) (size 9 to 14) (size 15 to 20)
#    0.000    2.000    1.667    2.000   11.667    2.000 
#    0.000    0.000    0.000    0.000    0.000    1.167 
#    0.000    0.000    0.000    0.000    0.000    0.000 
#
# Total GULP energy -133698.445863 kJ/mol
# GULP energy per Si atom -5570.768578 kJ/mol
# Density = 1.898231 g / cm^3
# Si number density = 19.025610 Si / 1000 Ang^3
#
#
#
# Elastic Constant Matrix: (Units=GPa)
#
#
# Indices 1 2 3 4 5 6 
#
# 1 104.3790 29.2793 29.6943 0.0000 13.3264 0.0000
# 2 29.2793 70.8164 18.6977 0.0000 12.7823 0.0000
# 3 29.6943 18.6977 59.3117 0.0000 5.9713 0.0000
# 4 0.0000 0.0000 0.0000 17.1075 0.0000 7.2167
# 5 13.3264 12.7823 5.9713 0.0000 41.9132 0.0000
# 6 0.0000 0.0000 0.0000 7.2167 0.0000 30.2348
#
#
#
# Elastic Compliance Matrix: (Units=1/GPa)
#
#
# Indices 1 2 3 4 5 6 
#
# 1 0.012171 -0.003372 -0.004813 0.000000 -0.002156 0.000000
# 2 -0.003372 0.017051 -0.003319 0.000000 -0.003655 0.000000
# 3 -0.004813 -0.003319 0.020352 0.000000 -0.000357 0.000000
# 4 0.000000 0.000000 0.000000 0.064999 0.000000 -0.015515
# 5 -0.002156 -0.003655 -0.000357 0.000000 0.025710 0.000000
# 6 0.000000 0.000000 0.000000 -0.015515 0.000000 0.036778
#
#
# Mechanical properties :
#
#
# Convention : Reuss Voigt Hill
#
# Bulk Modulus (GPa) = 37.64309 43.31662 40.47985
# Shear Modulus (GPa) = 23.93207 28.30681 26.11944
#
# Velocity S-wave (km/s) = 3.55052 3.86142 3.70923
# Velocity P-wave (km/s) = 6.05282 6.53435 6.29819
#
# Compressibility (1/GPa) = 0.02656530
#
# Stress axis : x y z
#
# Youngs Moduli (GPa) = 82.16303 58.64641 49.13498
#
# Poissons Ratio (x) = 0.19777 0.23650
# Poissons Ratio (y) = 0.27707 0.16308
# Poissons Ratio (z) = 0.39547 0.19465
#
# Static dielectric constant tensor:
#      x y z
#    x 1.714140 0.000000 -0.057880 
#    y 0.000000 1.661310 0.000000 
#    z -0.057880 0.000000 1.776330 
# 
# From -- ./inp_files/60610.got.cif
#   From: 2010.05.17/outbox.cif.g08.bks.cpg/sg15_31_cif.got.tgz:60610.got - 2010.06.03 18:47:42.
