data_PCOD9257380
_publ_section_title
;
Structure prediction by ZEFSAII (Michael W. Deem and Ramdas Pophale) SiO2 
 PCOD9257380
Probable space group: C 2/C
;
_chemical_formula_sum "Si O2"
_cell_formula_units_Z 64
_cell_length_a 27.694725
_cell_length_b 12.598644
_cell_length_c 21.078133
_cell_angle_alpha 90.000000
_cell_angle_beta 27.205054
_cell_angle_gamma 90.000000
_cell_volume 3362.302520
_symmetry_space_group_name_H-M "C 2/C"
_symmetry_group_IT_number 15
_symmetry_cell_setting 'monoclinic'
loop_
_space_group_symop_operation_xyz
x,y,z
-x,y,1/2-z
-x,-y,-z
x,-y,1/2+z
1/2+x,1/2+y,z
1/2-x,1/2+y,1/2-z
1/2-x,1/2-y,-z
1/2+x,1/2-y,1/2+z
loop_
_atom_site_type_symbol
_atom_site_label
_atom_site_fract_x
_atom_site_fract_y
_atom_site_fract_z
Si Si1 0.122472 0.335034 0.101462
Si Si2 0.195753 0.232589 0.751421
Si Si3 0.897679 0.281515 0.175482
Si Si4 0.275547 0.620269 0.530984
Si Si5 0.523093 0.611525 0.506284
Si Si6 0.809403 0.060981 0.087892
Si Si7 0.158876 0.437023 0.361056
Si Si8 0.889945 0.652820 0.026084
O O1 0.196842 0.396303 0.063896
O O2 0.000000 0.363546 0.250000
O O3 0.139926 0.207986 0.090409
O O4 0.155170 0.355528 0.990996
O O5 0.239386 0.332393 0.660496
O O6 0.283401 0.141675 0.657645
O O7 0.176287 0.281042 0.844911
O O8 0.084694 0.179864 0.861382
O O9 0.797010 0.318492 0.332300
O O10 0.901725 0.172937 0.131877
O O11 0.912806 0.368026 0.101916
O O12 0.997282 0.288493 0.105914
O O13 0.317343 0.514999 0.517225
O O14 0.500000 0.500000 0.500000
O O15 0.582680 0.595089 0.503244
O O16 0.748826 0.990929 0.212060
O O17 0.097941 0.533108 0.463977
#
# Coordination Sequence:
#
# PCOD9257380 Si02
#       8
#     8   8   8   8   8   8   8   8
#     4  11  22  39  55  84 111 150 199 237 281 335
#     4  10  20  34  52  87 119 151 185 233 295 354
#     4  10  19  34  53  83 116 144 182 232 286 350
#     4  10  23  38  60  77 114 155 187 240 290 332
#     4  11  21  30  52  85 118 152 184 221 286 351
#     4  10  20  36  54  81 118 150 187 233 292 346
#     4  10  18  31  52  80 115 147 178 225 292 346
#     4  10  20  32  55  79 115 148 188 236 276 342
#
# _framework density 19.034575
#
# number of rings (size 3 to 8) (size 9 to 14) (size 15 to 20)
#    0.000    1.750    3.750    1.875    3.500    1.000 
#    0.000    1.250    0.000    0.750    0.000    0.875 
#    0.000    0.000    0.000    0.000    0.000    0.000 
#
# Total GULP energy -178469.019239 kJ/mol
# GULP energy per Si atom -5577.156851 kJ/mol
# Density = 1.899125 g / cm^3
# Si number density = 19.034575 Si / 1000 Ang^3
#
#
#
# Elastic Constant Matrix: (Units=GPa)
#
#
# Indices 1 2 3 4 5 6 
#
# 1 125.1073 42.6628 19.2586 0.0000 -17.4582 0.0000
# 2 42.6628 97.6362 17.5647 0.0000 -12.2887 0.0000
# 3 19.2586 17.5647 29.2536 0.0000 -12.9907 0.0000
# 4 0.0000 0.0000 0.0000 26.8142 0.0000 -4.0684
# 5 -17.4582 -12.2887 -12.9907 0.0000 19.0732 0.0000
# 6 0.0000 0.0000 0.0000 -4.0684 0.0000 34.5997
#
#
#
# Elastic Compliance Matrix: (Units=1/GPa)
#
#
# Indices 1 2 3 4 5 6 
#
# 1 0.010283 -0.003376 -0.002192 0.000000 0.005745 0.000000
# 2 -0.003376 0.012794 -0.004546 0.000000 0.002056 0.000000
# 3 -0.002192 -0.004546 0.051846 0.000000 0.030377 0.000000
# 4 0.000000 0.000000 0.000000 0.037971 0.000000 0.004465
# 5 0.005745 0.002056 0.030377 0.000000 0.079702 0.000000
# 6 0.000000 0.000000 0.000000 0.004465 0.000000 0.029427
#
#
# Mechanical properties :
#
#
# Convention : Reuss Voigt Hill
#
# Bulk Modulus (GPa) = 18.28305 45.66326 31.97316
# Shear Modulus (GPa) = 19.19509 27.59816 23.39663
#
# Velocity S-wave (km/s) = 3.17903 3.81188 3.50975
# Velocity P-wave (km/s) = 4.80635 6.58905 5.76700
#
# Compressibility (1/GPa) = 0.05469547
#
# Stress axis : x y z
#
# Youngs Moduli (GPa) = 97.24351 78.16184 19.28795
#
# Poissons Ratio (x) = 0.26388 0.04227
# Poissons Ratio (y) = 0.32830 0.08768
# Poissons Ratio (z) = 0.21314 0.35533
#
# Static dielectric constant tensor:
#      x y z
#    x 1.684250 0.000000 -0.030310 
#    y 0.000000 1.670250 0.000000 
#    z -0.030310 0.000000 1.702890 
# 
# From -- ./inp_files/283492.got.cif
#   From: 2010.05.17/outbox.cif.g08.bks.cpg/sg15_142_cif.got.tgz:283492.got - 2010.06.03 18:47:42.
