data_PCOD9257029
_publ_section_title
;
Structure prediction by ZEFSAII (Michael W. Deem and Ramdas Pophale) SiO2 
 PCOD9257029
Probable space group: C 2/C
;
_chemical_formula_sum "Si O2"
_cell_formula_units_Z 56
_cell_length_a 17.812992
_cell_length_b 10.316857
_cell_length_c 13.976880
_cell_angle_alpha 90.000000
_cell_angle_beta 124.588663
_cell_angle_gamma 90.000000
_cell_volume 2114.587105
_symmetry_space_group_name_H-M "C 2/C"
_symmetry_group_IT_number 15
_symmetry_cell_setting 'monoclinic'
loop_
_space_group_symop_operation_xyz
x,y,z
-x,y,1/2-z
-x,-y,-z
x,-y,1/2+z
1/2+x,1/2+y,z
1/2-x,1/2+y,1/2-z
1/2-x,1/2-y,-z
1/2+x,1/2-y,1/2+z
loop_
_atom_site_type_symbol
_atom_site_label
_atom_site_fract_x
_atom_site_fract_y
_atom_site_fract_z
Si Si1 0.901735 0.034859 0.715593
Si Si2 0.351210 0.833312 0.696976
Si Si3 0.280382 0.811071 0.272263
Si Si4 0.479949 0.040837 0.093006
Si Si5 0.052314 0.797516 0.530015
Si Si6 0.214056 0.521887 0.527292
Si Si7 0.374741 0.559408 0.922644
O O1 0.890545 0.191744 0.698472
O O2 0.815253 0.961779 0.604317
O O3 0.892789 0.022019 0.823606
O O4 0.000000 0.993038 0.750000
O O5 0.287427 0.804613 0.743048
O O6 0.428968 0.939461 0.778689
O O7 0.290504 0.882622 0.566147
O O8 0.381985 0.758344 0.339624
O O9 0.285681 0.904175 0.369606
O O10 0.227127 0.884571 0.149863
O O11 0.454161 0.191471 0.057568
O O12 0.388049 0.962641 0.053425
O O13 0.500000 0.000000 0.000000
O O14 0.952838 0.834775 0.496480
O O15 0.098207 0.922879 0.513747
#
# Coordination Sequence:
#
# PCOD9257029 Si02
#       7
#     8   8   8   8   8   8   8
#     4  10  18  30  53  79 105 139 178 230 278 327
#     4  10  18  30  51  79 108 137 177 231 280 332
#     4   9  18  30  51  82 105 141 175 225 280 333
#     4  11  21  34  53  80 110 145 182 221 280 334
#     4  10  19  35  53  73 117 144 181 227 273 333
#     4   9  19  31  49  79 108 134 175 224 283 325
#     4   9  19  34  51  81 105 147 182 221 280 335
#
# _framework density 26.482711999999999
#
# number of rings (size 3 to 8) (size 9 to 14) (size 15 to 20)
#    0.000    2.571    2.857    3.000    4.000    3.429 
#    0.000    0.000    0.000    1.714    0.000    5.000 
#    0.000    0.000    0.000    0.000    0.000    0.000 
#
# Total GULP energy -156328.218360 kJ/mol
# GULP energy per Si atom -5583.150656 kJ/mol
# Density = 2.642244 g / cm^3
# Si number density = 26.482712 Si / 1000 Ang^3
#
#
#
# Elastic Constant Matrix: (Units=GPa)
#
#
# Indices 1 2 3 4 5 6 
#
# 1 58.1597 2.2005 29.4715 0.0000 18.1738 0.0000
# 2 2.2005 38.0323 19.4477 0.0000 -0.2484 0.0000
# 3 29.4715 19.4477 176.8349 0.0000 49.3349 0.0000
# 4 0.0000 0.0000 0.0000 30.6159 0.0000 0.6060
# 5 18.1738 -0.2484 49.3349 0.0000 48.0583 0.0000
# 6 0.0000 0.0000 0.0000 0.6060 0.0000 20.7484
#
#
#
# Elastic Compliance Matrix: (Units=1/GPa)
#
#
# Indices 1 2 3 4 5 6 
#
# 1 0.019861 -0.000344 -0.001648 0.000000 -0.005820 0.000000
# 2 -0.000344 0.028614 -0.004438 0.000000 0.004834 0.000000
# 3 -0.001648 -0.004438 0.008759 0.000000 -0.008391 0.000000
# 4 0.000000 0.000000 0.000000 0.032682 0.000000 -0.000954
# 5 -0.005820 0.004834 -0.008391 0.000000 0.031648 0.000000
# 6 0.000000 0.000000 0.000000 -0.000954 0.000000 0.048224
#
#
# Mechanical properties :
#
#
# Convention : Reuss Voigt Hill
#
# Bulk Modulus (GPa) = 22.53641 41.69623 32.11632
# Shear Modulus (GPa) = 25.32404 34.67834 30.00119
#
# Velocity S-wave (km/s) = 3.09568 3.62259 3.36945
# Velocity P-wave (km/s) = 4.61584 5.76857 5.22410
#
# Compressibility (1/GPa) = 0.04437264
#
# Stress axis : x y z
#
# Youngs Moduli (GPa) = 50.34965 34.94743 114.17054
#
# Poissons Ratio (x) = 0.01203 0.18820
# Poissons Ratio (y) = 0.01733 0.50671
# Poissons Ratio (z) = 0.08300 0.15510
#
# Static dielectric constant tensor:
#      x y z
#    x 2.198920 0.000000 0.052620 
#    y 0.000000 2.195530 0.000000 
#    z 0.052620 0.000000 2.174330 
# 
# From -- ./inp_files/255304.got.cif
#   From: 2010.05.17/outbox.cif.g08.bks.cpg/sg15_128_cif.got.tgz:255304.got - 2010.06.03 18:47:42.
