data_PCOD9257161
_publ_section_title
;
Structure prediction by ZEFSAII (Michael W. Deem and Ramdas Pophale) SiO2 
 PCOD9257161
Probable space group: C 2/C
;
_chemical_formula_sum "Si O2"
_cell_formula_units_Z 52
_cell_length_a 14.641813
_cell_length_b 17.907573
_cell_length_c 13.172211
_cell_angle_alpha 90.000000
_cell_angle_beta 129.456144
_cell_angle_gamma 90.000000
_cell_volume 2666.675280
_symmetry_space_group_name_H-M "C 2/C"
_symmetry_group_IT_number 15
_symmetry_cell_setting 'monoclinic'
loop_
_space_group_symop_operation_xyz
x,y,z
-x,y,1/2-z
-x,-y,-z
x,-y,1/2+z
1/2+x,1/2+y,z
1/2-x,1/2+y,1/2-z
1/2-x,1/2-y,-z
1/2+x,1/2-y,1/2+z
loop_
_atom_site_type_symbol
_atom_site_label
_atom_site_fract_x
_atom_site_fract_y
_atom_site_fract_z
Si Si1 0.707627 0.370860 0.679343
Si Si2 0.718815 0.901279 0.993722
Si Si3 0.641151 0.991151 0.608378
Si Si4 0.495625 0.462308 0.865668
Si Si5 0.500000 0.816094 0.750000
Si Si6 0.186437 0.783349 0.273806
Si Si7 0.329613 0.421976 0.358959
O O1 0.716073 0.401514 0.569260
O O2 0.812481 0.410379 0.820116
O O3 0.589275 0.398115 0.649588
O O4 0.719704 0.282237 0.679119
O O5 0.591039 0.867792 0.874430
O O6 0.698924 0.976558 0.044795
O O7 0.778595 0.840118 0.110635
O O8 0.703328 0.044785 0.736641
O O9 0.500000 0.000000 0.500000
O O10 0.500000 0.465865 0.750000
O O11 0.430244 0.536734 0.860865
O O12 0.624924 0.444484 0.999372
O O13 0.428206 0.762527 0.773982
O O14 0.168799 0.835319 0.164636
#
# Coordination Sequence:
#
# PCOD9257161 Si02
#       7
#     8   8   8   8   4   8   8
#     4  10  21  37  58  88 118 158 197 251 303 354
#     4  10  21  36  53  89 121 151 200 243 305 352
#     4  10  20  36  56  83 124 158 191 237 293 368
#     4  10  22  40  61  85 119 159 203 252 304 359
#     4  10  18  30  56  84 122 152 182 246 310 346
#     4  10  21  33  56  92 118 149 192 253 305 361
#     4   9  22  36  59  89 114 154 202 249 301 364
#
# _framework density 19.499936000000002
#
# number of rings (size 3 to 8) (size 9 to 14) (size 15 to 20)
#    0.000    2.154    0.000    3.692    5.385    9.846 
#    0.000    0.769    0.000    0.000    2.000    0.000 
#    0.000    0.000    0.000    0.000    0.000    0.000 
#
# Total GULP energy -145029.470209 kJ/mol
# GULP energy per Si atom -5578.056547 kJ/mol
# Density = 1.945555 g / cm^3
# Si number density = 19.499936 Si / 1000 Ang^3
#
#
#
# Elastic Constant Matrix: (Units=GPa)
#
#
# Indices 1 2 3 4 5 6 
#
# 1 31.3101 6.1450 3.8429 0.0000 -4.0697 0.0000
# 2 6.1450 85.6454 7.6418 0.0000 -15.3351 0.0000
# 3 3.8429 7.6418 101.8762 0.0000 -2.7681 0.0000
# 4 0.0000 0.0000 0.0000 22.8519 0.0000 -3.7879
# 5 -4.0697 -15.3351 -2.7681 0.0000 38.8557 0.0000
# 6 0.0000 0.0000 0.0000 -3.7879 0.0000 24.3174
#
#
#
# Elastic Compliance Matrix: (Units=1/GPa)
#
#
# Indices 1 2 3 4 5 6 
#
# 1 0.032760 -0.001783 -0.001030 0.000000 0.002654 0.000000
# 2 -0.001783 0.012728 -0.000758 0.000000 0.004783 0.000000
# 3 -0.001030 -0.000758 0.009920 0.000000 0.000300 0.000000
# 4 0.000000 0.000000 0.000000 0.044920 0.000000 0.006997
# 5 0.002654 0.004783 0.000300 0.000000 0.027923 0.000000
# 6 0.000000 0.000000 0.000000 0.006997 0.000000 0.042213
#
#
# Mechanical properties :
#
#
# Convention : Reuss Voigt Hill
#
# Bulk Modulus (GPa) = 20.71852 28.23235 24.47544
# Shear Modulus (GPa) = 25.81396 30.61845 28.21621
#
# Velocity S-wave (km/s) = 3.64235 3.96685 3.80806
# Velocity P-wave (km/s) = 5.32324 5.95742 5.64924
#
# Compressibility (1/GPa) = 0.04826598
#
# Stress axis : x y z
#
# Youngs Moduli (GPa) = 30.52505 78.56742 100.81000
#
# Poissons Ratio (x) = 0.14012 0.10382
# Poissons Ratio (y) = 0.05444 0.07637
# Poissons Ratio (z) = 0.03144 0.05952
#
# Static dielectric constant tensor:
#      x y z
#    x 1.701870 0.000000 0.017010 
#    y 0.000000 1.698220 0.000000 
#    z 0.017010 0.000000 1.737730 
# 
# From -- ./inp_files/99873.got.cif
#   From: 2010.05.17/outbox.cif.g08.bks.cpg/sg15_50_cif.got.tgz:99873.got - 2010.06.03 18:47:42.
