data_PCOD9257411
_publ_section_title
;
Structure prediction by ZEFSAII (Michael W. Deem and Ramdas Pophale) SiO2 
 PCOD9257411
Probable space group: C 2/C
;
_chemical_formula_sum "Si O2"
_cell_formula_units_Z 64
_cell_length_a 12.889313
_cell_length_b 16.831041
_cell_length_c 15.206563
_cell_angle_alpha 90.000000
_cell_angle_beta 50.559051
_cell_angle_gamma 90.000000
_cell_volume 2547.689246
_symmetry_space_group_name_H-M "C 2/C"
_symmetry_group_IT_number 15
_symmetry_cell_setting 'monoclinic'
loop_
_space_group_symop_operation_xyz
x,y,z
-x,y,1/2-z
-x,-y,-z
x,-y,1/2+z
1/2+x,1/2+y,z
1/2-x,1/2+y,1/2-z
1/2-x,1/2-y,-z
1/2+x,1/2-y,1/2+z
loop_
_atom_site_type_symbol
_atom_site_label
_atom_site_fract_x
_atom_site_fract_y
_atom_site_fract_z
Si Si1 0.355026 0.649821 0.708707
Si Si2 0.668633 0.497323 0.185786
Si Si3 0.660031 0.781557 0.645442
Si Si4 0.393488 0.123238 0.492899
Si Si5 0.334888 0.928158 0.751157
Si Si6 0.150772 0.592746 0.677227
Si Si7 0.422027 0.758894 0.512831
Si Si8 0.828465 0.849105 0.920606
O O1 0.420310 0.570043 0.715063
O O2 0.313219 0.701463 0.815143
O O3 0.226296 0.622671 0.722990
O O4 0.433349 0.702473 0.593884
O O5 0.736531 0.545273 0.228082
O O6 0.788621 0.445245 0.076118
O O7 0.622133 0.567912 0.146487
O O8 0.500000 0.787301 0.750000
O O9 0.671189 0.812187 0.539603
O O10 0.722479 0.850707 0.671104
O O11 0.519418 0.085250 0.371225
O O12 0.472910 0.170727 0.527068
O O13 0.345300 0.997960 0.816417
O O14 0.231311 0.623091 0.551097
O O15 0.000000 0.620839 0.750000
O O16 0.271233 0.797866 0.588628
O O17 0.432917 0.707625 0.416877
#
# Coordination Sequence:
#
# PCOD9257411 Si02
#       8
#     8   8   8   8   8   8   8   8
#     4  10  21  35  50  82 106 149 191 226 278 335
#     4  11  21  31  54  85 117 141 188 245 285 335
#     4  10  18  34  56  74 105 148 190 224 277 343
#     4  11  20  32  56  83 114 151 182 236 293 346
#     4  10  18  31  53  81 116 141 177 219 296 352
#     4  10  20  31  52  85 118 142 173 230 287 348
#     4  10  20  36  55  80 115 162 182 220 293 368
#     4  10  20  35  55  81 120 153 187 225 291 363
#
# _framework density 25.120802000000001
#
# number of rings (size 3 to 8) (size 9 to 14) (size 15 to 20)
#    0.000    1.750    3.750    3.000    3.500    0.500 
#    0.000    0.000    0.000    0.750    9.750    0.000 
#    0.000    0.000    0.000    0.000    0.000    0.000 
#
# Total GULP energy -178815.634697 kJ/mol
# GULP energy per Si atom -5587.988584 kJ/mol
# Density = 2.506363 g / cm^3
# Si number density = 25.120802 Si / 1000 Ang^3
#
#
#
# Elastic Constant Matrix: (Units=GPa)
#
#
# Indices 1 2 3 4 5 6 
#
# 1 70.4111 42.7419 28.4950 0.0000 26.0539 0.0000
# 2 42.7419 155.8240 21.0917 0.0000 21.4218 0.0000
# 3 28.4950 21.0917 47.5166 0.0000 22.1141 0.0000
# 4 0.0000 0.0000 0.0000 17.3175 0.0000 25.9988
# 5 26.0539 21.4218 22.1141 0.0000 31.0911 0.0000
# 6 0.0000 0.0000 0.0000 25.9988 0.0000 46.1502
#
#
#
# Elastic Compliance Matrix: (Units=1/GPa)
#
#
# Indices 1 2 3 4 5 6 
#
# 1 0.023986 -0.003933 -0.006794 0.000000 -0.012558 0.000000
# 2 -0.003933 0.007789 -0.000202 0.000000 -0.001927 0.000000
# 3 -0.006794 -0.000202 0.033625 0.000000 -0.018085 0.000000
# 4 0.000000 0.000000 0.000000 0.374392 0.000000 -0.210915
# 5 -0.012558 -0.001927 -0.018085 0.000000 0.056877 0.000000
# 6 0.000000 0.000000 0.000000 -0.210915 0.000000 0.140488
#
#
# Mechanical properties :
#
#
# Convention : Reuss Voigt Hill
#
# Bulk Modulus (GPa) = 22.96616 50.93431 36.95024
# Shear Modulus (GPa) = 7.42359 31.00663 19.21511
#
# Velocity S-wave (km/s) = 1.72092 3.51707 2.76870
# Velocity P-wave (km/s) = 3.62090 6.06736 4.99619
#
# Compressibility (1/GPa) = 0.04354232
#
# Stress axis : x y z
#
# Youngs Moduli (GPa) = 41.69090 128.39308 29.73936
#
# Poissons Ratio (x) = 0.50501 0.20204
# Poissons Ratio (y) = 0.16398 0.00600
# Poissons Ratio (z) = 0.28324 0.02590
#
# Static dielectric constant tensor:
#      x y z
#    x 2.034250 0.000000 -0.029050 
#    y 0.000000 2.102550 0.000000 
#    z -0.029050 0.000000 2.012810 
# 
# From -- ./inp_files/205393.got.cif
#   From: 2010.05.17/outbox.cif.g08.bks.cpg/sg15_103_cif.got.tgz:205393.got - 2010.06.03 18:47:42.
