data_PCOD9257516
_publ_section_title
;
Structure prediction by ZEFSAII (Michael W. Deem and Ramdas Pophale) SiO2 
 PCOD9257516
Probable space group: C 2/C
;
_chemical_formula_sum "Si O2"
_cell_formula_units_Z 56
_cell_length_a 17.130291
_cell_length_b 14.994600
_cell_length_c 13.069424
_cell_angle_alpha 90.000000
_cell_angle_beta 49.062756
_cell_angle_gamma 90.000000
_cell_volume 2535.998447
_symmetry_space_group_name_H-M "C 2/C"
_symmetry_group_IT_number 15
_symmetry_cell_setting 'monoclinic'
loop_
_space_group_symop_operation_xyz
x,y,z
-x,y,1/2-z
-x,-y,-z
x,-y,1/2+z
1/2+x,1/2+y,z
1/2-x,1/2+y,1/2-z
1/2-x,1/2-y,-z
1/2+x,1/2-y,1/2+z
loop_
_atom_site_type_symbol
_atom_site_label
_atom_site_fract_x
_atom_site_fract_y
_atom_site_fract_z
Si Si1 0.669330 0.951693 0.249604
Si Si2 0.244638 0.246802 0.173228
Si Si3 0.680764 0.945603 0.458732
Si Si4 0.000000 0.154246 0.750000
Si Si5 0.602725 0.688323 0.120036
Si Si6 0.699949 0.268781 0.154974
Si Si7 0.000000 0.464386 0.750000
Si Si8 0.648133 0.496239 0.034676
O O1 0.690528 0.845478 0.219228
O O2 0.641270 0.984430 0.387183
O O3 0.575205 0.978340 0.257332
O O4 0.778712 0.999507 0.127386
O O5 0.176554 0.187292 0.155938
O O6 0.267225 0.216039 0.270492
O O7 0.348469 0.261069 0.017962
O O8 0.752775 0.864992 0.362485
O O9 0.583701 0.913317 0.609098
O O10 0.760343 0.000733 0.458816
O O11 0.922087 0.216165 0.752806
O O12 0.925487 0.088418 0.880966
O O13 0.500000 0.731874 0.250000
O O14 0.584704 0.587327 0.097353
O O15 0.750000 0.250000 0.000000
#
# Coordination Sequence:
#
# PCOD9257516 Si02
#       8
#     8   8   8   4   8   8   4   8
#     4   9  18  34  55  78 116 149 188 238 291 341
#     4   9  21  38  54  85 117 154 190 242 288 350
#     4   9  19  36  53  82 112 148 190 240 286 343
#     4  10  20  39  65  86 120 152 200 242 296 360
#     4  10  19  36  60  85 119 147 195 238 297 356
#     4  10  22  41  60  80 119 155 194 243 291 344
#     4  10  18  31  57  80 108 148 192 232 288 344
#     4   9  18  36  56  87 113 147 188 247 295 342
#
# _framework density 22.082032000000002
#
# number of rings (size 3 to 8) (size 9 to 14) (size 15 to 20)
#    0.000    2.571    0.714    0.429    1.000    1.714 
#   10.286    4.286    0.000    0.000    0.000    0.000 
#    0.000    0.000    0.000    0.000    0.000    0.000 
#
# Total GULP energy -155892.298673 kJ/mol
# GULP energy per Si atom -5567.582095 kJ/mol
# Density = 2.203177 g / cm^3
# Si number density = 22.082032 Si / 1000 Ang^3
#
#
#
# Elastic Constant Matrix: (Units=GPa)
#
#
# Indices 1 2 3 4 5 6 
#
# 1 70.8621 1.1023 45.9159 0.0000 2.2155 0.0000
# 2 1.1023 21.7938 -9.0608 0.0000 -0.4568 0.0000
# 3 45.9159 -9.0608 91.2932 0.0000 8.9544 0.0000
# 4 0.0000 0.0000 0.0000 -53.4582 0.0000 26.9391
# 5 2.2155 -0.4568 8.9544 0.0000 43.8157 0.0000
# 6 0.0000 0.0000 0.0000 26.9391 0.0000 -2.0034
#
#
#
# Elastic Compliance Matrix: (Units=1/GPa)
#
#
# Indices 1 2 3 4 5 6 
#
# 1 0.021691 -0.005900 -0.011615 0.000000 0.001215 0.000000
# 2 -0.005900 0.049475 0.007958 0.000000 -0.000812 0.000000
# 3 -0.011615 0.007958 0.017878 0.000000 -0.002983 0.000000
# 4 0.000000 0.000000 0.000000 0.003239 0.000000 0.043547
# 5 0.001215 -0.000812 -0.002983 0.000000 0.023363 0.000000
# 6 0.000000 0.000000 0.000000 0.043547 0.000000 0.086415
#
#
# Mechanical properties :
#
#
# Convention : Reuss Voigt Hill
#
# Bulk Modulus (GPa) = 14.30024 28.87376 21.58700
# Shear Modulus (GPa) = 20.45117 7.40360 13.92738
#
# Velocity S-wave (km/s) = 3.04657 1.83304 2.51412
# Velocity P-wave (km/s) = 4.34344 4.19334 4.26905
#
# Compressibility (1/GPa) = 0.06992891
#
# Stress axis : x y z
#
# Youngs Moduli (GPa) = 46.10103 20.21242 55.93572
#
# Poissons Ratio (x) = 0.11926 0.64967
# Poissons Ratio (y) = 0.27202 -0.44512
# Poissons Ratio (z) = 0.53544 -0.16084
#
# Static dielectric constant tensor:
#      x y z
#    x 1.901880 0.000000 0.054670 
#    y 0.000000 1.840430 0.000000 
#    z 0.054670 0.000000 1.898110 
# 
# From -- ./inp_files/98715.got.cif
#   From: 2010.05.17/outbox.cif.g08.bks.cpg/sg15_50_cif.got.tgz:98715.got - 2010.06.03 18:47:42.
