data_PCOD9257788
_publ_section_title
;
Structure prediction by ZEFSAII (Michael W. Deem and Ramdas Pophale) SiO2 
 PCOD9257788
Probable space group: C 2/C
;
_chemical_formula_sum "Si O2"
_cell_formula_units_Z 36
_cell_length_a 18.574775
_cell_length_b 14.248689
_cell_length_c 7.626274
_cell_angle_alpha 90.000000
_cell_angle_beta 132.950858
_cell_angle_gamma 90.000000
_cell_volume 1477.356787
_symmetry_space_group_name_H-M "C 2/C"
_symmetry_group_IT_number 15
_symmetry_cell_setting 'monoclinic'
loop_
_space_group_symop_operation_xyz
x,y,z
-x,y,1/2-z
-x,-y,-z
x,-y,1/2+z
1/2+x,1/2+y,z
1/2-x,1/2+y,1/2-z
1/2-x,1/2-y,-z
1/2+x,1/2-y,1/2+z
loop_
_atom_site_type_symbol
_atom_site_label
_atom_site_fract_x
_atom_site_fract_y
_atom_site_fract_z
Si Si1 0.552356 0.092224 0.653595
Si Si2 0.500000 0.232551 0.250000
Si Si3 0.317460 0.657743 0.601194
Si Si4 0.118658 0.823596 0.929700
Si Si5 0.241375 0.375776 0.628389
O O1 0.500000 0.119779 0.750000
O O2 0.541868 0.168435 0.479840
O O3 0.500000 0.000000 0.500000
O O4 0.662882 0.065954 0.889599
O O5 0.582254 0.298928 0.306174
O O6 0.250000 0.750000 0.500000
O O7 0.267733 0.596189 0.368571
O O8 0.338904 0.621496 0.830618
O O9 0.158723 0.865637 0.815577
O O10 0.000000 0.819663 0.750000
O O11 0.178667 0.723608 0.032997
#
# Coordination Sequence:
#
# PCOD9257788 Si02
#       5
#     8   4   8   8   8
#     4  12  24  40  55  80 117 162 202 238 285 351
#     4  12  22  36  58  84 120 152 196 234 300 360
#     4  10  19  31  52  82 113 149 182 237 297 351
#     4  10  18  32  53  85 118 151 183 238 307 353
#     4  10  20  33  53  81 118 153 190 240 299 353
#
# _framework density 24.367846
#
# number of rings (size 3 to 8) (size 9 to 14) (size 15 to 20)
#    0.000    1.333    1.111   10.000    0.000    0.000 
#    0.000    0.000    0.000    0.000    0.000    1.556 
#    3.333    0.000    0.000    0.000    0.000    0.000 
#
# Total GULP energy -100601.809578 kJ/mol
# GULP energy per Si atom -5588.989421 kJ/mol
# Density = 2.431238 g / cm^3
# Si number density = 24.367846 Si / 1000 Ang^3
#
#
#
# Elastic Constant Matrix: (Units=GPa)
#
#
# Indices 1 2 3 4 5 6 
#
# 1 155.9153 15.4947 65.6994 0.0000 1.7563 0.0000
# 2 15.4947 34.6450 24.4370 0.0000 -9.5517 0.0000
# 3 65.6994 24.4370 176.6253 0.0000 -24.4591 0.0000
# 4 0.0000 0.0000 0.0000 15.0329 0.0000 2.8174
# 5 1.7563 -9.5517 -24.4591 0.0000 70.2798 0.0000
# 6 0.0000 0.0000 0.0000 2.8174 0.0000 20.2784
#
#
#
# Elastic Compliance Matrix: (Units=1/GPa)
#
#
# Indices 1 2 3 4 5 6 
#
# 1 0.007817 -0.001886 -0.002846 0.000000 -0.001442 0.000000
# 2 -0.001886 0.033033 -0.003405 0.000000 0.003352 0.000000
# 3 -0.002846 -0.003405 0.007499 0.000000 0.002218 0.000000
# 4 0.000000 0.000000 0.000000 0.068299 0.000000 -0.009489
# 5 -0.001442 0.003352 0.002218 0.000000 0.015492 0.000000
# 6 0.000000 0.000000 0.000000 -0.009489 0.000000 0.050632
#
#
# Mechanical properties :
#
#
# Convention : Reuss Voigt Hill
#
# Bulk Modulus (GPa) = 31.17713 64.27197 47.72455
# Shear Modulus (GPa) = 23.83925 38.55518 31.19721
#
# Velocity S-wave (km/s) = 3.13118 3.98202 3.58196
# Velocity P-wave (km/s) = 5.08867 6.89746 6.06092
#
# Compressibility (1/GPa) = 0.03207480
#
# Stress axis : x y z
#
# Youngs Moduli (GPa) = 127.92911 30.27250 133.35620
#
# Poissons Ratio (x) = 0.05709 0.37959
# Poissons Ratio (y) = 0.24126 0.45403
# Poissons Ratio (z) = 0.36414 0.10307
#
# Static dielectric constant tensor:
#      x y z
#    x 1.922540 0.000000 -0.010740 
#    y 0.000000 1.983060 0.000000 
#    z -0.010740 0.000000 2.028800 
# 
# From -- ./inp_files/48846.got.cif
#   From: 2010.05.17/outbox.cif.g08.bks.cpg/sg15_25_cif.got.tgz:48846.got - 2010.06.03 18:47:42.
