data_PCOD9257696
_publ_section_title
;
Structure prediction by ZEFSAII (Michael W. Deem and Ramdas Pophale) SiO2 
 PCOD9257696
Probable space group: C 2/C
;
_chemical_formula_sum "Si O2"
_cell_formula_units_Z 36
_cell_length_a 7.859091
_cell_length_b 14.206570
_cell_length_c 11.634855
_cell_angle_alpha 90.000000
_cell_angle_beta 91.689535
_cell_angle_gamma 90.000000
_cell_volume 1298.475271
_symmetry_space_group_name_H-M "C 2/C"
_symmetry_group_IT_number 15
_symmetry_cell_setting 'monoclinic'
loop_
_space_group_symop_operation_xyz
x,y,z
-x,y,1/2-z
-x,-y,-z
x,-y,1/2+z
1/2+x,1/2+y,z
1/2-x,1/2+y,1/2-z
1/2-x,1/2-y,-z
1/2+x,1/2-y,1/2+z
loop_
_atom_site_type_symbol
_atom_site_label
_atom_site_fract_x
_atom_site_fract_y
_atom_site_fract_z
Si Si1 0.135438 0.340570 0.380455
Si Si2 0.228208 0.442757 0.184000
Si Si3 0.292441 0.360078 0.965766
Si Si4 0.500000 0.674457 0.250000
Si Si5 0.434481 0.137783 0.365241
O O1 0.263360 0.408041 0.313562
O O2 0.141390 0.244172 0.307915
O O3 0.139147 0.324253 0.516089
O O4 0.948588 0.388137 0.354781
O O5 0.185855 0.551941 0.173945
O O6 0.349148 0.410100 0.083787
O O7 0.422148 0.369048 0.863029
O O8 0.116023 0.402486 0.915257
O O9 0.250000 0.250000 0.000000
O O10 0.500000 0.189926 0.250000
#
# Coordination Sequence:
#
# PCOD9257696 Si02
#       5
#     8   8   8   4   8
#     4   9  15  28  49  76 105 132 172 224 258 315
#     4   9  17  28  51  79 102 134 179 229 261 306
#     4  11  18  32  54  76 109 144 182 221 266 335
#     4  10  18  32  52  74 108 144 184 204 282 330
#     4  11  20  30  52  88 107 134 184 235 270 308
#
# _framework density 27.724824999999999
#
# number of rings (size 3 to 8) (size 9 to 14) (size 15 to 20)
#    0.000    2.222    8.889    2.667    0.000    0.000 
#    0.000    1.111    0.000    1.333    0.000    0.000 
#   13.333    0.000    0.000    0.000    0.000    0.000 
#
# Total GULP energy -100478.843964 kJ/mol
# GULP energy per Si atom -5582.157998 kJ/mol
# Density = 2.766172 g / cm^3
# Si number density = 27.724825 Si / 1000 Ang^3
#
#
#
# Elastic Constant Matrix: (Units=GPa)
#
#
# Indices 1 2 3 4 5 6 
#
# 1 61.7661 21.3258 53.8473 0.0000 -12.2900 0.0000
# 2 21.3258 91.9927 46.8151 0.0000 -27.0295 0.0000
# 3 53.8473 46.8151 332.0554 0.0000 -62.4355 0.0000
# 4 0.0000 0.0000 0.0000 40.1713 0.0000 -12.1095
# 5 -12.2900 -27.0295 -62.4355 0.0000 53.5090 0.0000
# 6 0.0000 0.0000 0.0000 -12.1095 0.0000 17.4342
#
#
#
# Elastic Compliance Matrix: (Units=1/GPa)
#
#
# Indices 1 2 3 4 5 6 
#
# 1 0.019681 -0.003250 -0.002808 0.000000 -0.000398 0.000000
# 2 -0.003250 0.013450 -0.000297 0.000000 0.005701 0.000000
# 3 -0.002808 -0.000297 0.004303 0.000000 0.004226 0.000000
# 4 0.000000 0.000000 0.000000 0.031486 0.000000 0.021870
# 5 -0.000398 0.005701 0.004226 0.000000 0.026408 0.000000
# 6 0.000000 0.000000 0.000000 0.021870 0.000000 0.072549
#
#
# Mechanical properties :
#
#
# Convention : Reuss Voigt Hill
#
# Bulk Modulus (GPa) = 40.44773 81.08782 60.76778
# Shear Modulus (GPa) = 26.47873 46.47796 36.47834
#
# Velocity S-wave (km/s) = 3.09375 4.09883 3.63123
# Velocity P-wave (km/s) = 5.23282 7.19107 6.28863
#
# Compressibility (1/GPa) = 0.02472327
#
# Stress axis : x y z
#
# Youngs Moduli (GPa) = 50.80956 74.34804 232.36915
#
# Poissons Ratio (x) = 0.24166 0.65254
# Poissons Ratio (y) = 0.16515 0.06908
# Poissons Ratio (z) = 0.14268 0.02210
#
# Static dielectric constant tensor:
#      x y z
#    x 2.301980 0.000000 -0.016180 
#    y 0.000000 2.246560 0.000000 
#    z -0.016180 0.000000 2.217910 
# 
# From -- ./inp_files/77322.got.cif
#   From: 2010.05.17/outbox.cif.g08.bks.cpg/sg15_39_cif.got.tgz:77322.got - 2010.06.03 18:47:42.
