data_PCOD9257982
_publ_section_title
;
Structure prediction by ZEFSAII (Michael W. Deem and Ramdas Pophale) SiO2 
 PCOD9257982
Probable space group: C 2/C
;
_chemical_formula_sum "Si O2"
_cell_formula_units_Z 48
_cell_length_a 25.653705
_cell_length_b 11.692175
_cell_length_c 7.691040
_cell_angle_alpha 90.000000
_cell_angle_beta 70.242862
_cell_angle_gamma 90.000000
_cell_volume 2171.110336
_symmetry_space_group_name_H-M "C 2/C"
_symmetry_group_IT_number 15
_symmetry_cell_setting 'monoclinic'
loop_
_space_group_symop_operation_xyz
x,y,z
-x,y,1/2-z
-x,-y,-z
x,-y,1/2+z
1/2+x,1/2+y,z
1/2-x,1/2+y,1/2-z
1/2-x,1/2-y,-z
1/2+x,1/2-y,1/2+z
loop_
_atom_site_type_symbol
_atom_site_label
_atom_site_fract_x
_atom_site_fract_y
_atom_site_fract_z
Si Si1 0.666547 0.600068 0.009956
Si Si2 0.170928 0.715891 0.197529
Si Si3 0.289573 0.642740 0.163839
Si Si4 0.925135 0.598250 0.004910
Si Si5 0.039304 0.646186 0.042153
Si Si6 0.061430 0.802687 0.752416
O O1 0.698571 0.649597 0.143379
O O2 0.603060 0.600204 0.146498
O O3 0.670719 0.677570 0.832654
O O4 0.686906 0.476062 0.934224
O O5 0.224206 0.644137 0.197813
O O6 0.114219 0.647552 0.299104
O O7 0.182991 0.758870 0.988522
O O8 0.920144 0.462243 0.991090
O O9 0.913664 0.684378 0.859218
O O10 0.991011 0.614581 0.957172
O O11 0.000000 0.657714 0.250000
O O12 0.061504 0.768184 0.953977
O O13 0.000000 0.825978 0.750000
#
# Coordination Sequence:
#
# PCOD9257982 Si02
#       6
#     8   8   8   8   8   8
#     4  11  22  44  67  90 125 160 207 260 310 365
#     4  10  23  43  64  91 126 165 207 252 309 373
#     4  11  23  43  66  91 123 167 208 258 307 364
#     4   9  18  35  56  82 125 157 193 246 301 359
#     4  10  18  32  56  90 119 156 198 243 304 368
#     4   9  20  38  59  87 123 162 198 253 309 364
#
# _framework density 22.108502999999999
#
# number of rings (size 3 to 8) (size 9 to 14) (size 15 to 20)
#    0.000    2.000    1.667    3.000    2.333    0.000 
#   12.000    0.833    0.000    0.000    0.000    0.000 
#    0.000    0.000    0.000    0.000    0.000    0.000 
#
# Total GULP energy -133864.082561 kJ/mol
# GULP energy per Si atom -5577.670107 kJ/mol
# Density = 2.205818 g / cm^3
# Si number density = 22.108503 Si / 1000 Ang^3
#
#
#
# Elastic Constant Matrix: (Units=GPa)
#
#
# Indices 1 2 3 4 5 6 
#
# 1 65.5564 16.7685 -18.0374 0.0000 -9.3513 0.0000
# 2 16.7685 46.2875 4.8213 0.0000 -21.8934 0.0000
# 3 -18.0374 4.8213 43.5693 0.0000 1.3817 0.0000
# 4 0.0000 0.0000 0.0000 18.7878 0.0000 -8.8215
# 5 -9.3513 -21.8934 1.3817 0.0000 46.2769 0.0000
# 6 0.0000 0.0000 0.0000 -8.8215 0.0000 9.5616
#
#
#
# Elastic Compliance Matrix: (Units=1/GPa)
#
#
# Indices 1 2 3 4 5 6 
#
# 1 0.019845 -0.008209 0.009129 0.000000 -0.000146 0.000000
# 2 -0.008209 0.031772 -0.007345 0.000000 0.013592 0.000000
# 3 0.009129 -0.007345 0.027622 0.000000 -0.002455 0.000000
# 4 0.000000 0.000000 0.000000 0.093904 0.000000 0.086635
# 5 -0.000146 0.013592 -0.002455 0.000000 0.028083 0.000000
# 6 0.000000 0.000000 0.000000 0.086635 0.000000 0.184514
#
#
# Mechanical properties :
#
#
# Convention : Reuss Voigt Hill
#
# Bulk Modulus (GPa) = 15.06328 18.05754 16.56041
# Shear Modulus (GPa) = 11.88441 25.04931 18.46686
#
# Velocity S-wave (km/s) = 2.32103 3.36968 2.89326
# Velocity P-wave (km/s) = 3.74313 4.82961 4.32066
#
# Compressibility (1/GPa) = 0.06638661
#
# Stress axis : x y z
#
# Youngs Moduli (GPa) = 50.39158 31.47456 36.20334
#
# Poissons Ratio (x) = 0.25837 -0.33048
# Poissons Ratio (y) = 0.41366 0.26592
# Poissons Ratio (z) = -0.46000 0.23119
#
# Static dielectric constant tensor:
#      x y z
#    x 1.877270 0.000000 0.055600 
#    y 0.000000 1.821230 0.000000 
#    z 0.055600 0.000000 1.880620 
# 
# From -- ./inp_files/65031.got.cif
#   From: 2010.05.17/outbox.cif.g08.bks.cpg/sg15_33_cif.got.tgz:65031.got - 2010.06.03 18:47:42.
