data_PCOD9257435
_publ_section_title
;
Structure prediction by ZEFSAII (Michael W. Deem and Ramdas Pophale) SiO2 
 PCOD9257435
Probable space group: C 2/C
;
_chemical_formula_sum "Si O2"
_cell_formula_units_Z 48
_cell_length_a 7.402142
_cell_length_b 18.106360
_cell_length_c 24.961955
_cell_angle_alpha 90.000000
_cell_angle_beta 139.266303
_cell_angle_gamma 90.000000
_cell_volume 2183.117302
_symmetry_space_group_name_H-M "C 2/C"
_symmetry_group_IT_number 15
_symmetry_cell_setting 'monoclinic'
loop_
_space_group_symop_operation_xyz
x,y,z
-x,y,1/2-z
-x,-y,-z
x,-y,1/2+z
1/2+x,1/2+y,z
1/2-x,1/2+y,1/2-z
1/2-x,1/2-y,-z
1/2+x,1/2-y,1/2+z
loop_
_atom_site_type_symbol
_atom_site_label
_atom_site_fract_x
_atom_site_fract_y
_atom_site_fract_z
Si Si1 0.217395 0.369490 0.660352
Si Si2 0.380274 0.575854 0.039003
Si Si3 0.812722 0.302811 0.157004
Si Si4 0.336633 0.588701 0.516491
Si Si5 0.986111 0.693439 0.574027
Si Si6 0.671000 0.181761 0.338579
O O1 0.500000 0.402076 0.750000
O O2 0.274010 0.285194 0.655050
O O3 0.994529 0.401143 0.567281
O O4 0.024597 0.365539 0.668858
O O5 0.520354 0.583571 0.010999
O O6 0.568154 0.629969 0.117169
O O7 0.380608 0.490814 0.053581
O O8 0.081707 0.614239 0.965465
O O9 0.965989 0.312417 0.133886
O O10 0.000000 0.327305 0.250000
O O11 0.522610 0.347555 0.085693
O O12 0.750000 0.750000 0.500000
O O13 0.247252 0.741317 0.615534
O O14 0.500000 0.204712 0.250000
#
# Coordination Sequence:
#
# PCOD9257435 Si02
#       6
#     8   8   8   8   8   8
#     4  10  20  33  52  77 105 138 178 220 261 314
#     4   8  17  32  51  75 102 135 175 214 265 327
#     4  10  19  32  54  83 110 136 175 225 270 320
#     4   9  17  32  52  75 106 141 171 213 270 320
#     4   9  18  34  55  76 103 137 175 220 264 316
#     4  10  18  31  54  77 101 135 173 219 267 315
#
# _framework density 21.986910999999999
#
# number of rings (size 3 to 8) (size 9 to 14) (size 15 to 20)
#    0.000    2.667    0.000    3.500    0.000    0.667 
#    0.000    0.833    0.000   20.000    0.000    0.000 
#    0.000    0.000    0.000    0.000    0.000    0.000 
#
# Total GULP energy -133631.408672 kJ/mol
# GULP energy per Si atom -5567.975361 kJ/mol
# Density = 2.193687 g / cm^3
# Si number density = 21.986911 Si / 1000 Ang^3
#
#
#
# Elastic Constant Matrix: (Units=GPa)
#
#
# Indices 1 2 3 4 5 6 
#
# 1 23.4456 6.5071 44.8963 -0.0004 -3.8692 0.0000
# 2 6.5071 75.7553 31.9256 0.0011 11.9249 -0.0002
# 3 44.8963 31.9256 120.0388 0.0035 10.0900 -0.0013
# 4 -0.0004 0.0011 0.0035 19.2645 -0.0001 0.9047
# 5 -3.8692 11.9249 10.0900 -0.0001 27.1513 -0.0004
# 6 0.0000 -0.0002 -0.0013 0.9047 -0.0004 19.0000
#
#
#
# Elastic Compliance Matrix: (Units=1/GPa)
#
#
# Indices 1 2 3 4 5 6 
#
# 1 0.231756 0.009949 -0.094693 0.000023 0.063847 -0.000005
# 2 0.009949 0.016048 -0.007758 0.000001 -0.002747 0.000000
# 3 -0.094693 -0.007758 0.048163 -0.000011 -0.027985 0.000003
# 4 0.000023 0.000001 -0.000011 0.052025 0.000007 -0.002477
# 5 0.063847 -0.002747 -0.027985 0.000007 0.057536 -0.000001
# 6 -0.000005 0.000000 0.000003 -0.002477 -0.000001 0.052750
#
#
# Mechanical properties :
#
#
# Convention : Reuss Voigt Hill
#
# Bulk Modulus (GPa) = 9.01205 42.87752 25.94478
# Shear Modulus (GPa) = 7.35003 22.14388 14.74695
#
# Velocity S-wave (km/s) = 1.83035 3.17699 2.59263
# Velocity P-wave (km/s) = 2.92824 5.74468 4.55939
#
# Compressibility (1/GPa) = 0.11096259
#
# Stress axis : x y z
#
# Youngs Moduli (GPa) = 4.31488 62.31362 20.76280
#
# Poissons Ratio (x) = -0.61998 1.96609
# Poissons Ratio (y) = -0.04293 0.16109
# Poissons Ratio (z) = 0.40859 0.48345
#
# Static dielectric constant tensor:
#      x y z
#    x 2.004640 0.000000 0.047350 
#    y 0.000000 1.770720 0.000000 
#    z 0.047350 0.000000 1.900000 
# 
# From -- ./inp_files/308948.got.cif
#   From: 2010.05.17/outbox.cif.g08.bks.cpg/sg15_155_cif.got.tgz:308948.got - 2010.06.03 18:47:42.
