data_PCOD9257795
_publ_section_title
;
Structure prediction by ZEFSAII (Michael W. Deem and Ramdas Pophale) SiO2 
 PCOD9257795
Probable space group: C 2/C
;
_chemical_formula_sum "Si O2"
_cell_formula_units_Z 44
_cell_length_a 18.747224
_cell_length_b 7.662067
_cell_length_c 13.813071
_cell_angle_alpha 90.000000
_cell_angle_beta 120.575103
_cell_angle_gamma 90.000000
_cell_volume 1708.274734
_symmetry_space_group_name_H-M "C 2/C"
_symmetry_group_IT_number 15
_symmetry_cell_setting 'monoclinic'
loop_
_space_group_symop_operation_xyz
x,y,z
-x,y,1/2-z
-x,-y,-z
x,-y,1/2+z
1/2+x,1/2+y,z
1/2-x,1/2+y,1/2-z
1/2-x,1/2-y,-z
1/2+x,1/2-y,1/2+z
loop_
_atom_site_type_symbol
_atom_site_label
_atom_site_fract_x
_atom_site_fract_y
_atom_site_fract_z
Si Si1 0.751571 0.366400 0.883642
Si Si2 0.329926 0.380285 0.047455
Si Si3 0.500000 0.126113 0.750000
Si Si4 0.276756 0.482767 0.829209
Si Si5 0.397508 0.194645 0.262813
Si Si6 0.942259 0.345025 0.001031
O O1 0.703381 0.429280 0.944082
O O2 0.704867 0.480430 0.770234
O O3 0.747009 0.169709 0.845160
O O4 0.848589 0.414220 0.956740
O O5 0.399011 0.313982 0.168000
O O6 0.250000 0.250000 0.000000
O O7 0.347440 0.402600 0.946399
O O8 0.471059 0.219673 0.628652
O O9 0.565551 0.989037 0.750104
O O10 0.197222 0.358116 0.781602
O O11 0.432112 0.260087 0.391233
O O12 0.000000 0.500000 0.000000
#
# Coordination Sequence:
#
# PCOD9257795 Si02
#       6
#     8   8   4   8   8   8
#     4  11  20  34  55  82 112 139 175 227 269 314
#     4  10  19  33  52  79 110 139 174 218 269 319
#     4  10  18  32  54  74 106 146 184 222 258 312
#     4  10  20  33  55  85 109 138 174 219 275 324
#     4   9  19  34  53  80 106 139 180 222 266 321
#     4   9  18  31  50  77 102 135 180 217 254 309
#
# _framework density 25.756982000000001
#
# number of rings (size 3 to 8) (size 9 to 14) (size 15 to 20)
#    0.000    2.182    0.000    6.000    0.000    1.455 
#    0.000    0.000    0.000    8.727    0.000   57.273 
#    0.000    0.000    0.000    0.000    0.000    0.000 
#
# Total GULP energy -122598.165248 kJ/mol
# GULP energy per Si atom -5572.643875 kJ/mol
# Density = 2.569836 g / cm^3
# Si number density = 25.756982 Si / 1000 Ang^3
#
#
#
# Elastic Constant Matrix: (Units=GPa)
#
#
# Indices 1 2 3 4 5 6 
#
# 1 44.3244 -14.3503 34.9181 0.0000 -7.8897 0.0000
# 2 -14.3503 77.7696 41.9794 0.0000 -7.1887 0.0000
# 3 34.9181 41.9794 223.2305 0.0000 -26.0412 0.0000
# 4 0.0000 0.0000 0.0000 37.3464 0.0000 -2.6707
# 5 -7.8897 -7.1887 -26.0412 0.0000 28.2107 0.0000
# 6 0.0000 0.0000 0.0000 -2.6707 0.0000 6.3628
#
#
#
# Elastic Compliance Matrix: (Units=1/GPa)
#
#
# Indices 1 2 3 4 5 6 
#
# 1 0.031453 0.009600 -0.006067 0.000000 0.005642 0.000000
# 2 0.009600 0.017284 -0.004399 0.000000 0.003029 0.000000
# 3 -0.006067 -0.004399 0.006642 0.000000 0.003314 0.000000
# 4 0.000000 0.000000 0.000000 0.027605 0.000000 0.011587
# 5 0.005642 0.003029 0.003314 0.000000 0.040856 0.000000
# 6 0.000000 0.000000 0.000000 0.011587 0.000000 0.162028
#
#
# Mechanical properties :
#
#
# Convention : Reuss Voigt Hill
#
# Bulk Modulus (GPa) = 18.63977 52.26879 35.45428
# Shear Modulus (GPa) = 16.36753 33.23580 24.80167
#
# Velocity S-wave (km/s) = 2.52357 3.59606 3.10645
# Velocity P-wave (km/s) = 3.96783 6.13019 5.16348
#
# Compressibility (1/GPa) = 0.05364873
#
# Stress axis : x y z
#
# Youngs Moduli (GPa) = 31.79350 57.85581 150.54580
#
# Poissons Ratio (x) = -0.55543 0.91338
# Poissons Ratio (y) = -0.30523 0.66221
# Poissons Ratio (z) = 0.19289 0.25449
#
# Static dielectric constant tensor:
#      x y z
#    x 2.054690 0.000000 -0.053590 
#    y 0.000000 2.020670 0.000000 
#    z -0.053590 0.000000 2.196510 
# 
# From -- ./inp_files/171285.got.cif
#   From: 2010.05.17/outbox.cif.g08.bks.cpg/sg15_86_cif.got.tgz:171285.got - 2010.06.03 18:47:42.
