data_PCOD9257171
_publ_section_title
;
Structure prediction by ZEFSAII (Michael W. Deem and Ramdas Pophale) SiO2 
 PCOD9257171
Probable space group: C 2/C
;
_chemical_formula_sum "Si O2"
_cell_formula_units_Z 52
_cell_length_a 15.512003
_cell_length_b 9.163775
_cell_length_c 15.570141
_cell_angle_alpha 90.000000
_cell_angle_beta 104.152825
_cell_angle_gamma 90.000000
_cell_volume 2146.092811
_symmetry_space_group_name_H-M "C 2/C"
_symmetry_group_IT_number 15
_symmetry_cell_setting 'monoclinic'
loop_
_space_group_symop_operation_xyz
x,y,z
-x,y,1/2-z
-x,-y,-z
x,-y,1/2+z
1/2+x,1/2+y,z
1/2-x,1/2+y,1/2-z
1/2-x,1/2-y,-z
1/2+x,1/2-y,1/2+z
loop_
_atom_site_type_symbol
_atom_site_label
_atom_site_fract_x
_atom_site_fract_y
_atom_site_fract_z
Si Si1 0.596413 0.704600 0.568624
Si Si2 0.209694 0.399454 0.890199
Si Si3 0.500000 0.157740 0.750000
Si Si4 0.894226 0.214881 0.499603
Si Si5 0.226116 0.213920 0.733386
Si Si6 0.123690 0.465625 0.141107
Si Si7 0.151887 0.266911 0.395410
O O1 0.493816 0.657117 0.538027
O O2 0.646361 0.636002 0.663030
O O3 0.647258 0.697262 0.488707
O O4 0.605509 0.876551 0.596684
O O5 0.149341 0.284055 0.926475
O O6 0.201799 0.345757 0.790351
O O7 0.173103 0.559224 0.904659
O O8 0.313366 0.383380 0.943233
O O9 0.436849 0.057404 0.790678
O O10 0.444649 0.251887 0.669594
O O11 0.906597 0.348713 0.437254
O O12 0.281532 0.102150 0.805671
O O13 0.283341 0.277743 0.666836
#
# Coordination Sequence:
#
# PCOD9257171 Si02
#       7
#     8   8   4   8   8   8   8
#     4  12  21  37  62  91 117 162 212 252 304 373
#     4  10  21  39  57  89 125 162 192 258 323 360
#     4  10  18  30  56  90 114 144 196 258 292 340
#     4  10  20  36  62  90 120 154 203 256 311 368
#     4  10  23  35  54  89 125 158 203 254 310 369
#     4  10  19  35  56  87 122 152 194 259 310 346
#     4  11  21  37  61  88 123 159 207 258 308 360
#
# _framework density 24.230080999999998
#
# number of rings (size 3 to 8) (size 9 to 14) (size 15 to 20)
#    0.000    1.538    3.077    3.692    0.000    0.615 
#    0.000    0.769    0.000    0.000    4.000    0.000 
#    0.000    0.000    0.000    0.000    0.000    0.000 
#
# Total GULP energy -145261.733074 kJ/mol
# GULP energy per Si atom -5586.989734 kJ/mol
# Density = 2.417493 g / cm^3
# Si number density = 24.230081 Si / 1000 Ang^3
#
#
#
# Elastic Constant Matrix: (Units=GPa)
#
#
# Indices 1 2 3 4 5 6 
#
# 1 106.3888 2.9697 52.7094 0.0000 15.4554 0.0000
# 2 2.9697 49.5938 14.3202 0.0000 -2.7917 0.0000
# 3 52.7094 14.3202 149.9553 0.0000 6.1440 0.0000
# 4 0.0000 0.0000 0.0000 29.7786 0.0000 -6.9784
# 5 15.4554 -2.7917 6.1440 0.0000 54.8649 0.0000
# 6 0.0000 0.0000 0.0000 -6.9784 0.0000 19.9025
#
#
#
# Elastic Compliance Matrix: (Units=1/GPa)
#
#
# Indices 1 2 3 4 5 6 
#
# 1 0.011821 0.000306 -0.004067 0.000000 -0.002859 0.000000
# 2 0.000306 0.020834 -0.002147 0.000000 0.001214 0.000000
# 3 -0.004067 -0.002147 0.008299 0.000000 0.000107 0.000000
# 4 0.000000 0.000000 0.000000 0.036587 0.000000 0.012829
# 5 -0.002859 0.001214 0.000107 0.000000 0.019082 0.000000
# 6 0.000000 0.000000 0.000000 0.012829 0.000000 0.054743
#
#
# Mechanical properties :
#
#
# Convention : Reuss Voigt Hill
#
# Bulk Modulus (GPa) = 34.32029 49.54851 41.93440
# Shear Modulus (GPa) = 28.91921 36.63843 32.77882
#
# Velocity S-wave (km/s) = 3.45849 3.89280 3.68205
# Velocity P-wave (km/s) = 5.49029 6.37956 5.95156
#
# Compressibility (1/GPa) = 0.02913728
#
# Stress axis : x y z
#
# Youngs Moduli (GPa) = 84.59246 47.99903 120.49771
#
# Poissons Ratio (x) = -0.01467 0.49010
# Poissons Ratio (y) = -0.02585 0.25868
# Poissons Ratio (z) = 0.34406 0.10304
#
# Static dielectric constant tensor:
#      x y z
#    x 2.010820 0.000000 0.063690 
#    y 0.000000 1.957160 0.000000 
#    z 0.063690 0.000000 1.951550 
# 
# From -- ./inp_files/152680.got.cif
#   From: 2010.05.17/outbox.cif.g08.bks.cpg/sg15_77_cif.got.tgz:152680.got - 2010.06.03 18:47:42.
