data_PCOD9257279
_publ_section_title
;
Structure prediction by ZEFSAII (Michael W. Deem and Ramdas Pophale) SiO2 
 PCOD9257279
Probable space group: C 2/C
;
_chemical_formula_sum "Si O2"
_cell_formula_units_Z 48
_cell_length_a 24.503118
_cell_length_b 11.372035
_cell_length_c 23.507191
_cell_angle_alpha 90.000000
_cell_angle_beta 156.639672
_cell_angle_gamma 90.000000
_cell_volume 2597.269276
_symmetry_space_group_name_H-M "C 2/C"
_symmetry_group_IT_number 15
_symmetry_cell_setting 'monoclinic'
loop_
_space_group_symop_operation_xyz
x,y,z
-x,y,1/2-z
-x,-y,-z
x,-y,1/2+z
1/2+x,1/2+y,z
1/2-x,1/2+y,1/2-z
1/2-x,1/2-y,-z
1/2+x,1/2-y,1/2+z
loop_
_atom_site_type_symbol
_atom_site_label
_atom_site_fract_x
_atom_site_fract_y
_atom_site_fract_z
Si Si1 0.130828 0.395309 0.036327
Si Si2 0.099854 0.120131 0.895279
Si Si3 0.118223 0.605911 0.401022
Si Si4 0.541615 0.473234 0.463759
Si Si5 0.715305 0.570026 0.235333
Si Si6 0.637409 0.243543 0.193649
O O1 0.179492 0.485189 0.131352
O O2 0.240236 0.286156 0.146992
O O3 0.149888 0.449780 0.992147
O O4 0.973760 0.353603 0.893440
O O5 0.071201 0.260592 0.873531
O O6 0.079390 0.053394 0.934966
O O7 0.000000 0.075348 0.750000
O O8 0.251358 0.112918 0.014772
O O9 0.000000 0.549945 0.250000
O O10 0.426240 0.572919 0.363720
O O11 0.668872 0.480329 0.628808
O O12 0.456409 0.358088 0.403210
O O13 0.785857 0.693388 0.288068
#
# Coordination Sequence:
#
# PCOD9257279 Si02
#       6
#     8   8   8   8   8   8
#     4  11  22  34  53  76 110 143 175 215 259 307
#     4  10  18  31  50  72 103 142 174 194 250 323
#     4  10  21  29  48  76 105 141 174 202 248 317
#     4  10  20  34  53  76 110 142 173 216 260 309
#     4  10  21  33  51  74 103 145 181 214 260 305
#     4  11  19  35  52  74 106 143 173 216 260 302
#
# _framework density 18.480948999999999
#
# number of rings (size 3 to 8) (size 9 to 14) (size 15 to 20)
#    0.000    1.667    3.333    2.500    7.000    0.000 
#    0.000    0.000    0.000    0.000    0.000    0.000 
#    0.000   86.667    0.000    0.000    0.000    0.000 
#
# Total GULP energy -133733.218795 kJ/mol
# GULP energy per Si atom -5572.217450 kJ/mol
# Density = 1.843889 g / cm^3
# Si number density = 18.480949 Si / 1000 Ang^3
#
#
#
# Elastic Constant Matrix: (Units=GPa)
#
#
# Indices 1 2 3 4 5 6 
#
# 1 133.8629 29.0474 52.5638 0.0000 -22.5241 0.0000
# 2 29.0474 18.5664 18.3641 0.0001 -5.3056 0.0001
# 3 52.5638 18.3641 106.2411 0.0002 -14.4767 0.0001
# 4 0.0000 0.0001 0.0002 21.0459 0.0001 3.3892
# 5 -22.5241 -5.3056 -14.4767 0.0001 32.9858 0.0000
# 6 0.0000 0.0001 0.0001 3.3892 0.0000 21.3229
#
#
#
# Elastic Compliance Matrix: (Units=1/GPa)
#
#
# Indices 1 2 3 4 5 6 
#
# 1 0.012910 -0.015838 -0.002973 0.000000 0.004963 0.000000
# 2 -0.015838 0.085487 -0.006957 0.000000 -0.000118 0.000000
# 3 -0.002973 -0.006957 0.012398 0.000000 0.002292 0.000000
# 4 0.000000 0.000000 0.000000 0.048763 0.000000 -0.007751
# 5 0.004963 -0.000118 0.002292 0.000000 0.034692 0.000000
# 6 0.000000 0.000000 0.000000 -0.007751 0.000000 0.048130
#
#
# Mechanical properties :
#
#
# Convention : Reuss Voigt Hill
#
# Bulk Modulus (GPa) = 16.87510 50.95789 33.91649
# Shear Modulus (GPa) = 15.94031 25.65059 20.79545
#
# Velocity S-wave (km/s) = 2.94007 3.72956 3.35809
# Velocity P-wave (km/s) = 4.54711 6.79553 5.78167
#
# Compressibility (1/GPa) = 0.05925891
#
# Stress axis : x y z
#
# Youngs Moduli (GPa) = 77.46100 11.69764 80.65548
#
# Poissons Ratio (x) = 0.18527 0.23981
# Poissons Ratio (y) = 1.22686 0.56109
# Poissons Ratio (z) = 0.23031 0.08138
#
# Static dielectric constant tensor:
#      x y z
#    x 1.677980 0.000000 0.023640 
#    y 0.000000 1.677590 0.000000 
#    z 0.023640 0.000000 1.718590 
# 
# From -- ./inp_files/252898.got.cif
#   From: 2010.05.17/outbox.cif.g08.bks.cpg/sg15_127_cif.got.tgz:252898.got - 2010.06.03 18:47:42.
