data_PCOD9257254
_publ_section_title
;
Structure prediction by ZEFSAII (Michael W. Deem and Ramdas Pophale) SiO2 
 PCOD9257254
Probable space group: C 2/C
;
_chemical_formula_sum "Si O2"
_cell_formula_units_Z 48
_cell_length_a 16.027145
_cell_length_b 12.402696
_cell_length_c 9.213970
_cell_angle_alpha 90.000000
_cell_angle_beta 93.279667
_cell_angle_gamma 90.000000
_cell_volume 1828.551432
_symmetry_space_group_name_H-M "C 2/C"
_symmetry_group_IT_number 15
_symmetry_cell_setting 'monoclinic'
loop_
_space_group_symop_operation_xyz
x,y,z
-x,y,1/2-z
-x,-y,-z
x,-y,1/2+z
1/2+x,1/2+y,z
1/2-x,1/2+y,1/2-z
1/2-x,1/2-y,-z
1/2+x,1/2-y,1/2+z
loop_
_atom_site_type_symbol
_atom_site_label
_atom_site_fract_x
_atom_site_fract_y
_atom_site_fract_z
Si Si1 0.415410 0.520639 0.703092
Si Si2 0.817945 0.111475 0.444970
Si Si3 0.778281 0.720983 0.725706
Si Si4 0.896981 0.345667 0.864535
Si Si5 0.445218 0.707239 0.102456
Si Si6 0.651332 0.996636 0.376291
O O1 0.500000 0.579380 0.750000
O O2 0.359011 0.598334 0.603767
O O3 0.367365 0.462292 0.830653
O O4 0.448520 0.421320 0.606067
O O5 0.811168 0.229866 0.379545
O O6 0.726312 0.065582 0.445709
O O7 0.688524 0.775245 0.678606
O O8 0.847075 0.771323 0.622212
O O9 0.799635 0.595418 0.712606
O O10 0.905010 0.423222 0.725261
O O11 0.961801 0.264143 0.950580
O O12 0.888709 0.432381 0.995308
O O13 0.500000 0.743804 0.250000
#
# Coordination Sequence:
#
# PCOD9257254 Si02
#       6
#     8   8   8   8   8   8
#     4  10  19  31  49  72  99 127 157 193 238 289
#     4  10  18  31  49  72  95 125 159 196 236 282
#     4   9  18  32  51  70  98 129 159 196 238 287
#     4  10  19  33  52  73  97 126 161 201 238 281
#     4   9  17  31  51  72  94 128 165 194 233 289
#     4  10  18  32  51  71  95 125 161 200 238 278
#
# _framework density 26.250288000000001
#
# number of rings (size 3 to 8) (size 9 to 14) (size 15 to 20)
#    0.000    2.333    0.000    6.500    0.000    0.000 
#    0.000   12.500    0.000    1.000    0.000    0.000 
#    0.000    0.000    0.000    0.000    0.000    0.000 
#
# Total GULP energy -134070.235947 kJ/mol
# GULP energy per Si atom -5586.259831 kJ/mol
# Density = 2.619054 g / cm^3
# Si number density = 26.250288 Si / 1000 Ang^3
#
#
#
# Elastic Constant Matrix: (Units=GPa)
#
#
# Indices 1 2 3 4 5 6 
#
# 1 53.6623 22.7379 44.6476 0.0000 18.8662 0.0000
# 2 22.7379 92.1675 55.0055 0.0000 3.7594 0.0000
# 3 44.6476 55.0055 149.3842 0.0000 19.9760 0.0000
# 4 0.0000 0.0000 0.0000 66.3652 0.0000 -9.3192
# 5 18.8662 3.7594 19.9760 0.0000 43.3180 0.0000
# 6 0.0000 0.0000 0.0000 -9.3192 0.0000 14.2478
#
#
#
# Elastic Compliance Matrix: (Units=1/GPa)
#
#
# Indices 1 2 3 4 5 6 
#
# 1 0.028206 -0.002931 -0.006120 0.000000 -0.009208 0.000000
# 2 -0.002931 0.014272 -0.004672 0.000000 0.002192 0.000000
# 3 -0.006120 -0.004672 0.010479 0.000000 -0.001762 0.000000
# 4 0.000000 0.000000 0.000000 0.016592 0.000000 0.010853
# 5 -0.009208 0.002192 -0.001762 0.000000 0.027718 0.000000
# 6 0.000000 0.000000 0.000000 0.010853 0.000000 0.077285
#
#
# Mechanical properties :
#
#
# Convention : Reuss Voigt Hill
#
# Bulk Modulus (GPa) = 39.19809 59.99955 49.59882
# Shear Modulus (GPa) = 23.75295 36.30773 30.03034
#
# Velocity S-wave (km/s) = 3.01136 3.72309 3.38598
# Velocity P-wave (km/s) = 5.20153 6.43337 5.84996
#
# Compressibility (1/GPa) = 0.02551145
#
# Stress axis : x y z
#
# Youngs Moduli (GPa) = 35.45380 70.06792 95.42721
#
# Poissons Ratio (x) = 0.20534 0.58398
# Poissons Ratio (y) = 0.10390 0.44587
# Poissons Ratio (z) = 0.21696 0.32738
#
# Static dielectric constant tensor:
#      x y z
#    x 2.087740 0.000000 -0.070290 
#    y 0.000000 2.052720 0.000000 
#    z -0.070290 0.000000 2.172450 
# 
# From -- ./inp_files/55415.got.cif
#   From: 2010.05.17/outbox.cif.g08.bks.cpg/sg15_28_cif.got.tgz:55415.got - 2010.06.03 18:47:42.
