data_PCOD9257778
_publ_section_title
;
Structure prediction by ZEFSAII (Michael W. Deem and Ramdas Pophale) SiO2 
 PCOD9257778
Probable space group: C 2/C
;
_chemical_formula_sum "Si O2"
_cell_formula_units_Z 48
_cell_length_a 12.723876
_cell_length_b 14.713049
_cell_length_c 21.273840
_cell_angle_alpha 90.000000
_cell_angle_beta 146.035225
_cell_angle_gamma 90.000000
_cell_volume 2225.018066
_symmetry_space_group_name_H-M "C 2/C"
_symmetry_group_IT_number 15
_symmetry_cell_setting 'monoclinic'
loop_
_space_group_symop_operation_xyz
x,y,z
-x,y,1/2-z
-x,-y,-z
x,-y,1/2+z
1/2+x,1/2+y,z
1/2-x,1/2+y,1/2-z
1/2-x,1/2-y,-z
1/2+x,1/2-y,1/2+z
loop_
_atom_site_type_symbol
_atom_site_label
_atom_site_fract_x
_atom_site_fract_y
_atom_site_fract_z
Si Si1 0.284572 0.983949 0.120476
Si Si2 0.384131 0.888672 0.568422
Si Si3 0.318264 0.751412 0.442416
Si Si4 0.916653 0.212449 0.124185
Si Si5 0.196184 0.123821 0.178997
Si Si6 0.758108 0.213161 0.850730
O O1 0.500000 0.998079 0.250000
O O2 0.242245 0.879124 0.109828
O O3 0.285614 0.023635 0.050707
O O4 0.170912 0.045828 0.113925
O O5 0.310306 0.854638 0.464032
O O6 0.324582 0.809132 0.588106
O O7 0.609854 0.894305 0.687505
O O8 0.296005 0.716776 0.359748
O O9 0.532265 0.725763 0.568365
O O10 0.810686 0.204350 0.138450
O O11 0.026798 0.132673 0.143944
O O12 0.086152 0.286634 0.216848
O O13 0.750000 0.250000 0.000000
#
# Coordination Sequence:
#
# PCOD9257778 Si02
#       6
#     8   8   8   8   8   8
#     4   9  18  34  54  83 109 136 178 238 278 310
#     4   9  19  32  51  80 115 140 174 230 276 324
#     4  10  18  32  53  81 107 144 182 218 276 334
#     4  11  21  35  51  82 113 149 182 228 273 334
#     4  10  19  33  53  78 112 145 178 227 275 327
#     4  11  21  35  57  83 108 139 189 235 267 326
#
# _framework density 21.572859000000001
#
# number of rings (size 3 to 8) (size 9 to 14) (size 15 to 20)
#    0.000    2.000    5.000    1.500    0.000    2.667 
#    0.000    0.000    0.000    1.000    8.667    0.000 
#    0.000    0.000    0.000    0.000    0.000    0.000 
#
# Total GULP energy -133660.942551 kJ/mol
# GULP energy per Si atom -5569.205940 kJ/mol
# Density = 2.152376 g / cm^3
# Si number density = 21.572859 Si / 1000 Ang^3
#
#
#
# Elastic Constant Matrix: (Units=GPa)
#
#
# Indices 1 2 3 4 5 6 
#
# 1 92.9099 34.1456 18.7141 -0.0001 16.6293 0.0000
# 2 34.1456 60.1510 10.9619 -0.0001 -3.0825 -0.0001
# 3 18.7141 10.9619 63.7893 -0.0008 18.7196 -0.0004
# 4 -0.0001 -0.0001 -0.0008 26.3460 -0.0002 -2.3134
# 5 16.6293 -3.0825 18.7196 -0.0002 42.5068 -0.0001
# 6 0.0000 -0.0001 -0.0004 -2.3134 -0.0001 26.8673
#
#
#
# Elastic Compliance Matrix: (Units=1/GPa)
#
#
# Indices 1 2 3 4 5 6 
#
# 1 0.015330 -0.008798 -0.001192 0.000000 -0.006110 0.000000
# 2 -0.008798 0.022534 -0.003193 0.000000 0.006482 0.000000
# 3 -0.001192 -0.003193 0.018956 0.000001 -0.008113 0.000000
# 4 0.000000 0.000000 0.000001 0.038246 0.000000 0.003293
# 5 -0.006110 0.006482 -0.008113 0.000000 0.029959 0.000000
# 6 0.000000 0.000000 0.000000 0.003293 0.000000 0.037503
#
#
# Mechanical properties :
#
#
# Convention : Reuss Voigt Hill
#
# Bulk Modulus (GPa) = 32.83899 38.27705 35.55802
# Shear Modulus (GPa) = 25.11964 29.34593 27.23279
#
# Velocity S-wave (km/s) = 3.41605 3.69225 3.55683
# Velocity P-wave (km/s) = 5.55109 5.99655 5.77811
#
# Compressibility (1/GPa) = 0.03045161
#
# Stress axis : x y z
#
# Youngs Moduli (GPa) = 65.22949 44.37830 52.75346
#
# Poissons Ratio (x) = 0.39046 0.06290
# Poissons Ratio (y) = 0.57392 0.16846
# Poissons Ratio (z) = 0.07778 0.14172
#
# Static dielectric constant tensor:
#      x y z
#    x 1.863010 0.000000 -0.063490 
#    y 0.000000 1.807740 0.000000 
#    z -0.063490 0.000000 1.881490 
# 
# From -- ./inp_files/239037.got.cif
#   From: 2010.05.17/outbox.cif.g08.bks.cpg/sg15_120_cif.got.tgz:239037.got - 2010.06.03 18:47:42.
