data_PCOD9257278
_publ_section_title
;
Structure prediction by ZEFSAII (Michael W. Deem and Ramdas Pophale) SiO2 
 PCOD9257278
Probable space group: C 2/C
;
_chemical_formula_sum "Si O2"
_cell_formula_units_Z 40
_cell_length_a 11.421226
_cell_length_b 18.690668
_cell_length_c 7.899711
_cell_angle_alpha 90.000000
_cell_angle_beta 84.945789
_cell_angle_gamma 90.000000
_cell_volume 1679.797119
_symmetry_space_group_name_H-M "C 2/C"
_symmetry_group_IT_number 15
_symmetry_cell_setting 'monoclinic'
loop_
_space_group_symop_operation_xyz
x,y,z
-x,y,1/2-z
-x,-y,-z
x,-y,1/2+z
1/2+x,1/2+y,z
1/2-x,1/2+y,1/2-z
1/2-x,1/2-y,-z
1/2+x,1/2-y,1/2+z
loop_
_atom_site_type_symbol
_atom_site_label
_atom_site_fract_x
_atom_site_fract_y
_atom_site_fract_z
Si Si1 0.336497 0.927356 0.045049
Si Si2 0.376047 0.336994 0.907255
Si Si3 0.150874 0.412425 0.838101
Si Si4 0.159839 0.321789 0.150822
Si Si5 0.554854 0.425940 0.058773
O O1 0.367483 0.872071 0.188670
O O2 0.194516 0.928356 0.050722
O O3 0.371205 0.007701 0.093165
O O4 0.383304 0.907608 0.853105
O O5 0.292434 0.395743 0.828354
O O6 0.372888 0.260118 0.820410
O O7 0.299632 0.324195 0.090535
O O8 0.502253 0.365998 0.940824
O O9 0.107964 0.644560 0.483535
O O10 0.500000 0.413754 0.250000
O O11 0.500000 0.500000 0.000000
#
# Coordination Sequence:
#
# PCOD9257278 Si02
#       5
#     8   8   8   8   8
#     4  12  19  30  52  76 100 138 177 207 259 312
#     4   9  19  34  45  65 109 142 171 215 251 301
#     4  10  18  31  50  72 101 139 173 210 251 305
#     4   9  19  36  45  66 105 142 177 211 249 305
#     4  12  20  30  49  77 106 140 169 207 257 310
#
# _framework density 23.812398000000002
#
# number of rings (size 3 to 8) (size 9 to 14) (size 15 to 20)
#    1.200    0.400    6.000    1.200    0.000    0.800 
#    0.000    0.000    0.000    0.000    0.000    0.000 
#    0.000    6.400    1.600    2.800    0.000    0.000 
#
# Total GULP energy -111876.536213 kJ/mol
# GULP energy per Si atom -5593.826811 kJ/mol
# Density = 2.375820 g / cm^3
# Si number density = 23.812398 Si / 1000 Ang^3
#
#
#
# Elastic Constant Matrix: (Units=GPa)
#
#
# Indices 1 2 3 4 5 6 
#
# 1 108.7687 9.9084 17.2772 0.0000 -6.8929 0.0000
# 2 9.9084 161.6928 56.7578 0.0000 12.5387 0.0000
# 3 17.2772 56.7578 152.3169 0.0000 1.8484 0.0000
# 4 0.0000 0.0000 0.0000 39.1721 0.0000 10.7734
# 5 -6.8929 12.5387 1.8484 0.0000 36.6093 0.0000
# 6 0.0000 0.0000 0.0000 10.7734 0.0000 11.3565
#
#
#
# Elastic Compliance Matrix: (Units=1/GPa)
#
#
# Indices 1 2 3 4 5 6 
#
# 1 0.009507 -0.000401 -0.000953 0.000000 0.001976 0.000000
# 2 -0.000401 0.007332 -0.002657 0.000000 -0.002453 0.000000
# 3 -0.000953 -0.002657 0.007659 0.000000 0.000344 0.000000
# 4 0.000000 0.000000 0.000000 0.034540 0.000000 -0.032767
# 5 0.001976 -0.002453 0.000344 0.000000 0.028510 0.000000
# 6 0.000000 0.000000 0.000000 -0.032767 0.000000 0.119139
#
#
# Mechanical properties :
#
#
# Convention : Reuss Voigt Hill
#
# Bulk Modulus (GPa) = 60.69368 65.62946 63.16157
# Shear Modulus (GPa) = 22.70645 40.01658 31.36151
#
# Velocity S-wave (km/s) = 3.09132 4.10383 3.63302
# Velocity P-wave (km/s) = 6.18751 7.07645 6.64686
#
# Compressibility (1/GPa) = 0.01647618
#
# Stress axis : x y z
#
# Youngs Moduli (GPa) = 105.18654 136.38936 130.56245
#
# Poissons Ratio (x) = 0.05474 0.12440
# Poissons Ratio (y) = 0.04221 0.34688
# Poissons Ratio (z) = 0.10022 0.36236
#
# Static dielectric constant tensor:
#      x y z
#    x 2.009800 0.000000 -0.045190 
#    y 0.000000 1.836180 0.000000 
#    z -0.045190 0.000000 1.915770 
# 
# From -- ./inp_files/38711.got.cif
#   From: 2010.05.17/outbox.cif.g08.bks.cpg/sg15_20_cif.got.tgz:38711.got - 2010.06.03 18:47:42.
