data_PCOD9257880
_publ_section_title
;
Structure prediction by ZEFSAII (Michael W. Deem and Ramdas Pophale) SiO2 
 PCOD9257880
Probable space group: C 2/C
;
_chemical_formula_sum "Si O2"
_cell_formula_units_Z 56
_cell_length_a 12.504679
_cell_length_b 19.608130
_cell_length_c 10.622888
_cell_angle_alpha 90.000000
_cell_angle_beta 126.984325
_cell_angle_gamma 90.000000
_cell_volume 2080.604110
_symmetry_space_group_name_H-M "C 2/C"
_symmetry_group_IT_number 15
_symmetry_cell_setting 'monoclinic'
loop_
_space_group_symop_operation_xyz
x,y,z
-x,y,1/2-z
-x,-y,-z
x,-y,1/2+z
1/2+x,1/2+y,z
1/2-x,1/2+y,1/2-z
1/2-x,1/2-y,-z
1/2+x,1/2-y,1/2+z
loop_
_atom_site_type_symbol
_atom_site_label
_atom_site_fract_x
_atom_site_fract_y
_atom_site_fract_z
Si Si1 0.984300 0.577552 0.866732
Si Si2 0.247875 0.147358 0.795995
Si Si3 0.500000 0.636947 0.750000
Si Si4 0.709390 0.440186 0.859383
Si Si5 0.726684 0.035748 0.369572
Si Si6 0.067266 0.754472 0.503869
Si Si7 0.356397 0.691797 0.041918
Si Si8 0.000000 0.352721 0.750000
O O1 0.887444 0.609848 0.898167
O O2 0.894775 0.514711 0.756715
O O3 0.000000 0.621407 0.750000
O O4 0.128698 0.566340 0.024042
O O5 0.131817 0.107328 0.782861
O O6 0.202745 0.153191 0.621412
O O7 0.285479 0.223405 0.868601
O O8 0.439643 0.680183 0.590592
O O9 0.693630 0.494718 0.963625
O O10 0.644946 0.368117 0.855001
O O11 0.683340 0.454305 0.692738
O O12 0.637932 0.102339 0.345084
O O13 0.989693 0.771760 0.578845
O O14 0.993307 0.698534 0.364305
O O15 0.250000 0.750000 0.000000
#
# Coordination Sequence:
#
# PCOD9257880 Si02
#       8
#     8   8   4   8   8   8   8   4
#     4  10  18  32  54  92 124 163 210 262 331 385
#     4  11  20  37  61  85 126 172 213 270 331 400
#     4   9  22  40  54  88 122 166 221 264 328 397
#     4  11  22  37  57  96 142 173 223 275 344 395
#     4  11  21  33  57  92 139 173 214 282 332 392
#     4  10  23  36  60  90 132 172 220 273 331 400
#     4  11  22  37  57  90 135 174 216 272 335 403
#     4  11  20  36  58  98 144 168 223 278 340 389
#
# _framework density 26.915258000000001
#
# number of rings (size 3 to 8) (size 9 to 14) (size 15 to 20)
#    0.000    1.429    5.000    3.429    2.000    0.000 
#    0.000    0.000    0.000    0.000    0.000   17.000 
#    0.000    0.000    0.000    0.000    0.000    0.000 
#
# Total GULP energy -156491.331701 kJ/mol
# GULP energy per Si atom -5588.976132 kJ/mol
# Density = 2.685400 g / cm^3
# Si number density = 26.915258 Si / 1000 Ang^3
#
#
#
# Elastic Constant Matrix: (Units=GPa)
#
#
# Indices 1 2 3 4 5 6 
#
# 1 145.0129 46.1123 65.6518 0.0000 -42.1740 0.0000
# 2 46.1123 107.3702 58.8497 0.0000 -27.6436 0.0000
# 3 65.6518 58.8497 78.2714 0.0000 -29.4487 0.0000
# 4 0.0000 0.0000 0.0000 38.2736 0.0000 -19.3154
# 5 -42.1740 -27.6436 -29.4487 0.0000 48.9798 0.0000
# 6 0.0000 0.0000 0.0000 -19.3154 0.0000 21.7783
#
#
#
# Elastic Compliance Matrix: (Units=1/GPa)
#
#
# Indices 1 2 3 4 5 6 
#
# 1 0.012292 0.001141 -0.008974 0.000000 0.005833 0.000000
# 2 0.001141 0.016151 -0.012020 0.000000 0.002871 0.000000
# 3 -0.008974 -0.012020 0.030863 0.000000 0.004045 0.000000
# 4 0.000000 0.000000 0.000000 0.047298 0.000000 0.041949
# 5 0.005833 0.002871 0.004045 0.000000 0.029491 0.000000
# 6 0.000000 0.000000 0.000000 0.041949 0.000000 0.083123
#
#
# Mechanical properties :
#
#
# Convention : Reuss Voigt Hill
#
# Bulk Modulus (GPa) = 51.02156 74.65358 62.83757
# Shear Modulus (GPa) = 18.83543 32.47571 25.65557
#
# Velocity S-wave (km/s) = 2.64825 3.47737 3.09074
# Velocity P-wave (km/s) = 5.32433 6.62718 6.01116
#
# Compressibility (1/GPa) = 0.01959956
#
# Stress axis : x y z
#
# Youngs Moduli (GPa) = 81.35314 61.91545 32.40170
#
# Poissons Ratio (x) = -0.07065 0.29076
# Poissons Ratio (y) = -0.09283 0.38948
# Poissons Ratio (z) = 0.73004 0.74425
#
# Static dielectric constant tensor:
#      x y z
#    x 1.636780 0.000000 0.358490 
#    y 0.000000 2.258230 0.000000 
#    z 0.358490 0.000000 1.746210 
# 
# From -- ./inp_files/89676.got.cif
#   From: 2010.05.17/outbox.cif.g08.bks.cpg/sg15_45_cif.got.tgz:89676.got - 2010.06.03 18:47:42.
