data_PCOD9257828
_publ_section_title
;
Structure prediction by ZEFSAII (Michael W. Deem and Ramdas Pophale) SiO2 
 PCOD9257828
Probable space group: C 2/C
;
_chemical_formula_sum "Si O2"
_cell_formula_units_Z 56
_cell_length_a 24.980750
_cell_length_b 10.065609
_cell_length_c 17.007151
_cell_angle_alpha 90.000000
_cell_angle_beta 32.153006
_cell_angle_gamma 90.000000
_cell_volume 2275.816902
_symmetry_space_group_name_H-M "C 2/C"
_symmetry_group_IT_number 15
_symmetry_cell_setting 'monoclinic'
loop_
_space_group_symop_operation_xyz
x,y,z
-x,y,1/2-z
-x,-y,-z
x,-y,1/2+z
1/2+x,1/2+y,z
1/2-x,1/2+y,1/2-z
1/2-x,1/2-y,-z
1/2+x,1/2-y,1/2+z
loop_
_atom_site_type_symbol
_atom_site_label
_atom_site_fract_x
_atom_site_fract_y
_atom_site_fract_z
Si Si1 0.099444 0.760431 0.729477
Si Si2 0.214231 0.934065 0.948918
Si Si3 0.968466 0.255167 0.869423
Si Si4 0.157307 0.933829 0.184624
Si Si5 0.337492 0.245997 0.189428
Si Si6 0.951326 0.356930 0.056204
Si Si7 0.361557 0.270397 0.987400
O O1 0.154019 0.712837 0.581015
O O2 0.980946 0.757211 0.854999
O O3 0.124993 0.912395 0.721485
O O4 0.119407 0.670006 0.781049
O O5 0.301734 0.878462 0.785542
O O6 0.121288 0.839237 0.044256
O O7 0.235378 0.918490 0.015401
O O8 0.170217 0.077328 0.984020
O O9 0.000000 0.331183 0.750000
O O10 0.062199 0.161074 0.779447
O O11 0.926009 0.334947 0.996802
O O12 0.194260 0.877541 0.222464
O O13 0.458325 0.247612 0.040934
O O14 0.308853 0.225819 0.134069
O O15 0.000000 0.500000 0.000000
#
# Coordination Sequence:
#
# PCOD9257828 Si02
#       7
#     8   8   8   8   8   8   8
#     4   9  17  34  59  81 104 135 189 235 264 313
#     4  10  18  32  54  80 117 138 174 231 279 328
#     4   9  18  33  55  81 105 137 181 224 273 322
#     4   9  17  32  57  84 103 138 181 230 274 319
#     4  10  21  32  54  81 112 141 180 223 281 331
#     4  10  22  37  54  78 108 148 185 222 269 332
#     4   9  18  32  54  84 107 139 182 231 271 316
#
# _framework density 24.606549000000001
#
# number of rings (size 3 to 8) (size 9 to 14) (size 15 to 20)
#    0.000    2.571    1.429    0.429    2.000    2.857 
#    5.143    0.000    6.286    2.571    0.000    0.000 
#    0.000    0.000    0.000    0.000    0.000    0.000 
#
# Total GULP energy -156266.026281 kJ/mol
# GULP energy per Si atom -5580.929510 kJ/mol
# Density = 2.455054 g / cm^3
# Si number density = 24.606549 Si / 1000 Ang^3
#
#
#
# Elastic Constant Matrix: (Units=GPa)
#
#
# Indices 1 2 3 4 5 6 
#
# 1 93.2311 20.1577 66.6903 0.0000 25.9615 0.0000
# 2 20.1577 62.3130 30.2677 -0.0004 38.4645 0.0002
# 3 66.6903 30.2677 152.3918 -0.0002 75.8930 0.0001
# 4 0.0000 -0.0004 -0.0002 24.6814 0.0002 -2.2463
# 5 25.9615 38.4645 75.8930 0.0002 64.8118 -0.0001
# 6 0.0000 0.0002 0.0001 -2.2463 -0.0001 19.8591
#
#
#
# Elastic Compliance Matrix: (Units=1/GPa)
#
#
# Indices 1 2 3 4 5 6 
#
# 1 0.017460 -0.006388 -0.011460 0.000000 0.010217 0.000000
# 2 -0.006388 0.030077 0.010645 0.000001 -0.027756 0.000000
# 3 -0.011460 0.010645 0.024765 0.000001 -0.030726 0.000000
# 4 0.000000 0.000001 0.000001 0.040938 -0.000001 0.004631
# 5 0.010217 -0.027756 -0.030726 -0.000001 0.063788 0.000001
# 6 0.000000 0.000000 0.000000 0.004631 0.000001 0.050878
#
#
# Mechanical properties :
#
#
# Convention : Reuss Voigt Hill
#
# Bulk Modulus (GPa) = 17.27302 60.24081 38.75691
# Shear Modulus (GPa) = 19.11216 34.59181 26.85199
#
# Velocity S-wave (km/s) = 2.78998 3.75346 3.30700
# Velocity P-wave (km/s) = 4.17295 6.58175 5.51058
#
# Compressibility (1/GPa) = 0.05789375
#
# Stress axis : x y z
#
# Youngs Moduli (GPa) = 57.27365 33.24784 40.37930
#
# Poissons Ratio (x) = 0.21240 0.46277
# Poissons Ratio (y) = 0.36588 -0.42982
# Poissons Ratio (z) = 0.65638 -0.35391
#
# Static dielectric constant tensor:
#      x y z
#    x 2.030820 0.000000 0.044120 
#    y 0.000000 1.894290 0.000000 
#    z 0.044120 0.000000 2.130720 
# 
# From -- ./inp_files/177566.got.cif
#   From: 2010.05.17/outbox.cif.g08.bks.cpg/sg15_89_cif.got.tgz:177566.got - 2010.06.03 18:47:42.
