data_PCOD9257235
_publ_section_title
;
Structure prediction by ZEFSAII (Michael W. Deem and Ramdas Pophale) SiO2 
 PCOD9257235
Probable space group: C 2/C
;
_chemical_formula_sum "Si O2"
_cell_formula_units_Z 44
_cell_length_a 19.745191
_cell_length_b 23.872898
_cell_length_c 10.244064
_cell_angle_alpha 90.000000
_cell_angle_beta 33.915881
_cell_angle_gamma 90.000000
_cell_volume 2694.347576
_symmetry_space_group_name_H-M "C 2/C"
_symmetry_group_IT_number 15
_symmetry_cell_setting 'monoclinic'
loop_
_space_group_symop_operation_xyz
x,y,z
-x,y,1/2-z
-x,-y,-z
x,-y,1/2+z
1/2+x,1/2+y,z
1/2-x,1/2+y,1/2-z
1/2-x,1/2-y,-z
1/2+x,1/2-y,1/2+z
loop_
_atom_site_type_symbol
_atom_site_label
_atom_site_fract_x
_atom_site_fract_y
_atom_site_fract_z
Si Si1 0.203179 0.665085 0.597167
Si Si2 0.077094 0.324104 0.898109
Si Si3 0.865358 0.552692 0.126371
Si Si4 0.158409 0.460008 0.133409
Si Si5 0.737135 0.739723 0.239957
Si Si6 0.000000 0.279423 0.750000
O O1 0.216400 0.598569 0.587323
O O2 0.259211 0.692350 0.378074
O O3 0.250712 0.701183 0.642864
O O4 0.057140 0.675187 0.823738
O O5 0.145745 0.381734 0.822616
O O6 0.156221 0.274059 0.830201
O O7 0.053638 0.316667 0.781923
O O8 0.811429 0.512909 0.324620
O O9 0.817338 0.536276 0.059991
O O10 0.011952 0.545335 0.883518
O O11 0.608611 0.743014 0.517232
#
# Coordination Sequence:
#
# PCOD9257235 Si02
#       6
#     8   8   8   8   8   4
#     4   9  18  30  50  70  96 129 161 193 239 289
#     4  10  18  32  48  69 100 128 158 197 244 289
#     4   9  17  26  46  64  97 128 153 189 241 287
#     4   9  16  28  41  70  96 125 155 189 234 298
#     4  10  18  31  48  68  96 131 159 199 235 285
#     4  10  22  30  44  72 100 130 162 198 240 282
#
# _framework density 16.330483999999998
#
# number of rings (size 3 to 8) (size 9 to 14) (size 15 to 20)
#    0.000    2.545    1.818    1.091    0.000    5.818 
#    0.000    0.000    0.000    0.000    0.000    1.273 
#   10.909    0.182    0.000    0.000    0.000    0.000 
#
# Total GULP energy -122513.913397 kJ/mol
# GULP energy per Si atom -5568.814245 kJ/mol
# Density = 1.629332 g / cm^3
# Si number density = 16.330484 Si / 1000 Ang^3
#
#
#
# Elastic Constant Matrix: (Units=GPa)
#
#
# Indices 1 2 3 4 5 6 
#
# 1 84.7497 46.3301 22.1140 0.0000 25.4755 -0.0001
# 2 46.3301 98.7316 30.2355 0.0002 16.6615 -0.0002
# 3 22.1140 30.2355 76.3078 0.0002 22.3192 -0.0005
# 4 0.0000 0.0002 0.0002 15.3865 -0.0001 0.3094
# 5 25.4755 16.6615 22.3192 -0.0001 19.0183 0.0003
# 6 -0.0001 -0.0002 -0.0005 0.3094 0.0003 23.5087
#
#
#
# Elastic Compliance Matrix: (Units=1/GPa)
#
#
# Indices 1 2 3 4 5 6 
#
# 1 0.024175 -0.007581 0.005370 0.000000 -0.032044 0.000000
# 2 -0.007581 0.014594 -0.004288 0.000000 0.002402 0.000000
# 3 0.005370 -0.004288 0.021702 0.000000 -0.028906 0.000001
# 4 0.000000 0.000000 0.000000 0.065009 0.000001 -0.000856
# 5 -0.032044 0.002402 -0.028906 0.000001 0.127323 -0.000002
# 6 0.000000 0.000000 0.000001 -0.000856 -0.000002 0.042549
#
#
# Mechanical properties :
#
#
# Convention : Reuss Voigt Hill
#
# Bulk Modulus (GPa) = 21.06458 50.79426 35.92942
# Shear Modulus (GPa) = 15.42383 22.32332 18.87357
#
# Velocity S-wave (km/s) = 3.07657 3.70127 3.40329
# Velocity P-wave (km/s) = 5.05444 7.03117 6.12310
#
# Compressibility (1/GPa) = 0.04747306
#
# Stress axis : x y z
#
# Youngs Moduli (GPa) = 41.36549 68.52251 46.07810
#
# Poissons Ratio (x) = 0.51948 -0.24746
# Poissons Ratio (y) = 0.31360 0.19759
# Poissons Ratio (z) = -0.22215 0.29383
#
# Static dielectric constant tensor:
#      x y z
#    x 1.563840 0.000000 0.025770 
#    y 0.000000 1.550290 0.000000 
#    z 0.025770 0.000000 1.542950 
# 
# From -- ./inp_files/31832.got.cif
#   From: 2010.05.17/outbox.cif.g08.bks.cpg/sg15_16_cif.got.tgz:31832.got - 2010.06.03 18:47:42.
