data_PCOD9257743
_publ_section_title
;
Structure prediction by ZEFSAII (Michael W. Deem and Ramdas Pophale) SiO2 
 PCOD9257743
Probable space group: C 2/C
;
_chemical_formula_sum "Si O2"
_cell_formula_units_Z 40
_cell_length_a 21.260886
_cell_length_b 15.440579
_cell_length_c 7.895502
_cell_angle_alpha 90.000000
_cell_angle_beta 144.211143
_cell_angle_gamma 90.000000
_cell_volume 1515.765430
_symmetry_space_group_name_H-M "C 2/C"
_symmetry_group_IT_number 15
_symmetry_cell_setting 'monoclinic'
loop_
_space_group_symop_operation_xyz
x,y,z
-x,y,1/2-z
-x,-y,-z
x,-y,1/2+z
1/2+x,1/2+y,z
1/2-x,1/2+y,1/2-z
1/2-x,1/2-y,-z
1/2+x,1/2-y,1/2+z
loop_
_atom_site_type_symbol
_atom_site_label
_atom_site_fract_x
_atom_site_fract_y
_atom_site_fract_z
Si Si1 0.804152 0.159540 0.081165
Si Si2 0.163976 0.524494 0.617235
Si Si3 0.121064 0.361029 0.726696
Si Si4 0.874308 0.171385 0.854266
Si Si5 0.393240 0.440790 0.075547
O O1 0.874445 0.133883 0.396035
O O2 0.750000 0.250000 0.000000
O O3 0.703118 0.092421 0.845140
O O4 0.872264 0.162734 0.054359
O O5 0.095447 0.580185 0.334782
O O6 0.115267 0.433350 0.568178
O O7 0.285213 0.496383 0.825336
O O8 0.245996 0.336890 0.034098
O O9 0.077319 0.265869 0.590689
O O10 0.910971 0.099472 0.798785
O O11 0.500000 0.488549 0.250000
#
# Coordination Sequence:
#
# PCOD9257743 Si02
#       5
#     8   8   8   8   8
#     4  11  21  37  59  79 114 157 194 235 287 330
#     4  10  18  32  52  83 113 148 191 226 282 341
#     4   9  16  31  51  77 111 138 190 242 270 320
#     4   9  20  35  52  78 111 153 196 233 270 336
#     4  11  23  38  55  85 126 158 184 227 283 349
#
# _framework density 26.389306999999999
#
# number of rings (size 3 to 8) (size 9 to 14) (size 15 to 20)
#    0.000    2.000    2.000    4.800    0.000    1.600 
#    0.000    0.000    0.000    0.000    0.000    5.600 
#    0.000    0.000    0.000    0.000    0.000    0.000 
#
# Total GULP energy -111690.351202 kJ/mol
# GULP energy per Si atom -5584.517560 kJ/mol
# Density = 2.632924 g / cm^3
# Si number density = 26.389307 Si / 1000 Ang^3
#
#
#
# Elastic Constant Matrix: (Units=GPa)
#
#
# Indices 1 2 3 4 5 6 
#
# 1 107.8504 48.5278 48.8158 0.0000 -33.7082 0.0000
# 2 48.5278 165.5749 49.7670 0.0000 -39.9530 0.0000
# 3 48.8158 49.7670 112.9997 0.0000 -29.2424 0.0000
# 4 0.0000 0.0000 0.0000 35.3640 0.0000 -8.2952
# 5 -33.7082 -39.9530 -29.2424 0.0000 42.5541 0.0000
# 6 0.0000 0.0000 0.0000 -8.2952 0.0000 25.2684
#
#
#
# Elastic Compliance Matrix: (Units=1/GPa)
#
#
# Indices 1 2 3 4 5 6 
#
# 1 0.013674 -0.001195 -0.003489 0.000000 0.007313 0.000000
# 2 -0.001195 0.008254 -0.001652 0.000000 0.005668 0.000000
# 3 -0.003489 -0.001652 0.012124 0.000000 0.004016 0.000000
# 4 0.000000 0.000000 0.000000 0.030637 0.000000 0.010058
# 5 0.007313 0.005668 0.004016 0.000000 0.037373 0.000000
# 6 0.000000 0.000000 0.000000 0.010058 0.000000 0.042877
#
#
# Mechanical properties :
#
#
# Convention : Reuss Voigt Hill
#
# Bulk Modulus (GPa) = 46.77145 75.62736 61.19941
# Shear Modulus (GPa) = 30.35139 36.59159 33.47149
#
# Velocity S-wave (km/s) = 3.39505 3.72776 3.56529
# Velocity P-wave (km/s) = 5.75592 6.87377 6.33953
#
# Compressibility (1/GPa) = 0.02138056
#
# Stress axis : x y z
#
# Youngs Moduli (GPa) = 73.13003 121.15412 82.48206
#
# Poissons Ratio (x) = 0.14473 0.28776
# Poissons Ratio (y) = 0.08736 0.13630
# Poissons Ratio (z) = 0.25513 0.20020
#
# Static dielectric constant tensor:
#      x y z
#    x 2.168940 0.000000 -0.008810 
#    y 0.000000 2.079060 0.000000 
#    z -0.008810 0.000000 2.100720 
# 
# From -- ./inp_files/61318.got.cif
#   From: 2010.05.17/outbox.cif.g08.bks.cpg/sg15_31_cif.got.tgz:61318.got - 2010.06.03 18:47:42.
