data_PCOD9257002
_publ_section_title
;
Structure prediction by ZEFSAII (Michael W. Deem and Ramdas Pophale) SiO2 
 PCOD9257002
Probable space group: C 2/C
;
_chemical_formula_sum "Si O2"
_cell_formula_units_Z 56
_cell_length_a 15.980394
_cell_length_b 26.354084
_cell_length_c 5.552416
_cell_angle_alpha 90.000000
_cell_angle_beta 79.148226
_cell_angle_gamma 90.000000
_cell_volume 2296.576239
_symmetry_space_group_name_H-M "C 2/C"
_symmetry_group_IT_number 15
_symmetry_cell_setting 'monoclinic'
loop_
_space_group_symop_operation_xyz
x,y,z
-x,y,1/2-z
-x,-y,-z
x,-y,1/2+z
1/2+x,1/2+y,z
1/2-x,1/2+y,1/2-z
1/2-x,1/2-y,-z
1/2+x,1/2-y,1/2+z
loop_
_atom_site_type_symbol
_atom_site_label
_atom_site_fract_x
_atom_site_fract_y
_atom_site_fract_z
Si Si1 0.214751 0.709734 0.329850
Si Si2 0.673117 0.865176 0.211102
Si Si3 0.418547 0.783162 0.961412
Si Si4 0.173006 0.519029 0.547700
Si Si5 0.875021 0.132539 0.692580
Si Si6 0.370320 0.516702 0.854080
Si Si7 0.398421 0.679605 0.173460
O O1 0.250000 0.750000 0.500000
O O2 0.153932 0.669475 0.490311
O O3 0.162119 0.735919 0.151576
O O4 0.295796 0.677716 0.212669
O O5 0.610667 0.838818 0.436183
O O6 0.666170 0.923571 0.146082
O O7 0.772718 0.856091 0.225782
O O8 0.500000 0.783544 0.750000
O O9 0.424081 0.738840 0.156801
O O10 0.136975 0.512807 0.295615
O O11 0.271929 0.501180 0.453548
O O12 0.877551 0.072378 0.735919
O O13 0.916038 0.152448 0.419313
O O14 0.918950 0.155764 0.904765
O O15 0.405614 0.483191 0.610316
#
# Coordination Sequence:
#
# PCOD9257002 Si02
#       7
#     8   8   8   8   8   8   8
#     4  11  22  40  65  93 125 170 215 273 331 397
#     4  11  22  36  60  89 124 173 213 267 327 391
#     4  12  26  43  63  92 133 176 226 271 323 394
#     4  10  21  33  55  88 126 166 206 269 335 372
#     4  11  21  34  62  88 128 164 212 257 327 387
#     4  10  18  30  50  89 127 162 192 262 328 370
#     4  11  23  39  60  92 124 168 212 265 325 388
#
# _framework density 24.384122999999999
#
# number of rings (size 3 to 8) (size 9 to 14) (size 15 to 20)
#    0.000    1.143    5.714    3.000    8.000    0.571 
#    0.000    0.000    0.000    0.857    0.000    0.000 
#    0.000   11.429    0.000    0.000    0.000    0.000 
#
# Total GULP energy -156328.610392 kJ/mol
# GULP energy per Si atom -5583.164657 kJ/mol
# Density = 2.432862 g / cm^3
# Si number density = 24.384123 Si / 1000 Ang^3
#
#
#
# Elastic Constant Matrix: (Units=GPa)
#
#
# Indices 1 2 3 4 5 6 
#
# 1 54.8571 14.3389 44.6128 0.0000 12.6027 0.0000
# 2 14.3389 163.0711 81.5999 0.0000 2.3773 0.0000
# 3 44.6128 81.5999 220.6574 0.0000 15.7258 0.0000
# 4 0.0000 0.0000 0.0000 46.7967 0.0000 6.9438
# 5 12.6027 2.3773 15.7258 0.0000 49.7112 0.0000
# 6 0.0000 0.0000 0.0000 6.9438 0.0000 -11.2490
#
#
#
# Elastic Compliance Matrix: (Units=1/GPa)
#
#
# Indices 1 2 3 4 5 6 
#
# 1 0.022731 0.000256 -0.004377 0.000000 -0.004390 0.000000
# 2 0.000256 0.007541 -0.002875 0.000000 0.000484 0.000000
# 3 -0.004377 -0.002875 0.006539 0.000000 -0.000821 0.000000
# 4 0.000000 0.000000 0.000000 0.019576 0.000000 0.012084
# 5 -0.004390 0.000484 -0.000821 0.000000 0.021466 0.000000
# 6 0.000000 0.000000 0.000000 0.012084 0.000000 -0.081438
#
#
# Mechanical properties :
#
#
# Convention : Reuss Voigt Hill
#
# Bulk Modulus (GPa) = 43.82612 79.96544 61.89578
# Shear Modulus (GPa) = 277.55271 36.92071 157.23671
#
# Velocity S-wave (km/s) = 10.68046 3.89540 8.03886
# Velocity P-wave (km/s) = 13.04257 7.28680 10.56423
#
# Compressibility (1/GPa) = 0.02281744
#
# Stress axis : x y z
#
# Youngs Moduli (GPa) = 43.99294 132.60129 152.93610
#
# Poissons Ratio (x) = -0.03391 0.66947
# Poissons Ratio (y) = -0.01125 0.43970
# Poissons Ratio (z) = 0.19258 0.38123
#
# Static dielectric constant tensor:
#      x y z
#    x 2.057080 0.000000 0.080970 
#    y 0.000000 1.945290 0.000000 
#    z 0.080970 0.000000 2.064800 
# 
# From -- ./inp_files/14233.got.cif
#   From: 2010.05.17/outbox.cif.g08.bks.cpg/sg15_8_cif.got.tgz:14233.got - 2010.06.03 18:47:42.
