data_PCOD9257427
_publ_section_title
;
Structure prediction by ZEFSAII (Michael W. Deem and Ramdas Pophale) SiO2 
 PCOD9257427
Probable space group: C 2/C
;
_chemical_formula_sum "Si O2"
_cell_formula_units_Z 64
_cell_length_a 29.009707
_cell_length_b 18.979410
_cell_length_c 11.985706
_cell_angle_alpha 90.000000
_cell_angle_beta 28.276236
_cell_angle_gamma 90.000000
_cell_volume 3126.181039
_symmetry_space_group_name_H-M "C 2/C"
_symmetry_group_IT_number 15
_symmetry_cell_setting 'monoclinic'
loop_
_space_group_symop_operation_xyz
x,y,z
-x,y,1/2-z
-x,-y,-z
x,-y,1/2+z
1/2+x,1/2+y,z
1/2-x,1/2+y,1/2-z
1/2-x,1/2-y,-z
1/2+x,1/2-y,1/2+z
loop_
_atom_site_type_symbol
_atom_site_label
_atom_site_fract_x
_atom_site_fract_y
_atom_site_fract_z
Si Si1 0.408905 0.919304 0.788666
Si Si2 0.757507 0.669204 0.213427
Si Si3 0.471816 0.286548 0.977379
Si Si4 0.324870 0.124153 0.693222
Si Si5 0.923759 0.227825 0.011561
Si Si6 0.111166 0.421056 0.227602
Si Si7 0.191701 0.320471 0.661964
Si Si8 0.154413 0.179518 0.934866
O O1 0.508000 0.904814 0.508079
O O2 0.327582 0.874142 0.896883
O O3 0.395854 0.003016 0.813471
O O4 0.399221 0.896016 0.936994
O O5 0.656621 0.671354 0.360025
O O6 0.761222 0.640300 0.332055
O O7 0.778580 0.750625 0.201880
O O8 0.841865 0.634492 0.958474
O O9 0.565860 0.297933 0.702343
O O10 0.511157 0.291535 0.019353
O O11 0.415545 0.212315 0.080970
O O12 0.391626 0.337053 0.087908
O O13 0.360980 0.200481 0.663935
O O14 0.321136 0.074599 0.807744
O O15 0.220887 0.123752 0.854796
O O16 0.000000 0.240179 0.750000
O O17 0.250000 0.250000 0.500000
#
# Coordination Sequence:
#
# PCOD9257427 Si02
#       8
#     8   8   8   8   8   8   8   8
#     4  11  24  38  58  83 121 163 205 243 295 375
#     4  10  21  35  55  86 121 153 198 244 299 358
#     4  10  18  31  53  86 116 144 188 236 301 348
#     4  11  21  38  57  82 121 160 198 245 304 361
#     4  11  20  32  57  87 119 150 187 244 298 356
#     4  11  24  38  57  86 119 165 201 243 300 369
#     4  11  21  37  60  89 123 159 199 252 308 364
#     4   9  19  33  56  85 114 149 190 246 297 354
#
# _framework density 20.472262000000001
#
# number of rings (size 3 to 8) (size 9 to 14) (size 15 to 20)
#    0.000    1.500    0.000    7.875    1.750    3.500 
#    0.000    0.000    0.000    0.000    6.500   12.250 
#    0.000    0.000    0.000    0.000    0.000    0.000 
#
# Total GULP energy -178222.198077 kJ/mol
# GULP energy per Si atom -5569.443690 kJ/mol
# Density = 2.042567 g / cm^3
# Si number density = 20.472262 Si / 1000 Ang^3
#
#
#
# Elastic Constant Matrix: (Units=GPa)
#
#
# Indices 1 2 3 4 5 6 
#
# 1 174.8589 13.6192 21.6252 0.0000 -4.3738 0.0000
# 2 13.6192 25.4361 6.4442 0.0000 0.9130 0.0000
# 3 21.6252 6.4442 59.6879 0.0000 -3.5073 0.0000
# 4 0.0000 0.0000 0.0000 12.7685 0.0000 -6.8870
# 5 -4.3738 0.9130 -3.5073 0.0000 41.0108 0.0000
# 6 0.0000 0.0000 0.0000 -6.8870 0.0000 8.2601
#
#
#
# Elastic Compliance Matrix: (Units=1/GPa)
#
#
# Indices 1 2 3 4 5 6 
#
# 1 0.006190 -0.002853 -0.001902 0.000000 0.000561 0.000000
# 2 -0.002853 0.041801 -0.003570 0.000000 -0.001540 0.000000
# 3 -0.001902 -0.003570 0.017911 0.000000 0.001408 0.000000
# 4 0.000000 0.000000 0.000000 0.142323 0.000000 0.118665
# 5 0.000561 -0.001540 0.001408 0.000000 0.024598 0.000000
# 6 0.000000 0.000000 0.000000 0.118665 0.000000 0.220004
#
#
# Mechanical properties :
#
#
# Convention : Reuss Voigt Hill
#
# Bulk Modulus (GPa) = 20.30308 38.15112 29.22710
# Shear Modulus (GPa) = 10.29028 26.96082 18.62555
#
# Velocity S-wave (km/s) = 2.24441 3.63291 3.01955
# Velocity P-wave (km/s) = 4.08110 6.02274 5.14435
#
# Compressibility (1/GPa) = 0.04925360
#
# Stress axis : x y z
#
# Youngs Moduli (GPa) = 161.54235 23.92262 55.83146
#
# Poissons Ratio (x) = 0.06825 0.10618
# Poissons Ratio (y) = 0.46085 0.19932
# Poissons Ratio (z) = 0.30722 0.08540
#
# Static dielectric constant tensor:
#      x y z
#    x 1.864640 0.000000 -0.021460 
#    y 0.000000 1.716020 0.000000 
#    z -0.021460 0.000000 1.783980 
# 
# From -- ./inp_files/124249.got.cif
#   From: 2010.05.17/outbox.cif.g08.bks.cpg/sg15_63_cif.got.tgz:124249.got - 2010.06.03 18:47:42.
