data_PCOD9257445
_publ_section_title
;
Structure prediction by ZEFSAII (Michael W. Deem and Ramdas Pophale) SiO2 
 PCOD9257445
Probable space group: C 2/C
;
_chemical_formula_sum "Si O2"
_cell_formula_units_Z 52
_cell_length_a 20.467444
_cell_length_b 20.086118
_cell_length_c 10.779741
_cell_angle_alpha 90.000000
_cell_angle_beta 144.530231
_cell_angle_gamma 90.000000
_cell_volume 2571.583034
_symmetry_space_group_name_H-M "C 2/C"
_symmetry_group_IT_number 15
_symmetry_cell_setting 'monoclinic'
loop_
_space_group_symop_operation_xyz
x,y,z
-x,y,1/2-z
-x,-y,-z
x,-y,1/2+z
1/2+x,1/2+y,z
1/2-x,1/2+y,1/2-z
1/2-x,1/2-y,-z
1/2+x,1/2-y,1/2+z
loop_
_atom_site_type_symbol
_atom_site_label
_atom_site_fract_x
_atom_site_fract_y
_atom_site_fract_z
Si Si1 0.412759 0.230167 0.905977
Si Si2 0.000000 0.164901 0.750000
Si Si3 0.363981 0.162390 0.236295
Si Si4 0.698600 0.443061 0.543012
Si Si5 0.480779 0.657087 0.361900
Si Si6 0.724619 0.700047 0.785407
Si Si7 0.125241 0.970671 0.700643
O O1 0.428562 0.269656 0.802233
O O2 0.289843 0.207229 0.756717
O O3 0.458283 0.285458 0.076916
O O4 0.502923 0.171297 0.053138
O O5 0.897005 0.115041 0.620031
O O6 0.316009 0.095414 0.219131
O O7 0.311154 0.226085 0.226248
O O8 0.314021 0.170630 0.020817
O O9 0.678463 0.475577 0.646426
O O10 0.686187 0.492829 0.408496
O O11 0.500000 0.638521 0.250000
O O12 0.609445 0.658816 0.610108
O O13 0.398004 0.605969 0.300651
O O14 0.000000 0.000000 0.500000
#
# Coordination Sequence:
#
# PCOD9257445 Si02
#       7
#     8   4   8   8   8   8   8
#     4  11  19  34  57  84 116 146 188 240 288 341
#     4  12  16  32  56  82 116 136 180 240 286 332
#     4  10  18  31  55  85 112 143 191 236 294 330
#     4  12  22  33  55  83 118 148 186 242 287 342
#     4  11  23  34  50  80 120 157 185 224 289 360
#     4  10  18  31  54  81 113 148 185 236 286 340
#     4  12  21  35  52  78 113 148 191 230 288 333
#
# _framework density 20.221008000000001
#
# number of rings (size 3 to 8) (size 9 to 14) (size 15 to 20)
#    0.000    0.923    6.154    3.692    0.000    0.615 
#    0.000    0.000    0.000    0.000    0.000   21.538 
#    0.000    0.000    0.000    0.000    0.000    0.000 
#
# Total GULP energy -145241.848634 kJ/mol
# GULP energy per Si atom -5586.224947 kJ/mol
# Density = 2.017498 g / cm^3
# Si number density = 20.221008 Si / 1000 Ang^3
#
#
#
# Elastic Constant Matrix: (Units=GPa)
#
#
# Indices 1 2 3 4 5 6 
#
# 1 99.4851 29.5620 27.8932 0.0000 -4.1454 0.0000
# 2 29.5620 60.3958 24.5820 0.0000 -5.4640 0.0000
# 3 27.8932 24.5820 39.6433 0.0000 -5.0883 0.0000
# 4 0.0000 0.0000 0.0000 19.7614 0.0000 3.1354
# 5 -4.1454 -5.4640 -5.0883 0.0000 31.6752 0.0000
# 6 0.0000 0.0000 0.0000 3.1354 0.0000 38.1999
#
#
#
# Elastic Compliance Matrix: (Units=1/GPa)
#
#
# Indices 1 2 3 4 5 6 
#
# 1 0.013067 -0.003551 -0.006996 0.000000 -0.000026 0.000000
# 2 -0.003551 0.023197 -0.011672 0.000000 0.001662 0.000000
# 3 -0.006996 -0.011672 0.037788 0.000000 0.003141 0.000000
# 4 0.000000 0.000000 0.000000 0.051272 0.000000 -0.004208
# 5 -0.000026 0.001662 0.003141 0.000000 0.032358 0.000000
# 6 0.000000 0.000000 0.000000 -0.004208 0.000000 0.026524
#
#
# Mechanical properties :
#
#
# Convention : Reuss Voigt Hill
#
# Bulk Modulus (GPa) = 33.76727 40.39984 37.08355
# Shear Modulus (GPa) = 20.96316 25.75974 23.36145
#
# Velocity S-wave (km/s) = 3.22328 3.57306 3.40267
# Velocity P-wave (km/s) = 5.53065 6.08645 5.81519
#
# Compressibility (1/GPa) = 0.02961448
#
# Stress axis : x y z
#
# Youngs Moduli (GPa) = 76.52709 43.10980 26.46358
#
# Poissons Ratio (x) = 0.15309 0.18513
# Poissons Ratio (y) = 0.27176 0.30888
# Poissons Ratio (z) = 0.53535 0.50317
#
# Static dielectric constant tensor:
#      x y z
#    x 1.782050 0.000000 -0.044350 
#    y 0.000000 1.757000 0.000000 
#    z -0.044350 0.000000 1.725190 
# 
# From -- ./inp_files/113693.got.cif
#   From: 2010.05.17/outbox.cif.g08.bks.cpg/sg15_57_cif.got.tgz:113693.got - 2010.06.03 18:47:42.
