data_PCOD9257190
_publ_section_title
;
Structure prediction by ZEFSAII (Michael W. Deem and Ramdas Pophale) SiO2 
 PCOD9257190
Probable space group: C 2/C
;
_chemical_formula_sum "Si O2"
_cell_formula_units_Z 40
_cell_length_a 13.575718
_cell_length_b 15.976009
_cell_length_c 14.140036
_cell_angle_alpha 90.000000
_cell_angle_beta 146.042060
_cell_angle_gamma 90.000000
_cell_volume 1713.050801
_symmetry_space_group_name_H-M "C 2/C"
_symmetry_group_IT_number 15
_symmetry_cell_setting 'monoclinic'
loop_
_space_group_symop_operation_xyz
x,y,z
-x,y,1/2-z
-x,-y,-z
x,-y,1/2+z
1/2+x,1/2+y,z
1/2-x,1/2+y,1/2-z
1/2-x,1/2-y,-z
1/2+x,1/2-y,1/2+z
loop_
_atom_site_type_symbol
_atom_site_label
_atom_site_fract_x
_atom_site_fract_y
_atom_site_fract_z
Si Si1 0.288643 0.848882 0.213592
Si Si2 0.901492 0.127565 0.755817
Si Si3 0.545386 0.195634 0.393915
Si Si4 0.050778 0.171636 0.184354
Si Si5 0.901274 0.415213 0.948387
O O1 0.192174 0.899938 0.222585
O O2 0.345185 0.751771 0.276884
O O3 0.485906 0.887135 0.368910
O O4 0.135482 0.847432 0.014032
O O5 0.743395 0.171379 0.573770
O O6 0.000000 0.077786 0.750000
O O7 0.018440 0.205435 0.884993
O O8 0.500000 0.172955 0.250000
O O9 0.438898 0.144787 0.388195
O O10 0.192814 0.095718 0.299099
O O11 0.000000 0.196306 0.250000
O O12 0.000000 0.500000 0.000000
#
# Coordination Sequence:
#
# PCOD9257190 Si02
#       5
#     8   8   8   8   8
#     4  11  22  41  70  99 134 175 223 288 333 397
#     4  10  18  30  58  95 121 150 206 261 317 385
#     4  10  19  33  57  88 119 162 198 256 326 386
#     4  12  24  42  73 102 130 178 239 283 333 398
#     4  11  26  45  62  97 140 174 223 278 346 403
#
# _framework density 23.350155000000001
#
# number of rings (size 3 to 8) (size 9 to 14) (size 15 to 20)
#    0.000    1.200    4.000    4.200    2.800    0.800 
#    3.600    4.000    0.000    0.000    0.000    0.000 
#    0.000    0.000    0.000    0.000    0.000    0.000 
#
# Total GULP energy -111336.971434 kJ/mol
# GULP energy per Si atom -5566.848572 kJ/mol
# Density = 2.329701 g / cm^3
# Si number density = 23.350155 Si / 1000 Ang^3
#
#
#
# Elastic Constant Matrix: (Units=GPa)
#
#
# Indices 1 2 3 4 5 6 
#
# 1 72.0623 0.1773 -1.7849 -0.0045 -2.1432 -0.0016
# 2 0.1773 56.2050 12.7281 0.0011 6.2861 -0.0003
# 3 -1.7849 12.7281 184.8061 0.0003 0.8308 -0.0017
# 4 -0.0045 0.0011 0.0003 5.4526 -0.0008 1.1100
# 5 -2.1432 6.2861 0.8308 -0.0008 32.5196 -0.0010
# 6 -0.0016 -0.0003 -0.0017 1.1100 -0.0010 12.0847
#
#
#
# Elastic Compliance Matrix: (Units=1/GPa)
#
#
# Indices 1 2 3 4 5 6 
#
# 1 0.013909 -0.000182 0.000143 0.000011 0.000948 0.000001
# 2 -0.000182 0.018475 -0.001258 -0.000004 -0.003551 0.000000
# 3 0.000143 -0.001258 0.005499 0.000000 0.000112 0.000001
# 4 0.000011 -0.000004 0.000000 0.186894 0.000006 -0.017167
# 5 0.000948 -0.003551 0.000112 0.000006 0.031497 0.000002
# 6 0.000001 0.000000 0.000001 -0.017167 0.000002 0.084326
#
#
# Mechanical properties :
#
#
# Convention : Reuss Voigt Hill
#
# Bulk Modulus (GPa) = 28.33925 37.25716 32.79820
# Shear Modulus (GPa) = 14.08623 30.14158 22.11391
#
# Velocity S-wave (km/s) = 2.45880 3.59674 3.08077
# Velocity P-wave (km/s) = 4.49710 5.76535 5.17026
#
# Compressibility (1/GPa) = 0.03528675
#
# Stress axis : x y z
#
# Youngs Moduli (GPa) = 71.89558 54.12816 181.86434
#
# Poissons Ratio (x) = 0.00986 -0.02594
# Poissons Ratio (y) = 0.01310 0.22882
# Poissons Ratio (z) = -0.01025 0.06810
#
# Static dielectric constant tensor:
#      x y z
#    x 1.995630 0.000000 0.037230 
#    y 0.000000 1.999850 0.000000 
#    z 0.037230 0.000000 1.908040 
# 
# From -- ./inp_files/56363.got.cif
#   From: 2010.05.17/outbox.cif.g08.bks.cpg/sg15_29_cif.got.tgz:56363.got - 2010.06.03 18:47:42.
