data_PCOD9257186
_publ_section_title
;
Structure prediction by ZEFSAII (Michael W. Deem and Ramdas Pophale) SiO2 
 PCOD9257186
Probable space group: C 2/C
;
_chemical_formula_sum "Si O2"
_cell_formula_units_Z 48
_cell_length_a 20.969005
_cell_length_b 14.031808
_cell_length_c 15.549907
_cell_angle_alpha 90.000000
_cell_angle_beta 156.859809
_cell_angle_gamma 90.000000
_cell_volume 1798.010318
_symmetry_space_group_name_H-M "C 2/C"
_symmetry_group_IT_number 15
_symmetry_cell_setting 'monoclinic'
loop_
_space_group_symop_operation_xyz
x,y,z
-x,y,1/2-z
-x,-y,-z
x,-y,1/2+z
1/2+x,1/2+y,z
1/2-x,1/2+y,1/2-z
1/2-x,1/2-y,-z
1/2+x,1/2-y,1/2+z
loop_
_atom_site_type_symbol
_atom_site_label
_atom_site_fract_x
_atom_site_fract_y
_atom_site_fract_z
Si Si1 0.500000 0.473132 0.250000
Si Si2 0.500000 0.000000 0.000000
Si Si3 0.593079 0.103331 0.475450
Si Si4 0.615596 0.824376 0.520826
Si Si5 0.085491 0.127740 0.549647
Si Si6 0.940369 0.814690 0.036416
Si Si7 0.770321 0.951571 0.586909
O O1 0.548360 0.401797 0.385722
O O2 0.651138 0.537451 0.408339
O O3 0.475709 0.906012 0.038783
O O4 0.554236 0.064624 0.151022
O O5 0.732457 0.084050 0.725667
O O6 0.560218 0.212911 0.418825
O O7 0.663913 0.042004 0.485413
O O8 0.551298 0.716885 0.444747
O O9 0.783178 0.814620 0.781636
O O10 0.665644 0.862491 0.488825
O O11 0.080969 0.172453 0.639817
O O12 0.937270 0.056521 0.350581
#
# Coordination Sequence:
#
# PCOD9257186 Si02
#       7
#     4   4   8   8   8   8   8
#     4  12  24  38  56  88 130 166 190 230 306 384
#     4  10  18  30  58  90 112 140 194 262 298 332
#     4  10  19  34  57  84 114 149 197 248 294 346
#     4   9  20  36  61  87 115 145 207 260 288 337
#     4  10  18  38  61  85 107 152 209 254 291 335
#     4  10  21  36  57  88 121 156 194 242 303 358
#     4  10  22  36  58  86 116 157 204 240 296 360
#
# _framework density 26.696176000000001
#
# number of rings (size 3 to 8) (size 9 to 14) (size 15 to 20)
#    0.000    2.000    3.333    0.500    4.667    0.667 
#    0.000    0.833    0.000    3.000    0.000    0.000 
#    0.000    0.000    0.000    0.000    0.000    0.000 
#
# Total GULP energy -133683.098127 kJ/mol
# GULP energy per Si atom -5570.129089 kJ/mol
# Density = 2.663541 g / cm^3
# Si number density = 26.696176 Si / 1000 Ang^3
#
#
#
# Elastic Constant Matrix: (Units=GPa)
#
#
# Indices 1 2 3 4 5 6 
#
# 1 139.7466 49.3262 -8.4886 0.0002 23.0015 0.0002
# 2 49.3262 116.1574 4.1696 0.0004 -7.6802 0.0003
# 3 -8.4886 4.1696 74.7041 0.0003 -6.6305 0.0003
# 4 0.0002 0.0004 0.0003 8.6095 0.0003 2.4480
# 5 23.0015 -7.6802 -6.6305 0.0003 11.2726 0.0002
# 6 0.0002 0.0003 0.0003 2.4480 0.0002 42.6941
#
#
#
# Elastic Compliance Matrix: (Units=1/GPa)
#
#
# Indices 1 2 3 4 5 6 
#
# 1 0.018403 -0.010788 -0.001363 0.000001 -0.045704 0.000000
# 2 -0.010788 0.015339 0.000843 -0.000001 0.032959 0.000000
# 3 -0.001363 0.000843 0.014225 -0.000001 0.011723 0.000000
# 4 0.000001 -0.000001 -0.000001 0.118076 -0.000007 -0.006770
# 5 -0.045704 0.032959 0.011723 -0.000007 0.211319 -0.000001
# 6 0.000000 0.000000 0.000000 -0.006770 -0.000001 0.023811
#
#
# Mechanical properties :
#
#
# Convention : Reuss Voigt Hill
#
# Bulk Modulus (GPa) = 39.44518 46.73584 43.09051
# Shear Modulus (GPa) = 11.56766 31.55529 21.56148
#
# Velocity S-wave (km/s) = 2.08386 3.44178 2.84502
# Velocity P-wave (km/s) = 4.53846 5.77399 5.19310
#
# Compressibility (1/GPa) = 0.02535164
#
# Stress axis : x y z
#
# Youngs Moduli (GPa) = 54.33788 65.19298 70.30040
#
# Poissons Ratio (x) = 0.70330 0.09583
# Poissons Ratio (y) = 0.58619 -0.05929
# Poissons Ratio (z) = 0.07407 -0.05498
#
# Static dielectric constant tensor:
#      x y z
#    x 2.002200 0.000000 -0.052550 
#    y 0.000000 1.998920 0.000000 
#    z -0.052550 0.000000 2.165210 
# 
# From -- ./inp_files/215492.got.cif
#   From: 2010.05.17/outbox.cif.g08.bks.cpg/sg15_108_cif.got.tgz:215492.got - 2010.06.03 18:47:42.
