data_PCOD9257467
_publ_section_title
;
Structure prediction by ZEFSAII (Michael W. Deem and Ramdas Pophale) SiO2 
 PCOD9257467
Probable space group: C 2/C
;
_chemical_formula_sum "Si O2"
_cell_formula_units_Z 64
_cell_length_a 7.927398
_cell_length_b 15.182931
_cell_length_c 24.819989
_cell_angle_alpha 90.000000
_cell_angle_beta 118.906853
_cell_angle_gamma 90.000000
_cell_volume 2615.156841
_symmetry_space_group_name_H-M "C 2/C"
_symmetry_group_IT_number 15
_symmetry_cell_setting 'monoclinic'
loop_
_space_group_symop_operation_xyz
x,y,z
-x,y,1/2-z
-x,-y,-z
x,-y,1/2+z
1/2+x,1/2+y,z
1/2-x,1/2+y,1/2-z
1/2-x,1/2-y,-z
1/2+x,1/2-y,1/2+z
loop_
_atom_site_type_symbol
_atom_site_label
_atom_site_fract_x
_atom_site_fract_y
_atom_site_fract_z
Si Si1 0.862526 0.422003 0.127603
Si Si2 0.178770 0.494276 0.094075
Si Si3 0.038584 0.750488 0.313007
Si Si4 0.349872 0.732806 0.957486
Si Si5 0.354946 0.875537 0.503303
Si Si6 0.835015 0.299548 0.279997
Si Si7 0.272984 0.392753 0.900665
Si Si8 0.065638 0.853867 0.855342
O O1 0.023983 0.454143 0.110202
O O2 0.988150 0.365840 0.189355
O O3 0.702987 0.365089 0.070788
O O4 0.775596 0.513731 0.133458
O O5 0.349355 0.551480 0.146852
O O6 0.052996 0.567351 0.041558
O O7 0.245450 0.417267 0.064359
O O8 0.840148 0.802780 0.289689
O O9 0.000000 0.699098 0.250000
O O10 0.216206 0.808876 0.318706
O O11 0.106460 0.680121 0.365718
O O12 0.562151 0.776831 0.992031
O O13 0.238974 0.787845 0.894251
O O14 0.250000 0.750000 0.000000
O O15 0.224485 0.898110 0.534782
O O16 0.922418 0.200626 0.295034
O O17 0.457989 0.361745 0.896528
#
# Coordination Sequence:
#
# PCOD9257467 Si02
#       8
#     8   8   8   8   8   8   8   8
#     4  10  18  31  55  78 102 126 183 218 253 297
#     4   9  17  30  48  75 102 144 170 205 244 322
#     4   7  15  34  59  67  97 138 172 191 270 327
#     4  10  18  34  53  68 101 153 179 202 252 317
#     4   9  18  31  49  73 107 137 178 207 255 303
#     4   7  15  32  54  73  92 139 170 202 257 322
#     4  10  19  33  54  81 102 132 170 227 260 306
#     4   9  18  32  52  71 105 140 171 202 266 313
#
# _framework density 24.472719999999999
#
# number of rings (size 3 to 8) (size 9 to 14) (size 15 to 20)
#    0.750    2.250    1.250    0.000    1.750    0.500 
#    0.000    6.875    2.750   10.500    0.000    0.000 
#    0.000    0.000    0.000    0.000    0.000    0.000 
#
# Total GULP energy -178330.211600 kJ/mol
# GULP energy per Si atom -5572.819113 kJ/mol
# Density = 2.441702 g / cm^3
# Si number density = 24.472720 Si / 1000 Ang^3
#
#
#
# Elastic Constant Matrix: (Units=GPa)
#
#
# Indices 1 2 3 4 5 6 
#
# 1 98.1256 36.0522 17.4739 0.0000 1.9293 0.0000
# 2 36.0522 90.5584 16.6217 0.0000 29.6008 0.0000
# 3 17.4739 16.6217 39.3310 0.0000 9.3428 0.0000
# 4 0.0000 0.0000 0.0000 6.3394 0.0000 12.1078
# 5 1.9293 29.6008 9.3428 0.0000 36.7821 0.0000
# 6 0.0000 0.0000 0.0000 12.1078 0.0000 32.2226
#
#
#
# Elastic Compliance Matrix: (Units=1/GPa)
#
#
# Indices 1 2 3 4 5 6 
#
# 1 0.013163 -0.006188 -0.004525 0.000000 0.005438 0.000000
# 2 -0.006188 0.018414 -0.001692 0.000000 -0.014064 0.000000
# 3 -0.004525 -0.001692 0.029554 0.000000 -0.005908 0.000000
# 4 0.000000 0.000000 0.000000 0.558726 0.000000 -0.209944
# 5 0.005438 -0.014064 -0.005908 0.000000 0.039721 0.000000
# 6 0.000000 0.000000 0.000000 -0.209944 0.000000 0.109922
#
#
# Mechanical properties :
#
#
# Convention : Reuss Voigt Hill
#
# Bulk Modulus (GPa) = 27.53164 40.92338 34.22751
# Shear Modulus (GPa) = 6.20028 25.59328 15.89678
#
# Velocity S-wave (km/s) = 1.59344 3.23737 2.55143
# Velocity P-wave (km/s) = 3.82881 5.54369 4.76404
#
# Compressibility (1/GPa) = 0.03632185
#
# Stress axis : x y z
#
# Youngs Moduli (GPa) = 75.96906 54.30758 33.83630
#
# Poissons Ratio (x) = 0.33603 0.15311
# Poissons Ratio (y) = 0.47006 0.05725
# Poissons Ratio (z) = 0.34377 0.09189
#
# Static dielectric constant tensor:
#      x y z
#    x 2.199060 0.000000 -0.125040 
#    y 0.000000 2.003220 0.000000 
#    z -0.125040 0.000000 2.064720 
# 
# From -- ./inp_files/308020.got.cif
#   From: 2010.05.17/outbox.cif.g08.bks.cpg/sg15_155_cif.got.tgz:308020.got - 2010.06.03 18:47:42.
