data_PCOD9257568
_publ_section_title
;
Structure prediction by ZEFSAII (Michael W. Deem and Ramdas Pophale) SiO2 
 PCOD9257568
Probable space group: C 2/C
;
_chemical_formula_sum "Si O2"
_cell_formula_units_Z 44
_cell_length_a 9.739138
_cell_length_b 19.791643
_cell_length_c 10.847280
_cell_angle_alpha 90.000000
_cell_angle_beta 58.430074
_cell_angle_gamma 90.000000
_cell_volume 1781.409474
_symmetry_space_group_name_H-M "C 2/C"
_symmetry_group_IT_number 15
_symmetry_cell_setting 'monoclinic'
loop_
_space_group_symop_operation_xyz
x,y,z
-x,y,1/2-z
-x,-y,-z
x,-y,1/2+z
1/2+x,1/2+y,z
1/2-x,1/2+y,1/2-z
1/2-x,1/2-y,-z
1/2+x,1/2-y,1/2+z
loop_
_atom_site_type_symbol
_atom_site_label
_atom_site_fract_x
_atom_site_fract_y
_atom_site_fract_z
Si Si1 0.000000 0.586622 0.750000
Si Si2 0.750732 0.631199 0.044660
Si Si3 0.000000 0.840871 0.250000
Si Si4 0.629907 0.215719 0.323165
Si Si5 0.299749 0.975995 0.734619
Si Si6 0.705772 0.864169 0.560005
Si Si7 0.000000 0.042320 0.250000
O O1 0.142579 0.628267 0.624574
O O2 0.080393 0.537521 0.813047
O O3 0.767091 0.701655 0.104952
O O4 0.822651 0.578110 0.114543
O O5 0.579710 0.594964 0.114828
O O6 0.078381 0.790660 0.315273
O O7 0.846436 0.871397 0.394453
O O8 0.461830 0.170984 0.407745
O O9 0.737039 0.187709 0.158592
O O10 0.311012 0.935554 0.859141
O O11 0.878429 0.000228 0.222717
#
# Coordination Sequence:
#
# PCOD9257568 Si02
#       7
#     4   8   4   8   8   8   4
#     4  12  20  35  66  81 114 159 208 231 278 358
#     4   9  20  36  55  83 110 159 192 238 285 348
#     4  10  18  31  61  98 110 144 201 255 284 336
#     4   9  16  33  56  81 116 149 181 239 294 343
#     4   9  19  36  56  78 115 158 187 238 292 335
#     4   9  17  32  56  87 110 147 194 242 283 345
#     4   8  20  38  53  75 120 155 187 242 296 330
#
# _framework density 24.699542999999998
#
# number of rings (size 3 to 8) (size 9 to 14) (size 15 to 20)
#    1.091    1.818    0.000    4.909    0.000    0.727 
#    3.273    0.909    0.000    2.182    0.000    0.000 
#    0.000    0.000    0.000    0.000    0.000    0.000 
#
# Total GULP energy -122528.163207 kJ/mol
# GULP energy per Si atom -5569.461964 kJ/mol
# Density = 2.464333 g / cm^3
# Si number density = 24.699543 Si / 1000 Ang^3
#
#
#
# Elastic Constant Matrix: (Units=GPa)
#
#
# Indices 1 2 3 4 5 6 
#
# 1 59.5014 12.0172 -2.3823 0.0000 -10.2297 0.0000
# 2 12.0172 31.7306 19.1073 0.0000 2.4759 0.0000
# 3 -2.3823 19.1073 146.7504 0.0000 -29.3638 0.0000
# 4 0.0000 0.0000 0.0000 24.3537 0.0000 -10.1527
# 5 -10.2297 2.4759 -29.3638 0.0000 16.6136 0.0000
# 6 0.0000 0.0000 0.0000 -10.1527 0.0000 -1.6602
#
#
#
# Elastic Compliance Matrix: (Units=1/GPa)
#
#
# Indices 1 2 3 4 5 6 
#
# 1 0.028381 -0.020672 0.011241 0.000000 0.040423 0.000000
# 2 -0.020672 0.054199 -0.017878 0.000000 -0.052404 0.000000
# 3 0.011241 -0.017878 0.017394 0.000000 0.040329 0.000000
# 4 0.000000 0.000000 0.000000 0.011569 0.000000 -0.070746
# 5 0.040423 -0.052404 0.040329 0.000000 0.164172 0.000000
# 6 0.000000 0.000000 0.000000 -0.070746 0.000000 -0.169701
#
#
# Mechanical properties :
#
#
# Convention : Reuss Voigt Hill
#
# Bulk Modulus (GPa) = 22.04788 32.82965 27.43876
# Shear Modulus (GPa) = 28.44942 21.81075 25.13009
#
# Velocity S-wave (km/s) = 3.39753 2.97483 3.19318
# Velocity P-wave (km/s) = 4.93323 5.01198 4.97276
#
# Compressibility (1/GPa) = 0.04535584
#
# Stress axis : x y z
#
# Youngs Moduli (GPa) = 35.23475 18.45055 57.49066
#
# Poissons Ratio (x) = 0.38140 -0.64623
# Poissons Ratio (y) = 0.72836 1.02783
# Poissons Ratio (z) = -0.39606 0.32986
#
# Static dielectric constant tensor:
#      x y z
#    x 1.661460 0.000000 0.508180 
#    y 0.000000 2.007980 0.000000 
#    z 0.508180 0.000000 1.270990 
# 
# From -- ./inp_files/34891.got.cif
#   From: 2010.05.17/outbox.cif.g08.bks.cpg/sg15_18_cif.got.tgz:34891.got - 2010.06.03 18:47:42.
