data_PCOD9257079
_publ_section_title
;
Structure prediction by ZEFSAII (Michael W. Deem and Ramdas Pophale) SiO2 
 PCOD9257079
Probable space group: C 2/C
;
_chemical_formula_sum "Si O2"
_cell_formula_units_Z 40
_cell_length_a 14.894750
_cell_length_b 21.426167
_cell_length_c 7.916667
_cell_angle_alpha 90.000000
_cell_angle_beta 141.980500
_cell_angle_gamma 90.000000
_cell_volume 1556.149002
_symmetry_space_group_name_H-M "C 2/C"
_symmetry_group_IT_number 15
_symmetry_cell_setting 'monoclinic'
loop_
_space_group_symop_operation_xyz
x,y,z
-x,y,1/2-z
-x,-y,-z
x,-y,1/2+z
1/2+x,1/2+y,z
1/2-x,1/2+y,1/2-z
1/2-x,1/2-y,-z
1/2+x,1/2-y,1/2+z
loop_
_atom_site_type_symbol
_atom_site_label
_atom_site_fract_x
_atom_site_fract_y
_atom_site_fract_z
Si Si1 0.160802 0.264189 0.600900
Si Si2 0.581471 0.817606 0.111929
Si Si3 0.260843 0.931623 0.299053
Si Si4 0.026124 0.153544 0.600416
Si Si5 0.641947 0.541593 0.261653
O O1 0.318613 0.232833 0.838840
O O2 0.136450 0.299949 0.385883
O O3 0.058095 0.204502 0.503244
O O4 0.092716 0.309754 0.639995
O O5 0.617717 0.885543 0.094336
O O6 0.166075 0.891697 0.291506
O O7 0.279492 0.000321 0.404495
O O8 0.163016 0.945470 0.988794
O O9 0.000000 0.176337 0.750000
O O10 0.888188 0.109237 0.359672
O O11 0.500000 0.500000 0.000000
#
# Coordination Sequence:
#
# PCOD9257079 Si02
#       5
#     8   8   8   8   8
#     4   9  19  33  57  83 114 151 191 232 279 339
#     4   9  19  34  59  86 115 149 199 231 282 348
#     4  10  20  33  53  82 115 149 189 240 294 339
#     4  10  19  31  52  85 118 145 185 245 291 330
#     4  10  18  30  53  79 112 144 187 238 289 329
#
# _framework density 25.704478000000002
#
# number of rings (size 3 to 8) (size 9 to 14) (size 15 to 20)
#    0.000    2.400    0.000    4.800   14.000    0.000 
#    0.000    4.000    4.400    4.800    0.000    0.000 
#    0.000    0.000    0.000    0.000    0.000    0.000 
#
# Total GULP energy -111434.145823 kJ/mol
# GULP energy per Si atom -5571.707291 kJ/mol
# Density = 2.564597 g / cm^3
# Si number density = 25.704478 Si / 1000 Ang^3
#
#
#
# Elastic Constant Matrix: (Units=GPa)
#
#
# Indices 1 2 3 4 5 6 
#
# 1 171.1962 64.9434 47.0819 0.0000 -2.2528 0.0000
# 2 64.9434 120.6753 31.1741 0.0000 -4.6049 0.0000
# 3 47.0819 31.1741 51.2718 0.0000 -22.7689 0.0000
# 4 0.0000 0.0000 0.0000 7.9973 0.0000 1.1732
# 5 -2.2528 -4.6049 -22.7689 0.0000 36.0946 0.0000
# 6 0.0000 0.0000 0.0000 1.1732 0.0000 41.4751
#
#
#
# Elastic Compliance Matrix: (Units=1/GPa)
#
#
# Indices 1 2 3 4 5 6 
#
# 1 0.009468 -0.002855 -0.009527 0.000000 -0.005783 0.000000
# 2 -0.002855 0.011020 -0.004908 0.000000 -0.001868 0.000000
# 3 -0.009527 -0.004908 0.042638 0.000000 0.025676 0.000000
# 4 0.000000 0.000000 0.000000 0.125564 0.000000 -0.003552
# 5 -0.005783 -0.001868 0.025676 0.000000 0.043302 0.000000
# 6 0.000000 0.000000 0.000000 -0.003552 0.000000 0.024211
#
#
# Mechanical properties :
#
#
# Convention : Reuss Voigt Hill
#
# Bulk Modulus (GPa) = 35.03009 69.94912 52.48961
# Shear Modulus (GPa) = 16.65006 30.44299 23.54653
#
# Velocity S-wave (km/s) = 2.54785 3.44517 3.02991
# Velocity P-wave (km/s) = 4.72366 6.56486 5.71885
#
# Compressibility (1/GPa) = 0.02854689
#
# Stress axis : x y z
#
# Youngs Moduli (GPa) = 105.61656 90.74505 23.45299
#
# Poissons Ratio (x) = 0.25909 0.22343
# Poissons Ratio (y) = 0.30155 0.11511
# Poissons Ratio (z) = 1.00616 0.44539
#
# Static dielectric constant tensor:
#      x y z
#    x 2.161330 0.000000 0.121910 
#    y 0.000000 2.117230 0.000000 
#    z 0.121910 0.000000 2.157160 
# 
# From -- ./inp_files/41073.got.cif
#   From: 2010.05.17/outbox.cif.g08.bks.cpg/sg15_21_cif.got.tgz:41073.got - 2010.06.03 18:47:42.
