data_PCOD9257611
_publ_section_title
;
Structure prediction by ZEFSAII (Michael W. Deem and Ramdas Pophale) SiO2 
 PCOD9257611
Probable space group: C 2/C
;
_chemical_formula_sum "Si O2"
_cell_formula_units_Z 60
_cell_length_a 24.198700
_cell_length_b 19.600156
_cell_length_c 5.443852
_cell_angle_alpha 90.000000
_cell_angle_beta 94.523675
_cell_angle_gamma 90.000000
_cell_volume 2573.966320
_symmetry_space_group_name_H-M "C 2/C"
_symmetry_group_IT_number 15
_symmetry_cell_setting 'monoclinic'
loop_
_space_group_symop_operation_xyz
x,y,z
-x,y,1/2-z
-x,-y,-z
x,-y,1/2+z
1/2+x,1/2+y,z
1/2-x,1/2+y,1/2-z
1/2-x,1/2-y,-z
1/2+x,1/2-y,1/2+z
loop_
_atom_site_type_symbol
_atom_site_label
_atom_site_fract_x
_atom_site_fract_y
_atom_site_fract_z
Si Si1 0.122214 0.339831 0.564318
Si Si2 0.095657 0.229330 0.241490
Si Si3 0.308524 0.073618 0.776756
Si Si4 0.593893 0.651113 0.744360
Si Si5 0.180507 0.960582 0.238200
Si Si6 0.808914 0.716339 0.009974
Si Si7 0.500000 0.458699 0.250000
Si Si8 0.083451 0.522595 0.174701
O O1 0.082378 0.304582 0.347243
O O2 0.170365 0.383640 0.450690
O O3 0.090292 0.396456 0.709697
O O4 0.151188 0.281417 0.738049
O O5 0.084538 0.180680 0.467328
O O6 0.159967 0.244720 0.198983
O O7 0.076886 0.198833 0.973387
O O8 0.247573 0.042815 0.743845
O O9 0.305162 0.135085 0.970609
O O10 0.357124 0.018595 0.838438
O O11 0.654886 0.615239 0.770478
O O12 0.553956 0.587476 0.762069
O O13 0.163633 0.006320 0.469499
O O14 0.750000 0.750000 0.000000
O O15 0.500000 0.500000 0.500000
O O16 0.056847 0.489924 0.402463
#
# Coordination Sequence:
#
# PCOD9257611 Si02
#       8
#     8   8   8   8   8   8   4   8
#     4  10  21  36  55  80 120 165 217 263 311 366
#     4  11  24  41  60  90 122 163 207 259 322 388
#     4  10  22  32  53  79 117 166 223 263 306 351
#     4  12  25  45  68  93 125 157 205 271 339 409
#     4  12  25  39  57  84 118 159 212 272 322 369
#     4  11  22  36  56  82 122 175 221 263 310 374
#     4  12  26  50  80 106 128 162 210 268 352 428
#     4  10  18  32  49  72 105 156 211 261 298 338
#
# _framework density 23.310326
#
# number of rings (size 3 to 8) (size 9 to 14) (size 15 to 20)
#    0.000    1.067    2.667    4.800    3.733    1.067 
#    0.000    0.000    0.000    0.000    0.000    0.000 
#    0.000    0.000    0.000  108.000    0.533    0.267 
#
# Total GULP energy -167297.533918 kJ/mol
# GULP energy per Si atom -5576.584464 kJ/mol
# Density = 2.325727 g / cm^3
# Si number density = 23.310326 Si / 1000 Ang^3
#
#
#
# Elastic Constant Matrix: (Units=GPa)
#
#
# Indices 1 2 3 4 5 6 
#
# 1 43.3140 17.5291 5.4290 0.0000 0.3265 0.0000
# 2 17.5291 74.4965 60.4931 0.0000 -11.3960 0.0000
# 3 5.4290 60.4931 170.0915 0.0000 -1.5352 0.0000
# 4 0.0000 0.0000 0.0000 59.0635 0.0000 -11.1805
# 5 0.3265 -11.3960 -1.5352 0.0000 14.2100 0.0000
# 6 0.0000 0.0000 0.0000 -11.1805 0.0000 -12.3784
#
#
#
# Elastic Compliance Matrix: (Units=1/GPa)
#
#
# Indices 1 2 3 4 5 6 
#
# 1 0.026678 -0.009483 0.002449 0.000000 -0.007953 0.000000
# 2 -0.009483 0.025747 -0.008675 0.000000 0.019929 0.000000
# 3 0.002449 -0.008675 0.008831 0.000000 -0.006059 0.000000
# 4 0.000000 0.000000 0.000000 0.014459 0.000000 -0.013060
# 5 -0.007953 0.019929 -0.006059 0.000000 0.085884 0.000000
# 6 0.000000 0.000000 0.000000 -0.013060 0.000000 -0.068990
#
#
# Mechanical properties :
#
#
# Convention : Reuss Voigt Hill
#
# Bulk Modulus (GPa) = 33.51151 50.53380 42.02266
# Shear Modulus (GPa) = 37.32113 25.80908 31.56511
#
# Velocity S-wave (km/s) = 4.00566 3.33106 3.68384
# Velocity P-wave (km/s) = 5.98341 6.04321 6.01339
#
# Compressibility (1/GPa) = 0.02984049
#
# Stress axis : x y z
#
# Youngs Moduli (GPa) = 37.48418 38.83884 113.23202
#
# Poissons Ratio (x) = 0.36831 -0.27734
# Poissons Ratio (y) = 0.35546 0.98223
# Poissons Ratio (z) = -0.09181 0.33691
#
# Static dielectric constant tensor:
#      x y z
#    x 1.634030 0.000000 -0.094580 
#    y 0.000000 1.946830 0.000000 
#    z -0.094580 0.000000 1.941740 
# 
# From -- ./inp_files/17189.got.cif
#   From: 2010.05.17/outbox.cif.g08.bks.cpg/sg15_9_cif.got.tgz:17189.got - 2010.06.03 18:47:42.
