data_PCOD9257294
_publ_section_title
;
Structure prediction by ZEFSAII (Michael W. Deem and Ramdas Pophale) SiO2 
 PCOD9257294
Probable space group: C 2/C
;
_chemical_formula_sum "Si O2"
_cell_formula_units_Z 60
_cell_length_a 20.551604
_cell_length_b 26.914114
_cell_length_c 12.397233
_cell_angle_alpha 90.000000
_cell_angle_beta 155.264017
_cell_angle_gamma 90.000000
_cell_volume 2869.334825
_symmetry_space_group_name_H-M "C 2/C"
_symmetry_group_IT_number 15
_symmetry_cell_setting 'monoclinic'
loop_
_space_group_symop_operation_xyz
x,y,z
-x,y,1/2-z
-x,-y,-z
x,-y,1/2+z
1/2+x,1/2+y,z
1/2-x,1/2+y,1/2-z
1/2-x,1/2-y,-z
1/2+x,1/2-y,1/2+z
loop_
_atom_site_type_symbol
_atom_site_label
_atom_site_fract_x
_atom_site_fract_y
_atom_site_fract_z
Si Si1 0.693677 0.090114 0.214449
Si Si2 0.666954 0.009857 0.977940
Si Si3 0.351169 0.920626 0.250382
Si Si4 0.130058 0.240267 0.222154
Si Si5 0.106357 0.953002 0.061236
Si Si6 0.500000 0.540250 0.750000
Si Si7 0.590789 0.359111 0.774388
Si Si8 0.614486 0.799381 0.527968
O O1 0.682149 0.053017 0.093153
O O2 0.846777 0.074543 0.510390
O O3 0.683712 0.146409 0.156626
O O4 0.534256 0.084140 0.042534
O O5 0.802510 0.970852 0.198020
O O6 0.500000 0.986219 0.750000
O O7 0.666770 0.035135 0.862318
O O8 0.242399 0.933826 0.186317
O O9 0.269361 0.872243 0.073041
O O10 0.250000 0.250000 0.500000
O O11 0.071234 0.185008 0.161808
O O12 0.241208 0.236910 0.285683
O O13 0.988475 0.277867 0.028569
O O14 0.982808 0.909393 0.883837
O O15 0.028279 0.000567 0.888485
O O16 0.500000 0.347948 0.750000
O O17 0.500000 0.802036 0.250000
#
# Coordination Sequence:
#
# PCOD9257294 Si02
#       8
#     8   8   8   8   8   4   8   8
#     4  10  20  33  56  76 110 143 190 227 282 335
#     4   9  19  32  50  76 102 143 186 230 270 334
#     4  10  18  33  55  74 106 150 183 230 287 341
#     4  10  19  31  53  80 116 139 180 233 296 349
#     4  10  20  36  49  77 116 142 191 234 280 341
#     4  10  20  38  48  78 112 148 190 236 270 338
#     4  10  18  31  50  79 112 142 176 231 296 341
#     4  10  19  34  54  86 112 140 183 239 291 357
#
# _framework density 20.910771
#
# number of rings (size 3 to 8) (size 9 to 14) (size 15 to 20)
#    0.000    2.133    2.000    4.800    0.000    6.400 
#    2.400    0.000    0.000    0.800    1.733    0.000 
#    0.000    0.000    0.000    0.000    0.000    0.000 
#
# Total GULP energy -167546.327808 kJ/mol
# GULP energy per Si atom -5584.877594 kJ/mol
# Density = 2.086318 g / cm^3
# Si number density = 20.910771 Si / 1000 Ang^3
#
#
#
# Elastic Constant Matrix: (Units=GPa)
#
#
# Indices 1 2 3 4 5 6 
#
# 1 34.7588 15.5672 16.6763 0.0000 21.9223 0.0000
# 2 15.5672 88.3725 48.0187 0.0000 13.4092 0.0000
# 3 16.6763 48.0187 126.7010 0.0000 21.4702 0.0000
# 4 0.0000 0.0000 0.0000 31.3701 0.0000 6.7835
# 5 21.9223 13.4092 21.4702 0.0000 27.6366 0.0000
# 6 0.0000 0.0000 0.0000 6.7835 0.0000 18.2788
#
#
#
# Elastic Compliance Matrix: (Units=1/GPa)
#
#
# Indices 1 2 3 4 5 6 
#
# 1 0.058829 -0.004306 0.001661 0.000000 -0.045867 0.000000
# 2 -0.004306 0.014805 -0.005074 0.000000 0.000174 0.000000
# 3 0.001661 -0.005074 0.010828 0.000000 -0.007268 0.000000
# 4 0.000000 0.000000 0.000000 0.034659 0.000000 -0.012862
# 5 -0.045867 0.000174 -0.007268 0.000000 0.078129 0.000000
# 6 0.000000 0.000000 0.000000 -0.012862 0.000000 0.059481
#
#
# Mechanical properties :
#
#
# Convention : Reuss Voigt Hill
#
# Bulk Modulus (GPa) = 14.48738 45.59520 30.04129
# Shear Modulus (GPa) = 16.93895 26.76178 21.85037
#
# Velocity S-wave (km/s) = 2.84924 3.58132 3.23605
# Velocity P-wave (km/s) = 4.21515 6.24125 5.32544
#
# Compressibility (1/GPa) = 0.06902560
#
# Stress axis : x y z
#
# Youngs Moduli (GPa) = 16.99831 67.54623 92.34909
#
# Poissons Ratio (x) = 0.29086 -0.15342
# Poissons Ratio (y) = 0.07320 0.46854
# Poissons Ratio (z) = -0.02824 0.34270
#
# Static dielectric constant tensor:
#      x y z
#    x 1.733320 0.000000 0.094330 
#    y 0.000000 1.804170 0.000000 
#    z 0.094330 0.000000 1.732790 
# 
# From -- ./inp_files/174935.got.cif
#   From: 2010.05.17/outbox.cif.g08.bks.cpg/sg15_88_cif.got.tgz:174935.got - 2010.06.03 18:47:42.
