data_PCOD9257395
_publ_section_title
;
Structure prediction by ZEFSAII (Michael W. Deem and Ramdas Pophale) SiO2 
 PCOD9257395
Probable space group: C 2/C
;
_chemical_formula_sum "Si O2"
_cell_formula_units_Z 48
_cell_length_a 13.251275
_cell_length_b 17.575170
_cell_length_c 22.500558
_cell_angle_alpha 90.000000
_cell_angle_beta 152.747555
_cell_angle_gamma 90.000000
_cell_volume 2399.564202
_symmetry_space_group_name_H-M "C 2/C"
_symmetry_group_IT_number 15
_symmetry_cell_setting 'monoclinic'
loop_
_space_group_symop_operation_xyz
x,y,z
-x,y,1/2-z
-x,-y,-z
x,-y,1/2+z
1/2+x,1/2+y,z
1/2-x,1/2+y,1/2-z
1/2-x,1/2-y,-z
1/2+x,1/2-y,1/2+z
loop_
_atom_site_type_symbol
_atom_site_label
_atom_site_fract_x
_atom_site_fract_y
_atom_site_fract_z
Si Si1 0.284151 0.447218 0.099714
Si Si2 0.748025 0.523566 0.052618
Si Si3 0.413130 0.886671 0.984906
Si Si4 0.248604 0.769364 0.067810
Si Si5 0.504094 0.394325 0.510394
Si Si6 0.411969 0.895724 0.291315
O O1 0.500000 0.426381 0.250000
O O2 0.078597 0.398570 0.016795
O O3 0.308678 0.443144 0.041608
O O4 0.228271 0.536122 0.083939
O O5 0.572621 0.458874 0.982803
O O6 0.972825 0.476322 0.163175
O O7 0.728430 0.584714 0.094939
O O8 0.556991 0.883941 0.121738
O O9 0.263311 0.810963 0.904231
O O10 0.032646 0.815182 0.975974
O O11 0.445701 0.830676 0.167040
O O12 0.250000 0.750000 0.000000
O O13 0.326214 0.393857 0.363031
#
# Coordination Sequence:
#
# PCOD9257395 Si02
#       6
#     8   8   8   8   8   8
#     4  10  19  32  50  71 100 133 159 193 242 287
#     4   9  18  30  48  75  98 125 164 196 230 286
#     4   9  19  33  50  74  99 124 162 203 235 284
#     4   9  17  30  47  67  92 120 155 198 238 272
#     4  10  18  31  53  74  96 128 161 198 242 281
#     4   9  17  32  54  73  95 128 160 199 242 278
#
# _framework density 20.003632
#
# number of rings (size 3 to 8) (size 9 to 14) (size 15 to 20)
#    0.000    2.667    0.000    4.000    0.000    1.333 
#    0.000    0.833    0.000    6.000    0.000    0.000 
#    0.000    0.000    0.000    0.000    0.000    0.000 
#
# Total GULP energy -133644.808401 kJ/mol
# GULP energy per Si atom -5568.533683 kJ/mol
# Density = 1.995810 g / cm^3
# Si number density = 20.003632 Si / 1000 Ang^3
#
#
#
# Elastic Constant Matrix: (Units=GPa)
#
#
# Indices 1 2 3 4 5 6 
#
# 1 129.9293 31.7107 22.3597 0.0002 -13.4044 0.0004
# 2 31.7107 80.8934 7.5968 0.0008 9.6954 0.0006
# 3 22.3597 7.5968 53.2415 -0.0054 -9.1327 -0.0008
# 4 0.0002 0.0008 -0.0054 -0.0874 -0.0008 -11.1589
# 5 -13.4044 9.6954 -9.1327 -0.0008 26.2339 -0.0001
# 6 0.0004 0.0006 -0.0008 -11.1589 -0.0001 27.8547
#
#
#
# Elastic Compliance Matrix: (Units=1/GPa)
#
#
# Indices 1 2 3 4 5 6 
#
# 1 0.009758 -0.004271 -0.002513 0.000002 0.005690 0.000001
# 2 -0.004271 0.015220 -0.001826 0.000007 -0.008443 0.000003
# 3 -0.002513 -0.001826 0.021263 -0.000029 0.006793 -0.000011
# 4 0.000002 0.000007 -0.000029 -0.219403 -0.000019 -0.087896
# 5 0.005690 -0.008443 0.006793 -0.000019 0.046511 -0.000007
# 6 0.000001 0.000003 -0.000011 -0.087896 -0.000007 0.000688
#
#
# Mechanical properties :
#
#
# Convention : Reuss Voigt Hill
#
# Bulk Modulus (GPa) = 34.45746 43.04428 38.75087
# Shear Modulus (GPa) = -50.47034 24.29338 -13.08848
#
# Velocity S-wave (km/s) = -5.02846 3.48867 -2.56071
# Velocity P-wave (km/s) = 4.05596 6.14758 3.26664
#
# Compressibility (1/GPa) = 0.02902129
#
# Stress axis : x y z
#
# Youngs Moduli (GPa) = 102.47596 65.70410 47.02912
#
# Poissons Ratio (x) = 0.28064 0.11817
# Poissons Ratio (y) = 0.43771 0.08588
# Poissons Ratio (z) = 0.25749 0.11998
#
# Static dielectric constant tensor:
#      x y z
#    x 1.723690 0.000000 0.005900 
#    y 0.000000 1.851960 0.000000 
#    z 0.005900 0.000000 1.762520 
# 
# From -- ./inp_files/239659.got.cif
#   From: 2010.05.17/outbox.cif.g08.bks.cpg/sg15_120_cif.got.tgz:239659.got - 2010.06.03 18:47:42.
