data_PCOD9257946
_publ_section_title
;
Structure prediction by ZEFSAII (Michael W. Deem and Ramdas Pophale) SiO2 
 PCOD9257946
Probable space group: C 2/C
;
_chemical_formula_sum "Si O2"
_cell_formula_units_Z 36
_cell_length_a 5.883734
_cell_length_b 15.439843
_cell_length_c 17.966955
_cell_angle_alpha 90.000000
_cell_angle_beta 79.406571
_cell_angle_gamma 90.000000
_cell_volume 1604.370479
_symmetry_space_group_name_H-M "C 2/C"
_symmetry_group_IT_number 15
_symmetry_cell_setting 'monoclinic'
loop_
_space_group_symop_operation_xyz
x,y,z
-x,y,1/2-z
-x,-y,-z
x,-y,1/2+z
1/2+x,1/2+y,z
1/2-x,1/2+y,1/2-z
1/2-x,1/2-y,-z
1/2+x,1/2-y,1/2+z
loop_
_atom_site_type_symbol
_atom_site_label
_atom_site_fract_x
_atom_site_fract_y
_atom_site_fract_z
Si Si1 0.019355 0.863874 0.011791
Si Si2 0.152469 0.491154 0.063578
Si Si3 0.420463 0.122213 0.170820
Si Si4 0.000000 0.779387 0.750000
Si Si5 0.291935 0.236442 0.609755
O O1 0.186840 0.844627 0.071815
O O2 0.774760 0.898094 0.057089
O O3 0.022113 0.781453 0.956708
O O4 0.135630 0.940270 0.955598
O O5 0.982338 0.528253 0.136068
O O6 0.000000 0.500000 0.000000
O O7 0.500000 0.122340 0.250000
O O8 0.162444 0.157493 0.191217
O O9 0.577325 0.195060 0.121924
O O10 0.869080 0.727206 0.691511
#
# Coordination Sequence:
#
# PCOD9257946 Si02
#       5
#     8   8   8   4   8
#     4   9  19  34  55  84 118 144 195 247 296 348
#     4  10  19  33  56  83 112 153 193 239 294 357
#     4   9  19  34  56  79 109 151 201 237 290 353
#     4  10  18  32  56  82 112 156 200 246 294 354
#     4   9  18  34  56  85 111 152 195 248 295 353
#
# _framework density 22.438706
#
# number of rings (size 3 to 8) (size 9 to 14) (size 15 to 20)
#    0.000    2.667    0.000    1.333    0.000    3.556 
#    0.000    6.667   19.556    0.000    0.000    0.000 
#    0.000    0.000    0.000    0.000    0.000    0.000 
#
# Total GULP energy -100312.097362 kJ/mol
# GULP energy per Si atom -5572.894298 kJ/mol
# Density = 2.238763 g / cm^3
# Si number density = 22.438706 Si / 1000 Ang^3
#
#
#
# Elastic Constant Matrix: (Units=GPa)
#
#
# Indices 1 2 3 4 5 6 
#
# 1 63.3394 26.4534 26.9418 0.0000 2.9193 0.0000
# 2 26.4534 65.6481 26.6645 0.0000 -3.6800 0.0000
# 3 26.9418 26.6645 89.5256 0.0000 1.7644 0.0000
# 4 0.0000 0.0000 0.0000 29.5984 0.0000 -11.4653
# 5 2.9193 -3.6800 1.7644 0.0000 38.7162 0.0000
# 6 0.0000 0.0000 0.0000 -11.4653 0.0000 27.0747
#
#
#
# Elastic Compliance Matrix: (Units=1/GPa)
#
#
# Indices 1 2 3 4 5 6 
#
# 1 0.020415 -0.006664 -0.004120 0.000000 -0.001985 0.000000
# 2 -0.006664 0.019643 -0.003895 0.000000 0.002547 0.000000
# 3 -0.004120 -0.003895 0.013583 0.000000 -0.000679 0.000000
# 4 0.000000 0.000000 0.000000 0.040415 0.000000 0.017115
# 5 -0.001985 0.002547 -0.000679 0.000000 0.026252 0.000000
# 6 0.000000 0.000000 0.000000 0.017115 0.000000 0.044182
#
#
# Mechanical properties :
#
#
# Convention : Reuss Voigt Hill
#
# Bulk Modulus (GPa) = 41.18099 42.07029 41.62564
# Shear Modulus (GPa) = 24.75938 28.30807 26.53373
#
# Velocity S-wave (km/s) = 3.32538 3.55572 3.44248
# Velocity P-wave (km/s) = 5.75645 5.97053 5.86447
#
# Compressibility (1/GPa) = 0.02428305
#
# Stress axis : x y z
#
# Youngs Moduli (GPa) = 48.98323 50.90843 73.61997
#
# Poissons Ratio (x) = 0.33928 0.30329
# Poissons Ratio (y) = 0.32644 0.28676
# Poissons Ratio (z) = 0.20179 0.19830
#
# Static dielectric constant tensor:
#      x y z
#    x 1.959640 0.000000 0.005330 
#    y 0.000000 -2.773710 0.000000 
#    z 0.005330 0.000000 1.752100 
# 
# From -- ./inp_files/184143.got.cif
#   From: 2010.05.17/outbox.cif.g08.bks.cpg/sg15_93_cif.got.tgz:184143.got - 2010.06.03 18:47:42.
