data_PCOD9257459
_publ_section_title
;
Structure prediction by ZEFSAII (Michael W. Deem and Ramdas Pophale) SiO2 
 PCOD9257459
Probable space group: C 2/C
;
_chemical_formula_sum "Si O2"
_cell_formula_units_Z 56
_cell_length_a 5.742540
_cell_length_b 18.022727
_cell_length_c 27.998675
_cell_angle_alpha 90.000000
_cell_angle_beta 112.829026
_cell_angle_gamma 90.000000
_cell_volume 2670.766486
_symmetry_space_group_name_H-M "C 2/C"
_symmetry_group_IT_number 15
_symmetry_cell_setting 'monoclinic'
loop_
_space_group_symop_operation_xyz
x,y,z
-x,y,1/2-z
-x,-y,-z
x,-y,1/2+z
1/2+x,1/2+y,z
1/2-x,1/2+y,1/2-z
1/2-x,1/2-y,-z
1/2+x,1/2-y,1/2+z
loop_
_atom_site_type_symbol
_atom_site_label
_atom_site_fract_x
_atom_site_fract_y
_atom_site_fract_z
Si Si1 0.508732 0.103036 0.952552
Si Si2 0.237672 0.173813 0.743973
Si Si3 0.628184 0.289518 0.052232
Si Si4 0.456376 0.605447 0.869017
Si Si5 0.662022 0.982860 0.890923
Si Si6 0.359422 0.859047 0.538730
Si Si7 0.197533 0.511548 0.721629
O O1 0.632791 0.185109 0.959599
O O2 0.248997 0.108790 0.903626
O O3 0.655327 0.039455 0.935687
O O4 0.466177 0.088630 0.004935
O O5 0.500000 0.213107 0.750000
O O6 0.122131 0.134034 0.688376
O O7 0.000000 0.214168 0.750000
O O8 0.316016 0.101859 0.781750
O O9 0.664830 0.337164 0.103182
O O10 0.561871 0.206466 0.061328
O O11 0.390353 0.323305 0.004425
O O12 0.366951 0.521945 0.873113
O O13 0.702617 0.903755 0.918479
O O14 0.415854 0.982024 0.837281
O O15 0.500000 0.493244 0.750000
O O16 0.000000 0.491591 0.750000
#
# Coordination Sequence:
#
# PCOD9257459 Si02
#       7
#     8   8   8   8   8   8   8
#     4  10  20  34  56  82 115 146 193 245 298 353
#     4  10  18  31  54  84 119 149 189 243 303 355
#     4   9  21  38  56  76 114 158 198 239 296 373
#     4  10  20  34  55  85 114 149 193 247 297 360
#     4  11  21  33  56  88 115 148 194 252 304 360
#     4  10  21  38  55  80 115 156 196 239 303 369
#     4  10  19  34  55  83 123 153 188 240 309 363
#
# _framework density 20.967763999999999
#
# number of rings (size 3 to 8) (size 9 to 14) (size 15 to 20)
#    0.000    2.000    2.857    2.571    2.000    6.286 
#    0.000    0.000    0.000    1.714    0.000    0.000 
#    0.000    0.000    0.000    0.000    0.000    0.000 
#
# Total GULP energy -156003.689397 kJ/mol
# GULP energy per Si atom -5571.560336 kJ/mol
# Density = 2.092004 g / cm^3
# Si number density = 20.967764 Si / 1000 Ang^3
#
#
#
# Elastic Constant Matrix: (Units=GPa)
#
#
# Indices 1 2 3 4 5 6 
#
# 1 118.6847 21.6789 17.1934 0.0000 -2.2764 0.0000
# 2 21.6789 60.8958 28.1222 0.0000 5.3717 0.0000
# 3 17.1934 28.1222 72.1787 0.0000 -6.3860 0.0000
# 4 0.0000 0.0000 0.0000 2.5587 0.0000 15.5494
# 5 -2.2764 5.3717 -6.3860 0.0000 22.4564 0.0000
# 6 0.0000 0.0000 0.0000 15.5494 0.0000 -16.9384
#
#
#
# Elastic Compliance Matrix: (Units=1/GPa)
#
#
# Indices 1 2 3 4 5 6 
#
# 1 0.009122 -0.002953 -0.000901 0.000000 0.001375 0.000000
# 2 -0.002953 0.022180 -0.008652 0.000000 -0.008065 0.000000
# 3 -0.000901 -0.008652 0.018070 0.000000 0.007117 0.000000
# 4 0.000000 0.000000 0.000000 0.059407 0.000000 0.054535
# 5 0.001375 -0.008065 0.007117 0.000000 0.048623 0.000000
# 6 0.000000 0.000000 0.000000 0.054535 0.000000 -0.008974
#
#
# Mechanical properties :
#
#
# Convention : Reuss Voigt Hill
#
# Bulk Modulus (GPa) = 41.05005 42.86090 41.95547
# Shear Modulus (GPa) = 27.53947 13.93301 20.73624
#
# Velocity S-wave (km/s) = 3.62804 2.58058 3.14818
# Velocity P-wave (km/s) = 6.09676 5.41894 5.76781
#
# Compressibility (1/GPa) = 0.02436051
#
# Stress axis : x y z
#
# Youngs Moduli (GPa) = 109.62646 45.08662 55.34137
#
# Poissons Ratio (x) = 0.13312 0.04985
# Poissons Ratio (y) = 0.32369 0.47880
# Poissons Ratio (z) = 0.09876 0.39008
#
# Static dielectric constant tensor:
#      x y z
#    x 1.900540 0.000000 -0.062790 
#    y 0.000000 1.744880 0.000000 
#    z -0.062790 0.000000 1.790480 
# 
# From -- ./inp_files/305714.got.cif
#   From: 2010.05.17/outbox.cif.g08.bks.cpg/sg15_153_cif.got.tgz:305714.got - 2010.06.03 18:47:42.
