data_PCOD9257951
_publ_section_title
;
Structure prediction by ZEFSAII (Michael W. Deem and Ramdas Pophale) SiO2 
 PCOD9257951
Probable space group: C 2/C
;
_chemical_formula_sum "Si O2"
_cell_formula_units_Z 64
_cell_length_a 9.502114
_cell_length_b 16.569065
_cell_length_c 19.681592
_cell_angle_alpha 90.000000
_cell_angle_beta 104.059215
_cell_angle_gamma 90.000000
_cell_volume 3005.871606
_symmetry_space_group_name_H-M "C 2/C"
_symmetry_group_IT_number 15
_symmetry_cell_setting 'monoclinic'
loop_
_space_group_symop_operation_xyz
x,y,z
-x,y,1/2-z
-x,-y,-z
x,-y,1/2+z
1/2+x,1/2+y,z
1/2-x,1/2+y,1/2-z
1/2-x,1/2-y,-z
1/2+x,1/2-y,1/2+z
loop_
_atom_site_type_symbol
_atom_site_label
_atom_site_fract_x
_atom_site_fract_y
_atom_site_fract_z
Si Si1 0.021839 0.605325 0.533762
Si Si2 0.717172 0.785137 0.336001
Si Si3 0.912242 0.092532 0.944754
Si Si4 0.836419 0.171538 0.714525
Si Si5 0.787750 0.071605 0.468257
Si Si6 0.773801 0.169657 0.047708
Si Si7 0.787204 0.244329 0.424902
Si Si8 0.961794 0.583272 0.815888
O O1 0.142505 0.573179 0.496329
O O2 0.074356 0.695980 0.563526
O O3 0.008005 0.556853 0.602947
O O4 0.871967 0.618098 0.477474
O O5 0.837736 0.841386 0.388237
O O6 0.778526 0.771175 0.268338
O O7 0.696092 0.702949 0.374635
O O8 0.571014 0.838982 0.320992
O O9 0.825080 0.009175 0.931669
O O10 0.893814 0.121251 0.020843
O O11 0.083323 0.080762 0.960118
O O12 0.823986 0.217135 0.641426
O O13 0.709962 0.103808 0.702705
O O14 0.000000 0.145273 0.750000
O O15 0.792859 0.148364 0.418542
O O16 0.750000 0.250000 0.000000
O O17 0.750000 0.250000 0.500000
O O18 0.000000 0.536737 0.750000
#
# Coordination Sequence:
#
# PCOD9257951 Si02
#       8
#     8   8   8   8   8   8   8   8
#     4  10  18  32  56  84 107 146 193 244 286 338
#     4  10  20  35  56  82 117 149 193 240 293 346
#     4  10  21  36  54  85 118 160 192 243 295 346
#     4  10  22  32  57  90 114 142 187 248 303 346
#     4  10  22  34  55  84 122 153 199 239 296 351
#     4  10  18  32  56  83 109 144 194 240 285 342
#     4   9  19  34  57  84 115 143 185 242 291 336
#     4   9  18  34  49  79 113 147 182 235 298 341
#
# _framework density 21.291661999999999
#
# number of rings (size 3 to 8) (size 9 to 14) (size 15 to 20)
#    0.000    2.250    2.500    1.500   10.500    0.500 
#    0.000    0.000    0.000    8.250    0.000    0.000 
#    0.000    0.000    0.000    0.000    0.000    0.000 
#
# Total GULP energy -178325.026859 kJ/mol
# GULP energy per Si atom -5572.657089 kJ/mol
# Density = 2.124320 g / cm^3
# Si number density = 21.291662 Si / 1000 Ang^3
#
#
#
# Elastic Constant Matrix: (Units=GPa)
#
#
# Indices 1 2 3 4 5 6 
#
# 1 133.4712 0.2096 33.0838 0.0000 8.5808 0.0000
# 2 0.2096 63.9818 15.1581 0.0000 -8.4528 0.0000
# 3 33.0838 15.1581 89.3119 0.0000 -4.5645 0.0000
# 4 0.0000 0.0000 0.0000 7.0057 0.0000 -0.3949
# 5 8.5808 -8.4528 -4.5645 0.0000 33.8715 0.0000
# 6 0.0000 0.0000 0.0000 -0.3949 0.0000 18.1218
#
#
#
# Elastic Compliance Matrix: (Units=1/GPa)
#
#
# Indices 1 2 3 4 5 6 
#
# 1 0.008480 0.000435 -0.003342 0.000000 -0.002490 0.000000
# 2 0.000435 0.016785 -0.002821 0.000000 0.003698 0.000000
# 3 -0.003342 -0.002821 0.013011 0.000000 0.001896 0.000000
# 4 0.000000 0.000000 0.000000 0.142916 0.000000 0.003114
# 5 -0.002490 0.003698 0.001896 0.000000 0.031333 0.000000
# 6 0.000000 0.000000 0.000000 0.003114 0.000000 0.055250
#
#
# Mechanical properties :
#
#
# Convention : Reuss Voigt Hill
#
# Bulk Modulus (GPa) = 37.28680 42.62976 39.95828
# Shear Modulus (GPa) = 17.35084 27.68735 22.51909
#
# Velocity S-wave (km/s) = 2.85776 3.61000 3.25568
# Velocity P-wave (km/s) = 5.33287 6.11894 5.73938
#
# Compressibility (1/GPa) = 0.02681915
#
# Stress axis : x y z
#
# Youngs Moduli (GPa) = 117.92240 59.57724 76.86088
#
# Poissons Ratio (x) = -0.02592 0.25690
# Poissons Ratio (y) = -0.05131 0.21682
# Poissons Ratio (z) = 0.39415 0.16806
#
# Static dielectric constant tensor:
#      x y z
#    x 1.812430 0.000000 0.005160 
#    y 0.000000 1.832320 0.000000 
#    z 0.005160 0.000000 1.844860 
# 
# From -- ./inp_files/265277.got.cif
#   From: 2010.05.17/outbox.cif.g08.bks.cpg/sg15_133_cif.got.tgz:265277.got - 2010.06.03 18:47:42.
