data_PCOD9257922
_publ_section_title
;
Structure prediction by ZEFSAII (Michael W. Deem and Ramdas Pophale) SiO2 
 PCOD9257922
Probable space group: C 2/C
;
_chemical_formula_sum "Si O2"
_cell_formula_units_Z 48
_cell_length_a 8.668589
_cell_length_b 11.207213
_cell_length_c 20.269124
_cell_angle_alpha 90.000000
_cell_angle_beta 119.507015
_cell_angle_gamma 90.000000
_cell_volume 1713.750940
_symmetry_space_group_name_H-M "C 2/C"
_symmetry_group_IT_number 15
_symmetry_cell_setting 'monoclinic'
loop_
_space_group_symop_operation_xyz
x,y,z
-x,y,1/2-z
-x,-y,-z
x,-y,1/2+z
1/2+x,1/2+y,z
1/2-x,1/2+y,1/2-z
1/2-x,1/2-y,-z
1/2+x,1/2-y,1/2+z
loop_
_atom_site_type_symbol
_atom_site_label
_atom_site_fract_x
_atom_site_fract_y
_atom_site_fract_z
Si Si1 0.418344 0.892823 0.609834
Si Si2 0.867895 0.641891 0.859144
Si Si3 0.668219 0.451528 0.976892
Si Si4 0.080201 0.279514 0.532781
Si Si5 0.500000 0.170125 0.750000
Si Si6 0.698044 0.524611 0.169630
Si Si7 0.500000 0.544149 0.750000
O O1 0.508477 0.783897 0.591715
O O2 0.330585 0.881598 0.662913
O O3 0.263902 0.934765 0.527056
O O4 0.544131 0.010176 0.634840
O O5 0.657081 0.621796 0.815431
O O6 0.941380 0.691664 0.944090
O O7 0.944904 0.716639 0.812216
O O8 0.667532 0.343629 0.029626
O O9 0.473086 0.479933 0.912750
O O10 0.783440 0.390531 0.943733
O O11 0.676691 0.091323 0.800512
O O12 0.610261 0.534760 0.222142
#
# Coordination Sequence:
#
# PCOD9257922 Si02
#       7
#     8   8   8   8   4   8   4
#     4  10  19  34  55  80 111 140 180 240 293 343
#     4   9  17  32  52  76 105 140 184 230 278 343
#     4  10  20  34  55  81 108 144 185 230 292 351
#     4  10  20  34  54  81 111 143 183 237 293 343
#     4   8  18  32  52  74 102 144 180 220 278 338
#     4  10  19  33  53  78 105 140 184 227 278 345
#     4  10  18  32  56  76 100 146 192 224 276 350
#
# _framework density 28.008735999999999
#
# number of rings (size 3 to 8) (size 9 to 14) (size 15 to 20)
#    0.000    2.333    0.000    4.500    0.000    0.667 
#    0.000    1.667    0.000   14.000    0.000    0.000 
#    0.000    0.000    0.000    0.000    0.000    0.000 
#
# Total GULP energy -134361.736123 kJ/mol
# GULP energy per Si atom -5598.405672 kJ/mol
# Density = 2.794499 g / cm^3
# Si number density = 28.008736 Si / 1000 Ang^3
#
#
#
# Elastic Constant Matrix: (Units=GPa)
#
#
# Indices 1 2 3 4 5 6 
#
# 1 198.0994 32.7679 60.0027 0.0000 -46.3109 0.0000
# 2 32.7679 86.4173 15.1584 0.0000 -7.2666 0.0000
# 3 60.0027 15.1584 96.9338 0.0000 15.6935 0.0000
# 4 0.0000 0.0000 0.0000 21.4791 0.0000 -1.7345
# 5 -46.3109 -7.2666 15.6935 0.0000 92.0116 0.0000
# 6 0.0000 0.0000 0.0000 -1.7345 0.0000 29.3236
#
#
#
# Elastic Compliance Matrix: (Units=1/GPa)
#
#
# Indices 1 2 3 4 5 6 
#
# 1 0.008179 -0.001705 -0.005595 0.000000 0.004936 0.000000
# 2 -0.001705 0.012405 -0.000930 0.000000 0.000280 0.000000
# 3 -0.005595 -0.000930 0.014802 0.000000 -0.005414 0.000000
# 4 0.000000 0.000000 0.000000 0.046780 0.000000 0.002767
# 5 0.004936 0.000280 -0.005414 0.000000 0.014298 0.000000
# 6 0.000000 0.000000 0.000000 0.002767 0.000000 0.034266
#
#
# Mechanical properties :
#
#
# Convention : Reuss Voigt Hill
#
# Bulk Modulus (GPa) = 52.83897 66.36762 59.60329
# Shear Modulus (GPa) = 32.57369 46.79761 39.68565
#
# Velocity S-wave (km/s) = 3.41395 4.09200 3.76826
# Velocity P-wave (km/s) = 5.86909 6.78769 6.34504
#
# Compressibility (1/GPa) = 0.01892543
#
# Stress axis : x y z
#
# Youngs Moduli (GPa) = 122.26970 80.61368 67.55935
#
# Poissons Ratio (x) = 0.13742 0.37801
# Poissons Ratio (y) = 0.20843 0.06283
# Poissons Ratio (z) = 0.68413 0.07497
#
# Static dielectric constant tensor:
#      x y z
#    x 2.195890 0.000000 -0.075970 
#    y 0.000000 2.168880 0.000000 
#    z -0.075970 0.000000 2.199990 
# 
# From -- ./inp_files/232322.got.cif
#   From: 2010.05.17/outbox.cif.g08.bks.cpg/sg15_117_cif.got.tgz:232322.got - 2010.06.03 18:47:42.
