data_PCOD9257231
_publ_section_title
;
Structure prediction by ZEFSAII (Michael W. Deem and Ramdas Pophale) SiO2 
 PCOD9257231
Probable space group: C 2/C
;
_chemical_formula_sum "Si O2"
_cell_formula_units_Z 40
_cell_length_a 24.791378
_cell_length_b 18.821798
_cell_length_c 5.109527
_cell_angle_alpha 90.000000
_cell_angle_beta 111.107900
_cell_angle_gamma 90.000000
_cell_volume 2224.228378
_symmetry_space_group_name_H-M "C 2/C"
_symmetry_group_IT_number 15
_symmetry_cell_setting 'monoclinic'
loop_
_space_group_symop_operation_xyz
x,y,z
-x,y,1/2-z
-x,-y,-z
x,-y,1/2+z
1/2+x,1/2+y,z
1/2-x,1/2+y,1/2-z
1/2-x,1/2-y,-z
1/2+x,1/2-y,1/2+z
loop_
_atom_site_type_symbol
_atom_site_label
_atom_site_fract_x
_atom_site_fract_y
_atom_site_fract_z
Si Si1 0.116279 0.454204 0.504305
Si Si2 0.000000 0.363645 0.250000
Si Si3 0.500000 0.761266 0.750000
Si Si4 0.306021 0.836122 0.097127
Si Si5 0.307361 0.689547 0.840117
Si Si6 0.625523 0.286008 0.553699
O O1 0.118799 0.520033 0.307080
O O2 0.056501 0.412731 0.350843
O O3 0.167204 0.401378 0.508228
O O4 0.001906 0.312307 0.502597
O O5 0.441413 0.715775 0.632301
O O6 0.249948 0.851772 0.174048
O O7 0.353863 0.796019 0.360321
O O8 0.290726 0.772997 0.863081
O O9 0.334632 0.682642 0.604985
O O10 0.357276 0.677310 0.143822
#
# Coordination Sequence:
#
# PCOD9257231 Si02
#       6
#     8   4   4   8   8   8
#     4  12  25  35  49  68  97 135 176 214 236 272
#     4  12  22  39  46  62  96 144 182 203 234 260
#     4  12  20  31  56  68 102 128 162 219 232 290
#     4   9  20  34  51  67  93 119 170 200 250 285
#     4   9  19  31  55  68  88 118 164 204 244 304
#     4  10  18  31  47  76  88 122 156 195 254 284
#
# _framework density 17.983764999999998
#
# number of rings (size 3 to 8) (size 9 to 14) (size 15 to 20)
#    1.200    0.400    2.000    4.800    2.800    0.000 
#    0.000    0.000    0.000    0.000    0.000    0.000 
#    0.000    0.000    0.000   18.000    0.000    2.400 
#
# Total GULP energy -111554.200688 kJ/mol
# GULP energy per Si atom -5577.710034 kJ/mol
# Density = 1.794283 g / cm^3
# Si number density = 17.983765 Si / 1000 Ang^3
#
#
#
# Elastic Constant Matrix: (Units=GPa)
#
#
# Indices 1 2 3 4 5 6 
#
# 1 91.6622 13.3085 1.9816 0.0000 8.9332 0.0000
# 2 13.3085 14.0248 -7.9675 0.0000 -0.7590 0.0000
# 3 1.9816 -7.9675 53.3955 0.0000 -16.7755 0.0000
# 4 0.0000 0.0000 0.0000 13.9733 0.0000 -4.7036
# 5 8.9332 -0.7590 -16.7755 0.0000 32.6599 0.0000
# 6 0.0000 0.0000 0.0000 -4.7036 0.0000 7.6767
#
#
#
# Elastic Compliance Matrix: (Units=1/GPa)
#
#
# Indices 1 2 3 4 5 6 
#
# 1 0.014125 -0.016730 -0.005195 0.000000 -0.006921 0.000000
# 2 -0.016730 0.100153 0.021147 0.000000 0.017765 0.000000
# 3 -0.005195 0.021147 0.027041 0.000000 0.015802 0.000000
# 4 0.000000 0.000000 0.000000 0.090160 0.000000 0.055242
# 5 -0.006921 0.017765 0.015802 0.000000 0.041041 0.000000
# 6 0.000000 0.000000 0.000000 0.055242 0.000000 0.164111
#
#
# Mechanical properties :
#
#
# Convention : Reuss Voigt Hill
#
# Bulk Modulus (GPa) = 7.15495 19.30307 13.22901
# Shear Modulus (GPa) = 10.31406 20.97931 15.64669
#
# Velocity S-wave (km/s) = 2.39743 3.41921 2.95285
# Velocity P-wave (km/s) = 3.41332 5.13273 4.35865
#
# Compressibility (1/GPa) = 0.13976345
#
# Stress axis : x y z
#
# Youngs Moduli (GPa) = 70.79433 9.98474 36.98101
#
# Poissons Ratio (x) = 0.16704 0.19211
# Poissons Ratio (y) = 1.18438 -0.78203
# Poissons Ratio (z) = 0.36777 -0.21115
#
# Static dielectric constant tensor:
#      x y z
#    x 1.627250 0.000000 0.015540 
#    y 0.000000 1.612120 0.000000 
#    z 0.015540 0.000000 1.652210 
# 
# From -- ./inp_files/16969.got.cif
#   From: 2010.05.17/outbox.cif.g08.bks.cpg/sg15_9_cif.got.tgz:16969.got - 2010.06.03 18:47:42.
