data_PCOD9257596
_publ_section_title
;
Structure prediction by ZEFSAII (Michael W. Deem and Ramdas Pophale) SiO2 
 PCOD9257596
Probable space group: C 2/C
;
_chemical_formula_sum "Si O2"
_cell_formula_units_Z 64
_cell_length_a 8.588545
_cell_length_b 25.801962
_cell_length_c 15.228416
_cell_angle_alpha 90.000000
_cell_angle_beta 80.240064
_cell_angle_gamma 90.000000
_cell_volume 3325.794748
_symmetry_space_group_name_H-M "C 2/C"
_symmetry_group_IT_number 15
_symmetry_cell_setting 'monoclinic'
loop_
_space_group_symop_operation_xyz
x,y,z
-x,y,1/2-z
-x,-y,-z
x,-y,1/2+z
1/2+x,1/2+y,z
1/2-x,1/2+y,1/2-z
1/2-x,1/2-y,-z
1/2+x,1/2-y,1/2+z
loop_
_atom_site_type_symbol
_atom_site_label
_atom_site_fract_x
_atom_site_fract_y
_atom_site_fract_z
Si Si1 0.103386 0.148571 0.548587
Si Si2 0.759531 0.808044 0.108601
Si Si3 0.131062 0.309615 0.938544
Si Si4 0.187287 0.208584 0.708834
Si Si5 0.909584 0.049057 0.045572
Si Si6 0.700648 0.819313 0.628709
Si Si7 0.877296 0.890772 0.834036
Si Si8 0.822326 0.433944 0.788229
O O1 0.196354 0.173917 0.620805
O O2 0.139150 0.088479 0.527095
O O3 0.157934 0.177059 0.454391
O O4 0.917070 0.157643 0.579445
O O5 0.813043 0.748637 0.087170
O O6 0.718497 0.811112 0.215218
O O7 0.636271 0.819215 0.042902
O O8 0.254996 0.349106 0.882715
O O9 0.960165 0.314897 0.911760
O O10 0.223173 0.268405 0.684464
O O11 0.000000 0.207432 0.750000
O O12 0.761137 0.037023 0.122997
O O13 0.025165 0.082612 0.097531
O O14 0.000000 0.000000 0.000000
O O15 0.683229 0.872798 0.683469
O O16 0.782908 0.934803 0.789132
O O17 0.000000 0.868127 0.750000
O O18 0.000000 0.449099 0.750000
#
# Coordination Sequence:
#
# PCOD9257596 Si02
#       8
#     8   8   8   8   8   8   8   8
#     4  10  20  35  57  79 107 153 197 231 276 343
#     4  10  21  33  49  77 115 156 188 220 274 346
#     4  11  19  33  52  81 116 150 182 228 286 324
#     4  10  18  32  48  77 114 153 189 219 267 340
#     4  10  22  40  59  85 112 151 194 243 298 341
#     4  11  19  31  58  83 116 147 183 234 285 337
#     4  10  20  35  57  85 115 142 188 240 286 335
#     4  10  19  34  61  92 111 139 185 240 292 340
#
# _framework density 19.243521000000001
#
# number of rings (size 3 to 8) (size 9 to 14) (size 15 to 20)
#    0.000    1.750    5.000    1.500    0.000    0.000 
#    0.000    6.875    0.000    0.000    0.000    0.000 
#    0.000    0.000    0.000    0.000    0.000    0.000 
#
# Total GULP energy -178633.709162 kJ/mol
# GULP energy per Si atom -5582.303411 kJ/mol
# Density = 1.919972 g / cm^3
# Si number density = 19.243521 Si / 1000 Ang^3
#
#
#
# Elastic Constant Matrix: (Units=GPa)
#
#
# Indices 1 2 3 4 5 6 
#
# 1 60.4920 4.2012 25.8147 0.0000 -1.0440 0.0000
# 2 4.2012 45.0402 35.7498 0.0000 -10.9626 0.0000
# 3 25.8147 35.7498 108.0926 0.0000 3.0725 0.0000
# 4 0.0000 0.0000 0.0000 15.9912 0.0000 -8.9070
# 5 -1.0440 -10.9626 3.0725 0.0000 32.9131 0.0000
# 6 0.0000 0.0000 0.0000 -8.9070 0.0000 15.4829
#
#
#
# Elastic Compliance Matrix: (Units=1/GPa)
#
#
# Indices 1 2 3 4 5 6 
#
# 1 0.018737 0.003238 -0.005608 0.000000 0.002197 0.000000
# 2 0.003238 0.035227 -0.012795 0.000000 0.013031 0.000000
# 3 -0.005608 -0.012795 0.014988 0.000000 -0.005839 0.000000
# 4 0.000000 0.000000 0.000000 0.092021 0.000000 0.052938
# 5 0.002197 0.013031 -0.005839 0.000000 0.035338 0.000000
# 6 0.000000 0.000000 0.000000 0.052938 0.000000 0.095042
#
#
# Mechanical properties :
#
#
# Convention : Reuss Voigt Hill
#
# Bulk Modulus (GPa) = 25.89071 38.35069 32.12070
# Shear Modulus (GPa) = 14.94512 22.73470 18.83991
#
# Velocity S-wave (km/s) = 2.78983 3.44091 3.13233
# Velocity P-wave (km/s) = 4.88477 5.97987 5.45985
#
# Compressibility (1/GPa) = 0.03862390
#
# Stress axis : x y z
#
# Youngs Moduli (GPa) = 53.36904 28.38701 66.71873
#
# Poissons Ratio (x) = -0.09193 0.37418
# Poissons Ratio (y) = -0.17283 0.85364
# Poissons Ratio (z) = 0.29931 0.36320
#
# Static dielectric constant tensor:
#      x y z
#    x 1.701420 0.000000 0.017290 
#    y 0.000000 1.646470 0.000000 
#    z 0.017290 0.000000 1.726530 
# 
# From -- ./inp_files/138595.got.cif
#   From: 2010.05.17/outbox.cif.g08.bks.cpg/sg15_70_cif.got.tgz:138595.got - 2010.06.03 18:47:42.
