data_PCOD9257598
_publ_section_title
;
Structure prediction by ZEFSAII (Michael W. Deem and Ramdas Pophale) SiO2 
 PCOD9257598
Probable space group: C 2/C
;
_chemical_formula_sum "Si O2"
_cell_formula_units_Z 44
_cell_length_a 16.972255
_cell_length_b 32.938325
_cell_length_c 5.185064
_cell_angle_alpha 90.000000
_cell_angle_beta 130.244614
_cell_angle_gamma 90.000000
_cell_volume 2212.516793
_symmetry_space_group_name_H-M "C 2/C"
_symmetry_group_IT_number 15
_symmetry_cell_setting 'monoclinic'
loop_
_space_group_symop_operation_xyz
x,y,z
-x,y,1/2-z
-x,-y,-z
x,-y,1/2+z
1/2+x,1/2+y,z
1/2-x,1/2+y,1/2-z
1/2-x,1/2-y,-z
1/2+x,1/2-y,1/2+z
loop_
_atom_site_type_symbol
_atom_site_label
_atom_site_fract_x
_atom_site_fract_y
_atom_site_fract_z
Si Si1 0.931400 0.691826 0.855516
Si Si2 0.613546 0.278479 0.856211
Si Si3 0.253619 0.353949 0.323361
Si Si4 0.847250 0.889654 0.044954
Si Si5 0.616689 0.482819 0.282249
Si Si6 0.500000 0.670705 0.750000
O O1 0.863800 0.731169 0.626031
O O2 0.858057 0.656302 0.799634
O O3 0.000000 0.681557 0.750000
O O4 0.000000 0.704149 0.250000
O O5 0.500000 0.280383 0.750000
O O6 0.588953 0.299408 0.531547
O O7 0.696700 0.309620 0.142822
O O8 0.261787 0.379678 0.079620
O O9 0.314295 0.376374 0.686268
O O10 0.880073 0.936181 0.131306
O O11 0.944738 0.860887 0.324993
O O12 0.666872 0.509545 0.612219
O O13 0.500000 0.500000 0.000000
#
# Coordination Sequence:
#
# PCOD9257598 Si02
#       6
#     8   8   8   8   8   4
#     4  11  23  39  58  77 109 150 204 259 301 327
#     4  10  19  34  51  80 110 151 196 240 293 342
#     4  11  23  37  56  82 114 152 200 243 287 336
#     4  11  22  35  56  82 119 153 192 223 272 344
#     4  10  20  34  53  81 116 156 185 207 261 337
#     4  10  18  32  48  78 112 154 192 230 268 334
#
# _framework density 19.886852999999999
#
# number of rings (size 3 to 8) (size 9 to 14) (size 15 to 20)
#    0.000    1.455    2.727    3.818    0.000    4.364 
#    0.000    5.455    0.000    0.000    0.000    0.000 
#    0.000   50.909    0.000    0.000    0.000    0.000 
#
# Total GULP energy -122599.180722 kJ/mol
# GULP energy per Si atom -5572.690033 kJ/mol
# Density = 1.984159 g / cm^3
# Si number density = 19.886853 Si / 1000 Ang^3
#
#
#
# Elastic Constant Matrix: (Units=GPa)
#
#
# Indices 1 2 3 4 5 6 
#
# 1 94.0149 25.4519 8.5393 0.0000 -16.7648 0.0000
# 2 25.4519 86.6008 2.9870 0.0000 3.7467 0.0000
# 3 8.5393 2.9870 32.7085 0.0000 -18.4800 0.0000
# 4 0.0000 0.0000 0.0000 19.7349 0.0000 -6.1756
# 5 -16.7648 3.7467 -18.4800 0.0000 28.9870 0.0000
# 6 0.0000 0.0000 0.0000 -6.1756 0.0000 24.0869
#
#
#
# Elastic Compliance Matrix: (Units=1/GPa)
#
#
# Indices 1 2 3 4 5 6 
#
# 1 0.013381 -0.004449 0.002517 0.000000 0.009918 0.000000
# 2 -0.004449 0.013280 -0.003868 0.000000 -0.006755 0.000000
# 3 0.002517 -0.003868 0.049037 0.000000 0.033218 0.000000
# 4 0.000000 0.000000 0.000000 0.055092 0.000000 0.014125
# 5 0.009918 -0.006755 0.033218 0.000000 0.062285 0.000000
# 6 0.000000 0.000000 0.000000 0.014125 0.000000 0.045138
#
#
# Mechanical properties :
#
#
# Convention : Reuss Voigt Hill
#
# Bulk Modulus (GPa) = 15.60099 31.92005 23.76052
# Shear Modulus (GPa) = 18.43797 26.31817 22.37807
#
# Velocity S-wave (km/s) = 3.04821 3.64180 3.35814
# Velocity P-wave (km/s) = 4.50007 5.81113 5.19711
#
# Compressibility (1/GPa) = 0.06409848
#
# Stress axis : x y z
#
# Youngs Moduli (GPa) = 74.73267 75.29921 20.39267
#
# Poissons Ratio (x) = 0.33497 -0.05132
# Poissons Ratio (y) = 0.33245 0.07888
# Poissons Ratio (z) = -0.18808 0.29127
#
# Static dielectric constant tensor:
#      x y z
#    x 1.751590 0.000000 -0.045810 
#    y 0.000000 1.693500 0.000000 
#    z -0.045810 0.000000 1.790160 
# 
# From -- ./inp_files/8022.got.cif
#   From: 2010.05.17/outbox.cif.g08.bks.cpg/sg15_5_cif.got.tgz:8022.got - 2010.06.03 18:47:42.
