data_PCOD9257653
_publ_section_title
;
Structure prediction by ZEFSAII (Michael W. Deem and Ramdas Pophale) SiO2 
 PCOD9257653
Probable space group: C 2/C
;
_chemical_formula_sum "Si O2"
_cell_formula_units_Z 60
_cell_length_a 11.450161
_cell_length_b 15.479059
_cell_length_c 27.369911
_cell_angle_alpha 90.000000
_cell_angle_beta 143.856155
_cell_angle_gamma 90.000000
_cell_volume 2861.178627
_symmetry_space_group_name_H-M "C 2/C"
_symmetry_group_IT_number 15
_symmetry_cell_setting 'monoclinic'
loop_
_space_group_symop_operation_xyz
x,y,z
-x,y,1/2-z
-x,-y,-z
x,-y,1/2+z
1/2+x,1/2+y,z
1/2-x,1/2+y,1/2-z
1/2-x,1/2-y,-z
1/2+x,1/2-y,1/2+z
loop_
_atom_site_type_symbol
_atom_site_label
_atom_site_fract_x
_atom_site_fract_y
_atom_site_fract_z
Si Si1 0.642081 0.254427 0.553816
Si Si2 0.939558 0.552148 0.830336
Si Si3 0.500000 0.875949 0.250000
Si Si4 0.971554 0.259649 0.096497
Si Si5 0.756991 0.927145 0.056740
Si Si6 0.200620 0.780455 0.867501
Si Si7 0.341578 0.447561 0.978622
Si Si8 0.204015 0.458830 0.631251
O O1 0.629507 0.263189 0.608333
O O2 0.769896 0.173571 0.577364
O O3 0.418594 0.228004 0.463749
O O4 0.680863 0.347300 0.543701
O O5 0.901415 0.571264 0.760705
O O6 0.991410 0.642139 0.874765
O O7 0.135535 0.494394 0.898109
O O8 0.782868 0.506557 0.812664
O O9 0.343914 0.809779 0.173469
O O10 0.958096 0.207612 0.142534
O O11 0.750000 0.250000 0.000000
O O12 0.791180 0.986037 0.115759
O O13 0.881545 0.949325 0.050437
O O14 0.529743 0.946942 0.962276
O O15 0.208333 0.863614 0.836623
O O16 0.500000 0.500000 0.000000
#
# Coordination Sequence:
#
# PCOD9257653 Si02
#       8
#     8   8   4   8   8   8   8   8
#     4  10  18  32  50  81 112 135 167 217 281 327
#     4  10  20  36  54  74 104 147 177 217 262 325
#     4  10  20  38  52  72 102 142 188 216 256 304
#     4   9  16  28  50  76 104 129 168 211 264 309
#     4   9  18  30  51  78 113 137 157 205 276 337
#     4   9  19  31  56  76 103 138 179 224 257 315
#     4  11  21  29  48  83 117 136 167 215 273 321
#     4   9  17  32  55  80  99 135 175 211 264 317
#
# _framework density 20.970379999999999
#
# number of rings (size 3 to 8) (size 9 to 14) (size 15 to 20)
#    0.000    2.400    1.333    2.800    7.467    0.000 
#    0.000    2.667    2.933    0.000    0.000    0.000 
#    0.000    0.000    0.000    0.000    0.000    0.000 
#
# Total GULP energy -167314.622100 kJ/mol
# GULP energy per Si atom -5577.154070 kJ/mol
# Density = 2.092265 g / cm^3
# Si number density = 20.970380 Si / 1000 Ang^3
#
#
#
# Elastic Constant Matrix: (Units=GPa)
#
#
# Indices 1 2 3 4 5 6 
#
# 1 130.5144 48.4418 30.5235 0.0000 -51.7203 0.0000
# 2 48.4418 76.7864 -0.4654 0.0000 -23.2331 0.0000
# 3 30.5235 -0.4654 32.3381 0.0000 -21.7368 0.0000
# 4 0.0000 0.0000 0.0000 4.4130 0.0000 -3.0492
# 5 -51.7203 -23.2331 -21.7368 0.0000 40.6799 0.0000
# 6 0.0000 0.0000 0.0000 -3.0492 0.0000 34.6870
#
#
#
# Elastic Compliance Matrix: (Units=1/GPa)
#
#
# Indices 1 2 3 4 5 6 
#
# 1 0.017656 -0.006583 -0.006551 0.000000 0.015187 0.000000
# 2 -0.006583 0.020468 0.013638 0.000000 0.010608 0.000000
# 3 -0.006551 0.013638 0.057644 -0.000001 0.030261 0.000000
# 4 0.000000 0.000000 -0.000001 0.241257 -0.000001 0.021208
# 5 0.015187 0.010608 0.030261 -0.000001 0.066119 0.000000
# 6 0.000000 0.000000 0.000000 0.021208 0.000000 0.030694
#
#
# Mechanical properties :
#
#
# Convention : Reuss Voigt Hill
#
# Bulk Modulus (GPa) = 10.33310 44.07096 27.20203
# Shear Modulus (GPa) = 10.75062 26.69857 18.72460
#
# Velocity S-wave (km/s) = 2.26665 3.57200 2.99140
# Velocity P-wave (km/s) = 3.43343 6.17039 4.99310
#
# Compressibility (1/GPa) = 0.09677640
#
# Stress axis : x y z
#
# Youngs Moduli (GPa) = 56.63795 48.85587 17.34784
#
# Poissons Ratio (x) = 0.32162 0.11365
# Poissons Ratio (y) = 0.37285 -0.23660
# Poissons Ratio (z) = 0.37106 -0.66632
#
# Static dielectric constant tensor:
#      x y z
#    x 1.783190 0.000000 -0.049740 
#    y 0.000000 1.677290 0.000000 
#    z -0.049740 0.000000 1.695780 
# 
# From -- ./inp_files/292683.got.cif
#   From: 2010.05.17/outbox.cif.g08.bks.cpg/sg15_147_cif.got.tgz:292683.got - 2010.06.03 18:47:42.
