data_PCOD9257719
_publ_section_title
;
Structure prediction by ZEFSAII (Michael W. Deem and Ramdas Pophale) SiO2 
 PCOD9257719
Probable space group: C 2/C
;
_chemical_formula_sum "Si O2"
_cell_formula_units_Z 64
_cell_length_a 24.590220
_cell_length_b 14.755961
_cell_length_c 8.958495
_cell_angle_alpha 90.000000
_cell_angle_beta 100.072590
_cell_angle_gamma 90.000000
_cell_volume 3200.508972
_symmetry_space_group_name_H-M "C 2/C"
_symmetry_group_IT_number 15
_symmetry_cell_setting 'monoclinic'
loop_
_space_group_symop_operation_xyz
x,y,z
-x,y,1/2-z
-x,-y,-z
x,-y,1/2+z
1/2+x,1/2+y,z
1/2-x,1/2+y,1/2-z
1/2-x,1/2-y,-z
1/2+x,1/2-y,1/2+z
loop_
_atom_site_type_symbol
_atom_site_label
_atom_site_fract_x
_atom_site_fract_y
_atom_site_fract_z
Si Si1 0.417798 0.404329 0.497919
Si Si2 0.887164 0.723890 0.317441
Si Si3 0.288774 0.545928 0.976683
Si Si4 0.482767 0.907555 0.913239
Si Si5 0.458862 0.268019 0.089683
Si Si6 0.237321 0.774446 0.166352
Si Si7 0.568450 0.582972 0.158595
Si Si8 0.699815 0.618559 0.197024
O O1 0.413748 0.304916 0.428160
O O2 0.354398 0.436108 0.493150
O O3 0.440510 0.479481 0.395715
O O4 0.444620 0.405500 0.673562
O O5 0.902206 0.746736 0.152107
O O6 0.822327 0.733494 0.317473
O O7 0.919815 0.631903 0.379921
O O8 0.263652 0.616658 0.844355
O O9 0.278895 0.442288 0.928929
O O10 0.275563 0.573177 0.139528
O O11 0.500000 0.919332 0.750000
O O12 0.519988 0.822237 0.983297
O O13 0.500000 0.000000 0.000000
O O14 0.500000 0.283366 0.250000
O O15 0.457866 0.350364 0.975630
O O16 0.281693 0.722494 0.288341
O O17 0.250000 0.750000 0.000000
O O18 0.633970 0.607453 0.175525
#
# Coordination Sequence:
#
# PCOD9257719 Si02
#       8
#     8   8   8   8   8   8   8   8
#     4   9  17  29  52  77 104 142 173 206 262 320
#     4   9  18  36  56  76 107 146 181 223 278 332
#     4   8  16  30  46  67 100 137 171 204 249 307
#     4   9  20  39  59  78 103 140 183 230 283 331
#     4   9  20  38  55  75 104 138 180 229 274 326
#     4   9  17  32  52  76 107 142 176 216 267 329
#     4  10  18  32  52  78 108 140 176 218 266 324
#     4   9  17  30  48  71 100 135 172 212 259 313
#
# _framework density 19.99682
#
# number of rings (size 3 to 8) (size 9 to 14) (size 15 to 20)
#    0.000    3.250    0.000    1.500    0.000    4.000 
#    0.000   16.250    0.000    0.000    0.000    0.000 
#    0.000    0.000    0.000    0.000    0.000    0.000 
#
# Total GULP energy -178285.519945 kJ/mol
# GULP energy per Si atom -5571.422498 kJ/mol
# Density = 1.995131 g / cm^3
# Si number density = 19.996820 Si / 1000 Ang^3
#
#
#
# Elastic Constant Matrix: (Units=GPa)
#
#
# Indices 1 2 3 4 5 6 
#
# 1 62.8390 6.3949 5.2540 0.0000 -4.3425 0.0000
# 2 6.3949 90.1732 34.4075 0.0000 20.3250 0.0000
# 3 5.2540 34.4075 55.5582 0.0000 5.4471 0.0000
# 4 0.0000 0.0000 0.0000 38.4295 0.0000 4.8336
# 5 -4.3425 20.3250 5.4471 0.0000 27.3643 0.0000
# 6 0.0000 0.0000 0.0000 4.8336 0.0000 22.4320
#
#
#
# Elastic Compliance Matrix: (Units=1/GPa)
#
#
# Indices 1 2 3 4 5 6 
#
# 1 0.016448 -0.001756 -0.000868 0.000000 0.004088 0.000000
# 2 -0.001756 0.017383 -0.009491 0.000000 -0.011301 0.000000
# 3 -0.000868 -0.009491 0.023745 0.000000 0.002185 0.000000
# 4 0.000000 0.000000 0.000000 0.026747 0.000000 -0.005763
# 5 0.004088 -0.011301 0.002185 0.000000 0.045151 0.000000
# 6 0.000000 0.000000 0.000000 -0.005763 0.000000 0.045821
#
#
# Mechanical properties :
#
#
# Convention : Reuss Voigt Hill
#
# Bulk Modulus (GPa) = 29.99103 33.40924 31.70013
# Shear Modulus (GPa) = 23.73700 28.47942 26.10821
#
# Velocity S-wave (km/s) = 3.44908 3.77795 3.61725
# Velocity P-wave (km/s) = 5.55806 5.98114 5.77348
#
# Compressibility (1/GPa) = 0.03334331
#
# Stress axis : x y z
#
# Youngs Moduli (GPa) = 60.79946 57.52682 42.11397
#
# Poissons Ratio (x) = 0.10104 0.03657
# Poissons Ratio (y) = 0.10679 0.39972
# Poissons Ratio (z) = 0.05280 0.54601
#
# Static dielectric constant tensor:
#      x y z
#    x 1.796260 0.000000 0.009150 
#    y 0.000000 1.726910 0.000000 
#    z 0.009150 0.000000 1.706850 
# 
# From -- ./inp_files/66249.got.cif
#   From: 2010.05.17/outbox.cif.g08.bks.cpg/sg15_34_cif.got.tgz:66249.got - 2010.06.03 18:47:42.
