data_PCOD9257058
_publ_section_title
;
Structure prediction by ZEFSAII (Michael W. Deem and Ramdas Pophale) SiO2 
 PCOD9257058
Probable space group: C 2/C
;
_chemical_formula_sum "Si O2"
_cell_formula_units_Z 52
_cell_length_a 15.040271
_cell_length_b 8.290616
_cell_length_c 26.639867
_cell_angle_alpha 90.000000
_cell_angle_beta 142.544922
_cell_angle_gamma 90.000000
_cell_volume 2020.121680
_symmetry_space_group_name_H-M "C 2/C"
_symmetry_group_IT_number 15
_symmetry_cell_setting 'monoclinic'
loop_
_space_group_symop_operation_xyz
x,y,z
-x,y,1/2-z
-x,-y,-z
x,-y,1/2+z
1/2+x,1/2+y,z
1/2-x,1/2+y,1/2-z
1/2-x,1/2-y,-z
1/2+x,1/2-y,1/2+z
loop_
_atom_site_type_symbol
_atom_site_label
_atom_site_fract_x
_atom_site_fract_y
_atom_site_fract_z
Si Si1 0.454443 0.165562 0.310876
Si Si2 0.000000 0.898605 0.250000
Si Si3 0.794254 0.195135 0.950849
Si Si4 0.326166 0.801124 0.854798
Si Si5 0.308515 0.972084 0.427340
Si Si6 0.288169 0.346425 0.966660
Si Si7 0.464452 0.823389 0.293261
O O1 0.408698 0.289972 0.248237
O O2 0.430628 0.236059 0.355489
O O3 0.623255 0.129726 0.372144
O O4 0.388633 0.987773 0.278424
O O5 0.129921 0.980849 0.340220
O O6 0.814915 0.185175 0.898782
O O7 0.844710 0.380482 0.981596
O O8 0.622111 0.202413 0.888454
O O9 0.854014 0.025492 0.998839
O O10 0.161483 0.809562 0.758857
O O11 0.365889 0.968555 0.899463
O O12 0.356748 0.793202 0.463008
O O13 0.250000 0.250000 0.000000
O O14 0.500000 0.838637 0.250000
#
# Coordination Sequence:
#
# PCOD9257058 Si02
#       7
#     8   4   8   8   8   8   8
#     4  10  20  32  52  86 109 142 187 218 264 326
#     4  10  18  30  52  80 114 142 172 218 266 336
#     4   8  18  35  55  76 110 140 178 217 266 320
#     4   9  19  31  51  80 114 138 172 222 269 318
#     4   9  19  33  55  80 106 137 182 215 270 320
#     4  10  21  39  60  74 102 150 190 221 268 317
#     4   9  15  31  51  74 112 151 162 207 275 323
#
# _framework density 25.741022999999998
#
# number of rings (size 3 to 8) (size 9 to 14) (size 15 to 20)
#    0.923    1.846    0.769    0.923    4.308    0.615 
#    0.000    1.538    6.769    0.000    0.000    0.000 
#    0.000    0.000    0.000    0.000    0.000    0.000 
#
# Total GULP energy -144849.991384 kJ/mol
# GULP energy per Si atom -5571.153515 kJ/mol
# Density = 2.568244 g / cm^3
# Si number density = 25.741023 Si / 1000 Ang^3
#
#
#
# Elastic Constant Matrix: (Units=GPa)
#
#
# Indices 1 2 3 4 5 6 
#
# 1 112.6530 27.3860 21.7424 0.0000 -5.6306 0.0000
# 2 27.3860 167.1886 24.9618 0.0000 0.2963 0.0000
# 3 21.7424 24.9618 40.5944 0.0000 8.5876 0.0000
# 4 0.0000 0.0000 0.0000 26.5308 0.0000 -2.1576
# 5 -5.6306 0.2963 8.5876 0.0000 42.2478 0.0000
# 6 0.0000 0.0000 0.0000 -2.1576 0.0000 25.9055
#
#
#
# Elastic Compliance Matrix: (Units=1/GPa)
#
#
# Indices 1 2 3 4 5 6 
#
# 1 0.010273 -0.000866 -0.005497 0.000000 0.002493 0.000000
# 2 -0.000866 0.006686 -0.003775 0.000000 0.000605 0.000000
# 3 -0.005497 -0.003775 0.031399 0.000000 -0.007088 0.000000
# 4 0.000000 0.000000 0.000000 0.037949 0.000000 0.003161
# 5 0.002493 0.000605 -0.007088 0.000000 0.025439 0.000000
# 6 0.000000 0.000000 0.000000 0.003161 0.000000 0.038865
#
#
# Mechanical properties :
#
#
# Convention : Reuss Voigt Hill
#
# Bulk Modulus (GPa) = 35.61106 52.06847 43.83977
# Shear Modulus (GPa) = 27.73971 35.35987 31.54979
#
# Velocity S-wave (km/s) = 3.28631 3.71034 3.50474
# Velocity P-wave (km/s) = 5.31641 6.21508 5.78323
#
# Compressibility (1/GPa) = 0.02808116
#
# Stress axis : x y z
#
# Youngs Moduli (GPa) = 97.34340 149.57191 31.84837
#
# Poissons Ratio (x) = 0.12960 0.17506
# Poissons Ratio (y) = 0.08435 0.12023
# Poissons Ratio (z) = 0.53506 0.56463
#
# Static dielectric constant tensor:
#      x y z
#    x 2.036790 0.000000 0.026540 
#    y 0.000000 2.125560 0.000000 
#    z 0.026540 0.000000 2.113480 
# 
# From -- ./inp_files/294754.got.cif
#   From: 2010.05.17/outbox.cif.g08.bks.cpg/sg15_148_cif.got.tgz:294754.got - 2010.06.03 18:47:42.
