data_PCOD9257316
_publ_section_title
;
Structure prediction by ZEFSAII (Michael W. Deem and Ramdas Pophale) SiO2 
 PCOD9257316
Probable space group: C 2/C
;
_chemical_formula_sum "Si O2"
_cell_formula_units_Z 64
_cell_length_a 26.272124
_cell_length_b 23.670603
_cell_length_c 8.679660
_cell_angle_alpha 90.000000
_cell_angle_beta 48.642833
_cell_angle_gamma 90.000000
_cell_volume 4051.527703
_symmetry_space_group_name_H-M "C 2/C"
_symmetry_group_IT_number 15
_symmetry_cell_setting 'monoclinic'
loop_
_space_group_symop_operation_xyz
x,y,z
-x,y,1/2-z
-x,-y,-z
x,-y,1/2+z
1/2+x,1/2+y,z
1/2-x,1/2+y,1/2-z
1/2-x,1/2-y,-z
1/2+x,1/2-y,1/2+z
loop_
_atom_site_type_symbol
_atom_site_label
_atom_site_fract_x
_atom_site_fract_y
_atom_site_fract_z
Si Si1 0.136505 0.937716 0.793643
Si Si2 0.148875 0.730731 0.766913
Si Si3 0.000000 0.244875 0.564708
Si Si4 0.223939 0.840033 0.118394
Si Si5 0.863495 0.062284 0.839664
Si Si6 0.351126 0.230731 0.362412
Si Si7 0.223939 0.159967 0.985849
Si Si8 1.000000 0.881758 0.933989
O O1 0.196191 0.895272 0.624402
O O2 0.066933 0.912093 0.864633
O O3 0.147022 1.000000 0.705955
O O4 0.131027 0.939790 0.987946
O O5 0.177069 0.787131 0.629882
O O6 0.199835 0.679848 0.625788
O O7 0.154120 0.739112 0.941761
O O8 0.070058 0.724016 0.884413
O O9 0.929942 0.275984 0.664645
O O10 0.000000 0.183172 0.488551
O O11 0.000000 0.236611 0.750000
O O12 0.196191 0.895273 0.090833
O O13 0.177069 0.787131 0.161841
O O14 0.219097 0.847602 0.311806
O O15 0.300166 0.820152 0.925126
O O16 0.933067 0.087907 0.632364
O O17 0.000000 0.884464 0.750000
#
# Coordination Sequence:
#
# PCOD9257316 Si02
#       8
#     8   8   8   8   8   8   8   8
#     4  12  24  38  53  71  98 135 173 212 251 298
#     4   9  18  31  50  73 102 134 167 207 251 298
#     4  10  18  31  51  76 103 137 171 203 247 297
#     4  10  19  32  49  73 101 132 169 209 251 296
#     4  12  24  38  53  71  98 135 173 212 251 298
#     4   9  18  31  50  73 102 134 167 207 251 298
#     4  10  19  32  49  73 101 132 169 209 251 296
#     4  12  23  35  50  74 103 135 171 209 244 293
#
# _framework density 15.796511000000001
#
# number of rings (size 3 to 8) (size 9 to 14) (size 15 to 20)
#    0.000    1.500    2.500    4.500    0.000    1.000 
#    0.000    0.000    0.000    0.000    0.000    0.875 
#    0.000    0.000    0.000    0.000    0.000    0.000 
#
# Total GULP energy -178674.751261 kJ/mol
# GULP energy per Si atom -5583.585977 kJ/mol
# Density = 1.576056 g / cm^3
# Si number density = 15.796511 Si / 1000 Ang^3
#
#
#
# Elastic Constant Matrix: (Units=GPa)
#
#
# Indices 1 2 3 4 5 6 
#
# 1 105.1668 57.9853 65.6263 0.0000 -20.5989 0.0000
# 2 57.9853 90.4482 53.7672 0.0000 -14.6259 0.0000
# 3 65.6263 53.7672 94.2577 0.0000 -17.2296 0.0000
# 4 0.0000 0.0000 0.0000 21.0447 0.0000 4.5777
# 5 -20.5989 -14.6259 -17.2296 0.0000 28.4838 0.0000
# 6 0.0000 0.0000 0.0000 4.5777 0.0000 19.7247
#
#
#
# Elastic Compliance Matrix: (Units=1/GPa)
#
#
# Indices 1 2 3 4 5 6 
#
# 1 0.019813 -0.006368 -0.009153 0.000000 0.005522 0.000000
# 2 -0.006368 0.019033 -0.006160 0.000000 0.001442 0.000000
# 3 -0.009153 -0.006160 0.021033 0.000000 0.002941 0.000000
# 4 0.000000 0.000000 0.000000 0.050044 0.000000 -0.011614
# 5 0.005522 0.001442 0.002941 0.000000 0.041620 0.000000
# 6 0.000000 0.000000 0.000000 -0.011614 0.000000 0.053393
#
#
# Mechanical properties :
#
#
# Convention : Reuss Voigt Hill
#
# Bulk Modulus (GPa) = 60.53974 71.62560 66.08267
# Shear Modulus (GPa) = 19.70018 21.35023 20.52520
#
# Velocity S-wave (km/s) = 3.53529 3.68037 3.60856
# Velocity P-wave (km/s) = 7.42107 7.96877 7.69979
#
# Compressibility (1/GPa) = 0.01651808
#
# Stress axis : x y z
#
# Youngs Moduli (GPa) = 50.47227 52.53896 47.54410
#
# Poissons Ratio (x) = 0.33457 0.43516
# Poissons Ratio (y) = 0.32141 0.29287
# Poissons Ratio (z) = 0.46196 0.32364
#
# Static dielectric constant tensor:
#      x y z
#    x 1.540680 0.000000 -0.010730 
#    y 0.000000 1.491980 0.000000 
#    z -0.010730 0.000000 1.537590 
# 
# From -- ./inp_files/67428.got.cif
#   From: 2010.05.17/outbox.cif.g08.bks.cpg/sg15_34_cif.got.tgz:67428.got - 2010.06.03 18:47:42.
