data_PCOD9257430
_publ_section_title
;
Structure prediction by ZEFSAII (Michael W. Deem and Ramdas Pophale) SiO2 
 PCOD9257430
Probable space group: C 2/C
;
_chemical_formula_sum "Si O2"
_cell_formula_units_Z 64
_cell_length_a 19.208286
_cell_length_b 11.826350
_cell_length_c 21.057459
_cell_angle_alpha 90.000000
_cell_angle_beta 138.758947
_cell_angle_gamma 90.000000
_cell_volume 3153.415633
_symmetry_space_group_name_H-M "C 2/C"
_symmetry_group_IT_number 15
_symmetry_cell_setting 'monoclinic'
loop_
_space_group_symop_operation_xyz
x,y,z
-x,y,1/2-z
-x,-y,-z
x,-y,1/2+z
1/2+x,1/2+y,z
1/2-x,1/2+y,1/2-z
1/2-x,1/2-y,-z
1/2+x,1/2-y,1/2+z
loop_
_atom_site_type_symbol
_atom_site_label
_atom_site_fract_x
_atom_site_fract_y
_atom_site_fract_z
Si Si1 0.385513 0.313137 0.514459
Si Si2 0.714200 0.262401 0.812463
Si Si3 0.770648 0.255752 0.703731
Si Si4 0.984829 0.982050 0.414621
Si Si5 0.966424 0.754551 0.004498
Si Si6 0.767967 0.005566 0.700281
Si Si7 0.572726 0.940592 0.650881
Si Si8 0.492747 0.848431 0.170766
O O1 0.272778 0.316050 0.403268
O O2 0.431890 0.436212 0.562363
O O3 0.461977 0.266977 0.509688
O O4 0.394864 0.224448 0.577815
O O5 0.762723 0.244493 0.775431
O O6 0.733746 0.393562 0.843846
O O7 0.592871 0.231817 0.724452
O O8 0.653821 0.280037 0.597132
O O9 0.856901 0.355198 0.756793
O O10 0.791227 0.130241 0.690253
O O11 0.867352 0.016148 0.314745
O O12 0.000000 0.000000 0.500000
O O13 0.001261 0.848379 0.420925
O O14 0.994329 0.634273 0.054198
O O15 0.659409 0.002836 0.665535
O O16 0.509855 0.035148 0.645639
O O17 0.500000 0.868844 0.250000
#
# Coordination Sequence:
#
# PCOD9257430 Si02
#       8
#     8   8   8   8   8   8   8   8
#     4  11  20  36  60  88 120 152 192 243 296 358
#     4  11  21  35  59  88 119 152 191 240 293 353
#     4  11  20  34  57  96 120 147 179 245 313 349
#     4  10  18  31  53  89 122 147 176 226 306 359
#     4  11  20  32  59  96 121 149 180 245 317 356
#     4  11  18  33  56  87 121 144 179 245 302 345
#     4  11  22  36  58  88 120 152 195 240 301 353
#     4  12  27  43  57  79 121 169 206 238 280 352
#
# _framework density 20.295453999999999
#
# number of rings (size 3 to 8) (size 9 to 14) (size 15 to 20)
#    0.000    1.000    7.500    3.000    3.500    1.500 
#    0.000    0.000    0.000    3.750    0.000    0.000 
#    0.000    0.000    0.000    0.000    0.000    0.000 
#
# Total GULP energy -178594.914157 kJ/mol
# GULP energy per Si atom -5581.091067 kJ/mol
# Density = 2.024926 g / cm^3
# Si number density = 20.295454 Si / 1000 Ang^3
#
#
#
# Elastic Constant Matrix: (Units=GPa)
#
#
# Indices 1 2 3 4 5 6 
#
# 1 7.9419 5.4616 0.4226 0.0000 -5.6187 0.0000
# 2 5.4616 92.9605 -1.7379 0.0000 -6.4649 0.0000
# 3 0.4226 -1.7379 86.2612 0.0000 10.9556 0.0000
# 4 0.0000 0.0000 0.0000 34.6341 0.0000 3.1827
# 5 -5.6187 -6.4649 10.9556 0.0000 17.3371 0.0000
# 6 0.0000 0.0000 0.0000 3.1827 0.0000 7.7461
#
#
#
# Elastic Compliance Matrix: (Units=1/GPa)
#
#
# Indices 1 2 3 4 5 6 
#
# 1 0.172255 -0.006185 -0.008443 0.000000 0.058854 0.000000
# 2 -0.006185 0.011274 -0.000024 0.000000 0.002215 0.000000
# 3 -0.008443 -0.000024 0.013028 0.000000 -0.010978 0.000000
# 4 0.000000 0.000000 0.000000 0.030006 0.000000 -0.012329
# 5 0.058854 0.002215 -0.010978 0.000000 0.084516 0.000000
# 6 0.000000 0.000000 0.000000 -0.012329 0.000000 0.134163
#
#
# Mechanical properties :
#
#
# Convention : Reuss Voigt Hill
#
# Bulk Modulus (GPa) = 5.97899 21.71735 13.84817
# Shear Modulus (GPa) = 9.42868 24.14461 16.78665
#
# Velocity S-wave (km/s) = 2.15773 3.45288 2.87908
# Velocity P-wave (km/s) = 3.02656 5.15949 4.22968
#
# Compressibility (1/GPa) = 0.16725238
#
# Stress axis : x y z
#
# Youngs Moduli (GPa) = 5.80536 88.69798 76.75899
#
# Poissons Ratio (x) = 0.54860 0.64809
# Poissons Ratio (y) = 0.03591 0.00183
# Poissons Ratio (z) = 0.04902 0.00211
#
# Static dielectric constant tensor:
#      x y z
#    x 1.702320 0.000000 0.015240 
#    y 0.000000 1.825460 0.000000 
#    z 0.015240 0.000000 1.731130 
# 
# From -- ./inp_files/252583.got.cif
#   From: 2010.05.17/outbox.cif.g08.bks.cpg/sg15_127_cif.got.tgz:252583.got - 2010.06.03 18:47:42.
