data_PCOD9257268
_publ_section_title
;
Structure prediction by ZEFSAII (Michael W. Deem and Ramdas Pophale) SiO2 
 PCOD9257268
Probable space group: C 2/C
;
_chemical_formula_sum "Si O2"
_cell_formula_units_Z 64
_cell_length_a 18.908400
_cell_length_b 8.498067
_cell_length_c 22.271781
_cell_angle_alpha 90.000000
_cell_angle_beta 124.539973
_cell_angle_gamma 90.000000
_cell_volume 2947.916647
_symmetry_space_group_name_H-M "C 2/C"
_symmetry_group_IT_number 15
_symmetry_cell_setting 'monoclinic'
loop_
_space_group_symop_operation_xyz
x,y,z
-x,y,1/2-z
-x,-y,-z
x,-y,1/2+z
1/2+x,1/2+y,z
1/2-x,1/2+y,1/2-z
1/2-x,1/2-y,-z
1/2+x,1/2-y,1/2+z
loop_
_atom_site_type_symbol
_atom_site_label
_atom_site_fract_x
_atom_site_fract_y
_atom_site_fract_z
Si Si1 0.407687 0.252111 0.858561
Si Si2 0.498770 0.532555 0.315838
Si Si3 0.341027 0.511271 0.897149
Si Si4 0.571844 0.967011 0.443542
Si Si5 0.654559 0.007538 0.246885
Si Si6 0.113500 0.332839 0.338839
Si Si7 0.458705 0.258321 0.376437
Si Si8 0.209748 0.251120 0.546428
O O1 0.417767 0.380301 0.809178
O O2 0.388960 0.349017 0.909185
O O3 0.496788 0.162323 0.909844
O O4 0.341746 0.119160 0.805357
O O5 0.500000 0.460146 0.250000
O O6 0.560565 0.681279 0.334049
O O7 0.513960 0.389958 0.368244
O O8 0.248178 0.475909 0.821531
O O9 0.395605 0.648591 0.890646
O O10 0.333781 0.583385 0.959984
O O11 0.607877 0.953685 0.392209
O O12 0.647584 0.899567 0.521508
O O13 0.524910 0.129865 0.434146
O O14 0.593755 0.926041 0.268482
O O15 0.605336 0.160442 0.198704
O O16 0.207475 0.257795 0.371781
O O17 0.250000 0.250000 0.500000
#
# Coordination Sequence:
#
# PCOD9257268 Si02
#       8
#     8   8   8   8   8   8   8   8
#     4   9  18  31  51  77 106 139 173 214 265 316
#     4  10  18  31  49  79 111 137 168 211 261 312
#     4  10  20  34  52  78 106 137 178 219 269 316
#     4   9  19  34  53  77 105 136 190 216 257 309
#     4  10  18  33  53  75 112 142 173 210 267 327
#     4   9  18  33  56  77 103 146 178 213 263 311
#     4  10  22  31  51  83 109 140 171 220 265 314
#     4   9  19  37  58  74  97 142 185 225 259 310
#
# _framework density 21.710249000000001
#
# number of rings (size 3 to 8) (size 9 to 14) (size 15 to 20)
#    0.000    2.500    1.250    0.750    1.750    1.000 
#    0.000    0.625    0.000    0.000    0.000    0.000 
#    0.000    0.000    0.000    0.000    0.000    0.000 
#
# Total GULP energy -178145.498466 kJ/mol
# GULP energy per Si atom -5567.046827 kJ/mol
# Density = 2.166084 g / cm^3
# Si number density = 21.710249 Si / 1000 Ang^3
#
#
#
# Elastic Constant Matrix: (Units=GPa)
#
#
# Indices 1 2 3 4 5 6 
#
# 1 54.2624 25.1095 8.4426 0.0000 -4.5987 0.0000
# 2 25.1095 77.7360 11.2972 0.0000 -6.9915 0.0000
# 3 8.4426 11.2972 28.4011 0.0000 -1.3010 0.0000
# 4 0.0000 0.0000 0.0000 22.5085 0.0000 -6.7984
# 5 -4.5987 -6.9915 -1.3010 0.0000 31.0428 0.0000
# 6 0.0000 0.0000 0.0000 -6.7984 0.0000 19.4218
#
#
#
# Elastic Compliance Matrix: (Units=1/GPa)
#
#
# Indices 1 2 3 4 5 6 
#
# 1 0.022163 -0.006434 -0.003952 0.000000 0.001668 0.000000
# 2 -0.006434 0.015778 -0.004252 0.000000 0.002422 0.000000
# 3 -0.003952 -0.004252 0.038079 0.000000 0.000053 0.000000
# 4 0.000000 0.000000 0.000000 0.049680 0.000000 0.017390
# 5 0.001668 0.002422 0.000053 0.000000 0.033008 0.000000
# 6 0.000000 0.000000 0.000000 0.017390 0.000000 0.057576
#
#
# Mechanical properties :
#
#
# Convention : Reuss Voigt Hill
#
# Bulk Modulus (GPa) = 21.39432 27.78865 24.59148
# Shear Modulus (GPa) = 19.14661 22.29798 20.72230
#
# Velocity S-wave (km/s) = 2.97293 3.20827 3.09284
# Velocity P-wave (km/s) = 4.65406 5.15282 4.90978
#
# Compressibility (1/GPa) = 0.04674139
#
# Stress axis : x y z
#
# Youngs Moduli (GPa) = 45.12075 63.37830 26.26136
#
# Poissons Ratio (x) = 0.40780 0.10379
# Poissons Ratio (y) = 0.29032 0.11168
# Poissons Ratio (z) = 0.17833 0.26952
#
# Static dielectric constant tensor:
#      x y z
#    x 1.880200 0.000000 0.021910 
#    y 0.000000 1.790060 0.000000 
#    z 0.021910 0.000000 1.917790 
# 
# From -- ./inp_files/279401.got.cif
#   From: 2010.05.17/outbox.cif.g08.bks.cpg/sg15_140_cif.got.tgz:279401.got - 2010.06.03 18:47:42.
