data_PCOD9257387
_publ_section_title
;
Structure prediction by ZEFSAII (Michael W. Deem and Ramdas Pophale) SiO2 
 PCOD9257387
Probable space group: C 2/C
;
_chemical_formula_sum "Si O2"
_cell_formula_units_Z 40
_cell_length_a 6.283680
_cell_length_b 18.339811
_cell_length_c 21.814162
_cell_angle_alpha 90.000000
_cell_angle_beta 117.811074
_cell_angle_gamma 90.000000
_cell_volume 2223.518658
_symmetry_space_group_name_H-M "C 2/C"
_symmetry_group_IT_number 15
_symmetry_cell_setting 'monoclinic'
loop_
_space_group_symop_operation_xyz
x,y,z
-x,y,1/2-z
-x,-y,-z
x,-y,1/2+z
1/2+x,1/2+y,z
1/2-x,1/2+y,1/2-z
1/2-x,1/2-y,-z
1/2+x,1/2-y,1/2+z
loop_
_atom_site_type_symbol
_atom_site_label
_atom_site_fract_x
_atom_site_fract_y
_atom_site_fract_z
Si Si1 0.450458 0.254951 0.579973
Si Si2 0.391925 0.963456 0.072262
Si Si3 0.670629 0.847730 0.330890
Si Si4 0.402246 0.396651 0.956171
Si Si5 0.702673 0.629115 0.919161
O O1 0.250000 0.250000 0.500000
O O2 0.343707 0.225788 0.629614
O O3 0.563029 0.335265 0.590376
O O4 0.647451 0.196059 0.586569
O O5 0.409033 0.913013 0.134691
O O6 0.638201 0.944129 0.069791
O O7 0.307432 0.043793 0.080467
O O8 0.163206 0.934371 0.001891
O O9 0.500000 0.841523 0.250000
O O10 0.944564 0.868534 0.352270
O O11 0.344659 0.361535 0.014820
#
# Coordination Sequence:
#
# PCOD9257387 Si02
#       5
#     8   8   8   8   8
#     4  11  19  33  54  86 111 141 185 236 279 329
#     4   9  19  32  52  81 109 141 174 227 279 336
#     4  10  22  37  55  77 108 151 193 229 278 342
#     4  10  18  31  52  85 112 132 176 231 281 327
#     4  10  18  32  56  80 108 140 185 227 285 333
#
# _framework density 17.989505000000001
#
# number of rings (size 3 to 8) (size 9 to 14) (size 15 to 20)
#    0.000    2.000    6.000    1.200    0.000    3.200 
#    0.000    0.000    4.400    0.000    0.000    0.000 
#    0.000    0.000    0.000    0.000    0.000    0.000 
#
# Total GULP energy -111439.627720 kJ/mol
# GULP energy per Si atom -5571.981386 kJ/mol
# Density = 1.794856 g / cm^3
# Si number density = 17.989505 Si / 1000 Ang^3
#
#
#
# Elastic Constant Matrix: (Units=GPa)
#
#
# Indices 1 2 3 4 5 6 
#
# 1 101.5222 29.6634 32.2079 0.0000 18.5993 0.0000
# 2 29.6634 105.9821 26.9360 0.0000 1.2794 0.0000
# 3 32.2079 26.9360 92.2596 0.0000 9.1141 0.0000
# 4 0.0000 0.0000 0.0000 14.5365 0.0000 -2.9373
# 5 18.5993 1.2794 9.1141 0.0000 12.5052 0.0000
# 6 0.0000 0.0000 0.0000 -2.9373 0.0000 42.9067
#
#
#
# Elastic Compliance Matrix: (Units=1/GPa)
#
#
# Indices 1 2 3 4 5 6 
#
# 1 0.015429 -0.003480 -0.002304 0.000000 -0.020913 0.000000
# 2 -0.003480 0.010994 -0.002581 0.000000 0.005933 0.000000
# 3 -0.002304 -0.002581 0.012966 0.000000 -0.005758 0.000000
# 4 0.000000 0.000000 0.000000 0.069757 0.000000 0.004775
# 5 -0.020913 0.005933 -0.005758 0.000000 0.114661 0.000000
# 6 0.000000 0.000000 0.000000 0.004775 0.000000 0.023633
#
#
# Mechanical properties :
#
#
# Convention : Reuss Voigt Hill
#
# Bulk Modulus (GPa) = 44.13458 53.04206 48.58832
# Shear Modulus (GPa) = 18.40099 28.05346 23.22722
#
# Velocity S-wave (km/s) = 3.20171 3.95325 3.59716
# Velocity P-wave (km/s) = 6.18504 7.09835 6.65738
#
# Compressibility (1/GPa) = 0.02265797
#
# Stress axis : x y z
#
# Youngs Moduli (GPa) = 64.81133 90.95855 77.12601
#
# Poissons Ratio (x) = 0.31658 0.17772
# Poissons Ratio (y) = 0.22557 0.19905
# Poissons Ratio (z) = 0.14935 0.23475
#
# Static dielectric constant tensor:
#      x y z
#    x 1.694020 0.000000 -0.003620 
#    y 0.000000 1.671730 0.000000 
#    z -0.003620 0.000000 1.588110 
# 
# From -- ./inp_files/184219.got.cif
#   From: 2010.05.17/outbox.cif.g08.bks.cpg/sg15_93_cif.got.tgz:184219.got - 2010.06.03 18:47:42.
