data_PCOD9257949
_publ_section_title
;
Structure prediction by ZEFSAII (Michael W. Deem and Ramdas Pophale) SiO2 
 PCOD9257949
Probable space group: C 2/C
;
_chemical_formula_sum "Si O2"
_cell_formula_units_Z 52
_cell_length_a 6.776998
_cell_length_b 25.862054
_cell_length_c 19.750585
_cell_angle_alpha 90.000000
_cell_angle_beta 129.133109
_cell_angle_gamma 90.000000
_cell_volume 2685.121588
_symmetry_space_group_name_H-M "C 2/C"
_symmetry_group_IT_number 15
_symmetry_cell_setting 'monoclinic'
loop_
_space_group_symop_operation_xyz
x,y,z
-x,y,1/2-z
-x,-y,-z
x,-y,1/2+z
1/2+x,1/2+y,z
1/2-x,1/2+y,1/2-z
1/2-x,1/2-y,-z
1/2+x,1/2-y,1/2+z
loop_
_atom_site_type_symbol
_atom_site_label
_atom_site_fract_x
_atom_site_fract_y
_atom_site_fract_z
Si Si1 0.000000 0.912292 0.250000
Si Si2 0.774690 0.945355 0.838422
Si Si3 0.973200 0.635526 0.668775
Si Si4 0.896750 0.138844 0.156835
Si Si5 0.698144 0.128120 0.449109
Si Si6 0.114705 0.804168 0.986915
Si Si7 0.448094 0.554188 0.887760
O O1 0.251147 0.877487 0.300270
O O2 0.008878 0.944987 0.183479
O O3 0.500000 0.962301 0.750000
O O4 0.715552 0.904126 0.883701
O O5 0.951823 0.914886 0.823427
O O6 0.923442 0.994363 0.901030
O O7 0.816600 0.665955 0.578307
O O8 0.813186 0.583232 0.648918
O O9 0.000000 0.660427 0.750000
O O10 0.594261 0.133729 0.096156
O O11 0.937908 0.172432 0.098651
O O12 0.000000 0.161014 0.250000
O O13 0.851647 0.182128 0.470680
O O14 0.839871 0.091028 0.533500
O O15 0.250000 0.750000 0.000000
#
# Coordination Sequence:
#
# PCOD9257949 Si02
#       7
#     4   8   8   8   8   8   8
#     4  10  18  32  56  82 116 150 190 232 294 346
#     4  11  21  35  57  85 123 162 203 238 289 355
#     4   9  19  37  57  84 118 152 188 248 303 349
#     4  11  23  39  61  86 122 165 196 247 305 357
#     4  10  22  41  59  83 122 156 199 250 302 349
#     4  10  23  41  62  86 112 148 202 253 306 368
#     4  10  21  34  57  87 119 160 200 243 285 348
#
# _framework density 19.365974999999999
#
# number of rings (size 3 to 8) (size 9 to 14) (size 15 to 20)
#    0.000    1.846    1.538    2.769    1.077    3.077 
#    0.000    1.538    0.000    0.000    0.000    0.000 
#    0.000    0.000    0.000    0.000    0.000    0.000 
#
# Total GULP energy -144864.433681 kJ/mol
# GULP energy per Si atom -5571.708988 kJ/mol
# Density = 1.932190 g / cm^3
# Si number density = 19.365975 Si / 1000 Ang^3
#
#
#
# Elastic Constant Matrix: (Units=GPa)
#
#
# Indices 1 2 3 4 5 6 
#
# 1 95.0923 18.1508 12.7248 0.0000 21.1486 0.0000
# 2 18.1508 71.4096 9.7381 0.0000 -1.1339 0.0000
# 3 12.7248 9.7381 76.5062 0.0000 8.4473 0.0000
# 4 0.0000 0.0000 0.0000 264.9009 0.0000 -49.1545
# 5 21.1486 -1.1339 8.4473 0.0000 43.0619 0.0000
# 6 0.0000 0.0000 0.0000 -49.1545 0.0000 21.6944
#
#
#
# Elastic Compliance Matrix: (Units=1/GPa)
#
#
# Indices 1 2 3 4 5 6 
#
# 1 0.012607 -0.003161 -0.001024 0.000000 -0.006074 0.000000
# 2 -0.003161 0.015067 -0.001643 0.000000 0.002272 0.000000
# 3 -0.001024 -0.001643 0.013696 0.000000 -0.002227 0.000000
# 4 0.000000 0.000000 0.000000 0.006513 0.000000 0.014758
# 5 -0.006074 0.002272 -0.002227 0.000000 0.026702 0.000000
# 6 0.000000 0.000000 0.000000 0.014758 0.000000 0.079533
#
#
# Mechanical properties :
#
#
# Convention : Reuss Voigt Hill
#
# Bulk Modulus (GPa) = 33.65331 36.02619 34.83975
# Shear Modulus (GPa) = 28.46068 79.42440 53.94254
#
# Velocity S-wave (km/s) = 3.83773 6.41104 5.28344
# Velocity P-wave (km/s) = 6.08710 8.57001 7.43296
#
# Compressibility (1/GPa) = 0.02971476
#
# Stress axis : x y z
#
# Youngs Moduli (GPa) = 79.31826 66.36857 73.01329
#
# Poissons Ratio (x) = 0.20982 0.07476
# Poissons Ratio (y) = 0.25075 0.11995
# Poissons Ratio (z) = 0.08121 0.10903
#
# Static dielectric constant tensor:
#      x y z
#    x 1.686260 0.000000 -0.009000 
#    y 0.000000 1.697380 0.000000 
#    z -0.009000 0.000000 1.714770 
# 
# From -- ./inp_files/185808.got.cif
#   From: 2010.05.17/outbox.cif.g08.bks.cpg/sg15_93_cif.got.tgz:185808.got - 2010.06.03 18:47:42.
