data_PCOD9257730
_publ_section_title
;
Structure prediction by ZEFSAII (Michael W. Deem and Ramdas Pophale) SiO2 
 PCOD9257730
Probable space group: C 2/C
;
_chemical_formula_sum "Si O2"
_cell_formula_units_Z 48
_cell_length_a 9.641176
_cell_length_b 28.991708
_cell_length_c 14.278186
_cell_angle_alpha 90.000000
_cell_angle_beta 153.400731
_cell_angle_gamma 90.000000
_cell_volume 1786.940912
_symmetry_space_group_name_H-M "C 2/C"
_symmetry_group_IT_number 15
_symmetry_cell_setting 'monoclinic'
loop_
_space_group_symop_operation_xyz
x,y,z
-x,y,1/2-z
-x,-y,-z
x,-y,1/2+z
1/2+x,1/2+y,z
1/2-x,1/2+y,1/2-z
1/2-x,1/2-y,-z
1/2+x,1/2-y,1/2+z
loop_
_atom_site_type_symbol
_atom_site_label
_atom_site_fract_x
_atom_site_fract_y
_atom_site_fract_z
Si Si1 0.770459 0.165955 0.481394
Si Si2 0.360505 0.907018 0.971528
Si Si3 0.655865 0.062268 0.453425
Si Si4 0.849793 0.795345 0.443833
Si Si5 0.714859 0.014353 0.719917
Si Si6 0.382227 0.809853 0.916310
O O1 0.500000 0.183870 0.250000
O O2 0.758177 0.110137 0.466476
O O3 0.679147 0.183251 0.528466
O O4 0.063392 0.186738 0.607210
O O5 0.558698 0.915858 0.995461
O O6 0.357989 0.852387 0.972145
O O7 0.000000 0.922121 0.750000
O O8 0.546874 0.939355 0.155646
O O9 0.946980 0.027997 0.613071
O O10 0.348682 0.029884 0.251797
O O11 0.500000 0.808914 0.250000
O O12 0.872737 0.739889 0.456935
O O13 0.095076 0.813353 0.668702
O O14 0.500000 0.000000 0.500000
#
# Coordination Sequence:
#
# PCOD9257730 Si02
#       6
#     8   8   8   8   8   8
#     4   9  21  41  60  80 115 159 198 238 292 354
#     4  10  19  33  54  82 116 153 189 236 291 345
#     4  10  20  35  56  83 113 150 194 245 296 348
#     4  11  22  39  60  89 121 155 197 245 292 349
#     4  10  18  32  52  80 111 142 185 240 288 337
#     4  10  22  38  59  86 120 159 196 238 293 351
#
# _framework density 26.861547999999999
#
# number of rings (size 3 to 8) (size 9 to 14) (size 15 to 20)
#    0.000    2.000    0.000    5.500    0.000    2.667 
#    0.000    7.500    0.000    0.000    0.000    0.000 
#    0.000    0.000    0.000    0.000    0.000    0.000 
#
# Total GULP energy -134067.697290 kJ/mol
# GULP energy per Si atom -5586.154054 kJ/mol
# Density = 2.680041 g / cm^3
# Si number density = 26.861548 Si / 1000 Ang^3
#
#
#
# Elastic Constant Matrix: (Units=GPa)
#
#
# Indices 1 2 3 4 5 6 
#
# 1 80.8611 40.7580 46.2407 0.0000 26.2984 0.0000
# 2 40.7580 112.6464 18.3755 0.0000 18.6392 0.0000
# 3 46.2407 18.3755 154.8950 0.0000 42.9714 0.0000
# 4 0.0000 0.0000 0.0000 33.2920 0.0000 9.3511
# 5 26.2984 18.6392 42.9714 0.0000 57.8548 0.0000
# 6 0.0000 0.0000 0.0000 9.3511 0.0000 5.2746
#
#
#
# Elastic Compliance Matrix: (Units=1/GPa)
#
#
# Indices 1 2 3 4 5 6 
#
# 1 0.018551 -0.005454 -0.003828 0.000000 -0.003832 0.000000
# 2 -0.005454 0.010995 0.000779 0.000000 -0.001642 0.000000
# 3 -0.003828 0.000779 0.008934 0.000000 -0.005147 0.000000
# 4 0.000000 0.000000 0.000000 0.059830 0.000000 -0.106069
# 5 -0.003832 -0.001642 -0.005147 0.000000 0.023379 0.000000
# 6 0.000000 0.000000 0.000000 -0.106069 0.000000 0.377630
#
#
# Mechanical properties :
#
#
# Convention : Reuss Voigt Hill
#
# Bulk Modulus (GPa) = 46.56373 62.12787 54.34580
# Shear Modulus (GPa) = 9.55142 35.48616 22.51879
#
# Velocity S-wave (km/s) = 1.88773 3.63860 2.89853
# Velocity P-wave (km/s) = 4.70358 6.38997 5.61050
#
# Compressibility (1/GPa) = 0.02147594
#
# Stress axis : x y z
#
# Youngs Moduli (GPa) = 53.90468 90.94872 111.93027
#
# Poissons Ratio (x) = 0.49601 0.42846
# Poissons Ratio (y) = 0.29398 -0.08722
# Poissons Ratio (z) = 0.20634 -0.07087
#
# Static dielectric constant tensor:
#      x y z
#    x 2.274840 0.000000 -0.086040 
#    y 0.000000 2.201480 0.000000 
#    z -0.086040 0.000000 2.183010 
# 
# From -- ./inp_files/241055.got.cif
#   From: 2010.05.17/outbox.cif.g08.bks.cpg/sg15_121_cif.got.tgz:241055.got - 2010.06.03 18:47:42.
