data_PCOD9257703
_publ_section_title
;
Structure prediction by ZEFSAII (Michael W. Deem and Ramdas Pophale) SiO2 
 PCOD9257703
Probable space group: C 2/C
;
_chemical_formula_sum "Si O2"
_cell_formula_units_Z 64
_cell_length_a 23.046558
_cell_length_b 21.510499
_cell_length_c 8.904592
_cell_angle_alpha 90.000000
_cell_angle_beta 53.676432
_cell_angle_gamma 90.000000
_cell_volume 3556.605514
_symmetry_space_group_name_H-M "C 2/C"
_symmetry_group_IT_number 15
_symmetry_cell_setting 'monoclinic'
loop_
_space_group_symop_operation_xyz
x,y,z
-x,y,1/2-z
-x,-y,-z
x,-y,1/2+z
1/2+x,1/2+y,z
1/2-x,1/2+y,1/2-z
1/2-x,1/2-y,-z
1/2+x,1/2-y,1/2+z
loop_
_atom_site_type_symbol
_atom_site_label
_atom_site_fract_x
_atom_site_fract_y
_atom_site_fract_z
Si Si1 0.261701 0.187442 0.391191
Si Si2 0.588560 0.956877 0.873753
Si Si3 0.930844 0.297486 0.070919
Si Si4 0.761980 0.945899 0.581908
Si Si5 0.581792 0.169126 0.250162
Si Si6 0.693150 0.705290 0.168790
Si Si7 0.900940 0.580887 0.802151
Si Si8 0.773069 0.071542 0.410659
O O1 0.250000 0.250000 0.500000
O O2 0.230244 0.122360 0.505298
O O3 0.347827 0.179103 0.257169
O O4 0.226824 0.195132 0.282330
O O5 0.675709 0.955992 0.720301
O O6 0.560407 0.902838 0.807179
O O7 0.570057 0.026412 0.851446
O O8 0.575484 0.936486 0.065119
O O9 0.883158 0.239738 0.197888
O O10 0.923468 0.352695 0.203038
O O11 0.901718 0.318593 0.950226
O O12 0.015542 0.289081 0.907777
O O13 0.787536 0.939446 0.712971
O O14 0.793674 0.007701 0.460626
O O15 0.691236 0.636829 0.097855
O O16 0.750000 0.750000 0.000000
O O17 0.813424 0.580626 0.937696
#
# Coordination Sequence:
#
# PCOD9257703 Si02
#       8
#     8   8   8   8   8   8   8   8
#     4  10  19  36  56  78 108 141 179 221 267 332
#     4   9  18  32  50  73 104 145 189 222 264 316
#     4  11  22  35  53  75 111 146 183 230 272 324
#     4   8  17  28  48  74 102 134 170 217 260 308
#     4  10  22  37  51  77 107 144 189 223 273 326
#     4  11  21  35  54  81 109 143 183 226 277 318
#     4  10  18  32  52  75 106 148 187 228 264 315
#     4   9  17  31  49  75 107 134 176 217 262 316
#
# _framework density 17.994686999999999
#
# number of rings (size 3 to 8) (size 9 to 14) (size 15 to 20)
#    0.000    2.250    2.500    1.500    0.000    5.000 
#    0.000    0.000    0.000    0.000    0.000    0.875 
#    0.000    0.000    0.000    0.375    0.000    0.000 
#
# Total GULP energy -178403.517008 kJ/mol
# GULP energy per Si atom -5575.109907 kJ/mol
# Density = 1.795373 g / cm^3
# Si number density = 17.994687 Si / 1000 Ang^3
#
#
#
# Elastic Constant Matrix: (Units=GPa)
#
#
# Indices 1 2 3 4 5 6 
#
# 1 34.8480 28.0357 9.5776 0.0000 -6.1177 0.0000
# 2 28.0357 173.4669 59.0721 0.0000 3.6380 0.0000
# 3 9.5776 59.0721 59.8014 0.0000 4.6464 0.0000
# 4 0.0000 0.0000 0.0000 37.4893 0.0000 0.0446
# 5 -6.1177 3.6380 4.6464 0.0000 17.7475 0.0000
# 6 0.0000 0.0000 0.0000 0.0446 0.0000 24.7674
#
#
#
# Elastic Compliance Matrix: (Units=1/GPa)
#
#
# Indices 1 2 3 4 5 6 
#
# 1 0.036065 -0.005704 -0.001223 0.000000 0.013921 0.000000
# 2 -0.005704 0.009593 -0.008428 0.000000 -0.001726 0.000000
# 3 -0.001223 -0.008428 0.025664 0.000000 -0.005413 0.000000
# 4 0.000000 0.000000 0.000000 0.026674 0.000000 -0.000048
# 5 0.013921 -0.001726 -0.005413 0.000000 0.062916 0.000000
# 6 0.000000 0.000000 0.000000 -0.000048 0.000000 0.040376
#
#
# Mechanical properties :
#
#
# Convention : Reuss Voigt Hill
#
# Bulk Modulus (GPa) = 24.62381 51.27634 37.95008
# Shear Modulus (GPa) = 20.36352 27.42955 23.89654
#
# Velocity S-wave (km/s) = 3.36764 3.90848 3.64810
# Velocity P-wave (km/s) = 5.36982 6.99467 6.23540
#
# Compressibility (1/GPa) = 0.04061109
#
# Stress axis : x y z
#
# Youngs Moduli (GPa) = 27.72745 104.24107 38.96491
#
# Poissons Ratio (x) = 0.59463 0.04765
# Poissons Ratio (y) = 0.15817 0.32841
# Poissons Ratio (z) = 0.03391 0.87859
#
# Static dielectric constant tensor:
#      x y z
#    x 1.627360 0.000000 -0.008570 
#    y 0.000000 1.668590 0.000000 
#    z -0.008570 0.000000 1.640650 
# 
# From -- ./inp_files/63391.got.cif
#   From: 2010.05.17/outbox.cif.g08.bks.cpg/sg15_32_cif.got.tgz:63391.got - 2010.06.03 18:47:42.
