data_PCOD9257463
_publ_section_title
;
Structure prediction by ZEFSAII (Michael W. Deem and Ramdas Pophale) SiO2 
 PCOD9257463
Probable space group: C 2/C
;
_chemical_formula_sum "Si O2"
_cell_formula_units_Z 56
_cell_length_a 17.016567
_cell_length_b 12.252532
_cell_length_c 12.684671
_cell_angle_alpha 90.000000
_cell_angle_beta 109.840696
_cell_angle_gamma 90.000000
_cell_volume 2487.713786
_symmetry_space_group_name_H-M "C 2/C"
_symmetry_group_IT_number 15
_symmetry_cell_setting 'monoclinic'
loop_
_space_group_symop_operation_xyz
x,y,z
-x,y,1/2-z
-x,-y,-z
x,-y,1/2+z
1/2+x,1/2+y,z
1/2-x,1/2+y,1/2-z
1/2-x,1/2-y,-z
1/2+x,1/2-y,1/2+z
loop_
_atom_site_type_symbol
_atom_site_label
_atom_site_fract_x
_atom_site_fract_y
_atom_site_fract_z
Si Si1 0.084204 0.508817 0.344130
Si Si2 0.311625 0.112965 0.765015
Si Si3 0.821345 0.773616 0.945954
Si Si4 0.096859 0.205170 0.330342
Si Si5 0.786956 0.070701 0.234409
Si Si6 0.621315 0.163162 0.042880
Si Si7 0.976074 0.255669 0.629261
O O1 0.149201 0.488229 0.280332
O O2 0.095545 0.437252 0.454084
O O3 0.075726 0.635340 0.363070
O O4 0.000000 0.469332 0.250000
O O5 0.339659 0.161449 0.889267
O O6 0.341910 0.207877 0.700993
O O7 0.222636 0.058828 0.748176
O O8 0.794040 0.860875 0.845746
O O9 0.750000 0.750000 0.000000
O O10 0.909707 0.811668 0.032518
O O11 0.132525 0.092935 0.301792
O O12 0.116604 0.233472 0.460518
O O13 0.000000 0.219417 0.250000
O O14 0.708228 0.122667 0.133074
O O15 0.554399 0.196189 0.100894
O O16 0.000000 0.201595 0.750000
#
# Coordination Sequence:
#
# PCOD9257463 Si02
#       7
#     8   8   8   8   8   8   8
#     4  10  18  31  54  90 125 156 194 249 316 380
#     4  10  20  36  59  88 122 158 202 255 314 374
#     4  11  22  38  56  84 125 171 212 262 318 383
#     4  10  22  40  61  88 123 165 209 262 320 377
#     4  11  22  36  58  90 123 161 206 259 317 381
#     4  11  19  32  53  83 118 157 199 252 310 373
#     4  11  21  33  54  85 121 162 204 255 316 378
#
# _framework density 22.510629999999999
#
# number of rings (size 3 to 8) (size 9 to 14) (size 15 to 20)
#    0.000    1.429    0.000    9.429    0.000    1.143 
#    0.000    0.000    0.000    4.286    0.000   22.000 
#    0.000    0.000    0.000    0.000    0.000    0.000 
#
# Total GULP energy -156038.785590 kJ/mol
# GULP energy per Si atom -5572.813771 kJ/mol
# Density = 2.245939 g / cm^3
# Si number density = 22.510630 Si / 1000 Ang^3
#
#
#
# Elastic Constant Matrix: (Units=GPa)
#
#
# Indices 1 2 3 4 5 6 
#
# 1 51.6183 21.2070 31.6953 0.0000 3.3396 0.0000
# 2 21.2070 24.2152 13.8020 0.0000 4.2423 0.0000
# 3 31.6953 13.8020 156.2057 0.0000 14.6650 0.0000
# 4 0.0000 0.0000 0.0000 28.3154 0.0000 15.4679
# 5 3.3396 4.2423 14.6650 0.0000 49.7368 0.0000
# 6 0.0000 0.0000 0.0000 15.4679 0.0000 48.9985
#
#
#
# Elastic Compliance Matrix: (Units=1/GPa)
#
#
# Indices 1 2 3 4 5 6 
#
# 1 0.032926 -0.026531 -0.004465 0.000000 0.001369 0.000000
# 2 -0.026531 0.065206 -0.000024 0.000000 -0.003773 0.000000
# 3 -0.004465 -0.000024 0.007489 0.000000 -0.001906 0.000000
# 4 0.000000 0.000000 0.000000 0.042676 0.000000 -0.013472
# 5 0.001369 -0.003773 -0.001906 0.000000 0.020898 0.000000
# 6 0.000000 0.000000 0.000000 -0.013472 0.000000 0.024662
#
#
# Mechanical properties :
#
#
# Convention : Reuss Voigt Hill
#
# Bulk Modulus (GPa) = 22.94558 40.60531 31.77544
# Shear Modulus (GPa) = 18.48957 36.43246 27.46102
#
# Velocity S-wave (km/s) = 2.86907 4.02737 3.49651
# Velocity P-wave (km/s) = 4.60334 6.30109 5.51790
#
# Compressibility (1/GPa) = 0.04358138
#
# Stress axis : x y z
#
# Youngs Moduli (GPa) = 30.37104 15.33604 133.53041
#
# Poissons Ratio (x) = 0.40687 0.59625
# Poissons Ratio (y) = 0.80576 0.00320
# Poissons Ratio (z) = 0.13561 0.00037
#
# Static dielectric constant tensor:
#      x y z
#    x 2.623300 0.000000 -0.363580 
#    y 0.000000 1.940570 0.000000 
#    z -0.363580 0.000000 2.040980 
# 
# From -- ./inp_files/105416.got.cif
#   From: 2010.05.17/outbox.cif.g08.bks.cpg/sg15_53_cif.got.tgz:105416.got - 2010.06.03 18:47:42.
