data_PCOD9257347
_publ_section_title
;
Structure prediction by ZEFSAII (Michael W. Deem and Ramdas Pophale) SiO2 
 PCOD9257347
Probable space group: C 2/C
;
_chemical_formula_sum "Si O2"
_cell_formula_units_Z 64
_cell_length_a 12.195752
_cell_length_b 20.803232
_cell_length_c 28.443859
_cell_angle_alpha 90.000000
_cell_angle_beta 31.297153
_cell_angle_gamma 90.000000
_cell_volume 3748.814475
_symmetry_space_group_name_H-M "C 2/C"
_symmetry_group_IT_number 15
_symmetry_cell_setting 'monoclinic'
loop_
_space_group_symop_operation_xyz
x,y,z
-x,y,1/2-z
-x,-y,-z
x,-y,1/2+z
1/2+x,1/2+y,z
1/2-x,1/2+y,1/2-z
1/2-x,1/2-y,-z
1/2+x,1/2-y,1/2+z
loop_
_atom_site_type_symbol
_atom_site_label
_atom_site_fract_x
_atom_site_fract_y
_atom_site_fract_z
Si Si1 0.411048 0.473182 0.667857
Si Si2 0.481885 0.196682 0.147101
Si Si3 0.433793 0.459832 0.478603
Si Si4 0.433297 0.314643 0.516185
Si Si5 0.726174 0.153536 0.188726
Si Si6 0.301769 0.422931 0.858760
Si Si7 0.236420 0.774300 0.645195
Si Si8 0.539372 0.955375 0.871522
O O1 0.440621 0.523177 0.614906
O O2 0.346869 0.406129 0.666978
O O3 0.616709 0.458159 0.624473
O O4 0.218186 0.488386 0.773962
O O5 0.723250 0.215302 0.068561
O O6 0.341310 0.203073 0.245696
O O7 0.378883 0.228381 0.139938
O O8 0.467902 0.120061 0.141055
O O9 0.500000 0.500000 0.500000
O O10 0.452013 0.385489 0.486679
O O11 0.193308 0.478860 0.554200
O O12 0.364290 0.320212 0.595626
O O13 0.647403 0.275425 0.431244
O O14 0.500000 0.131095 0.250000
O O15 0.500000 0.425402 0.750000
O O16 0.259692 0.346342 0.878413
O O17 0.111881 0.455207 0.899207
O O18 0.000000 0.761223 0.750000
#
# Coordination Sequence:
#
# PCOD9257347 Si02
#       8
#     8   8   8   8   8   8   8   8
#     4  10  18  31  52  71  98 131 165 214 252 284
#     4   8  16  31  54  70  91 126 173 212 241 287
#     4  11  21  32  47  73 105 134 172 202 242 308
#     4  10  19  32  47  74 103 132 165 202 250 308
#     4   9  16  29  49  71  92 124 172 211 238 283
#     4   8  16  33  54  74  92 120 175 217 250 289
#     4  10  18  32  50  75 103 128 157 208 260 304
#     4   8  17  32  51  73  91 126 172 214 247 285
#
# _framework density 17.072064000000001
#
# number of rings (size 3 to 8) (size 9 to 14) (size 15 to 20)
#    0.000    2.750    1.250    3.375    0.000    0.500 
#    2.250    2.500    0.000    0.000    0.000    6.125 
#    0.000    0.000    0.000    0.000    0.000    0.000 
#
# Total GULP energy -178146.741958 kJ/mol
# GULP energy per Si atom -5567.085686 kJ/mol
# Density = 1.703321 g / cm^3
# Si number density = 17.072064 Si / 1000 Ang^3
#
#
#
# Elastic Constant Matrix: (Units=GPa)
#
#
# Indices 1 2 3 4 5 6 
#
# 1 63.6613 7.8092 12.2151 0.0033 3.0864 0.0067
# 2 7.8092 25.1280 23.2519 0.0048 3.2003 -0.0096
# 3 12.2151 23.2519 79.8932 0.0027 5.2948 -0.0265
# 4 0.0033 0.0048 0.0027 16.6093 -0.0129 -3.1092
# 5 3.0864 3.2003 5.2948 -0.0129 25.6892 0.0003
# 6 0.0067 -0.0096 -0.0265 -3.1092 0.0003 14.2807
#
#
#
# Elastic Compliance Matrix: (Units=1/GPa)
#
#
# Indices 1 2 3 4 5 6 
#
# 1 0.016484 -0.003707 -0.001359 -0.000006 -0.001238 -0.000014
# 2 -0.003707 0.055622 -0.015402 -0.000014 -0.003309 0.000008
# 3 -0.001359 -0.015402 0.017305 0.000005 -0.001485 0.000023
# 4 -0.000006 -0.000014 0.000005 0.062765 0.000033 0.013665
# 5 -0.001238 -0.003309 -0.001485 0.000033 0.039794 0.000002
# 6 -0.000014 0.000008 0.000023 0.013665 0.000002 0.073000
#
#
# Mechanical properties :
#
#
# Convention : Reuss Voigt Hill
#
# Bulk Modulus (GPa) = 20.62952 28.35942 24.49447
# Shear Modulus (GPa) = 15.52483 19.67626 17.60055
#
# Velocity S-wave (km/s) = 3.01885 3.39859 3.21433
# Velocity P-wave (km/s) = 4.92557 5.66112 5.30611
#
# Compressibility (1/GPa) = 0.04847422
#
# Stress axis : x y z
#
# Youngs Moduli (GPa) = 60.66580 17.97858 57.78531
#
# Poissons Ratio (x) = 0.06665 0.07854
# Poissons Ratio (y) = 0.22491 0.89000
# Poissons Ratio (z) = 0.08246 0.27690
#
# Static dielectric constant tensor:
#      x y z
#    x 1.621330 0.000010 0.006990 
#    y 0.000010 1.556160 0.000010 
#    z 0.006990 0.000010 1.608370 
# 
# From -- ./inp_files/293743.got.cif
#   From: 2010.05.17/outbox.cif.g08.bks.cpg/sg15_147_cif.got.tgz:293743.got - 2010.06.03 18:47:42.
