data_PCOD9257998
_publ_section_title
;
Structure prediction by ZEFSAII (Michael W. Deem and Ramdas Pophale) SiO2 
 PCOD9257998
Probable space group: C 2/C
;
_chemical_formula_sum "Si O2"
_cell_formula_units_Z 48
_cell_length_a 14.239088
_cell_length_b 11.089708
_cell_length_c 17.228943
_cell_angle_alpha 90.000000
_cell_angle_beta 112.090546
_cell_angle_gamma 90.000000
_cell_volume 2520.860740
_symmetry_space_group_name_H-M "C 2/C"
_symmetry_group_IT_number 15
_symmetry_cell_setting 'monoclinic'
loop_
_space_group_symop_operation_xyz
x,y,z
-x,y,1/2-z
-x,-y,-z
x,-y,1/2+z
1/2+x,1/2+y,z
1/2-x,1/2+y,1/2-z
1/2-x,1/2-y,-z
1/2+x,1/2-y,1/2+z
loop_
_atom_site_type_symbol
_atom_site_label
_atom_site_fract_x
_atom_site_fract_y
_atom_site_fract_z
Si Si1 0.940941 0.159436 0.341961
Si Si2 0.766576 0.775532 0.413586
Si Si3 0.073270 0.067517 0.841356
Si Si4 0.996817 0.139674 0.975487
Si Si5 0.605349 0.905901 0.259545
Si Si6 0.760270 0.961602 0.699198
O O1 0.950691 0.199090 0.434023
O O2 0.930005 0.280209 0.290066
O O3 0.843970 0.078506 0.289395
O O4 0.035349 0.071254 0.348698
O O5 0.750000 0.750000 0.500000
O O6 0.681518 0.866779 0.352821
O O7 0.761056 0.654065 0.360639
O O8 0.879699 0.824671 0.434961
O O9 0.184332 0.057295 0.840082
O O10 0.000000 0.110634 0.750000
O O11 0.054517 0.145434 0.911899
O O12 0.000000 0.000000 0.000000
O O13 0.500000 0.968382 0.250000
O O14 0.667163 0.982726 0.216119
#
# Coordination Sequence:
#
# PCOD9257998 Si02
#       6
#     8   8   8   8   8   8
#     4   9  18  35  57  79 103 138 182 223 270 326
#     4  11  21  36  60  84 109 146 192 230 269 331
#     4   9  16  31  53  77 104 136 179 229 271 318
#     4  10  18  32  57  84 103 132 183 235 270 313
#     4  11  21  37  56  78 113 150 180 223 276 331
#     4  10  21  35  54  82 111 144 182 222 277 335
#
# _framework density 19.041115000000001
#
# number of rings (size 3 to 8) (size 9 to 14) (size 15 to 20)
#    0.000    2.000    0.000    8.500    0.000    0.000 
#    0.000    8.333    0.000    0.000    0.000    0.000 
#    0.000    0.000    0.000    0.000    0.000    0.000 
#
# Total GULP energy -133844.566647 kJ/mol
# GULP energy per Si atom -5576.856944 kJ/mol
# Density = 1.899778 g / cm^3
# Si number density = 19.041115 Si / 1000 Ang^3
#
#
#
# Elastic Constant Matrix: (Units=GPa)
#
#
# Indices 1 2 3 4 5 6 
#
# 1 185.1466 36.3853 66.0153 0.0000 -15.7390 0.0000
# 2 36.3853 23.0504 16.6655 0.0000 0.6903 0.0000
# 3 66.0153 16.6655 143.5283 0.0000 -14.2697 0.0000
# 4 0.0000 0.0000 0.0000 12.6572 0.0000 -0.7818
# 5 -15.7390 0.6903 -14.2697 0.0000 25.8995 0.0000
# 6 0.0000 0.0000 0.0000 -0.7818 0.0000 25.2431
#
#
#
# Elastic Compliance Matrix: (Units=1/GPa)
#
#
# Indices 1 2 3 4 5 6 
#
# 1 0.009140 -0.012951 -0.002236 0.000000 0.004668 0.000000
# 2 -0.012951 0.066220 -0.002846 0.000000 -0.011204 0.000000
# 3 -0.002236 -0.002846 0.008674 0.000000 0.003496 0.000000
# 4 0.000000 0.000000 0.000000 0.079158 0.000000 0.002452
# 5 0.004668 -0.011204 0.003496 0.000000 0.043672 0.000000
# 6 0.000000 0.000000 0.000000 0.002452 0.000000 0.039691
#
#
# Mechanical properties :
#
#
# Convention : Reuss Voigt Hill
#
# Bulk Modulus (GPa) = 20.84752 65.53972 43.19362
# Shear Modulus (GPa) = 16.74418 28.27057 22.50738
#
# Velocity S-wave (km/s) = 2.96863 3.85738 3.44181
# Velocity P-wave (km/s) = 4.76685 7.37116 6.20713
#
# Compressibility (1/GPa) = 0.04796734
#
# Stress axis : x y z
#
# Youngs Moduli (GPa) = 109.40345 15.10118 115.28929
#
# Poissons Ratio (x) = 0.19558 0.25782
# Poissons Ratio (y) = 1.41692 0.32811
# Poissons Ratio (z) = 0.24465 0.04298
#
# Static dielectric constant tensor:
#      x y z
#    x 1.742330 0.000000 -0.082370 
#    y 0.000000 1.675590 0.000000 
#    z -0.082370 0.000000 1.843500 
# 
# From -- ./inp_files/196579.got.cif
#   From: 2010.05.17/outbox.cif.g08.bks.cpg/sg15_99_cif.got.tgz:196579.got - 2010.06.03 18:47:42.
