data_PCOD9257451
_publ_section_title
;
Structure prediction by ZEFSAII (Michael W. Deem and Ramdas Pophale) SiO2 
 PCOD9257451
Probable space group: C 2/C
;
_chemical_formula_sum "Si O2"
_cell_formula_units_Z 48
_cell_length_a 12.603520
_cell_length_b 20.212885
_cell_length_c 15.017206
_cell_angle_alpha 90.000000
_cell_angle_beta 147.204707
_cell_angle_gamma 90.000000
_cell_volume 2072.141216
_symmetry_space_group_name_H-M "C 2/C"
_symmetry_group_IT_number 15
_symmetry_cell_setting 'monoclinic'
loop_
_space_group_symop_operation_xyz
x,y,z
-x,y,1/2-z
-x,-y,-z
x,-y,1/2+z
1/2+x,1/2+y,z
1/2-x,1/2+y,1/2-z
1/2-x,1/2-y,-z
1/2+x,1/2-y,1/2+z
loop_
_atom_site_type_symbol
_atom_site_label
_atom_site_fract_x
_atom_site_fract_y
_atom_site_fract_z
Si Si1 0.557713 0.675843 0.577726
Si Si2 0.594704 0.551678 0.496697
Si Si3 0.300307 0.673165 0.552208
Si Si4 0.459795 0.171687 0.972780
Si Si5 0.533109 0.017800 0.181518
Si Si6 0.760794 0.442961 0.860509
O O1 0.562095 0.627869 0.498274
O O2 0.377340 0.648678 0.511481
O O3 0.520868 0.752313 0.529982
O O4 0.764876 0.668953 0.774742
O O5 0.500000 0.500000 0.500000
O O6 0.822017 0.536632 0.671380
O O7 0.467207 0.545677 0.318188
O O8 0.500000 0.669777 0.750000
O O9 0.250000 0.750000 0.500000
O O10 0.124332 0.646565 0.489620
O O11 0.637160 0.129134 0.057615
O O12 0.500000 0.059860 0.250000
O O13 0.648850 0.039922 0.173988
O O14 0.343224 0.988054 0.998074
#
# Coordination Sequence:
#
# PCOD9257451 Si02
#       6
#     8   8   8   8   8   8
#     4  10  18  32  51  83 119 158 196 241 294 353
#     4  10  21  37  58  85 118 154 200 243 288 354
#     4   8  16  27  44  74 116 151 185 226 281 347
#     4  10  18  31  54  83 117 158 193 243 297 355
#     4  10  22  41  62  86 119 157 199 248 294 351
#     4  10  21  38  61  89 118 152 199 242 298 358
#
# _framework density 23.164445000000001
#
# number of rings (size 3 to 8) (size 9 to 14) (size 15 to 20)
#    0.000    2.333    1.667    1.000    0.000    4.667 
#    0.000    2.500    0.000    1.000    0.000    0.000 
#    0.000    0.000    0.000    0.000    0.000    0.000 
#
# Total GULP energy -133657.909345 kJ/mol
# GULP energy per Si atom -5569.079556 kJ/mol
# Density = 2.311172 g / cm^3
# Si number density = 23.164445 Si / 1000 Ang^3
#
#
#
# Elastic Constant Matrix: (Units=GPa)
#
#
# Indices 1 2 3 4 5 6 
#
# 1 53.9147 11.1091 40.6236 -0.0002 -6.0714 -0.0002
# 2 11.1091 47.8238 30.4083 -0.0002 -0.1797 -0.0001
# 3 40.6236 30.4083 157.3874 -0.0007 -4.0770 -0.0005
# 4 -0.0002 -0.0002 -0.0007 28.5306 -0.0003 3.6285
# 5 -6.0714 -0.1797 -4.0770 -0.0003 52.9478 -0.0003
# 6 -0.0002 -0.0001 -0.0005 3.6285 -0.0003 12.2271
#
#
#
# Elastic Compliance Matrix: (Units=1/GPa)
#
#
# Indices 1 2 3 4 5 6 
#
# 1 0.023425 -0.001853 -0.005630 0.000000 0.002246 0.000000
# 2 -0.001853 0.023989 -0.004168 0.000000 -0.000452 0.000000
# 3 -0.005630 -0.004168 0.008612 0.000000 0.000003 0.000000
# 4 0.000000 0.000000 0.000000 0.036425 0.000000 -0.010809
# 5 0.002246 -0.000452 0.000003 0.000000 0.019143 0.000000
# 6 0.000000 0.000000 0.000000 -0.010809 0.000000 0.084993
#
#
# Mechanical properties :
#
#
# Convention : Reuss Voigt Hill
#
# Bulk Modulus (GPa) = 30.55918 47.04534 38.80226
# Shear Modulus (GPa) = 21.66398 30.54009 26.10204
#
# Velocity S-wave (km/s) = 3.06146 3.63492 3.36045
# Velocity P-wave (km/s) = 5.07126 6.16200 5.64305
#
# Compressibility (1/GPa) = 0.03272339
#
# Stress axis : x y z
#
# Youngs Moduli (GPa) = 42.69008 41.68538 116.11258
#
# Poissons Ratio (x) = 0.07725 0.65371
# Poissons Ratio (y) = 0.07911 0.48399
# Poissons Ratio (z) = 0.24034 0.17376
#
# Static dielectric constant tensor:
#      x y z
#    x 2.088720 0.000000 0.051130 
#    y 0.000000 1.856060 0.000000 
#    z 0.051130 0.000000 1.864090 
# 
# From -- ./inp_files/57980.got.cif
#   From: 2010.05.17/outbox.cif.g08.bks.cpg/sg15_29_cif.got.tgz:57980.got - 2010.06.03 18:47:42.
