data_PCOD9257515
_publ_section_title
;
Structure prediction by ZEFSAII (Michael W. Deem and Ramdas Pophale) SiO2 
 PCOD9257515
Probable space group: C 2/C
;
_chemical_formula_sum "Si O2"
_cell_formula_units_Z 44
_cell_length_a 24.385065
_cell_length_b 18.291378
_cell_length_c 5.750577
_cell_angle_alpha 90.000000
_cell_angle_beta 111.106404
_cell_angle_gamma 90.000000
_cell_volume 2392.891716
_symmetry_space_group_name_H-M "C 2/C"
_symmetry_group_IT_number 15
_symmetry_cell_setting 'monoclinic'
loop_
_space_group_symop_operation_xyz
x,y,z
-x,y,1/2-z
-x,-y,-z
x,-y,1/2+z
1/2+x,1/2+y,z
1/2-x,1/2+y,1/2-z
1/2-x,1/2-y,-z
1/2+x,1/2-y,1/2+z
loop_
_atom_site_type_symbol
_atom_site_label
_atom_site_fract_x
_atom_site_fract_y
_atom_site_fract_z
Si Si1 0.158929 0.791448 0.898417
Si Si2 0.258404 0.532930 0.530689
Si Si3 0.054957 0.178488 0.953304
Si Si4 0.500000 0.429410 0.750000
Si Si5 0.885115 0.922950 0.340640
Si Si6 0.734491 0.811391 0.791069
O O1 0.103163 0.773555 0.654338
O O2 0.213984 0.814170 0.822635
O O3 0.141753 0.863126 0.021175
O O4 0.177519 0.721463 0.077248
O O5 0.240937 0.487821 0.269754
O O6 0.330147 0.532422 0.656219
O O7 0.234828 0.612949 0.428193
O O8 0.088893 0.128016 0.821851
O O9 0.000000 0.217949 0.750000
O O10 0.026033 0.123575 0.093842
O O11 0.441505 0.464682 0.542916
O O12 0.750000 0.750000 0.000000
#
# Coordination Sequence:
#
# PCOD9257515 Si02
#       6
#     8   8   8   4   8   8
#     4  10  18  31  57  79 104 140 190 232 281 330
#     4  12  26  39  55  80 115 150 189 239 288 331
#     4   9  16  29  51  78 105 137 180 238 282 314
#     4   8  18  28  54  70 106 138 194 232 276 306
#     4  10  18  35  51  77 103 151 185 239 271 328
#     4  11  21  35  57  78 106 143 194 231 279 344
#
# _framework density 18.387794
#
# number of rings (size 3 to 8) (size 9 to 14) (size 15 to 20)
#    0.000    1.818    3.636    1.091    5.091    0.000 
#    0.000    0.909    0.000    0.000    0.000    0.000 
#    0.000    1.455    0.000    0.727    0.000    0.000 
#
# Total GULP energy -122745.760940 kJ/mol
# GULP energy per Si atom -5579.352770 kJ/mol
# Density = 1.834594 g / cm^3
# Si number density = 18.387794 Si / 1000 Ang^3
#
#
#
# Elastic Constant Matrix: (Units=GPa)
#
#
# Indices 1 2 3 4 5 6 
#
# 1 51.3742 17.6971 33.5697 0.0000 -2.1600 0.0000
# 2 17.6971 79.6545 53.8300 0.0000 11.8591 0.0000
# 3 33.5697 53.8300 147.0491 0.0000 19.9395 0.0000
# 4 0.0000 0.0000 0.0000 41.7659 0.0000 4.4373
# 5 -2.1600 11.8591 19.9395 0.0000 52.4651 0.0000
# 6 0.0000 0.0000 0.0000 4.4373 0.0000 15.8436
#
#
#
# Elastic Compliance Matrix: (Units=1/GPa)
#
#
# Indices 1 2 3 4 5 6 
#
# 1 0.023699 -0.002398 -0.004996 0.000000 0.003416 0.000000
# 2 -0.002398 0.017041 -0.005435 0.000000 -0.001885 0.000000
# 3 -0.004996 -0.005435 0.010324 0.000000 -0.002901 0.000000
# 4 0.000000 0.000000 0.000000 0.024677 0.000000 -0.006911
# 5 0.003416 -0.001885 -0.002901 0.000000 0.020729 0.000000
# 6 0.000000 0.000000 0.000000 -0.006911 0.000000 0.065053
#
#
# Mechanical properties :
#
#
# Convention : Reuss Voigt Hill
#
# Bulk Modulus (GPa) = 39.36034 54.25238 46.80636
# Shear Modulus (GPa) = 25.55601 33.54697 29.55149
#
# Velocity S-wave (km/s) = 3.73209 4.27595 4.01325
# Velocity P-wave (km/s) = 6.32642 7.34486 6.85458
#
# Compressibility (1/GPa) = 0.02540628
#
# Stress axis : x y z
#
# Youngs Moduli (GPa) = 42.19581 58.68354 96.86318
#
# Poissons Ratio (x) = 0.14072 0.48390
# Poissons Ratio (y) = 0.10118 0.52645
# Poissons Ratio (z) = 0.21080 0.31895
#
# Static dielectric constant tensor:
#      x y z
#    x 1.662060 0.000000 0.011640 
#    y 0.000000 1.609390 0.000000 
#    z 0.011640 0.000000 1.760180 
# 
# From -- ./inp_files/15277.got.cif
#   From: 2010.05.17/outbox.cif.g08.bks.cpg/sg15_8_cif.got.tgz:15277.got - 2010.06.03 18:47:42.
