data_PCOD9257638
_publ_section_title
;
Structure prediction by ZEFSAII (Michael W. Deem and Ramdas Pophale) SiO2 
 PCOD9257638
Probable space group: C 2/C
;
_chemical_formula_sum "Si O2"
_cell_formula_units_Z 60
_cell_length_a 23.543995
_cell_length_b 5.251879
_cell_length_c 19.879758
_cell_angle_alpha 90.000000
_cell_angle_beta 74.187296
_cell_angle_gamma 90.000000
_cell_volume 2365.114527
_symmetry_space_group_name_H-M "C 2/C"
_symmetry_group_IT_number 15
_symmetry_cell_setting 'monoclinic'
loop_
_space_group_symop_operation_xyz
x,y,z
-x,y,1/2-z
-x,-y,-z
x,-y,1/2+z
1/2+x,1/2+y,z
1/2-x,1/2+y,1/2-z
1/2-x,1/2-y,-z
1/2+x,1/2-y,1/2+z
loop_
_atom_site_type_symbol
_atom_site_label
_atom_site_fract_x
_atom_site_fract_y
_atom_site_fract_z
Si Si1 0.511219 0.492061 0.387652
Si Si2 0.343762 0.494777 0.320171
Si Si3 0.065320 0.645845 0.151563
Si Si4 0.000000 0.730061 0.750000
Si Si5 0.782701 0.891573 0.216221
Si Si6 0.723698 0.994570 0.107448
Si Si7 0.656887 0.955907 0.508174
Si Si8 0.398805 0.553394 0.524605
O O1 0.494249 0.206623 0.369440
O O2 0.515257 0.633910 0.315188
O O3 0.453496 0.566087 0.452107
O O4 0.567652 0.502730 0.416882
O O5 0.406237 0.406604 0.329190
O O6 0.236238 0.599952 0.262777
O O7 0.340039 0.459376 0.241178
O O8 0.317832 0.761971 0.352545
O O9 0.053974 0.457369 0.215266
O O10 0.110543 0.534953 0.084315
O O11 0.779466 0.947986 0.138348
O O12 0.800445 0.772819 0.363175
O O13 0.718274 0.996975 0.028032
O O14 0.644080 0.678446 0.482793
O O15 0.635828 0.180638 0.467174
#
# Coordination Sequence:
#
# PCOD9257638 Si02
#       8
#     8   8   8   4   8   8   8   8
#     4  10  22  35  50  71  95 131 169 214 254 293
#     4   9  17  27  44  64  95 129 161 192 242 301
#     4  10  21  32  49  68  98 131 171 207 251 297
#     4  12  22  36  50  70  96 134 174 218 250 296
#     4   8  14  24  39  65  93 125 153 188 234 298
#     4   9  15  26  45  68  97 124 158 193 240 299
#     4  10  18  32  50  73  94 130 162 202 244 300
#     4  10  21  34  54  70  98 127 173 206 250 298
#
# _framework density 25.368749000000001
#
# number of rings (size 3 to 8) (size 9 to 14) (size 15 to 20)
#    0.000    2.400    1.333    2.800    3.733    1.600 
#    0.000    0.000    0.000    0.000    0.000    0.000 
#    0.000    2.133    0.000    0.400    0.000    0.133 
#
# Total GULP energy -167552.076485 kJ/mol
# GULP energy per Si atom -5585.069216 kJ/mol
# Density = 2.531101 g / cm^3
# Si number density = 25.368749 Si / 1000 Ang^3
#
#
#
# Elastic Constant Matrix: (Units=GPa)
#
#
# Indices 1 2 3 4 5 6 
#
# 1 47.9725 24.0951 64.8633 0.0000 27.5388 0.0000
# 2 24.0951 115.9588 25.8528 0.0000 -5.6885 0.0000
# 3 64.8633 25.8528 133.2584 0.0000 23.5750 0.0000
# 4 0.0000 0.0000 0.0000 41.6621 0.0000 2.0780
# 5 27.5388 -5.6885 23.5750 0.0000 63.9706 0.0000
# 6 0.0000 0.0000 0.0000 2.0780 0.0000 35.3304
#
#
#
# Elastic Compliance Matrix: (Units=1/GPa)
#
#
# Indices 1 2 3 4 5 6 
#
# 1 0.097840 -0.012786 -0.040105 0.000000 -0.028476 0.000000
# 2 -0.012786 0.010830 0.003186 0.000000 0.005293 0.000000
# 3 -0.040105 0.003186 0.024928 0.000000 0.008362 0.000000
# 4 0.000000 0.000000 0.000000 0.024073 0.000000 -0.001416
# 5 -0.028476 0.005293 0.008362 0.000000 0.025280 0.000000
# 6 0.000000 0.000000 0.000000 -0.001416 0.000000 0.028387
#
#
# Mechanical properties :
#
#
# Convention : Reuss Voigt Hill
#
# Bulk Modulus (GPa) = 29.25005 58.53469 43.89237
# Shear Modulus (GPa) = 15.52098 40.35120 27.93609
#
# Velocity S-wave (km/s) = 2.47617 3.99254 3.32203
# Velocity P-wave (km/s) = 4.44187 6.66164 5.66161
#
# Compressibility (1/GPa) = 0.03418797
#
# Stress axis : x y z
#
# Youngs Moduli (GPa) = 10.22077 92.33735 40.11557
#
# Poissons Ratio (x) = 1.18060 1.60884
# Poissons Ratio (y) = 0.13068 -0.12781
# Poissons Ratio (z) = 0.40991 -0.29419
#
# Static dielectric constant tensor:
#      x y z
#    x 2.072660 0.000000 0.002700 
#    y 0.000000 1.988690 0.000000 
#    z 0.002700 0.000000 2.023960 
# 
# From -- ./inp_files/223665.got.cif
#   From: 2010.05.17/outbox.cif.g08.bks.cpg/sg15_112_cif.got.tgz:223665.got - 2010.06.03 18:47:42.
