data_PCOD9257145
_publ_section_title
;
Structure prediction by ZEFSAII (Michael W. Deem and Ramdas Pophale) SiO2 
 PCOD9257145
Probable space group: C 2/C
;
_chemical_formula_sum "Si O2"
_cell_formula_units_Z 56
_cell_length_a 14.069790
_cell_length_b 11.608718
_cell_length_c 27.486805
_cell_angle_alpha 90.000000
_cell_angle_beta 142.718607
_cell_angle_gamma 90.000000
_cell_volume 2719.413488
_symmetry_space_group_name_H-M "C 2/C"
_symmetry_group_IT_number 15
_symmetry_cell_setting 'monoclinic'
loop_
_space_group_symop_operation_xyz
x,y,z
-x,y,1/2-z
-x,-y,-z
x,-y,1/2+z
1/2+x,1/2+y,z
1/2-x,1/2+y,1/2-z
1/2-x,1/2-y,-z
1/2+x,1/2-y,1/2+z
loop_
_atom_site_type_symbol
_atom_site_label
_atom_site_fract_x
_atom_site_fract_y
_atom_site_fract_z
Si Si1 0.555128 0.407390 0.983688
Si Si2 0.425857 0.228357 0.999998
Si Si3 0.052643 0.086081 0.629078
Si Si4 0.332419 0.227082 0.584417
Si Si5 0.395155 0.633252 0.664891
Si Si6 0.879567 0.697347 0.745455
Si Si7 0.233099 0.398954 0.628851
O O1 0.739873 0.387091 0.063880
O O2 0.500000 0.500000 0.000000
O O3 0.479133 0.289527 0.971303
O O4 0.502915 0.460736 0.911709
O O5 0.245088 0.200858 0.918903
O O6 0.462158 0.318000 0.058656
O O7 0.544917 0.120263 0.055489
O O8 0.234723 0.111195 0.691963
O O9 0.010051 0.098646 0.667804
O O10 0.250000 0.250000 0.500000
O O11 0.515687 0.205434 0.663668
O O12 0.290120 0.329843 0.603990
O O13 0.500000 0.690241 0.750000
O O14 0.306072 0.524525 0.653655
O O15 0.808007 0.822288 0.702499
O O16 0.000000 0.668933 0.750000
#
# Coordination Sequence:
#
# PCOD9257145 Si02
#       7
#     8   8   8   8   8   8   8
#     4   9  18  35  57  79 103 140 185 229 275 325
#     4   9  20  39  60  80 109 151 194 234 280 336
#     4  10  21  38  60  82 113 154 189 229 287 342
#     4  10  18  30  55  84 105 132 182 237 270 310
#     4  12  23  36  54  86 122 151 182 230 286 344
#     4   9  18  36  59  82 106 143 190 233 275 329
#     4   9  19  36  58  77 106 149 188 226 273 328
#
# _framework density 20.592676999999998
#
# number of rings (size 3 to 8) (size 9 to 14) (size 15 to 20)
#    0.000    2.286    0.000    5.571    0.000    2.286 
#    0.000    6.429    0.000    0.000    0.000    0.000 
#    0.000    0.000    0.000    0.000    0.000    0.000 
#
# Total GULP energy -156077.055591 kJ/mol
# GULP energy per Si atom -5574.180557 kJ/mol
# Density = 2.054581 g / cm^3
# Si number density = 20.592677 Si / 1000 Ang^3
#
#
#
# Elastic Constant Matrix: (Units=GPa)
#
#
# Indices 1 2 3 4 5 6 
#
# 1 59.6437 -1.8080 34.8902 0.0000 2.1818 0.0000
# 2 -1.8080 28.0524 12.8042 0.0000 7.8834 0.0000
# 3 34.8902 12.8042 150.4520 0.0000 8.7056 0.0000
# 4 0.0000 0.0000 0.0000 20.8822 0.0000 2.6825
# 5 2.1818 7.8834 8.7056 0.0000 34.3771 0.0000
# 6 0.0000 0.0000 0.0000 2.6825 0.0000 15.1773
#
#
#
# Elastic Compliance Matrix: (Units=1/GPa)
#
#
# Indices 1 2 3 4 5 6 
#
# 1 0.019746 0.003732 -0.004846 0.000000 -0.000882 0.000000
# 2 0.003732 0.039988 -0.003780 0.000000 -0.008450 0.000000
# 3 -0.004846 -0.003780 0.008143 0.000000 -0.000888 0.000000
# 4 0.000000 0.000000 0.000000 0.049000 0.000000 -0.008660
# 5 -0.000882 -0.008450 -0.000888 0.000000 0.031308 0.000000
# 6 0.000000 0.000000 0.000000 -0.008660 0.000000 0.067418
#
#
# Mechanical properties :
#
#
# Convention : Reuss Voigt Hill
#
# Bulk Modulus (GPa) = 17.21434 36.65788 26.93611
# Shear Modulus (GPa) = 20.42867 26.90477 23.66672
#
# Velocity S-wave (km/s) = 3.15308 3.61850 3.39378
# Velocity P-wave (km/s) = 4.65118 5.94123 5.33534
#
# Compressibility (1/GPa) = 0.05809109
#
# Stress axis : x y z
#
# Youngs Moduli (GPa) = 50.64232 25.00757 122.79805
#
# Poissons Ratio (x) = -0.09334 0.59506
# Poissons Ratio (y) = -0.18901 0.46415
# Poissons Ratio (z) = 0.24540 0.09452
#
# Static dielectric constant tensor:
#      x y z
#    x 1.775720 0.000000 -0.034880 
#    y 0.000000 1.770180 0.000000 
#    z -0.034880 0.000000 1.760560 
# 
# From -- ./inp_files/295948.got.cif
#   From: 2010.05.17/outbox.cif.g08.bks.cpg/sg15_148_cif.got.tgz:295948.got - 2010.06.03 18:47:42.
