data_PCOD9257392
_publ_section_title
;
Structure prediction by ZEFSAII (Michael W. Deem and Ramdas Pophale) SiO2 
 PCOD9257392
Probable space group: C 2/C
;
_chemical_formula_sum "Si O2"
_cell_formula_units_Z 48
_cell_length_a 23.564701
_cell_length_b 14.116729
_cell_length_c 18.340628
_cell_angle_alpha 90.000000
_cell_angle_beta 19.944076
_cell_angle_gamma 90.000000
_cell_volume 2081.112128
_symmetry_space_group_name_H-M "C 2/C"
_symmetry_group_IT_number 15
_symmetry_cell_setting 'monoclinic'
loop_
_space_group_symop_operation_xyz
x,y,z
-x,y,1/2-z
-x,-y,-z
x,-y,1/2+z
1/2+x,1/2+y,z
1/2-x,1/2+y,1/2-z
1/2-x,1/2-y,-z
1/2+x,1/2-y,1/2+z
loop_
_atom_site_type_symbol
_atom_site_label
_atom_site_fract_x
_atom_site_fract_y
_atom_site_fract_z
Si Si1 0.308399 0.880932 0.556443
Si Si2 0.854187 0.095462 0.082662
Si Si3 0.558379 0.230845 0.827094
Si Si4 0.264856 0.385038 0.188778
Si Si5 0.250982 0.911466 0.126037
Si Si6 0.834710 0.779352 0.473448
O O1 0.223257 0.886071 0.742339
O O2 0.492154 0.841921 0.347255
O O3 0.209629 0.801960 0.630851
O O4 0.290797 0.985693 0.546647
O O5 0.830246 0.987413 0.083137
O O6 0.773183 0.163341 0.118812
O O7 0.054272 0.111066 0.850403
O O8 0.618411 0.163850 0.820580
O O9 0.408064 0.305212 0.021455
O O10 0.215225 0.413799 0.329260
O O11 0.366122 0.825599 0.964495
O O12 0.750000 0.750000 0.500000
O O13 0.000000 0.833809 0.250000
#
# Coordination Sequence:
#
# PCOD9257392 Si02
#       6
#     8   8   8   8   8   8
#     4  10  20  34  59  90 119 155 189 250 319 343
#     4  11  21  38  57  82 122 156 203 247 300 354
#     4  10  18  31  52  88 122 140 183 233 305 379
#     4  10  20  34  59  90 119 156 189 248 320 345
#     4  11  21  38  57  82 122 155 204 248 296 357
#     4  12  26  41  60  84 118 170 206 234 286 358
#
# _framework density 23.064591
#
# number of rings (size 3 to 8) (size 9 to 14) (size 15 to 20)
#    0.000    1.333    5.000    3.000    0.000    5.333 
#    0.000    0.000    0.000    0.000    0.000   23.333 
#    0.000    0.000    0.000    0.000    0.000    0.000 
#
# Total GULP energy -133742.089783 kJ/mol
# GULP energy per Si atom -5572.587074 kJ/mol
# Density = 2.301210 g / cm^3
# Si number density = 23.064591 Si / 1000 Ang^3
#
#
#
# Elastic Constant Matrix: (Units=GPa)
#
#
# Indices 1 2 3 4 5 6 
#
# 1 32.5807 23.9447 16.6093 -0.0006 -9.9972 0.0012
# 2 23.9447 132.8601 19.1759 -0.0009 -4.9395 -0.0002
# 3 16.6093 19.1759 57.8625 0.0008 -11.9872 -0.0016
# 4 -0.0006 -0.0009 0.0008 23.7250 -0.0001 4.4846
# 5 -9.9972 -4.9395 -11.9872 -0.0001 32.1775 0.0004
# 6 0.0012 -0.0002 -0.0016 4.4846 0.0004 -11.8396
#
#
#
# Elastic Compliance Matrix: (Units=1/GPa)
#
#
# Indices 1 2 3 4 5 6 
#
# 1 0.042125 -0.006071 -0.008194 0.000000 0.009103 0.000006
# 2 -0.006071 0.008782 -0.001386 0.000000 -0.001054 -0.000001
# 3 -0.008194 -0.001386 0.021155 0.000000 0.005122 -0.000004
# 4 0.000000 0.000000 0.000000 0.039333 0.000000 0.014899
# 5 0.009103 -0.001054 0.005122 0.000000 0.035652 0.000001
# 6 0.000006 -0.000001 -0.000004 0.014899 0.000001 -0.078819
#
#
# Mechanical properties :
#
#
# Convention : Reuss Voigt Hill
#
# Bulk Modulus (GPa) = 24.53399 38.08477 31.30938
# Shear Modulus (GPa) = 44.20181 19.71748 31.95964
#
# Velocity S-wave (km/s) = 4.38246 2.92701 3.72648
# Velocity P-wave (km/s) = 6.02230 5.28878 5.66742
#
# Compressibility (1/GPa) = 0.04075978
#
# Stress axis : x y z
#
# Youngs Moduli (GPa) = 23.73866 113.87319 47.27017
#
# Poissons Ratio (x) = 0.69131 0.38734
# Poissons Ratio (y) = 0.14412 0.06552
# Poissons Ratio (z) = 0.19452 0.15784
#
# Static dielectric constant tensor:
#      x y z
#    x 2.392300 -0.000020 -0.032290 
#    y -0.000020 1.978470 0.000000 
#    z -0.032290 0.000000 1.996460 
# 
# From -- ./inp_files/69855.got.cif
#   From: 2010.05.17/outbox.cif.g08.bks.cpg/sg15_35_cif.got.tgz:69855.got - 2010.06.03 18:47:42.
