data_PCOD9257865
_publ_section_title
;
Structure prediction by ZEFSAII (Michael W. Deem and Ramdas Pophale) SiO2 
 PCOD9257865
Probable space group: C 2/C
;
_chemical_formula_sum "Si O2"
_cell_formula_units_Z 56
_cell_length_a 10.458193
_cell_length_b 33.316176
_cell_length_c 10.002339
_cell_angle_alpha 90.000000
_cell_angle_beta 119.866192
_cell_angle_gamma 90.000000
_cell_volume 3022.233389
_symmetry_space_group_name_H-M "C 2/C"
_symmetry_group_IT_number 15
_symmetry_cell_setting 'monoclinic'
loop_
_space_group_symop_operation_xyz
x,y,z
-x,y,1/2-z
-x,-y,-z
x,-y,1/2+z
1/2+x,1/2+y,z
1/2-x,1/2+y,1/2-z
1/2-x,1/2-y,-z
1/2+x,1/2-y,1/2+z
loop_
_atom_site_type_symbol
_atom_site_label
_atom_site_fract_x
_atom_site_fract_y
_atom_site_fract_z
Si Si1 0.680021 0.832610 0.485841
Si Si2 0.120582 0.910765 0.930682
Si Si3 0.881054 0.793854 0.796340
Si Si4 0.359224 0.199740 0.814990
Si Si5 0.099956 0.085143 0.933085
Si Si6 0.356678 0.328661 0.079046
Si Si7 0.390273 0.500933 0.067482
O O1 0.757569 0.876194 0.523515
O O2 0.733687 0.807199 0.642044
O O3 0.723633 0.812496 0.365773
O O4 0.503079 0.828643 0.397259
O O5 0.000000 0.908263 0.750000
O O6 0.188829 0.955977 0.969796
O O7 0.017761 0.907743 0.008927
O O8 0.899986 0.746233 0.819954
O O9 0.000000 0.809242 0.750000
O O10 0.888823 0.811600 0.948781
O O11 0.264127 0.194792 0.898422
O O12 0.193733 0.125313 0.968443
O O13 0.185609 0.042685 0.983689
O O14 0.000000 0.082400 0.750000
O O15 0.500000 0.328729 0.250000
O O16 0.500000 0.501197 0.250000
O O17 0.500000 0.500000 0.000000
#
# Coordination Sequence:
#
# PCOD9257865 Si02
#       7
#     8   8   8   8   8   8   8
#     4  11  22  38  60  77 112 147 189 229 282 334
#     4  10  18  32  54  85 108 140 183 223 273 328
#     4  12  23  40  60  81 107 147 187 235 280 330
#     4  11  25  40  54  81 109 149 185 237 282 332
#     4   9  16  30  50  79 111 142 173 222 276 320
#     4  11  23  37  60  84 113 144 187 232 278 338
#     4   8  15  26  47  77 112 136 170 222 269 319
#
# _framework density 18.529343000000001
#
# number of rings (size 3 to 8) (size 9 to 14) (size 15 to 20)
#    0.000    1.714    1.429    5.571    2.000    0.571 
#    0.000    0.000    0.000    0.857    0.000    2.000 
#    0.000    0.000    0.000    0.000    0.000    0.286 
#
# Total GULP energy -155908.804416 kJ/mol
# GULP energy per Si atom -5568.171586 kJ/mol
# Density = 1.848717 g / cm^3
# Si number density = 18.529343 Si / 1000 Ang^3
#
#
#
# Elastic Constant Matrix: (Units=GPa)
#
#
# Indices 1 2 3 4 5 6 
#
# 1 53.8458 19.0649 37.2950 0.0000 -17.6149 0.0000
# 2 19.0649 145.0862 28.1649 0.0000 -1.6648 0.0000
# 3 37.2950 28.1649 123.7033 0.0000 -30.6244 0.0000
# 4 0.0000 0.0000 0.0000 14.0273 0.0000 -17.6512
# 5 -17.6149 -1.6648 -30.6244 0.0000 32.8459 0.0000
# 6 0.0000 0.0000 0.0000 -17.6512 0.0000 -5.7815
#
#
#
# Elastic Compliance Matrix: (Units=1/GPa)
#
#
# Indices 1 2 3 4 5 6 
#
# 1 0.025830 -0.002316 -0.005018 0.000000 0.009056 0.000000
# 2 -0.002316 0.007477 -0.001583 0.000000 -0.002339 0.000000
# 3 -0.005018 -0.001583 0.012053 0.000000 0.008467 0.000000
# 4 0.000000 0.000000 0.000000 0.014724 0.000000 -0.044952
# 5 0.009056 -0.002339 0.008467 0.000000 0.043077 0.000000
# 6 0.000000 0.000000 0.000000 -0.044952 0.000000 -0.035723
#
#
# Mechanical properties :
#
#
# Convention : Reuss Voigt Hill
#
# Bulk Modulus (GPa) = 36.32996 54.63168 45.48082
# Shear Modulus (GPa) = 52.93905 24.09238 38.51571
#
# Velocity S-wave (km/s) = 5.35093 3.60978 4.56415
# Velocity P-wave (km/s) = 7.60433 6.84996 7.23698
#
# Compressibility (1/GPa) = 0.02752549
#
# Stress axis : x y z
#
# Youngs Moduli (GPa) = 38.71491 133.73786 82.96503
#
# Poissons Ratio (x) = 0.30975 0.41632
# Poissons Ratio (y) = 0.08967 0.13136
# Poissons Ratio (z) = 0.19427 0.21175
#
# Static dielectric constant tensor:
#      x y z
#    x 1.630950 0.000000 0.007780 
#    y 0.000000 1.749860 0.000000 
#    z 0.007780 0.000000 1.646490 
# 
# From -- ./inp_files/35792.got.cif
#   From: 2010.05.17/outbox.cif.g08.bks.cpg/sg15_18_cif.got.tgz:35792.got - 2010.06.03 18:47:42.
