data_PCOD9257304
_publ_section_title
;
Structure prediction by ZEFSAII (Michael W. Deem and Ramdas Pophale) SiO2 
 PCOD9257304
Probable space group: C 2/C
;
_chemical_formula_sum "Si O2"
_cell_formula_units_Z 56
_cell_length_a 18.733216
_cell_length_b 19.394342
_cell_length_c 8.664241
_cell_angle_alpha 90.000000
_cell_angle_beta 47.765694
_cell_angle_gamma 90.000000
_cell_volume 2330.696131
_symmetry_space_group_name_H-M "C 2/C"
_symmetry_group_IT_number 15
_symmetry_cell_setting 'monoclinic'
loop_
_space_group_symop_operation_xyz
x,y,z
-x,y,1/2-z
-x,-y,-z
x,-y,1/2+z
1/2+x,1/2+y,z
1/2-x,1/2+y,1/2-z
1/2-x,1/2-y,-z
1/2+x,1/2-y,1/2+z
loop_
_atom_site_type_symbol
_atom_site_label
_atom_site_fract_x
_atom_site_fract_y
_atom_site_fract_z
Si Si1 0.869455 0.921975 0.816589
Si Si2 0.729977 0.088964 0.924894
Si Si3 0.140564 0.762242 0.599394
Si Si4 0.750904 0.029311 0.200417
Si Si5 0.759285 0.258294 0.165409
Si Si6 0.540646 0.593880 0.861784
Si Si7 0.462946 0.744755 0.962704
O O1 0.688439 0.974202 0.386838
O O2 0.822227 0.975985 0.003700
O O3 0.874453 0.844719 0.875714
O O4 0.804543 0.927457 0.755246
O O5 0.713710 0.160418 0.861007
O O6 0.846913 0.082223 0.772534
O O7 0.701325 0.077910 0.145349
O O8 0.250000 0.750000 0.500000
O O9 0.160826 0.739564 0.395132
O O10 0.062751 0.728002 0.827116
O O11 0.975603 0.064003 0.094909
O O12 0.854647 0.218635 0.078065
O O13 0.750000 0.250000 0.000000
O O14 0.500000 0.574663 0.750000
O O15 0.526004 0.676498 0.888824
O O16 0.500000 0.781179 0.750000
#
# Coordination Sequence:
#
# PCOD9257304 Si02
#       7
#     8   8   8   8   8   8   8
#     4  10  19  34  46  71 104 144 184 219 264 316
#     4  11  22  36  51  80 111 147 186 224 268 324
#     4   9  19  34  54  74 104 142 183 222 281 324
#     4  10  22  33  50  73 110 148 189 218 260 326
#     4  11  21  35  57  82 106 144 188 236 278 327
#     4  10  18  31  51  71 107 148 180 220 262 315
#     4   9  19  36  55  80 105 141 180 230 284 326
#
# _framework density 24.027156000000002
#
# number of rings (size 3 to 8) (size 9 to 14) (size 15 to 20)
#    0.000    2.000    2.857    1.714    4.000    4.000 
#    0.000    2.143    0.000    0.000    0.000    1.000 
#    0.000    0.000    0.000    0.000    0.000    0.000 
#
# Total GULP energy -156147.019063 kJ/mol
# GULP energy per Si atom -5576.679252 kJ/mol
# Density = 2.397247 g / cm^3
# Si number density = 24.027156 Si / 1000 Ang^3
#
#
#
# Elastic Constant Matrix: (Units=GPa)
#
#
# Indices 1 2 3 4 5 6 
#
# 1 44.2713 -0.3604 18.7731 0.0000 13.3771 0.0000
# 2 -0.3604 42.7152 -1.6213 0.0000 -2.2265 0.0000
# 3 18.7731 -1.6213 172.1936 0.0000 30.0597 0.0000
# 4 0.0000 0.0000 0.0000 30.1054 0.0000 11.0102
# 5 13.3771 -2.2265 30.0597 0.0000 35.7380 0.0000
# 6 0.0000 0.0000 0.0000 11.0102 0.0000 27.0887
#
#
#
# Elastic Compliance Matrix: (Units=1/GPa)
#
#
# Indices 1 2 3 4 5 6 
#
# 1 0.025724 -0.000278 -0.001317 0.000000 -0.008539 0.000000
# 2 -0.000278 0.023490 -0.000026 0.000000 0.001589 0.000000
# 3 -0.001317 -0.000026 0.006874 0.000000 -0.005291 0.000000
# 4 0.000000 0.000000 0.000000 0.039016 0.000000 -0.015858
# 5 -0.008539 0.001589 -0.005291 0.000000 0.035727 0.000000
# 6 0.000000 0.000000 0.000000 -0.015858 0.000000 0.043361
#
#
# Mechanical properties :
#
#
# Convention : Reuss Voigt Hill
#
# Bulk Modulus (GPa) = 18.92228 32.52922 25.72575
# Shear Modulus (GPa) = 25.63442 34.74566 30.19004
#
# Velocity S-wave (km/s) = 3.26988 3.80689 3.54856
# Velocity P-wave (km/s) = 4.70623 5.73508 5.24594
#
# Compressibility (1/GPa) = 0.05284776
#
# Stress axis : x y z
#
# Youngs Moduli (GPa) = 38.87404 42.57062 145.46868
#
# Poissons Ratio (x) = 0.01184 0.19151
# Poissons Ratio (y) = 0.01081 0.00378
# Poissons Ratio (z) = 0.05118 0.00111
#
# Static dielectric constant tensor:
#      x y z
#    x 2.048730 0.000000 0.168410 
#    y 0.000000 2.038140 0.000000 
#    z 0.168410 0.000000 2.110150 
# 
# From -- ./inp_files/58430.got.cif
#   From: 2010.05.17/outbox.cif.g08.bks.cpg/sg15_30_cif.got.tgz:58430.got - 2010.06.03 18:47:42.
