data_PCOD9257851
_publ_section_title
;
Structure prediction by ZEFSAII (Michael W. Deem and Ramdas Pophale) SiO2 
 PCOD9257851
Probable space group: C 2/C
;
_chemical_formula_sum "Si O2"
_cell_formula_units_Z 44
_cell_length_a 19.358601
_cell_length_b 7.550438
_cell_length_c 17.816239
_cell_angle_alpha 90.000000
_cell_angle_beta 52.621214
_cell_angle_gamma 90.000000
_cell_volume 2069.341970
_symmetry_space_group_name_H-M "C 2/C"
_symmetry_group_IT_number 15
_symmetry_cell_setting 'monoclinic'
loop_
_space_group_symop_operation_xyz
x,y,z
-x,y,1/2-z
-x,-y,-z
x,-y,1/2+z
1/2+x,1/2+y,z
1/2-x,1/2+y,1/2-z
1/2-x,1/2-y,-z
1/2+x,1/2-y,1/2+z
loop_
_atom_site_type_symbol
_atom_site_label
_atom_site_fract_x
_atom_site_fract_y
_atom_site_fract_z
Si Si1 0.000000 0.067970 0.750000
Si Si2 0.756886 0.023009 0.572789
Si Si3 0.311063 0.417129 0.871627
Si Si4 0.039205 0.194236 0.883181
Si Si5 0.898985 0.860275 0.578898
Si Si6 0.782671 0.761991 0.287956
O O1 0.914060 0.947782 0.813090
O O2 0.991817 0.190523 0.681797
O O3 0.718650 0.215147 0.616513
O O4 0.765398 0.010174 0.477850
O O5 0.851312 0.986604 0.548235
O O6 0.703384 0.869998 0.650393
O O7 0.286531 0.541385 0.818384
O O8 0.137287 0.267993 0.820635
O O9 0.051095 0.986992 0.897515
O O10 0.966756 0.260876 0.988909
O O11 0.816246 0.768497 0.671748
#
# Coordination Sequence:
#
# PCOD9257851 Si02
#       6
#     4   8   8   8   8   8
#     4  10  18  32  54  84 106 152 188 224 290 340
#     4   9  19  35  56  86 112 149 192 230 292 337
#     4  10  18  34  59  84 116 147 185 240 280 346
#     4  10  19  35  61  82 116 150 190 237 286 340
#     4   9  20  37  58  86 112 152 191 236 293 341
#     4   9  20  35  59  83 110 153 190 231 289 341
#
# _framework density 21.262798
#
# number of rings (size 3 to 8) (size 9 to 14) (size 15 to 20)
#    1.091    1.455    1.818    0.545    0.000    2.909 
#    0.000    7.273    0.000    3.273    0.000    0.000 
#    0.000    0.000    0.000    0.000    0.000    0.000 
#
# Total GULP energy -122562.531496 kJ/mol
# GULP energy per Si atom -5571.024159 kJ/mol
# Density = 2.121440 g / cm^3
# Si number density = 21.262798 Si / 1000 Ang^3
#
#
#
# Elastic Constant Matrix: (Units=GPa)
#
#
# Indices 1 2 3 4 5 6 
#
# 1 54.9199 -5.9576 21.4973 0.0000 -22.9843 0.0002
# 2 -5.9576 46.7300 20.6262 0.0001 -12.9874 -0.0001
# 3 21.4973 20.6262 121.3400 0.0000 -28.1018 -0.0001
# 4 0.0000 0.0001 0.0000 23.9991 0.0000 -6.0407
# 5 -22.9843 -12.9874 -28.1018 0.0000 45.2408 0.0000
# 6 0.0002 -0.0001 -0.0001 -6.0407 0.0000 27.9642
#
#
#
# Elastic Compliance Matrix: (Units=1/GPa)
#
#
# Indices 1 2 3 4 5 6 
#
# 1 0.026046 0.008431 -0.002830 0.000000 0.013895 0.000000
# 2 0.008431 0.026835 -0.003830 0.000000 0.009608 0.000000
# 3 -0.002830 -0.003830 0.010286 0.000000 0.003852 0.000000
# 4 0.000000 0.000000 0.000000 0.044064 0.000000 0.009519
# 5 0.013895 0.009608 0.003852 0.000000 0.034314 0.000000
# 6 0.000000 0.000000 0.000000 0.009519 0.000000 0.037816
#
#
# Mechanical properties :
#
#
# Convention : Reuss Voigt Hill
#
# Bulk Modulus (GPa) = 14.99032 32.81354 23.90193
# Shear Modulus (GPa) = 25.24552 31.89574 28.57063
#
# Velocity S-wave (km/s) = 3.44947 3.87728 3.66962
# Velocity P-wave (km/s) = 4.78858 5.95905 5.40559
#
# Compressibility (1/GPa) = 0.06670972
#
# Stress axis : x y z
#
# Youngs Moduli (GPa) = 38.39411 37.26432 97.22130
#
# Poissons Ratio (x) = -0.31419 0.27510
# Poissons Ratio (y) = -0.32371 0.37238
# Poissons Ratio (z) = 0.10864 0.14273
#
# Static dielectric constant tensor:
#      x y z
#    x 1.777210 0.000000 -0.027570 
#    y 0.000000 1.741370 0.000000 
#    z -0.027570 0.000000 1.841730 
# 
# From -- ./inp_files/217927.got.cif
#   From: 2010.05.17/outbox.cif.g08.bks.cpg/sg15_109_cif.got.tgz:217927.got - 2010.06.03 18:47:42.
