data_PCOD9257883
_publ_section_title
;
Structure prediction by ZEFSAII (Michael W. Deem and Ramdas Pophale) SiO2 
 PCOD9257883
Probable space group: C 2/C
;
_chemical_formula_sum "Si O2"
_cell_formula_units_Z 60
_cell_length_a 8.825642
_cell_length_b 17.162734
_cell_length_c 19.021609
_cell_angle_alpha 90.000000
_cell_angle_beta 66.163755
_cell_angle_gamma 90.000000
_cell_volume 2635.485942
_symmetry_space_group_name_H-M "C 2/C"
_symmetry_group_IT_number 15
_symmetry_cell_setting 'monoclinic'
loop_
_space_group_symop_operation_xyz
x,y,z
-x,y,1/2-z
-x,-y,-z
x,-y,1/2+z
1/2+x,1/2+y,z
1/2-x,1/2+y,1/2-z
1/2-x,1/2-y,-z
1/2+x,1/2-y,1/2+z
loop_
_atom_site_type_symbol
_atom_site_label
_atom_site_fract_x
_atom_site_fract_y
_atom_site_fract_z
Si Si1 0.637125 0.452147 0.101300
Si Si2 0.750845 0.960436 0.195502
Si Si3 0.135690 0.694582 0.782935
Si Si4 0.573754 0.159384 0.944632
Si Si5 0.647722 0.986558 0.058486
Si Si6 0.495597 0.841275 0.607809
Si Si7 0.190603 0.080806 0.206598
Si Si8 0.500000 0.238199 0.250000
O O1 0.445054 0.441281 0.151674
O O2 0.738548 0.372395 0.086185
O O3 0.697482 0.508751 0.151806
O O4 0.690945 0.494904 0.019254
O O5 0.661903 0.896881 0.260071
O O6 0.685813 0.958671 0.129200
O O7 0.739310 0.045307 0.233924
O O8 0.057933 0.705552 0.875118
O O9 0.328782 0.722034 0.753789
O O10 0.000000 0.721489 0.750000
O O11 0.461422 0.080719 0.957713
O O12 0.532840 0.199664 0.026491
O O13 0.561173 0.070476 0.084512
O O14 0.300029 0.850705 0.656091
O O15 0.560860 0.807280 0.668502
O O16 0.000000 0.101485 0.250000
#
# Coordination Sequence:
#
# PCOD9257883 Si02
#       8
#     8   8   8   8   8   8   8   4
#     4  10  18  32  54  99 137 157 191 251 334 405
#     4  11  21  33  60  93 131 165 211 265 319 386
#     4  12  25  45  68  92 124 179 241 276 307 370
#     4  11  20  38  70  94 127 164 211 268 332 391
#     4  11  19  35  64 102 127 161 198 259 347 402
#     4  11  22  42  64  94 133 166 205 263 335 410
#     4  10  19  32  60  97 129 162 196 255 331 397
#     4  12  30  46  66  88 128 182 230 272 316 378
#
# _framework density 22.766200000000001
#
# number of rings (size 3 to 8) (size 9 to 14) (size 15 to 20)
#    0.000    1.067    5.333    2.800    0.933    1.067 
#    0.000    0.667    2.933    0.000    0.000    0.000 
#    0.000    0.000    0.000    0.000    0.000    0.000 
#
# Total GULP energy -167545.125218 kJ/mol
# GULP energy per Si atom -5584.837507 kJ/mol
# Density = 2.271438 g / cm^3
# Si number density = 22.766200 Si / 1000 Ang^3
#
#
#
# Elastic Constant Matrix: (Units=GPa)
#
#
# Indices 1 2 3 4 5 6 
#
# 1 109.1394 19.4023 50.4171 0.0000 8.3700 0.0000
# 2 19.4023 30.2029 22.7853 0.0000 9.4392 0.0000
# 3 50.4171 22.7853 161.5730 0.0000 18.8024 0.0000
# 4 0.0000 0.0000 0.0000 12.8119 0.0000 5.3746
# 5 8.3700 9.4392 18.8024 0.0000 49.0556 0.0000
# 6 0.0000 0.0000 0.0000 5.3746 0.0000 9.5677
#
#
#
# Elastic Compliance Matrix: (Units=1/GPa)
#
#
# Indices 1 2 3 4 5 6 
#
# 1 0.011389 -0.005225 -0.002834 0.000000 0.000148 0.000000
# 2 -0.005225 0.040848 -0.003474 0.000000 -0.005637 0.000000
# 3 -0.002834 -0.003474 0.007776 0.000000 -0.001828 0.000000
# 4 0.000000 0.000000 0.000000 0.102116 0.000000 -0.057364
# 5 0.000148 -0.005637 -0.001828 0.000000 0.022145 0.000000
# 6 0.000000 0.000000 0.000000 -0.057364 0.000000 0.136743
#
#
# Mechanical properties :
#
#
# Convention : Reuss Voigt Hill
#
# Bulk Modulus (GPa) = 27.06542 54.01386 40.53964
# Shear Modulus (GPa) = 14.02916 28.17441 21.10178
#
# Velocity S-wave (km/s) = 2.48509 3.52171 3.04779
# Velocity P-wave (km/s) = 4.48870 6.34929 5.49827
#
# Compressibility (1/GPa) = 0.03694751
#
# Stress axis : x y z
#
# Youngs Moduli (GPa) = 87.80108 24.48081 128.59544
#
# Poissons Ratio (x) = 0.12790 0.36449
# Poissons Ratio (y) = 0.45872 0.44677
# Poissons Ratio (z) = 0.24887 0.08505
#
# Static dielectric constant tensor:
#      x y z
#    x 1.871610 0.000000 -0.010760 
#    y 0.000000 1.860570 0.000000 
#    z -0.010760 0.000000 1.900650 
# 
# From -- ./inp_files/192086.got.cif
#   From: 2010.05.17/outbox.cif.g08.bks.cpg/sg15_97_cif.got.tgz:192086.got - 2010.06.03 18:47:42.
