data_PCOD9257852
_publ_section_title
;
Structure prediction by ZEFSAII (Michael W. Deem and Ramdas Pophale) SiO2 
 PCOD9257852
Probable space group: C 2/C
;
_chemical_formula_sum "Si O2"
_cell_formula_units_Z 60
_cell_length_a 12.271092
_cell_length_b 14.381644
_cell_length_c 18.229605
_cell_angle_alpha 90.000000
_cell_angle_beta 75.067611
_cell_angle_gamma 90.000000
_cell_volume 3108.492172
_symmetry_space_group_name_H-M "C 2/C"
_symmetry_group_IT_number 15
_symmetry_cell_setting 'monoclinic'
loop_
_space_group_symop_operation_xyz
x,y,z
-x,y,1/2-z
-x,-y,-z
x,-y,1/2+z
1/2+x,1/2+y,z
1/2-x,1/2+y,1/2-z
1/2-x,1/2-y,-z
1/2+x,1/2-y,1/2+z
loop_
_atom_site_type_symbol
_atom_site_label
_atom_site_fract_x
_atom_site_fract_y
_atom_site_fract_z
Si Si1 0.000000 0.701047 0.250000
Si Si2 0.628780 0.049072 0.324185
Si Si3 0.273575 0.082161 0.033388
Si Si4 0.986522 0.620317 0.903788
Si Si5 0.341295 0.618623 0.222176
Si Si6 0.821669 0.380661 0.012464
Si Si7 0.803114 0.274582 0.872938
Si Si8 0.068808 0.175649 0.139142
O O1 0.932524 0.631482 0.208316
O O2 0.912647 0.760043 0.311686
O O3 0.658472 0.083040 0.401150
O O4 0.751554 0.039171 0.262521
O O5 0.548304 0.958142 0.343039
O O6 0.162357 0.143994 0.063741
O O7 0.248167 0.973408 0.028649
O O8 0.358138 0.103757 0.952027
O O9 0.983889 0.723790 0.870478
O O10 0.060484 0.611379 0.965321
O O11 0.277890 0.680232 0.172961
O O12 0.465412 0.602367 0.166428
O O13 0.369061 0.674259 0.292632
O O14 0.757502 0.303103 0.069816
O O15 0.839051 0.351952 0.925881
#
# Coordination Sequence:
#
# PCOD9257852 Si02
#       8
#     4   8   8   8   8   8   8   8
#     4  10  18  32  54  84 108 138 190 240 278 326
#     4   9  19  33  55  81 113 144 185 237 283 333
#     4  10  20  35  54  83 115 147 183 237 289 342
#     4  11  19  34  57  87 109 145 193 234 281 348
#     4   9  19  37  55  78 114 154 185 230 294 334
#     4  10  20  35  57  79 111 149 192 228 289 339
#     4  10  19  35  57  78 107 151 187 237 276 346
#     4  10  20  35  57  82 116 153 183 234 293 340
#
# _framework density 19.301963000000001
#
# number of rings (size 3 to 8) (size 9 to 14) (size 15 to 20)
#    0.000    2.133    1.333    3.600    0.000    1.067 
#    0.000    4.667    0.000    0.000    0.000    0.000 
#    0.000    0.000    0.000    0.000    0.000    0.000 
#
# Total GULP energy -167029.864527 kJ/mol
# GULP energy per Si atom -5567.662151 kJ/mol
# Density = 1.925803 g / cm^3
# Si number density = 19.301963 Si / 1000 Ang^3
#
#
#
# Elastic Constant Matrix: (Units=GPa)
#
#
# Indices 1 2 3 4 5 6 
#
# 1 66.6940 13.0070 44.6636 0.0000 -22.9856 0.0000
# 2 13.0070 43.5200 22.6742 0.0000 -19.6415 0.0000
# 3 44.6636 22.6742 86.4740 0.0000 -31.2772 0.0000
# 4 0.0000 0.0000 0.0000 19.7086 0.0000 -4.6140
# 5 -22.9856 -19.6415 -31.2772 0.0000 37.0570 0.0000
# 6 0.0000 0.0000 0.0000 -4.6140 0.0000 21.1483
#
#
#
# Elastic Compliance Matrix: (Units=1/GPa)
#
#
# Indices 1 2 3 4 5 6 
#
# 1 0.023970 0.001283 -0.010210 0.000000 0.006930 0.000000
# 2 0.001283 0.030847 -0.003670 0.000000 0.014048 0.000000
# 3 -0.010210 -0.003670 0.021312 0.000000 0.009709 0.000000
# 4 0.000000 0.000000 0.000000 0.053470 0.000000 0.011666
# 5 0.006930 0.014048 0.009709 0.000000 0.046925 0.000000
# 6 0.000000 0.000000 0.000000 0.011666 0.000000 0.049830
#
#
# Mechanical properties :
#
#
# Convention : Reuss Voigt Hill
#
# Bulk Modulus (GPa) = 19.63283 39.70863 29.67073
# Shear Modulus (GPa) = 18.62020 23.33900 20.97960
#
# Velocity S-wave (km/s) = 3.10930 3.48106 3.30042
# Velocity P-wave (km/s) = 4.80456 6.06416 5.47073
#
# Compressibility (1/GPa) = 0.05093510
#
# Stress axis : x y z
#
# Youngs Moduli (GPa) = 41.71962 32.41828 46.92237
#
# Poissons Ratio (x) = -0.04161 0.47908
# Poissons Ratio (y) = -0.05355 0.17220
# Poissons Ratio (z) = 0.42596 0.11897
#
# Static dielectric constant tensor:
#      x y z
#    x 1.720060 0.000000 -0.038140 
#    y 0.000000 1.680810 0.000000 
#    z -0.038140 0.000000 1.739320 
# 
# From -- ./inp_files/198303.got.cif
#   From: 2010.05.17/outbox.cif.g08.bks.cpg/sg15_100_cif.got.tgz:198303.got - 2010.06.03 18:47:42.
