data_PCOD9257804
_publ_section_title
;
Structure prediction by ZEFSAII (Michael W. Deem and Ramdas Pophale) SiO2 
 PCOD9257804
Probable space group: C 2/C
;
_chemical_formula_sum "Si O2"
_cell_formula_units_Z 64
_cell_length_a 12.959228
_cell_length_b 14.110822
_cell_length_c 30.102210
_cell_angle_alpha 90.000000
_cell_angle_beta 30.569673
_cell_angle_gamma 90.000000
_cell_volume 2799.587281
_symmetry_space_group_name_H-M "C 2/C"
_symmetry_group_IT_number 15
_symmetry_cell_setting 'monoclinic'
loop_
_space_group_symop_operation_xyz
x,y,z
-x,y,1/2-z
-x,-y,-z
x,-y,1/2+z
1/2+x,1/2+y,z
1/2-x,1/2+y,1/2-z
1/2-x,1/2-y,-z
1/2+x,1/2-y,1/2+z
loop_
_atom_site_type_symbol
_atom_site_label
_atom_site_fract_x
_atom_site_fract_y
_atom_site_fract_z
Si Si1 0.022019 0.739431 0.100551
Si Si2 0.882258 0.513698 0.250000
Si Si3 0.207433 0.484632 0.896283
Si Si4 0.880646 0.746121 0.249999
Si Si5 0.424226 0.739429 0.399449
Si Si6 0.515439 0.014529 0.104205
Si Si7 0.567741 0.514525 0.104205
Si Si8 0.293484 0.260954 0.853258
O O1 0.979634 0.627288 0.118774
O O2 0.980725 0.774455 0.165715
O O3 0.880006 0.779783 0.114201
O O4 0.250000 0.750000 0.000000
O O5 0.886160 0.629700 0.249999
O O6 0.647568 0.482475 0.334762
O O7 0.000000 0.479547 0.250000
O O8 0.986615 0.482476 0.165238
O O9 0.377965 0.522901 0.866480
O O10 0.241484 0.372189 0.879257
O O11 0.156112 0.522900 0.866480
O O12 0.000000 0.500000 0.000000
O O13 0.643587 0.774451 0.334284
O O14 0.000000 0.778640 0.250000
O O15 0.250000 0.750000 0.500000
O O16 0.454719 0.627284 0.381231
O O17 0.336814 0.779782 0.385798
O O18 0.738646 0.000005 1.000000
O O19 0.500000 0.256549 0.750000
#
# Coordination Sequence:
#
# PCOD9257804 Si02
#       8
#     8   8   8   8   8   8   8   8
#     4  10  20  33  53  78 101 133 171 213 255 301
#     4   9  18  31  50  71  97 134 176 198 231 298
#     4   8  16  28  50  80 100 120 159 209 256 294
#     4   9  18  33  50  73 101 134 172 208 247 302
#     4  10  20  33  53  78 101 133 171 213 255 301
#     4   9  18  33  52  75 101 128 163 207 252 299
#     4   9  18  33  52  75 101 128 163 207 252 299
#     4  10  18  32  54  77 102 137 178 211 251 313
#
# _framework density 22.860513000000001
#
# number of rings (size 3 to 8) (size 9 to 14) (size 15 to 20)
#    0.000    2.750    1.250    0.000    7.000    0.500 
#    0.000    1.250    0.000    0.000    0.000    0.000 
#    0.000    0.000    0.000    0.000    0.000    0.000 
#
# Total GULP energy -178660.626980 kJ/mol
# GULP energy per Si atom -5583.144593 kJ/mol
# Density = 2.280848 g / cm^3
# Si number density = 22.860513 Si / 1000 Ang^3
#
#
#
# Elastic Constant Matrix: (Units=GPa)
#
#
# Indices 1 2 3 4 5 6 
#
# 1 308.0558 26.0841 138.2418 0.0004 2.5007 -0.0002
# 2 26.0841 74.3754 -7.0334 -0.0005 0.7401 0.0002
# 3 138.2418 -7.0334 160.8591 0.0040 0.7865 -0.0050
# 4 0.0004 -0.0005 0.0040 22.8863 -0.0024 -0.5721
# 5 2.5007 0.7401 0.7865 -0.0024 28.9717 0.0006
# 6 -0.0002 0.0002 -0.0050 -0.5721 0.0006 -2.6469
#
#
#
# Elastic Compliance Matrix: (Units=1/GPa)
#
#
# Indices 1 2 3 4 5 6 
#
# 1 0.005707 -0.002472 -0.005011 0.000001 -0.000293 0.000009
# 2 -0.002472 0.014576 0.002763 0.000000 -0.000234 -0.000004
# 3 -0.005011 0.002763 0.010643 -0.000002 0.000073 -0.000019
# 4 0.000001 0.000000 -0.000002 0.043460 0.000004 -0.009393
# 5 -0.000293 -0.000234 0.000073 0.000004 0.034546 0.000007
# 6 0.000009 -0.000004 -0.000019 -0.009393 0.000007 -0.375772
#
#
# Mechanical properties :
#
#
# Convention : Reuss Voigt Hill
#
# Bulk Modulus (GPa) = 46.54207 95.31947 70.93077
# Shear Modulus (GPa) = -19.98093 35.57540 7.79724
#
# Velocity S-wave (km/s) = -2.95962 3.94914 1.84884
# Velocity P-wave (km/s) = 2.95368 7.91081 5.97098
#
# Compressibility (1/GPa) = 0.02148594
#
# Stress axis : x y z
#
# Youngs Moduli (GPa) = 175.23809 68.60599 93.95517
#
# Poissons Ratio (x) = 0.16961 0.47079
# Poissons Ratio (y) = 0.43324 -0.25961
# Poissons Ratio (z) = 0.87809 -0.18957
#
# Static dielectric constant tensor:
#      x y z
#    x 1.867980 0.000000 0.001390 
#    y 0.000000 1.887920 0.000000 
#    z 0.001390 0.000000 1.805810 
# 
# From -- ./inp_files/293889.got.cif
#   From: 2010.05.17/outbox.cif.g08.bks.cpg/sg15_147_cif.got.tgz:293889.got - 2010.06.03 18:47:42.
