data_PCOD9257229
_publ_section_title
;
Structure prediction by ZEFSAII (Michael W. Deem and Ramdas Pophale) SiO2 
 PCOD9257229
Probable space group: C 2/C
;
_chemical_formula_sum "Si O2"
_cell_formula_units_Z 56
_cell_length_a 30.108908
_cell_length_b 19.039471
_cell_length_c 9.926084
_cell_angle_alpha 90.000000
_cell_angle_beta 142.232248
_cell_angle_gamma 90.000000
_cell_volume 3485.034969
_symmetry_space_group_name_H-M "C 2/C"
_symmetry_group_IT_number 15
_symmetry_cell_setting 'monoclinic'
loop_
_space_group_symop_operation_xyz
x,y,z
-x,y,1/2-z
-x,-y,-z
x,-y,1/2+z
1/2+x,1/2+y,z
1/2-x,1/2+y,1/2-z
1/2-x,1/2-y,-z
1/2+x,1/2-y,1/2+z
loop_
_atom_site_type_symbol
_atom_site_label
_atom_site_fract_x
_atom_site_fract_y
_atom_site_fract_z
Si Si1 0.638075 0.043076 0.628979
Si Si2 0.192790 0.928639 0.970356
Si Si3 0.116515 0.010232 0.546180
Si Si4 0.430948 0.948269 0.829826
Si Si5 0.000000 0.897267 0.250000
Si Si6 0.575468 0.686085 0.172691
Si Si7 0.000000 0.123942 0.250000
Si Si8 0.967972 0.334947 0.526306
O O1 0.611732 0.038064 0.411542
O O2 0.589790 0.103941 0.581499
O O3 0.618821 0.971536 0.664019
O O4 0.721223 0.066100 0.835373
O O5 0.158067 0.977121 0.770997
O O6 0.153981 0.852379 0.862664
O O7 0.168218 0.959503 0.055234
O O8 0.065287 0.948872 0.363115
O O9 0.061763 0.072285 0.457203
O O10 0.466879 0.870817 0.903930
O O11 0.500000 0.000000 0.000000
O O12 0.029887 0.851670 0.444575
O O13 0.536748 0.667951 0.220321
O O14 0.570256 0.768536 0.132447
O O15 0.000000 0.314803 0.750000
#
# Coordination Sequence:
#
# PCOD9257229 Si02
#       8
#     8   8   8   8   4   8   4   8
#     4  10  19  33  51  75  99 124 156 204 251 293
#     4  10  19  29  49  73 102 130 154 194 249 299
#     4   9  17  30  46  73  96 127 161 195 238 279
#     4   9  18  34  54  73  95 120 165 212 244 279
#     4   9  16  28  52  68  93 124 168 202 221 280
#     4  10  18  31  47  72  97 130 162 196 242 289
#     4   9  18  30  46  70 101 124 160 206 233 268
#     4   9  18  33  51  70  93 127 167 203 241 281
#
# _framework density 16.068705999999999
#
# number of rings (size 3 to 8) (size 9 to 14) (size 15 to 20)
#    0.000    2.571    0.714    3.000    0.000    4.000 
#    5.143    0.000    0.000    0.000    0.000    6.000 
#    0.000    0.000    0.000    0.000    0.000    0.000 
#
# Total GULP energy -155934.512266 kJ/mol
# GULP energy per Si atom -5569.089724 kJ/mol
# Density = 1.603213 g / cm^3
# Si number density = 16.068706 Si / 1000 Ang^3
#
#
#
# Elastic Constant Matrix: (Units=GPa)
#
#
# Indices 1 2 3 4 5 6 
#
# 1 65.3167 22.9026 36.6506 0.0000 13.0292 0.0000
# 2 22.9026 70.2459 26.9811 0.0000 -2.9105 0.0000
# 3 36.6506 26.9811 85.0445 0.0000 12.8711 0.0000
# 4 0.0000 0.0000 0.0000 20.2180 0.0000 -2.2517
# 5 13.0292 -2.9105 12.8711 0.0000 22.1446 0.0000
# 6 0.0000 0.0000 0.0000 -2.2517 0.0000 12.0096
#
#
#
# Elastic Compliance Matrix: (Units=1/GPa)
#
#
# Indices 1 2 3 4 5 6 
#
# 1 0.022986 -0.005378 -0.006629 0.000000 -0.010378 0.000000
# 2 -0.005378 0.018132 -0.004687 0.000000 0.008271 0.000000
# 3 -0.006629 -0.004687 0.017110 0.000000 -0.006661 0.000000
# 4 0.000000 0.000000 0.000000 0.050516 0.000000 0.009471
# 5 -0.010378 0.008271 -0.006661 0.000000 0.056222 0.000000
# 6 0.000000 0.000000 0.000000 0.009471 0.000000 0.085042
#
#
# Mechanical properties :
#
#
# Convention : Reuss Voigt Hill
#
# Bulk Modulus (GPa) = 40.25662 43.74173 41.99918
# Shear Modulus (GPa) = 17.14235 19.81264 18.47749
#
# Velocity S-wave (km/s) = 3.26976 3.51521 3.39470
# Velocity P-wave (km/s) = 6.27394 6.61486 6.44665
#
# Compressibility (1/GPa) = 0.02484064
#
# Stress axis : x y z
#
# Youngs Moduli (GPa) = 43.50567 55.15126 58.44433
#
# Poissons Ratio (x) = 0.29660 0.38742
# Poissons Ratio (y) = 0.23397 0.27391
# Poissons Ratio (z) = 0.28840 0.25848
#
# Static dielectric constant tensor:
#      x y z
#    x 1.536680 0.000000 0.002730 
#    y 0.000000 1.543800 0.000000 
#    z 0.002730 0.000000 1.530760 
# 
# From -- ./inp_files/49184.got.cif
#   From: 2010.05.17/outbox.cif.g08.bks.cpg/sg15_25_cif.got.tgz:49184.got - 2010.06.03 18:47:42.
