data_PCOD9257472
_publ_section_title
;
Structure prediction by ZEFSAII (Michael W. Deem and Ramdas Pophale) SiO2 
 PCOD9257472
Probable space group: C 2/C
;
_chemical_formula_sum "Si O2"
_cell_formula_units_Z 48
_cell_length_a 7.216611
_cell_length_b 27.442887
_cell_length_c 14.019185
_cell_angle_alpha 90.000000
_cell_angle_beta 134.891109
_cell_angle_gamma 90.000000
_cell_volume 1966.956136
_symmetry_space_group_name_H-M "C 2/C"
_symmetry_group_IT_number 15
_symmetry_cell_setting 'monoclinic'
loop_
_space_group_symop_operation_xyz
x,y,z
-x,y,1/2-z
-x,-y,-z
x,-y,1/2+z
1/2+x,1/2+y,z
1/2-x,1/2+y,1/2-z
1/2-x,1/2-y,-z
1/2+x,1/2-y,1/2+z
loop_
_atom_site_type_symbol
_atom_site_label
_atom_site_fract_x
_atom_site_fract_y
_atom_site_fract_z
Si Si1 0.278227 0.866962 0.296222
Si Si2 0.236810 0.853151 0.711322
Si Si3 0.014025 0.303153 0.534991
Si Si4 0.592150 0.537189 0.172563
Si Si5 0.032282 0.472649 0.409451
Si Si6 0.540797 0.693458 0.550616
O O1 0.430355 0.822660 0.402007
O O2 0.439839 0.916480 0.370382
O O3 0.000000 0.874635 0.250000
O O4 0.206980 0.847752 0.165175
O O5 0.500000 0.839906 0.750000
O O6 0.297218 0.840408 0.841903
O O7 0.187862 0.909690 0.678861
O O8 0.017694 0.822322 0.578317
O O9 0.734852 0.304344 0.490583
O O10 0.131595 0.249232 0.584410
O O11 0.500000 0.540821 0.250000
O O12 0.831117 0.499837 0.266474
O O13 0.345013 0.524821 0.016401
O O14 0.000000 0.500000 0.500000
#
# Coordination Sequence:
#
# PCOD9257472 Si02
#       6
#     8   8   8   8   8   8
#     4  10  18  31  55  82 111 149 195 241 284 340
#     4  10  20  35  57  86 119 151 191 243 296 344
#     4   9  16  30  54  82 113 152 194 235 278 340
#     4  10  21  38  61  84 113 152 198 244 292 354
#     4  10  20  36  59  84 110 149 203 246 283 347
#     4   9  18  30  50  84 118 147 188 240 289 336
#
# _framework density 24.403188
#
# number of rings (size 3 to 8) (size 9 to 14) (size 15 to 20)
#    0.000    2.333    0.000    4.500    0.000    6.667 
#    0.000    4.167    0.000   11.000    0.000    0.000 
#    0.000    0.000    0.000    0.000    0.000    0.000 
#
# Total GULP energy -134222.726750 kJ/mol
# GULP energy per Si atom -5592.613615 kJ/mol
# Density = 2.434765 g / cm^3
# Si number density = 24.403188 Si / 1000 Ang^3
#
#
#
# Elastic Constant Matrix: (Units=GPa)
#
#
# Indices 1 2 3 4 5 6 
#
# 1 51.7553 2.8533 27.2672 0.0000 12.5926 0.0000
# 2 2.8533 135.8628 61.5372 0.0000 16.9137 0.0000
# 3 27.2672 61.5372 173.2523 0.0000 26.1494 0.0000
# 4 0.0000 0.0000 0.0000 35.7217 0.0000 3.1728
# 5 12.5926 16.9137 26.1494 0.0000 35.8454 0.0000
# 6 0.0000 0.0000 0.0000 3.1728 0.0000 20.4327
#
#
#
# Elastic Compliance Matrix: (Units=1/GPa)
#
#
# Indices 1 2 3 4 5 6 
#
# 1 0.022466 0.001774 -0.003201 0.000000 -0.006394 0.000000
# 2 0.001774 0.009054 -0.003097 0.000000 -0.002636 0.000000
# 3 -0.003201 -0.003097 0.007850 0.000000 -0.003141 0.000000
# 4 0.000000 0.000000 0.000000 0.028386 0.000000 -0.004408
# 5 -0.006394 -0.002636 -0.003141 0.000000 0.033679 0.000000
# 6 0.000000 0.000000 0.000000 -0.004408 0.000000 0.049626
#
#
# Mechanical properties :
#
#
# Convention : Reuss Voigt Hill
#
# Bulk Modulus (GPa) = 32.97947 60.46508 46.72228
# Shear Modulus (GPa) = 29.37453 36.34747 32.86100
#
# Velocity S-wave (km/s) = 3.47323 3.86353 3.67357
# Velocity P-wave (km/s) = 5.44317 6.68834 6.09762
#
# Compressibility (1/GPa) = 0.03032190
#
# Stress axis : x y z
#
# Youngs Moduli (GPa) = 44.51159 110.44683 127.39166
#
# Poissons Ratio (x) = -0.19593 0.40775
# Poissons Ratio (y) = -0.07896 0.39457
# Poissons Ratio (z) = 0.14247 0.34208
#
# Static dielectric constant tensor:
#      x y z
#    x 2.028960 0.000000 0.026950 
#    y 0.000000 1.844970 0.000000 
#    z 0.026950 0.000000 1.920140 
# 
# From -- ./inp_files/138995.got.cif
#   From: 2010.05.17/outbox.cif.g08.bks.cpg/sg15_70_cif.got.tgz:138995.got - 2010.06.03 18:47:42.
