data_PCOD9257256
_publ_section_title
;
Structure prediction by ZEFSAII (Michael W. Deem and Ramdas Pophale) SiO2 
 PCOD9257256
Probable space group: C 2/C
;
_chemical_formula_sum "Si O2"
_cell_formula_units_Z 48
_cell_length_a 27.173586
_cell_length_b 7.205080
_cell_length_c 20.830222
_cell_angle_alpha 90.000000
_cell_angle_beta 148.415643
_cell_angle_gamma 90.000000
_cell_volume 2136.025687
_symmetry_space_group_name_H-M "C 2/C"
_symmetry_group_IT_number 15
_symmetry_cell_setting 'monoclinic'
loop_
_space_group_symop_operation_xyz
x,y,z
-x,y,1/2-z
-x,-y,-z
x,-y,1/2+z
1/2+x,1/2+y,z
1/2-x,1/2+y,1/2-z
1/2-x,1/2-y,-z
1/2+x,1/2-y,1/2+z
loop_
_atom_site_type_symbol
_atom_site_label
_atom_site_fract_x
_atom_site_fract_y
_atom_site_fract_z
Si Si1 0.357015 0.854555 0.824134
Si Si2 0.455388 0.327818 0.989432
Si Si3 0.686649 0.081296 0.356640
Si Si4 0.778019 0.065193 0.221222
Si Si5 0.707513 0.023500 0.515590
Si Si6 0.979115 0.275370 0.656991
O O1 0.311028 0.973347 0.715164
O O2 0.320777 0.917989 0.852329
O O3 0.316087 0.645535 0.769146
O O4 0.468130 0.830914 0.939088
O O5 0.353806 0.313394 0.844139
O O6 0.500000 0.500000 0.000000
O O7 0.449713 0.343182 0.060990
O O8 0.714655 0.962490 0.449670
O O9 0.745893 0.271412 0.428254
O O10 0.578348 0.135338 0.248727
O O11 0.760641 0.099466 0.126977
O O12 0.600562 0.069764 0.418002
O O13 0.000000 0.180008 0.750000
#
# Coordination Sequence:
#
# PCOD9257256 Si02
#       6
#     8   8   8   8   8   8
#     4   9  18  31  49  71  99 131 163 202 246 292
#     4   9  17  29  45  69 102 131 158 198 247 298
#     4   8  15  28  45  70  97 122 160 206 243 278
#     4  10  18  31  49  73 101 130 164 203 247 295
#     4   9  16  27  47  71  96 126 162 205 247 283
#     4   9  16  28  47  71  95 121 162 210 243 273
#
# _framework density 22.471637999999999
#
# number of rings (size 3 to 8) (size 9 to 14) (size 15 to 20)
#    0.000    3.000    0.000    3.000    0.000    0.000 
#    0.000    7.500    0.000    1.000    0.000   18.667 
#    0.000    0.000    0.000    0.000    0.000    0.000 
#
# Total GULP energy -133661.287164 kJ/mol
# GULP energy per Si atom -5569.220298 kJ/mol
# Density = 2.242049 g / cm^3
# Si number density = 22.471638 Si / 1000 Ang^3
#
#
#
# Elastic Constant Matrix: (Units=GPa)
#
#
# Indices 1 2 3 4 5 6 
#
# 1 110.7451 10.4733 59.0523 0.0000 -47.1282 0.0000
# 2 10.4733 38.5971 30.7483 0.0002 -20.5098 0.0001
# 3 59.0523 30.7483 130.6083 0.0000 -33.0817 0.0000
# 4 0.0000 0.0002 0.0000 21.6192 0.0000 -8.7602
# 5 -47.1282 -20.5098 -33.0817 0.0000 74.7461 0.0000
# 6 0.0000 0.0001 0.0000 -8.7602 0.0000 23.4007
#
#
#
# Elastic Compliance Matrix: (Units=1/GPa)
#
#
# Indices 1 2 3 4 5 6 
#
# 1 0.015322 0.005084 -0.005996 0.000000 0.008402 0.000000
# 2 0.005084 0.036265 -0.008451 0.000000 0.009416 0.000000
# 3 -0.005996 -0.008451 0.012177 0.000000 -0.000710 0.000000
# 4 0.000000 0.000000 0.000000 0.054526 0.000000 0.020412
# 5 0.008402 0.009416 -0.000710 0.000000 0.020945 0.000000
# 6 0.000000 0.000000 0.000000 0.020412 0.000000 0.050375
#
#
# Mechanical properties :
#
#
# Convention : Reuss Voigt Hill
#
# Bulk Modulus (GPa) = 22.20405 53.38871 37.79638
# Shear Modulus (GPa) = 22.38630 35.93164 29.15897
#
# Velocity S-wave (km/s) = 3.15969 4.00306 3.60612
# Velocity P-wave (km/s) = 4.81808 6.72130 5.84764
#
# Compressibility (1/GPa) = 0.04503684
#
# Stress axis : x y z
#
# Youngs Moduli (GPa) = 65.26710 27.57451 82.11964
#
# Poissons Ratio (x) = -0.14018 0.49241
# Poissons Ratio (y) = -0.33181 0.69402
# Poissons Ratio (z) = 0.39136 0.23304
#
# Static dielectric constant tensor:
#      x y z
#    x 1.853830 0.000000 -0.031550 
#    y 0.000000 1.844740 0.000000 
#    z -0.031550 0.000000 1.887780 
# 
# From -- ./inp_files/166990.got.cif
#   From: 2010.05.17/outbox.cif.g08.bks.cpg/sg15_84_cif.got.tgz:166990.got - 2010.06.03 18:47:42.
