data_PCOD9257819
_publ_section_title
;
Structure prediction by ZEFSAII (Michael W. Deem and Ramdas Pophale) SiO2 
 PCOD9257819
Probable space group: C 2/C
;
_chemical_formula_sum "Si O2"
_cell_formula_units_Z 56
_cell_length_a 9.098148
_cell_length_b 18.208840
_cell_length_c 20.331018
_cell_angle_alpha 90.000000
_cell_angle_beta 60.709150
_cell_angle_gamma 90.000000
_cell_volume 2937.543453
_symmetry_space_group_name_H-M "C 2/C"
_symmetry_group_IT_number 15
_symmetry_cell_setting 'monoclinic'
loop_
_space_group_symop_operation_xyz
x,y,z
-x,y,1/2-z
-x,-y,-z
x,-y,1/2+z
1/2+x,1/2+y,z
1/2-x,1/2+y,1/2-z
1/2-x,1/2-y,-z
1/2+x,1/2-y,1/2+z
loop_
_atom_site_type_symbol
_atom_site_label
_atom_site_fract_x
_atom_site_fract_y
_atom_site_fract_z
Si Si1 0.274616 0.708344 0.323949
Si Si2 0.722689 0.280905 0.914375
Si Si3 0.086668 0.099736 0.534445
Si Si4 0.422812 0.643866 0.177286
Si Si5 0.163122 0.061759 0.031156
Si Si6 0.538654 0.682019 0.816579
Si Si7 0.385583 0.194577 0.004508
O O1 0.305824 0.639645 0.267486
O O2 0.448557 0.708736 0.327616
O O3 0.215793 0.777486 0.293211
O O4 0.139988 0.699887 0.411442
O O5 0.689192 0.332680 0.859108
O O6 0.899045 0.243242 0.864265
O O7 0.696768 0.332076 0.983871
O O8 0.570998 0.221736 0.946714
O O9 0.946943 0.086213 0.508249
O O10 0.994657 0.119510 0.622386
O O11 0.189525 0.024752 0.520282
O O12 0.547344 0.582111 0.120483
O O13 0.326630 0.113226 0.997653
O O14 0.500000 0.660081 0.750000
O O15 0.250000 0.250000 0.000000
#
# Coordination Sequence:
#
# PCOD9257819 Si02
#       7
#     8   8   8   8   8   8   8
#     4  10  18  32  54  80 108 141 184 234 279 320
#     4  11  20  34  58  84 111 140 194 234 279 339
#     4  10  20  36  56  83 114 150 183 236 292 344
#     4   9  18  33  56  83 102 141 190 233 271 329
#     4   9  19  36  60  83 109 145 194 239 284 335
#     4  12  23  35  52  84 120 150 179 233 290 343
#     4  11  17  33  58  84 103 139 196 236 265 329
#
# _framework density 19.063547
#
# number of rings (size 3 to 8) (size 9 to 14) (size 15 to 20)
#    0.000    1.714    7.143    0.429    0.000    0.000 
#    5.143    0.714    0.000    0.000    0.000    0.000 
#    0.000    0.000    0.000    0.000    0.000    0.000 
#
# Total GULP energy -155924.001130 kJ/mol
# GULP energy per Si atom -5568.714326 kJ/mol
# Density = 1.902016 g / cm^3
# Si number density = 19.063547 Si / 1000 Ang^3
#
#
#
# Elastic Constant Matrix: (Units=GPa)
#
#
# Indices 1 2 3 4 5 6 
#
# 1 54.7742 16.7732 12.2553 0.0000 9.3099 0.0000
# 2 16.7732 83.4410 15.7787 0.0000 0.9970 0.0000
# 3 12.2553 15.7787 103.4030 0.0000 26.1015 0.0000
# 4 0.0000 0.0000 0.0000 19.1496 0.0000 1.8611
# 5 9.3099 0.9970 26.1015 0.0000 34.2815 0.0000
# 6 0.0000 0.0000 0.0000 1.8611 0.0000 17.8259
#
#
#
# Elastic Compliance Matrix: (Units=1/GPa)
#
#
# Indices 1 2 3 4 5 6 
#
# 1 0.020441 -0.003944 -0.000555 0.000000 -0.005014 0.000000
# 2 -0.003944 0.013151 -0.002121 0.000000 0.002303 0.000000
# 3 -0.000555 -0.002121 0.012387 0.000000 -0.009219 0.000000
# 4 0.000000 0.000000 0.000000 0.052756 0.000000 -0.005508
# 5 -0.005014 0.002303 -0.009219 0.000000 0.037484 0.000000
# 6 0.000000 0.000000 0.000000 -0.005508 0.000000 0.056673
#
#
# Mechanical properties :
#
#
# Convention : Reuss Voigt Hill
#
# Bulk Modulus (GPa) = 30.54440 36.80364 33.67402
# Shear Modulus (GPa) = 23.03663 27.37212 25.20437
#
# Velocity S-wave (km/s) = 3.47999 3.79335 3.64005
# Velocity P-wave (km/s) = 5.67489 6.20755 5.94719
#
# Compressibility (1/GPa) = 0.03273922
#
# Stress axis : x y z
#
# Youngs Moduli (GPa) = 48.92133 76.04066 80.72673
#
# Poissons Ratio (x) = 0.29991 0.04482
# Poissons Ratio (y) = 0.19295 0.17120
# Poissons Ratio (z) = 0.02716 0.16126
#
# Static dielectric constant tensor:
#      x y z
#    x 1.704550 0.000000 -0.002130 
#    y 0.000000 1.669440 0.000000 
#    z -0.002130 0.000000 1.735680 
# 
# From -- ./inp_files/232584.got.cif
#   From: 2010.05.17/outbox.cif.g08.bks.cpg/sg15_117_cif.got.tgz:232584.got - 2010.06.03 18:47:42.
