data_PCOD9257367
_publ_section_title
;
Structure prediction by ZEFSAII (Michael W. Deem and Ramdas Pophale) SiO2 
 PCOD9257367
Probable space group: C 2/C
;
_chemical_formula_sum "Si O2"
_cell_formula_units_Z 48
_cell_length_a 21.564192
_cell_length_b 25.407276
_cell_length_c 9.160269
_cell_angle_alpha 90.000000
_cell_angle_beta 31.872235
_cell_angle_gamma 90.000000
_cell_volume 2650.059013
_symmetry_space_group_name_H-M "C 2/C"
_symmetry_group_IT_number 15
_symmetry_cell_setting 'monoclinic'
loop_
_space_group_symop_operation_xyz
x,y,z
-x,y,1/2-z
-x,-y,-z
x,-y,1/2+z
1/2+x,1/2+y,z
1/2-x,1/2+y,1/2-z
1/2-x,1/2-y,-z
1/2+x,1/2-y,1/2+z
loop_
_atom_site_type_symbol
_atom_site_label
_atom_site_fract_x
_atom_site_fract_y
_atom_site_fract_z
Si Si1 0.864331 0.835492 0.494933
Si Si2 0.448860 0.072143 0.592872
Si Si3 0.500000 0.193381 0.750000
Si Si4 0.319183 0.816733 0.389185
Si Si5 0.172542 0.367641 0.687288
Si Si6 0.637635 0.215806 0.008185
Si Si7 0.000000 0.496992 0.250000
O O1 0.796830 0.873901 0.518343
O O2 0.854210 0.775625 0.452343
O O3 0.000000 0.847550 0.250000
O O4 0.793445 0.830815 0.788872
O O5 0.382519 0.127402 0.725748
O O6 0.589666 0.084344 0.305470
O O7 0.423953 0.034759 0.506234
O O8 0.429095 0.040831 0.782323
O O9 0.584472 0.216306 0.707073
O O10 0.593197 0.159461 0.472236
O O11 0.298861 0.789618 0.274835
O O12 0.180735 0.326837 0.537540
O O13 0.500000 0.205470 0.250000
#
# Coordination Sequence:
#
# PCOD9257367 Si02
#       7
#     8   8   4   8   8   8   4
#     4  10  22  33  47  69 102 137 187 216 230 283
#     4  10  18  31  52  78 106 128 156 202 276 319
#     4   8  15  26  48  68  86 124 168 192 250 308
#     4  10  18  33  50  71 101 141 166 203 266 307
#     4  10  18  33  50  71 101 141 166 203 266 307
#     4  11  18  30  51  76 101 129 183 215 248 293
#     4  10  19  28  48  88 108 114 154 212 260 342
#
# _framework density 18.112805000000002
#
# number of rings (size 3 to 8) (size 9 to 14) (size 15 to 20)
#    0.000    2.000    3.333    5.000    0.000    0.000 
#    0.000    0.833    0.000    0.000    0.000   18.667 
#    0.000    0.000    0.000    0.000    0.000    0.000 
#
# Total GULP energy -133692.559970 kJ/mol
# GULP energy per Si atom -5570.523332 kJ/mol
# Density = 1.807158 g / cm^3
# Si number density = 18.112805 Si / 1000 Ang^3
#
#
#
# Elastic Constant Matrix: (Units=GPa)
#
#
# Indices 1 2 3 4 5 6 
#
# 1 73.1641 19.8348 27.0978 -0.0001 5.0645 0.0000
# 2 19.8348 54.9312 2.6785 0.0000 -5.6254 0.0000
# 3 27.0978 2.6785 63.0415 -0.0001 -11.5346 0.0000
# 4 -0.0001 0.0000 -0.0001 9.9739 0.0001 6.3352
# 5 5.0645 -5.6254 -11.5346 0.0001 34.3806 0.0000
# 6 0.0000 0.0000 0.0000 6.3352 0.0000 22.7635
#
#
#
# Elastic Compliance Matrix: (Units=1/GPa)
#
#
# Indices 1 2 3 4 5 6 
#
# 1 0.019689 -0.007394 -0.009483 0.000000 -0.007292 0.000000
# 2 -0.007394 0.021295 0.003314 0.000000 0.005685 0.000000
# 3 -0.009483 0.003314 0.021471 0.000000 0.009143 0.000000
# 4 0.000000 0.000000 0.000000 0.121792 0.000000 -0.033895
# 5 -0.007292 0.005685 0.009143 0.000000 0.034158 0.000000
# 6 0.000000 0.000000 0.000000 -0.033895 0.000000 0.053363
#
#
# Mechanical properties :
#
#
# Convention : Reuss Voigt Hill
#
# Bulk Modulus (GPa) = 28.30602 32.26212 30.28407
# Shear Modulus (GPa) = 16.09416 22.85863 19.47640
#
# Velocity S-wave (km/s) = 2.98409 3.55634 3.28271
# Velocity P-wave (km/s) = 5.24735 5.89185 5.57891
#
# Compressibility (1/GPa) = 0.03532817
#
# Stress axis : x y z
#
# Youngs Moduli (GPa) = 50.78857 46.95930 46.57468
#
# Poissons Ratio (x) = 0.34721 0.44168
# Poissons Ratio (y) = 0.37553 -0.15433
# Poissons Ratio (z) = 0.48165 -0.15560
#
# Static dielectric constant tensor:
#      x y z
#    x 1.688650 0.000000 0.002550 
#    y 0.000000 1.644420 0.000000 
#    z 0.002550 0.000000 1.648100 
# 
# From -- ./inp_files/59089.got.cif
#   From: 2010.05.17/outbox.cif.g08.bks.cpg/sg15_30_cif.got.tgz:59089.got - 2010.06.03 18:47:42.
