data_PCOD9257969
_publ_section_title
;
Structure prediction by ZEFSAII (Michael W. Deem and Ramdas Pophale) SiO2 
 PCOD9257969
Probable space group: C 2/C
;
_chemical_formula_sum "Si O2"
_cell_formula_units_Z 48
_cell_length_a 10.396992
_cell_length_b 17.968939
_cell_length_c 15.141247
_cell_angle_alpha 90.000000
_cell_angle_beta 66.961239
_cell_angle_gamma 90.000000
_cell_volume 2603.113123
_symmetry_space_group_name_H-M "C 2/C"
_symmetry_group_IT_number 15
_symmetry_cell_setting 'monoclinic'
loop_
_space_group_symop_operation_xyz
x,y,z
-x,y,1/2-z
-x,-y,-z
x,-y,1/2+z
1/2+x,1/2+y,z
1/2-x,1/2+y,1/2-z
1/2-x,1/2-y,-z
1/2+x,1/2-y,1/2+z
loop_
_atom_site_type_symbol
_atom_site_label
_atom_site_fract_x
_atom_site_fract_y
_atom_site_fract_z
Si Si1 0.164675 0.009490 0.721918
Si Si2 0.976634 0.127304 0.033658
Si Si3 0.692292 0.498312 0.022492
Si Si4 0.648232 0.335263 0.757178
Si Si5 0.277157 0.723002 0.592979
Si Si6 0.348638 0.071738 0.827165
O O1 0.237759 0.021915 0.608346
O O2 0.231755 0.053565 0.784598
O O3 0.000000 0.025623 0.750000
O O4 0.181409 0.922329 0.738055
O O5 0.884091 0.171772 0.129882
O O6 0.886649 0.071693 0.998623
O O7 0.084247 0.069448 0.054656
O O8 0.072488 0.182835 0.951858
O O9 0.810910 0.524513 0.923771
O O10 0.500000 0.320474 0.750000
O O11 0.757331 0.285301 0.673447
O O12 0.250000 0.750000 0.500000
O O13 0.166782 0.658026 0.644353
O O14 0.500000 0.053793 0.750000
#
# Coordination Sequence:
#
# PCOD9257969 Si02
#       6
#     8   8   8   8   8   8
#     4  11  19  36  64  87 112 153 199 238 282 346
#     4  10  18  32  56  86 112 146 195 241 277 342
#     4  10  18  35  58  83 112 148 198 237 280 341
#     4  11  17  31  54  86 115 145 190 240 292 334
#     4  11  21  32  54  86 119 149 187 244 295 338
#     4  11  24  37  56  92 123 148 192 245 294 340
#
# _framework density 18.439461000000001
#
# number of rings (size 3 to 8) (size 9 to 14) (size 15 to 20)
#    0.000    1.333    6.667    3.500    0.000    0.667 
#    0.000    0.000    0.000    4.000    4.333    0.000 
#    0.000    0.000    0.000    0.000    0.000    0.000 
#
# Total GULP energy -133896.879398 kJ/mol
# GULP energy per Si atom -5579.036642 kJ/mol
# Density = 1.839749 g / cm^3
# Si number density = 18.439461 Si / 1000 Ang^3
#
#
#
# Elastic Constant Matrix: (Units=GPa)
#
#
# Indices 1 2 3 4 5 6 
#
# 1 29.6317 22.9243 25.7618 0.0000 -13.2439 0.0000
# 2 22.9243 74.4527 38.6221 0.0000 -10.8138 0.0000
# 3 25.7618 38.6221 147.0381 0.0000 -17.7820 0.0000
# 4 0.0000 0.0000 0.0000 31.6394 0.0000 -5.6599
# 5 -13.2439 -10.8138 -17.7820 0.0000 21.8307 0.0000
# 6 0.0000 0.0000 0.0000 -5.6599 0.0000 10.1886
#
#
#
# Elastic Compliance Matrix: (Units=1/GPa)
#
#
# Indices 1 2 3 4 5 6 
#
# 1 0.058145 -0.012112 -0.003844 0.000000 0.026144 0.000000
# 2 -0.012112 0.018551 -0.002804 0.000000 -0.000443 0.000000
# 3 -0.003844 -0.002804 0.008609 0.000000 0.003291 0.000000
# 4 0.000000 0.000000 0.000000 0.035093 0.000000 0.019495
# 5 0.026144 -0.000443 0.003291 0.000000 0.064129 0.000000
# 6 0.000000 0.000000 0.000000 0.019495 0.000000 0.108979
#
#
# Mechanical properties :
#
#
# Convention : Reuss Voigt Hill
#
# Bulk Modulus (GPa) = 20.92726 47.30433 34.11579
# Shear Modulus (GPa) = 14.41112 23.65270 19.03191
#
# Velocity S-wave (km/s) = 2.79863 3.58540 3.21616
# Velocity P-wave (km/s) = 4.67086 6.54596 5.68624
#
# Compressibility (1/GPa) = 0.04778456
#
# Stress axis : x y z
#
# Youngs Moduli (GPa) = 17.19844 53.90545 116.15623
#
# Poissons Ratio (x) = 0.65289 0.44653
# Poissons Ratio (y) = 0.20830 0.32573
# Poissons Ratio (z) = 0.06612 0.15116
#
# Static dielectric constant tensor:
#      x y z
#    x 1.627470 0.000000 -0.020240 
#    y 0.000000 1.642420 0.000000 
#    z -0.020240 0.000000 1.689710 
# 
# From -- ./inp_files/143463.got.cif
#   From: 2010.05.17/outbox.cif.g08.bks.cpg/sg15_72_cif.got.tgz:143463.got - 2010.06.03 18:47:42.
