data_PCOD9257877
_publ_section_title
;
Structure prediction by ZEFSAII (Michael W. Deem and Ramdas Pophale) SiO2 
 PCOD9257877
Probable space group: C 2/C
;
_chemical_formula_sum "Si O2"
_cell_formula_units_Z 64
_cell_length_a 24.740606
_cell_length_b 17.550852
_cell_length_c 15.220639
_cell_angle_alpha 90.000000
_cell_angle_beta 151.024967
_cell_angle_gamma 90.000000
_cell_volume 3201.629452
_symmetry_space_group_name_H-M "C 2/C"
_symmetry_group_IT_number 15
_symmetry_cell_setting 'monoclinic'
loop_
_space_group_symop_operation_xyz
x,y,z
-x,y,1/2-z
-x,-y,-z
x,-y,1/2+z
1/2+x,1/2+y,z
1/2-x,1/2+y,1/2-z
1/2-x,1/2-y,-z
1/2+x,1/2-y,1/2+z
loop_
_atom_site_type_symbol
_atom_site_label
_atom_site_fract_x
_atom_site_fract_y
_atom_site_fract_z
Si Si1 0.125422 0.847893 0.923432
Si Si2 0.390764 0.295468 0.790297
Si Si3 0.321281 0.192759 0.402419
Si Si4 0.385823 0.724862 0.823061
Si Si5 0.685341 0.112595 0.510280
Si Si6 0.503596 0.857748 0.616770
Si Si7 0.137211 0.385311 0.243323
Si Si8 0.376539 0.956510 0.084809
O O1 0.151283 0.834830 0.857480
O O2 0.000000 0.880082 0.750000
O O3 0.126067 0.764859 0.970469
O O4 0.236509 0.889843 0.116122
O O5 0.307326 0.310211 0.751242
O O6 0.386404 0.204263 0.769142
O O7 0.516671 0.320229 0.987466
O O8 0.337480 0.213603 0.324062
O O9 0.371844 0.115126 0.512100
O O10 0.290036 0.668656 0.654869
O O11 0.455757 0.773164 0.852051
O O12 0.599734 0.143600 0.462550
O O13 0.614241 0.110058 0.319304
O O14 0.709043 0.023522 0.561922
O O15 0.455120 0.901398 0.462502
O O16 0.133253 0.429652 0.328707
O O17 0.500000 0.990615 0.250000
#
# Coordination Sequence:
#
# PCOD9257877 Si02
#       8
#     8   8   8   8   8   8   8   8
#     4  11  17  30  54  90 124 153 197 245 304 350
#     4  10  18  32  54  90 121 150 205 242 297 351
#     4  11  20  34  60  93 124 158 197 250 309 367
#     4  11  21  37  64  85 115 164 214 246 292 356
#     4  11  24  43  58  88 123 160 204 255 308 351
#     4  10  22  42  59  85 115 162 209 252 292 355
#     4  10  20  34  59  90 120 158 198 250 295 368
#     4  12  21  37  59  89 132 156 188 252 322 367
#
# _framework density 19.989820999999999
#
# number of rings (size 3 to 8) (size 9 to 14) (size 15 to 20)
#    0.000    1.250    5.000    5.250    0.000    0.500 
#    2.250    0.625    0.000    0.000    6.500    0.000 
#    0.000    0.000    0.000    0.000    0.000    0.000 
#
# Total GULP energy -178477.330205 kJ/mol
# GULP energy per Si atom -5577.416569 kJ/mol
# Density = 1.994432 g / cm^3
# Si number density = 19.989821 Si / 1000 Ang^3
#
#
#
# Elastic Constant Matrix: (Units=GPa)
#
#
# Indices 1 2 3 4 5 6 
#
# 1 61.7896 20.9916 34.2296 0.0000 7.0994 0.0000
# 2 20.9916 65.8304 34.6805 0.0000 0.0439 0.0000
# 3 34.2296 34.6805 120.3924 0.0000 12.2112 0.0000
# 4 0.0000 0.0000 0.0000 15.7973 0.0000 7.6766
# 5 7.0994 0.0439 12.2112 0.0000 28.1373 0.0000
# 6 0.0000 0.0000 0.0000 7.6766 0.0000 14.9783
#
#
#
# Elastic Compliance Matrix: (Units=1/GPa)
#
#
# Indices 1 2 3 4 5 6 
#
# 1 0.020350 -0.004262 -0.004224 0.000000 -0.003295 0.000000
# 2 -0.004262 0.018946 -0.004552 0.000000 0.003021 0.000000
# 3 -0.004224 -0.004552 0.011203 0.000000 -0.003789 0.000000
# 4 0.000000 0.000000 0.000000 0.084296 0.000000 -0.043203
# 5 -0.003295 0.003021 -0.003789 0.000000 0.038011 0.000000
# 6 0.000000 0.000000 0.000000 -0.043203 0.000000 0.088906
#
#
# Mechanical properties :
#
#
# Convention : Reuss Voigt Hill
#
# Bulk Modulus (GPa) = 40.94563 47.53510 44.24037
# Shear Modulus (GPa) = 16.89594 22.32329 19.60961
#
# Velocity S-wave (km/s) = 2.91043 3.34538 3.13546
# Velocity P-wave (km/s) = 5.64109 6.22522 5.94034
#
# Compressibility (1/GPa) = 0.02442263
#
# Stress axis : x y z
#
# Youngs Moduli (GPa) = 49.13921 52.78243 89.26308
#
# Poissons Ratio (x) = 0.22494 0.37706
# Poissons Ratio (y) = 0.20941 0.40636
# Poissons Ratio (z) = 0.20757 0.24028
#
# Static dielectric constant tensor:
#      x y z
#    x 1.770280 0.000000 -0.013250 
#    y 0.000000 1.721710 0.000000 
#    z -0.013250 0.000000 1.763720 
# 
# From -- ./inp_files/174239.got.cif
#   From: 2010.05.17/outbox.cif.g08.bks.cpg/sg15_88_cif.got.tgz:174239.got - 2010.06.03 18:47:42.
