data_PCOD9257574
_publ_section_title
;
Structure prediction by ZEFSAII (Michael W. Deem and Ramdas Pophale) SiO2 
 PCOD9257574
Probable space group: C 2/C
;
_chemical_formula_sum "Si O2"
_cell_formula_units_Z 60
_cell_length_a 16.187775
_cell_length_b 21.586124
_cell_length_c 18.454935
_cell_angle_alpha 90.000000
_cell_angle_beta 34.077932
_cell_angle_gamma 90.000000
_cell_volume 3613.353780
_symmetry_space_group_name_H-M "C 2/C"
_symmetry_group_IT_number 15
_symmetry_cell_setting 'monoclinic'
loop_
_space_group_symop_operation_xyz
x,y,z
-x,y,1/2-z
-x,-y,-z
x,-y,1/2+z
1/2+x,1/2+y,z
1/2-x,1/2+y,1/2-z
1/2-x,1/2-y,-z
1/2+x,1/2-y,1/2+z
loop_
_atom_site_type_symbol
_atom_site_label
_atom_site_fract_x
_atom_site_fract_y
_atom_site_fract_z
Si Si1 0.615264 0.995653 0.850359
Si Si2 0.095891 0.982160 0.037656
Si Si3 0.834988 0.186651 0.369272
Si Si4 0.663680 0.444639 0.708411
Si Si5 0.854369 0.081568 0.625250
Si Si6 0.733543 0.685154 0.911249
Si Si7 0.143826 0.499669 0.558322
Si Si8 0.500000 0.109815 0.750000
O O1 0.699237 0.061170 0.775300
O O2 0.513791 0.975515 0.856279
O O3 0.746168 0.950621 0.781645
O O4 0.500000 0.000000 0.000000
O O5 0.995219 0.024871 0.163520
O O6 0.134298 0.028153 0.944066
O O7 0.247141 0.963378 0.967107
O O8 0.987516 0.929760 0.084704
O O9 0.839249 0.124410 0.319660
O O10 0.735046 0.240565 0.407279
O O11 0.797931 0.173446 0.480320
O O12 0.000000 0.212915 0.250000
O O13 0.755856 0.484478 0.583741
O O14 0.861992 0.146286 0.576654
O O15 0.893370 0.654047 0.782318
O O16 0.099197 0.563667 0.630297
#
# Coordination Sequence:
#
# PCOD9257574 Si02
#       8
#     8   8   8   8   8   8   8   4
#     4   9  19  29  46  66  90 124 157 194 247 291
#     4  10  19  28  48  66  90 125 154 196 246 283
#     4  11  21  31  47  69  95 131 170 191 230 285
#     4  10  19  31  43  66  96 124 154 201 238 282
#     4  10  18  32  44  66  94 124 158 195 241 291
#     4  11  21  32  46  68  97 134 161 196 232 289
#     4  11  17  29  47  66  91 124 159 195 242 292
#     4  12  18  30  46  66  94 128 158 194 238 278
#
# _framework density 16.605073000000001
#
# number of rings (size 3 to 8) (size 9 to 14) (size 15 to 20)
#    0.000    1.600    4.667    2.000    0.000    0.000 
#    0.000    0.000    0.000    0.000    0.000    0.933 
#    0.000    0.000   34.133    0.000    0.000   28.400 
#
# Total GULP energy -167002.953776 kJ/mol
# GULP energy per Si atom -5566.765126 kJ/mol
# Density = 1.656728 g / cm^3
# Si number density = 16.605073 Si / 1000 Ang^3
#
#
#
# Elastic Constant Matrix: (Units=GPa)
#
#
# Indices 1 2 3 4 5 6 
#
# 1 123.6485 36.6260 6.1664 0.0033 -20.8347 0.0001
# 2 36.6260 66.1943 8.2149 0.0038 8.3239 0.0005
# 3 6.1664 8.2149 58.8134 0.0097 4.1826 -0.0008
# 4 0.0033 0.0038 0.0097 -0.3609 -0.0050 -0.5638
# 5 -20.8347 8.3239 4.1826 -0.0050 24.8860 0.0001
# 6 0.0001 0.0005 -0.0008 -0.5638 0.0001 28.5489
#
#
#
# Elastic Compliance Matrix: (Units=1/GPa)
#
#
# Indices 1 2 3 4 5 6 
#
# 1 0.013192 -0.008947 -0.001145 -0.000199 0.014230 -0.000004
# 2 -0.008947 0.022039 -0.001097 0.000319 -0.014677 0.000006
# 3 -0.001145 -0.001097 0.017528 0.000485 -0.003538 0.000010
# 4 -0.000199 0.000319 0.000485 -2.688129 -0.000898 -0.053084
# 5 0.014230 -0.014677 -0.003538 -0.000898 0.057600 -0.000018
# 6 -0.000004 0.000006 0.000010 -0.053084 -0.000018 0.033979
#
#
# Mechanical properties :
#
#
# Convention : Reuss Voigt Hill
#
# Bulk Modulus (GPa) = 32.91451 38.96343 35.93897
# Shear Modulus (GPa) = -1.99101 23.79140 10.90019
#
# Velocity S-wave (km/s) = -1.09619 3.78931 2.56488
# Velocity P-wave (km/s) = 4.27350 6.53153 5.51923
#
# Compressibility (1/GPa) = 0.03038174
#
# Stress axis : x y z
#
# Youngs Moduli (GPa) = 75.80158 45.37403 57.05242
#
# Poissons Ratio (x) = 0.40595 0.06535
# Poissons Ratio (y) = 0.67817 0.06256
# Poissons Ratio (z) = 0.08683 0.04976
#
# Static dielectric constant tensor:
#      x y z
#    x 1.640950 0.000000 -0.002850 
#    y 0.000000 1.555570 0.000000 
#    z -0.002850 0.000000 1.663770 
# 
# From -- ./inp_files/206710.got.cif
#   From: 2010.05.17/outbox.cif.g08.bks.cpg/sg15_104_cif.got.tgz:206710.got - 2010.06.03 18:47:42.
