data_PCOD9257673
_publ_section_title
;
Structure prediction by ZEFSAII (Michael W. Deem and Ramdas Pophale) SiO2 
 PCOD9257673
Probable space group: C 2/C
;
_chemical_formula_sum "Si O2"
_cell_formula_units_Z 48
_cell_length_a 24.958707
_cell_length_b 10.749466
_cell_length_c 19.566289
_cell_angle_alpha 90.000000
_cell_angle_beta 151.408452
_cell_angle_gamma 90.000000
_cell_volume 2512.210077
_symmetry_space_group_name_H-M "C 2/C"
_symmetry_group_IT_number 15
_symmetry_cell_setting 'monoclinic'
loop_
_space_group_symop_operation_xyz
x,y,z
-x,y,1/2-z
-x,-y,-z
x,-y,1/2+z
1/2+x,1/2+y,z
1/2-x,1/2+y,1/2-z
1/2-x,1/2-y,-z
1/2+x,1/2-y,1/2+z
loop_
_atom_site_type_symbol
_atom_site_label
_atom_site_fract_x
_atom_site_fract_y
_atom_site_fract_z
Si Si1 0.322984 0.448560 0.312645
Si Si2 0.479244 0.154904 0.346190
Si Si3 0.458794 0.302284 0.944217
Si Si4 0.893495 0.452429 0.335960
Si Si5 0.619686 0.641174 0.867466
Si Si6 0.708463 0.138968 0.547736
O O1 0.426535 0.364408 0.452954
O O2 0.370955 0.586023 0.352679
O O3 0.219899 0.458162 0.248313
O O4 0.280884 0.382461 0.196333
O O5 0.520491 0.237242 0.457970
O O6 0.423193 0.248033 0.230465
O O7 0.585950 0.089177 0.430355
O O8 0.395211 0.048652 0.276408
O O9 0.417633 0.191819 0.849672
O O10 0.000000 0.500000 0.500000
O O11 0.500000 0.575280 0.750000
O O12 0.719045 0.582531 0.933495
O O13 0.676532 0.717300 0.993314
#
# Coordination Sequence:
#
# PCOD9257673 Si02
#       6
#     8   8   8   8   8   8
#     4  11  21  33  52  78 114 145 174 228 275 326
#     4  10  19  33  52  77 108 139 181 219 266 328
#     4  10  22  33  48  80 111 144 177 217 273 327
#     4  10  21  32  54  77 105 149 181 218 270 332
#     4   9  19  32  52  77 104 137 179 224 273 313
#     4  10  18  32  51  76 104 140 170 227 266 320
#
# _framework density 19.106681999999999
#
# number of rings (size 3 to 8) (size 9 to 14) (size 15 to 20)
#    0.000    2.000    5.000    0.000    7.000    0.000 
#    0.000    0.000    0.000    1.000    0.000    3.500 
#    0.000    0.000    0.000    0.000    0.000    0.000 
#
# Total GULP energy -133668.023907 kJ/mol
# GULP energy per Si atom -5569.500996 kJ/mol
# Density = 1.906319 g / cm^3
# Si number density = 19.106682 Si / 1000 Ang^3
#
#
#
# Elastic Constant Matrix: (Units=GPa)
#
#
# Indices 1 2 3 4 5 6 
#
# 1 112.7587 19.5915 25.2481 0.0000 38.8099 0.0000
# 2 19.5915 60.4436 27.2962 0.0000 5.7038 0.0000
# 3 25.2481 27.2962 61.4500 0.0000 20.0560 0.0000
# 4 0.0000 0.0000 0.0000 8.4897 0.0000 1.1568
# 5 38.8099 5.7038 20.0560 0.0000 42.5779 0.0000
# 6 0.0000 0.0000 0.0000 1.1568 0.0000 14.2515
#
#
#
# Elastic Compliance Matrix: (Units=1/GPa)
#
#
# Indices 1 2 3 4 5 6 
#
# 1 0.013534 -0.003126 -0.000334 0.000000 -0.011760 0.000000
# 2 -0.003126 0.021541 -0.009775 0.000000 0.004568 0.000000
# 3 -0.000334 -0.009775 0.023900 0.000000 -0.009644 0.000000
# 4 0.000000 0.000000 0.000000 0.119107 0.000000 -0.009668
# 5 -0.011760 0.004568 -0.009644 0.000000 0.038137 0.000000
# 6 0.000000 0.000000 0.000000 -0.009668 0.000000 0.070953
#
#
# Mechanical properties :
#
#
# Convention : Reuss Voigt Hill
#
# Bulk Modulus (GPa) = 30.76428 42.10267 36.43348
# Shear Modulus (GPa) = 15.40938 23.89826 19.65382
#
# Velocity S-wave (km/s) = 2.84296 3.54047 3.21072
# Velocity P-wave (km/s) = 5.18776 6.22870 5.73191
#
# Compressibility (1/GPa) = 0.03250523
#
# Stress axis : x y z
#
# Youngs Moduli (GPa) = 73.88691 46.42318 41.84047
#
# Poissons Ratio (x) = 0.14513 0.01396
# Poissons Ratio (y) = 0.23099 0.40899
# Poissons Ratio (z) = 0.02466 0.45379
#
# Static dielectric constant tensor:
#      x y z
#    x 1.748420 0.000000 0.021770 
#    y 0.000000 1.656580 0.000000 
#    z 0.021770 0.000000 1.747430 
# 
# From -- ./inp_files/257339.got.cif
#   From: 2010.05.17/outbox.cif.g08.bks.cpg/sg15_129_cif.got.tgz:257339.got - 2010.06.03 18:47:42.
