data_PCOD9257250
_publ_section_title
;
Structure prediction by ZEFSAII (Michael W. Deem and Ramdas Pophale) SiO2 
 PCOD9257250
Probable space group: C 2/C
;
_chemical_formula_sum "Si O2"
_cell_formula_units_Z 60
_cell_length_a 24.269739
_cell_length_b 13.253566
_cell_length_c 10.649733
_cell_angle_alpha 90.000000
_cell_angle_beta 70.225984
_cell_angle_gamma 90.000000
_cell_volume 3223.606482
_symmetry_space_group_name_H-M "C 2/C"
_symmetry_group_IT_number 15
_symmetry_cell_setting 'monoclinic'
loop_
_space_group_symop_operation_xyz
x,y,z
-x,y,1/2-z
-x,-y,-z
x,-y,1/2+z
1/2+x,1/2+y,z
1/2-x,1/2+y,1/2-z
1/2-x,1/2-y,-z
1/2+x,1/2-y,1/2+z
loop_
_atom_site_type_symbol
_atom_site_label
_atom_site_fract_x
_atom_site_fract_y
_atom_site_fract_z
Si Si1 0.627857 0.105765 0.414921
Si Si2 0.000000 0.447655 0.750000
Si Si3 0.736686 0.388546 0.597705
Si Si4 0.659260 0.188887 0.122727
Si Si5 0.929926 0.383000 0.017334
Si Si6 0.590636 0.875512 0.204949
Si Si7 0.729344 0.611655 0.586327
Si Si8 0.716385 0.823069 0.193467
O O1 0.696549 0.096614 0.403148
O O2 0.630288 0.158939 0.277739
O O3 0.597078 0.163579 0.556952
O O4 0.596949 0.995631 0.436720
O O5 0.011511 0.390038 0.611566
O O6 0.055931 0.520257 0.716423
O O7 0.708061 0.497858 0.616738
O O8 0.707947 0.297806 0.697876
O O9 0.739120 0.348916 0.452707
O O10 0.616465 0.168784 0.039363
O O11 0.680832 0.303912 0.101062
O O12 0.718524 0.122485 0.056409
O O13 0.939327 0.331258 0.145794
O O14 0.657249 0.879722 0.201359
O O15 0.759709 0.642401 0.693302
#
# Coordination Sequence:
#
# PCOD9257250 Si02
#       8
#     8   4   8   8   8   8   8   8
#     4  10  18  31  49  71 104 145 177 215 264 320
#     4  10  22  34  56  82 104 140 186 228 290 330
#     4  10  20  32  52  72 108 150 186 220 263 327
#     4  11  22  32  49  78 112 145 186 224 270 323
#     4  11  20  35  54  78 110 143 178 227 278 331
#     4  10  20  34  51  72 103 137 180 225 264 327
#     4  11  22  32  51  78 111 150 186 221 269 328
#     4  10  20  36  51  76 108 149 188 220 268 325
#
# _framework density 18.612694000000001
#
# number of rings (size 3 to 8) (size 9 to 14) (size 15 to 20)
#    0.000    1.600    4.000    2.000    3.733    1.067 
#    0.000    0.000    0.000    0.000    0.000    0.933 
#    0.000    6.400    0.000    0.000    0.000    0.000 
#
# Total GULP energy -167201.060155 kJ/mol
# GULP energy per Si atom -5573.368672 kJ/mol
# Density = 1.857033 g / cm^3
# Si number density = 18.612694 Si / 1000 Ang^3
#
#
#
# Elastic Constant Matrix: (Units=GPa)
#
#
# Indices 1 2 3 4 5 6 
#
# 1 35.2126 26.9038 15.8570 0.0000 -0.1183 0.0000
# 2 26.9038 95.8759 33.4048 0.0000 3.7658 0.0000
# 3 15.8570 33.4048 154.3290 0.0000 15.9533 0.0000
# 4 0.0000 0.0000 0.0000 19.6292 0.0000 -1.0159
# 5 -0.1183 3.7658 15.9533 0.0000 26.9436 0.0000
# 6 0.0000 0.0000 0.0000 -1.0159 0.0000 23.7575
#
#
#
# Elastic Compliance Matrix: (Units=1/GPa)
#
#
# Indices 1 2 3 4 5 6 
#
# 1 0.036718 -0.009732 -0.001942 0.000000 0.002671 0.000000
# 2 -0.009732 0.013861 -0.001913 0.000000 -0.000847 0.000000
# 3 -0.001942 -0.001913 0.007527 0.000000 -0.004198 0.000000
# 4 0.000000 0.000000 0.000000 0.051057 0.000000 0.002183
# 5 0.002671 -0.000847 -0.004198 0.000000 0.039730 0.000000
# 6 0.000000 0.000000 0.000000 0.002183 0.000000 0.042185
#
#
# Mechanical properties :
#
#
# Convention : Reuss Voigt Hill
#
# Bulk Modulus (GPa) = 32.32854 48.63874 40.48364
# Shear Modulus (GPa) = 21.87581 28.01620 24.94600
#
# Velocity S-wave (km/s) = 3.43201 3.88393 3.66494
# Velocity P-wave (km/s) = 5.75428 6.80455 6.30133
#
# Compressibility (1/GPa) = 0.03093242
#
# Stress axis : x y z
#
# Youngs Moduli (GPa) = 27.23466 72.14686 132.85145
#
# Poissons Ratio (x) = 0.70210 0.25805
# Poissons Ratio (y) = 0.26504 0.25410
# Poissons Ratio (z) = 0.05290 0.13799
#
# Static dielectric constant tensor:
#      x y z
#    x 1.674380 0.000000 0.007250 
#    y 0.000000 1.649890 0.000000 
#    z 0.007250 0.000000 1.779360 
# 
# From -- ./inp_files/122669.got.cif
#   From: 2010.05.17/outbox.cif.g08.bks.cpg/sg15_62_cif.got.tgz:122669.got - 2010.06.03 18:47:42.
