data_PCOD9257000
_publ_section_title
;
Structure prediction by ZEFSAII (Michael W. Deem and Ramdas Pophale) SiO2 
 PCOD9257000
Probable space group: C 2/C
;
_chemical_formula_sum "Si O2"
_cell_formula_units_Z 64
_cell_length_a 26.333580
_cell_length_b 12.714216
_cell_length_c 14.760564
_cell_angle_alpha 90.000000
_cell_angle_beta 42.824874
_cell_angle_gamma 90.000000
_cell_volume 3359.370504
_symmetry_space_group_name_H-M "C 2/C"
_symmetry_group_IT_number 15
_symmetry_cell_setting 'monoclinic'
loop_
_space_group_symop_operation_xyz
x,y,z
-x,y,1/2-z
-x,-y,-z
x,-y,1/2+z
1/2+x,1/2+y,z
1/2-x,1/2+y,1/2-z
1/2-x,1/2-y,-z
1/2+x,1/2-y,1/2+z
loop_
_atom_site_type_symbol
_atom_site_label
_atom_site_fract_x
_atom_site_fract_y
_atom_site_fract_z
Si Si1 0.085736 0.585293 0.120291
Si Si2 0.820414 0.827292 0.920816
Si Si3 0.780516 0.907568 0.779824
Si Si4 0.006129 0.661313 0.937359
Si Si5 0.248304 0.567086 0.680963
Si Si6 0.391170 0.042145 0.217667
Si Si7 0.367610 0.766995 0.104815
Si Si8 0.612888 0.161003 0.548978
O O1 0.125825 0.593685 0.163916
O O2 0.090802 0.461573 0.090101
O O3 0.000000 0.611254 0.250000
O O4 0.114249 0.661166 0.004898
O O5 0.819995 0.891747 0.826702
O O6 0.881500 0.740740 0.873114
O O7 0.750000 0.750000 0.000000
O O8 0.805848 0.904146 0.025776
O O9 0.831824 0.846305 0.639931
O O10 0.774261 0.023463 0.744502
O O11 0.697373 0.855794 0.899104
O O12 0.060719 0.566019 0.833161
O O13 0.060534 0.735275 0.923886
O O14 0.951885 0.704817 0.931223
O O15 0.946416 0.610843 0.085158
O O16 0.186512 0.483747 0.727910
O O17 0.198567 0.670828 0.758299
#
# Coordination Sequence:
#
# PCOD9257000 Si02
#       8
#     8   8   8   8   8   8   8   8
#     4  12  20  31  54  88 127 158 187 247 323 379
#     4  10  21  36  58  86 115 161 204 250 296 360
#     4  11  22  38  58  85 122 162 204 247 305 371
#     4  10  18  31  51  82 116 151 189 251 307 359
#     4  11  20  36  59  81 123 158 198 255 303 362
#     4  10  18  30  50  82 117 151 191 235 315 376
#     4  11  22  35  54  87 124 157 198 249 313 372
#     4  11  19  33  54  86 116 155 200 248 307 365
#
# _framework density 19.051188
#
# number of rings (size 3 to 8) (size 9 to 14) (size 15 to 20)
#    0.000    1.250    7.500    2.250    1.750    0.000 
#    0.000    0.625    2.750    0.750    0.000    0.875 
#    0.000    0.000    0.000    0.000    0.000    0.000 
#
# Total GULP energy -178224.873093 kJ/mol
# GULP energy per Si atom -5569.527284 kJ/mol
# Density = 1.900783 g / cm^3
# Si number density = 19.051188 Si / 1000 Ang^3
#
#
#
# Elastic Constant Matrix: (Units=GPa)
#
#
# Indices 1 2 3 4 5 6 
#
# 1 75.4313 11.4027 9.1814 0.0000 17.4937 0.0000
# 2 11.4027 24.5616 16.4824 0.0000 -0.1678 0.0000
# 3 9.1814 16.4824 73.2813 0.0000 12.6325 0.0000
# 4 0.0000 0.0000 0.0000 28.1031 0.0000 8.6968
# 5 17.4937 -0.1678 12.6325 0.0000 25.9903 0.0000
# 6 0.0000 0.0000 0.0000 8.6968 0.0000 26.5564
#
#
#
# Elastic Compliance Matrix: (Units=1/GPa)
#
#
# Indices 1 2 3 4 5 6 
#
# 1 0.017434 -0.009663 0.002208 0.000000 -0.012870 0.000000
# 2 -0.009663 0.054198 -0.013273 0.000000 0.013305 0.000000
# 3 0.002208 -0.013273 0.018146 0.000000 -0.010392 0.000000
# 4 0.000000 0.000000 0.000000 0.039596 0.000000 -0.012967
# 5 -0.012870 0.013305 -0.010392 0.000000 0.052275 0.000000
# 6 0.000000 0.000000 0.000000 -0.012967 0.000000 0.041902
#
#
# Mechanical properties :
#
#
# Convention : Reuss Voigt Hill
#
# Bulk Modulus (GPa) = 20.69493 27.48968 24.09231
# Shear Modulus (GPa) = 17.78630 25.21049 21.49840
#
# Velocity S-wave (km/s) = 3.05881 3.64167 3.36289
# Velocity P-wave (km/s) = 4.83337 5.66948 5.26804
#
# Compressibility (1/GPa) = 0.04832102
#
# Stress axis : x y z
#
# Youngs Moduli (GPa) = 57.35971 18.45089 55.10813
#
# Poissons Ratio (x) = 0.17829 -0.12166
# Poissons Ratio (y) = 0.55427 0.73146
# Poissons Ratio (z) = -0.12663 0.24490
#
# Static dielectric constant tensor:
#      x y z
#    x 1.746810 0.000000 0.023260 
#    y 0.000000 1.670890 0.000000 
#    z 0.023260 0.000000 1.752530 
# 
# From -- ./inp_files/178155.got.cif
#   From: 2010.05.17/outbox.cif.g08.bks.cpg/sg15_90_cif.got.tgz:178155.got - 2010.06.03 18:47:42.
