data_PCOD9257028
_publ_section_title
;
Structure prediction by ZEFSAII (Michael W. Deem and Ramdas Pophale) SiO2 
 PCOD9257028
Probable space group: C 2/C
;
_chemical_formula_sum "Si O2"
_cell_formula_units_Z 40
_cell_length_a 4.999347
_cell_length_b 19.850074
_cell_length_c 18.589783
_cell_angle_alpha 90.000000
_cell_angle_beta 99.969108
_cell_angle_gamma 90.000000
_cell_volume 1816.947649
_symmetry_space_group_name_H-M "C 2/C"
_symmetry_group_IT_number 15
_symmetry_cell_setting 'monoclinic'
loop_
_space_group_symop_operation_xyz
x,y,z
-x,y,1/2-z
-x,-y,-z
x,-y,1/2+z
1/2+x,1/2+y,z
1/2-x,1/2+y,1/2-z
1/2-x,1/2-y,-z
1/2+x,1/2-y,1/2+z
loop_
_atom_site_type_symbol
_atom_site_label
_atom_site_fract_x
_atom_site_fract_y
_atom_site_fract_z
Si Si1 0.734271 0.515268 0.911559
Si Si2 0.687501 0.194845 0.884750
Si Si3 0.799678 0.272425 0.585029
Si Si4 0.687762 0.947593 0.324763
Si Si5 0.477443 0.389127 0.519466
O O1 0.489765 0.523591 0.842756
O O2 0.700345 0.442634 0.945565
O O3 0.021132 0.529372 0.888160
O O4 0.655355 0.570352 0.968653
O O5 0.386687 0.222577 0.877268
O O6 0.711500 0.133457 0.830710
O O7 0.891917 0.256668 0.881227
O O8 0.786120 0.161738 0.965316
O O9 0.750000 0.250000 0.500000
O O10 0.677749 0.347014 0.580076
O O11 0.500000 0.967563 0.250000
#
# Coordination Sequence:
#
# PCOD9257028 Si02
#       5
#     8   8   8   8   8
#     4  10  22  34  55  82 108 144 176 220 280 320
#     4  10  20  32  52  80 106 138 174 217 275 320
#     4  10  18  30  51  79 108 135 163 207 270 331
#     4  11  22  38  55  75 105 145 192 227 256 317
#     4   9  19  34  54  84 116 133 169 224 279 336
#
# _framework density 22.014941
#
# number of rings (size 3 to 8) (size 9 to 14) (size 15 to 20)
#    0.000    2.000    0.000    6.600    0.000   13.600 
#    0.000    0.000    0.000    4.800    0.000    2.800 
#    0.000    0.000    0.000    0.000    0.000    0.000 
#
# Total GULP energy -111848.116286 kJ/mol
# GULP energy per Si atom -5592.405814 kJ/mol
# Density = 2.196483 g / cm^3
# Si number density = 22.014941 Si / 1000 Ang^3
#
#
#
# Elastic Constant Matrix: (Units=GPa)
#
#
# Indices 1 2 3 4 5 6 
#
# 1 80.1206 2.9105 1.4528 0.0000 1.6822 0.0000
# 2 2.9105 75.2823 6.0191 0.0000 -1.8069 0.0000
# 3 1.4528 6.0191 34.3343 0.0000 14.4872 0.0000
# 4 0.0000 0.0000 0.0000 8.6704 0.0000 5.0265
# 5 1.6822 -1.8069 14.4872 0.0000 26.9661 0.0000
# 6 0.0000 0.0000 0.0000 5.0265 0.0000 30.3479
#
#
#
# Elastic Compliance Matrix: (Units=1/GPa)
#
#
# Indices 1 2 3 4 5 6 
#
# 1 0.012517 -0.000491 -0.000129 0.000000 -0.000744 0.000000
# 2 -0.000491 0.013658 -0.003585 0.000000 0.002872 0.000000
# 3 -0.000129 -0.003585 0.038610 0.000000 -0.020975 0.000000
# 4 0.000000 0.000000 0.000000 0.127586 0.000000 -0.021132
# 5 -0.000744 0.002872 -0.020975 0.000000 0.048591 0.000000
# 6 0.000000 0.000000 0.000000 -0.021132 0.000000 0.036451
#
#
# Mechanical properties :
#
#
# Convention : Reuss Voigt Hill
#
# Bulk Modulus (GPa) = 17.73933 23.38911 20.56422
# Shear Modulus (GPa) = 16.41411 25.15385 20.78398
#
# Velocity S-wave (km/s) = 2.73351 3.38388 3.07593
# Velocity P-wave (km/s) = 4.24713 5.09065 4.68790
#
# Compressibility (1/GPa) = 0.05637190
#
# Stress axis : x y z
#
# Youngs Moduli (GPa) = 79.89126 73.21757 25.90032
#
# Poissons Ratio (x) = 0.03598 0.00335
# Poissons Ratio (y) = 0.03926 0.09286
# Poissons Ratio (z) = 0.01034 0.26251
#
# Static dielectric constant tensor:
#      x y z
#    x 1.800120 0.000000 0.015530 
#    y 0.000000 1.830110 0.000000 
#    z 0.015530 0.000000 1.846570 
# 
# From -- ./inp_files/184631.got.cif
#   From: 2010.05.17/outbox.cif.g08.bks.cpg/sg15_93_cif.got.tgz:184631.got - 2010.06.03 18:47:42.
