data_PCOD9257918
_publ_section_title
;
Structure prediction by ZEFSAII (Michael W. Deem and Ramdas Pophale) SiO2 
 PCOD9257918
Probable space group: C 2/C
;
_chemical_formula_sum "Si O2"
_cell_formula_units_Z 60
_cell_length_a 21.474838
_cell_length_b 8.288502
_cell_length_c 17.109795
_cell_angle_alpha 90.000000
_cell_angle_beta 60.659514
_cell_angle_gamma 90.000000
_cell_volume 2654.785143
_symmetry_space_group_name_H-M "C 2/C"
_symmetry_group_IT_number 15
_symmetry_cell_setting 'monoclinic'
loop_
_space_group_symop_operation_xyz
x,y,z
-x,y,1/2-z
-x,-y,-z
x,-y,1/2+z
1/2+x,1/2+y,z
1/2-x,1/2+y,1/2-z
1/2-x,1/2-y,-z
1/2+x,1/2-y,1/2+z
loop_
_atom_site_type_symbol
_atom_site_label
_atom_site_fract_x
_atom_site_fract_y
_atom_site_fract_z
Si Si1 0.874247 0.944839 0.047699
Si Si2 0.154231 0.493297 0.853482
Si Si3 0.233146 0.704540 0.682179
Si Si4 0.189347 0.805208 0.122631
Si Si5 0.420238 0.714305 0.672699
Si Si6 0.500000 0.468465 0.250000
Si Si7 0.145118 0.712650 0.994633
Si Si8 0.140287 0.855755 0.610171
O O1 0.792744 0.928736 0.127214
O O2 0.919024 0.886179 0.093739
O O3 0.893103 0.124395 0.009543
O O4 0.876064 0.828083 0.970668
O O5 0.184841 0.639619 0.782535
O O6 0.219498 0.365447 0.828513
O O7 0.092101 0.397876 0.845952
O O8 0.125924 0.562557 0.952697
O O9 0.183196 0.732039 0.637227
O O10 0.149907 0.816073 0.229351
O O11 0.270906 0.758082 0.076077
O O12 0.188284 0.981852 0.083764
O O13 0.144946 0.696406 0.088512
O O14 0.483185 0.649497 0.688080
O O15 0.432603 0.583082 0.305581
#
# Coordination Sequence:
#
# PCOD9257918 Si02
#       8
#     8   8   8   8   8   4   8   8
#     4  10  21  35  63  91 125 153 204 257 315 364
#     4  11  22  33  60  92 126 156 200 251 315 374
#     4  11  21  35  59  98 131 155 196 257 322 367
#     4   9  18  32  54  81 124 158 192 230 310 373
#     4  10  22  41  58  83 113 165 208 253 299 357
#     4  10  24  42  66  78 122 172 218 244 298 372
#     4  10  18  32  55  91 121 158 187 243 314 378
#     4  10  21  38  58  92 118 166 205 256 298 366
#
# _framework density 22.600698000000001
#
# number of rings (size 3 to 8) (size 9 to 14) (size 15 to 20)
#    0.000    1.867    1.333    3.600    7.467    0.533 
#    4.800    0.667    0.000    7.200    0.000    0.000 
#    0.000    0.000    0.000    0.000    0.000    0.000 
#
# Total GULP energy -167500.784473 kJ/mol
# GULP energy per Si atom -5583.359482 kJ/mol
# Density = 2.254926 g / cm^3
# Si number density = 22.600698 Si / 1000 Ang^3
#
#
#
# Elastic Constant Matrix: (Units=GPa)
#
#
# Indices 1 2 3 4 5 6 
#
# 1 83.7307 16.8870 23.4405 0.0000 21.7592 0.0001
# 2 16.8870 53.0864 14.8383 -0.0001 17.6211 0.0006
# 3 23.4405 14.8383 86.3636 0.0000 33.0030 0.0000
# 4 0.0000 -0.0001 0.0000 23.0537 0.0000 20.5792
# 5 21.7592 17.6211 33.0030 0.0000 47.2508 0.0000
# 6 0.0001 0.0006 0.0000 20.5792 0.0000 13.7472
#
#
#
# Elastic Compliance Matrix: (Units=1/GPa)
#
#
# Indices 1 2 3 4 5 6 
#
# 1 0.014064 -0.002558 -0.001729 0.000000 -0.004315 0.000000
# 2 -0.002558 0.022011 -0.000547 -0.000003 -0.006648 0.000003
# 3 -0.001729 -0.000547 0.016042 0.000000 -0.010205 0.000000
# 4 0.000000 -0.000003 0.000000 -0.128985 0.000001 0.193087
# 5 -0.004315 -0.006648 -0.010205 0.000001 0.032758 -0.000001
# 6 0.000000 0.000003 0.000000 0.193087 -0.000001 -0.216305
#
#
# Mechanical properties :
#
#
# Convention : Reuss Voigt Hill
#
# Bulk Modulus (GPa) = 23.55766 37.05693 30.30729
# Shear Modulus (GPa) = -21.13296 28.01133 3.43918
#
# Velocity S-wave (km/s) = -3.06119 3.52433 1.23492
# Velocity P-wave (km/s) = 1.43124 5.74397 3.93349
#
# Compressibility (1/GPa) = 0.04244903
#
# Stress axis : x y z
#
# Youngs Moduli (GPa) = 71.10153 45.43252 62.33763
#
# Poissons Ratio (x) = 0.11623 0.10777
# Poissons Ratio (y) = 0.18191 0.03408
# Poissons Ratio (z) = 0.12292 0.02484
#
# Static dielectric constant tensor:
#      x y z
#    x 1.880460 0.000000 0.030020 
#    y 0.000000 1.857090 0.000000 
#    z 0.030020 0.000000 1.880340 
# 
# From -- ./inp_files/218219.got.cif
#   From: 2010.05.17/outbox.cif.g08.bks.cpg/sg15_110_cif.got.tgz:218219.got - 2010.06.03 18:47:42.
