data_PCOD9257617
_publ_section_title
;
Structure prediction by ZEFSAII (Michael W. Deem and Ramdas Pophale) SiO2 
 PCOD9257617
Probable space group: C 2/C
;
_chemical_formula_sum "Si O2"
_cell_formula_units_Z 56
_cell_length_a 5.415545
_cell_length_b 32.965831
_cell_length_c 17.253581
_cell_angle_alpha 90.000000
_cell_angle_beta 51.115084
_cell_angle_gamma 90.000000
_cell_volume 2397.689721
_symmetry_space_group_name_H-M "C 2/C"
_symmetry_group_IT_number 15
_symmetry_cell_setting 'monoclinic'
loop_
_space_group_symop_operation_xyz
x,y,z
-x,y,1/2-z
-x,-y,-z
x,-y,1/2+z
1/2+x,1/2+y,z
1/2-x,1/2+y,1/2-z
1/2-x,1/2-y,-z
1/2+x,1/2-y,1/2+z
loop_
_atom_site_type_symbol
_atom_site_label
_atom_site_fract_x
_atom_site_fract_y
_atom_site_fract_z
Si Si1 0.583927 0.627379 0.896933
Si Si2 0.880835 0.953783 0.183364
Si Si3 0.633954 0.161733 0.877160
Si Si4 0.114290 0.046217 0.316636
Si Si5 0.135170 0.250000 0.432415
Si Si6 0.357405 0.161733 0.377160
Si Si7 0.328338 0.372622 0.896934
O O1 0.506269 0.579907 0.900737
O O2 0.465862 0.644077 0.838584
O O3 0.937877 0.640657 0.847851
O O4 0.382270 0.648990 0.004501
O O5 0.500000 0.950321 0.250000
O O6 0.000000 0.947577 0.250000
O O7 0.959668 1.000000 0.145166
O O8 0.696164 0.209668 0.870449
O O9 0.400277 0.148990 0.995498
O O10 0.500000 0.052423 0.250000
O O11 0.000000 0.049678 0.250000
O O12 0.890782 0.079907 0.400737
O O13 0.250000 0.250000 0.500000
O O14 0.322038 0.209668 0.370449
O O15 0.750000 0.250000 0.500000
O O16 0.670719 0.140657 0.347851
O O17 0.179801 0.144077 0.338584
#
# Coordination Sequence:
#
# PCOD9257617 Si02
#       7
#     8   8   8   8   8   8   8
#     4  10  18  32  49  75 106 131 166 216 257 310
#     4  10  21  37  55  73  96 135 184 224 259 307
#     4  10  19  30  50  81 109 133 163 204 264 313
#     4  10  21  37  55  73  96 135 184 224 259 307
#     4  12  16  30  48  78 114 134 166 198 244 316
#     4  10  19  30  50  81 109 133 163 204 264 313
#     4  10  18  32  49  75 106 131 166 216 257 310
#
# _framework density 23.355815
#
# number of rings (size 3 to 8) (size 9 to 14) (size 15 to 20)
#    0.000    1.714    5.714    1.714    0.000    0.000 
#    0.000    5.714    0.000    0.000    0.000   24.000 
#    0.000    0.000    0.000    0.000    0.000    0.000 
#
# Total GULP energy -155902.683143 kJ/mol
# GULP energy per Si atom -5567.952969 kJ/mol
# Density = 2.330266 g / cm^3
# Si number density = 23.355815 Si / 1000 Ang^3
#
#
#
# Elastic Constant Matrix: (Units=GPa)
#
#
# Indices 1 2 3 4 5 6 
#
# 1 258.9119 38.3898 31.0435 0.0000 6.7488 0.0000
# 2 38.3898 203.1862 12.9739 0.0000 1.1552 0.0000
# 3 31.0435 12.9739 65.7123 0.0000 2.0339 0.0000
# 4 0.0000 0.0000 0.0000 -77.8370 0.0000 5.0537
# 5 6.7488 1.1552 2.0339 0.0000 39.9142 0.0000
# 6 0.0000 0.0000 0.0000 5.0537 0.0000 33.3507
#
#
#
# Elastic Compliance Matrix: (Units=1/GPa)
#
#
# Indices 1 2 3 4 5 6 
#
# 1 0.004197 -0.000673 -0.001832 0.000000 -0.000597 0.000000
# 2 -0.000673 0.005093 -0.000688 0.000000 0.000001 0.000000
# 3 -0.001832 -0.000688 0.016234 0.000000 -0.000498 0.000000
# 4 0.000000 0.000000 0.000000 -0.012722 0.000000 0.001928
# 5 -0.000597 0.000001 -0.000498 0.000000 0.025180 0.000000
# 6 0.000000 0.000000 0.000000 0.001928 0.000000 0.029692
#
#
# Mechanical properties :
#
#
# Convention : Reuss Voigt Hill
#
# Bulk Modulus (GPa) = 52.24599 76.95831 64.60215
# Shear Modulus (GPa) = 62.15957 28.77912 45.46935
#
# Velocity S-wave (km/s) = 5.16449 3.51408 4.41705
# Velocity P-wave (km/s) = 7.61451 7.03470 7.33034
#
# Compressibility (1/GPa) = 0.01914023
#
# Stress axis : x y z
#
# Youngs Moduli (GPa) = 238.25302 196.36364 61.59803
#
# Poissons Ratio (x) = 0.13209 0.11282
# Poissons Ratio (y) = 0.16027 0.04236
# Poissons Ratio (z) = 0.43637 0.13504
#
# Static dielectric constant tensor:
#      x y z
#    x 1.888900 0.000000 0.002750 
#    y 0.000000 2.011900 0.000000 
#    z 0.002750 0.000000 1.828380 
# 
# From -- ./inp_files/228402.got.cif
#   From: 2010.05.17/outbox.cif.g08.bks.cpg/sg15_115_cif.got.tgz:228402.got - 2010.06.03 18:47:42.
