data_PCOD9257379
_publ_section_title
;
Structure prediction by ZEFSAII (Michael W. Deem and Ramdas Pophale) SiO2 
 PCOD9257379
Probable space group: C 2/C
;
_chemical_formula_sum "Si O2"
_cell_formula_units_Z 60
_cell_length_a 9.247600
_cell_length_b 16.351639
_cell_length_c 20.854631
_cell_angle_alpha 90.000000
_cell_angle_beta 101.067132
_cell_angle_gamma 90.000000
_cell_volume 3094.854193
_symmetry_space_group_name_H-M "C 2/C"
_symmetry_group_IT_number 15
_symmetry_cell_setting 'monoclinic'
loop_
_space_group_symop_operation_xyz
x,y,z
-x,y,1/2-z
-x,-y,-z
x,-y,1/2+z
1/2+x,1/2+y,z
1/2-x,1/2+y,1/2-z
1/2-x,1/2-y,-z
1/2+x,1/2-y,1/2+z
loop_
_atom_site_type_symbol
_atom_site_label
_atom_site_fract_x
_atom_site_fract_y
_atom_site_fract_z
Si Si1 0.276036 0.884866 0.340514
Si Si2 0.103109 0.204548 0.623436
Si Si3 0.299604 0.272283 0.931978
Si Si4 0.306306 0.452935 0.920128
Si Si5 0.907945 0.287371 0.002353
Si Si6 0.891868 0.605960 0.617482
Si Si7 0.500000 0.675083 0.750000
Si Si8 0.911256 0.041444 0.575366
O O1 0.265927 0.800015 0.380089
O O2 0.446833 0.893712 0.336680
O O3 0.219701 0.953954 0.384796
O O4 0.146346 0.878172 0.277504
O O5 0.071779 0.279010 0.572093
O O6 0.272659 0.172601 0.633495
O O7 0.048577 0.222401 0.690284
O O8 0.006388 0.126080 0.590501
O O9 0.251543 0.361200 0.906469
O O10 0.250000 0.250000 0.000000
O O11 0.475685 0.272515 0.954252
O O12 0.189847 0.519683 0.887224
O O13 0.466023 0.472351 0.902837
O O14 0.341640 0.463980 0.999014
O O15 0.750000 0.250000 0.000000
O O16 0.919352 0.369985 0.044416
#
# Coordination Sequence:
#
# PCOD9257379 Si02
#       8
#     8   8   8   8   8   8   4   8
#     4  10  20  35  52  80 102 141 190 227 271 321
#     4   9  16  33  52  81 107 145 188 217 267 329
#     4  11  18  32  52  78 112 145 176 223 273 331
#     4  10  18  31  52  80 114 149 166 217 278 344
#     4   9  17  31  49  78 116 139 168 218 275 334
#     4   9  20  31  52  85 115 136 174 230 292 325
#     4  10  20  34  60  74  98 150 198 230 250 330
#     4   9  17  30  51  75 109 142 181 197 264 345
#
# _framework density 19.387018999999999
#
# number of rings (size 3 to 8) (size 9 to 14) (size 15 to 20)
#    0.000    2.400    2.667    0.800    1.867    1.067 
#    0.000    0.000    0.000    4.800   10.400    0.000 
#    0.000    0.000    0.000    0.000    0.000    0.600 
#
# Total GULP energy -167048.557283 kJ/mol
# GULP energy per Si atom -5568.285243 kJ/mol
# Density = 1.934289 g / cm^3
# Si number density = 19.387019 Si / 1000 Ang^3
#
#
#
# Elastic Constant Matrix: (Units=GPa)
#
#
# Indices 1 2 3 4 5 6 
#
# 1 119.9744 15.7017 32.0002 0.0000 24.6810 0.0000
# 2 15.7017 67.9107 1.4942 0.0000 -2.0923 0.0000
# 3 32.0002 1.4942 57.5842 0.0000 3.0758 0.0000
# 4 0.0000 0.0000 0.0000 11.1280 0.0000 -3.5990
# 5 24.6810 -2.0923 3.0758 0.0000 39.5985 0.0000
# 6 0.0000 0.0000 0.0000 -3.5990 0.0000 18.9573
#
#
#
# Elastic Compliance Matrix: (Units=1/GPa)
#
#
# Indices 1 2 3 4 5 6 
#
# 1 0.011769 -0.002803 -0.006093 0.000000 -0.007010 0.000000
# 2 -0.002803 0.015427 0.001025 0.000000 0.002483 0.000000
# 3 -0.006093 0.001025 0.020605 0.000000 0.002251 0.000000
# 4 0.000000 0.000000 0.000000 0.095742 0.000000 0.018176
# 5 -0.007010 0.002483 0.002251 0.000000 0.029579 0.000000
# 6 0.000000 0.000000 0.000000 0.018176 0.000000 0.056201
#
#
# Mechanical properties :
#
#
# Convention : Reuss Voigt Hill
#
# Bulk Modulus (GPa) = 31.19273 38.20681 34.69977
# Shear Modulus (GPa) = 19.55010 27.02164 23.28587
#
# Velocity S-wave (km/s) = 3.17900 3.73741 3.46946
# Velocity P-wave (km/s) = 5.44051 6.19472 5.82982
#
# Compressibility (1/GPa) = 0.03205875
#
# Stress axis : x y z
#
# Youngs Moduli (GPa) = 84.96647 64.82025 48.53174
#
# Poissons Ratio (x) = 0.18170 0.29571
# Poissons Ratio (y) = 0.23817 -0.04974
# Poissons Ratio (z) = 0.51772 -0.06643
#
# Static dielectric constant tensor:
#      x y z
#    x 1.760800 0.000000 -0.020110 
#    y 0.000000 1.697740 0.000000 
#    z -0.020110 0.000000 1.733320 
# 
# From -- ./inp_files/265292.got.cif
#   From: 2010.05.17/outbox.cif.g08.bks.cpg/sg15_133_cif.got.tgz:265292.got - 2010.06.03 18:47:42.
