data_PCOD9257672
_publ_section_title
;
Structure prediction by ZEFSAII (Michael W. Deem and Ramdas Pophale) SiO2 
 PCOD9257672
Probable space group: C 2/C
;
_chemical_formula_sum "Si O2"
_cell_formula_units_Z 36
_cell_length_a 18.904532
_cell_length_b 8.298592
_cell_length_c 17.447936
_cell_angle_alpha 90.000000
_cell_angle_beta 152.072811
_cell_angle_gamma 90.000000
_cell_volume 1281.988506
_symmetry_space_group_name_H-M "C 2/C"
_symmetry_group_IT_number 15
_symmetry_cell_setting 'monoclinic'
loop_
_space_group_symop_operation_xyz
x,y,z
-x,y,1/2-z
-x,-y,-z
x,-y,1/2+z
1/2+x,1/2+y,z
1/2-x,1/2+y,1/2-z
1/2-x,1/2-y,-z
1/2+x,1/2-y,1/2+z
loop_
_atom_site_type_symbol
_atom_site_label
_atom_site_fract_x
_atom_site_fract_y
_atom_site_fract_z
Si Si1 0.619496 0.017128 0.978842
Si Si2 0.088934 0.863211 0.910650
Si Si3 0.130034 0.896019 0.664785
Si Si4 0.000000 0.270539 0.750000
Si Si5 0.190610 0.633852 0.307550
O O1 0.652540 0.182763 0.963840
O O2 0.616494 0.882390 0.909492
O O3 0.452121 0.977765 0.851731
O O4 0.735977 0.022517 0.159270
O O5 0.000000 0.917574 0.750000
O O6 0.969413 0.819559 0.863394
O O7 0.196018 0.009104 0.040321
O O8 0.216991 0.809451 0.678248
O O9 0.000000 0.000000 0.500000
O O10 0.106799 0.228477 0.778969
#
# Coordination Sequence:
#
# PCOD9257672 Si02
#       5
#     8   8   8   4   8
#     4  10  18  32  51  75 106 136 168 204 260 311
#     4  11  19  31  52  80 109 134 165 209 256 307
#     4  10  21  32  47  70 110 140 167 206 248 311
#     4   8  18  28  52  72  98 132 168 200 254 294
#     4   9  19  32  44  74 106 140 172 195 254 303
#
# _framework density 28.081375000000001
#
# number of rings (size 3 to 8) (size 9 to 14) (size 15 to 20)
#    1.333    0.889    1.111    3.333    0.000    2.667 
#    0.000    0.000    0.000    0.000    0.000    1.556 
#   16.667    3.556    0.000    0.000    0.000    0.000 
#
# Total GULP energy -100346.165252 kJ/mol
# GULP energy per Si atom -5574.786958 kJ/mol
# Density = 2.801746 g / cm^3
# Si number density = 28.081375 Si / 1000 Ang^3
#
#
#
# Elastic Constant Matrix: (Units=GPa)
#
#
# Indices 1 2 3 4 5 6 
#
# 1 194.3310 -5.2478 -18.5142 0.0000 18.9903 0.0000
# 2 -5.2478 42.3193 9.4990 0.0000 19.9069 0.0000
# 3 -18.5142 9.4990 205.7712 -0.0001 0.0963 -0.0001
# 4 0.0000 0.0000 -0.0001 26.0960 0.0000 45.8248
# 5 18.9903 19.9069 0.0963 0.0000 42.9208 0.0000
# 6 0.0000 0.0000 -0.0001 45.8248 0.0000 57.7985
#
#
#
# Elastic Compliance Matrix: (Units=1/GPa)
#
#
# Indices 1 2 3 4 5 6 
#
# 1 0.005589 0.002260 0.000400 0.000000 -0.003522 0.000000
# 2 0.002260 0.031540 -0.001245 0.000000 -0.015625 0.000000
# 3 0.000400 -0.001245 0.004953 0.000000 0.000389 0.000000
# 4 0.000000 0.000000 0.000000 -0.097698 0.000000 0.077459
# 5 -0.003522 -0.015625 0.000389 0.000000 0.032103 0.000000
# 6 0.000000 0.000000 0.000000 0.077459 0.000000 -0.044111
#
#
# Mechanical properties :
#
#
# Convention : Reuss Voigt Hill
#
# Bulk Modulus (GPa) = 22.26582 45.98840 34.12711
# Shear Modulus (GPa) = -90.11823 55.80869 -17.15477
#
# Velocity S-wave (km/s) = -5.67111 4.46285 -2.47431
# Velocity P-wave (km/s) = 5.91065 6.55503 2.00409
#
# Compressibility (1/GPa) = 0.04491188
#
# Stress axis : x y z
#
# Youngs Moduli (GPa) = 178.91653 31.70599 201.89462
#
# Poissons Ratio (x) = -0.07166 -0.08080
# Poissons Ratio (y) = -0.40435 0.25142
# Poissons Ratio (z) = -0.07160 0.03948
#
# Static dielectric constant tensor:
#      x y z
#    x 2.428690 0.000000 0.047060 
#    y 0.000000 2.324850 0.000000 
#    z 0.047060 0.000000 2.184310 
# 
# From -- ./inp_files/214925.got.cif
#   From: 2010.05.17/outbox.cif.g08.bks.cpg/sg15_108_cif.got.tgz:214925.got - 2010.06.03 18:47:42.
