data_PCOD9257829
_publ_section_title
;
Structure prediction by ZEFSAII (Michael W. Deem and Ramdas Pophale) SiO2 
 PCOD9257829
Probable space group: C 2/C
;
_chemical_formula_sum "Si O2"
_cell_formula_units_Z 56
_cell_length_a 28.222949
_cell_length_b 7.206619
_cell_length_c 18.109781
_cell_angle_alpha 90.000000
_cell_angle_beta 38.516248
_cell_angle_gamma 90.000000
_cell_volume 2293.778640
_symmetry_space_group_name_H-M "C 2/C"
_symmetry_group_IT_number 15
_symmetry_cell_setting 'monoclinic'
loop_
_space_group_symop_operation_xyz
x,y,z
-x,y,1/2-z
-x,-y,-z
x,-y,1/2+z
1/2+x,1/2+y,z
1/2-x,1/2+y,1/2-z
1/2-x,1/2-y,-z
1/2+x,1/2-y,1/2+z
loop_
_atom_site_type_symbol
_atom_site_label
_atom_site_fract_x
_atom_site_fract_y
_atom_site_fract_z
Si Si1 0.718161 0.107774 0.280807
Si Si2 0.828226 0.332975 0.819528
Si Si3 0.187954 0.983531 0.577526
Si Si4 0.622048 0.277030 0.898735
Si Si5 0.962297 0.605927 0.615960
Si Si6 0.554665 0.092547 0.116283
Si Si7 0.181922 0.332205 0.986435
O O1 0.697613 0.216544 0.231680
O O2 0.808993 0.082828 0.174569
O O3 0.691844 0.201702 0.388432
O O4 0.670171 0.917142 0.334937
O O5 0.893578 0.484391 0.732194
O O6 0.854380 0.152076 0.832016
O O7 0.753951 0.423164 0.947146
O O8 0.146515 0.835051 0.576596
O O9 0.234299 0.869903 0.583065
O O10 0.572723 0.284708 0.883362
O O11 0.571025 0.248470 0.034352
O O12 0.000000 0.500000 0.500000
O O13 0.022219 0.586764 0.609468
O O14 0.500000 0.142847 0.250000
O O15 0.633895 0.020185 0.053007
#
# Coordination Sequence:
#
# PCOD9257829 Si02
#       7
#     8   8   8   8   8   8   8
#     4  10  18  32  54  81 106 136 180 230 278 325
#     4  10  19  34  56  83 114 143 180 239 290 332
#     4  10  21  34  54  86 116 141 180 239 300 331
#     4   9  19  33  54  81 105 133 178 233 280 321
#     4   9  18  32  50  76 106 142 183 221 266 330
#     4  10  19  32  52  76 105 144 184 215 257 333
#     4  10  20  35  55  83 114 150 189 229 283 344
#
# _framework density 24.413862999999999
#
# number of rings (size 3 to 8) (size 9 to 14) (size 15 to 20)
#    0.000    2.286    0.000    5.143    0.000    2.286 
#    0.000    0.000    0.000   14.571    0.000   43.000 
#    0.000    0.000    0.000    0.000    0.000    0.000 
#
# Total GULP energy -156448.125513 kJ/mol
# GULP energy per Si atom -5587.433054 kJ/mol
# Density = 2.435830 g / cm^3
# Si number density = 24.413863 Si / 1000 Ang^3
#
#
#
# Elastic Constant Matrix: (Units=GPa)
#
#
# Indices 1 2 3 4 5 6 
#
# 1 85.5739 3.5985 13.8263 -0.0009 17.2344 0.0031
# 2 3.5985 53.7249 9.9471 -0.0044 19.5150 0.0066
# 3 13.8263 9.9471 118.7397 -0.0027 18.2665 0.0016
# 4 -0.0009 -0.0044 -0.0027 22.1778 -0.0013 3.3791
# 5 17.2344 19.5150 18.2665 -0.0013 37.6030 0.0034
# 6 0.0031 0.0066 0.0016 3.3791 0.0034 17.8834
#
#
#
# Elastic Compliance Matrix: (Units=1/GPa)
#
#
# Indices 1 2 3 4 5 6 
#
# 1 0.013031 0.001605 -0.000654 0.000001 -0.006487 -0.000002
# 2 0.001605 0.023136 -0.000178 0.000005 -0.012656 -0.000007
# 3 -0.000654 -0.000178 0.009135 0.000001 -0.004046 0.000000
# 4 0.000001 0.000005 0.000001 0.046427 -0.000001 -0.008773
# 5 -0.006487 -0.012656 -0.004046 -0.000001 0.038100 -0.000001
# 6 -0.000002 -0.000007 0.000000 -0.008773 -0.000001 0.057575
#
#
# Mechanical properties :
#
#
# Convention : Reuss Voigt Hill
#
# Bulk Modulus (GPa) = 21.34581 34.75358 28.04970
# Shear Modulus (GPa) = 24.81708 30.91061 27.86385
#
# Velocity S-wave (km/s) = 3.19174 3.56210 3.38200
# Velocity P-wave (km/s) = 4.72708 5.58428 5.17346
#
# Compressibility (1/GPa) = 0.04684760
#
# Stress axis : x y z
#
# Youngs Moduli (GPa) = 76.74300 43.22273 109.46688
#
# Poissons Ratio (x) = -0.06936 0.07156
# Poissons Ratio (y) = -0.12315 0.01949
# Poissons Ratio (z) = 0.05017 0.00770
#
# Static dielectric constant tensor:
#      x y z
#    x 2.031290 -0.000010 -0.013370 
#    y -0.000010 2.011700 0.000010 
#    z -0.013370 0.000010 1.942890 
# 
# From -- ./inp_files/224396.got.cif
#   From: 2010.05.17/outbox.cif.g08.bks.cpg/sg15_113_cif.got.tgz:224396.got - 2010.06.03 18:47:42.
