data_PCOD9257682
_publ_section_title
;
Structure prediction by ZEFSAII (Michael W. Deem and Ramdas Pophale) SiO2 
 PCOD9257682
Probable space group: C 2/C
;
_chemical_formula_sum "Si O2"
_cell_formula_units_Z 64
_cell_length_a 23.262171
_cell_length_b 9.609109
_cell_length_c 20.273495
_cell_angle_alpha 90.000000
_cell_angle_beta 56.918863
_cell_angle_gamma 90.000000
_cell_volume 3797.111761
_symmetry_space_group_name_H-M "C 2/C"
_symmetry_group_IT_number 15
_symmetry_cell_setting 'monoclinic'
loop_
_space_group_symop_operation_xyz
x,y,z
-x,y,1/2-z
-x,-y,-z
x,-y,1/2+z
1/2+x,1/2+y,z
1/2-x,1/2+y,1/2-z
1/2-x,1/2-y,-z
1/2+x,1/2-y,1/2+z
loop_
_atom_site_type_symbol
_atom_site_label
_atom_site_fract_x
_atom_site_fract_y
_atom_site_fract_z
Si Si1 0.823454 0.665141 0.112788
Si Si2 0.955748 0.447975 0.213700
Si Si3 0.939030 0.123381 0.235138
Si Si4 0.170778 0.649413 0.230502
Si Si5 0.526011 0.888212 0.034625
Si Si6 0.804992 0.981810 0.147920
Si Si7 0.952284 0.096247 0.073818
Si Si8 0.302924 0.465386 0.308628
O O1 0.832443 0.656010 0.187042
O O2 0.805302 0.828493 0.115965
O O3 0.766008 0.550617 0.128697
O O4 0.894322 0.639251 0.030081
O O5 0.926677 0.289711 0.236925
O O6 0.896808 0.562833 0.245200
O O7 0.000000 0.475456 0.250000
O O8 0.006316 0.441490 0.119377
O O9 0.956580 0.068181 0.150176
O O10 0.000000 0.101849 0.250000
O O11 0.867983 0.048276 0.296487
O O12 0.237870 0.563145 0.168587
O O13 0.182324 0.801321 0.191019
O O14 0.481024 0.750886 0.049715
O O15 0.500000 0.000000 0.000000
O O16 0.800784 0.971370 0.230104
O O17 0.875475 0.067765 0.095885
O O18 0.000000 0.000000 0.000000
#
# Coordination Sequence:
#
# PCOD9257682 Si02
#       8
#     8   8   8   8   8   8   8   8
#     4  10  18  32  51  80 110 135 175 221 268 314
#     4  10  21  37  56  76 107 143 181 215 260 326
#     4   9  19  35  55  76 105 143 182 215 258 316
#     4  10  19  32  52  78 106 140 178 218 266 312
#     4  11  21  32  56  82 110 139 173 223 273 311
#     4   9  18  31  51  76 108 141 172 217 264 315
#     4  10  19  33  53  81 109 135 175 219 267 313
#     4   9  19  30  52  80 106 137 178 220 262 313
#
# _framework density 16.854915999999999
#
# number of rings (size 3 to 8) (size 9 to 14) (size 15 to 20)
#    0.000    2.250    2.500    0.750    1.750    3.500 
#    0.000    0.000    2.750    3.750    0.000    0.000 
#    0.000    0.000    0.000    0.000    0.000    0.000 
#
# Total GULP energy -178141.420648 kJ/mol
# GULP energy per Si atom -5566.919395 kJ/mol
# Density = 1.681655 g / cm^3
# Si number density = 16.854916 Si / 1000 Ang^3
#
#
#
# Elastic Constant Matrix: (Units=GPa)
#
#
# Indices 1 2 3 4 5 6 
#
# 1 91.0768 85.1570 56.5173 0.0000 -21.5416 0.0000
# 2 85.1570 118.9171 68.9170 -0.0002 -22.6900 0.0001
# 3 56.5173 68.9170 89.0063 0.0000 -27.9356 0.0000
# 4 0.0000 -0.0002 0.0000 20.6386 0.0000 -8.8328
# 5 -21.5416 -22.6900 -27.9356 0.0000 34.3077 0.0000
# 6 0.0000 0.0001 0.0000 -8.8328 0.0000 28.6710
#
#
#
# Elastic Compliance Matrix: (Units=1/GPa)
#
#
# Indices 1 2 3 4 5 6 
#
# 1 0.034887 -0.021961 -0.003804 0.000000 0.004284 0.000000
# 2 -0.021961 0.029088 -0.009226 0.000000 -0.002063 0.000000
# 3 -0.003804 -0.009226 0.024353 0.000000 0.011340 0.000000
# 4 0.000000 0.000000 0.000000 0.055812 0.000000 0.017194
# 5 0.004284 -0.002063 0.011340 0.000000 0.039707 0.000000
# 6 0.000000 0.000000 0.000000 0.017194 0.000000 0.040176
#
#
# Mechanical properties :
#
#
# Convention : Reuss Voigt Hill
#
# Bulk Modulus (GPa) = 54.50360 80.02030 67.26195
# Shear Modulus (GPa) = 16.66005 22.61738 19.63872
#
# Velocity S-wave (km/s) = 3.14736 3.66715 3.41715
# Velocity P-wave (km/s) = 6.75388 8.09380 7.45401
#
# Compressibility (1/GPa) = 0.01834741
#
# Stress axis : x y z
#
# Youngs Moduli (GPa) = 28.66432 34.37796 41.06209
#
# Poissons Ratio (x) = 0.75496 0.15620
# Poissons Ratio (y) = 0.62948 0.37884
# Poissons Ratio (z) = 0.10904 0.31717
#
# Static dielectric constant tensor:
#      x y z
#    x 1.540570 0.000000 -0.006210 
#    y 0.000000 1.603030 0.000000 
#    z -0.006210 0.000000 1.555940 
# 
# From -- ./inp_files/256997.got.cif
#   From: 2010.05.17/outbox.cif.g08.bks.cpg/sg15_129_cif.got.tgz:256997.got - 2010.06.03 18:47:42.
