data_PCOD9257634
_publ_section_title
;
Structure prediction by ZEFSAII (Michael W. Deem and Ramdas Pophale) SiO2 
 PCOD9257634
Probable space group: C 2/C
;
_chemical_formula_sum "Si O2"
_cell_formula_units_Z 56
_cell_length_a 10.389999
_cell_length_b 28.559612
_cell_length_c 12.990195
_cell_angle_alpha 90.000000
_cell_angle_beta 34.407345
_cell_angle_gamma 90.000000
_cell_volume 2178.150388
_symmetry_space_group_name_H-M "C 2/C"
_symmetry_group_IT_number 15
_symmetry_cell_setting 'monoclinic'
loop_
_space_group_symop_operation_xyz
x,y,z
-x,y,1/2-z
-x,-y,-z
x,-y,1/2+z
1/2+x,1/2+y,z
1/2-x,1/2+y,1/2-z
1/2-x,1/2-y,-z
1/2+x,1/2-y,1/2+z
loop_
_atom_site_type_symbol
_atom_site_label
_atom_site_fract_x
_atom_site_fract_y
_atom_site_fract_z
Si Si1 0.804803 0.174323 0.968244
Si Si2 0.685979 0.470840 0.539752
Si Si3 0.494184 0.086042 0.533918
Si Si4 0.289311 0.570937 0.969481
Si Si5 0.738304 0.618101 0.883273
Si Si6 0.944418 0.313311 0.537306
Si Si7 0.647047 0.286522 0.386167
O O1 0.785482 0.121540 0.025429
O O2 0.568158 0.185184 0.067526
O O3 0.000000 0.173699 0.750000
O O4 0.905867 0.209838 0.985086
O O5 0.500000 0.475338 0.750000
O O6 0.709709 0.521587 0.472345
O O7 0.625907 0.426717 0.509171
O O8 0.905803 0.453960 0.459647
O O9 0.427111 0.070200 0.465187
O O10 0.269328 0.104081 0.743164
O O11 0.641281 0.134160 0.428817
O O12 0.500000 0.570974 0.750000
O O13 0.636632 0.669342 0.970109
O O14 0.000000 0.620453 0.750000
O O15 0.147982 0.302284 0.322947
O O16 0.797802 0.266605 0.622231
#
# Coordination Sequence:
#
# PCOD9257634 Si02
#       7
#     8   8   8   8   8   8   8
#     4   8  15  29  49  73 100 127 157 194 242 303
#     4  10  20  33  51  76 101 128 166 211 248 281
#     4   9  18  35  53  71  99 135 166 199 244 300
#     4   9  16  30  53  77  98 128 167 202 242 299
#     4   9  19  35  51  69  99 135 168 200 241 299
#     4   9  18  30  51  74  96 126 164 198 243 295
#     4  10  18  32  50  72  97 129 161 200 246 291
#
# _framework density 25.709886000000001
#
# number of rings (size 3 to 8) (size 9 to 14) (size 15 to 20)
#    0.000    2.857    0.000    3.429    0.000    1.143 
#    0.000   13.571    0.000   10.286    0.000    0.000 
#    0.000    0.000    0.000    0.000    0.000    0.000 
#
# Total GULP energy -156263.092607 kJ/mol
# GULP energy per Si atom -5580.824736 kJ/mol
# Density = 2.565137 g / cm^3
# Si number density = 25.709886 Si / 1000 Ang^3
#
#
#
# Elastic Constant Matrix: (Units=GPa)
#
#
# Indices 1 2 3 4 5 6 
#
# 1 31.8660 7.9346 -9.8508 0.0000 2.0659 0.0000
# 2 7.9346 219.0076 10.1834 0.0000 8.4697 0.0000
# 3 -9.8508 10.1834 34.0720 0.0000 -0.4681 0.0000
# 4 0.0000 0.0000 0.0000 -55.7087 0.0000 70.1404
# 5 2.0659 8.4697 -0.4681 0.0000 11.9463 0.0000
# 6 0.0000 0.0000 0.0000 70.1404 0.0000 -25.6368
#
#
#
# Elastic Compliance Matrix: (Units=1/GPa)
#
#
# Indices 1 2 3 4 5 6 
#
# 1 0.035365 -0.001599 0.010640 0.000000 -0.004565 0.000000
# 2 -0.001599 0.004840 -0.001953 0.000000 -0.003231 0.000000
# 3 0.010640 -0.001953 0.033021 0.000000 0.000839 0.000000
# 4 0.000000 0.000000 0.000000 0.007343 0.000000 0.020089
# 5 -0.004565 -0.003231 0.000839 0.000000 0.086821 0.000000
# 6 0.000000 0.000000 0.000000 0.020089 0.000000 0.015956
#
#
# Mechanical properties :
#
#
# Convention : Reuss Voigt Hill
#
# Bulk Modulus (GPa) = 11.44169 33.49780 22.46975
# Shear Modulus (GPa) = 25.21385 4.56540 14.88962
#
# Velocity S-wave (km/s) = 3.13502 1.33401 2.40914
# Velocity P-wave (km/s) = 4.19100 3.92813 4.06169
#
# Compressibility (1/GPa) = 0.08739966
#
# Stress axis : x y z
#
# Youngs Moduli (GPa) = 28.27679 206.62058 30.28366
#
# Poissons Ratio (x) = 0.33048 -0.32221
# Poissons Ratio (y) = 0.04523 0.05915
# Poissons Ratio (z) = -0.30086 0.40360
#
# Static dielectric constant tensor:
#      x y z
#    x 2.137180 0.000000 -0.064740 
#    y 0.000000 2.102610 0.000000 
#    z -0.064740 0.000000 2.168300 
# 
# From -- ./inp_files/148519.got.cif
#   From: 2010.05.17/outbox.cif.g08.bks.cpg/sg15_75_cif.got.tgz:148519.got - 2010.06.03 18:47:42.
