data_PCOD9257882
_publ_section_title
;
Structure prediction by ZEFSAII (Michael W. Deem and Ramdas Pophale) SiO2 
 PCOD9257882
Probable space group: C 2/C
;
_chemical_formula_sum "Si O2"
_cell_formula_units_Z 52
_cell_length_a 11.530515
_cell_length_b 16.042391
_cell_length_c 12.819585
_cell_angle_alpha 90.000000
_cell_angle_beta 113.008204
_cell_angle_gamma 90.000000
_cell_volume 2182.686940
_symmetry_space_group_name_H-M "C 2/C"
_symmetry_group_IT_number 15
_symmetry_cell_setting 'monoclinic'
loop_
_space_group_symop_operation_xyz
x,y,z
-x,y,1/2-z
-x,-y,-z
x,-y,1/2+z
1/2+x,1/2+y,z
1/2-x,1/2+y,1/2-z
1/2-x,1/2-y,-z
1/2+x,1/2-y,1/2+z
loop_
_atom_site_type_symbol
_atom_site_label
_atom_site_fract_x
_atom_site_fract_y
_atom_site_fract_z
Si Si1 0.096694 0.933774 0.943438
Si Si2 0.936852 0.492922 0.323288
Si Si3 0.814391 0.756962 0.839884
Si Si4 0.196132 0.946756 0.624359
Si Si5 0.000000 0.171779 0.250000
Si Si6 0.553128 0.866132 0.984381
Si Si7 0.833050 0.769165 0.424598
O O1 0.949698 0.959944 0.891655
O O2 0.109486 0.886803 0.837107
O O3 0.112955 0.861239 0.034862
O O4 0.191742 0.006392 0.010416
O O5 0.796427 0.514726 0.238335
O O6 0.022636 0.575488 0.374317
O O7 0.000000 0.445072 0.250000
O O8 0.943141 0.433506 0.422797
O O9 0.778323 0.848299 0.869043
O O10 0.947116 0.774325 0.825789
O O11 0.732848 0.728269 0.712135
O O12 0.831417 0.693598 0.941048
O O13 0.435002 0.803695 0.949903
O O14 0.750000 0.750000 0.500000
#
# Coordination Sequence:
#
# PCOD9257882 Si02
#       7
#     8   8   8   8   4   8   8
#     4  10  21  35  60  89 130 158 199 256 327 375
#     4  11  26  43  64  88 131 170 216 261 320 389
#     4  11  20  37  64  88 130 153 205 262 316 374
#     4  10  21  40  57  85 125 168 201 254 310 379
#     4  10  18  32  54  96 122 154 190 258 310 376
#     4  11  24  42  63  98 124 164 213 267 329 378
#     4  12  21  34  67 101 126 159 201 269 333 378
#
# _framework density 23.823846
#
# number of rings (size 3 to 8) (size 9 to 14) (size 15 to 20)
#    0.000    1.231    6.154    0.923    5.385    0.000 
#    2.769    0.769    1.692    0.000    0.000    0.000 
#    0.000    0.000    0.000    0.000    0.000    0.000 
#
# Total GULP energy -145113.050330 kJ/mol
# GULP energy per Si atom -5581.271167 kJ/mol
# Density = 2.376962 g / cm^3
# Si number density = 23.823846 Si / 1000 Ang^3
#
#
#
# Elastic Constant Matrix: (Units=GPa)
#
#
# Indices 1 2 3 4 5 6 
#
# 1 38.5415 5.5673 20.5476 0.0000 4.9673 0.0000
# 2 5.5673 99.9217 48.6642 0.0000 9.7451 0.0000
# 3 20.5476 48.6642 177.7775 0.0000 20.9817 0.0000
# 4 0.0000 0.0000 0.0000 41.0592 0.0000 2.1203
# 5 4.9673 9.7451 20.9817 0.0000 31.7388 0.0000
# 6 0.0000 0.0000 0.0000 2.1203 0.0000 10.0516
#
#
#
# Elastic Compliance Matrix: (Units=1/GPa)
#
#
# Indices 1 2 3 4 5 6 
#
# 1 0.027821 0.000131 -0.002964 0.000000 -0.002435 0.000000
# 2 0.000131 0.011621 -0.003007 0.000000 -0.001601 0.000000
# 3 -0.002964 -0.003007 0.007188 0.000000 -0.003364 0.000000
# 4 0.000000 0.000000 0.000000 0.024623 0.000000 -0.005194
# 5 -0.002435 -0.001601 -0.003364 0.000000 0.034604 0.000000
# 6 0.000000 0.000000 0.000000 -0.005194 0.000000 0.100582
#
#
# Mechanical properties :
#
#
# Convention : Reuss Voigt Hill
#
# Bulk Modulus (GPa) = 28.61282 51.75541 40.18412
# Shear Modulus (GPa) = 21.76085 32.66738 27.21411
#
# Velocity S-wave (km/s) = 3.02554 3.70700 3.38347
# Velocity P-wave (km/s) = 4.92356 6.33197 5.67165
#
# Compressibility (1/GPa) = 0.03494937
#
# Stress axis : x y z
#
# Youngs Moduli (GPa) = 35.94385 86.04875 139.12244
#
# Poissons Ratio (x) = -0.01127 0.41237
# Poissons Ratio (y) = -0.00471 0.41840
# Poissons Ratio (z) = 0.10654 0.25878
#
# Static dielectric constant tensor:
#      x y z
#    x 2.006260 0.000000 0.050810 
#    y 0.000000 1.955490 0.000000 
#    z 0.050810 0.000000 1.948000 
# 
# From -- ./inp_files/154963.got.cif
#   From: 2010.05.17/outbox.cif.g08.bks.cpg/sg15_78_cif.got.tgz:154963.got - 2010.06.03 18:47:42.
