data_PCOD9257766
_publ_section_title
;
Structure prediction by ZEFSAII (Michael W. Deem and Ramdas Pophale) SiO2 
 PCOD9257766
Probable space group: C 2/C
;
_chemical_formula_sum "Si O2"
_cell_formula_units_Z 52
_cell_length_a 11.351171
_cell_length_b 25.288168
_cell_length_c 12.890242
_cell_angle_alpha 90.000000
_cell_angle_beta 46.671729
_cell_angle_gamma 90.000000
_cell_volume 2691.614523
_symmetry_space_group_name_H-M "C 2/C"
_symmetry_group_IT_number 15
_symmetry_cell_setting 'monoclinic'
loop_
_space_group_symop_operation_xyz
x,y,z
-x,y,1/2-z
-x,-y,-z
x,-y,1/2+z
1/2+x,1/2+y,z
1/2-x,1/2+y,1/2-z
1/2-x,1/2-y,-z
1/2+x,1/2-y,1/2+z
loop_
_atom_site_type_symbol
_atom_site_label
_atom_site_fract_x
_atom_site_fract_y
_atom_site_fract_z
Si Si1 0.070680 0.945779 0.004710
Si Si2 0.217169 0.134274 0.864469
Si Si3 0.000000 0.434330 0.250000
Si Si4 0.683027 0.982938 0.492061
Si Si5 0.822781 0.141693 0.364035
Si Si6 0.152649 0.561955 0.330528
Si Si7 0.819551 0.740328 0.842877
O O1 0.150677 0.959253 0.066825
O O2 0.224668 0.932153 0.838625
O O3 0.934773 0.900071 0.082292
O O4 0.000000 0.000000 0.000000
O O5 0.382386 0.101162 0.749428
O O6 0.229214 0.196578 0.828115
O O7 0.209375 0.141079 0.994406
O O8 0.118833 0.471457 0.110265
O O9 0.534811 0.941985 0.584145
O O10 0.693402 0.008798 0.372008
O O11 0.689061 0.108990 0.386424
O O12 0.834682 0.198616 0.299427
O O13 0.000000 0.115289 0.250000
O O14 0.000000 0.718874 0.750000
O O15 0.750000 0.750000 0.000000
#
# Coordination Sequence:
#
# PCOD9257766 Si02
#       7
#     8   8   4   8   8   8   8
#     4  12  21  34  53  79 111 143 180 219 262 329
#     4  11  20  31  53  74 110 142 166 224 276 314
#     4  12  18  34  46  74 108 138 172 206 268 314
#     4  11  23  35  52  80 107 146 181 215 266 320
#     4  10  18  32  53  79 100 134 179 218 269 316
#     4  11  21  36  55  74 111 143 179 222 264 319
#     4   9  19  32  50  78 108 134 176 225 273 324
#
# _framework density 19.319261000000001
#
# number of rings (size 3 to 8) (size 9 to 14) (size 15 to 20)
#    0.000    1.231    6.923    0.000    0.000    0.000 
#    0.000    0.000    0.000    0.923    0.000    0.000 
#    0.000    0.000    0.000    0.000    0.000    0.000 
#
# Total GULP energy -144989.119348 kJ/mol
# GULP energy per Si atom -5576.504590 kJ/mol
# Density = 1.927529 g / cm^3
# Si number density = 19.319261 Si / 1000 Ang^3
#
#
#
# Elastic Constant Matrix: (Units=GPa)
#
#
# Indices 1 2 3 4 5 6 
#
# 1 113.2898 51.8645 5.2840 0.0000 -29.9931 0.0000
# 2 51.8645 91.9340 -3.7366 0.0000 -25.1472 0.0000
# 3 5.2840 -3.7366 50.0185 0.0000 -14.5204 0.0000
# 4 0.0000 0.0000 0.0000 15.4917 0.0000 -8.3791
# 5 -29.9931 -25.1472 -14.5204 0.0000 26.7156 0.0000
# 6 0.0000 0.0000 0.0000 -8.3791 0.0000 25.6004
#
#
#
# Elastic Compliance Matrix: (Units=1/GPa)
#
#
# Indices 1 2 3 4 5 6 
#
# 1 0.014129 -0.004414 0.001872 0.000000 0.012725 0.000000
# 2 -0.004414 0.017753 0.006180 0.000000 0.015114 0.000000
# 3 0.001872 0.006180 0.026781 0.000000 0.022475 0.000000
# 4 0.000000 0.000000 0.000000 0.078436 0.000000 0.025673
# 5 0.012725 0.015114 0.022475 0.000000 0.078159 0.000000
# 6 0.000000 0.000000 0.000000 0.025673 0.000000 0.047465
#
#
# Mechanical properties :
#
#
# Convention : Reuss Voigt Hill
#
# Bulk Modulus (GPa) = 15.16565 40.22956 27.69760
# Shear Modulus (GPa) = 18.02267 27.01688 22.51978
#
# Velocity S-wave (km/s) = 3.05763 3.74363 3.41789
# Velocity P-wave (km/s) = 4.50916 6.28929 5.47210
#
# Compressibility (1/GPa) = 0.06593850
#
# Stress axis : x y z
#
# Youngs Moduli (GPa) = 70.77451 56.32816 37.33995
#
# Poissons Ratio (x) = 0.24865 -0.06989
# Poissons Ratio (y) = 0.31242 -0.23077
# Poissons Ratio (z) = -0.13246 -0.34812
#
# Static dielectric constant tensor:
#      x y z
#    x 1.674460 0.000000 0.009380 
#    y 0.000000 1.787960 0.000000 
#    z 0.009380 0.000000 1.748200 
# 
# From -- ./inp_files/147826.got.cif
#   From: 2010.05.17/outbox.cif.g08.bks.cpg/sg15_74_cif.got.tgz:147826.got - 2010.06.03 18:47:42.
