data_PCOD9257282
_publ_section_title
;
Structure prediction by ZEFSAII (Michael W. Deem and Ramdas Pophale) SiO2 
 PCOD9257282
Probable space group: C 2/C
;
_chemical_formula_sum "Si O2"
_cell_formula_units_Z 64
_cell_length_a 20.473122
_cell_length_b 25.830747
_cell_length_c 9.326531
_cell_angle_alpha 90.000000
_cell_angle_beta 132.306292
_cell_angle_gamma 90.000000
_cell_volume 3647.648132
_symmetry_space_group_name_H-M "C 2/C"
_symmetry_group_IT_number 15
_symmetry_cell_setting 'monoclinic'
loop_
_space_group_symop_operation_xyz
x,y,z
-x,y,1/2-z
-x,-y,-z
x,-y,1/2+z
1/2+x,1/2+y,z
1/2-x,1/2+y,1/2-z
1/2-x,1/2-y,-z
1/2+x,1/2-y,1/2+z
loop_
_atom_site_type_symbol
_atom_site_label
_atom_site_fract_x
_atom_site_fract_y
_atom_site_fract_z
Si Si1 0.095544 0.737879 0.856444
Si Si2 0.221064 0.351975 0.158760
Si Si3 0.598450 0.685842 0.111423
Si Si4 0.899229 0.259913 0.631514
Si Si5 0.591655 0.944820 0.311429
Si Si6 0.402786 0.687724 0.887281
Si Si7 0.090680 0.554161 0.462733
Si Si8 0.274671 0.852134 0.990657
O O1 0.100728 0.759910 0.703798
O O2 0.173294 0.697602 0.994768
O O3 0.000000 0.713672 0.750000
O O4 0.098570 0.790157 0.953990
O O5 0.320610 0.349953 0.247525
O O6 0.225654 0.346111 0.337755
O O7 0.168668 0.303380 0.015570
O O8 0.166329 0.403709 0.047591
O O9 0.676464 0.649739 0.282218
O O10 0.612787 0.706071 0.972725
O O11 0.498856 0.666082 0.988412
O O12 0.890045 0.241037 0.779825
O O13 0.000000 0.277282 0.750000
O O14 0.500000 0.927095 0.250000
O O15 0.668250 0.903298 0.453484
O O16 0.611801 0.999391 0.418580
O O17 0.579977 0.950714 0.120723
O O18 0.000000 0.571384 0.250000
#
# Coordination Sequence:
#
# PCOD9257282 Si02
#       8
#     8   8   8   8   8   8   8   8
#     4  10  18  31  50  74 103 137 172 208 245 295
#     4  11  20  33  53  76 103 137 174 210 254 305
#     4  10  19  34  52  70 108 141 168 211 246 295
#     4  10  20  34  47  73 110 141 170 208 256 301
#     4  10  21  39  57  79 106 129 168 213 262 315
#     4  10  21  33  49  76 107 139 177 207 248 301
#     4  10  21  39  58  77 105 134 164 214 265 308
#     4  11  20  32  54  78 100 135 177 212 250 300
#
# _framework density 17.545551
#
# number of rings (size 3 to 8) (size 9 to 14) (size 15 to 20)
#    0.000    1.750    2.500    3.750    0.000    0.000 
#    9.000    0.000    0.000    0.750    0.000    0.000 
#    0.000    0.000    0.000    0.000    0.000    0.000 
#
# Total GULP energy -178455.272031 kJ/mol
# GULP energy per Si atom -5576.727251 kJ/mol
# Density = 1.750562 g / cm^3
# Si number density = 17.545551 Si / 1000 Ang^3
#
#
#
# Elastic Constant Matrix: (Units=GPa)
#
#
# Indices 1 2 3 4 5 6 
#
# 1 90.3434 48.0694 44.1041 0.0000 30.4592 0.0000
# 2 48.0694 56.5500 39.2442 0.0000 26.8088 0.0000
# 3 44.1041 39.2442 91.5602 0.0000 27.3900 0.0000
# 4 0.0000 0.0000 0.0000 20.6526 0.0000 1.8386
# 5 30.4592 26.8088 27.3900 0.0000 37.7480 0.0000
# 6 0.0000 0.0000 0.0000 1.8386 0.0000 21.1256
#
#
#
# Elastic Compliance Matrix: (Units=1/GPa)
#
#
# Indices 1 2 3 4 5 6 
#
# 1 0.021704 -0.013791 -0.002854 0.000000 -0.005648 0.000000
# 2 -0.013791 0.039968 -0.006802 0.000000 -0.012322 0.000000
# 3 -0.002854 -0.006802 0.016704 0.000000 -0.004986 0.000000
# 4 0.000000 0.000000 0.000000 0.048798 0.000000 -0.004247
# 5 -0.005648 -0.012322 -0.004986 0.000000 0.043418 0.000000
# 6 0.000000 0.000000 0.000000 -0.004247 0.000000 0.047706
#
#
# Mechanical properties :
#
#
# Convention : Reuss Voigt Hill
#
# Bulk Modulus (GPa) = 31.76435 55.69879 43.73157
# Shear Modulus (GPa) = 18.13655 23.04098 20.58876
#
# Velocity S-wave (km/s) = 3.21858 3.62775 3.42928
# Velocity P-wave (km/s) = 5.65293 7.02578 6.37641
#
# Compressibility (1/GPa) = 0.03148183
#
# Stress axis : x y z
#
# Youngs Moduli (GPa) = 46.07364 25.01987 59.86708
#
# Poissons Ratio (x) = 0.34506 0.17087
# Poissons Ratio (y) = 0.63541 0.40720
# Poissons Ratio (z) = 0.13150 0.17018
#
# Static dielectric constant tensor:
#      x y z
#    x 1.616510 0.000000 0.013500 
#    y 0.000000 1.553810 0.000000 
#    z 0.013500 0.000000 1.622530 
# 
# From -- ./inp_files/43590.got.cif
#   From: 2010.05.17/outbox.cif.g08.bks.cpg/sg15_22_cif.got.tgz:43590.got - 2010.06.03 18:47:42.
