data_PCOD9257991
_publ_section_title
;
Structure prediction by ZEFSAII (Michael W. Deem and Ramdas Pophale) SiO2 
 PCOD9257991
Probable space group: C 2/C
;
_chemical_formula_sum "Si O2"
_cell_formula_units_Z 36
_cell_length_a 6.693811
_cell_length_b 19.965760
_cell_length_c 11.108138
_cell_angle_alpha 90.000000
_cell_angle_beta 78.792735
_cell_angle_gamma 90.000000
_cell_volume 1456.259613
_symmetry_space_group_name_H-M "C 2/C"
_symmetry_group_IT_number 15
_symmetry_cell_setting 'monoclinic'
loop_
_space_group_symop_operation_xyz
x,y,z
-x,y,1/2-z
-x,-y,-z
x,-y,1/2+z
1/2+x,1/2+y,z
1/2-x,1/2+y,1/2-z
1/2-x,1/2-y,-z
1/2+x,1/2-y,1/2+z
loop_
_atom_site_type_symbol
_atom_site_label
_atom_site_fract_x
_atom_site_fract_y
_atom_site_fract_z
Si Si1 0.000000 0.754741 0.750000
Si Si2 0.775969 0.876982 0.666599
Si Si3 0.720916 0.397006 0.090936
Si Si4 0.247379 0.638611 0.643898
Si Si5 0.779613 0.057072 0.409357
O O1 0.845976 0.803174 0.697451
O O2 0.860228 0.710351 0.855236
O O3 0.679553 0.874022 0.545937
O O4 0.688934 0.913588 0.795471
O O5 0.985370 0.918770 0.621048
O O6 0.806753 0.380303 0.212128
O O7 0.494222 0.363966 0.115233
O O8 0.717340 0.477500 0.088148
O O9 0.191950 0.587490 0.543311
#
# Coordination Sequence:
#
# PCOD9257991 Si02
#       5
#     4   8   8   8   8
#     4  10  22  34  44  72 110 144 156 180 260 312
#     4   9  18  30  51  75 104 127 162 212 242 290
#     4  10  18  32  57  81  90 121 176 220 239 268
#     4  10  19  32  52  73 103 131 163 202 243 301
#     4   9  16  31  55  80  94 121 169 216 250 276
#
# _framework density 24.720866000000001
#
# number of rings (size 3 to 8) (size 9 to 14) (size 15 to 20)
#    0.000    2.667    0.000    6.667    0.000    8.889 
#    0.000    1.111    0.000    1.333    0.000   28.000 
#    0.000    0.000    0.000    0.000    0.000    0.000 
#
# Total GULP energy -100531.563323 kJ/mol
# GULP energy per Si atom -5585.086851 kJ/mol
# Density = 2.466460 g / cm^3
# Si number density = 24.720866 Si / 1000 Ang^3
#
#
#
# Elastic Constant Matrix: (Units=GPa)
#
#
# Indices 1 2 3 4 5 6 
#
# 1 81.1494 13.0254 38.6476 0.0000 6.1275 0.0000
# 2 13.0254 120.1480 17.9324 0.0000 -10.6717 0.0000
# 3 38.6476 17.9324 183.1486 0.0000 4.8281 0.0000
# 4 0.0000 0.0000 0.0000 82.8553 0.0000 -7.9870
# 5 6.1275 -10.6717 4.8281 0.0000 47.4468 0.0000
# 6 0.0000 0.0000 0.0000 -7.9870 0.0000 -31.3680
#
#
#
# Elastic Compliance Matrix: (Units=1/GPa)
#
#
# Indices 1 2 3 4 5 6 
#
# 1 0.013986 -0.001262 -0.002780 0.000000 -0.001807 0.000000
# 2 -0.001262 0.008752 -0.000649 0.000000 0.002197 0.000000
# 3 -0.002780 -0.000649 0.006121 0.000000 -0.000410 0.000000
# 4 0.000000 0.000000 0.000000 0.011780 0.000000 -0.002999
# 5 -0.001807 0.002197 -0.000410 0.000000 0.021846 0.000000
# 6 0.000000 0.000000 0.000000 -0.002999 0.000000 -0.031116
#
#
# Mechanical properties :
#
#
# Convention : Reuss Voigt Hill
#
# Bulk Modulus (GPa) = 51.34041 58.18411 54.76226
# Shear Modulus (GPa) = 105.83763 40.77618 73.30691
#
# Velocity S-wave (km/s) = 6.55027 4.06577 5.45144
# Velocity P-wave (km/s) = 8.83296 6.75486 7.86286
#
# Compressibility (1/GPa) = 0.01947784
#
# Stress axis : x y z
#
# Youngs Moduli (GPa) = 71.50026 114.26164 163.37200
#
# Poissons Ratio (x) = 0.14418 0.45419
# Poissons Ratio (y) = 0.09022 0.10596
# Poissons Ratio (z) = 0.19878 0.07411
#
# Static dielectric constant tensor:
#      x y z
#    x 2.167450 0.000000 0.028380 
#    y 0.000000 1.917730 0.000000 
#    z 0.028380 0.000000 2.005930 
# 
# From -- ./inp_files/76565.got.cif
#   From: 2010.05.17/outbox.cif.g08.bks.cpg/sg15_39_cif.got.tgz:76565.got - 2010.06.03 18:47:42.
