data_PCOD9257758
_publ_section_title
;
Structure prediction by ZEFSAII (Michael W. Deem and Ramdas Pophale) SiO2 
 PCOD9257758
Probable space group: C 2/C
;
_chemical_formula_sum "Si O2"
_cell_formula_units_Z 64
_cell_length_a 8.702062
_cell_length_b 24.115639
_cell_length_c 21.915367
_cell_angle_alpha 90.000000
_cell_angle_beta 46.611288
_cell_angle_gamma 90.000000
_cell_volume 3342.187762
_symmetry_space_group_name_H-M "C 2/C"
_symmetry_group_IT_number 15
_symmetry_cell_setting 'monoclinic'
loop_
_space_group_symop_operation_xyz
x,y,z
-x,y,1/2-z
-x,-y,-z
x,-y,1/2+z
1/2+x,1/2+y,z
1/2-x,1/2+y,1/2-z
1/2-x,1/2-y,-z
1/2+x,1/2-y,1/2+z
loop_
_atom_site_type_symbol
_atom_site_label
_atom_site_fract_x
_atom_site_fract_y
_atom_site_fract_z
Si Si1 0.547652 0.261074 0.877604
Si Si2 0.657930 0.832614 0.793334
Si Si3 0.333704 0.359240 0.580933
Si Si4 0.242808 0.142722 0.660887
Si Si5 0.273246 0.758805 0.345135
Si Si6 0.545233 0.359472 0.089544
Si Si7 0.259222 0.060379 0.290510
Si Si8 0.196336 0.435824 0.243325
O O1 0.718018 0.292423 0.787087
O O2 0.529365 0.306366 0.935602
O O3 0.642470 0.201247 0.864855
O O4 0.337080 0.248428 0.897508
O O5 0.409948 0.838598 0.847990
O O6 0.701390 0.802088 0.844077
O O7 0.752144 0.893514 0.758966
O O8 0.375486 0.372682 0.499528
O O9 0.363837 0.411360 0.618674
O O10 0.335075 0.095779 0.682595
O O11 0.000000 0.149005 0.750000
O O12 0.223332 0.134862 0.593245
O O13 0.500000 0.774498 0.250000
O O14 0.085999 0.801115 0.378412
O O15 0.372201 0.402264 0.159373
O O16 0.500000 0.058903 0.250000
O O17 0.221956 0.999181 0.275254
O O18 0.000000 0.434739 0.250000
#
# Coordination Sequence:
#
# PCOD9257758 Si02
#       8
#     8   8   8   8   8   8   8   8
#     4  10  18  32  53  76 105 140 179 218 254 300
#     4   9  17  33  54  76 102 137 179 218 257 307
#     4  10  20  34  52  78 110 141 172 206 259 320
#     4  10  19  32  51  76 102 134 175 213 254 306
#     4  10  19  32  51  76 108 140 177 220 258 300
#     4  11  22  33  50  79 111 140 169 210 262 316
#     4   8  17  34  58  77  95 134 179 217 256 305
#     4  10  19  36  58  75  96 133 181 224 261 302
#
# _framework density 19.149134
#
# number of rings (size 3 to 8) (size 9 to 14) (size 15 to 20)
#    0.000    2.250    0.000    6.750    0.000    3.000 
#    0.000   10.625    0.000    6.750    0.000    0.000 
#    0.000    1.000    0.000    0.000    0.000    0.000 
#
# Total GULP energy -178155.366553 kJ/mol
# GULP energy per Si atom -5567.355205 kJ/mol
# Density = 1.910555 g / cm^3
# Si number density = 19.149134 Si / 1000 Ang^3
#
#
#
# Elastic Constant Matrix: (Units=GPa)
#
#
# Indices 1 2 3 4 5 6 
#
# 1 82.4510 50.5790 16.0560 0.0000 21.7228 0.0000
# 2 50.5790 158.2443 35.9042 0.0000 29.0138 0.0000
# 3 16.0560 35.9042 43.4380 0.0000 18.7227 0.0000
# 4 0.0000 0.0000 0.0000 1.8158 0.0000 5.6436
# 5 21.7228 29.0138 18.7227 0.0000 16.8535 0.0000
# 6 0.0000 0.0000 0.0000 5.6436 0.0000 22.8099
#
#
#
# Elastic Compliance Matrix: (Units=1/GPa)
#
#
# Indices 1 2 3 4 5 6 
#
# 1 0.020153 -0.002712 0.007629 0.000000 -0.029782 0.000000
# 2 -0.002712 0.009650 -0.002533 0.000000 -0.010303 0.000000
# 3 0.007629 -0.002533 0.047304 0.000000 -0.058024 0.000000
# 4 0.000000 0.000000 0.000000 2.384274 0.000000 -0.589917
# 5 -0.029782 -0.010303 -0.058024 0.000000 0.179919 0.000000
# 6 0.000000 0.000000 0.000000 -0.589917 0.000000 0.189798
#
#
# Mechanical properties :
#
#
# Convention : Reuss Voigt Hill
#
# Bulk Modulus (GPa) = 12.21356 54.35684 33.28520
# Shear Modulus (GPa) = 1.75216 20.40211 11.07713
#
# Velocity S-wave (km/s) = 0.95760 3.26764 2.40774
# Velocity P-wave (km/s) = 2.75946 6.53332 5.01492
#
# Compressibility (1/GPa) = 0.08187623
#
# Stress axis : x y z
#
# Youngs Moduli (GPa) = 49.62071 103.62778 21.13969
#
# Poissons Ratio (x) = 0.28102 -0.16128
# Poissons Ratio (y) = 0.13456 0.05354
# Poissons Ratio (z) = -0.37857 0.26247
#
# Static dielectric constant tensor:
#      x y z
#    x 1.763590 0.000000 0.039120 
#    y 0.000000 1.690080 0.000000 
#    z 0.039120 0.000000 1.735980 
# 
# From -- ./inp_files/234435.got.cif
#   From: 2010.05.17/outbox.cif.g08.bks.cpg/sg15_118_cif.got.tgz:234435.got - 2010.06.03 18:47:42.
