data_PCOD9257702
_publ_section_title
;
Structure prediction by ZEFSAII (Michael W. Deem and Ramdas Pophale) SiO2 
 PCOD9257702
Probable space group: C 2/C
;
_chemical_formula_sum "Si O2"
_cell_formula_units_Z 64
_cell_length_a 17.477446
_cell_length_b 20.002959
_cell_length_c 12.697918
_cell_angle_alpha 90.000000
_cell_angle_beta 132.635235
_cell_angle_gamma 90.000000
_cell_volume 3265.833878
_symmetry_space_group_name_H-M "C 2/C"
_symmetry_group_IT_number 15
_symmetry_cell_setting 'monoclinic'
loop_
_space_group_symop_operation_xyz
x,y,z
-x,y,1/2-z
-x,-y,-z
x,-y,1/2+z
1/2+x,1/2+y,z
1/2-x,1/2+y,1/2-z
1/2-x,1/2-y,-z
1/2+x,1/2-y,1/2+z
loop_
_atom_site_type_symbol
_atom_site_label
_atom_site_fract_x
_atom_site_fract_y
_atom_site_fract_z
Si Si1 0.949187 0.692535 0.587100
Si Si2 0.069597 0.401007 0.063319
Si Si3 0.251021 0.602137 0.093062
Si Si4 0.081973 0.521590 0.229976
Si Si5 0.048421 0.955412 0.195030
Si Si6 0.090042 0.841660 0.922027
Si Si7 0.769723 0.442912 0.458560
Si Si8 0.929920 0.914013 0.910230
O O1 0.856853 0.639372 0.496380
O O2 0.900435 0.766092 0.527993
O O3 0.000000 0.689775 0.750000
O O4 0.034946 0.668832 0.582220
O O5 0.100254 0.451510 0.187322
O O6 0.159181 0.403999 0.059058
O O7 0.971443 0.432342 0.908348
O O8 0.310285 0.627132 0.042558
O O9 0.230230 0.522821 0.067778
O O10 0.329850 0.619210 0.263090
O O11 0.180628 0.556157 0.378254
O O12 0.000000 0.511500 0.250000
O O13 0.151840 0.919828 0.331064
O O14 0.000000 0.993421 0.250000
O O15 0.082083 0.009991 0.141149
O O16 0.955525 0.913469 0.056747
O O17 0.000000 0.838743 0.750000
O O18 0.037383 0.886436 0.961716
#
# Coordination Sequence:
#
# PCOD9257702 Si02
#       8
#     8   8   8   8   8   8   8   8
#     4  11  21  32  50  77 106 140 177 214 256 310
#     4  10  19  31  47  74 108 141 174 210 260 320
#     4  10  18  32  52  75 104 138 172 209 264 316
#     4   9  17  30  46  69 105 140 171 211 261 316
#     4  10  20  33  52  76  99 127 168 215 267 321
#     4   9  19  35  53  74 103 136 174 218 258 309
#     4  10  20  31  50  77 104 136 170 216 273 318
#     4   9  19  35  52  73 100 131 168 213 265 318
#
# _framework density 19.596834000000001
#
# number of rings (size 3 to 8) (size 9 to 14) (size 15 to 20)
#    0.000    2.250    0.000    5.625    0.000    6.000 
#    0.000    0.000    0.000    2.250    0.000    2.625 
#    0.000    0.000    0.000    0.000    0.000    0.000 
#
# Total GULP energy -178315.471545 kJ/mol
# GULP energy per Si atom -5572.358486 kJ/mol
# Density = 1.955223 g / cm^3
# Si number density = 19.596834 Si / 1000 Ang^3
#
#
#
# Elastic Constant Matrix: (Units=GPa)
#
#
# Indices 1 2 3 4 5 6 
#
# 1 62.7477 22.2763 30.5731 0.0000 0.4258 0.0000
# 2 22.2763 46.5228 6.1963 0.0000 -7.0501 0.0000
# 3 30.5731 6.1963 116.9522 0.0000 2.2673 0.0000
# 4 0.0000 0.0000 0.0000 12.6536 0.0000 -1.6970
# 5 0.4258 -7.0501 2.2673 0.0000 25.1546 0.0000
# 6 0.0000 0.0000 0.0000 -1.6970 0.0000 30.1985
#
#
#
# Elastic Compliance Matrix: (Units=1/GPa)
#
#
# Indices 1 2 3 4 5 6 
#
# 1 0.022156 -0.010343 -0.005190 0.000000 -0.002806 0.000000
# 2 -0.010343 0.027480 0.001097 0.000000 0.007778 0.000000
# 3 -0.005190 0.001097 0.009859 0.000000 -0.000493 0.000000
# 4 0.000000 0.000000 0.000000 0.079629 0.000000 0.004475
# 5 -0.002806 0.007778 -0.000493 0.000000 0.042026 0.000000
# 6 0.000000 0.000000 0.000000 0.004475 0.000000 0.033366
#
#
# Mechanical properties :
#
#
# Convention : Reuss Voigt Hill
#
# Bulk Modulus (GPa) = 32.65441 38.25711 35.45576
# Shear Modulus (GPa) = 19.71649 24.74647 22.23148
#
# Velocity S-wave (km/s) = 3.17536 3.55742 3.37180
# Velocity P-wave (km/s) = 5.49028 6.03640 5.76980
#
# Compressibility (1/GPa) = 0.03062373
#
# Stress axis : x y z
#
# Youngs Moduli (GPa) = 45.13359 36.39016 101.43437
#
# Poissons Ratio (x) = 0.37639 0.52641
# Poissons Ratio (y) = 0.46682 -0.11129
# Poissons Ratio (z) = 0.23423 -0.03993
#
# Static dielectric constant tensor:
#      x y z
#    x 1.749650 0.000000 -0.008200 
#    y 0.000000 1.691040 0.000000 
#    z -0.008200 0.000000 1.766380 
# 
# From -- ./inp_files/107515.got.cif
#   From: 2010.05.17/outbox.cif.g08.bks.cpg/sg15_54_cif.got.tgz:107515.got - 2010.06.03 18:47:42.
