data_PCOD9257281
_publ_section_title
;
Structure prediction by ZEFSAII (Michael W. Deem and Ramdas Pophale) SiO2 
 PCOD9257281
Probable space group: C 2/C
;
_chemical_formula_sum "Si O2"
_cell_formula_units_Z 48
_cell_length_a 26.536246
_cell_length_b 13.946983
_cell_length_c 24.900444
_cell_angle_alpha 90.000000
_cell_angle_beta 15.601900
_cell_angle_gamma 90.000000
_cell_volume 2478.570281
_symmetry_space_group_name_H-M "C 2/C"
_symmetry_group_IT_number 15
_symmetry_cell_setting 'monoclinic'
loop_
_space_group_symop_operation_xyz
x,y,z
-x,y,1/2-z
-x,-y,-z
x,-y,1/2+z
1/2+x,1/2+y,z
1/2-x,1/2+y,1/2-z
1/2-x,1/2-y,-z
1/2+x,1/2-y,1/2+z
loop_
_atom_site_type_symbol
_atom_site_label
_atom_site_fract_x
_atom_site_fract_y
_atom_site_fract_z
Si Si1 0.647731 0.346250 0.849567
Si Si2 0.880721 0.829926 0.495294
Si Si3 0.191207 0.388500 0.462968
Si Si4 0.218879 0.374441 0.262787
Si Si5 0.941759 0.484319 0.489056
Si Si6 0.281535 0.638780 0.983483
O O1 0.667351 0.236398 0.810848
O O2 0.793315 0.409544 0.666721
O O3 0.682513 0.344994 0.878406
O O4 0.436927 0.381653 0.053569
O O5 0.890226 0.715716 0.471869
O O6 0.757285 0.872046 0.572424
O O7 0.088565 0.873939 0.277438
O O8 0.109597 0.479217 0.516270
O O9 0.175138 0.407738 0.542886
O O10 0.096613 0.420768 0.436020
O O11 0.145203 0.437465 0.288565
O O12 0.500000 0.617343 0.750000
O O13 0.250000 0.750000 0.000000
#
# Coordination Sequence:
#
# PCOD9257281 Si02
#       6
#     8   8   8   8   8   8
#     4  12  20  37  53  77 113 148 185 222 280 326
#     4  10  18  31  50  73 106 148 175 216 271 325
#     4  10  19  33  50  76 106 146 182 222 265 325
#     4  11  23  35  52  76 109 154 184 226 269 330
#     4  11  23  35  52  78 109 149 190 226 272 328
#     4   8  16  29  48  71 101 137 183 206 260 326
#
# _framework density 19.366004
#
# number of rings (size 3 to 8) (size 9 to 14) (size 15 to 20)
#    0.000    1.667    5.000    0.500    0.000    0.000 
#    0.000    0.000    0.000    0.000    0.000    0.000 
#    0.000   21.333    0.000    0.167    0.000    0.000 
#
# Total GULP energy -133956.017505 kJ/mol
# GULP energy per Si atom -5581.500729 kJ/mol
# Density = 1.932193 g / cm^3
# Si number density = 19.366004 Si / 1000 Ang^3
#
#
#
# Elastic Constant Matrix: (Units=GPa)
#
#
# Indices 1 2 3 4 5 6 
#
# 1 177.9318 56.2365 35.8021 0.0133 -26.2496 -0.0043
# 2 56.2365 81.0736 35.9261 0.0224 -12.8029 -0.0107
# 3 35.8021 35.9261 72.5442 0.0224 -7.9597 -0.0076
# 4 0.0133 0.0224 0.0224 28.8509 -0.0102 -7.3551
# 5 -26.2496 -12.8029 -7.9597 -0.0102 20.4804 0.0017
# 6 -0.0043 -0.0107 -0.0076 -7.3551 0.0017 38.5675
#
#
#
# Elastic Compliance Matrix: (Units=1/GPa)
#
#
# Indices 1 2 3 4 5 6 
#
# 1 0.008249 -0.003955 -0.001278 0.000003 0.007604 0.000000
# 2 -0.003955 0.018766 -0.006905 -0.000005 0.003979 0.000002
# 3 -0.001278 -0.006905 0.017947 -0.000008 0.001020 0.000000
# 4 0.000003 -0.000005 -0.000008 0.036432 0.000015 0.006948
# 5 0.007604 0.003979 0.001020 0.000015 0.061456 0.000002
# 6 0.000000 0.000002 0.000000 0.006948 0.000002 0.027254
#
#
# Mechanical properties :
#
#
# Convention : Reuss Voigt Hill
#
# Bulk Modulus (GPa) = 48.34253 65.27546 56.80899
# Shear Modulus (GPa) = 24.84158 31.15209 27.99683
#
# Velocity S-wave (km/s) = 3.58542 4.01508 3.80632
# Velocity P-wave (km/s) = 6.49285 7.43464 6.97965
#
# Compressibility (1/GPa) = 0.02068572
#
# Stress axis : x y z
#
# Youngs Moduli (GPa) = 121.22723 53.28839 55.71928
#
# Poissons Ratio (x) = 0.21074 0.07122
# Poissons Ratio (y) = 0.47942 0.38475
# Poissons Ratio (z) = 0.15496 0.36796
#
# Static dielectric constant tensor:
#      x y z
#    x 1.778010 0.000000 -0.039910 
#    y 0.000000 1.661220 0.000010 
#    z -0.039910 0.000010 1.747520 
# 
# From -- ./inp_files/282040.got.cif
#   From: 2010.05.17/outbox.cif.g08.bks.cpg/sg15_142_cif.got.tgz:282040.got - 2010.06.03 18:47:42.
