data_PCOD9257032
_publ_section_title
;
Structure prediction by ZEFSAII (Michael W. Deem and Ramdas Pophale) SiO2 
 PCOD9257032
Probable space group: C 2/C
;
_chemical_formula_sum "Si O2"
_cell_formula_units_Z 56
_cell_length_a 8.951506
_cell_length_b 24.266015
_cell_length_c 13.417114
_cell_angle_alpha 90.000000
_cell_angle_beta 107.144213
_cell_angle_gamma 90.000000
_cell_volume 2784.930043
_symmetry_space_group_name_H-M "C 2/C"
_symmetry_group_IT_number 15
_symmetry_cell_setting 'monoclinic'
loop_
_space_group_symop_operation_xyz
x,y,z
-x,y,1/2-z
-x,-y,-z
x,-y,1/2+z
1/2+x,1/2+y,z
1/2-x,1/2+y,1/2-z
1/2-x,1/2-y,-z
1/2+x,1/2-y,1/2+z
loop_
_atom_site_type_symbol
_atom_site_label
_atom_site_fract_x
_atom_site_fract_y
_atom_site_fract_z
Si Si1 0.186083 0.894346 0.270659
Si Si2 0.309732 0.674139 0.445322
Si Si3 0.390093 0.083889 0.005981
Si Si4 0.970712 0.919481 0.862746
Si Si5 0.702733 0.034073 0.040433
Si Si6 0.339249 0.278031 0.171865
Si Si7 0.314704 0.998230 0.730439
O O1 0.276497 0.906621 0.390716
O O2 0.209532 0.828627 0.265274
O O3 0.258639 0.938033 0.207636
O O4 0.000000 0.904272 0.250000
O O5 0.157570 0.633864 0.430955
O O6 0.433897 0.635695 0.415641
O O7 0.360290 0.695441 0.564983
O O8 0.272743 0.726908 0.370523
O O9 0.352914 0.020359 0.029546
O O10 0.569805 0.080859 0.006819
O O11 0.000000 0.909874 0.750000
O O12 0.121758 0.947258 0.942335
O O13 0.819866 0.958807 0.839661
O O14 0.701138 0.016547 0.155550
O O15 0.500000 0.256979 0.250000
O O16 0.500000 0.991299 0.750000
#
# Coordination Sequence:
#
# PCOD9257032 Si02
#       7
#     8   8   8   8   8   8   8
#     4   9  17  34  54  73 105 144 181 231 285 333
#     4  10  20  36  60  86 109 148 202 241 282 344
#     4   9  17  31  52  77 108 144 184 226 276 339
#     4  10  21  35  54  85 123 154 186 233 285 342
#     4   9  18  32  48  78 121 152 176 227 290 337
#     4   9  20  38  60  82 109 147 196 247 289 334
#     4  10  18  30  51  79 112 151 188 224 280 346
#
# _framework density 20.108225000000001
#
# number of rings (size 3 to 8) (size 9 to 14) (size 15 to 20)
#    0.000    2.571    0.000    3.000    0.000    3.429 
#    0.000   13.571    0.000   12.000    0.000    0.000 
#    0.000    0.000    0.000    0.000    0.000    0.000 
#
# Total GULP energy -155945.352055 kJ/mol
# GULP energy per Si atom -5569.476859 kJ/mol
# Density = 2.006246 g / cm^3
# Si number density = 20.108225 Si / 1000 Ang^3
#
#
#
# Elastic Constant Matrix: (Units=GPa)
#
#
# Indices 1 2 3 4 5 6 
#
# 1 119.0894 47.6776 31.4270 0.0000 18.3180 0.0000
# 2 47.6776 85.8896 21.1980 0.0000 7.8269 0.0000
# 3 31.4270 21.1980 48.6307 0.0000 21.9355 0.0000
# 4 0.0000 0.0000 0.0000 29.4601 0.0000 -2.7692
# 5 18.3180 7.8269 21.9355 0.0000 34.5737 0.0000
# 6 0.0000 0.0000 0.0000 -2.7692 0.0000 34.9769
#
#
#
# Elastic Compliance Matrix: (Units=1/GPa)
#
#
# Indices 1 2 3 4 5 6 
#
# 1 0.012086 -0.005412 -0.004365 0.000000 -0.002409 0.000000
# 2 -0.005412 0.015491 -0.004156 0.000000 0.001997 0.000000
# 3 -0.004365 -0.004156 0.033240 0.000000 -0.017836 0.000000
# 4 0.000000 0.000000 0.000000 0.034199 0.000000 0.002708
# 5 -0.002409 0.001997 -0.017836 0.000000 0.041064 0.000000
# 6 0.000000 0.000000 0.000000 0.002708 0.000000 0.028805
#
#
# Mechanical properties :
#
#
# Convention : Reuss Voigt Hill
#
# Bulk Modulus (GPa) = 30.34700 50.46833 40.40766
# Shear Modulus (GPa) = 24.54169 30.02261 27.28215
#
# Velocity S-wave (km/s) = 3.49733 3.86819 3.68743
# Velocity P-wave (km/s) = 5.60651 6.71591 6.18613
#
# Compressibility (1/GPa) = 0.03295219
#
# Stress axis : x y z
#
# Youngs Moduli (GPa) = 82.73835 64.55401 30.08381
#
# Poissons Ratio (x) = 0.34939 0.13131
# Poissons Ratio (y) = 0.44781 0.12502
# Poissons Ratio (z) = 0.36113 0.26826
#
# Static dielectric constant tensor:
#      x y z
#    x 1.717870 0.000000 -0.040520 
#    y 0.000000 1.765660 0.000000 
#    z -0.040520 0.000000 1.822500 
# 
# From -- ./inp_files/137437.got.cif
#   From: 2010.05.17/outbox.cif.g08.bks.cpg/sg15_69_cif.got.tgz:137437.got - 2010.06.03 18:47:42.
