data_PCOD9257070
_publ_section_title
;
Structure prediction by ZEFSAII (Michael W. Deem and Ramdas Pophale) SiO2 
 PCOD9257070
Probable space group: C 2/C
;
_chemical_formula_sum "Si O2"
_cell_formula_units_Z 44
_cell_length_a 15.127111
_cell_length_b 13.782960
_cell_length_c 18.033838
_cell_angle_alpha 90.000000
_cell_angle_beta 153.108910
_cell_angle_gamma 90.000000
_cell_volume 1700.628375
_symmetry_space_group_name_H-M "C 2/C"
_symmetry_group_IT_number 15
_symmetry_cell_setting 'monoclinic'
loop_
_space_group_symop_operation_xyz
x,y,z
-x,y,1/2-z
-x,-y,-z
x,-y,1/2+z
1/2+x,1/2+y,z
1/2-x,1/2+y,1/2-z
1/2-x,1/2-y,-z
1/2+x,1/2-y,1/2+z
loop_
_atom_site_type_symbol
_atom_site_label
_atom_site_fract_x
_atom_site_fract_y
_atom_site_fract_z
Si Si1 0.895345 0.536277 0.594479
Si Si2 0.764684 0.368340 0.810496
Si Si3 0.187627 0.859611 0.445348
Si Si4 0.156720 0.403352 0.154401
Si Si5 0.500000 0.366037 0.750000
Si Si6 0.052501 0.894354 0.505325
O O1 0.865553 0.424579 0.550761
O O2 0.675740 0.578866 0.424193
O O3 0.000000 0.552832 0.750000
O O4 0.036816 0.579567 0.639552
O O5 0.776288 0.489658 0.826951
O O6 0.631085 0.325855 0.778183
O O7 0.667198 0.347990 0.658938
O O8 0.995097 0.346847 0.986561
O O9 0.250000 0.750000 0.500000
O O10 0.164299 0.900989 0.511454
O O11 0.000000 0.869278 0.250000
O O12 0.500000 0.500000 0.500000
O O13 0.350493 0.349426 0.324914
#
# Coordination Sequence:
#
# PCOD9257070 Si02
#       6
#     8   8   8   8   4   8
#     4  11  19  32  55  79 118 165 210 256 318 386
#     4   9  17  28  48  78 112 150 198 254 322 373
#     4  12  27  43  59  88 134 183 222 260 324 411
#     4   9  18  28  50  82 107 153 204 258 320 376
#     4  10  18  30  52  86 122 160 200 260 328 386
#     4  10  20  38  58  83 117 167 218 269 323 380
#
# _framework density 25.872789000000001
#
# number of rings (size 3 to 8) (size 9 to 14) (size 15 to 20)
#    0.000    1.818    0.909    6.000    7.636    0.000 
#    0.000    0.000    0.000    0.000    0.000    0.000 
#    0.000    5.818   11.818    4.545    0.000    0.000 
#
# Total GULP energy -122922.335759 kJ/mol
# GULP energy per Si atom -5587.378898 kJ/mol
# Density = 2.581390 g / cm^3
# Si number density = 25.872789 Si / 1000 Ang^3
#
#
#
# Elastic Constant Matrix: (Units=GPa)
#
#
# Indices 1 2 3 4 5 6 
#
# 1 154.7608 7.1609 45.9502 0.0022 -25.4946 0.0019
# 2 7.1609 52.4798 11.5081 -0.0061 -10.5268 -0.0016
# 3 45.9502 11.5081 199.9492 0.0004 -32.8463 0.0011
# 4 0.0022 -0.0061 0.0004 33.6319 0.0003 -8.8112
# 5 -25.4946 -10.5268 -32.8463 0.0003 56.6690 0.0006
# 6 0.0019 -0.0016 0.0011 -8.8112 0.0006 -10.7030
#
#
#
# Elastic Compliance Matrix: (Units=1/GPa)
#
#
# Indices 1 2 3 4 5 6 
#
# 1 0.007253 -0.000215 -0.001243 0.000000 0.002502 0.000001
# 2 -0.000215 0.019862 -0.000557 0.000002 0.003270 -0.000005
# 3 -0.001243 -0.000557 0.005758 0.000000 0.002675 0.000001
# 4 0.000000 0.000002 0.000000 0.024458 0.000000 -0.020135
# 5 0.002502 0.003270 0.002675 0.000000 0.020930 0.000001
# 6 0.000001 -0.000005 0.000001 -0.020135 0.000001 -0.076855
#
#
# Mechanical properties :
#
#
# Convention : Reuss Voigt Hill
#
# Bulk Modulus (GPa) = 34.66951 59.60313 47.13632
# Shear Modulus (GPa) = 332.19269 38.75762 185.47515
#
# Velocity S-wave (km/s) = 11.34343 3.87461 8.47602
# Velocity P-wave (km/s) = 13.60123 6.56535 10.67936
#
# Compressibility (1/GPa) = 0.02884379
#
# Stress axis : x y z
#
# Youngs Moduli (GPa) = 137.87532 50.34666 173.65770
#
# Poissons Ratio (x) = 0.01083 0.21592
# Poissons Ratio (y) = 0.02965 0.09665
# Poissons Ratio (z) = 0.17143 0.02802
#
# Static dielectric constant tensor:
#      x y z
#    x 2.054100 0.000100 0.061700 
#    y 0.000100 2.015140 0.000090 
#    z 0.061700 0.000090 2.152490 
# 
# From -- ./inp_files/249941.got.cif
#   From: 2010.05.17/outbox.cif.g08.bks.cpg/sg15_125_cif.got.tgz:249941.got - 2010.06.03 18:47:42.
