data_PCOD9257876
_publ_section_title
;
Structure prediction by ZEFSAII (Michael W. Deem and Ramdas Pophale) SiO2 
 PCOD9257876
Probable space group: C 2/C
;
_chemical_formula_sum "Si O2"
_cell_formula_units_Z 60
_cell_length_a 14.914701
_cell_length_b 13.385383
_cell_length_c 28.549640
_cell_angle_alpha 90.000000
_cell_angle_beta 31.256557
_cell_angle_gamma 90.000000
_cell_volume 2957.368654
_symmetry_space_group_name_H-M "C 2/C"
_symmetry_group_IT_number 15
_symmetry_cell_setting 'monoclinic'
loop_
_space_group_symop_operation_xyz
x,y,z
-x,y,1/2-z
-x,-y,-z
x,-y,1/2+z
1/2+x,1/2+y,z
1/2-x,1/2+y,1/2-z
1/2-x,1/2-y,-z
1/2+x,1/2-y,1/2+z
loop_
_atom_site_type_symbol
_atom_site_label
_atom_site_fract_x
_atom_site_fract_y
_atom_site_fract_z
Si Si1 0.000123 0.540131 0.647122
Si Si2 0.408307 0.732009 0.393848
Si Si3 0.041346 0.748779 0.370828
Si Si4 0.728069 0.606331 0.491684
Si Si5 0.500000 0.063839 0.750000
Si Si6 0.773971 0.887095 0.714067
Si Si7 0.716401 0.727881 0.888996
Si Si8 0.599646 0.396605 0.946021
O O1 0.825890 0.477716 0.714471
O O2 0.993940 0.659607 0.648944
O O3 0.178243 0.500768 0.544087
O O4 0.022796 0.509249 0.691379
O O5 0.250000 0.750000 0.500000
O O6 0.539175 0.645035 0.349810
O O7 0.332658 0.715745 0.375271
O O8 0.152422 0.709070 0.278129
O O9 0.150900 0.729362 0.369099
O O10 0.873771 0.678214 0.447679
O O11 0.960261 0.860504 0.405059
O O12 0.702947 0.626422 0.447394
O O13 0.332357 0.133875 0.821858
O O14 0.799560 0.905158 0.647437
O O15 0.548056 0.687832 0.991415
O O16 0.500000 0.500000 0.000000
#
# Coordination Sequence:
#
# PCOD9257876 Si02
#       8
#     8   8   8   8   4   8   8   8
#     4  10  20  35  56  88 124 155 203 253 310 371
#     4  11  22  39  57  91 123 161 206 258 312 367
#     4   9  19  35  54  87 116 165 206 244 305 371
#     4   9  19  34  56  84 123 160 199 248 313 378
#     4  10  18  32  54  90 120 148 184 260 314 370
#     4  11  22  36  58  90 126 159 205 261 309 372
#     4  10  19  34  56  82 120 159 206 246 304 372
#     4  11  20  32  56  90 120 154 195 255 330 378
#
# _framework density 20.288307
#
# number of rings (size 3 to 8) (size 9 to 14) (size 15 to 20)
#    0.000    1.867    1.333    4.800    0.000    2.667 
#    0.000    0.000    0.000    3.200    3.467   14.933 
#    0.000    0.000    0.000    0.000    0.000    0.000 
#
# Total GULP energy -167106.974578 kJ/mol
# GULP energy per Si atom -5570.232486 kJ/mol
# Density = 2.024213 g / cm^3
# Si number density = 20.288307 Si / 1000 Ang^3
#
#
#
# Elastic Constant Matrix: (Units=GPa)
#
#
# Indices 1 2 3 4 5 6 
#
# 1 92.8953 39.1327 22.4185 -0.0001 -17.7044 0.0000
# 2 39.1327 46.0838 23.9925 -0.0002 -5.4718 0.0000
# 3 22.4185 23.9925 108.2859 -0.0005 6.3553 -0.0001
# 4 -0.0001 -0.0002 -0.0005 46.5510 0.0001 -6.4949
# 5 -17.7044 -5.4718 6.3553 0.0001 31.0534 0.0000
# 6 0.0000 0.0000 -0.0001 -6.4949 0.0000 23.0144
#
#
#
# Elastic Compliance Matrix: (Units=1/GPa)
#
#
# Indices 1 2 3 4 5 6 
#
# 1 0.018632 -0.014203 -0.001202 0.000000 0.008366 0.000000
# 2 -0.014203 0.036321 -0.005068 0.000000 -0.000660 0.000000
# 3 -0.001202 -0.005068 0.010829 0.000000 -0.003794 0.000000
# 4 0.000000 0.000000 0.000000 0.022362 0.000000 0.006311
# 5 0.008366 -0.000660 -0.003794 0.000000 0.037632 0.000000
# 6 0.000000 0.000000 0.000000 0.006311 0.000000 0.045232
#
#
# Mechanical properties :
#
#
# Convention : Reuss Voigt Hill
#
# Bulk Modulus (GPa) = 40.26320 46.48358 43.37339
# Shear Modulus (GPa) = 22.70321 30.90518 26.80419
#
# Velocity S-wave (km/s) = 3.34882 3.90718 3.63873
# Velocity P-wave (km/s) = 5.90266 6.58149 6.25130
#
# Compressibility (1/GPa) = 0.02483657
#
# Stress axis : x y z
#
# Youngs Moduli (GPa) = 53.67016 27.53264 92.34293
#
# Poissons Ratio (x) = 0.39105 0.11096
# Poissons Ratio (y) = 0.76228 0.46801
# Poissons Ratio (z) = 0.06449 0.13954
#
# Static dielectric constant tensor:
#      x y z
#    x 1.759210 0.000000 -0.026080 
#    y 0.000000 1.781750 0.000000 
#    z -0.026080 0.000000 1.811230 
# 
# From -- ./inp_files/244379.got.cif
#   From: 2010.05.17/outbox.cif.g08.bks.cpg/sg15_123_cif.got.tgz:244379.got - 2010.06.03 18:47:42.
