data_PCOD9257216
_publ_section_title
;
Structure prediction by ZEFSAII (Michael W. Deem and Ramdas Pophale) SiO2 
 PCOD9257216
Probable space group: C 2/C
;
_chemical_formula_sum "Si O2"
_cell_formula_units_Z 56
_cell_length_a 15.504959
_cell_length_b 26.832877
_cell_length_c 12.980574
_cell_angle_alpha 90.000000
_cell_angle_beta 146.922875
_cell_angle_gamma 90.000000
_cell_volume 2947.402180
_symmetry_space_group_name_H-M "C 2/C"
_symmetry_group_IT_number 15
_symmetry_cell_setting 'monoclinic'
loop_
_space_group_symop_operation_xyz
x,y,z
-x,y,1/2-z
-x,-y,-z
x,-y,1/2+z
1/2+x,1/2+y,z
1/2-x,1/2+y,1/2-z
1/2-x,1/2-y,-z
1/2+x,1/2-y,1/2+z
loop_
_atom_site_type_symbol
_atom_site_label
_atom_site_fract_x
_atom_site_fract_y
_atom_site_fract_z
Si Si1 0.506397 0.362616 0.638261
Si Si2 0.506818 0.175195 0.630831
Si Si3 0.661173 0.534322 0.044990
Si Si4 0.187007 0.233888 0.549906
Si Si5 0.842465 0.519395 0.025319
Si Si6 0.328130 0.084921 0.387924
Si Si7 0.159338 0.933769 0.175677
O O1 0.500000 0.380424 0.750000
O O2 0.462018 0.304119 0.598555
O O3 0.675600 0.382040 0.768666
O O4 0.376520 0.387706 0.434070
O O5 0.500000 0.170819 0.750000
O O6 0.668585 0.202063 0.761885
O O7 0.371445 0.214393 0.461503
O O8 0.475222 0.121014 0.553779
O O9 0.703820 0.525630 0.970247
O O10 0.793888 0.566274 0.238445
O O11 0.659438 0.481042 0.099568
O O12 0.495259 0.559786 0.906563
O O13 0.250000 0.250000 0.500000
O O14 0.000000 0.524972 0.250000
O O15 0.838501 0.464691 0.968639
O O16 0.808262 0.558824 0.899785
#
# Coordination Sequence:
#
# PCOD9257216 Si02
#       7
#     8   8   8   8   8   8   8
#     4  11  19  32  53  75 102 135 173 214 255 309
#     4  10  18  31  46  69 102 132 168 205 251 309
#     4   9  19  35  51  71 101 134 177 225 260 307
#     4  10  20  31  48  72 103 138 166 206 257 308
#     4  11  22  35  51  75 109 142 176 224 266 304
#     4  10  21  33  50  75 100 139 180 212 262 309
#     4   9  20  34  53  75  97 139 183 214 262 314
#
# _framework density 18.999782
#
# number of rings (size 3 to 8) (size 9 to 14) (size 15 to 20)
#    0.000    2.000    0.000    6.429    0.000    4.571 
#    0.000    0.000    0.000    0.000    0.000    1.000 
#    0.000    2.286    0.000    0.000    0.000    0.000 
#
# Total GULP energy -156153.148682 kJ/mol
# GULP energy per Si atom -5576.898167 kJ/mol
# Density = 1.895654 g / cm^3
# Si number density = 18.999782 Si / 1000 Ang^3
#
#
#
# Elastic Constant Matrix: (Units=GPa)
#
#
# Indices 1 2 3 4 5 6 
#
# 1 44.6065 26.9870 21.6112 0.0000 -5.6099 0.0000
# 2 26.9870 94.4299 49.5752 0.0000 -12.6025 0.0000
# 3 21.6112 49.5752 106.0092 0.0000 -10.0412 0.0000
# 4 0.0000 0.0000 0.0000 38.2170 0.0000 5.5606
# 5 -5.6099 -12.6025 -10.0412 0.0000 19.0915 0.0000
# 6 0.0000 0.0000 0.0000 5.5606 0.0000 19.7902
#
#
#
# Elastic Compliance Matrix: (Units=1/GPa)
#
#
# Indices 1 2 3 4 5 6 
#
# 1 0.027750 -0.006274 -0.002466 0.000000 0.002716 0.000000
# 2 -0.006274 0.016168 -0.005731 0.000000 0.005815 0.000000
# 3 -0.002466 -0.005731 0.012828 0.000000 0.002239 0.000000
# 4 0.000000 0.000000 0.000000 0.027282 0.000000 -0.007666
# 5 0.002716 0.005815 0.002239 0.000000 0.058194 0.000000
# 6 0.000000 0.000000 0.000000 -0.007666 0.000000 0.052684
#
#
# Mechanical properties :
#
#
# Convention : Reuss Voigt Hill
#
# Bulk Modulus (GPa) = 35.96552 49.04359 42.50456
# Shear Modulus (GPa) = 21.44870 25.21121 23.32996
#
# Velocity S-wave (km/s) = 3.36354 3.64664 3.50795
# Velocity P-wave (km/s) = 5.83567 6.60299 6.23115
#
# Compressibility (1/GPa) = 0.02780441
#
# Stress axis : x y z
#
# Youngs Moduli (GPa) = 36.03591 61.85220 77.95377
#
# Poissons Ratio (x) = 0.38803 0.19224
# Poissons Ratio (y) = 0.22607 0.44676
# Poissons Ratio (z) = 0.08887 0.35448
#
# Static dielectric constant tensor:
#      x y z
#    x 1.690930 0.000000 0.080690 
#    y 0.000000 1.652610 0.000000 
#    z 0.080690 0.000000 1.736470 
# 
# From -- ./inp_files/101142.got.cif
#   From: 2010.05.17/outbox.cif.g08.bks.cpg/sg15_51_cif.got.tgz:101142.got - 2010.06.03 18:47:42.
