data_PCOD9257236
_publ_section_title
;
Structure prediction by ZEFSAII (Michael W. Deem and Ramdas Pophale) SiO2 
 PCOD9257236
Probable space group: C 2/C
;
_chemical_formula_sum "Si O2"
_cell_formula_units_Z 64
_cell_length_a 23.081866
_cell_length_b 18.111104
_cell_length_c 22.155504
_cell_angle_alpha 90.000000
_cell_angle_beta 22.385263
_cell_angle_gamma 90.000000
_cell_volume 3527.211877
_symmetry_space_group_name_H-M "C 2/C"
_symmetry_group_IT_number 15
_symmetry_cell_setting 'monoclinic'
loop_
_space_group_symop_operation_xyz
x,y,z
-x,y,1/2-z
-x,-y,-z
x,-y,1/2+z
1/2+x,1/2+y,z
1/2-x,1/2+y,1/2-z
1/2-x,1/2-y,-z
1/2+x,1/2-y,1/2+z
loop_
_atom_site_type_symbol
_atom_site_label
_atom_site_fract_x
_atom_site_fract_y
_atom_site_fract_z
Si Si1 0.071428 0.317658 0.397710
Si Si2 0.283260 0.427952 0.114949
Si Si3 0.286959 0.668118 0.284648
Si Si4 0.010022 0.507023 0.809080
Si Si5 0.834178 0.662707 0.972856
Si Si6 0.240502 0.027016 0.259844
Si Si7 0.101441 0.827355 0.596106
Si Si8 0.064826 0.420946 0.505392
O O1 0.168659 0.376005 0.264288
O O2 0.131086 0.237950 0.322671
O O3 0.088133 0.341256 0.451945
O O4 0.894952 0.324410 0.550938
O O5 0.348495 0.485000 0.101370
O O6 0.179543 0.474172 0.168344
O O7 0.390181 0.375667 0.972231
O O8 0.293122 0.665521 0.351463
O O9 0.332756 0.595599 0.203603
O O10 0.000000 0.483543 0.750000
O O11 0.921333 0.585867 0.898641
O O12 0.944419 0.443886 0.916233
O O13 0.422935 0.759562 0.393820
O O14 0.767495 0.666263 0.969289
O O15 0.300483 0.970496 0.151850
O O16 0.400801 0.053099 0.136463
O O17 0.000000 0.853394 0.750000
#
# Coordination Sequence:
#
# PCOD9257236 Si02
#       8
#     8   8   8   8   8   8   8   8
#     4  10  20  31  51  71  98 126 160 199 246 283
#     4  10  18  31  48  69  94 127 163 196 230 283
#     4  11  19  31  52  74  96 127 159 201 241 284
#     4  11  17  28  50  72  94 118 162 198 235 266
#     4  11  21  30  44  69  97 129 159 189 221 282
#     4   8  15  29  48  67  91 121 160 198 238 270
#     4  11  24  32  42  64 104 140 156 184 229 289
#     4   8  15  29  45  71  94 119 153 204 237 274
#
# _framework density 18.144644
#
# number of rings (size 3 to 8) (size 9 to 14) (size 15 to 20)
#    0.000    2.000    5.000    1.875    3.500    0.000 
#    0.000    0.000    2.750    2.250    0.000    8.750 
#    0.000    0.000    0.000    0.000    0.000    0.000 
#
# Total GULP energy -178472.004786 kJ/mol
# GULP energy per Si atom -5577.250150 kJ/mol
# Density = 1.810335 g / cm^3
# Si number density = 18.144644 Si / 1000 Ang^3
#
#
#
# Elastic Constant Matrix: (Units=GPa)
#
#
# Indices 1 2 3 4 5 6 
#
# 1 108.2076 50.6661 30.3573 -0.0029 35.0145 0.0006
# 2 50.6661 67.6823 26.6958 -0.0032 17.7631 0.0010
# 3 30.3573 26.6958 68.1459 -0.0081 26.6566 0.0039
# 4 -0.0029 -0.0032 -0.0081 28.6224 0.0053 13.7849
# 5 35.0145 17.7631 26.6566 0.0053 31.4844 -0.0019
# 6 0.0006 0.0010 0.0039 13.7849 -0.0019 31.0138
#
#
#
# Elastic Compliance Matrix: (Units=1/GPa)
#
#
# Indices 1 2 3 4 5 6 
#
# 1 0.019236 -0.010810 0.002464 0.000007 -0.017380 -0.000004
# 2 -0.010810 0.024364 -0.006062 -0.000001 0.003409 0.000001
# 3 0.002464 -0.006062 0.023453 0.000015 -0.019177 -0.000010
# 4 0.000007 -0.000001 0.000015 0.044454 -0.000028 -0.019759
# 5 -0.017380 0.003409 -0.019177 -0.000028 0.065403 0.000019
# 6 -0.000004 0.000001 -0.000010 -0.019759 0.000019 0.041026
#
#
# Mechanical properties :
#
#
# Convention : Reuss Voigt Hill
#
# Bulk Modulus (GPa) = 26.15344 51.05271 38.60308
# Shear Modulus (GPa) = 19.26802 27.31190 23.28996
#
# Velocity S-wave (km/s) = 3.26223 3.88394 3.58658
# Velocity P-wave (km/s) = 5.35114 6.95061 6.20265
#
# Compressibility (1/GPa) = 0.03823588
#
# Stress axis : x y z
#
# Youngs Moduli (GPa) = 51.98650 41.04459 42.63849
#
# Poissons Ratio (x) = 0.44371 -0.10508
# Poissons Ratio (y) = 0.56199 0.25849
# Poissons Ratio (z) = -0.12811 0.24883
#
# Static dielectric constant tensor:
#      x y z
#    x 1.675460 0.000000 -0.031140 
#    y 0.000000 1.618970 0.000000 
#    z -0.031140 0.000000 1.680480 
# 
# From -- ./inp_files/253440.got.cif
#   From: 2010.05.17/outbox.cif.g08.bks.cpg/sg15_127_cif.got.tgz:253440.got - 2010.06.03 18:47:42.
