data_PCOD9257911
_publ_section_title
;
Structure prediction by ZEFSAII (Michael W. Deem and Ramdas Pophale) SiO2 
 PCOD9257911
Probable space group: C 2/C
;
_chemical_formula_sum "Si O2"
_cell_formula_units_Z 52
_cell_length_a 20.436613
_cell_length_b 20.910929
_cell_length_c 14.159707
_cell_angle_alpha 90.000000
_cell_angle_beta 151.758328
_cell_angle_gamma 90.000000
_cell_volume 2863.344241
_symmetry_space_group_name_H-M "C 2/C"
_symmetry_group_IT_number 15
_symmetry_cell_setting 'monoclinic'
loop_
_space_group_symop_operation_xyz
x,y,z
-x,y,1/2-z
-x,-y,-z
x,-y,1/2+z
1/2+x,1/2+y,z
1/2-x,1/2+y,1/2-z
1/2-x,1/2-y,-z
1/2+x,1/2-y,1/2+z
loop_
_atom_site_type_symbol
_atom_site_label
_atom_site_fract_x
_atom_site_fract_y
_atom_site_fract_z
Si Si1 0.696378 0.464151 0.172714
Si Si2 0.144562 0.594572 0.464568
Si Si3 0.809104 0.777252 0.171985
Si Si4 0.880685 0.808930 0.947919
Si Si5 0.500000 0.407168 0.250000
Si Si6 0.106378 0.085988 0.183031
Si Si7 0.278612 0.493560 0.513875
O O1 0.825415 0.434769 0.394136
O O2 0.651949 0.529058 0.169951
O O3 0.558175 0.420324 0.006204
O O4 0.731653 0.478511 0.109224
O O5 0.261063 0.649172 0.607734
O O6 0.159373 0.535683 0.409752
O O7 0.000000 0.625654 0.250000
O O8 0.973840 0.772883 0.380662
O O9 0.750000 0.750000 0.000000
O O10 0.736661 0.738673 0.164597
O O11 0.910822 0.861720 0.068671
O O12 0.855149 0.848699 0.820203
O O13 0.593674 0.456623 0.310732
O O14 0.185528 0.068844 0.380082
#
# Coordination Sequence:
#
# PCOD9257911 Si02
#       7
#     8   8   8   8   4   8   8
#     4  10  18  33  57  84 111 142 179 230 284 326
#     4  11  23  36  50  81 122 147 182 222 276 349
#     4  12  22  35  54  80 113 155 187 227 278 329
#     4  12  21  34  54  83 117 147 183 232 277 335
#     4  12  16  30  56  84 108 132 176 230 280 324
#     4  10  18  32  55  87 109 136 186 232 275 327
#     4  11  19  33  62  86 109 140 181 235 283 328
#
# _framework density 18.160582999999999
#
# number of rings (size 3 to 8) (size 9 to 14) (size 15 to 20)
#    0.000    0.923    7.692    1.846    0.000    0.615 
#    0.000    0.000    0.000    0.923    0.000    0.000 
#    0.000    0.000    0.000    0.000    0.000    0.000 
#
# Total GULP energy -145017.722397 kJ/mol
# GULP energy per Si atom -5577.604708 kJ/mol
# Density = 1.811925 g / cm^3
# Si number density = 18.160583 Si / 1000 Ang^3
#
#
#
# Elastic Constant Matrix: (Units=GPa)
#
#
# Indices 1 2 3 4 5 6 
#
# 1 100.0485 33.7316 21.5662 0.0000 -23.2005 0.0000
# 2 33.7316 58.2222 11.7964 0.0000 -7.5200 0.0000
# 3 21.5662 11.7964 27.3507 0.0000 -11.4224 0.0000
# 4 0.0000 0.0000 0.0000 20.7431 0.0000 -6.2262
# 5 -23.2005 -7.5200 -11.4224 0.0000 35.2481 0.0000
# 6 0.0000 0.0000 0.0000 -6.2262 0.0000 40.9880
#
#
#
# Elastic Compliance Matrix: (Units=1/GPa)
#
#
# Indices 1 2 3 4 5 6 
#
# 1 0.015096 -0.006625 -0.006345 0.000000 0.006467 0.000000
# 2 -0.006625 0.021806 -0.004695 0.000000 -0.001230 0.000000
# 3 -0.006345 -0.004695 0.047912 0.000000 0.010348 0.000000
# 4 0.000000 0.000000 0.000000 0.050512 0.000000 0.007673
# 5 0.006467 -0.001230 0.010348 0.000000 0.035718 0.000000
# 6 0.000000 0.000000 0.000000 0.007673 0.000000 0.025563
#
#
# Mechanical properties :
#
#
# Convention : Reuss Voigt Hill
#
# Bulk Modulus (GPa) = 20.20854 35.53443 27.87149
# Shear Modulus (GPa) = 20.12618 27.29763 23.71190
#
# Velocity S-wave (km/s) = 3.33263 3.88122 3.61734
# Velocity P-wave (km/s) = 5.09513 6.30035 5.72952
#
# Compressibility (1/GPa) = 0.04948402
#
# Stress axis : x y z
#
# Youngs Moduli (GPa) = 66.24156 45.85818 20.87159
#
# Poissons Ratio (x) = 0.30382 0.13244
# Poissons Ratio (y) = 0.43887 0.09798
# Poissons Ratio (z) = 0.42033 0.21529
#
# Static dielectric constant tensor:
#      x y z
#    x 1.673330 0.000000 0.029770 
#    y 0.000000 1.635780 0.000000 
#    z 0.029770 0.000000 1.664100 
# 
# From -- ./inp_files/169025.got.cif
#   From: 2010.05.17/outbox.cif.g08.bks.cpg/sg15_85_cif.got.tgz:169025.got - 2010.06.03 18:47:42.
