data_PCOD9257934
_publ_section_title
;
Structure prediction by ZEFSAII (Michael W. Deem and Ramdas Pophale) SiO2 
 PCOD9257934
Probable space group: C 2/C
;
_chemical_formula_sum "Si O2"
_cell_formula_units_Z 44
_cell_length_a 21.799721
_cell_length_b 12.966078
_cell_length_c 11.340342
_cell_angle_alpha 90.000000
_cell_angle_beta 139.719478
_cell_angle_gamma 90.000000
_cell_volume 2072.405394
_symmetry_space_group_name_H-M "C 2/C"
_symmetry_group_IT_number 15
_symmetry_cell_setting 'monoclinic'
loop_
_space_group_symop_operation_xyz
x,y,z
-x,y,1/2-z
-x,-y,-z
x,-y,1/2+z
1/2+x,1/2+y,z
1/2-x,1/2+y,1/2-z
1/2-x,1/2-y,-z
1/2+x,1/2-y,1/2+z
loop_
_atom_site_type_symbol
_atom_site_label
_atom_site_fract_x
_atom_site_fract_y
_atom_site_fract_z
Si Si1 0.824064 0.190795 0.270981
Si Si2 0.467288 0.707989 0.944767
Si Si3 0.174009 0.391107 0.391120
Si Si4 0.500000 0.791236 0.250000
Si Si5 0.912613 0.407154 0.705549
Si Si6 0.739784 0.302066 0.358802
O O1 0.823832 0.302244 0.203972
O O2 0.760317 0.214924 0.291300
O O3 0.933553 0.164054 0.459984
O O4 0.773576 0.112826 0.106223
O O5 0.445324 0.813154 0.838317
O O6 0.365647 0.651307 0.798399
O O7 0.488639 0.728698 0.113117
O O8 0.095058 0.355826 0.369894
O O9 0.133416 0.499637 0.287758
O O10 0.828549 0.378183 0.490800
O O11 0.000000 0.434895 0.750000
O O12 0.750000 0.250000 0.500000
#
# Coordination Sequence:
#
# PCOD9257934 Si02
#       6
#     8   8   8   4   8   8
#     4  10  20  38  56  85 117 159 190 236 304 364
#     4  10  21  36  60  84 117 157 199 244 297 362
#     4  10  21  34  56  85 118 147 195 242 294 353
#     4  10  18  32  56  80 110 146 186 240 294 338
#     4  11  21  36  58  91 119 152 201 256 298 344
#     4  10  21  37  57  85 120 154 199 239 299 363
#
# _framework density 21.231366999999999
#
# number of rings (size 3 to 8) (size 9 to 14) (size 15 to 20)
#    0.000    1.818    4.545    0.000    0.000    4.364 
#    0.000    0.909    0.000    0.000    9.455    0.000 
#    0.000    0.000    0.000    0.000    0.000    0.000 
#
# Total GULP energy -122537.050079 kJ/mol
# GULP energy per Si atom -5569.865913 kJ/mol
# Density = 2.118304 g / cm^3
# Si number density = 21.231367 Si / 1000 Ang^3
#
#
#
# Elastic Constant Matrix: (Units=GPa)
#
#
# Indices 1 2 3 4 5 6 
#
# 1 82.9330 3.2046 33.5266 0.0000 8.6085 0.0000
# 2 3.2046 28.5128 13.0077 0.0000 5.6325 0.0000
# 3 33.5266 13.0077 128.5831 0.0000 38.6643 0.0000
# 4 0.0000 0.0000 0.0000 11.5413 0.0000 3.1757
# 5 8.6085 5.6325 38.6643 0.0000 48.9754 0.0000
# 6 0.0000 0.0000 0.0000 3.1757 0.0000 17.9787
#
#
#
# Elastic Compliance Matrix: (Units=1/GPa)
#
#
# Indices 1 2 3 4 5 6 
#
# 1 0.013489 0.000059 -0.003682 0.000000 0.000529 0.000000
# 2 0.000059 0.036877 -0.003236 0.000000 -0.001697 0.000000
# 3 -0.003682 -0.003236 0.011484 0.000000 -0.008047 0.000000
# 4 0.000000 0.000000 0.000000 0.091072 0.000000 -0.016087
# 5 0.000529 -0.001697 -0.008047 0.000000 0.026873 0.000000
# 6 0.000000 0.000000 0.000000 -0.016087 0.000000 0.058463
#
#
# Mechanical properties :
#
#
# Convention : Reuss Voigt Hill
#
# Bulk Modulus (GPa) = 20.77588 37.72297 29.24943
# Shear Modulus (GPa) = 18.65532 28.38509 23.52021
#
# Velocity S-wave (km/s) = 2.96745 3.66039 3.33198
# Velocity P-wave (km/s) = 4.64195 5.97250 5.34876
#
# Compressibility (1/GPa) = 0.04813274
#
# Stress axis : x y z
#
# Youngs Moduli (GPa) = 74.13277 27.11740 87.07615
#
# Poissons Ratio (x) = -0.00161 0.32064
# Poissons Ratio (y) = -0.00439 0.28175
# Poissons Ratio (z) = 0.27298 0.08774
#
# Static dielectric constant tensor:
#      x y z
#    x 1.794440 0.000000 0.064240 
#    y 0.000000 1.843770 0.000000 
#    z 0.064240 0.000000 1.846410 
# 
# From -- ./inp_files/96107.got.cif
#   From: 2010.05.17/outbox.cif.g08.bks.cpg/sg15_49_cif.got.tgz:96107.got - 2010.06.03 18:47:42.
