data_PCOD9257386
_publ_section_title
;
Structure prediction by ZEFSAII (Michael W. Deem and Ramdas Pophale) SiO2 
 PCOD9257386
Probable space group: C 2/C
;
_chemical_formula_sum "Si O2"
_cell_formula_units_Z 56
_cell_length_a 12.128457
_cell_length_b 15.745210
_cell_length_c 17.723494
_cell_angle_alpha 90.000000
_cell_angle_beta 126.989421
_cell_angle_gamma 90.000000
_cell_volume 2703.412909
_symmetry_space_group_name_H-M "C 2/C"
_symmetry_group_IT_number 15
_symmetry_cell_setting 'monoclinic'
loop_
_space_group_symop_operation_xyz
x,y,z
-x,y,1/2-z
-x,-y,-z
x,-y,1/2+z
1/2+x,1/2+y,z
1/2-x,1/2+y,1/2-z
1/2-x,1/2-y,-z
1/2+x,1/2-y,1/2+z
loop_
_atom_site_type_symbol
_atom_site_label
_atom_site_fract_x
_atom_site_fract_y
_atom_site_fract_z
Si Si1 0.815067 0.431110 0.437829
Si Si2 0.016207 0.687485 0.081335
Si Si3 0.061794 0.119268 0.574985
Si Si4 0.645833 0.262898 0.353719
Si Si5 0.774652 0.017180 0.440028
Si Si6 0.262157 0.875118 0.707859
Si Si7 0.376438 0.507009 0.758833
O O1 0.700722 0.355928 0.390671
O O2 0.797974 0.480820 0.509317
O O3 0.766690 0.483667 0.345769
O O4 0.959468 0.381298 0.499032
O O5 0.061988 0.779438 0.070203
O O6 0.130224 0.647728 0.182776
O O7 0.887829 0.712026 0.083896
O O8 0.104364 0.085712 0.676040
O O9 0.910476 0.078330 0.499966
O O10 0.166394 0.073486 0.560802
O O11 0.500000 0.265431 0.250000
O O12 0.752755 0.211628 0.345446
O O13 0.687460 0.057860 0.335333
O O14 0.134092 0.922745 0.693944
O O15 0.500000 0.501783 0.750000
#
# Coordination Sequence:
#
# PCOD9257386 Si02
#       7
#     8   8   8   8   8   8   8
#     4  12  20  32  57  85 115 143 185 230 288 339
#     4  11  20  33  55  83 115 144 180 236 278 341
#     4  10  20  34  54  84 117 140 182 229 295 330
#     4  10  18  31  52  84 114 137 172 236 289 331
#     4  10  19  33  53  85 112 149 179 225 286 349
#     4  10  22  34  51  80 113 149 185 228 290 333
#     4  11  21  37  53  78 110 152 188 235 277 347
#
# _framework density 20.714556999999999
#
# number of rings (size 3 to 8) (size 9 to 14) (size 15 to 20)
#    0.000    1.429    4.286    3.429    0.000    0.571 
#    0.000    0.000    0.000    0.857   11.143    0.000 
#    0.000    0.000    0.000    0.000    0.000    0.000 
#
# Total GULP energy -156326.460300 kJ/mol
# GULP energy per Si atom -5583.087868 kJ/mol
# Density = 2.066741 g / cm^3
# Si number density = 20.714557 Si / 1000 Ang^3
#
#
#
# Elastic Constant Matrix: (Units=GPa)
#
#
# Indices 1 2 3 4 5 6 
#
# 1 33.1146 42.1093 11.9153 0.0000 -12.2275 0.0000
# 2 42.1093 95.8975 40.3931 0.0000 -10.8625 0.0000
# 3 11.9153 40.3931 90.2293 0.0000 -0.8531 0.0000
# 4 0.0000 0.0000 0.0000 30.3017 0.0000 0.0952
# 5 -12.2275 -10.8625 -0.8531 0.0000 24.9995 0.0000
# 6 0.0000 0.0000 0.0000 0.0952 0.0000 30.2017
#
#
#
# Elastic Compliance Matrix: (Units=1/GPa)
#
#
# Indices 1 2 3 4 5 6 
#
# 1 0.083430 -0.036016 0.005346 0.000000 0.025339 0.000000
# 2 -0.036016 0.029168 -0.008351 0.000000 -0.005227 0.000000
# 3 0.005346 -0.008351 0.014110 0.000000 -0.000533 0.000000
# 4 0.000000 0.000000 0.000000 0.033002 0.000000 -0.000104
# 5 0.025339 -0.005227 -0.000533 0.000000 0.050105 0.000000
# 6 0.000000 0.000000 0.000000 -0.000104 0.000000 0.033111
#
#
# Mechanical properties :
#
#
# Convention : Reuss Voigt Hill
#
# Bulk Modulus (GPa) = 20.54843 45.34183 32.94513
# Shear Modulus (GPa) = 14.82837 25.42218 20.12528
#
# Velocity S-wave (km/s) = 2.67843 3.50703 3.12035
# Velocity P-wave (km/s) = 4.41663 6.19156 5.37783
#
# Compressibility (1/GPa) = 0.04866551
#
# Stress axis : x y z
#
# Youngs Moduli (GPa) = 11.98611 34.28393 70.86934
#
# Poissons Ratio (x) = 1.23477 -0.37884
# Poissons Ratio (y) = 0.43169 0.59184
# Poissons Ratio (z) = -0.06407 0.28631
#
# Static dielectric constant tensor:
#      x y z
#    x 1.735790 0.000000 0.020330 
#    y 0.000000 1.752820 0.000000 
#    z 0.020330 0.000000 1.840940 
# 
# From -- ./inp_files/205158.got.cif
#   From: 2010.05.17/outbox.cif.g08.bks.cpg/sg15_103_cif.got.tgz:205158.got - 2010.06.03 18:47:42.
