data_PCOD9257530
_publ_section_title
;
Structure prediction by ZEFSAII (Michael W. Deem and Ramdas Pophale) SiO2 
 PCOD9257530
Probable space group: C 2/C
;
_chemical_formula_sum "Si O2"
_cell_formula_units_Z 40
_cell_length_a 5.421730
_cell_length_b 17.287583
_cell_length_c 19.748012
_cell_angle_alpha 90.000000
_cell_angle_beta 100.097462
_cell_angle_gamma 90.000000
_cell_volume 1822.284144
_symmetry_space_group_name_H-M "C 2/C"
_symmetry_group_IT_number 15
_symmetry_cell_setting 'monoclinic'
loop_
_space_group_symop_operation_xyz
x,y,z
-x,y,1/2-z
-x,-y,-z
x,-y,1/2+z
1/2+x,1/2+y,z
1/2-x,1/2+y,1/2-z
1/2-x,1/2-y,-z
1/2+x,1/2-y,1/2+z
loop_
_atom_site_type_symbol
_atom_site_label
_atom_site_fract_x
_atom_site_fract_y
_atom_site_fract_z
Si Si1 0.758745 0.442940 0.766575
Si Si2 0.632624 0.722322 0.922384
Si Si3 0.223997 0.231240 0.212319
Si Si4 0.147079 0.370702 0.583749
Si Si5 0.090043 0.087517 0.005595
O O1 0.500000 0.487266 0.750000
O O2 0.729983 0.363501 0.719707
O O3 0.799627 0.415629 0.844798
O O4 0.000000 0.485191 0.750000
O O5 0.801757 0.739255 0.865463
O O6 0.403375 0.781073 0.901594
O O7 0.750000 0.750000 0.000000
O O8 0.571166 0.633513 0.933775
O O9 0.500000 0.256481 0.250000
O O10 0.000000 0.256786 0.250000
O O11 0.383341 0.375352 0.545696
O O12 0.881206 0.403918 0.542540
O O13 0.000000 0.000000 0.000000
#
# Coordination Sequence:
#
# PCOD9257530 Si02
#       5
#     8   8   8   8   8
#     4  10  18  31  57  89 123 149 199 262 325 358
#     4  10  22  38  64  99 124 162 219 270 310 381
#     4  10  20  33  56  90 128 153 194 260 332 359
#     4  11  21  39  64  94 119 166 219 263 313 380
#     4  11  25  41  61  89 136 172 210 262 328 380
#
# _framework density 21.950475000000001
#
# number of rings (size 3 to 8) (size 9 to 14) (size 15 to 20)
#    0.000    1.600    4.000    2.400    8.400    3.200 
#    0.000    0.000    0.000    4.800    0.000    0.000 
#    0.000    0.000    0.000    0.000    0.000    0.000 
#
# Total GULP energy -111637.541940 kJ/mol
# GULP energy per Si atom -5581.877097 kJ/mol
# Density = 2.190051 g / cm^3
# Si number density = 21.950475 Si / 1000 Ang^3
#
#
#
# Elastic Constant Matrix: (Units=GPa)
#
#
# Indices 1 2 3 4 5 6 
#
# 1 202.9002 11.8308 61.9862 0.0000 -15.2479 0.0000
# 2 11.8308 67.2915 7.8965 0.0000 -2.1826 0.0000
# 3 61.9862 7.8965 99.0041 0.0000 -26.3068 0.0000
# 4 0.0000 0.0000 0.0000 1.1217 0.0000 -6.1488
# 5 -15.2479 -2.1826 -26.3068 0.0000 46.2191 0.0000
# 6 0.0000 0.0000 0.0000 -6.1488 0.0000 2.4837
#
#
#
# Elastic Compliance Matrix: (Units=1/GPa)
#
#
# Indices 1 2 3 4 5 6 
#
# 1 0.006122 -0.000633 -0.003834 0.000000 -0.000192 0.000000
# 2 -0.000633 0.015067 -0.000792 0.000000 0.000052 0.000000
# 3 -0.003834 -0.000792 0.014395 0.000000 0.006891 0.000000
# 4 0.000000 0.000000 0.000000 -0.070919 0.000000 -0.175571
# 5 -0.000192 0.000052 0.006891 0.000000 0.025497 0.000000
# 6 0.000000 0.000000 0.000000 -0.175571 0.000000 -0.032028
#
#
# Mechanical properties :
#
#
# Convention : Reuss Voigt Hill
#
# Bulk Modulus (GPa) = 39.89210 59.18030 49.53620
# Shear Modulus (GPa) = -217.45641 29.13037 -94.16302
#
# Velocity S-wave (km/s) = -9.96403 3.64688 -6.55676
# Velocity P-wave (km/s) = 10.68470 6.68972 5.89111
#
# Compressibility (1/GPa) = 0.02506762
#
# Stress axis : x y z
#
# Youngs Moduli (GPa) = 163.34069 66.37216 69.46817
#
# Poissons Ratio (x) = 0.04200 0.26632
# Poissons Ratio (y) = 0.10335 0.05500
# Poissons Ratio (z) = 0.62620 0.05255
#
# Static dielectric constant tensor:
#      x y z
#    x 1.886870 0.000000 0.009660 
#    y 0.000000 1.836920 0.000000 
#    z 0.009660 0.000000 1.894320 
# 
# From -- ./inp_files/184345.got.cif
#   From: 2010.05.17/outbox.cif.g08.bks.cpg/sg15_93_cif.got.tgz:184345.got - 2010.06.03 18:47:42.
