data_PCOD9257291
_publ_section_title
;
Structure prediction by ZEFSAII (Michael W. Deem and Ramdas Pophale) SiO2 
 PCOD9257291
Probable space group: C 2/C
;
_chemical_formula_sum "Si O2"
_cell_formula_units_Z 40
_cell_length_a 11.112810
_cell_length_b 17.970601
_cell_length_c 12.580994
_cell_angle_alpha 90.000000
_cell_angle_beta 138.441275
_cell_angle_gamma 90.000000
_cell_volume 1666.742939
_symmetry_space_group_name_H-M "C 2/C"
_symmetry_group_IT_number 15
_symmetry_cell_setting 'monoclinic'
loop_
_space_group_symop_operation_xyz
x,y,z
-x,y,1/2-z
-x,-y,-z
x,-y,1/2+z
1/2+x,1/2+y,z
1/2-x,1/2+y,1/2-z
1/2-x,1/2-y,-z
1/2+x,1/2-y,1/2+z
loop_
_atom_site_type_symbol
_atom_site_label
_atom_site_fract_x
_atom_site_fract_y
_atom_site_fract_z
Si Si1 0.712211 0.992624 0.603502
Si Si2 0.390306 0.750835 0.442202
Si Si3 0.709737 0.888591 0.414278
Si Si4 0.102422 0.136854 0.688233
Si Si5 0.737460 0.667653 0.330286
O O1 0.720089 0.967683 0.484574
O O2 0.786148 0.919210 0.712983
O O3 0.500000 0.000000 0.500000
O O4 0.840811 0.061411 0.714838
O O5 0.212035 0.800436 0.326290
O O6 0.415407 0.678912 0.534108
O O7 0.388636 0.719746 0.320963
O O8 0.560353 0.805683 0.566206
O O9 0.500000 0.876082 0.250000
O O10 0.813591 0.877925 0.373701
O O11 0.774474 0.833906 0.550852
#
# Coordination Sequence:
#
# PCOD9257291 Si02
#       5
#     8   8   8   8   8
#     4  10  18  34  50  71 107 141 177 203 246 324
#     4  10  20  31  52  80 107 141 155 224 266 309
#     4  10  18  31  50  77  99 139 175 197 255 306
#     4  11  20  35  53  78 111 133 173 212 261 313
#     4   9  20  31  47  78 104 135 178 193 266 313
#
# _framework density 23.998901
#
# number of rings (size 3 to 8) (size 9 to 14) (size 15 to 20)
#    1.200    0.800    6.000    0.000    0.000    6.400 
#    0.000    0.000    0.000    0.000    0.000   15.400 
#    0.000    0.000    0.000    0.000    0.000    0.000 
#
# Total GULP energy -111481.455331 kJ/mol
# GULP energy per Si atom -5574.072767 kJ/mol
# Density = 2.394428 g / cm^3
# Si number density = 23.998901 Si / 1000 Ang^3
#
#
#
# Elastic Constant Matrix: (Units=GPa)
#
#
# Indices 1 2 3 4 5 6 
#
# 1 43.0648 -7.9543 32.8658 0.0000 -48.4999 0.0000
# 2 -7.9543 162.4673 68.4525 0.0000 -8.2804 0.0000
# 3 32.8658 68.4525 119.9291 0.0000 -11.6292 0.0000
# 4 0.0000 0.0000 0.0000 59.8482 0.0000 -6.5463
# 5 -48.4999 -8.2804 -11.6292 0.0000 24.8389 0.0000
# 6 0.0000 0.0000 0.0000 -6.5463 0.0000 -6.0220
#
#
#
# Elastic Compliance Matrix: (Units=1/GPa)
#
#
# Indices 1 2 3 4 5 6 
#
# 1 -0.016732 -0.004052 0.003770 0.000000 -0.032256 0.000000
# 2 -0.004052 0.007130 -0.003662 0.000000 -0.007249 0.000000
# 3 0.003770 -0.003662 0.010466 0.000000 0.011041 0.000000
# 4 0.000000 0.000000 0.000000 0.014933 0.000000 -0.016233
# 5 -0.032256 -0.007249 0.011041 0.000000 -0.019971 0.000000
# 6 0.000000 0.000000 0.000000 -0.016233 0.000000 -0.148410
#
#
# Mechanical properties :
#
#
# Convention : Reuss Voigt Hill
#
# Bulk Modulus (GPa) = -142.37782 56.90993 -42.73395
# Shear Modulus (GPa) = -34.00505 31.20616 -1.39944
#
# Velocity S-wave (km/s) = -3.76831 3.60990 -0.76446
# Velocity P-wave (km/s) = 8.85377 6.41406 4.31561
#
# Compressibility (1/GPa) = -0.00702357
#
# Stress axis : x y z
#
# Youngs Moduli (GPa) = -59.76538 140.24553 95.54697
#
# Poissons Ratio (x) = 0.56823 -0.36022
# Poissons Ratio (y) = -0.24215 0.34993
# Poissons Ratio (z) = 0.22532 0.51363
#
# Static dielectric constant tensor:
#      x y z
#    x 1.945540 0.000000 0.005170 
#    y 0.000000 1.956220 0.000000 
#    z 0.005170 0.000000 1.903450 
# 
# From -- ./inp_files/40032.got.cif
#   From: 2010.05.17/outbox.cif.g08.bks.cpg/sg15_21_cif.got.tgz:40032.got - 2010.06.03 18:47:42.
