data_PCOD9257409
_publ_section_title
;
Structure prediction by ZEFSAII (Michael W. Deem and Ramdas Pophale) SiO2 
 PCOD9257409
Probable space group: C 2/C
;
_chemical_formula_sum "Si O2"
_cell_formula_units_Z 64
_cell_length_a 23.371779
_cell_length_b 22.284513
_cell_length_c 8.530537
_cell_angle_alpha 90.000000
_cell_angle_beta 130.467875
_cell_angle_gamma 90.000000
_cell_volume 3380.061937
_symmetry_space_group_name_H-M "C 2/C"
_symmetry_group_IT_number 15
_symmetry_cell_setting 'monoclinic'
loop_
_space_group_symop_operation_xyz
x,y,z
-x,y,1/2-z
-x,-y,-z
x,-y,1/2+z
1/2+x,1/2+y,z
1/2-x,1/2+y,1/2-z
1/2-x,1/2-y,-z
1/2+x,1/2-y,1/2+z
loop_
_atom_site_type_symbol
_atom_site_label
_atom_site_fract_x
_atom_site_fract_y
_atom_site_fract_z
Si Si1 0.577486 0.224267 0.793732
Si Si2 0.930455 0.600359 0.904403
Si Si3 0.270080 0.071261 0.497103
Si Si4 0.688053 0.326194 0.465956
Si Si5 0.251369 0.052878 0.095053
Si Si6 0.306614 0.303307 0.653074
Si Si7 0.143867 0.714123 0.236752
Si Si8 0.910181 0.403651 0.739415
O O1 0.500000 0.234113 0.750000
O O2 0.570975 0.169369 0.660009
O O3 0.614266 0.282502 0.780408
O O4 0.633652 0.204832 0.033985
O O5 0.859043 0.571882 0.691998
O O6 0.916150 0.591127 0.063720
O O7 0.015182 0.575150 0.034977
O O8 0.260926 0.061333 0.296677
O O9 0.230782 0.134406 0.470235
O O10 0.233747 0.015061 0.520786
O O11 0.689384 0.397171 0.437893
O O12 0.682127 0.309917 0.639533
O O13 0.772827 0.307127 0.570169
O O14 0.634622 0.282777 0.271550
O O15 0.332371 0.068712 0.161562
O O16 0.250000 0.250000 0.500000
O O17 0.090941 0.667773 0.230007
#
# Coordination Sequence:
#
# PCOD9257409 Si02
#       8
#     8   8   8   8   8   8   8   8
#     4  12  22  34  53  84 118 147 189 238 297 343
#     4  11  21  34  55  78 113 160 189 234 274 339
#     4  11  23  37  60  80 113 154 189 241 278 342
#     4   9  19  34  55  81 111 142 187 235 280 343
#     4  10  22  39  55  84 114 147 195 232 285 338
#     4  11  20  36  57  84 108 147 193 238 293 337
#     4  10  18  31  53  80 109 148 177 239 283 330
#     4  10  21  34  52  80 116 151 197 229 279 336
#
# _framework density 18.934564999999999
#
# number of rings (size 3 to 8) (size 9 to 14) (size 15 to 20)
#    0.000    1.500    3.750    3.000    0.000    2.500 
#    0.000    0.000    0.000    0.000    0.000    7.875 
#    0.000    0.000    0.000    0.000    0.000    0.000 
#
# Total GULP energy -178423.622122 kJ/mol
# GULP energy per Si atom -5575.738191 kJ/mol
# Density = 1.889147 g / cm^3
# Si number density = 18.934565 Si / 1000 Ang^3
#
#
#
# Elastic Constant Matrix: (Units=GPa)
#
#
# Indices 1 2 3 4 5 6 
#
# 1 49.6512 25.9955 -11.0435 0.0000 -0.9685 0.0000
# 2 25.9955 126.5164 14.0727 0.0000 -1.6219 0.0000
# 3 -11.0435 14.0727 32.3904 0.0000 -3.5637 0.0000
# 4 0.0000 0.0000 0.0000 19.1595 0.0000 -7.3584
# 5 -0.9685 -1.6219 -3.5637 0.0000 13.8176 0.0000
# 6 0.0000 0.0000 0.0000 -7.3584 0.0000 25.3534
#
#
#
# Elastic Compliance Matrix: (Units=1/GPa)
#
#
# Indices 1 2 3 4 5 6 
#
# 1 0.026553 -0.006788 0.012473 0.000000 0.004281 0.000000
# 2 -0.006788 0.010041 -0.006792 0.000000 -0.001049 0.000000
# 3 0.012473 -0.006792 0.039198 0.000000 0.010186 0.000000
# 4 0.000000 0.000000 0.000000 0.058741 0.000000 0.017048
# 5 0.004281 -0.001049 0.010186 0.000000 0.075175 0.000000
# 6 0.000000 0.000000 0.000000 0.017048 0.000000 0.044390
#
#
# Mechanical properties :
#
#
# Convention : Reuss Voigt Hill
#
# Bulk Modulus (GPa) = 13.59122 29.62304 21.60713
# Shear Modulus (GPa) = 17.80382 23.63500 20.71941
#
# Velocity S-wave (km/s) = 3.06973 3.53689 3.31155
# Velocity P-wave (km/s) = 4.44498 5.68844 5.10471
#
# Compressibility (1/GPa) = 0.07357689
#
# Stress axis : x y z
#
# Youngs Moduli (GPa) = 37.66121 99.59157 25.51149
#
# Poissons Ratio (x) = 0.67606 -0.31822
# Poissons Ratio (y) = 0.25566 0.17328
# Poissons Ratio (z) = -0.46976 0.67647
#
# Static dielectric constant tensor:
#      x y z
#    x 1.674300 0.000000 0.018670 
#    y 0.000000 1.724610 0.000000 
#    z 0.018670 0.000000 1.687200 
# 
# From -- ./inp_files/57518.got.cif
#   From: 2010.05.17/outbox.cif.g08.bks.cpg/sg15_29_cif.got.tgz:57518.got - 2010.06.03 18:47:42.
