data_PCOD9257511
_publ_section_title
;
Structure prediction by ZEFSAII (Michael W. Deem and Ramdas Pophale) SiO2 
 PCOD9257511
Probable space group: C 2/C
;
_chemical_formula_sum "Si O2"
_cell_formula_units_Z 40
_cell_length_a 18.918837
_cell_length_b 9.050263
_cell_length_c 19.099691
_cell_angle_alpha 90.000000
_cell_angle_beta 151.694083
_cell_angle_gamma 90.000000
_cell_volume 1550.687964
_symmetry_space_group_name_H-M "C 2/C"
_symmetry_group_IT_number 15
_symmetry_cell_setting 'monoclinic'
loop_
_space_group_symop_operation_xyz
x,y,z
-x,y,1/2-z
-x,-y,-z
x,-y,1/2+z
1/2+x,1/2+y,z
1/2-x,1/2+y,1/2-z
1/2-x,1/2-y,-z
1/2+x,1/2-y,1/2+z
loop_
_atom_site_type_symbol
_atom_site_label
_atom_site_fract_x
_atom_site_fract_y
_atom_site_fract_z
Si Si1 0.580416 0.518023 0.391003
Si Si2 0.705128 0.127273 0.187014
Si Si3 0.805284 0.836732 0.203404
Si Si4 0.890462 0.427257 0.596909
Si Si5 0.987706 0.298791 0.383928
O O1 0.500000 0.573689 0.250000
O O2 0.467839 0.392109 0.320527
O O3 0.744767 0.471091 0.514196
O O4 0.581815 0.655927 0.443275
O O5 0.695741 0.180741 0.258444
O O6 0.824255 0.231347 0.250497
O O7 0.761093 0.962673 0.221524
O O8 0.548989 0.150755 0.012499
O O9 0.687461 0.847406 0.037431
O O10 0.975877 0.569192 0.638140
O O11 0.000000 0.355429 0.750000
#
# Coordination Sequence:
#
# PCOD9257511 Si02
#       5
#     8   8   8   8   8
#     4   9  17  31  52  82 114 148 188 238 291 338
#     4  10  21  36  54  86 121 152 190 230 288 349
#     4   9  21  38  57  85 118 154 190 231 289 347
#     4  10  18  31  56  89 116 141 189 253 294 325
#     4  10  19  32  56  86 117 148 187 240 294 335
#
# _framework density 25.795002
#
# number of rings (size 3 to 8) (size 9 to 14) (size 15 to 20)
#    0.000    2.400    0.000    3.600    0.000    6.400 
#    0.000    2.000    0.000    0.000    0.000  144.200 
#    0.000    0.000    0.000    0.000    0.000    0.000 
#
# Total GULP energy -112064.423045 kJ/mol
# GULP energy per Si atom -5603.221152 kJ/mol
# Density = 2.573629 g / cm^3
# Si number density = 25.795002 Si / 1000 Ang^3
#
#
#
# Elastic Constant Matrix: (Units=GPa)
#
#
# Indices 1 2 3 4 5 6 
#
# 1 113.1904 66.2448 46.7972 0.0000 -8.0554 0.0000
# 2 66.2448 110.7244 45.5714 0.0000 -5.5475 0.0000
# 3 46.7972 45.5714 115.3807 0.0000 0.4514 0.0001
# 4 0.0000 0.0000 0.0000 28.7417 0.0000 -16.2673
# 5 -8.0554 -5.5475 0.4514 0.0000 40.5343 0.0000
# 6 0.0000 0.0000 0.0001 -16.2673 0.0000 35.5039
#
#
#
# Elastic Compliance Matrix: (Units=1/GPa)
#
#
# Indices 1 2 3 4 5 6 
#
# 1 0.014511 -0.007357 -0.002987 0.000000 0.001910 0.000000
# 2 -0.007357 0.014609 -0.002788 0.000000 0.000568 0.000000
# 3 -0.002987 -0.002788 0.010984 0.000000 -0.001098 0.000000
# 4 0.000000 0.000000 0.000000 0.046974 0.000000 0.021523
# 5 0.001910 0.000568 -0.001098 0.000000 0.025140 0.000000
# 6 0.000000 0.000000 0.000000 0.021523 0.000000 0.038027
#
#
# Mechanical properties :
#
#
# Convention : Reuss Voigt Hill
#
# Bulk Modulus (GPa) = 72.25773 72.94692 72.60232
# Shear Modulus (GPa) = 27.60538 33.00147 30.30343
#
# Velocity S-wave (km/s) = 3.27491 3.58072 3.43122
# Velocity P-wave (km/s) = 6.50947 6.74064 6.62606
#
# Compressibility (1/GPa) = 0.01383935
#
# Stress axis : x y z
#
# Youngs Moduli (GPa) = 68.91238 68.45145 91.03896
#
# Poissons Ratio (x) = 0.50357 0.27198
# Poissons Ratio (y) = 0.50696 0.25386
# Poissons Ratio (z) = 0.20587 0.19088
#
# Static dielectric constant tensor:
#      x y z
#    x 2.037590 0.000000 0.010270 
#    y 0.000000 2.002290 0.000000 
#    z 0.010270 0.000000 1.915390 
# 
# From -- ./inp_files/46272.got.cif
#   From: 2010.05.17/outbox.cif.g08.bks.cpg/sg15_24_cif.got.tgz:46272.got - 2010.06.03 18:47:42.
