data_PCOD9257996
_publ_section_title
;
Structure prediction by ZEFSAII (Michael W. Deem and Ramdas Pophale) SiO2 
 PCOD9257996
Probable space group: C 2/C
;
_chemical_formula_sum "Si O2"
_cell_formula_units_Z 44
_cell_length_a 6.821316
_cell_length_b 19.475100
_cell_length_c 20.416018
_cell_angle_alpha 90.000000
_cell_angle_beta 106.884180
_cell_angle_gamma 90.000000
_cell_volume 2595.270630
_symmetry_space_group_name_H-M "C 2/C"
_symmetry_group_IT_number 15
_symmetry_cell_setting 'monoclinic'
loop_
_space_group_symop_operation_xyz
x,y,z
-x,y,1/2-z
-x,-y,-z
x,-y,1/2+z
1/2+x,1/2+y,z
1/2-x,1/2+y,1/2-z
1/2-x,1/2-y,-z
1/2+x,1/2-y,1/2+z
loop_
_atom_site_type_symbol
_atom_site_label
_atom_site_fract_x
_atom_site_fract_y
_atom_site_fract_z
Si Si1 0.067579 0.885977 0.185990
Si Si2 0.018669 0.073490 0.535314
Si Si3 0.311862 0.180095 0.045380
Si Si4 0.358542 0.824116 0.014350
Si Si5 0.000000 0.684353 0.750000
Si Si6 0.710644 0.225494 0.643356
O O1 0.304737 0.862101 0.210087
O O2 0.000000 0.917486 0.250000
O O3 0.030678 0.927959 0.115614
O O4 0.918207 0.819173 0.166815
O O5 0.826580 0.119231 0.494219
O O6 0.210467 0.117213 0.526124
O O7 0.000000 0.000000 0.500000
O O8 0.264225 0.202524 0.114493
O O9 0.250000 0.250000 0.000000
O O10 0.543406 0.163905 0.047525
O O11 0.548192 0.815769 0.082538
O O12 0.250000 0.750000 0.000000
O O13 0.095808 0.729157 0.701087
#
# Coordination Sequence:
#
# PCOD9257996 Si02
#       6
#     8   8   8   8   4   8
#     4  10  20  36  53  84 114 150 196 244 288 351
#     4  12  23  36  58  92 117 149 201 245 292 349
#     4  10  19  34  56  84 117 147 184 239 286 342
#     4  11  18  33  60  83 114 153 182 232 296 339
#     4  10  20  30  58  86 112 150 200 246 284 346
#     4  10  18  32  57  83 113 145 196 239 281 338
#
# _framework density 16.953917000000001
#
# number of rings (size 3 to 8) (size 9 to 14) (size 15 to 20)
#    0.000    1.455    9.091    0.000    0.000    0.727 
#    0.000    0.000    2.000    0.000    7.091    0.000 
#    0.000    0.000    0.000    0.000    0.000    0.000 
#
# Total GULP energy -122517.848243 kJ/mol
# GULP energy per Si atom -5568.993102 kJ/mol
# Density = 1.691533 g / cm^3
# Si number density = 16.953917 Si / 1000 Ang^3
#
#
#
# Elastic Constant Matrix: (Units=GPa)
#
#
# Indices 1 2 3 4 5 6 
#
# 1 132.6931 43.2130 53.6812 0.0000 -11.8905 0.0000
# 2 43.2130 90.2191 49.0380 0.0000 -8.9580 0.0000
# 3 53.6812 49.0380 106.4797 0.0000 -27.0706 0.0000
# 4 0.0000 0.0000 0.0000 18.8495 0.0000 -2.6479
# 5 -11.8905 -8.9580 -27.0706 0.0000 45.8259 0.0000
# 6 0.0000 0.0000 0.0000 -2.6479 0.0000 18.2580
#
#
#
# Elastic Compliance Matrix: (Units=1/GPa)
#
#
# Indices 1 2 3 4 5 6 
#
# 1 0.009944 -0.002708 -0.003818 0.000000 -0.000205 0.000000
# 2 -0.002708 0.015592 -0.006142 0.000000 -0.001283 0.000000
# 3 -0.003818 -0.006142 0.015989 0.000000 0.007254 0.000000
# 4 0.000000 0.000000 0.000000 0.054155 0.000000 0.007854
# 5 -0.000205 -0.001283 0.007254 0.000000 0.025803 0.000000
# 6 0.000000 0.000000 0.000000 0.007854 0.000000 0.055909
#
#
# Mechanical properties :
#
#
# Convention : Reuss Voigt Hill
#
# Bulk Modulus (GPa) = 61.76791 69.02845 65.39818
# Shear Modulus (GPa) = 24.02393 28.81733 26.42063
#
# Velocity S-wave (km/s) = 3.76841 4.12727 3.95191
# Velocity P-wave (km/s) = 7.44624 7.96970 7.71241
#
# Compressibility (1/GPa) = 0.01618964
#
# Stress axis : x y z
#
# Youngs Moduli (GPa) = 100.55850 64.13496 62.54272
#
# Poissons Ratio (x) = 0.17368 0.23881
# Poissons Ratio (y) = 0.27232 0.38411
# Poissons Ratio (z) = 0.38396 0.39389
#
# Static dielectric constant tensor:
#      x y z
#    x 1.622020 0.000000 -0.034610 
#    y 0.000000 1.524210 0.000000 
#    z -0.034610 0.000000 1.657330 
# 
# From -- ./inp_files/227390.got.cif
#   From: 2010.05.17/outbox.cif.g08.bks.cpg/sg15_114_cif.got.tgz:227390.got - 2010.06.03 18:47:42.
