data_PCOD9257822
_publ_section_title
;
Structure prediction by ZEFSAII (Michael W. Deem and Ramdas Pophale) SiO2 
 PCOD9257822
Probable space group: C 2/C
;
_chemical_formula_sum "Si O2"
_cell_formula_units_Z 40
_cell_length_a 11.510209
_cell_length_b 20.026079
_cell_length_c 8.121896
_cell_angle_alpha 90.000000
_cell_angle_beta 111.232406
_cell_angle_gamma 90.000000
_cell_volume 1745.050403
_symmetry_space_group_name_H-M "C 2/C"
_symmetry_group_IT_number 15
_symmetry_cell_setting 'monoclinic'
loop_
_space_group_symop_operation_xyz
x,y,z
-x,y,1/2-z
-x,-y,-z
x,-y,1/2+z
1/2+x,1/2+y,z
1/2-x,1/2+y,1/2-z
1/2-x,1/2-y,-z
1/2+x,1/2-y,1/2+z
loop_
_atom_site_type_symbol
_atom_site_label
_atom_site_fract_x
_atom_site_fract_y
_atom_site_fract_z
Si Si1 0.576721 0.204541 0.943251
Si Si2 0.819724 0.826563 0.354006
Si Si3 0.873228 0.599883 0.947970
Si Si4 0.880510 0.054162 0.084959
Si Si5 0.292227 0.967535 0.721267
O O1 0.500000 0.237123 0.750000
O O2 0.704483 0.183052 0.921827
O O3 0.492955 0.143043 0.960664
O O4 0.606951 0.257219 0.102389
O O5 0.749634 0.855552 0.158501
O O6 0.904333 0.883995 0.477152
O O7 0.862901 0.532748 0.830187
O O8 0.132078 0.576655 0.367202
O O9 0.770436 0.069784 0.158901
O O10 0.000000 0.034891 0.250000
O O11 0.822278 0.995917 0.945943
#
# Coordination Sequence:
#
# PCOD9257822 Si02
#       5
#     8   8   8   8   8
#     4   9  17  33  56  78 105 146 190 228 274 328
#     4   9  18  32  54  79 104 143 192 228 269 336
#     4   9  18  35  57  83 115 147 182 233 284 332
#     4  10  18  32  54  80 110 146 183 230 284 334
#     4   9  19  34  54  84 116 144 185 230 281 346
#
# _framework density 22.921973999999999
#
# number of rings (size 3 to 8) (size 9 to 14) (size 15 to 20)
#    0.000    2.800    0.000    1.200    0.000    0.000 
#    0.000   28.000    0.000   33.600    0.000    0.000 
#    0.000    0.000    0.000    0.000    0.000    0.000 
#
# Total GULP energy -111724.311686 kJ/mol
# GULP energy per Si atom -5586.215584 kJ/mol
# Density = 2.286980 g / cm^3
# Si number density = 22.921974 Si / 1000 Ang^3
#
#
#
# Elastic Constant Matrix: (Units=GPa)
#
#
# Indices 1 2 3 4 5 6 
#
# 1 57.8029 37.4974 31.9227 0.0000 3.6356 0.0000
# 2 37.4974 72.9543 35.4879 0.0000 6.4656 0.0000
# 3 31.9227 35.4879 80.4205 0.0000 11.5686 0.0000
# 4 0.0000 0.0000 0.0000 2.2774 0.0000 26.5224
# 5 3.6356 6.4656 11.5686 0.0000 31.1149 0.0000
# 6 0.0000 0.0000 0.0000 26.5224 0.0000 -20.9318
#
#
#
# Elastic Compliance Matrix: (Units=1/GPa)
#
#
# Indices 1 2 3 4 5 6 
#
# 1 0.028179 -0.011548 -0.006298 0.000000 0.001449 0.000000
# 2 -0.011548 0.022206 -0.005013 0.000000 -0.001401 0.000000
# 3 -0.006298 -0.005013 0.017846 0.000000 -0.004857 0.000000
# 4 0.000000 0.000000 0.000000 0.027868 0.000000 0.035311
# 5 0.001449 -0.001401 -0.004857 0.000000 0.034067 0.000000
# 6 0.000000 0.000000 0.000000 0.035311 0.000000 -0.003032
#
#
# Mechanical properties :
#
#
# Convention : Reuss Voigt Hill
#
# Bulk Modulus (GPa) = 44.42260 46.77707 45.59984
# Shear Modulus (GPa) = 27.72310 9.57675 18.64992
#
# Velocity S-wave (km/s) = 3.48149 2.04623 2.85551
# Velocity P-wave (km/s) = 5.96515 5.10236 5.55055
#
# Compressibility (1/GPa) = 0.02251106
#
# Stress axis : x y z
#
# Youngs Moduli (GPa) = 35.48786 45.03356 56.03635
#
# Poissons Ratio (x) = 0.52006 0.35291
# Poissons Ratio (y) = 0.40982 0.28093
# Poissons Ratio (z) = 0.22350 0.22577
#
# Static dielectric constant tensor:
#      x y z
#    x 1.896390 0.000000 0.016540 
#    y 0.000000 1.856520 0.000000 
#    z 0.016540 0.000000 1.854540 
# 
# From -- ./inp_files/41074.got.cif
#   From: 2010.05.17/outbox.cif.g08.bks.cpg/sg15_21_cif.got.tgz:41074.got - 2010.06.03 18:47:42.
