data_PCOD9257460
_publ_section_title
;
Structure prediction by ZEFSAII (Michael W. Deem and Ramdas Pophale) SiO2 
 PCOD9257460
Probable space group: C 2/C
;
_chemical_formula_sum "Si O2"
_cell_formula_units_Z 48
_cell_length_a 20.636633
_cell_length_b 14.249523
_cell_length_c 12.793766
_cell_angle_alpha 90.000000
_cell_angle_beta 37.273630
_cell_angle_gamma 90.000000
_cell_volume 2278.449330
_symmetry_space_group_name_H-M "C 2/C"
_symmetry_group_IT_number 15
_symmetry_cell_setting 'monoclinic'
loop_
_space_group_symop_operation_xyz
x,y,z
-x,y,1/2-z
-x,-y,-z
x,-y,1/2+z
1/2+x,1/2+y,z
1/2-x,1/2+y,1/2-z
1/2-x,1/2-y,-z
1/2+x,1/2-y,1/2+z
loop_
_atom_site_type_symbol
_atom_site_label
_atom_site_fract_x
_atom_site_fract_y
_atom_site_fract_z
Si Si1 0.854320 0.661904 0.322079
Si Si2 0.464515 0.969777 0.160420
Si Si3 0.765875 0.227779 0.228872
Si Si4 0.499675 0.658223 0.636650
Si Si5 0.678092 0.902533 0.000628
Si Si6 0.703843 0.595036 0.694003
O O1 0.923258 0.569532 0.254186
O O2 0.807987 0.676236 0.264960
O O3 0.933173 0.746823 0.241396
O O4 0.756113 0.648940 0.527124
O O5 0.362952 0.905509 0.326191
O O6 0.568823 0.925578 0.078434
O O7 0.500000 0.000000 0.000000
O O8 0.727133 0.191773 0.390906
O O9 0.748674 0.339021 0.229751
O O10 0.885153 0.190030 0.052770
O O11 0.500000 0.608797 0.750000
O O12 0.423988 0.602461 0.653054
O O13 0.755869 0.988875 0.868463
#
# Coordination Sequence:
#
# PCOD9257460 Si02
#       6
#     8   8   8   8   8   8
#     4  10  18  31  54  85 106 138 190 241 291 320
#     4  10  19  35  57  84 108 142 187 246 288 334
#     4  11  19  33  53  82 115 146 181 236 288 336
#     4  11  18  29  53  82 112 150 182 232 289 341
#     4  10  22  34  55  87 114 147 189 236 290 340
#     4  10  20  34  53  83 117 145 193 240 279 336
#
# _framework density 21.066960999999999
#
# number of rings (size 3 to 8) (size 9 to 14) (size 15 to 20)
#    0.000    1.667    5.000    2.000    2.333    0.667 
#    0.000    0.000    0.000    4.000    4.333    0.000 
#    0.000    0.000    0.000    0.000    0.000    0.000 
#
# Total GULP energy -133697.761891 kJ/mol
# GULP energy per Si atom -5570.740079 kJ/mol
# Density = 2.101901 g / cm^3
# Si number density = 21.066961 Si / 1000 Ang^3
#
#
#
# Elastic Constant Matrix: (Units=GPa)
#
#
# Indices 1 2 3 4 5 6 
#
# 1 52.5546 1.0908 49.3226 0.0000 -7.6388 0.0000
# 2 1.0908 29.4962 13.8946 0.0000 -4.1828 0.0000
# 3 49.3226 13.8946 100.7313 0.0000 -3.7123 0.0000
# 4 0.0000 0.0000 0.0000 20.2887 0.0000 7.4084
# 5 -7.6388 -4.1828 -3.7123 0.0000 42.0892 0.0000
# 6 0.0000 0.0000 0.0000 7.4084 0.0000 11.2498
#
#
#
# Elastic Compliance Matrix: (Units=1/GPa)
#
#
# Indices 1 2 3 4 5 6 
#
# 1 0.038203 0.008720 -0.019685 0.000000 0.006064 0.000000
# 2 0.008720 0.038676 -0.009435 0.000000 0.004594 0.000000
# 3 -0.019685 -0.009435 0.020769 0.000000 -0.002679 0.000000
# 4 0.000000 0.000000 0.000000 0.064893 0.000000 -0.042735
# 5 0.006064 0.004594 -0.002679 0.000000 0.025080 0.000000
# 6 0.000000 0.000000 0.000000 -0.042735 0.000000 0.117033
#
#
# Mechanical properties :
#
#
# Convention : Reuss Voigt Hill
#
# Bulk Modulus (GPa) = 17.59103 34.59978 26.09540
# Shear Modulus (GPa) = 13.72103 22.62380 18.17242
#
# Velocity S-wave (km/s) = 2.55484 3.28060 2.94020
# Velocity P-wave (km/s) = 4.13172 5.55060 4.89286
#
# Compressibility (1/GPa) = 0.05684716
#
# Stress axis : x y z
#
# Youngs Moduli (GPa) = 26.17611 25.85562 48.14889
#
# Poissons Ratio (x) = -0.22546 0.94782
# Poissons Ratio (y) = -0.22826 0.45430
# Poissons Ratio (z) = 0.51528 0.24396
#
# Static dielectric constant tensor:
#      x y z
#    x 1.861060 0.000000 0.048160 
#    y 0.000000 1.776890 0.000000 
#    z 0.048160 0.000000 1.894950 
# 
# From -- ./inp_files/96191.got.cif
#   From: 2010.05.17/outbox.cif.g08.bks.cpg/sg15_49_cif.got.tgz:96191.got - 2010.06.03 18:47:42.
