data_PCOD9257179
_publ_section_title
;
Structure prediction by ZEFSAII (Michael W. Deem and Ramdas Pophale) SiO2 
 PCOD9257179
Probable space group: C 2/C
;
_chemical_formula_sum "Si O2"
_cell_formula_units_Z 60
_cell_length_a 9.311267
_cell_length_b 19.211071
_cell_length_c 16.614396
_cell_angle_alpha 90.000000
_cell_angle_beta 111.626372
_cell_angle_gamma 90.000000
_cell_volume 2762.767100
_symmetry_space_group_name_H-M "C 2/C"
_symmetry_group_IT_number 15
_symmetry_cell_setting 'monoclinic'
loop_
_space_group_symop_operation_xyz
x,y,z
-x,y,1/2-z
-x,-y,-z
x,-y,1/2+z
1/2+x,1/2+y,z
1/2-x,1/2+y,1/2-z
1/2-x,1/2-y,-z
1/2+x,1/2-y,1/2+z
loop_
_atom_site_type_symbol
_atom_site_label
_atom_site_fract_x
_atom_site_fract_y
_atom_site_fract_z
Si Si1 0.832401 0.353228 0.514711
Si Si2 0.186403 0.050167 0.577515
Si Si3 0.213539 0.821707 0.173589
Si Si4 0.650424 0.523240 0.922779
Si Si5 0.116134 0.808539 0.707808
Si Si6 0.500000 0.411308 0.250000
Si Si7 0.152358 0.585364 0.319899
Si Si8 0.022678 0.223870 0.010617
O O1 0.793180 0.425951 0.466992
O O2 0.901442 0.366693 0.616571
O O3 0.668683 0.315179 0.498852
O O4 0.935823 0.304797 0.482193
O O5 0.282146 0.111036 0.640452
O O6 0.005425 0.053286 0.565404
O O7 0.187001 0.046306 0.480467
O O8 0.242738 0.976014 0.623057
O O9 0.314104 0.763803 0.240851
O O10 0.118399 0.788035 0.079260
O O11 0.101000 0.859320 0.215473
O O12 0.607434 0.535638 0.822172
O O13 0.250496 0.863760 0.716874
O O14 0.000000 0.836980 0.750000
O O15 0.025970 0.798603 0.604226
O O16 0.000000 0.554627 0.250000
#
# Coordination Sequence:
#
# PCOD9257179 Si02
#       8
#     8   8   8   8   8   4   8   8
#     4   9  16  30  56  91 118 152 204 261 311 360
#     4   9  19  35  58  86 123 160 204 253 322 372
#     4  11  22  38  62  93 128 169 211 265 321 375
#     4   9  16  31  52  86 125 152 194 256 316 361
#     4  11  26  41  59  91 130 172 217 257 319 395
#     4  10  18  30  58 100 122 146 212 264 304 370
#     4  10  21  38  63  90 122 163 210 266 312 372
#     4  10  19  34  60  88 128 167 204 263 324 367
#
# _framework density 21.717357
#
# number of rings (size 3 to 8) (size 9 to 14) (size 15 to 20)
#    0.000    2.133    2.667    1.600    6.533    1.067 
#    4.800    0.000    0.000    0.000    0.000   13.067 
#    0.000    0.000    0.000    0.000    0.000    0.000 
#
# Total GULP energy -167139.069722 kJ/mol
# GULP energy per Si atom -5571.302324 kJ/mol
# Density = 2.166793 g / cm^3
# Si number density = 21.717357 Si / 1000 Ang^3
#
#
#
# Elastic Constant Matrix: (Units=GPa)
#
#
# Indices 1 2 3 4 5 6 
#
# 1 22.7808 7.4572 41.0080 0.0000 -10.4530 0.0000
# 2 7.4572 71.6201 36.7063 0.0000 1.7946 0.0000
# 3 41.0080 36.7063 114.6573 0.0000 -7.7792 0.0000
# 4 0.0000 0.0000 0.0000 -13.4523 0.0000 14.7884
# 5 -10.4530 1.7946 -7.7792 0.0000 18.6172 0.0000
# 6 0.0000 0.0000 0.0000 14.7884 0.0000 12.9868
#
#
#
# Elastic Compliance Matrix: (Units=1/GPa)
#
#
# Indices 1 2 3 4 5 6 
#
# 1 0.216971 0.014208 -0.076136 0.000000 0.088639 0.000000
# 2 0.014208 0.017922 -0.010698 0.000000 0.001780 0.000000
# 3 -0.076136 -0.010698 0.037613 0.000000 -0.026000 0.000000
# 4 0.000000 0.000000 0.000000 -0.033012 0.000000 0.037591
# 5 0.088639 0.001780 -0.026000 0.000000 0.092446 0.000000
# 6 0.000000 0.000000 0.000000 0.037591 0.000000 0.034195
#
#
# Mechanical properties :
#
#
# Convention : Reuss Voigt Hill
#
# Bulk Modulus (GPa) = 7.85831 42.15567 25.00699
# Shear Modulus (GPa) = 9.02845 11.88947 10.45896
#
# Velocity S-wave (km/s) = 2.04115 2.34233 2.19691
# Velocity P-wave (km/s) = 3.03007 5.17383 4.23969
#
# Compressibility (1/GPa) = 0.12725390
#
# Stress axis : x y z
#
# Youngs Moduli (GPa) = 4.60891 55.79837 26.58645
#
# Poissons Ratio (x) = -0.79280 2.02418
# Poissons Ratio (y) = -0.06549 0.28443
# Poissons Ratio (z) = 0.35090 0.59695
#
# Static dielectric constant tensor:
#      x y z
#    x 1.790870 0.000000 -0.003460 
#    y 0.000000 1.831010 0.000000 
#    z -0.003460 0.000000 1.854830 
# 
# From -- ./inp_files/192552.got.cif
#   From: 2010.05.17/outbox.cif.g08.bks.cpg/sg15_97_cif.got.tgz:192552.got - 2010.06.03 18:47:42.
