data_PCOD9257239
_publ_section_title
;
Structure prediction by ZEFSAII (Michael W. Deem and Ramdas Pophale) SiO2 
 PCOD9257239
Probable space group: C 2/C
;
_chemical_formula_sum "Si O2"
_cell_formula_units_Z 64
_cell_length_a 23.620437
_cell_length_b 11.403781
_cell_length_c 21.880487
_cell_angle_alpha 90.000000
_cell_angle_beta 146.479609
_cell_angle_gamma 90.000000
_cell_volume 3254.743017
_symmetry_space_group_name_H-M "C 2/C"
_symmetry_group_IT_number 15
_symmetry_cell_setting 'monoclinic'
loop_
_space_group_symop_operation_xyz
x,y,z
-x,y,1/2-z
-x,-y,-z
x,-y,1/2+z
1/2+x,1/2+y,z
1/2-x,1/2+y,1/2-z
1/2-x,1/2-y,-z
1/2+x,1/2-y,1/2+z
loop_
_atom_site_type_symbol
_atom_site_label
_atom_site_fract_x
_atom_site_fract_y
_atom_site_fract_z
Si Si1 0.014401 0.839090 0.398971
Si Si2 0.840171 0.411310 0.850191
Si Si3 0.072802 0.847688 0.050228
Si Si4 0.771623 0.911361 0.966892
Si Si5 0.633926 0.291313 0.684260
Si Si6 0.179637 0.160660 0.858628
Si Si7 0.213240 0.563873 0.810437
Si Si8 0.128279 0.639568 0.555166
O O1 0.123140 0.889630 0.475796
O O2 0.042528 0.702379 0.437294
O O3 0.971784 0.890051 0.424708
O O4 0.930083 0.852811 0.271133
O O5 0.894226 0.286912 0.906288
O O6 0.723697 0.386594 0.767926
O O7 0.832774 0.463377 0.775268
O O8 0.893298 0.511268 0.938577
O O9 0.173482 0.910862 0.115953
O O10 0.979657 0.842646 0.918654
O O11 0.700188 0.796125 0.895921
O O12 0.719818 0.018569 0.885170
O O13 0.801489 0.917835 0.064584
O O14 0.652972 0.185709 0.748351
O O15 0.645320 0.226094 0.628353
O O16 0.266775 0.134147 0.887524
#
# Coordination Sequence:
#
# PCOD9257239 Si02
#       8
#     8   8   8   8   8   8   8   8
#     4  10  18  31  48  73 102 127 161 204 246 297
#     4  10  18  31  48  73 102 130 165 205 249 304
#     4  10  20  31  49  75 103 131 163 204 254 301
#     4  10  21  32  49  72  98 132 169 198 243 301
#     4   9  19  32  48  74 104 132 164 206 252 300
#     4  10  19  34  49  69 100 131 162 208 245 282
#     4  10  19  32  49  73 104 133 165 205 249 305
#     4   9  19  31  50  74  96 130 169 199 249 304
#
# _framework density 19.663611
#
# number of rings (size 3 to 8) (size 9 to 14) (size 15 to 20)
#    0.000    2.250    0.000    5.625    0.000    8.500 
#    0.000    0.000    0.000    3.000    0.000    1.750 
#    0.000    0.000    0.000    0.000    0.000    0.000 
#
# Total GULP energy -178730.985673 kJ/mol
# GULP energy per Si atom -5585.343302 kJ/mol
# Density = 1.961886 g / cm^3
# Si number density = 19.663611 Si / 1000 Ang^3
#
#
#
# Elastic Constant Matrix: (Units=GPa)
#
#
# Indices 1 2 3 4 5 6 
#
# 1 21.6909 15.6396 4.6703 0.0000 -9.5616 0.0000
# 2 15.6396 74.7676 29.8246 0.0000 -11.2698 0.0000
# 3 4.6703 29.8246 95.6839 0.0000 -12.0587 0.0000
# 4 0.0000 0.0000 0.0000 17.5971 0.0000 -6.8371
# 5 -9.5616 -11.2698 -12.0587 0.0000 32.9480 0.0000
# 6 0.0000 0.0000 0.0000 -6.8371 0.0000 16.6542
#
#
#
# Elastic Compliance Matrix: (Units=1/GPa)
#
#
# Indices 1 2 3 4 5 6 
#
# 1 0.060151 -0.011373 0.002431 0.000000 0.014456 0.000000
# 2 -0.011373 0.017855 -0.004882 0.000000 0.001020 0.000000
# 3 0.002431 -0.004882 0.012300 0.000000 0.003537 0.000000
# 4 0.000000 0.000000 0.000000 0.067612 0.000000 0.027757
# 5 0.014456 0.001020 0.003537 0.000000 0.036190 0.000000
# 6 0.000000 0.000000 0.000000 0.027757 0.000000 0.071440
#
#
# Mechanical properties :
#
#
# Convention : Reuss Voigt Hill
#
# Bulk Modulus (GPa) = 15.95960 32.49016 24.22488
# Shear Modulus (GPa) = 15.91942 22.90704 19.41323
#
# Velocity S-wave (km/s) = 2.84841 3.41683 3.14549
# Velocity P-wave (km/s) = 4.35337 5.66791 5.05357
#
# Compressibility (1/GPa) = 0.06265821
#
# Stress axis : x y z
#
# Youngs Moduli (GPa) = 16.62476 56.00747 81.30191
#
# Poissons Ratio (x) = 0.63697 -0.19763
# Poissons Ratio (y) = 0.18907 0.39689
# Poissons Ratio (z) = -0.04041 0.27341
#
# Static dielectric constant tensor:
#      x y z
#    x 1.685340 0.000000 0.015160 
#    y 0.000000 1.710960 0.000000 
#    z 0.015160 0.000000 1.727920 
# 
# From -- ./inp_files/255347.got.cif
#   From: 2010.05.17/outbox.cif.g08.bks.cpg/sg15_128_cif.got.tgz:255347.got - 2010.06.03 18:47:42.
