data_PCOD9257642
_publ_section_title
;
Structure prediction by ZEFSAII (Michael W. Deem and Ramdas Pophale) SiO2 
 PCOD9257642
Probable space group: C 2/C
;
_chemical_formula_sum "Si O2"
_cell_formula_units_Z 64
_cell_length_a 24.438613
_cell_length_b 14.394150
_cell_length_c 10.678648
_cell_angle_alpha 90.000000
_cell_angle_beta 109.347937
_cell_angle_gamma 90.000000
_cell_volume 3544.311175
_symmetry_space_group_name_H-M "C 2/C"
_symmetry_group_IT_number 15
_symmetry_cell_setting 'monoclinic'
loop_
_space_group_symop_operation_xyz
x,y,z
-x,y,1/2-z
-x,-y,-z
x,-y,1/2+z
1/2+x,1/2+y,z
1/2-x,1/2+y,1/2-z
1/2-x,1/2-y,-z
1/2+x,1/2-y,1/2+z
loop_
_atom_site_type_symbol
_atom_site_label
_atom_site_fract_x
_atom_site_fract_y
_atom_site_fract_z
Si Si1 0.540021 0.090782 0.905457
Si Si2 0.295831 0.416882 0.116887
Si Si3 0.031514 0.374194 0.908500
Si Si4 0.307647 0.089959 0.166604
Si Si5 0.363194 0.254539 0.085671
Si Si6 0.845823 0.602064 0.631863
Si Si7 0.789833 0.296298 0.294184
Si Si8 0.255032 0.609194 0.131913
O O1 0.500000 0.094073 0.750000
O O2 0.601179 0.134633 0.911572
O O3 0.551612 0.981541 0.945746
O O4 0.510197 0.138860 0.002561
O O5 0.353617 0.359949 0.124400
O O6 0.263597 0.362863 0.207103
O O7 0.301259 0.526539 0.148379
O O8 0.248396 0.412042 0.967405
O O9 0.079224 0.292878 0.926814
O O10 0.000000 0.375764 0.750000
O O11 0.340879 0.186547 0.178695
O O12 0.287468 0.071988 0.291324
O O13 0.349358 0.008278 0.153171
O O14 0.315144 0.242230 0.941846
O O15 0.840204 0.646819 0.763196
O O16 0.784166 0.620888 0.519960
O O17 0.775710 0.207888 0.197866
#
# Coordination Sequence:
#
# PCOD9257642 Si02
#       8
#     8   8   8   8   8   8   8   8
#     4  10  21  36  50  77 111 146 185 226 267 320
#     4  10  20  32  53  74 104 145 177 214 257 334
#     4  10  22  34  54  79 107 138 191 232 261 317
#     4  10  18  32  50  77 107 140 176 206 260 327
#     4  11  19  35  56  74 102 151 180 215 271 322
#     4  11  22  31  52  77 110 149 171 218 280 308
#     4  11  20  34  51  78 108 141 181 215 265 340
#     4  11  21  33  50  79 114 135 181 220 260 328
#
# _framework density 18.057105
#
# number of rings (size 3 to 8) (size 9 to 14) (size 15 to 20)
#    0.000    1.500    5.000    1.875    1.750    1.000 
#    0.000    0.000    0.000    0.000    0.000    4.375 
#    0.000    0.000    0.000    0.000    0.000    0.000 
#
# Total GULP energy -178299.975656 kJ/mol
# GULP energy per Si atom -5571.874239 kJ/mol
# Density = 1.801601 g / cm^3
# Si number density = 18.057105 Si / 1000 Ang^3
#
#
#
# Elastic Constant Matrix: (Units=GPa)
#
#
# Indices 1 2 3 4 5 6 
#
# 1 81.4452 28.3739 3.1795 0.0000 -21.5877 0.0000
# 2 28.3739 74.1183 14.3945 0.0000 1.9058 0.0000
# 3 3.1795 14.3945 34.7492 0.0000 -16.8123 0.0000
# 4 0.0000 0.0000 0.0000 14.5985 0.0000 -9.2039
# 5 -21.5877 1.9058 -16.8123 0.0000 23.3443 0.0000
# 6 0.0000 0.0000 0.0000 -9.2039 0.0000 19.5691
#
#
#
# Elastic Compliance Matrix: (Units=1/GPa)
#
#
# Indices 1 2 3 4 5 6 
#
# 1 0.032377 -0.019919 0.031557 0.000000 0.054294 0.000000
# 2 -0.019919 0.028132 -0.030472 0.000000 -0.042662 0.000000
# 3 0.031557 -0.030472 0.082626 0.000000 0.091176 0.000000
# 4 0.000000 0.000000 0.000000 0.097374 0.000000 0.045798
# 5 0.054294 -0.042662 0.091176 0.000000 0.162192 0.000000
# 6 0.000000 0.000000 0.000000 0.045798 0.000000 0.072641
#
#
# Mechanical properties :
#
#
# Convention : Reuss Voigt Hill
#
# Bulk Modulus (GPa) = 9.48165 31.35649 20.41907
# Shear Modulus (GPa) = 9.12135 21.12671 15.12403
#
# Velocity S-wave (km/s) = 2.24997 3.42423 2.89721
# Velocity P-wave (km/s) = 3.46585 5.74775 4.74599
#
# Compressibility (1/GPa) = 0.10546692
#
# Stress axis : x y z
#
# Youngs Moduli (GPa) = 30.88643 35.54633 12.10280
#
# Poissons Ratio (x) = 0.70805 -0.38193
# Poissons Ratio (y) = 0.61523 0.36879
# Poissons Ratio (z) = -0.97469 1.08316
#
# Static dielectric constant tensor:
#      x y z
#    x 1.646220 0.000000 -0.014490 
#    y 0.000000 1.642890 0.000000 
#    z -0.014490 0.000000 1.649460 
# 
# From -- ./inp_files/118567.got.cif
#   From: 2010.05.17/outbox.cif.g08.bks.cpg/sg15_60_cif.got.tgz:118567.got - 2010.06.03 18:47:42.
