data_PCOD9257092
_publ_section_title
;
Structure prediction by ZEFSAII (Michael W. Deem and Ramdas Pophale) SiO2 
 PCOD9257092
Probable space group: C 2/C
;
_chemical_formula_sum "Si O2"
_cell_formula_units_Z 64
_cell_length_a 11.261155
_cell_length_b 18.120129
_cell_length_c 20.976947
_cell_angle_alpha 90.000000
_cell_angle_beta 44.799226
_cell_angle_gamma 90.000000
_cell_volume 3016.090152
_symmetry_space_group_name_H-M "C 2/C"
_symmetry_group_IT_number 15
_symmetry_cell_setting 'monoclinic'
loop_
_space_group_symop_operation_xyz
x,y,z
-x,y,1/2-z
-x,-y,-z
x,-y,1/2+z
1/2+x,1/2+y,z
1/2-x,1/2+y,1/2-z
1/2-x,1/2-y,-z
1/2+x,1/2-y,1/2+z
loop_
_atom_site_type_symbol
_atom_site_label
_atom_site_fract_x
_atom_site_fract_y
_atom_site_fract_z
Si Si1 0.644903 0.180328 0.564738
Si Si2 0.273204 0.972462 0.522234
Si Si3 0.684027 0.821238 0.768742
Si Si4 0.438323 0.804543 0.026879
Si Si5 0.288118 0.183119 0.388113
Si Si6 0.409506 0.060581 0.104997
Si Si7 0.214969 0.803785 0.358977
Si Si8 0.470657 0.564236 0.958139
O O1 0.750000 0.250000 0.500000
O O2 0.744684 0.107870 0.502695
O O3 0.475583 0.179703 0.586782
O O4 0.639534 0.185362 0.643127
O O5 0.303788 0.969949 0.586094
O O6 0.449511 0.003610 0.424991
O O7 0.112840 0.021436 0.568363
O O8 0.754202 0.824072 0.670987
O O9 0.482265 0.822112 0.832667
O O10 0.706364 0.896281 0.800704
O O11 0.741363 0.749910 0.788090
O O12 0.263715 0.767031 0.076938
O O13 0.476837 0.876718 0.972540
O O14 0.573435 0.744109 0.951035
O O15 0.175070 0.120992 0.463664
O O16 0.130630 0.884116 0.380519
O O17 0.500000 0.500000 0.000000
#
# Coordination Sequence:
#
# PCOD9257092 Si02
#       8
#     8   8   8   8   8   8   8   8
#     4   9  16  31  49  76 106 132 172 220 266 309
#     4  10  18  30  53  83 106 134 179 226 277 309
#     4  10  20  36  55  76 110 148 181 221 275 339
#     4   8  17  30  52  77 102 131 180 225 256 309
#     4  10  21  35  55  79 109 146 181 223 280 330
#     4   9  18  32  55  81 104 138 181 230 264 324
#     4   9  18  30  53  79 102 139 178 221 260 318
#     4  11  20  33  58  85 111 139 185 233 275 324
#
# _framework density 21.219524
#
# number of rings (size 3 to 8) (size 9 to 14) (size 15 to 20)
#    0.000    2.500    2.500    0.750    1.750    1.500 
#    0.000    0.625    8.250    3.000    0.000    0.000 
#    0.000    0.000    0.000    0.000    0.000    0.000 
#
# Total GULP energy -178340.271878 kJ/mol
# GULP energy per Si atom -5573.133496 kJ/mol
# Density = 2.117123 g / cm^3
# Si number density = 21.219524 Si / 1000 Ang^3
#
#
#
# Elastic Constant Matrix: (Units=GPa)
#
#
# Indices 1 2 3 4 5 6 
#
# 1 56.9863 28.4105 11.3681 -0.0002 27.2717 0.0003
# 2 28.4105 109.7146 0.2489 0.0001 7.7593 0.0001
# 3 11.3681 0.2489 23.4363 0.0006 18.4867 0.0001
# 4 -0.0002 0.0001 0.0006 11.4751 -0.0001 7.3519
# 5 27.2717 7.7593 18.4867 -0.0001 25.0976 -0.0002
# 6 0.0003 0.0001 0.0001 7.3519 -0.0002 36.5189
#
#
#
# Elastic Compliance Matrix: (Units=1/GPa)
#
#
# Indices 1 2 3 4 5 6 
#
# 1 0.057422 -0.008329 0.046357 -0.000001 -0.093968 -0.000001
# 2 -0.008329 0.010798 -0.001385 0.000000 0.006732 0.000000
# 3 0.046357 -0.001385 0.142238 -0.000007 -0.154716 -0.000001
# 4 -0.000001 0.000000 -0.000007 0.100050 0.000006 -0.020142
# 5 -0.093968 0.006732 -0.154716 0.000006 0.253832 0.000002
# 6 -0.000001 0.000000 -0.000001 -0.020142 0.000002 0.031438
#
#
# Mechanical properties :
#
#
# Convention : Reuss Voigt Hill
#
# Bulk Modulus (GPa) = 3.52429 30.02135 16.77282
# Shear Modulus (GPa) = 8.10274 24.62562 16.36418
#
# Velocity S-wave (km/s) = 1.95623 3.41033 2.78003
# Velocity P-wave (km/s) = 2.60133 5.44847 4.26924
#
# Compressibility (1/GPa) = 0.28374547
#
# Stress axis : x y z
#
# Youngs Moduli (GPa) = 17.41481 92.60649 7.03046
#
# Poissons Ratio (x) = 0.77132 -0.32591
# Poissons Ratio (y) = 0.14505 0.00974
# Poissons Ratio (z) = -0.80730 0.12825
#
# Static dielectric constant tensor:
#      x y z
#    x 1.818790 0.000000 0.028410 
#    y 0.000000 1.815830 0.000000 
#    z 0.028410 0.000000 1.792700 
# 
# From -- ./inp_files/239548.got.cif
#   From: 2010.05.17/outbox.cif.g08.bks.cpg/sg15_120_cif.got.tgz:239548.got - 2010.06.03 18:47:42.
