data_PCOD9257782
_publ_section_title
;
Structure prediction by ZEFSAII (Michael W. Deem and Ramdas Pophale) SiO2 
 PCOD9257782
Probable space group: C 2/C
;
_chemical_formula_sum "Si O2"
_cell_formula_units_Z 64
_cell_length_a 19.464785
_cell_length_b 12.142656
_cell_length_c 13.449698
_cell_angle_alpha 90.000000
_cell_angle_beta 97.184732
_cell_angle_gamma 90.000000
_cell_volume 3153.931996
_symmetry_space_group_name_H-M "C 2/C"
_symmetry_group_IT_number 15
_symmetry_cell_setting 'monoclinic'
loop_
_space_group_symop_operation_xyz
x,y,z
-x,y,1/2-z
-x,-y,-z
x,-y,1/2+z
1/2+x,1/2+y,z
1/2-x,1/2+y,1/2-z
1/2-x,1/2-y,-z
1/2+x,1/2-y,1/2+z
loop_
_atom_site_type_symbol
_atom_site_label
_atom_site_fract_x
_atom_site_fract_y
_atom_site_fract_z
Si Si1 0.723199 0.895114 0.592699
Si Si2 0.729552 0.153284 0.862244
Si Si3 0.125837 0.668726 0.341201
Si Si4 0.209758 0.882900 0.401424
Si Si5 0.429490 0.089090 0.372035
Si Si6 0.721266 0.571059 0.136122
Si Si7 0.653787 0.223810 0.673852
Si Si8 0.539601 0.135145 0.525799
O O1 0.715896 0.876797 0.473304
O O2 0.737428 0.773955 0.637516
O O3 0.649361 0.935903 0.615149
O O4 0.779450 0.989007 0.626168
O O5 0.663109 0.158755 0.778846
O O6 0.782201 0.057578 0.840099
O O7 0.150669 0.797059 0.354827
O O8 0.076498 0.640072 0.238763
O O9 0.197807 0.603196 0.338543
O O10 0.089717 0.628923 0.436917
O O11 0.203950 0.896483 0.519227
O O12 0.282680 0.825744 0.381818
O O13 0.466837 0.166204 0.461178
O O14 0.467415 0.973887 0.405620
O O15 0.672844 0.649314 0.190745
O O16 0.581283 0.214477 0.606324
#
# Coordination Sequence:
#
# PCOD9257782 Si02
#       8
#     8   8   8   8   8   8   8   8
#     4  10  20  40  51  87 118 141 189 232 297 347
#     4  10  22  32  57  82 114 151 177 242 291 343
#     4  11  19  36  56  87 110 145 192 234 290 338
#     4  10  18  32  59  79 112 143 174 250 281 333
#     4  11  23  35  54  80 119 154 185 235 289 348
#     4  10  18  32  53  83 113 140 179 241 286 336
#     4  11  18  32  53  82 111 145 192 224 291 342
#     4  11  21  36  54  80 117 154 191 234 277 349
#
# _framework density 20.29213
#
# number of rings (size 3 to 8) (size 9 to 14) (size 15 to 20)
#    0.000    1.500    3.750    4.125    1.750    0.000 
#    0.000    1.875    0.000    0.750    0.000    0.000 
#    0.000    0.000    0.000    0.000    0.000    0.000 
#
# Total GULP energy -178284.038060 kJ/mol
# GULP energy per Si atom -5571.376189 kJ/mol
# Density = 2.024594 g / cm^3
# Si number density = 20.292130 Si / 1000 Ang^3
#
#
#
# Elastic Constant Matrix: (Units=GPa)
#
#
# Indices 1 2 3 4 5 6 
#
# 1 35.6622 19.0104 19.9565 0.0000 13.7310 0.0000
# 2 19.0104 147.0195 52.9296 0.0000 13.2369 0.0000
# 3 19.9565 52.9296 152.4700 0.0000 32.3256 0.0000
# 4 0.0000 0.0000 0.0000 28.2080 0.0000 0.4696
# 5 13.7310 13.2369 32.3256 0.0000 20.4320 0.0000
# 6 0.0000 0.0000 0.0000 0.4696 0.0000 17.8132
#
#
#
# Elastic Compliance Matrix: (Units=1/GPa)
#
#
# Indices 1 2 3 4 5 6 
#
# 1 0.039191 -0.003259 0.001712 0.000000 -0.026936 0.000000
# 2 -0.003259 0.008062 -0.002602 0.000000 0.001084 0.000000
# 3 0.001712 -0.002602 0.010720 0.000000 -0.016426 0.000000
# 4 0.000000 0.000000 0.000000 0.035467 0.000000 -0.000935
# 5 -0.026936 0.001084 -0.016426 0.000000 0.092330 0.000000
# 6 0.000000 0.000000 0.000000 -0.000935 0.000000 0.056163
#
#
# Mechanical properties :
#
#
# Convention : Reuss Voigt Hill
#
# Bulk Modulus (GPa) = 20.13024 57.66052 38.89538
# Shear Modulus (GPa) = 18.74142 29.50765 24.12454
#
# Velocity S-wave (km/s) = 3.04234 3.81746 3.45173
# Velocity P-wave (km/s) = 4.72048 6.92153 5.92412
#
# Compressibility (1/GPa) = 0.04967650
#
# Stress axis : x y z
#
# Youngs Moduli (GPa) = 25.51615 124.03204 93.28113
#
# Poissons Ratio (x) = 0.40421 -0.15973
# Poissons Ratio (y) = 0.08316 0.24272
# Poissons Ratio (z) = -0.04369 0.32273
#
# Static dielectric constant tensor:
#      x y z
#    x 1.710930 0.000000 -0.008700 
#    y 0.000000 1.784460 0.000000 
#    z -0.008700 0.000000 1.839510 
# 
# From -- ./inp_files/167659.got.cif
#   From: 2010.05.17/outbox.cif.g08.bks.cpg/sg15_84_cif.got.tgz:167659.got - 2010.06.03 18:47:42.
