data_PCOD9257369
_publ_section_title
;
Structure prediction by ZEFSAII (Michael W. Deem and Ramdas Pophale) SiO2 
 PCOD9257369
Probable space group: C 2/C
;
_chemical_formula_sum "Si O2"
_cell_formula_units_Z 64
_cell_length_a 12.032922
_cell_length_b 27.385662
_cell_length_c 9.596302
_cell_angle_alpha 90.000000
_cell_angle_beta 98.901532
_cell_angle_gamma 90.000000
_cell_volume 3124.177757
_symmetry_space_group_name_H-M "C 2/C"
_symmetry_group_IT_number 15
_symmetry_cell_setting 'monoclinic'
loop_
_space_group_symop_operation_xyz
x,y,z
-x,y,1/2-z
-x,-y,-z
x,-y,1/2+z
1/2+x,1/2+y,z
1/2-x,1/2+y,1/2-z
1/2-x,1/2-y,-z
1/2+x,1/2-y,1/2+z
loop_
_atom_site_type_symbol
_atom_site_label
_atom_site_fract_x
_atom_site_fract_y
_atom_site_fract_z
Si Si1 0.182592 0.108319 0.032042
Si Si2 0.222722 0.248785 0.775670
Si Si3 0.790506 0.116727 0.054530
Si Si4 0.102335 0.222158 0.379933
Si Si5 0.626818 0.469265 0.728696
Si Si6 0.088142 0.790669 0.480478
Si Si7 0.866025 0.918375 0.269029
Si Si8 0.124888 0.644823 0.226868
O O1 0.097196 0.153499 0.033101
O O2 0.203090 0.102985 0.873624
O O3 0.132924 0.058363 0.082397
O O4 0.290876 0.120482 0.144709
O O5 0.296934 0.242006 0.649983
O O6 0.138657 0.211719 0.835062
O O7 0.151490 0.298022 0.745195
O O8 0.323132 0.260630 0.907001
O O9 0.851610 0.166649 0.117305
O O10 0.821547 0.068334 0.149064
O O11 0.662378 0.127287 0.079941
O O12 0.830163 0.107488 0.905131
O O13 0.000000 0.226589 0.250000
O O14 0.036969 0.228649 0.513350
O O15 0.500000 0.473853 0.750000
O O16 0.667528 0.524554 0.725748
O O17 0.000000 0.913698 0.250000
O O18 0.000000 0.634057 0.250000
#
# Coordination Sequence:
#
# PCOD9257369 Si02
#       8
#     8   8   8   8   8   8   8   8
#     4  10  20  33  53  78 109 143 177 219 267 316
#     4   8  16  28  48  76  98 128 173 216 256 308
#     4  10  19  32  52  75 103 138 179 217 258 318
#     4   9  15  27  49  73 101 137 173 206 252 315
#     4  10  18  31  52  78 109 146 176 204 258 334
#     4   9  15  28  49  74 105 133 165 210 261 313
#     4  11  21  31  49  83 120 140 162 211 274 329
#     4   9  19  38  59  73  95 141 195 231 258 305
#
# _framework density 20.485389000000001
#
# number of rings (size 3 to 8) (size 9 to 14) (size 15 to 20)
#    0.000    2.500    0.000    5.625    0.000    2.000 
#    0.000    3.750    0.000   18.000    0.000    0.000 
#    0.000    0.000    0.000    0.000    0.000    0.000 
#
# Total GULP energy -178397.628698 kJ/mol
# GULP energy per Si atom -5574.925897 kJ/mol
# Density = 2.043876 g / cm^3
# Si number density = 20.485389 Si / 1000 Ang^3
#
#
#
# Elastic Constant Matrix: (Units=GPa)
#
#
# Indices 1 2 3 4 5 6 
#
# 1 104.6846 25.1615 40.4048 0.0000 -40.8512 0.0000
# 2 25.1615 51.1807 16.0289 0.0000 -14.3089 0.0000
# 3 40.4048 16.0289 127.8268 0.0000 -30.3767 0.0000
# 4 0.0000 0.0000 0.0000 28.8014 0.0000 -10.0687
# 5 -40.8512 -14.3089 -30.3767 0.0000 35.6643 0.0000
# 6 0.0000 0.0000 0.0000 -10.0687 0.0000 16.2962
#
#
#
# Elastic Compliance Matrix: (Units=1/GPa)
#
#
# Indices 1 2 3 4 5 6 
#
# 1 0.017868 -0.003377 -0.000856 0.000000 0.018383 0.000000
# 2 -0.003377 0.022716 -0.000670 0.000000 0.004675 0.000000
# 3 -0.000856 -0.000670 0.009881 0.000000 0.007166 0.000000
# 4 0.000000 0.000000 0.000000 0.044286 0.000000 0.027363
# 5 0.018383 0.004675 0.007166 0.000000 0.057075 0.000000
# 6 0.000000 0.000000 0.000000 0.027363 0.000000 0.078270
#
#
# Mechanical properties :
#
#
# Convention : Reuss Voigt Hill
#
# Bulk Modulus (GPa) = 24.59500 49.65362 37.12431
# Shear Modulus (GPa) = 19.72738 29.62551 24.67644
#
# Velocity S-wave (km/s) = 3.10659 3.80699 3.47448
# Velocity P-wave (km/s) = 4.98999 6.60420 5.85301
#
# Compressibility (1/GPa) = 0.04065867
#
# Stress axis : x y z
#
# Youngs Moduli (GPa) = 55.96560 44.02258 101.20721
#
# Poissons Ratio (x) = 0.14866 0.08663
# Poissons Ratio (y) = 0.18899 0.06782
# Poissons Ratio (z) = 0.04791 0.02950
#
# Static dielectric constant tensor:
#      x y z
#    x 1.738670 0.000000 -0.021180 
#    y 0.000000 1.758060 0.000000 
#    z -0.021180 0.000000 1.821760 
# 
# From -- ./inp_files/35677.got.cif
#   From: 2010.05.17/outbox.cif.g08.bks.cpg/sg15_18_cif.got.tgz:35677.got - 2010.06.03 18:47:42.
