data_PCOD9257920
_publ_section_title
;
Structure prediction by ZEFSAII (Michael W. Deem and Ramdas Pophale) SiO2 
 PCOD9257920
Probable space group: C 2/C
;
_chemical_formula_sum "Si O2"
_cell_formula_units_Z 48
_cell_length_a 15.103725
_cell_length_b 29.230518
_cell_length_c 7.982120
_cell_angle_alpha 90.000000
_cell_angle_beta 39.140348
_cell_angle_gamma 90.000000
_cell_volume 2224.441875
_symmetry_space_group_name_H-M "C 2/C"
_symmetry_group_IT_number 15
_symmetry_cell_setting 'monoclinic'
loop_
_space_group_symop_operation_xyz
x,y,z
-x,y,1/2-z
-x,-y,-z
x,-y,1/2+z
1/2+x,1/2+y,z
1/2-x,1/2+y,1/2-z
1/2-x,1/2-y,-z
1/2+x,1/2-y,1/2+z
loop_
_atom_site_type_symbol
_atom_site_label
_atom_site_fract_x
_atom_site_fract_y
_atom_site_fract_z
Si Si1 0.600071 0.103771 0.354790
Si Si2 0.000000 0.197668 0.750000
Si Si3 0.000000 0.330240 0.250000
Si Si4 0.833756 0.478474 0.540652
Si Si5 0.791608 0.849285 0.303724
Si Si6 0.655040 0.229775 0.786471
Si Si7 0.778147 0.428940 0.293586
O O1 0.613369 0.135437 0.501720
O O2 0.669297 0.055124 0.294892
O O3 0.434931 0.093498 0.571832
O O4 0.669202 0.129677 0.100061
O O5 0.088704 0.166467 0.745567
O O6 0.092614 0.231053 0.496501
O O7 0.042380 0.299356 0.345370
O O8 0.755616 0.452595 0.505665
O O9 0.782375 0.528563 0.660383
O O10 0.000000 0.481536 0.250000
O O11 0.738849 0.805234 0.280360
O O12 0.822565 0.889180 0.124231
O O13 0.750000 0.250000 0.500000
#
# Coordination Sequence:
#
# PCOD9257920 Si02
#       7
#     8   4   4   8   8   8   8
#     4  11  19  35  59  97 130 167 207 262 324 398
#     4  12  28  46  64  93 124 169 228 272 328 388
#     4  12  20  36  62  91 128 155 208 258 332 390
#     4  10  18  32  55  96 136 167 209 259 330 388
#     4  12  24  41  64  89 126 168 214 266 326 385
#     4  12  25  45  66  92 126 169 216 273 331 392
#     4  11  20  34  59  94 131 171 210 268 327 394
#
# _framework density 21.578446
#
# number of rings (size 3 to 8) (size 9 to 14) (size 15 to 20)
#    0.000    0.667    4.167    8.000    0.000    0.000 
#    0.000    0.000    0.000    4.000    0.000    0.000 
#    0.000    0.000    0.000    0.000    0.000    0.000 
#
# Total GULP energy -134197.385556 kJ/mol
# GULP energy per Si atom -5591.557731 kJ/mol
# Density = 2.152933 g / cm^3
# Si number density = 21.578446 Si / 1000 Ang^3
#
#
#
# Elastic Constant Matrix: (Units=GPa)
#
#
# Indices 1 2 3 4 5 6 
#
# 1 167.5234 78.0417 15.5938 0.0000 12.8032 0.0000
# 2 78.0417 145.4810 30.5693 0.0000 0.1746 0.0000
# 3 15.5938 30.5693 50.1185 0.0000 24.7921 0.0000
# 4 0.0000 0.0000 0.0000 19.6121 0.0000 25.5753
# 5 12.8032 0.1746 24.7921 0.0000 25.7865 0.0000
# 6 0.0000 0.0000 0.0000 25.5753 0.0000 55.5260
#
#
#
# Elastic Compliance Matrix: (Units=1/GPa)
#
#
# Indices 1 2 3 4 5 6 
#
# 1 0.009017 -0.006061 0.005884 0.000000 -0.010093 0.000000
# 2 -0.006061 0.013140 -0.014441 0.000000 0.016805 0.000000
# 3 0.005884 -0.014441 0.054017 0.000000 -0.054758 0.000000
# 4 0.000000 0.000000 0.000000 0.127679 0.000000 -0.058809
# 5 -0.010093 0.016805 -0.054758 0.000000 0.096324 0.000000
# 6 0.000000 0.000000 0.000000 -0.058809 0.000000 0.045097
#
#
# Mechanical properties :
#
#
# Convention : Reuss Voigt Hill
#
# Bulk Modulus (GPa) = 21.30511 67.94806 44.62658
# Shear Modulus (GPa) = 12.81542 36.11278 24.46410
#
# Velocity S-wave (km/s) = 2.43965 4.09535 3.37074
# Velocity P-wave (km/s) = 4.22263 7.34301 5.98959
#
# Compressibility (1/GPa) = 0.04693710
#
# Stress axis : x y z
#
# Youngs Moduli (GPa) = 110.90663 76.10628 18.51260
#
# Poissons Ratio (x) = 0.46129 -0.10893
# Poissons Ratio (y) = 0.67223 0.26735
# Poissons Ratio (z) = -0.65261 1.09907
#
# Static dielectric constant tensor:
#      x y z
#    x 1.826840 0.000000 0.005390 
#    y 0.000000 1.816890 0.000000 
#    z 0.005390 0.000000 1.836450 
# 
# From -- ./inp_files/43852.got.cif
#   From: 2010.05.17/outbox.cif.g08.bks.cpg/sg15_22_cif.got.tgz:43852.got - 2010.06.03 18:47:42.
