data_PCOD9257271
_publ_section_title
;
Structure prediction by ZEFSAII (Michael W. Deem and Ramdas Pophale) SiO2 
 PCOD9257271
Probable space group: C 2/C
;
_chemical_formula_sum "Si O2"
_cell_formula_units_Z 60
_cell_length_a 6.680443
_cell_length_b 18.936683
_cell_length_c 25.981322
_cell_angle_alpha 90.000000
_cell_angle_beta 116.791921
_cell_angle_gamma 90.000000
_cell_volume 2933.940673
_symmetry_space_group_name_H-M "C 2/C"
_symmetry_group_IT_number 15
_symmetry_cell_setting 'monoclinic'
loop_
_space_group_symop_operation_xyz
x,y,z
-x,y,1/2-z
-x,-y,-z
x,-y,1/2+z
1/2+x,1/2+y,z
1/2-x,1/2+y,1/2-z
1/2-x,1/2-y,-z
1/2+x,1/2-y,1/2+z
loop_
_atom_site_type_symbol
_atom_site_label
_atom_site_fract_x
_atom_site_fract_y
_atom_site_fract_z
Si Si1 0.648031 0.862068 0.473388
Si Si2 0.589040 0.009989 0.417061
Si Si3 0.980032 0.168627 0.102399
Si Si4 0.656590 0.060087 0.816388
Si Si5 0.427567 0.487296 0.612071
Si Si6 0.240838 0.769471 0.438514
Si Si7 0.765043 0.293396 0.123957
Si Si8 0.500000 0.500000 0.500000
O O1 0.700741 0.942657 0.462478
O O2 0.766247 0.844828 0.540115
O O3 0.389759 0.840315 0.447330
O O4 0.741228 0.817050 0.436904
O O5 0.585476 0.987413 0.357473
O O6 0.791191 0.059948 0.457604
O O7 0.336336 0.018661 0.405794
O O8 0.031474 0.091219 0.129311
O O9 0.909737 0.222433 0.139358
O O10 0.151095 0.209872 0.085474
O O11 0.500000 0.047232 0.750000
O O12 0.639194 0.140908 0.833417
O O13 0.916888 0.039702 0.836897
O O14 0.454090 0.514086 0.556772
O O15 0.250000 0.750000 0.500000
O O16 0.989105 0.779871 0.391076
#
# Coordination Sequence:
#
# PCOD9257271 Si02
#       8
#     8   8   8   8   8   8   8   4
#     4  10  18  31  49  84 124 155 195 234 286 383
#     4  10  21  37  58  88 123 165 204 250 314 377
#     4  11  21  32  54  89 128 154 195 247 297 382
#     4  10  24  45  67  84 115 159 224 274 308 376
#     4  11  23  38  59  92 129 166 203 258 321 377
#     4  11  18  30  53  82 121 168 189 227 295 363
#     4  10  20  37  56  84 115 160 204 244 305 362
#     4  10  20  32  52  88 132 162 196 236 298 388
#
# _framework density 20.450310999999999
#
# number of rings (size 3 to 8) (size 9 to 14) (size 15 to 20)
#    0.000    1.600    4.000    2.000    0.000    3.733 
#    0.000    0.000    5.867    0.000    0.000    0.000 
#    0.000    0.000    0.000    0.000    0.000    0.000 
#
# Total GULP energy -167031.996729 kJ/mol
# GULP energy per Si atom -5567.733224 kJ/mol
# Density = 2.040376 g / cm^3
# Si number density = 20.450311 Si / 1000 Ang^3
#
#
#
# Elastic Constant Matrix: (Units=GPa)
#
#
# Indices 1 2 3 4 5 6 
#
# 1 122.5814 7.7688 32.5919 0.0000 13.1656 0.0000
# 2 7.7688 79.3731 15.7272 0.0000 -2.8946 0.0000
# 3 32.5919 15.7272 113.8587 0.0000 8.6523 0.0000
# 4 0.0000 0.0000 0.0000 13.0175 0.0000 -2.5093
# 5 13.1656 -2.8946 8.6523 0.0000 14.3577 0.0000
# 6 0.0000 0.0000 0.0000 -2.5093 0.0000 24.8700
#
#
#
# Elastic Compliance Matrix: (Units=1/GPa)
#
#
# Indices 1 2 3 4 5 6 
#
# 1 0.009582 -0.000814 -0.002044 0.000000 -0.007719 0.000000
# 2 -0.000814 0.013231 -0.001943 0.000000 0.004585 0.000000
# 3 -0.002044 -0.001943 0.009981 0.000000 -0.004532 0.000000
# 4 0.000000 0.000000 0.000000 0.078344 0.000000 0.007905
# 5 -0.007719 0.004585 -0.004532 0.000000 0.080383 0.000000
# 6 0.000000 0.000000 0.000000 0.007905 0.000000 0.041007
#
#
# Mechanical properties :
#
#
# Convention : Reuss Voigt Hill
#
# Bulk Modulus (GPa) = 43.11987 47.55435 45.33711
# Shear Modulus (GPa) = 20.01136 27.76406 23.88771
#
# Velocity S-wave (km/s) = 3.13155 3.68861 3.42143
# Velocity P-wave (km/s) = 5.84863 6.43779 6.15027
#
# Compressibility (1/GPa) = 0.02319116
#
# Stress axis : x y z
#
# Youngs Moduli (GPa) = 104.36374 75.58236 100.19436
#
# Poissons Ratio (x) = 0.06155 0.20477
# Poissons Ratio (y) = 0.08499 0.19466
# Poissons Ratio (z) = 0.21329 0.14684
#
# Static dielectric constant tensor:
#      x y z
#    x 1.630580 0.000000 -0.119150 
#    y 0.000000 1.581700 0.000000 
#    z -0.119150 0.000000 1.562860 
# 
# From -- ./inp_files/286672.got.cif
#   From: 2010.05.17/outbox.cif.g08.bks.cpg/sg15_144_cif.got.tgz:286672.got - 2010.06.03 18:47:42.
