data_PCOD9257488
_publ_section_title
;
Structure prediction by ZEFSAII (Michael W. Deem and Ramdas Pophale) SiO2 
 PCOD9257488
Probable space group: C 2/C
;
_chemical_formula_sum "Si O2"
_cell_formula_units_Z 48
_cell_length_a 18.937658
_cell_length_b 10.204532
_cell_length_c 12.217359
_cell_angle_alpha 90.000000
_cell_angle_beta 56.002943
_cell_angle_gamma 90.000000
_cell_volume 1957.428720
_symmetry_space_group_name_H-M "C 2/C"
_symmetry_group_IT_number 15
_symmetry_cell_setting 'monoclinic'
loop_
_space_group_symop_operation_xyz
x,y,z
-x,y,1/2-z
-x,-y,-z
x,-y,1/2+z
1/2+x,1/2+y,z
1/2-x,1/2+y,1/2-z
1/2-x,1/2-y,-z
1/2+x,1/2-y,1/2+z
loop_
_atom_site_type_symbol
_atom_site_label
_atom_site_fract_x
_atom_site_fract_y
_atom_site_fract_z
Si Si1 0.841993 0.757219 0.984299
Si Si2 0.804868 0.600807 0.357037
Si Si3 0.123114 0.498745 0.912087
Si Si4 0.873291 0.983282 0.398692
Si Si5 0.566074 0.221251 0.094588
Si Si6 0.198113 0.136358 0.747001
O O1 0.878671 0.616427 0.993467
O O2 0.837627 0.834443 0.103531
O O3 0.750000 0.750000 0.000000
O O4 0.896647 0.864179 0.869649
O O5 0.878607 0.540488 0.215294
O O6 0.724683 0.523097 0.472532
O O7 0.847948 0.667656 0.423622
O O8 0.769950 0.720329 0.315590
O O9 0.222438 0.541190 0.822254
O O10 0.062112 0.621279 0.995641
O O11 0.924179 0.877888 0.428802
O O12 0.868917 0.918097 0.282124
O O13 0.500000 0.202640 0.250000
#
# Coordination Sequence:
#
# PCOD9257488 Si02
#       6
#     8   8   8   8   8   8
#     4  11  21  32  56  94 122 145 187 258 314 342
#     4  10  19  34  59  85 117 145 199 257 289 344
#     4  11  20  34  57  90 119 153 195 249 307 345
#     4  11  19  37  60  88 118 149 201 252 297 352
#     4  11  23  40  59  81 118 169 203 236 295 369
#     4  10  18  31  55  88 117 142 184 243 302 346
#
# _framework density 24.521967
#
# number of rings (size 3 to 8) (size 9 to 14) (size 15 to 20)
#    0.000    1.333    6.667    1.000    0.000    0.667 
#    0.000    0.833    0.000    9.000    0.000    0.000 
#    0.000    0.000    0.000    0.000    0.000    0.000 
#
# Total GULP energy -133673.410546 kJ/mol
# GULP energy per Si atom -5569.725439 kJ/mol
# Density = 2.446615 g / cm^3
# Si number density = 24.521967 Si / 1000 Ang^3
#
#
#
# Elastic Constant Matrix: (Units=GPa)
#
#
# Indices 1 2 3 4 5 6 
#
# 1 16.9226 5.1604 12.6898 0.0000 -0.3402 0.0000
# 2 5.1604 130.4918 6.2065 0.0000 -2.3709 0.0000
# 3 12.6898 6.2065 69.7758 0.0000 -3.5019 0.0000
# 4 0.0000 0.0000 0.0000 24.0272 0.0000 13.7592
# 5 -0.3402 -2.3709 -3.5019 0.0000 36.3701 0.0000
# 6 0.0000 0.0000 0.0000 13.7592 0.0000 16.2643
#
#
#
# Elastic Compliance Matrix: (Units=1/GPa)
#
#
# Indices 1 2 3 4 5 6 
#
# 1 0.069032 -0.002153 -0.012398 0.000000 -0.000688 0.000000
# 2 -0.002153 0.007770 -0.000277 0.000000 0.000460 0.000000
# 3 -0.012398 -0.000277 0.016685 0.000000 0.001473 0.000000
# 4 0.000000 0.000000 0.000000 0.080728 0.000000 -0.068293
# 5 -0.000688 0.000460 0.001473 0.000000 0.027660 0.000000
# 6 0.000000 0.000000 0.000000 -0.068293 0.000000 0.119259
#
#
# Mechanical properties :
#
#
# Convention : Reuss Voigt Hill
#
# Bulk Modulus (GPa) = 15.66592 29.47817 22.57205
# Shear Modulus (GPa) = 13.43852 28.20789 20.82321
#
# Velocity S-wave (km/s) = 2.34352 3.39530 2.91721
# Velocity P-wave (km/s) = 3.70475 5.23622 4.53559
#
# Compressibility (1/GPa) = 0.06383283
#
# Stress axis : x y z
#
# Youngs Moduli (GPa) = 14.48609 128.70092 59.93480
#
# Poissons Ratio (x) = 0.27706 0.74304
# Poissons Ratio (y) = 0.03119 0.01657
# Poissons Ratio (z) = 0.17959 0.03559
#
# Static dielectric constant tensor:
#      x y z
#    x 2.040960 0.000000 0.064780 
#    y 0.000000 2.232210 0.000000 
#    z 0.064780 0.000000 2.058490 
# 
# From -- ./inp_files/172684.got.cif
#   From: 2010.05.17/outbox.cif.g08.bks.cpg/sg15_87_cif.got.tgz:172684.got - 2010.06.03 18:47:42.
