data_PCOD9257722
_publ_section_title
;
Structure prediction by ZEFSAII (Michael W. Deem and Ramdas Pophale) SiO2 
 PCOD9257722
Probable space group: C 2/C
;
_chemical_formula_sum "Si O2"
_cell_formula_units_Z 52
_cell_length_a 12.713065
_cell_length_b 14.012976
_cell_length_c 22.071594
_cell_angle_alpha 90.000000
_cell_angle_beta 33.248866
_cell_angle_gamma 90.000000
_cell_volume 2155.828043
_symmetry_space_group_name_H-M "C 2/C"
_symmetry_group_IT_number 15
_symmetry_cell_setting 'monoclinic'
loop_
_space_group_symop_operation_xyz
x,y,z
-x,y,1/2-z
-x,-y,-z
x,-y,1/2+z
1/2+x,1/2+y,z
1/2-x,1/2+y,1/2-z
1/2-x,1/2-y,-z
1/2+x,1/2-y,1/2+z
loop_
_atom_site_type_symbol
_atom_site_label
_atom_site_fract_x
_atom_site_fract_y
_atom_site_fract_z
Si Si1 0.873914 0.086789 0.138764
Si Si2 0.181047 0.159810 0.123465
Si Si3 0.032052 0.520750 0.556489
Si Si4 0.113781 0.320800 0.853203
Si Si5 0.278088 0.136015 0.894284
Si Si6 0.000000 0.532037 0.250000
Si Si7 0.799871 0.879910 0.207686
O O1 0.814405 0.148644 0.224968
O O2 0.678094 0.087033 0.193356
O O3 0.910934 0.978141 0.141424
O O4 0.056581 0.123826 0.016344
O O5 0.346121 0.182175 0.094419
O O6 0.147588 0.265478 0.113555
O O7 0.000000 0.125417 0.250000
O O8 0.271569 0.081731 0.035745
O O9 0.020618 0.413752 0.590288
O O10 0.858519 0.587227 0.666508
O O11 0.000000 0.500000 0.500000
O O12 0.076268 0.216410 0.842715
O O13 0.392313 0.037795 0.850162
O O14 0.292828 0.141616 0.813714
#
# Coordination Sequence:
#
# PCOD9257722 Si02
#       7
#     8   8   8   8   8   4   8
#     4  10  20  35  56  83 116 157 187 239 300 344
#     4  10  19  35  57  88 116 146 193 248 296 353
#     4   9  18  33  54  79 112 151 185 231 291 345
#     4   9  19  35  53  85 111 151 192 235 291 351
#     4  10  19  34  55  86 118 147 189 243 302 346
#     4  10  18  32  52  78 114 146 194 230 284 358
#     4   9  17  32  55  80 109 147 190 231 285 347
#
# _framework density 24.120663
#
# number of rings (size 3 to 8) (size 9 to 14) (size 15 to 20)
#    0.000    2.462    0.769    2.769    0.000    0.000 
#    8.308    2.308    0.000    8.308   84.000    0.000 
#    0.000    0.000    0.000    0.000    0.000    0.000 
#
# Total GULP energy -144975.910279 kJ/mol
# GULP energy per Si atom -5575.996549 kJ/mol
# Density = 2.406576 g / cm^3
# Si number density = 24.120663 Si / 1000 Ang^3
#
#
#
# Elastic Constant Matrix: (Units=GPa)
#
#
# Indices 1 2 3 4 5 6 
#
# 1 67.6608 26.3925 27.2237 0.0004 4.4339 -0.0002
# 2 26.3925 158.9817 64.5762 -0.0004 4.3979 -0.0002
# 3 27.2237 64.5762 165.0622 -0.0024 5.8803 -0.0007
# 4 0.0004 -0.0004 -0.0024 48.5533 -0.0008 -3.3088
# 5 4.4339 4.3979 5.8803 -0.0008 30.4697 0.0004
# 6 -0.0002 -0.0002 -0.0007 -3.3088 0.0004 32.9104
#
#
#
# Elastic Compliance Matrix: (Units=1/GPa)
#
#
# Indices 1 2 3 4 5 6 
#
# 1 0.016400 -0.001903 -0.001898 0.000000 -0.001745 0.000000
# 2 -0.001903 0.007707 -0.002690 0.000000 -0.000316 0.000000
# 3 -0.001898 -0.002690 0.007451 0.000000 -0.000774 0.000000
# 4 0.000000 0.000000 0.000000 0.020738 0.000000 0.002085
# 5 -0.001745 -0.000316 -0.000774 0.000000 0.033268 0.000000
# 6 0.000000 0.000000 0.000000 0.002085 0.000000 0.030595
#
#
# Mechanical properties :
#
#
# Convention : Reuss Voigt Hill
#
# Bulk Modulus (GPa) = 53.83328 69.78772 61.81050
# Shear Modulus (GPa) = 36.94522 40.62085 38.78303
#
# Velocity S-wave (km/s) = 3.91792 4.10819 4.01418
# Velocity P-wave (km/s) = 6.54474 7.17625 6.86775
#
# Compressibility (1/GPa) = 0.01857587
#
# Stress axis : x y z
#
# Youngs Moduli (GPa) = 60.97519 129.74456 134.20336
#
# Poissons Ratio (x) = 0.24695 0.25473
# Poissons Ratio (y) = 0.11606 0.36103
# Poissons Ratio (z) = 0.11573 0.34903
#
# Static dielectric constant tensor:
#      x y z
#    x 2.113710 0.000000 -0.005820 
#    y 0.000000 2.055290 0.000000 
#    z -0.005820 0.000000 1.922850 
# 
# From -- ./inp_files/316434.got.cif
#   From: 2010.05.17/outbox.cif.g08.bks.cpg/sg15_159_cif.got.tgz:316434.got - 2010.06.03 18:47:42.
