data_PCOD9257835
_publ_section_title
;
Structure prediction by ZEFSAII (Michael W. Deem and Ramdas Pophale) SiO2 
 PCOD9257835
Probable space group: C 2/C
;
_chemical_formula_sum "Si O2"
_cell_formula_units_Z 48
_cell_length_a 7.824455
_cell_length_b 25.368838
_cell_length_c 21.756373
_cell_angle_alpha 90.000000
_cell_angle_beta 32.651347
_cell_angle_gamma 90.000000
_cell_volume 2329.985329
_symmetry_space_group_name_H-M "C 2/C"
_symmetry_group_IT_number 15
_symmetry_cell_setting 'monoclinic'
loop_
_space_group_symop_operation_xyz
x,y,z
-x,y,1/2-z
-x,-y,-z
x,-y,1/2+z
1/2+x,1/2+y,z
1/2-x,1/2+y,1/2-z
1/2-x,1/2-y,-z
1/2+x,1/2-y,1/2+z
loop_
_atom_site_type_symbol
_atom_site_label
_atom_site_fract_x
_atom_site_fract_y
_atom_site_fract_z
Si Si1 0.485516 0.204270 0.570980
Si Si2 0.756319 0.600352 0.077171
Si Si3 0.727581 0.783759 0.567224
Si Si4 0.063250 0.390530 0.843035
Si Si5 0.570842 0.556837 0.006233
Si Si6 0.123454 0.651052 0.644886
O O1 0.750000 0.250000 0.500000
O O2 0.628866 0.157519 0.484099
O O3 0.215298 0.239880 0.623122
O O4 0.402422 0.174935 0.659048
O O5 0.956081 0.590369 0.079543
O O6 0.399105 0.598045 0.211049
O O7 0.735532 0.562350 0.023520
O O8 0.750000 0.750000 0.500000
O O9 0.457132 0.827029 0.650262
O O10 0.047104 0.818828 0.468167
O O11 0.771842 0.413861 0.892214
O O12 0.500000 0.500000 0.000000
O O13 0.799028 0.590310 0.892121
O O14 0.000000 0.660220 0.750000
#
# Coordination Sequence:
#
# PCOD9257835 Si02
#       6
#     8   8   8   8   8   8
#     4   9  18  33  52  76 113 153 185 226 273 327
#     4  10  20  37  59  85 117 145 189 242 281 335
#     4  10  18  32  54  81 115 148 187 222 273 336
#     4  10  21  36  60  88 115 146 190 237 284 340
#     4  10  22  39  61  82 111 148 187 242 296 348
#     4   9  20  36  52  76 111 148 188 232 281 330
#
# _framework density 20.600987
#
# number of rings (size 3 to 8) (size 9 to 14) (size 15 to 20)
#    0.000    2.333    1.667    1.500    0.000    4.667 
#    0.000    5.833    0.000    0.000    0.000    0.000 
#    0.000    0.000    0.000    0.000    0.000    0.000 
#
# Total GULP energy -133665.009295 kJ/mol
# GULP energy per Si atom -5569.375387 kJ/mol
# Density = 2.055410 g / cm^3
# Si number density = 20.600987 Si / 1000 Ang^3
#
#
#
# Elastic Constant Matrix: (Units=GPa)
#
#
# Indices 1 2 3 4 5 6 
#
# 1 95.6057 29.9965 12.4328 0.0002 29.6295 -0.0001
# 2 29.9965 114.6914 7.8577 0.0002 18.6138 0.0000
# 3 12.4328 7.8577 54.3255 -0.0007 24.5781 -0.0002
# 4 0.0002 0.0002 -0.0007 8.9938 -0.0001 0.1279
# 5 29.6295 18.6138 24.5781 -0.0001 34.8601 0.0000
# 6 -0.0001 0.0000 -0.0002 0.1279 0.0000 27.8096
#
#
#
# Elastic Compliance Matrix: (Units=1/GPa)
#
#
# Indices 1 2 3 4 5 6 
#
# 1 0.014954 -0.001865 0.003153 0.000000 -0.013938 0.000000
# 2 -0.001865 0.009848 0.000975 0.000000 -0.004361 0.000000
# 3 0.003153 0.000975 0.027889 0.000002 -0.022864 0.000000
# 4 0.000000 0.000000 0.000002 0.111195 -0.000001 -0.000511
# 5 -0.013938 -0.004361 -0.022864 -0.000001 0.058981 0.000000
# 6 0.000000 0.000000 0.000000 -0.000511 0.000000 0.035961
#
#
# Mechanical properties :
#
#
# Convention : Reuss Voigt Hill
#
# Bulk Modulus (GPa) = 17.47720 40.57740 29.02730
# Shear Modulus (GPa) = 18.28992 28.62174 23.45583
#
# Velocity S-wave (km/s) = 2.98286 3.73143 3.37794
# Velocity P-wave (km/s) = 4.51280 6.18905 5.41616
#
# Compressibility (1/GPa) = 0.05721741
#
# Stress axis : x y z
#
# Youngs Moduli (GPa) = 66.87075 101.54602 35.85637
#
# Poissons Ratio (x) = 0.18940 -0.11306
# Poissons Ratio (y) = 0.12473 -0.03497
# Poissons Ratio (z) = -0.21085 -0.09904
#
# Static dielectric constant tensor:
#      x y z
#    x 1.800400 0.000000 -0.025390 
#    y 0.000000 1.714160 0.000000 
#    z -0.025390 0.000000 1.719340 
# 
# From -- ./inp_files/266588.got.cif
#   From: 2010.05.17/outbox.cif.g08.bks.cpg/sg15_134_cif.got.tgz:266588.got - 2010.06.03 18:47:42.
