data_PCOD9257403
_publ_section_title
;
Structure prediction by ZEFSAII (Michael W. Deem and Ramdas Pophale) SiO2 
 PCOD9257403
Probable space group: C 2/C
;
_chemical_formula_sum "Si O2"
_cell_formula_units_Z 48
_cell_length_a 8.480424
_cell_length_b 18.858466
_cell_length_c 19.161151
_cell_angle_alpha 90.000000
_cell_angle_beta 63.731089
_cell_angle_gamma 90.000000
_cell_volume 2747.929772
_symmetry_space_group_name_H-M "C 2/C"
_symmetry_group_IT_number 15
_symmetry_cell_setting 'monoclinic'
loop_
_space_group_symop_operation_xyz
x,y,z
-x,y,1/2-z
-x,-y,-z
x,-y,1/2+z
1/2+x,1/2+y,z
1/2-x,1/2+y,1/2-z
1/2-x,1/2-y,-z
1/2+x,1/2-y,1/2+z
loop_
_atom_site_type_symbol
_atom_site_label
_atom_site_fract_x
_atom_site_fract_y
_atom_site_fract_z
Si Si1 0.684895 0.555803 0.178227
Si Si2 0.541349 0.944198 0.321773
Si Si3 0.834263 0.833098 0.233177
Si Si4 0.300616 0.166902 0.266823
Si Si5 0.030253 0.919783 0.909953
Si Si6 0.350159 0.580217 0.590047
O O1 0.500000 0.530281 0.250000
O O2 0.840302 0.500000 0.159698
O O3 0.742634 0.624422 0.209887
O O4 0.635791 0.575738 0.109426
O O5 0.500000 0.969719 0.250000
O O6 0.662408 0.875579 0.290113
O O7 0.354643 0.924262 0.390574
O O8 0.796106 0.750000 0.250000
O O9 0.872489 0.863367 0.148101
O O10 0.000000 0.849980 0.250000
O O11 0.500000 0.150020 0.250000
O O12 0.168692 0.136633 0.351899
O O13 0.970990 0.903931 0.000000
O O14 0.106852 0.000000 0.893148
#
# Coordination Sequence:
#
# PCOD9257403 Si02
#       6
#     8   8   8   8   8   8
#     4  10  18  31  53  78 104 141 184 221 258 314
#     4  10  18  31  53  78 104 141 184 221 258 314
#     4  10  20  36  56  78 105 143 185 219 260 317
#     4  10  20  36  56  78 105 143 185 219 260 317
#     4  10  21  36  55  81 112 140 172 222 273 313
#     4  10  21  36  55  81 112 140 172 222 273 313
#
# _framework density 17.467694999999999
#
# number of rings (size 3 to 8) (size 9 to 14) (size 15 to 20)
#    0.000    2.000    0.000    7.000    0.000    6.667 
#    0.000    8.333    0.000    0.000    0.000    0.000 
#    0.000    0.000    0.000    0.000    0.000    0.000 
#
# Total GULP energy -133851.647734 kJ/mol
# GULP energy per Si atom -5577.151989 kJ/mol
# Density = 1.742794 g / cm^3
# Si number density = 17.467695 Si / 1000 Ang^3
#
#
#
# Elastic Constant Matrix: (Units=GPa)
#
#
# Indices 1 2 3 4 5 6 
#
# 1 130.7689 64.4800 51.9113 0.0000 -7.0513 0.0000
# 2 64.4800 116.2414 71.4065 0.0000 0.9239 0.0000
# 3 51.9113 71.4065 94.5828 0.0000 2.2260 0.0000
# 4 0.0000 0.0000 0.0000 17.1318 0.0000 -2.2615
# 5 -7.0513 0.9239 2.2260 0.0000 14.2279 0.0000
# 6 0.0000 0.0000 0.0000 -2.2615 0.0000 34.0896
#
#
#
# Elastic Compliance Matrix: (Units=1/GPa)
#
#
# Indices 1 2 3 4 5 6 
#
# 1 0.011424 -0.004557 -0.002981 0.000000 0.006424 0.000000
# 2 -0.004557 0.017871 -0.010951 0.000000 -0.001705 0.000000
# 3 -0.002981 -0.010951 0.020570 0.000000 -0.003984 0.000000
# 4 0.000000 0.000000 0.000000 0.058887 0.000000 0.003907
# 5 0.006424 -0.001705 -0.003984 0.000000 0.074202 0.000000
# 6 0.000000 0.000000 0.000000 0.003907 0.000000 0.029594
#
#
# Mechanical properties :
#
#
# Convention : Reuss Voigt Hill
#
# Bulk Modulus (GPa) = 77.59260 79.68760 78.64010
# Shear Modulus (GPa) = 19.69901 23.34290 21.52095
#
# Velocity S-wave (km/s) = 3.36183 3.65957 3.51385
# Velocity P-wave (km/s) = 7.71921 7.97343 7.84735
#
# Compressibility (1/GPa) = 0.01288783
#
# Stress axis : x y z
#
# Youngs Moduli (GPa) = 87.53808 55.95634 48.61433
#
# Poissons Ratio (x) = 0.25498 0.14491
# Poissons Ratio (y) = 0.39889 0.53237
# Poissons Ratio (z) = 0.26094 0.61277
#
# Static dielectric constant tensor:
#      x y z
#    x 1.607080 0.000000 -0.001920 
#    y 0.000000 1.613970 0.000000 
#    z -0.001920 0.000000 1.592710 
# 
# From -- ./inp_files/189912.got.cif
#   From: 2010.05.17/outbox.cif.g08.bks.cpg/sg15_95_cif.got.tgz:189912.got - 2010.06.03 18:47:42.
