data_PCOD9257052
_publ_section_title
;
Structure prediction by ZEFSAII (Michael W. Deem and Ramdas Pophale) SiO2 
 PCOD9257052
Probable space group: C 2/C
;
_chemical_formula_sum "Si O2"
_cell_formula_units_Z 56
_cell_length_a 24.072873
_cell_length_b 20.619674
_cell_length_c 5.491065
_cell_angle_alpha 90.000000
_cell_angle_beta 61.742568
_cell_angle_gamma 90.000000
_cell_volume 2400.811562
_symmetry_space_group_name_H-M "C 2/C"
_symmetry_group_IT_number 15
_symmetry_cell_setting 'monoclinic'
loop_
_space_group_symop_operation_xyz
x,y,z
-x,y,1/2-z
-x,-y,-z
x,-y,1/2+z
1/2+x,1/2+y,z
1/2-x,1/2+y,1/2-z
1/2-x,1/2-y,-z
1/2+x,1/2-y,1/2+z
loop_
_atom_site_type_symbol
_atom_site_label
_atom_site_fract_x
_atom_site_fract_y
_atom_site_fract_z
Si Si1 0.825474 0.534839 0.413023
Si Si2 0.132208 0.004251 0.771243
Si Si3 0.222301 0.868209 0.101543
Si Si4 0.075448 0.773044 0.058324
Si Si5 0.463195 0.919641 0.568251
Si Si6 0.929237 0.721485 0.932245
Si Si7 0.677056 0.638066 0.197110
O O1 0.806234 0.496443 0.695413
O O2 0.791823 0.603980 0.495743
O O3 0.900536 0.540486 0.252581
O O4 0.177058 0.940280 0.679364
O O5 0.095086 0.999260 0.598553
O O6 0.174384 0.069261 0.683708
O O7 0.200981 0.833966 0.392551
O O8 0.216775 0.838202 0.846254
O O9 0.101575 0.758190 0.275077
O O10 0.000000 0.772683 0.250000
O O11 0.094752 0.724191 0.796718
O O12 0.105797 0.839451 0.899919
O O13 0.500000 0.910263 0.750000
O O14 0.439811 0.850227 0.514558
O O15 0.500000 0.946231 0.250000
O O16 0.000000 0.750234 0.750000
#
# Coordination Sequence:
#
# PCOD9257052 Si02
#       7
#     8   8   8   8   8   8   8
#     4  12  24  38  60  88 116 146 188 235 269 324
#     4   8  14  25  43  64  91 128 171 209 248 304
#     4  10  19  34  53  76 107 149 193 222 264 331
#     4  10  19  32  55  84 109 138 187 242 282 322
#     4  11  23  40  61  85 115 151 182 220 287 348
#     4   9  18  35  56  77 105 144 188 226 269 337
#     4  10  18  30  52  78 108 142 184 236 278 316
#
# _framework density 23.325445999999999
#
# number of rings (size 3 to 8) (size 9 to 14) (size 15 to 20)
#    0.000    2.000    0.000    7.286    0.000    1.714 
#    0.000    0.000    0.000   12.857    0.000    0.000 
#    0.000    0.000    0.000    0.000    0.000    0.000 
#
# Total GULP energy -156012.329170 kJ/mol
# GULP energy per Si atom -5571.868899 kJ/mol
# Density = 2.327236 g / cm^3
# Si number density = 23.325446 Si / 1000 Ang^3
#
#
#
# Elastic Constant Matrix: (Units=GPa)
#
#
# Indices 1 2 3 4 5 6 
#
# 1 58.1073 11.6778 66.3939 0.0000 29.6166 0.0000
# 2 11.6778 27.5192 26.0106 0.0000 -2.6406 0.0000
# 3 66.3939 26.0106 203.3211 0.0000 60.4366 0.0000
# 4 0.0000 0.0000 0.0000 14.9321 0.0000 -3.8467
# 5 29.6166 -2.6406 60.4366 0.0000 46.1144 0.0000
# 6 0.0000 0.0000 0.0000 -3.8467 0.0000 48.3457
#
#
#
# Elastic Compliance Matrix: (Units=1/GPa)
#
#
# Indices 1 2 3 4 5 6 
#
# 1 0.032604 -0.010924 -0.004651 0.000000 -0.015470 0.000000
# 2 -0.010924 0.052752 -0.010099 0.000000 0.023272 0.000000
# 3 -0.004651 -0.010099 0.011489 0.000000 -0.012648 0.000000
# 4 0.000000 0.000000 0.000000 0.068371 0.000000 0.005440
# 5 -0.015470 0.023272 -0.012648 0.000000 0.049529 0.000000
# 6 0.000000 0.000000 0.000000 0.005440 0.000000 0.021117
#
#
# Mechanical properties :
#
#
# Convention : Reuss Voigt Hill
#
# Bulk Modulus (GPa) = 21.97939 55.23468 38.60704
# Shear Modulus (GPa) = 16.53576 34.20280 25.36928
#
# Velocity S-wave (km/s) = 2.66543 3.83342 3.30149
# Velocity P-wave (km/s) = 4.34926 6.58217 5.57858
#
# Compressibility (1/GPa) = 0.04549717
#
# Stress axis : x y z
#
# Youngs Moduli (GPa) = 30.67133 18.95660 87.04312
#
# Poissons Ratio (x) = 0.20708 0.40482
# Poissons Ratio (y) = 0.33505 0.87903
# Poissons Ratio (z) = 0.14265 0.19144
#
# Static dielectric constant tensor:
#      x y z
#    x 1.905350 0.000000 0.065930 
#    y 0.000000 1.933910 0.000000 
#    z 0.065930 0.000000 1.941310 
# 
# From -- ./inp_files/16340.got.cif
#   From: 2010.05.17/outbox.cif.g08.bks.cpg/sg15_9_cif.got.tgz:16340.got - 2010.06.03 18:47:42.
