data_PCOD9257796
_publ_section_title
;
Structure prediction by ZEFSAII (Michael W. Deem and Ramdas Pophale) SiO2 
 PCOD9257796
Probable space group: C 2/C
;
_chemical_formula_sum "Si O2"
_cell_formula_units_Z 64
_cell_length_a 26.466051
_cell_length_b 11.803058
_cell_length_c 22.869509
_cell_angle_alpha 90.000000
_cell_angle_beta 149.809203
_cell_angle_gamma 90.000000
_cell_volume 3592.575105
_symmetry_space_group_name_H-M "C 2/C"
_symmetry_group_IT_number 15
_symmetry_cell_setting 'monoclinic'
loop_
_space_group_symop_operation_xyz
x,y,z
-x,y,1/2-z
-x,-y,-z
x,-y,1/2+z
1/2+x,1/2+y,z
1/2-x,1/2+y,1/2-z
1/2-x,1/2-y,-z
1/2+x,1/2-y,1/2+z
loop_
_atom_site_type_symbol
_atom_site_label
_atom_site_fract_x
_atom_site_fract_y
_atom_site_fract_z
Si Si1 0.104698 0.760324 0.585448
Si Si2 0.841454 0.356186 0.938749
Si Si3 0.981390 0.596122 0.800501
Si Si4 0.959793 0.666151 0.146125
Si Si5 0.682553 0.156034 0.775483
Si Si6 0.082096 0.223378 0.672512
Si Si7 0.202442 0.415592 0.735461
Si Si8 0.213457 0.605492 0.598148
O O1 0.108033 0.716469 0.654679
O O2 0.188584 0.857603 0.662358
O O3 0.144018 0.658496 0.581403
O O4 0.994772 0.800758 0.456807
O O5 0.773912 0.243932 0.873590
O O6 0.853227 0.393838 0.882421
O O7 0.789419 0.470740 0.910648
O O8 0.938457 0.343891 0.076534
O O9 0.001303 0.461461 0.828712
O O10 0.000000 0.620171 0.750000
O O11 0.873403 0.627532 0.719893
O O12 0.000000 0.690569 0.250000
O O13 0.010205 0.758397 0.155229
O O14 0.840933 0.659567 0.013112
O O15 0.711814 0.041054 0.770293
O O16 0.137394 0.341896 0.715116
O O17 0.173308 0.139574 0.774738
#
# Coordination Sequence:
#
# PCOD9257796 Si02
#       8
#     8   8   8   8   8   8   8   8
#     4   9  19  32  52  82 108 137 172 214 274 332
#     4  10  21  36  54  80 112 138 179 224 270 329
#     4  10  21  37  56  78 104 142 193 229 256 313
#     4   9  18  32  52  77 101 133 186 231 259 314
#     4  11  20  35  57  81 107 146 177 223 275 314
#     4  10  18  32  54  74 107 143 167 217 276 318
#     4  10  19  33  54  82 107 135 178 217 268 332
#     4   9  18  33  51  75 109 140 168 220 273 321
#
# _framework density 17.814519000000001
#
# number of rings (size 3 to 8) (size 9 to 14) (size 15 to 20)
#    0.000    2.250    2.500    0.750    0.000    2.000 
#    2.250    1.250    0.000    0.750    0.000    0.000 
#    0.000    0.000    0.000    0.000    0.000    0.000 
#
# Total GULP energy -178144.845561 kJ/mol
# GULP energy per Si atom -5567.026424 kJ/mol
# Density = 1.777397 g / cm^3
# Si number density = 17.814519 Si / 1000 Ang^3
#
#
#
# Elastic Constant Matrix: (Units=GPa)
#
#
# Indices 1 2 3 4 5 6 
#
# 1 49.6051 24.6678 13.7981 0.0000 2.5424 0.0000
# 2 24.6678 56.4227 24.2831 0.0000 3.3171 0.0000
# 3 13.7981 24.2831 76.6378 0.0000 2.5684 0.0000
# 4 0.0000 0.0000 0.0000 17.0625 0.0000 -2.9375
# 5 2.5424 3.3171 2.5684 0.0000 15.6922 0.0000
# 6 0.0000 0.0000 0.0000 -2.9375 0.0000 12.4579
#
#
#
# Elastic Compliance Matrix: (Units=1/GPa)
#
#
# Indices 1 2 3 4 5 6 
#
# 1 0.025908 -0.010702 -0.001215 0.000000 -0.001736 0.000000
# 2 -0.010702 0.025113 -0.005943 0.000000 -0.002602 0.000000
# 3 -0.001215 -0.005943 0.015185 0.000000 -0.001032 0.000000
# 4 0.000000 0.000000 0.000000 0.061088 0.000000 0.014404
# 5 -0.001736 -0.002602 -0.001032 0.000000 0.064726 0.000000
# 6 0.000000 0.000000 0.000000 0.014404 0.000000 0.083666
#
#
# Mechanical properties :
#
#
# Convention : Reuss Voigt Hill
#
# Bulk Modulus (GPa) = 32.80284 34.24039 33.52161
# Shear Modulus (GPa) = 15.54877 17.03697 16.29287
#
# Velocity S-wave (km/s) = 2.95755 3.09585 3.02749
# Velocity P-wave (km/s) = 5.48783 5.66050 5.57484
#
# Compressibility (1/GPa) = 0.03048517
#
# Stress axis : x y z
#
# Youngs Moduli (GPa) = 38.59797 39.82015 65.85464
#
# Poissons Ratio (x) = 0.42614 0.08004
# Poissons Ratio (y) = 0.41306 0.39139
# Poissons Ratio (z) = 0.04691 0.23666
#
# Static dielectric constant tensor:
#      x y z
#    x 1.640800 0.000000 -0.015580 
#    y 0.000000 1.608090 0.000000 
#    z -0.015580 0.000000 1.642740 
# 
# From -- ./inp_files/283512.got.cif
#   From: 2010.05.17/outbox.cif.g08.bks.cpg/sg15_142_cif.got.tgz:283512.got - 2010.06.03 18:47:42.
