data_PCOD9257366
_publ_section_title
;
Structure prediction by ZEFSAII (Michael W. Deem and Ramdas Pophale) SiO2 
 PCOD9257366
Probable space group: C 2/C
;
_chemical_formula_sum "Si O2"
_cell_formula_units_Z 48
_cell_length_a 15.567138
_cell_length_b 9.641122
_cell_length_c 27.534838
_cell_angle_alpha 90.000000
_cell_angle_beta 32.016281
_cell_angle_gamma 90.000000
_cell_volume 2190.917472
_symmetry_space_group_name_H-M "C 2/C"
_symmetry_group_IT_number 15
_symmetry_cell_setting 'monoclinic'
loop_
_space_group_symop_operation_xyz
x,y,z
-x,y,1/2-z
-x,-y,-z
x,-y,1/2+z
1/2+x,1/2+y,z
1/2-x,1/2+y,1/2-z
1/2-x,1/2-y,-z
1/2+x,1/2-y,1/2+z
loop_
_atom_site_type_symbol
_atom_site_label
_atom_site_fract_x
_atom_site_fract_y
_atom_site_fract_z
Si Si1 0.814463 0.962730 0.098180
Si Si2 0.711290 0.532643 0.101407
Si Si3 0.432692 0.812698 0.335818
Si Si4 0.400218 0.804088 0.596136
Si Si5 0.721001 0.771729 0.603671
Si Si6 0.444457 0.042024 0.400021
O O1 0.749161 0.877171 0.082526
O O2 0.812941 0.844602 0.139719
O O3 0.717267 0.107598 0.146488
O O4 0.000000 0.000000 0.000000
O O5 0.577097 0.648796 0.153727
O O6 0.817839 0.600209 0.094190
O O7 0.647559 0.380328 0.145831
O O8 0.820634 0.510948 0.001024
O O9 0.500000 0.843346 0.250000
O O10 0.504520 0.907921 0.342483
O O11 0.588033 0.766895 0.494043
O O12 0.410308 0.882798 0.641727
O O13 0.645031 0.848626 0.593038
#
# Coordination Sequence:
#
# PCOD9257366 Si02
#       6
#     8   8   8   8   8   8
#     4   8  16  31  53  77 103 137 175 217 269 327
#     4  10  18  31  52  78 105 136 175 222 270 327
#     4  10  21  35  52  75 111 151 185 229 280 328
#     4   9  16  28  50  78 104 126 162 219 268 312
#     4   9  16  28  49  80 105 129 171 222 265 313
#     4  10  18  31  53  78 103 135 179 225 266 323
#
# _framework density 21.908632000000001
#
# number of rings (size 3 to 8) (size 9 to 14) (size 15 to 20)
#    0.000    2.667    0.000    4.500    0.000    0.000 
#    0.000    8.333    0.000   48.000    0.000    0.000 
#    0.000    0.000    0.000    0.000    0.000    0.000 
#
# Total GULP energy -133620.872134 kJ/mol
# GULP energy per Si atom -5567.536339 kJ/mol
# Density = 2.185877 g / cm^3
# Si number density = 21.908632 Si / 1000 Ang^3
#
#
#
# Elastic Constant Matrix: (Units=GPa)
#
#
# Indices 1 2 3 4 5 6 
#
# 1 109.4968 84.9276 25.5013 0.0000 10.0153 0.0000
# 2 84.9276 256.5976 29.3457 0.0000 20.9472 0.0000
# 3 25.5013 29.3457 54.1360 -0.0001 11.3424 -0.0001
# 4 0.0000 0.0000 -0.0001 -9.1119 0.0000 2.5618
# 5 10.0153 20.9472 11.3424 0.0000 15.4737 0.0000
# 6 0.0000 0.0000 -0.0001 2.5618 0.0000 55.5234
#
#
#
# Elastic Compliance Matrix: (Units=1/GPa)
#
#
# Indices 1 2 3 4 5 6 
#
# 1 0.013077 -0.003843 -0.004009 0.000000 -0.000322 0.000000
# 2 -0.003843 0.005594 -0.000185 0.000000 -0.004950 0.000000
# 3 -0.004009 -0.000185 0.023469 0.000000 -0.014358 0.000000
# 4 0.000000 0.000000 0.000000 -0.108341 0.000000 0.004999
# 5 -0.000322 -0.004950 -0.014358 0.000000 0.082060 0.000000
# 6 0.000000 0.000000 0.000000 0.004999 0.000000 0.017780
#
#
# Mechanical properties :
#
#
# Convention : Reuss Voigt Hill
#
# Bulk Modulus (GPa) = 38.36488 77.75330 58.05909
# Shear Modulus (GPa) = 85.61208 31.07407 58.34307
#
# Velocity S-wave (km/s) = 6.25793 3.77018 5.16604
# Velocity P-wave (km/s) = 8.35254 7.38371 7.88302
#
# Compressibility (1/GPa) = 0.02606551
#
# Stress axis : x y z
#
# Youngs Moduli (GPa) = 76.47140 178.74846 42.60935
#
# Poissons Ratio (x) = 0.68698 0.17082
# Poissons Ratio (y) = 0.29390 0.00788
# Poissons Ratio (z) = 0.30658 0.03307
#
# Static dielectric constant tensor:
#      x y z
#    x 1.856640 0.000000 -0.049240 
#    y 0.000000 1.879540 0.000000 
#    z -0.049240 0.000000 1.849170 
# 
# From -- ./inp_files/312795.got.cif
#   From: 2010.05.17/outbox.cif.g08.bks.cpg/sg15_157_cif.got.tgz:312795.got - 2010.06.03 18:47:42.
