data_PCOD9257786
_publ_section_title
;
Structure prediction by ZEFSAII (Michael W. Deem and Ramdas Pophale) SiO2 
 PCOD9257786
Probable space group: C 2/C
;
_chemical_formula_sum "Si O2"
_cell_formula_units_Z 60
_cell_length_a 25.248107
_cell_length_b 15.728775
_cell_length_c 18.904054
_cell_angle_alpha 90.000000
_cell_angle_beta 20.946479
_cell_angle_gamma 90.000000
_cell_volume 2683.796098
_symmetry_space_group_name_H-M "C 2/C"
_symmetry_group_IT_number 15
_symmetry_cell_setting 'monoclinic'
loop_
_space_group_symop_operation_xyz
x,y,z
-x,y,1/2-z
-x,-y,-z
x,-y,1/2+z
1/2+x,1/2+y,z
1/2-x,1/2+y,1/2-z
1/2-x,1/2-y,-z
1/2+x,1/2-y,1/2+z
loop_
_atom_site_type_symbol
_atom_site_label
_atom_site_fract_x
_atom_site_fract_y
_atom_site_fract_z
Si Si1 0.871585 0.605111 0.187054
Si Si2 0.797774 0.794641 0.117041
Si Si3 0.000000 0.659281 0.250000
Si Si4 0.457556 0.162657 0.665008
Si Si5 0.108291 0.011355 0.974231
Si Si6 0.247614 0.719369 0.843275
Si Si7 0.524608 0.012849 0.313159
Si Si8 0.685087 0.472900 0.217601
O O1 0.716909 0.553667 0.378377
O O2 0.840592 0.700160 0.251734
O O3 0.979371 0.553366 0.103605
O O4 0.945446 0.619183 0.018800
O O5 0.675063 0.789761 0.209447
O O6 0.731265 0.774083 0.278410
O O7 0.848822 0.892764 0.058779
O O8 0.933466 0.730365 0.935212
O O9 0.901819 0.713444 0.425395
O O10 0.090139 0.592099 0.187059
O O11 0.404848 0.080405 0.774846
O O12 0.143068 0.993553 0.848045
O O13 0.931117 0.000934 0.196771
O O14 0.323784 0.629185 0.763780
O O15 0.356039 0.000987 0.497314
#
# Coordination Sequence:
#
# PCOD9257786 Si02
#       8
#     8   8   4   8   8   8   8   8
#     4  11  20  34  59  84 121 153 192 248 298 353
#     4  10  22  35  58  93 122 143 193 244 311 352
#     4  10  22  40  58  82 120 168 210 232 278 352
#     4  11  21  35  58  89 118 149 188 250 308 349
#     4  10  18  32  53  84 117 149 182 238 303 353
#     4   9  21  36  55  87 120 162 196 240 286 354
#     4  11  21  37  58  80 113 162 204 240 284 353
#     4   9  19  31  51  80 118 150 190 232 289 352
#
# _framework density 22.356393000000001
#
# number of rings (size 3 to 8) (size 9 to 14) (size 15 to 20)
#    0.000    1.867    2.667    2.800    1.867    8.000 
#    0.000    1.333    0.000    0.800    0.000    0.000 
#    0.000    0.000    0.000    0.000    0.000    0.000 
#
# Total GULP energy -167411.346674 kJ/mol
# GULP energy per Si atom -5580.378222 kJ/mol
# Density = 2.230551 g / cm^3
# Si number density = 22.356393 Si / 1000 Ang^3
#
#
#
# Elastic Constant Matrix: (Units=GPa)
#
#
# Indices 1 2 3 4 5 6 
#
# 1 37.9216 22.1013 20.8283 0.0005 -25.5853 -0.0005
# 2 22.1013 54.5432 -3.4034 0.0000 -9.1684 0.0001
# 3 20.8283 -3.4034 36.1561 0.0006 -25.7539 -0.0006
# 4 0.0005 0.0000 0.0006 26.1643 -0.0006 -2.1649
# 5 -25.5853 -9.1684 -25.7539 -0.0006 33.0336 0.0006
# 6 -0.0005 0.0001 -0.0006 -2.1649 0.0006 13.9725
#
#
#
# Elastic Compliance Matrix: (Units=1/GPa)
#
#
# Indices 1 2 3 4 5 6 
#
# 1 0.078910 -0.027273 -0.022224 0.000000 0.036222 0.000001
# 2 -0.027273 0.031612 0.022241 0.000000 0.004990 0.000000
# 3 -0.022224 0.022241 0.078012 0.000000 0.049780 0.000000
# 4 0.000000 0.000000 0.000000 0.038716 0.000000 0.005999
# 5 0.036222 0.004990 0.049780 0.000000 0.098521 -0.000001
# 6 0.000001 0.000000 0.000000 0.005999 -0.000001 0.072498
#
#
# Mechanical properties :
#
#
# Convention : Reuss Voigt Hill
#
# Bulk Modulus (GPa) = 7.46148 23.07481 15.26814
# Shear Modulus (GPa) = 10.05112 20.57373 15.31243
#
# Velocity S-wave (km/s) = 2.12264 3.03687 2.61994
# Velocity P-wave (km/s) = 3.05815 4.75821 3.99955
#
# Compressibility (1/GPa) = 0.13402170
#
# Stress axis : x y z
#
# Youngs Moduli (GPa) = 12.67262 31.63365 12.81854
#
# Poissons Ratio (x) = 0.86275 0.28488
# Poissons Ratio (y) = 0.34562 -0.28510
# Poissons Ratio (z) = 0.28164 -0.70356
#
# Static dielectric constant tensor:
#      x y z
#    x 1.879590 0.000000 0.034980 
#    y 0.000000 1.813290 0.000000 
#    z 0.034980 0.000000 1.910610 
# 
# From -- ./inp_files/257837.got.cif
#   From: 2010.05.17/outbox.cif.g08.bks.cpg/sg15_129_cif.got.tgz:257837.got - 2010.06.03 18:47:42.
