data_PCOD9257474
_publ_section_title
;
Structure prediction by ZEFSAII (Michael W. Deem and Ramdas Pophale) SiO2 
 PCOD9257474
Probable space group: C 2/C
;
_chemical_formula_sum "Si O2"
_cell_formula_units_Z 56
_cell_length_a 19.467526
_cell_length_b 9.764661
_cell_length_c 17.033410
_cell_angle_alpha 90.000000
_cell_angle_beta 85.124754
_cell_angle_gamma 90.000000
_cell_volume 3226.230954
_symmetry_space_group_name_H-M "C 2/C"
_symmetry_group_IT_number 15
_symmetry_cell_setting 'monoclinic'
loop_
_space_group_symop_operation_xyz
x,y,z
-x,y,1/2-z
-x,-y,-z
x,-y,1/2+z
1/2+x,1/2+y,z
1/2-x,1/2+y,1/2-z
1/2-x,1/2-y,-z
1/2+x,1/2-y,1/2+z
loop_
_atom_site_type_symbol
_atom_site_label
_atom_site_fract_x
_atom_site_fract_y
_atom_site_fract_z
Si Si1 0.026963 0.517677 0.084514
Si Si2 0.702086 0.259591 0.208388
Si Si3 0.100976 0.563370 0.302026
Si Si4 0.730920 0.014921 0.897974
Si Si5 0.061457 0.301004 0.197244
Si Si6 0.687285 0.943958 0.574021
Si Si7 0.705987 0.243957 0.644372
O O1 0.033062 0.365485 0.120290
O O2 0.104182 0.578055 0.079492
O O3 0.968987 0.592027 0.143105
O O4 0.000000 0.500000 0.000000
O O5 0.632170 0.194312 0.252871
O O6 0.714412 0.401058 0.160405
O O7 0.719755 0.148804 0.139113
O O8 0.752337 0.268014 0.278317
O O9 0.160352 0.506428 0.354909
O O10 0.084313 0.437704 0.244415
O O11 0.759223 0.862626 0.908574
O O12 0.715882 0.079926 0.984031
O O13 0.128560 0.214826 0.174945
O O14 0.000000 0.231775 0.250000
O O15 0.700358 0.100288 0.599959
#
# Coordination Sequence:
#
# PCOD9257474 Si02
#       7
#     8   8   8   8   8   8   8
#     4  10  18  31  55  83 108 132 180 238 270 303
#     4  11  20  34  52  80 111 145 181 220 274 329
#     4  10  18  33  53  79 106 140 183 222 264 318
#     4  11  21  32  53  81 116 143 173 223 282 328
#     4   9  17  32  55  76 100 137 186 222 258 314
#     4  11  21  36  55  84 109 141 184 229 275 318
#     4  10  19  35  54  77 108 144 184 218 269 328
#
# _framework density 17.357716
#
# number of rings (size 3 to 8) (size 9 to 14) (size 15 to 20)
#    0.000    1.714    5.714    1.714    0.000    0.000 
#    0.000    0.000    3.143    0.000    0.000    5.000 
#    0.000    0.000    0.000    0.000    0.000    0.000 
#
# Total GULP energy -155887.923008 kJ/mol
# GULP energy per Si atom -5567.425822 kJ/mol
# Density = 1.731821 g / cm^3
# Si number density = 17.357716 Si / 1000 Ang^3
#
#
#
# Elastic Constant Matrix: (Units=GPa)
#
#
# Indices 1 2 3 4 5 6 
#
# 1 71.5730 22.1180 37.7423 0.0000 -3.1984 0.0000
# 2 22.1180 47.9326 14.4447 0.0000 -1.0787 0.0000
# 3 37.7423 14.4447 110.4707 0.0000 -4.8372 0.0000
# 4 0.0000 0.0000 0.0000 24.0029 0.0000 -5.6688
# 5 -3.1984 -1.0787 -4.8372 0.0000 22.9451 0.0000
# 6 0.0000 0.0000 0.0000 -5.6688 0.0000 19.6299
#
#
#
# Elastic Compliance Matrix: (Units=1/GPa)
#
#
# Indices 1 2 3 4 5 6 
#
# 1 0.019164 -0.007140 -0.005563 0.000000 0.001163 0.000000
# 2 -0.007140 0.024383 -0.000749 0.000000 -0.000007 0.000000
# 3 -0.005563 -0.000749 0.011118 0.000000 0.001533 0.000000
# 4 0.000000 0.000000 0.000000 0.044711 0.000000 0.012912
# 5 0.001163 -0.000007 0.001533 0.000000 0.044067 0.000000
# 6 0.000000 0.000000 0.000000 0.012912 0.000000 0.054671
#
#
# Mechanical properties :
#
#
# Convention : Reuss Voigt Hill
#
# Bulk Modulus (GPa) = 36.02270 42.06514 39.04392
# Shear Modulus (GPa) = 21.34274 23.69366 22.51820
#
# Velocity S-wave (km/s) = 3.51034 3.69863 3.60572
# Velocity P-wave (km/s) = 6.10149 6.52125 6.31486
#
# Compressibility (1/GPa) = 0.02776027
#
# Stress axis : x y z
#
# Youngs Moduli (GPa) = 52.18218 41.01209 89.94631
#
# Poissons Ratio (x) = 0.29284 0.50034
# Poissons Ratio (y) = 0.37260 0.06737
# Poissons Ratio (z) = 0.29027 0.03072
#
# Static dielectric constant tensor:
#      x y z
#    x 1.622360 0.000000 -0.023990 
#    y 0.000000 1.571670 0.000000 
#    z -0.023990 0.000000 1.615970 
# 
# From -- ./inp_files/217992.got.cif
#   From: 2010.05.17/outbox.cif.g08.bks.cpg/sg15_109_cif.got.tgz:217992.got - 2010.06.03 18:47:42.
