data_PCOD9257313
_publ_section_title
;
Structure prediction by ZEFSAII (Michael W. Deem and Ramdas Pophale) SiO2 
 PCOD9257313
Probable space group: C 2/C
;
_chemical_formula_sum "Si O2"
_cell_formula_units_Z 48
_cell_length_a 9.504213
_cell_length_b 16.211950
_cell_length_c 19.400387
_cell_angle_alpha 90.000000
_cell_angle_beta 126.293281
_cell_angle_gamma 90.000000
_cell_volume 2409.326253
_symmetry_space_group_name_H-M "C 2/C"
_symmetry_group_IT_number 15
_symmetry_cell_setting 'monoclinic'
loop_
_space_group_symop_operation_xyz
x,y,z
-x,y,1/2-z
-x,-y,-z
x,-y,1/2+z
1/2+x,1/2+y,z
1/2-x,1/2+y,1/2-z
1/2-x,1/2-y,-z
1/2+x,1/2-y,1/2+z
loop_
_atom_site_type_symbol
_atom_site_label
_atom_site_fract_x
_atom_site_fract_y
_atom_site_fract_z
Si Si1 0.658666 0.284491 0.136550
Si Si2 0.815152 0.876834 0.616518
Si Si3 0.160049 0.620968 0.922802
Si Si4 0.605788 0.734422 0.168481
Si Si5 0.356854 0.690889 0.648652
Si Si6 0.873684 0.529514 0.901609
O O1 0.692943 0.198915 0.106413
O O2 0.716629 0.361196 0.106137
O O3 0.792557 0.278183 0.239541
O O4 0.465941 0.291671 0.111728
O O5 0.769770 0.893856 0.523411
O O6 0.763721 0.955992 0.646263
O O7 0.014799 0.846476 0.672220
O O8 0.053968 0.706991 0.899677
O O9 0.005151 0.553272 0.877545
O O10 0.739720 0.733478 0.143845
O O11 0.500000 0.673804 0.750000
O O12 0.230529 0.612101 0.607987
O O13 0.000000 0.500000 0.000000
#
# Coordination Sequence:
#
# PCOD9257313 Si02
#       6
#     8   8   8   8   8   8
#     4  10  18  31  53  76  96 129 173 212 250 295
#     4  10  18  31  51  75  99 131 165 206 253 297
#     4   9  17  32  50  72 100 132 167 199 246 310
#     4   9  17  31  51  73  99 130 169 209 245 301
#     4   9  19  34  52  74 102 134 170 210 253 303
#     4   9  19  35  50  70 102 134 164 202 251 304
#
# _framework density 19.922582999999999
#
# number of rings (size 3 to 8) (size 9 to 14) (size 15 to 20)
#    0.000    2.667    0.000    4.000    0.000    1.333 
#    0.000   18.333    0.000   10.000    0.000    7.000 
#    0.000    0.000    0.000    0.000    0.000    0.000 
#
# Total GULP energy -133653.854790 kJ/mol
# GULP energy per Si atom -5568.910616 kJ/mol
# Density = 1.987724 g / cm^3
# Si number density = 19.922583 Si / 1000 Ang^3
#
#
#
# Elastic Constant Matrix: (Units=GPa)
#
#
# Indices 1 2 3 4 5 6 
#
# 1 175.8011 59.0165 24.0360 0.0000 -19.7738 0.0000
# 2 59.0165 79.0317 -0.9168 0.0000 -3.9017 0.0000
# 3 24.0360 -0.9168 23.5364 0.0000 -1.1128 0.0000
# 4 0.0000 0.0000 0.0000 16.3847 0.0000 10.1905
# 5 -19.7738 -3.9017 -1.1128 0.0000 24.2372 0.0000
# 6 0.0000 0.0000 0.0000 10.1905 0.0000 27.7628
#
#
#
# Elastic Compliance Matrix: (Units=1/GPa)
#
#
# Indices 1 2 3 4 5 6 
#
# 1 0.010465 -0.007602 -0.010661 0.000000 0.006825 0.000000
# 2 -0.007602 0.018284 0.008339 0.000000 -0.002876 0.000000
# 3 -0.010661 0.008339 0.053468 0.000000 -0.004900 0.000000
# 4 0.000000 0.000000 0.000000 0.079087 0.000000 -0.029029
# 5 0.006825 -0.002876 -0.004900 0.000000 0.046139 0.000000
# 6 0.000000 0.000000 0.000000 -0.029029 0.000000 0.046675
#
#
# Mechanical properties :
#
#
# Convention : Reuss Voigt Hill
#
# Bulk Modulus (GPa) = 16.03309 49.18228 32.60769
# Shear Modulus (GPa) = 16.96318 26.75918 21.86118
#
# Velocity S-wave (km/s) = 2.92114 3.66889 3.31616
# Velocity P-wave (km/s) = 4.40937 6.53360 5.57362
#
# Compressibility (1/GPa) = 0.06237100
#
# Stress axis : x y z
#
# Youngs Moduli (GPa) = 95.55300 54.69126 18.70285
#
# Poissons Ratio (x) = 0.41575 0.19939
# Poissons Ratio (y) = 0.72637 -0.15597
# Poissons Ratio (z) = 1.01869 -0.45609
#
# Static dielectric constant tensor:
#      x y z
#    x 1.757920 0.000000 0.002910 
#    y 0.000000 1.728730 0.000000 
#    z 0.002910 0.000000 1.748930 
# 
# From -- ./inp_files/189759.got.cif
#   From: 2010.05.17/outbox.cif.g08.bks.cpg/sg15_95_cif.got.tgz:189759.got - 2010.06.03 18:47:42.
