data_PCOD9257108
_publ_section_title
;
Structure prediction by ZEFSAII (Michael W. Deem and Ramdas Pophale) SiO2 
 PCOD9257108
Probable space group: C 2/C
;
_chemical_formula_sum "Si O2"
_cell_formula_units_Z 56
_cell_length_a 21.141794
_cell_length_b 9.206805
_cell_length_c 16.070160
_cell_angle_alpha 90.000000
_cell_angle_beta 102.115959
_cell_angle_gamma 90.000000
_cell_volume 3058.353058
_symmetry_space_group_name_H-M "C 2/C"
_symmetry_group_IT_number 15
_symmetry_cell_setting 'monoclinic'
loop_
_space_group_symop_operation_xyz
x,y,z
-x,y,1/2-z
-x,-y,-z
x,-y,1/2+z
1/2+x,1/2+y,z
1/2-x,1/2+y,1/2-z
1/2-x,1/2-y,-z
1/2+x,1/2-y,1/2+z
loop_
_atom_site_type_symbol
_atom_site_label
_atom_site_fract_x
_atom_site_fract_y
_atom_site_fract_z
Si Si1 0.656060 0.410181 0.053903
Si Si2 0.698956 0.907269 0.187646
Si Si3 0.675373 0.771064 0.716197
Si Si4 0.394824 0.583880 0.684953
Si Si5 0.265614 0.591132 0.539547
Si Si6 0.601768 0.351651 0.670357
Si Si7 0.970301 0.936779 0.576342
O O1 0.665172 0.276622 0.118269
O O2 0.632090 0.544277 0.106480
O O3 0.720278 0.469604 0.026100
O O4 0.599309 0.376462 0.971555
O O5 0.762390 0.821909 0.237165
O O6 0.712599 0.942204 0.094562
O O7 0.639621 0.798247 0.181543
O O8 0.689395 0.060013 0.230096
O O9 0.614281 0.716268 0.753629
O O10 0.334083 0.598896 0.606517
O O11 0.389535 0.440866 0.741569
O O12 0.455979 0.559906 0.642070
O O13 0.250000 0.750000 0.500000
O O14 0.525707 0.335695 0.629830
O O15 0.000000 0.000000 0.500000
#
# Coordination Sequence:
#
# PCOD9257108 Si02
#       7
#     8   8   8   8   8   8   8
#     4   9  18  34  53  81 111 147 190 234 286 340
#     4  11  21  34  54  84 114 157 189 234 294 344
#     4  10  21  35  55  81 119 149 193 238 284 352
#     4   9  19  33  56  81 107 145 189 230 282 340
#     4  10  18  30  54  79 115 147 185 228 287 346
#     4  10  18  34  55  80 108 144 195 239 278 341
#     4   9  18  33  59  81 103 140 189 240 284 339
#
# _framework density 18.310507000000001
#
# number of rings (size 3 to 8) (size 9 to 14) (size 15 to 20)
#    0.000    2.286    1.429    3.000    2.000    0.571 
#    0.000    0.714    0.000   10.286    0.000    0.000 
#    0.000    0.000    0.000    0.000    0.000    0.000 
#
# Total GULP energy -155986.776247 kJ/mol
# GULP energy per Si atom -5570.956295 kJ/mol
# Density = 1.826883 g / cm^3
# Si number density = 18.310507 Si / 1000 Ang^3
#
#
#
# Elastic Constant Matrix: (Units=GPa)
#
#
# Indices 1 2 3 4 5 6 
#
# 1 85.3089 42.2204 33.0393 0.0000 -5.7504 0.0000
# 2 42.2204 86.5645 16.9201 0.0000 4.7559 0.0000
# 3 33.0393 16.9201 72.1545 0.0000 -0.4747 0.0000
# 4 0.0000 0.0000 0.0000 19.4858 0.0000 3.1792
# 5 -5.7504 4.7559 -0.4747 0.0000 35.6269 0.0000
# 6 0.0000 0.0000 0.0000 3.1792 0.0000 25.5401
#
#
#
# Elastic Compliance Matrix: (Units=1/GPa)
#
#
# Indices 1 2 3 4 5 6 
#
# 1 0.018459 -0.007937 -0.006565 0.000000 0.003951 0.000000
# 2 -0.007937 0.015618 -0.000050 0.000000 -0.003367 0.000000
# 3 -0.006565 -0.000050 0.016872 0.000000 -0.000828 0.000000
# 4 0.000000 0.000000 0.000000 0.052383 0.000000 -0.006521
# 5 0.003951 -0.003367 -0.000828 0.000000 0.029145 0.000000
# 6 0.000000 0.000000 0.000000 -0.006521 0.000000 0.039966
#
#
# Mechanical properties :
#
#
# Convention : Reuss Voigt Hill
#
# Bulk Modulus (GPa) = 45.77912 47.59861 46.68887
# Shear Modulus (GPa) = 23.94305 26.25378 25.09842
#
# Velocity S-wave (km/s) = 3.62002 3.79068 3.70633
# Velocity P-wave (km/s) = 6.52139 6.72389 6.62341
#
# Compressibility (1/GPa) = 0.02184402
#
# Stress axis : x y z
#
# Youngs Moduli (GPa) = 54.17347 64.02868 59.27096
#
# Poissons Ratio (x) = 0.50820 0.38913
# Poissons Ratio (y) = 0.42998 0.00298
# Poissons Ratio (z) = 0.35566 0.00322
#
# Static dielectric constant tensor:
#      x y z
#    x 1.676450 0.000000 -0.015130 
#    y 0.000000 1.585260 0.000000 
#    z -0.015130 0.000000 1.691630 
# 
# From -- ./inp_files/213446.got.cif
#   From: 2010.05.17/outbox.cif.g08.bks.cpg/sg15_107_cif.got.tgz:213446.got - 2010.06.03 18:47:42.
