data_PCOD9257693
_publ_section_title
;
Structure prediction by ZEFSAII (Michael W. Deem and Ramdas Pophale) SiO2 
 PCOD9257693
Probable space group: C 2/C
;
_chemical_formula_sum "Si O2"
_cell_formula_units_Z 64
_cell_length_a 13.424090
_cell_length_b 31.221681
_cell_length_c 16.393052
_cell_angle_alpha 90.000000
_cell_angle_beta 34.415759
_cell_angle_gamma 90.000000
_cell_volume 3883.277623
_symmetry_space_group_name_H-M "C 2/C"
_symmetry_group_IT_number 15
_symmetry_cell_setting 'monoclinic'
loop_
_space_group_symop_operation_xyz
x,y,z
-x,y,1/2-z
-x,-y,-z
x,-y,1/2+z
1/2+x,1/2+y,z
1/2-x,1/2+y,1/2-z
1/2-x,1/2-y,-z
1/2+x,1/2-y,1/2+z
loop_
_atom_site_type_symbol
_atom_site_label
_atom_site_fract_x
_atom_site_fract_y
_atom_site_fract_z
Si Si1 0.189389 0.077213 0.167458
Si Si2 0.195975 0.294198 0.435565
Si Si3 0.157154 0.122862 0.443246
Si Si4 0.668156 0.030874 0.577793
Si Si5 0.136394 0.433004 0.581625
Si Si6 0.928202 0.628326 0.119972
Si Si7 0.537069 0.293412 0.093846
Si Si8 0.013893 0.956844 0.938151
O O1 0.285731 0.116971 0.146715
O O2 0.000000 0.085822 0.250000
O O3 0.145274 0.044224 0.271506
O O4 0.323171 0.057435 0.011344
O O5 0.351140 0.290150 0.264861
O O6 0.303939 0.299473 0.447661
O O7 0.085376 0.250400 0.515811
O O8 0.064387 0.333784 0.510361
O O9 0.222474 0.101838 0.483747
O O10 0.320729 0.137841 0.276174
O O11 0.039493 0.164075 0.537912
O O12 0.069143 0.083290 0.455576
O O13 0.500000 0.032336 0.750000
O O14 0.824415 0.049057 0.527001
O O15 0.705187 0.981233 0.529032
O O16 0.000000 0.434684 0.750000
O O17 0.037401 0.414675 0.569785
O O18 0.000000 0.000000 0.000000
#
# Coordination Sequence:
#
# PCOD9257693 Si02
#       8
#     8   8   8   8   8   8   8   8
#     4   9  21  37  52  75 103 141 183 221 267 316
#     4  10  20  33  50  76 108 139 170 210 258 318
#     4  10  18  32  52  73 103 141 176 214 257 314
#     4  10  20  35  51  72 102 140 181 229 265 306
#     4   9  17  29  47  73 103 134 175 211 260 308
#     4  10  19  33  54  74 101 141 175 215 262 314
#     4  10  20  33  49  77 110 138 169 208 260 312
#     4  10  19  35  52  73 103 143 178 216 268 314
#
# _framework density 16.480923000000001
#
# number of rings (size 3 to 8) (size 9 to 14) (size 15 to 20)
#    0.000    2.250    2.500    0.750    1.750    2.500 
#    2.250    0.000    0.000    0.000    0.000   14.875 
#    0.000    0.000    0.000    0.000    0.000    0.000 
#
# Total GULP energy -178195.290747 kJ/mol
# GULP energy per Si atom -5568.602836 kJ/mol
# Density = 1.644341 g / cm^3
# Si number density = 16.480923 Si / 1000 Ang^3
#
#
#
# Elastic Constant Matrix: (Units=GPa)
#
#
# Indices 1 2 3 4 5 6 
#
# 1 63.5084 28.2819 23.8602 0.0000 1.9303 0.0000
# 2 28.2819 75.3028 46.9490 0.0000 -4.6542 0.0000
# 3 23.8602 46.9490 80.0331 0.0000 1.4704 0.0000
# 4 0.0000 0.0000 0.0000 28.2075 0.0000 -6.0627
# 5 1.9303 -4.6542 1.4704 0.0000 16.9336 0.0000
# 6 0.0000 0.0000 0.0000 -6.0627 0.0000 15.4214
#
#
#
# Elastic Compliance Matrix: (Units=1/GPa)
#
#
# Indices 1 2 3 4 5 6 
#
# 1 0.019412 -0.006239 -0.002058 0.000000 -0.003749 0.000000
# 2 -0.006239 0.023762 -0.012232 0.000000 0.008304 0.000000
# 3 -0.002058 -0.012232 0.020374 0.000000 -0.004896 0.000000
# 4 0.000000 0.000000 0.000000 0.038724 0.000000 0.015224
# 5 -0.003749 0.008304 -0.004896 0.000000 0.062189 0.000000
# 6 0.000000 0.000000 0.000000 0.015224 0.000000 0.070830
#
#
# Mechanical properties :
#
#
# Convention : Reuss Voigt Hill
#
# Bulk Modulus (GPa) = 44.46558 46.33627 45.40092
# Shear Modulus (GPa) = 17.61516 20.09604 18.85560
#
# Velocity S-wave (km/s) = 3.27283 3.49571 3.38610
# Velocity P-wave (km/s) = 6.42810 6.66854 6.54942
#
# Compressibility (1/GPa) = 0.02248930
#
# Stress axis : x y z
#
# Youngs Moduli (GPa) = 51.51569 42.08316 49.08201
#
# Poissons Ratio (x) = 0.26255 0.10103
# Poissons Ratio (y) = 0.32140 0.60038
# Poissons Ratio (z) = 0.10604 0.51477
#
# Static dielectric constant tensor:
#      x y z
#    x 1.578870 0.000000 0.002020 
#    y 0.000000 1.545710 0.000000 
#    z 0.002020 0.000000 1.574570 
# 
# From -- ./inp_files/149147.got.cif
#   From: 2010.05.17/outbox.cif.g08.bks.cpg/sg15_75_cif.got.tgz:149147.got - 2010.06.03 18:47:42.
