data_PCOD9257159
_publ_section_title
;
Structure prediction by ZEFSAII (Michael W. Deem and Ramdas Pophale) SiO2 
 PCOD9257159
Probable space group: C 2/C
;
_chemical_formula_sum "Si O2"
_cell_formula_units_Z 64
_cell_length_a 19.319501
_cell_length_b 14.151795
_cell_length_c 15.393040
_cell_angle_alpha 90.000000
_cell_angle_beta 64.637584
_cell_angle_gamma 90.000000
_cell_volume 3802.909297
_symmetry_space_group_name_H-M "C 2/C"
_symmetry_group_IT_number 15
_symmetry_cell_setting 'monoclinic'
loop_
_space_group_symop_operation_xyz
x,y,z
-x,y,1/2-z
-x,-y,-z
x,-y,1/2+z
1/2+x,1/2+y,z
1/2-x,1/2+y,1/2-z
1/2-x,1/2-y,-z
1/2+x,1/2-y,1/2+z
loop_
_atom_site_type_symbol
_atom_site_label
_atom_site_fract_x
_atom_site_fract_y
_atom_site_fract_z
Si Si1 0.180662 0.189783 0.813734
Si Si2 0.757445 0.975463 0.114923
Si Si3 0.150846 0.495006 0.514355
Si Si4 0.507140 0.927511 0.848911
Si Si5 0.736113 0.816316 0.402702
Si Si6 0.820507 0.583027 0.183303
Si Si7 0.348615 0.355417 0.492173
Si Si8 0.992465 0.797941 0.151095
O O1 0.207272 0.125965 0.879878
O O2 0.235223 0.154829 0.706498
O O3 0.189419 0.303455 0.811723
O O4 0.091572 0.174719 0.837456
O O5 0.686217 0.970046 0.086295
O O6 0.732198 0.031796 0.216171
O O7 0.818471 0.041425 0.031854
O O8 0.180826 0.388778 0.481319
O O9 0.184563 0.550396 0.413842
O O10 0.059142 0.487539 0.568836
O O11 0.500000 0.945652 0.750000
O O12 0.592958 0.944291 0.834752
O O13 0.494996 0.814780 0.867626
O O14 0.691824 0.717686 0.420582
O O15 0.812305 0.816084 0.421224
O O16 0.439063 0.348409 0.436604
O O17 0.000000 0.817480 0.250000
#
# Coordination Sequence:
#
# PCOD9257159 Si02
#       8
#     8   8   8   8   8   8   8   8
#     4  11  22  37  53  82 115 145 189 231 276 342
#     4  11  23  36  56  82 111 149 193 232 271 338
#     4  11  21  36  57  82 114 150 181 227 285 338
#     4  10  19  32  55  88 116 137 177 235 289 335
#     4  10  18  30  56  83 108 134 180 232 279 327
#     4  11  22  36  57  83 113 150 185 229 283 336
#     4  10  19  32  53  83 109 140 176 229 291 321
#     4  10  19  31  55  84 112 141 178 237 292 326
#
# _framework density 16.829219999999999
#
# number of rings (size 3 to 8) (size 9 to 14) (size 15 to 20)
#    0.000    1.500    6.250    0.375    0.000    1.000 
#    0.000    0.000    0.000    0.000    0.000    0.875 
#    0.000    0.000    0.000    0.000    0.000    0.000 
#
# Total GULP energy -178302.154307 kJ/mol
# GULP energy per Si atom -5571.942322 kJ/mol
# Density = 1.679092 g / cm^3
# Si number density = 16.829220 Si / 1000 Ang^3
#
#
#
# Elastic Constant Matrix: (Units=GPa)
#
#
# Indices 1 2 3 4 5 6 
#
# 1 39.8149 27.2997 10.9022 0.0000 5.0913 0.0000
# 2 27.2997 44.7850 12.0299 0.0000 8.2645 0.0000
# 3 10.9022 12.0299 58.0906 0.0000 4.7594 0.0000
# 4 0.0000 0.0000 0.0000 20.9529 0.0000 5.7314
# 5 5.0913 8.2645 4.7594 0.0000 21.8068 0.0000
# 6 0.0000 0.0000 0.0000 5.7314 0.0000 16.9663
#
#
#
# Elastic Compliance Matrix: (Units=1/GPa)
#
#
# Indices 1 2 3 4 5 6 
#
# 1 0.043590 -0.025851 -0.002847 0.000000 0.000242 0.000000
# 2 -0.025851 0.040444 -0.002813 0.000000 -0.008678 0.000000
# 3 -0.002847 -0.002813 0.018521 0.000000 -0.002311 0.000000
# 4 0.000000 0.000000 0.000000 0.052585 0.000000 -0.017764
# 5 0.000242 -0.008678 -0.002311 0.000000 0.049594 0.000000
# 6 0.000000 0.000000 0.000000 -0.017764 0.000000 0.064941
#
#
# Mechanical properties :
#
#
# Convention : Reuss Voigt Hill
#
# Bulk Modulus (GPa) = 25.29548 27.01711 26.15630
# Shear Modulus (GPa) = 14.45605 18.10911 16.28258
#
# Velocity S-wave (km/s) = 2.93402 3.28388 3.11387
# Velocity P-wave (km/s) = 5.15183 5.51970 5.33893
#
# Compressibility (1/GPa) = 0.03953275
#
# Stress axis : x y z
#
# Youngs Moduli (GPa) = 22.94088 24.72538 53.99358
#
# Poissons Ratio (x) = 0.63918 0.15373
# Poissons Ratio (y) = 0.59305 0.15188
# Poissons Ratio (z) = 0.06532 0.06955
#
# Static dielectric constant tensor:
#      x y z
#    x 1.571130 0.000000 0.008260 
#    y 0.000000 1.573680 0.000000 
#    z 0.008260 0.000000 1.580720 
# 
# From -- ./inp_files/162260.got.cif
#   From: 2010.05.17/outbox.cif.g08.bks.cpg/sg15_82_cif.got.tgz:162260.got - 2010.06.03 18:47:42.
