data_PCOD9257088
_publ_section_title
;
Structure prediction by ZEFSAII (Michael W. Deem and Ramdas Pophale) SiO2 
 PCOD9257088
Probable space group: C 2/C
;
_chemical_formula_sum "Si O2"
_cell_formula_units_Z 60
_cell_length_a 5.725053
_cell_length_b 28.679114
_cell_length_c 15.511548
_cell_angle_alpha 90.000000
_cell_angle_beta 120.811869
_cell_angle_gamma 90.000000
_cell_volume 2187.356787
_symmetry_space_group_name_H-M "C 2/C"
_symmetry_group_IT_number 15
_symmetry_cell_setting 'monoclinic'
loop_
_space_group_symop_operation_xyz
x,y,z
-x,y,1/2-z
-x,-y,-z
x,-y,1/2+z
1/2+x,1/2+y,z
1/2-x,1/2+y,1/2-z
1/2-x,1/2-y,-z
1/2+x,1/2-y,1/2+z
loop_
_atom_site_type_symbol
_atom_site_label
_atom_site_fract_x
_atom_site_fract_y
_atom_site_fract_z
Si Si1 0.500000 0.742537 0.250000
Si Si2 0.827801 0.602888 0.893098
Si Si3 0.844226 0.891274 0.402136
Si Si4 0.604769 0.460230 0.583317
Si Si5 0.533280 0.691204 0.036135
Si Si6 0.785235 0.287998 0.359961
Si Si7 0.157336 0.436646 0.621389
Si Si8 0.345330 0.166577 0.366062
O O1 0.507606 0.775268 0.331354
O O2 0.745682 0.707116 0.284430
O O3 0.511451 0.592202 0.850222
O O4 0.827346 0.659459 0.899588
O O5 0.030536 0.594837 0.852097
O O6 0.983145 0.577024 0.001433
O O7 0.996262 0.914016 0.513918
O O8 0.893855 0.836578 0.430212
O O9 0.500000 0.500000 0.500000
O O10 0.932501 0.460792 0.639671
O O11 0.430094 0.461883 0.638613
O O12 0.622469 0.746309 0.056773
O O13 0.333344 0.679391 0.080512
O O14 0.833181 0.668902 0.086591
O O15 0.500000 0.287176 0.250000
O O16 0.226413 0.386000 0.671476
#
# Coordination Sequence:
#
# PCOD9257088 Si02
#       8
#     4   8   8   8   8   8   8   8
#     4  10  24  36  50  72 108 140 188 226 254 290
#     4  10  21  33  53  71 105 137 172 215 257 302
#     4  10  19  36  51  78 103 133 167 208 263 324
#     4  10  18  30  53  81 111 126 156 206 264 320
#     4  11  19  34  53  68 105 138 173 216 260 298
#     4  11  24  36  49  73 104 140 190 226 250 293
#     4  10  18  35  51  78 109 134 169 205 263 324
#     4  11  18  35  52  71 104 145 170 214 260 310
#
# _framework density 27.430364000000001
#
# number of rings (size 3 to 8) (size 9 to 14) (size 15 to 20)
#    0.000    1.600    6.667    0.400    1.867    1.067 
#    0.000    0.000    0.000    0.000    0.000    0.000 
#   48.000    0.000    0.000    0.000    0.000    0.000 
#
# Total GULP energy -167191.886950 kJ/mol
# GULP energy per Si atom -5573.062898 kJ/mol
# Density = 2.736793 g / cm^3
# Si number density = 27.430364 Si / 1000 Ang^3
#
#
#
# Elastic Constant Matrix: (Units=GPa)
#
#
# Indices 1 2 3 4 5 6 
#
# 1 287.1154 30.6450 53.4576 0.0000 31.5732 0.0000
# 2 30.6450 44.3358 1.7890 0.0000 2.4055 0.0000
# 3 53.4576 1.7890 53.5002 0.0000 11.1778 0.0000
# 4 0.0000 0.0000 0.0000 -7.6797 0.0000 1.2544
# 5 31.5732 2.4055 11.1778 0.0000 55.4973 0.0000
# 6 0.0000 0.0000 0.0000 1.2544 0.0000 20.6947
#
#
#
# Elastic Compliance Matrix: (Units=1/GPa)
#
#
# Indices 1 2 3 4 5 6 
#
# 1 0.004807 -0.003054 -0.004340 0.000000 -0.001728 0.000000
# 2 -0.003054 0.024565 0.002181 0.000000 0.000233 0.000000
# 3 -0.004340 0.002181 0.023446 0.000000 -0.002348 0.000000
# 4 0.000000 0.000000 0.000000 -0.128936 0.000000 0.007815
# 5 -0.001728 0.000233 -0.002348 0.000000 0.019465 0.000000
# 6 0.000000 0.000000 0.000000 0.007815 0.000000 0.047848
#
#
# Mechanical properties :
#
#
# Convention : Reuss Voigt Hill
#
# Bulk Modulus (GPa) = 23.58899 61.85941 42.72420
# Shear Modulus (GPa) = 317.46166 33.63977 175.55072
#
# Velocity S-wave (km/s) = 10.76963 3.50576 8.00860
# Velocity P-wave (km/s) = 12.77751 6.24400 10.05615
#
# Compressibility (1/GPa) = 0.04239266
#
# Stress axis : x y z
#
# Youngs Moduli (GPa) = 208.03214 40.70802 42.65205
#
# Poissons Ratio (x) = 0.12431 0.18511
# Poissons Ratio (y) = 0.63527 -0.09303
# Poissons Ratio (z) = 0.90284 -0.08879
#
# Static dielectric constant tensor:
#      x y z
#    x 2.197090 0.000000 -0.136980 
#    y 0.000000 2.139190 0.000000 
#    z -0.136980 0.000000 2.892200 
# 
# From -- ./inp_files/262077.got.cif
#   From: 2010.05.17/outbox.cif.g08.bks.cpg/sg15_132_cif.got.tgz:262077.got - 2010.06.03 18:47:42.
