data_PCOD9257594
_publ_section_title
;
Structure prediction by ZEFSAII (Michael W. Deem and Ramdas Pophale) SiO2 
 PCOD9257594
Probable space group: C 2/C
;
_chemical_formula_sum "Si O2"
_cell_formula_units_Z 48
_cell_length_a 20.822613
_cell_length_b 5.451279
_cell_length_c 21.491647
_cell_angle_alpha 90.000000
_cell_angle_beta 113.255949
_cell_angle_gamma 90.000000
_cell_volume 2241.304133
_symmetry_space_group_name_H-M "C 2/C"
_symmetry_group_IT_number 15
_symmetry_cell_setting 'monoclinic'
loop_
_space_group_symop_operation_xyz
x,y,z
-x,y,1/2-z
-x,-y,-z
x,-y,1/2+z
1/2+x,1/2+y,z
1/2-x,1/2+y,1/2-z
1/2-x,1/2-y,-z
1/2+x,1/2-y,1/2+z
loop_
_atom_site_type_symbol
_atom_site_label
_atom_site_fract_x
_atom_site_fract_y
_atom_site_fract_z
Si Si1 0.441093 0.413916 0.781104
Si Si2 0.353483 0.889298 0.569941
Si Si3 0.280268 0.873774 0.416022
Si Si4 0.991610 0.598359 0.322172
Si Si5 0.817951 0.731149 0.655695
Si Si6 0.246701 0.621501 0.287022
O O1 0.500000 0.428295 0.750000
O O2 0.444028 0.667670 0.818769
O O3 0.370589 0.394202 0.714702
O O4 0.459182 0.166956 0.826158
O O5 0.338189 0.884844 0.491061
O O6 0.291382 0.725312 0.577338
O O7 0.432728 0.838319 0.620007
O O8 0.341634 0.157097 0.596196
O O9 0.297373 0.706001 0.362876
O O10 0.256071 0.136861 0.380408
O O11 0.000000 0.580378 0.250000
O O12 0.817611 0.482954 0.696823
O O13 0.264541 0.371246 0.256214
#
# Coordination Sequence:
#
# PCOD9257594 Si02
#       6
#     8   8   8   8   8   8
#     4  10  19  30  52  78 116 146 189 223 275 339
#     4  10  20  33  53  90 126 154 179 230 295 368
#     4  10  21  35  57  86 119 155 186 236 300 348
#     4  10  18  32  48  76 119 152 183 216 263 353
#     4  11  20  35  60  85 122 152 191 243 289 345
#     4  11  23  41  59  82 112 150 206 247 283 339
#
# _framework density 21.416101999999999
#
# number of rings (size 3 to 8) (size 9 to 14) (size 15 to 20)
#    0.000    1.667    5.000    2.500    2.333    0.000 
#    0.000    0.000    0.000    0.000    0.000    7.000 
#    0.000    0.000    0.000    0.000    0.000    0.000 
#
# Total GULP energy -133631.412663 kJ/mol
# GULP energy per Si atom -5567.975528 kJ/mol
# Density = 2.136736 g / cm^3
# Si number density = 21.416102 Si / 1000 Ang^3
#
#
#
# Elastic Constant Matrix: (Units=GPa)
#
#
# Indices 1 2 3 4 5 6 
#
# 1 14.3543 9.3056 30.7325 -0.0001 0.0872 -0.0001
# 2 9.3056 150.0537 49.0075 -0.0006 -7.6472 -0.0004
# 3 30.7325 49.0075 166.4165 -0.0005 8.7585 -0.0002
# 4 -0.0001 -0.0006 -0.0005 18.0887 -0.0002 -7.8009
# 5 0.0872 -7.6472 8.7585 -0.0002 26.9729 0.0000
# 6 -0.0001 -0.0004 -0.0002 -7.8009 0.0000 19.2096
#
#
#
# Elastic Compliance Matrix: (Units=1/GPa)
#
#
# Indices 1 2 3 4 5 6 
#
# 1 0.116418 0.000296 -0.021946 0.000000 0.006834 0.000000
# 2 0.000296 0.007595 -0.002446 0.000000 0.002947 0.000000
# 3 -0.021946 -0.002446 0.011003 0.000000 -0.004195 0.000000
# 4 0.000000 0.000000 0.000000 0.067021 0.000001 0.027217
# 5 0.006834 0.002947 -0.004195 0.000001 0.039250 0.000000
# 6 0.000000 0.000000 0.000000 0.027217 0.000000 0.063110
#
#
# Mechanical properties :
#
#
# Convention : Reuss Voigt Hill
#
# Bulk Modulus (GPa) = 11.51759 56.54620 34.03190
# Shear Modulus (GPa) = 13.10510 28.97282 21.03896
#
# Velocity S-wave (km/s) = 2.47640 3.68210 3.13771
# Velocity P-wave (km/s) = 3.68326 6.67369 5.39002
#
# Compressibility (1/GPa) = 0.08682368
#
# Stress axis : x y z
#
# Youngs Moduli (GPa) = 8.58973 131.66396 90.88351
#
# Poissons Ratio (x) = -0.03900 1.99453
# Poissons Ratio (y) = -0.00254 0.22234
# Poissons Ratio (z) = 0.18851 0.32211
#
# Static dielectric constant tensor:
#      x y z
#    x 1.854930 0.000000 -0.010120 
#    y 0.000000 1.947820 0.000000 
#    z -0.010120 0.000000 1.795140 
# 
# From -- ./inp_files/253968.got.cif
#   From: 2010.05.17/outbox.cif.g08.bks.cpg/sg15_127_cif.got.tgz:253968.got - 2010.06.03 18:47:42.
