data_PCOD9257187
_publ_section_title
;
Structure prediction by ZEFSAII (Michael W. Deem and Ramdas Pophale) SiO2 
 PCOD9257187
Probable space group: C 2/C
;
_chemical_formula_sum "Si O2"
_cell_formula_units_Z 44
_cell_length_a 12.924239
_cell_length_b 12.398066
_cell_length_c 10.296028
_cell_angle_alpha 90.000000
_cell_angle_beta 101.698899
_cell_angle_gamma 90.000000
_cell_volume 1615.518327
_symmetry_space_group_name_H-M "C 2/C"
_symmetry_group_IT_number 15
_symmetry_cell_setting 'monoclinic'
loop_
_space_group_symop_operation_xyz
x,y,z
-x,y,1/2-z
-x,-y,-z
x,-y,1/2+z
1/2+x,1/2+y,z
1/2-x,1/2+y,1/2-z
1/2-x,1/2-y,-z
1/2+x,1/2-y,1/2+z
loop_
_atom_site_type_symbol
_atom_site_label
_atom_site_fract_x
_atom_site_fract_y
_atom_site_fract_z
Si Si1 0.768388 0.404926 0.233393
Si Si2 0.163249 0.708576 0.103331
Si Si3 0.500000 0.754349 0.750000
Si Si4 0.327880 0.645318 0.533571
Si Si5 0.934137 0.551175 0.603502
Si Si6 0.381290 0.317429 0.767944
O O1 0.723608 0.428945 0.365522
O O2 0.821471 0.483384 0.140841
O O3 0.855717 0.309798 0.290651
O O4 0.679819 0.335040 0.134950
O O5 0.280569 0.661265 0.148330
O O6 0.088223 0.675208 0.202144
O O7 0.102196 0.667131 0.963359
O O8 0.436483 0.686801 0.627739
O O9 0.250000 0.750000 0.500000
O O10 0.360868 0.616936 0.395486
O O11 0.000000 0.547088 0.750000
O O12 0.000000 0.500000 0.500000
O O13 0.500000 0.334926 0.750000
#
# Coordination Sequence:
#
# PCOD9257187 Si02
#       6
#     8   8   4   8   8   8
#     4   8  19  38  60  91 132 184 234 293 357 424
#     4   9  22  35  65  95 135 186 228 305 368 423
#     4  10  18  30  58  90 142 172 234 282 376 416
#     4   9  17  31  49  92 125 181 221 285 369 433
#     4  12  27  43  60  95 146 200 237 281 364 445
#     4   9  18  32  59 100 136 171 224 297 382 413
#
# _framework density 27.23584
#
# number of rings (size 3 to 8) (size 9 to 14) (size 15 to 20)
#    1.091    1.455    1.818    1.091    8.909    1.455 
#    0.000    0.000    0.000    0.000    0.000    1.273 
#   10.909    4.545    0.000    0.000    0.000    0.000 
#
# Total GULP energy -122559.833903 kJ/mol
# GULP energy per Si atom -5570.901541 kJ/mol
# Density = 2.717385 g / cm^3
# Si number density = 27.235840 Si / 1000 Ang^3
#
#
#
# Elastic Constant Matrix: (Units=GPa)
#
#
# Indices 1 2 3 4 5 6 
#
# 1 220.2782 33.1917 76.4799 0.0000 -34.9611 0.0000
# 2 33.1917 61.4219 13.0321 0.0000 -11.2615 0.0000
# 3 76.4799 13.0321 203.2431 0.0000 -25.2882 0.0000
# 4 0.0000 0.0000 0.0000 17.1730 0.0000 -2.7046
# 5 -34.9611 -11.2615 -25.2882 0.0000 77.3080 0.0000
# 6 0.0000 0.0000 0.0000 -2.7046 0.0000 23.8179
#
#
#
# Elastic Compliance Matrix: (Units=1/GPa)
#
#
# Indices 1 2 3 4 5 6 
#
# 1 0.005805 -0.002444 -0.001820 0.000000 0.001674 0.000000
# 2 -0.002444 0.017883 -0.000042 0.000000 0.001486 0.000000
# 3 -0.001820 -0.000042 0.005738 0.000000 0.001048 0.000000
# 4 0.000000 0.000000 0.000000 0.059291 0.000000 0.006733
# 5 0.001674 0.001486 0.001048 0.000000 0.014252 0.000000
# 6 0.000000 0.000000 0.000000 0.006733 0.000000 0.042750
#
#
# Mechanical properties :
#
#
# Convention : Reuss Voigt Hill
#
# Bulk Modulus (GPa) = 48.04253 81.15007 64.59630
# Shear Modulus (GPa) = 31.00413 47.80909 39.40661
#
# Velocity S-wave (km/s) = 3.37762 4.19426 3.80790
# Velocity P-wave (km/s) = 5.73488 7.30177 6.56523
#
# Compressibility (1/GPa) = 0.02081489
#
# Stress axis : x y z
#
# Youngs Moduli (GPa) = 172.25156 55.91902 174.27678
#
# Poissons Ratio (x) = 0.13668 0.31711
# Poissons Ratio (y) = 0.42101 0.00733
# Poissons Ratio (z) = 0.31342 0.00235
#
# Static dielectric constant tensor:
#      x y z
#    x 2.270350 0.000000 -0.022670 
#    y 0.000000 2.204130 0.000000 
#    z -0.022670 0.000000 2.176970 
# 
# From -- ./inp_files/30970.got.cif
#   From: 2010.05.17/outbox.cif.g08.bks.cpg/sg15_16_cif.got.tgz:30970.got - 2010.06.03 18:47:42.
