data_PCOD9257604
_publ_section_title
;
Structure prediction by ZEFSAII (Michael W. Deem and Ramdas Pophale) SiO2 
 PCOD9257604
Probable space group: C 2/C
;
_chemical_formula_sum "Si O2"
_cell_formula_units_Z 56
_cell_length_a 16.057928
_cell_length_b 23.227690
_cell_length_c 14.281616
_cell_angle_alpha 90.000000
_cell_angle_beta 138.496531
_cell_angle_gamma 90.000000
_cell_volume 3529.938750
_symmetry_space_group_name_H-M "C 2/C"
_symmetry_group_IT_number 15
_symmetry_cell_setting 'monoclinic'
loop_
_space_group_symop_operation_xyz
x,y,z
-x,y,1/2-z
-x,-y,-z
x,-y,1/2+z
1/2+x,1/2+y,z
1/2-x,1/2+y,1/2-z
1/2-x,1/2-y,-z
1/2+x,1/2-y,1/2+z
loop_
_atom_site_type_symbol
_atom_site_label
_atom_site_fract_x
_atom_site_fract_y
_atom_site_fract_z
Si Si1 0.433392 0.609593 0.094629
Si Si2 0.445562 0.930228 0.368199
Si Si3 0.532019 0.797558 0.165713
Si Si4 0.683809 0.988878 0.075465
Si Si5 0.390394 0.543424 0.378031
Si Si6 0.703526 0.272485 0.061634
Si Si7 0.752873 0.498852 0.076820
O O1 0.500000 0.621417 0.250000
O O2 0.540995 0.598603 0.107427
O O3 0.343879 0.662072 0.990895
O O4 0.350815 0.551110 0.030959
O O5 0.460923 0.864287 0.354662
O O6 0.370441 0.939802 0.402051
O O7 0.366507 0.965214 0.223506
O O8 0.580070 0.960598 0.490212
O O9 0.500000 0.793713 0.250000
O O10 0.671205 0.770919 0.270073
O O11 0.418949 0.765251 0.017645
O O12 0.809115 0.013866 0.227993
O O13 0.707389 0.973913 0.987783
O O14 0.500000 0.500000 0.500000
O O15 0.301757 0.544592 0.394608
O O16 0.750000 0.250000 0.000000
#
# Coordination Sequence:
#
# PCOD9257604 Si02
#       7
#     8   8   8   8   8   8   8
#     4  11  18  30  47  67  97 130 160 202 249 289
#     4  10  20  31  49  72  99 135 168 201 248 299
#     4  10  19  33  48  68 100 131 165 207 250 296
#     4  10  19  31  48  72  97 133 170 198 246 304
#     4   9  20  30  45  71  96 130 166 200 243 302
#     4  10  21  31  46  72  96 132 171 201 249 305
#     4  10  18  32  49  68 101 131 162 201 247 291
#
# _framework density 15.864299000000001
#
# number of rings (size 3 to 8) (size 9 to 14) (size 15 to 20)
#    0.000    2.000    2.857    2.571    2.000    1.143 
#    0.000    0.000    0.000    0.000    0.000    1.000 
#    0.000    2.286    0.000    0.000    0.000    0.000 
#
# Total GULP energy -156031.350498 kJ/mol
# GULP energy per Si atom -5572.548232 kJ/mol
# Density = 1.582819 g / cm^3
# Si number density = 15.864299 Si / 1000 Ang^3
#
#
#
# Elastic Constant Matrix: (Units=GPa)
#
#
# Indices 1 2 3 4 5 6 
#
# 1 81.3094 26.8225 30.7327 0.0000 -9.4005 0.0000
# 2 26.8225 28.7595 16.6075 0.0000 10.8211 0.0000
# 3 30.7327 16.6075 103.8812 0.0000 17.8214 0.0000
# 4 0.0000 0.0000 0.0000 15.8696 0.0000 3.9958
# 5 -9.4005 10.8211 17.8214 0.0000 28.7940 0.0000
# 6 0.0000 0.0000 0.0000 3.9958 0.0000 24.6937
#
#
#
# Elastic Compliance Matrix: (Units=1/GPa)
#
#
# Indices 1 2 3 4 5 6 
#
# 1 0.029204 -0.032687 -0.008007 0.000000 0.026774 0.000000
# 2 -0.032687 0.078895 0.004447 0.000000 -0.043073 0.000000
# 3 -0.008007 0.004447 0.013447 0.000000 -0.012608 0.000000
# 4 0.000000 0.000000 0.000000 0.065690 0.000000 -0.010630
# 5 0.026774 -0.043073 -0.012608 0.000000 0.067462 0.000000
# 6 0.000000 0.000000 0.000000 -0.010630 0.000000 0.042216
#
#
# Mechanical properties :
#
#
# Convention : Reuss Voigt Hill
#
# Bulk Modulus (GPa) = 20.38675 40.25284 30.31979
# Shear Modulus (GPa) = 12.96144 23.19064 18.07604
#
# Velocity S-wave (km/s) = 2.86146 3.82751 3.37919
# Velocity P-wave (km/s) = 4.87810 6.70533 5.86333
#
# Compressibility (1/GPa) = 0.04905148
#
# Stress axis : x y z
#
# Youngs Moduli (GPa) = 34.24242 12.67500 74.36367
#
# Poissons Ratio (x) = 0.41431 0.59545
# Poissons Ratio (y) = 1.11928 -0.33067
# Poissons Ratio (z) = 0.27419 -0.05636
#
# Static dielectric constant tensor:
#      x y z
#    x 1.559560 0.000000 0.024460 
#    y 0.000000 1.501970 0.000000 
#    z 0.024460 0.000000 1.564030 
# 
# From -- ./inp_files/51311.got.cif
#   From: 2010.05.17/outbox.cif.g08.bks.cpg/sg15_26_cif.got.tgz:51311.got - 2010.06.03 18:47:42.
