data_PCOD9257389
_publ_section_title
;
Structure prediction by ZEFSAII (Michael W. Deem and Ramdas Pophale) SiO2 
 PCOD9257389
Probable space group: C 2/C
;
_chemical_formula_sum "Si O2"
_cell_formula_units_Z 56
_cell_length_a 19.962703
_cell_length_b 8.665292
_cell_length_c 14.694282
_cell_angle_alpha 90.000000
_cell_angle_beta 106.928178
_cell_angle_gamma 90.000000
_cell_volume 2431.718509
_symmetry_space_group_name_H-M "C 2/C"
_symmetry_group_IT_number 15
_symmetry_cell_setting 'monoclinic'
loop_
_space_group_symop_operation_xyz
x,y,z
-x,y,1/2-z
-x,-y,-z
x,-y,1/2+z
1/2+x,1/2+y,z
1/2-x,1/2+y,1/2-z
1/2-x,1/2-y,-z
1/2+x,1/2-y,1/2+z
loop_
_atom_site_type_symbol
_atom_site_label
_atom_site_fract_x
_atom_site_fract_y
_atom_site_fract_z
Si Si1 0.302268 0.108013 0.031369
Si Si2 0.697895 0.591351 0.253881
Si Si3 0.950613 0.116039 0.533030
Si Si4 0.610600 0.150179 0.612701
Si Si5 0.888227 0.836007 0.186779
Si Si6 0.185627 0.925839 0.060722
Si Si7 0.860791 0.673965 0.351858
O O1 0.352951 0.180878 0.128332
O O2 0.258197 0.955487 0.038024
O O3 0.250000 0.250000 0.000000
O O4 0.336984 0.098531 0.947281
O O5 0.648169 0.732293 0.198353
O O6 0.661995 0.489202 0.319953
O O7 0.704239 0.478377 0.170257
O O8 0.777521 0.645427 0.300730
O O9 0.950100 0.267310 0.469124
O O10 0.951717 0.131167 0.642460
O O11 0.871304 0.050607 0.492754
O O12 0.000000 0.000000 0.500000
O O13 0.596356 0.982937 0.646425
O O14 0.897338 0.789347 0.294917
O O15 0.144868 0.764671 0.054280
#
# Coordination Sequence:
#
# PCOD9257389 Si02
#       7
#     8   8   8   8   8   8   8
#     4  11  15  32  52  80 122 158 181 235 295 363
#     4  10  18  31  52  86 121 154 180 231 300 374
#     4  10  22  42  61  75 106 162 216 252 277 340
#     4  10  21  34  56  84 125 153 192 240 303 357
#     4  10  20  33  58  85 118 154 196 234 302 361
#     4  10  20  32  54  82 118 153 198 231 298 356
#     4  11  20  32  53  92 124 151 178 243 312 377
#
# _framework density 23.028981999999999
#
# number of rings (size 3 to 8) (size 9 to 14) (size 15 to 20)
#    0.000    1.714    5.714    2.571    0.000    0.571 
#    0.000    7.143    0.000    1.714    0.000    0.000 
#    0.000    0.000    0.000    0.000    0.000    0.000 
#
# Total GULP energy -155905.886229 kJ/mol
# GULP energy per Si atom -5568.067365 kJ/mol
# Density = 2.297657 g / cm^3
# Si number density = 23.028982 Si / 1000 Ang^3
#
#
#
# Elastic Constant Matrix: (Units=GPa)
#
#
# Indices 1 2 3 4 5 6 
#
# 1 80.6474 24.3775 27.0702 0.0000 -28.9311 0.0000
# 2 24.3775 118.1676 22.1080 0.0000 -11.0980 0.0000
# 3 27.0702 22.1080 66.6987 0.0000 -25.1204 0.0000
# 4 0.0000 0.0000 0.0000 25.0024 0.0000 -2.5898
# 5 -28.9311 -11.0980 -25.1204 0.0000 21.6055 0.0000
# 6 0.0000 0.0000 0.0000 -2.5898 0.0000 22.5564
#
#
#
# Elastic Compliance Matrix: (Units=1/GPa)
#
#
# Indices 1 2 3 4 5 6 
#
# 1 0.025232 -0.002548 0.005046 0.000000 0.038344 0.000000
# 2 -0.002548 0.009331 -0.002737 0.000000 -0.001801 0.000000
# 3 0.005046 -0.002737 0.028228 0.000000 0.038171 0.000000
# 4 0.000000 0.000000 0.000000 0.040478 0.000000 0.004647
# 5 0.038344 -0.001801 0.038171 0.000000 0.141086 0.000000
# 6 0.000000 0.000000 0.000000 0.004647 0.000000 0.044867
#
#
# Mechanical properties :
#
#
# Convention : Reuss Voigt Hill
#
# Bulk Modulus (GPa) = 16.04826 45.84722 30.94774
# Shear Modulus (GPa) = 16.10451 26.63004 21.36728
#
# Velocity S-wave (km/s) = 2.64733 3.40423 3.04936
# Velocity P-wave (km/s) = 4.04083 5.95008 5.08585
#
# Compressibility (1/GPa) = 0.06231207
#
# Stress axis : x y z
#
# Youngs Moduli (GPa) = 39.63257 107.16832 35.42522
#
# Poissons Ratio (x) = 0.27306 -0.17874
# Poissons Ratio (y) = 0.10098 0.09697
# Poissons Ratio (z) = -0.19997 0.29334
#
# Static dielectric constant tensor:
#      x y z
#    x 1.904710 0.000000 0.058940 
#    y 0.000000 2.887590 0.000000 
#    z 0.058940 0.000000 1.857880 
# 
# From -- ./inp_files/166673.got.cif
#   From: 2010.05.17/outbox.cif.g08.bks.cpg/sg15_84_cif.got.tgz:166673.got - 2010.06.03 18:47:42.
