data_PCOD9257589
_publ_section_title
;
Structure prediction by ZEFSAII (Michael W. Deem and Ramdas Pophale) SiO2 
 PCOD9257589
Probable space group: C 2/C
;
_chemical_formula_sum "Si O2"
_cell_formula_units_Z 44
_cell_length_a 19.408374
_cell_length_b 5.628828
_cell_length_c 15.339198
_cell_angle_alpha 90.000000
_cell_angle_beta 79.004602
_cell_angle_gamma 90.000000
_cell_volume 1644.989535
_symmetry_space_group_name_H-M "C 2/C"
_symmetry_group_IT_number 15
_symmetry_cell_setting 'monoclinic'
loop_
_space_group_symop_operation_xyz
x,y,z
-x,y,1/2-z
-x,-y,-z
x,-y,1/2+z
1/2+x,1/2+y,z
1/2-x,1/2+y,1/2-z
1/2-x,1/2-y,-z
1/2+x,1/2-y,1/2+z
loop_
_atom_site_type_symbol
_atom_site_label
_atom_site_fract_x
_atom_site_fract_y
_atom_site_fract_z
Si Si1 0.726138 0.996200 0.573193
Si Si2 0.492086 0.260879 0.092543
Si Si3 0.887053 0.069170 0.032321
Si Si4 0.887694 0.617216 0.694165
Si Si5 0.000000 0.126712 0.250000
Si Si6 0.241416 0.507831 0.377339
O O1 0.717302 0.240779 0.629080
O O2 0.809288 0.000427 0.527067
O O3 0.716857 0.745997 0.627119
O O4 0.698299 0.997828 0.480378
O O5 0.569769 0.243233 0.035495
O O6 0.498903 0.455020 0.167204
O O7 0.451444 0.039298 0.140684
O O8 0.441233 0.352810 0.027621
O O9 0.877128 0.159434 0.133171
O O10 0.927997 0.718882 0.768809
O O11 0.814144 0.486007 0.689333
#
# Coordination Sequence:
#
# PCOD9257589 Si02
#       6
#     8   8   8   8   4   8
#     4   9  16  30  46  80 101 131 160 210 263 312
#     4  10  18  32  48  71 102 133 167 215 257 316
#     4   9  18  29  50  76 102 125 166 215 271 302
#     4  10  18  32  48  74 100 136 169 217 262 317
#     4  10  22  32  46  70  98 140 180 200 254 314
#     4   9  17  28  51  72 107 128 166 208 259 310
#
# _framework density 26.747890999999999
#
# number of rings (size 3 to 8) (size 9 to 14) (size 15 to 20)
#    0.000    2.545    1.818    1.091    0.000    0.000 
#    0.000    0.000    0.000    0.000    9.455    0.000 
#    0.000    0.000    0.000    0.000    0.000    0.000 
#
# Total GULP energy -122580.476810 kJ/mol
# GULP energy per Si atom -5571.839855 kJ/mol
# Density = 2.668701 g / cm^3
# Si number density = 26.747891 Si / 1000 Ang^3
#
#
#
# Elastic Constant Matrix: (Units=GPa)
#
#
# Indices 1 2 3 4 5 6 
#
# 1 71.7937 14.2370 27.9061 0.0000 14.7999 0.0000
# 2 14.2370 143.6054 21.0682 0.0000 16.1973 0.0000
# 3 27.9061 21.0682 92.5250 0.0000 33.2283 0.0000
# 4 0.0000 0.0000 0.0000 27.1193 0.0000 11.7341
# 5 14.7999 16.1973 33.2283 0.0000 29.0765 0.0000
# 6 0.0000 0.0000 0.0000 11.7341 0.0000 16.8290
#
#
#
# Elastic Compliance Matrix: (Units=1/GPa)
#
#
# Indices 1 2 3 4 5 6 
#
# 1 0.016175 -0.000659 -0.003229 0.000000 -0.004177 0.000000
# 2 -0.000659 0.007464 -0.000217 0.000000 -0.003574 0.000000
# 3 -0.003229 -0.000217 0.018992 0.000000 -0.019939 0.000000
# 4 0.000000 0.000000 0.000000 0.052805 0.000000 -0.036818
# 5 -0.004177 -0.003574 -0.019939 0.000000 0.061295 0.000000
# 6 0.000000 0.000000 0.000000 -0.036818 0.000000 0.085093
#
#
# Mechanical properties :
#
#
# Convention : Reuss Voigt Hill
#
# Bulk Modulus (GPa) = 29.05147 48.26075 38.65611
# Shear Modulus (GPa) = 19.11990 30.91914 25.01952
#
# Velocity S-wave (km/s) = 2.67651 3.40361 3.06172
# Velocity P-wave (km/s) = 4.52066 5.79034 5.19444
#
# Compressibility (1/GPa) = 0.03442166
#
# Stress axis : x y z
#
# Youngs Moduli (GPa) = 61.82230 133.97908 52.65390
#
# Poissons Ratio (x) = 0.08828 0.17000
# Poissons Ratio (y) = 0.04073 0.01144
# Poissons Ratio (z) = 0.19960 0.02910
#
# Static dielectric constant tensor:
#      x y z
#    x 2.148410 0.000000 0.079560 
#    y 0.000000 2.249010 0.000000 
#    z 0.079560 0.000000 2.177240 
# 
# From -- ./inp_files/175401.got.cif
#   From: 2010.05.17/outbox.cif.g08.bks.cpg/sg15_88_cif.got.tgz:175401.got - 2010.06.03 18:47:42.
