data_PCOD9257556
_publ_section_title
;
Structure prediction by ZEFSAII (Michael W. Deem and Ramdas Pophale) SiO2 
 PCOD9257556
Probable space group: C 2/C
;
_chemical_formula_sum "Si O2"
_cell_formula_units_Z 32
_cell_length_a 10.839800
_cell_length_b 8.612630
_cell_length_c 13.280948
_cell_angle_alpha 90.000000
_cell_angle_beta 103.694409
_cell_angle_gamma 90.000000
_cell_volume 1204.650950
_symmetry_space_group_name_H-M "C 2/C"
_symmetry_group_IT_number 15
_symmetry_cell_setting 'monoclinic'
loop_
_space_group_symop_operation_xyz
x,y,z
-x,y,1/2-z
-x,-y,-z
x,-y,1/2+z
1/2+x,1/2+y,z
1/2-x,1/2+y,1/2-z
1/2-x,1/2-y,-z
1/2+x,1/2-y,1/2+z
loop_
_atom_site_type_symbol
_atom_site_label
_atom_site_fract_x
_atom_site_fract_y
_atom_site_fract_z
Si Si1 0.894900 0.802706 0.817869
Si Si2 0.287042 0.913449 0.957316
Si Si3 0.008142 0.503077 0.371129
Si Si4 0.642372 0.608553 0.762323
O O1 0.759720 0.723209 0.767657
O O2 0.000000 0.813614 0.750000
O O3 0.961604 0.671119 0.896960
O O4 0.866804 0.982714 0.830003
O O5 0.402031 0.890062 0.899673
O O6 0.184143 0.009369 0.871612
O O7 0.250000 0.750000 0.000000
O O8 0.352242 0.018353 0.057216
O O9 0.000000 0.503968 0.250000
O O10 0.500000 0.671320 0.750000
#
# Coordination Sequence:
#
# PCOD9257556 Si02
#       4
#     8   8   8   8
#     4   9  18  34  55  80 116 157 197 243 297 356
#     4  10  18  31  59  89 115 158 206 248 306 369
#     4   9  18  33  55  86 120 157 204 252 302 367
#     4  10  20  34  57  88 119 154 199 250 303 362
#
# _framework density 26.56371
#
# number of rings (size 3 to 8) (size 9 to 14) (size 15 to 20)
#    0.000    2.500    0.000    4.500    0.000    1.000 
#    0.000    0.000    0.000   40.500    0.000  171.500 
#    0.000    0.000    0.000    0.000    0.000    0.000 
#
# Total GULP energy -89275.465077 kJ/mol
# GULP energy per Si atom -5579.716567 kJ/mol
# Density = 2.650325 g / cm^3
# Si number density = 26.563710 Si / 1000 Ang^3
#
#
#
# Elastic Constant Matrix: (Units=GPa)
#
#
# Indices 1 2 3 4 5 6 
#
# 1 205.2164 27.9892 51.4924 0.0000 17.2715 0.0000
# 2 27.9892 78.0523 -16.5630 0.0000 3.8229 0.0000
# 3 51.4924 -16.5630 151.0725 0.0000 20.8634 0.0000
# 4 0.0000 0.0000 0.0000 -4.6139 0.0000 10.0786
# 5 17.2715 3.8229 20.8634 0.0000 55.4547 0.0000
# 6 0.0000 0.0000 0.0000 10.0786 0.0000 59.6238
#
#
#
# Elastic Compliance Matrix: (Units=1/GPa)
#
#
# Indices 1 2 3 4 5 6 
#
# 1 0.005822 -0.002502 -0.002144 0.000000 -0.000834 0.000000
# 2 -0.002502 0.014315 0.002585 0.000000 -0.001180 0.000000
# 3 -0.002144 0.002585 0.007980 0.000000 -0.002513 0.000000
# 4 0.000000 0.000000 0.000000 -0.158290 0.000000 0.026757
# 5 -0.000834 -0.001180 -0.002513 0.000000 0.019319 0.000000
# 6 0.000000 0.000000 0.000000 0.026757 0.000000 0.012249
#
#
# Mechanical properties :
#
#
# Convention : Reuss Voigt Hill
#
# Bulk Modulus (GPa) = 41.67037 62.24204 51.95620
# Shear Modulus (GPa) = -57.81434 46.85443 -5.47996
#
# Velocity S-wave (km/s) = -4.67030 4.20438 -1.43785
# Velocity P-wave (km/s) = 3.65530 6.85939 4.10426
#
# Compressibility (1/GPa) = 0.02399787
#
# Stress axis : x y z
#
# Youngs Moduli (GPa) = 171.75648 69.85460 125.30642
#
# Poissons Ratio (x) = 0.17476 0.26860
# Poissons Ratio (y) = 0.42970 -0.32394
# Poissons Ratio (z) = 0.36816 -0.18059
#
# Static dielectric constant tensor:
#      x y z
#    x 2.055500 0.000000 0.018180 
#    y 0.000000 2.240160 0.000000 
#    z 0.018180 0.000000 2.174540 
# 
# From -- ./inp_files/140809.got.cif
#   From: 2010.05.17/outbox.cif.g08.bks.cpg/sg15_71_cif.got.tgz:140809.got - 2010.06.03 18:47:42.
