data_PCOD9257866
_publ_section_title
;
Structure prediction by ZEFSAII (Michael W. Deem and Ramdas Pophale) SiO2 
 PCOD9257866
Probable space group: C 2/C
;
_chemical_formula_sum "Si O2"
_cell_formula_units_Z 52
_cell_length_a 17.007985
_cell_length_b 16.702382
_cell_length_c 9.076556
_cell_angle_alpha 90.000000
_cell_angle_beta 91.778588
_cell_angle_gamma 90.000000
_cell_volume 2577.170117
_symmetry_space_group_name_H-M "C 2/C"
_symmetry_group_IT_number 15
_symmetry_cell_setting 'monoclinic'
loop_
_space_group_symop_operation_xyz
x,y,z
-x,y,1/2-z
-x,-y,-z
x,-y,1/2+z
1/2+x,1/2+y,z
1/2-x,1/2+y,1/2-z
1/2-x,1/2-y,-z
1/2+x,1/2-y,1/2+z
loop_
_atom_site_type_symbol
_atom_site_label
_atom_site_fract_x
_atom_site_fract_y
_atom_site_fract_z
Si Si1 0.405971 0.745867 0.002442
Si Si2 0.667268 0.395720 0.134824
Si Si3 0.500000 0.161852 0.750000
Si Si4 0.846813 0.633327 0.253471
Si Si5 0.284418 0.757773 0.250886
Si Si6 0.737207 0.501198 0.877769
Si Si7 0.130269 0.627077 0.554213
O O1 0.406312 0.662667 0.909737
O O2 0.385466 0.818912 0.891279
O O3 0.472434 0.780467 0.114628
O O4 0.335384 0.730085 0.114698
O O5 0.735159 0.332839 0.186032
O O6 0.671078 0.458559 0.269785
O O7 0.695810 0.446859 0.997236
O O8 0.567890 0.107806 0.679846
O O9 0.776101 0.692028 0.201268
O O10 0.801623 0.553521 0.297663
O O11 0.901647 0.625469 0.113531
O O12 0.339511 0.787137 0.385537
O O13 0.793667 0.570053 0.945485
#
# Coordination Sequence:
#
# PCOD9257866 Si02
#       7
#     8   8   4   8   8   8   8
#     4  10  19  36  58  76 110 155 195 227 267 337
#     4  10  18  32  54  85 114 143 178 234 292 330
#     4  10  24  42  54  74 114 164 202 220 262 330
#     4  11  18  32  57  84 110 139 187 244 286 323
#     4   9  17  32  55  81 110 141 186 238 287 329
#     4  11  19  31  55  87 117 140 176 235 298 334
#     4  10  22  34  52  81 116 148 188 228 275 345
#
# _framework density 20.17717
#
# number of rings (size 3 to 8) (size 9 to 14) (size 15 to 20)
#    0.000    1.846    4.615    1.385    0.000    0.615 
#    0.000    3.077    0.000    0.923    0.000    0.000 
#    0.000    0.000    0.000    0.000    0.000    0.000 
#
# Total GULP energy -144761.849376 kJ/mol
# GULP energy per Si atom -5567.763438 kJ/mol
# Density = 2.013125 g / cm^3
# Si number density = 20.177170 Si / 1000 Ang^3
#
#
#
# Elastic Constant Matrix: (Units=GPa)
#
#
# Indices 1 2 3 4 5 6 
#
# 1 -229.4778 -127.1773 -63.0442 0.0000 -32.9796 0.0000
# 2 -127.1773 9.9172 -7.1856 0.0000 -11.4892 0.0000
# 3 -63.0442 -7.1856 86.2682 0.0000 2.3693 0.0000
# 4 0.0000 0.0000 0.0000 13.5682 0.0000 -7.3432
# 5 -32.9796 -11.4892 2.3693 0.0000 11.5942 0.0000
# 6 0.0000 0.0000 0.0000 -7.3432 0.0000 8.2218
#
#
#
# Elastic Compliance Matrix: (Units=1/GPa)
#
#
# Indices 1 2 3 4 5 6 
#
# 1 0.000067 -0.006282 -0.000310 0.000000 -0.005971 0.000000
# 2 -0.006282 0.013881 -0.003340 0.000000 -0.003431 0.000000
# 3 -0.000310 -0.003340 0.011265 0.000000 -0.006495 0.000000
# 4 0.000000 0.000000 0.000000 0.142660 0.000000 0.127415
# 5 -0.005971 -0.003431 -0.006495 0.000000 0.067193 0.000000
# 6 0.000000 0.000000 0.000000 0.127415 0.000000 0.235428
#
#
# Mechanical properties :
#
#
# Convention : Reuss Voigt Hill
#
# Bulk Modulus (GPa) = 186.98844 -58.67851 64.15496
# Shear Modulus (GPa) = 10.15969 10.95114 10.55542
#
# Velocity S-wave (km/s) = 2.24637 2.33223 2.28970
# Velocity P-wave (km/s) = 9.98011 4.67893 6.23339
#
# Compressibility (1/GPa) = 0.00534792
#
# Stress axis : x y z
#
# Youngs Moduli (GPa) = 14908.62905 72.04235 88.76907
#
# Poissons Ratio (x) = 0.45256 0.02754
# Poissons Ratio (y) = 93.65480 0.29652
# Poissons Ratio (z) = 4.62521 0.24065
#
# Static dielectric constant tensor:
#      x y z
#    x 1.732780 0.000000 0.033130 
#    y 0.000000 1.737810 0.000000 
#    z 0.033130 0.000000 1.763490 
# 
# From -- ./inp_files/55348.got.cif
#   From: 2010.05.17/outbox.cif.g08.bks.cpg/sg15_28_cif.got.tgz:55348.got - 2010.06.03 18:47:42.
