data_PCOD9257082
_publ_section_title
;
Structure prediction by ZEFSAII (Michael W. Deem and Ramdas Pophale) SiO2 
 PCOD9257082
Probable space group: C 2/C
;
_chemical_formula_sum "Si O2"
_cell_formula_units_Z 64
_cell_length_a 8.978506
_cell_length_b 19.709139
_cell_length_c 23.550873
_cell_angle_alpha 90.000000
_cell_angle_beta 59.439615
_cell_angle_gamma 90.000000
_cell_volume 3588.634199
_symmetry_space_group_name_H-M "C 2/C"
_symmetry_group_IT_number 15
_symmetry_cell_setting 'monoclinic'
loop_
_space_group_symop_operation_xyz
x,y,z
-x,y,1/2-z
-x,-y,-z
x,-y,1/2+z
1/2+x,1/2+y,z
1/2-x,1/2+y,1/2-z
1/2-x,1/2-y,-z
1/2+x,1/2-y,1/2+z
loop_
_atom_site_type_symbol
_atom_site_label
_atom_site_fract_x
_atom_site_fract_y
_atom_site_fract_z
Si Si1 0.155898 0.406521 0.183576
Si Si2 0.784244 0.920669 0.424786
Si Si3 0.964945 0.331033 0.690542
Si Si4 0.547079 0.956961 0.370104
Si Si5 0.571910 0.477713 0.886124
Si Si6 0.441709 0.330151 0.195880
Si Si7 0.687996 0.441843 0.740606
Si Si8 0.786787 0.584279 0.433407
O O1 0.307664 0.455908 0.135000
O O2 0.255360 0.354771 0.206373
O O3 0.000000 0.440084 0.250000
O O4 0.048680 0.396401 0.145881
O O5 0.624665 0.931197 0.413792
O O6 0.739039 0.897037 0.496555
O O7 0.915493 0.868683 0.369388
O O8 0.881409 0.993527 0.413050
O O9 0.945157 0.250742 0.689185
O O10 0.797748 0.374955 0.705340
O O11 0.000000 0.347127 0.750000
O O12 0.119914 0.358478 0.621754
O O13 0.703144 0.993318 0.303899
O O14 0.411762 0.018202 0.406350
O O15 0.650052 0.442515 0.815163
O O16 0.609562 0.435678 0.935384
O O17 0.500000 0.346315 0.250000
O O18 0.500000 0.443840 0.750000
#
# Coordination Sequence:
#
# PCOD9257082 Si02
#       8
#     8   8   8   8   8   8   8   8
#     4  10  18  30  53  80 109 140 170 225 275 321
#     4  11  21  35  54  83 117 141 177 227 275 334
#     4  10  21  39  57  77 105 145 194 228 263 319
#     4  10  20  31  55  85 114 139 178 216 284 333
#     4  10  19  31  54  84 111 137 176 217 279 330
#     4  10  23  37  55  80 106 144 192 230 264 317
#     4  11  19  32  57  85 109 142 173 227 273 325
#     4  10  21  35  56  81 111 148 178 223 279 327
#
# _framework density 17.834081999999999
#
# number of rings (size 3 to 8) (size 9 to 14) (size 15 to 20)
#    0.000    1.750    3.750    1.500    1.750    1.000 
#    0.000    0.000    0.000    0.750    0.000    0.000 
#    0.000    0.000    0.000    0.000    0.000    0.000 
#
# Total GULP energy -178160.676218 kJ/mol
# GULP energy per Si atom -5567.521132 kJ/mol
# Density = 1.779349 g / cm^3
# Si number density = 17.834082 Si / 1000 Ang^3
#
#
#
# Elastic Constant Matrix: (Units=GPa)
#
#
# Indices 1 2 3 4 5 6 
#
# 1 96.7007 38.6156 41.4858 0.0000 30.0521 0.0000
# 2 38.6156 61.9005 32.6240 0.0000 11.8197 0.0000
# 3 41.4858 32.6240 120.9170 0.0000 26.7345 0.0000
# 4 0.0000 0.0000 0.0000 12.7983 0.0000 4.7572
# 5 30.0521 11.8197 26.7345 0.0000 31.0952 0.0000
# 6 0.0000 0.0000 0.0000 4.7572 0.0000 88.0833
#
#
#
# Elastic Compliance Matrix: (Units=1/GPa)
#
#
# Indices 1 2 3 4 5 6 
#
# 1 0.018350 -0.008289 -0.001031 0.000000 -0.013698 0.000000
# 2 -0.008289 0.022880 -0.003924 0.000000 0.002687 0.000000
# 3 -0.001031 -0.003924 0.011276 0.000000 -0.007207 0.000000
# 4 0.000000 0.000000 0.000000 0.079736 0.000000 -0.004306
# 5 -0.013698 0.002687 -0.007207 0.000000 0.050572 0.000000
# 6 0.000000 0.000000 0.000000 -0.004306 0.000000 0.011585
#
#
# Mechanical properties :
#
#
# Convention : Reuss Voigt Hill
#
# Bulk Modulus (GPa) = 38.43145 56.10766 47.26956
# Shear Modulus (GPa) = 21.78073 37.51487 29.64780
#
# Velocity S-wave (km/s) = 3.49850 4.59142 4.08171
# Velocity P-wave (km/s) = 6.15756 7.72253 6.98402
#
# Compressibility (1/GPa) = 0.02602035
#
# Stress axis : x y z
#
# Youngs Moduli (GPa) = 54.49497 43.70535 88.68513
#
# Poissons Ratio (x) = 0.36226 0.09144
# Poissons Ratio (y) = 0.45169 0.34796
# Poissons Ratio (z) = 0.05619 0.17148
#
# Static dielectric constant tensor:
#      x y z
#    x 1.679720 0.000000 -0.007510 
#    y 0.000000 1.590590 0.000000 
#    z -0.007510 0.000000 1.665590 
# 
# From -- ./inp_files/233498.got.cif
#   From: 2010.05.17/outbox.cif.g08.bks.cpg/sg15_117_cif.got.tgz:233498.got - 2010.06.03 18:47:42.
