data_PCOD9257909
_publ_section_title
;
Structure prediction by ZEFSAII (Michael W. Deem and Ramdas Pophale) SiO2 
 PCOD9257909
Probable space group: C 2/C
;
_chemical_formula_sum "Si O2"
_cell_formula_units_Z 40
_cell_length_a 9.448362
_cell_length_b 25.129222
_cell_length_c 10.086125
_cell_angle_alpha 90.000000
_cell_angle_beta 133.592612
_cell_angle_gamma 90.000000
_cell_volume 1734.422427
_symmetry_space_group_name_H-M "C 2/C"
_symmetry_group_IT_number 15
_symmetry_cell_setting 'monoclinic'
loop_
_space_group_symop_operation_xyz
x,y,z
-x,y,1/2-z
-x,-y,-z
x,-y,1/2+z
1/2+x,1/2+y,z
1/2-x,1/2+y,1/2-z
1/2-x,1/2-y,-z
1/2+x,1/2-y,1/2+z
loop_
_atom_site_type_symbol
_atom_site_label
_atom_site_fract_x
_atom_site_fract_y
_atom_site_fract_z
Si Si1 0.509318 0.829347 0.956492
Si Si2 0.284250 0.851767 0.052701
Si Si3 0.498064 0.446756 0.587610
Si Si4 0.387949 0.714685 0.856752
Si Si5 0.155560 0.881602 0.462534
O O1 0.330886 0.851439 0.928266
O O2 0.691131 0.806002 0.160412
O O3 0.627292 0.873458 0.951835
O O4 0.424643 0.775025 0.842665
O O5 0.500000 0.848696 0.250000
O O6 0.156042 0.801524 0.018507
O O7 0.184920 0.905730 0.039921
O O8 0.500000 0.456412 0.750000
O O9 0.500000 0.500000 0.500000
O O10 0.652520 0.413346 0.597891
O O11 0.566982 0.677069 0.932601
O O12 0.000000 0.903611 0.250000
#
# Coordination Sequence:
#
# PCOD9257909 Si02
#       5
#     8   8   8   8   8
#     4  10  18  32  55  86 123 162 200 243 287 341
#     4   9  20  38  59  86 123 161 200 245 297 352
#     4  11  24  44  67  90 114 151 198 253 313 369
#     4   9  18  31  53  86 124 167 202 236 285 342
#     4   9  19  37  59  86 123 163 201 243 295 352
#
# _framework density 23.062431
#
# number of rings (size 3 to 8) (size 9 to 14) (size 15 to 20)
#    0.000    2.400    0.000    3.000    0.000    3.200 
#    0.000    8.000    0.000    0.000    0.000    0.000 
#    0.000    0.000    0.000    0.000    0.000    0.000 
#
# Total GULP energy -111366.868537 kJ/mol
# GULP energy per Si atom -5568.343427 kJ/mol
# Density = 2.300994 g / cm^3
# Si number density = 23.062431 Si / 1000 Ang^3
#
#
#
# Elastic Constant Matrix: (Units=GPa)
#
#
# Indices 1 2 3 4 5 6 
#
# 1 199.4762 51.9417 27.9677 0.0000 -38.7905 0.0000
# 2 51.9417 78.5827 13.0868 0.0000 -26.4817 0.0000
# 3 27.9677 13.0868 66.6562 0.0000 -31.2099 0.0000
# 4 0.0000 0.0000 0.0000 20.2647 0.0000 -10.8962
# 5 -38.7905 -26.4817 -31.2099 0.0000 32.1398 0.0000
# 6 0.0000 0.0000 0.0000 -10.8962 0.0000 21.3730
#
#
#
# Elastic Compliance Matrix: (Units=1/GPa)
#
#
# Indices 1 2 3 4 5 6 
#
# 1 0.006906 -0.002190 0.001082 0.000000 0.007581 0.000000
# 2 -0.002190 0.019787 0.006290 0.000000 0.019769 0.000000
# 3 0.001082 0.006290 0.029985 0.000000 0.035606 0.000000
# 4 0.000000 0.000000 0.000000 0.067983 0.000000 0.034658
# 5 0.007581 0.019769 0.035606 0.000000 0.091129 0.000000
# 6 0.000000 0.000000 0.000000 0.034658 0.000000 0.064457
#
#
# Mechanical properties :
#
#
# Convention : Reuss Voigt Hill
#
# Bulk Modulus (GPa) = 14.91584 58.96749 36.94166
# Shear Modulus (GPa) = 17.10979 31.53676 24.32328
#
# Velocity S-wave (km/s) = 2.72672 3.70192 3.25109
# Velocity P-wave (km/s) = 4.04907 6.62544 5.49051
#
# Compressibility (1/GPa) = 0.06704282
#
# Stress axis : x y z
#
# Youngs Moduli (GPa) = 144.80248 50.53715 33.34995
#
# Poissons Ratio (x) = 0.11068 -0.03609
# Poissons Ratio (y) = 0.31713 -0.20978
# Poissons Ratio (z) = -0.15669 -0.31789
#
# Static dielectric constant tensor:
#      x y z
#    x 1.985890 0.000000 -0.133520 
#    y 0.000000 1.874220 0.000000 
#    z -0.133520 0.000000 2.050310 
# 
# From -- ./inp_files/23770.got.cif
#   From: 2010.05.17/outbox.cif.g08.bks.cpg/sg15_12_cif.got.tgz:23770.got - 2010.06.03 18:47:42.
