data_PCOD9257857
_publ_section_title
;
Structure prediction by ZEFSAII (Michael W. Deem and Ramdas Pophale) SiO2 
 PCOD9257857
Probable space group: C 2/C
;
_chemical_formula_sum "Si O2"
_cell_formula_units_Z 52
_cell_length_a 9.477094
_cell_length_b 28.286191
_cell_length_c 11.190809
_cell_angle_alpha 90.000000
_cell_angle_beta 67.038015
_cell_angle_gamma 90.000000
_cell_volume 2762.227363
_symmetry_space_group_name_H-M "C 2/C"
_symmetry_group_IT_number 15
_symmetry_cell_setting 'monoclinic'
loop_
_space_group_symop_operation_xyz
x,y,z
-x,y,1/2-z
-x,-y,-z
x,-y,1/2+z
1/2+x,1/2+y,z
1/2-x,1/2+y,1/2-z
1/2-x,1/2-y,-z
1/2+x,1/2-y,1/2+z
loop_
_atom_site_type_symbol
_atom_site_label
_atom_site_fract_x
_atom_site_fract_y
_atom_site_fract_z
Si Si1 0.816727 0.736292 0.843250
Si Si2 0.092725 0.910531 0.923729
Si Si3 0.774438 0.864797 0.069774
Si Si4 0.061419 0.450768 0.113940
Si Si5 0.500000 0.483690 0.750000
Si Si6 0.684083 0.336265 0.711829
Si Si7 0.726856 0.964519 0.431887
O O1 0.754717 0.683311 0.848417
O O2 0.763986 0.782270 0.784667
O O3 0.000000 0.733106 0.750000
O O4 0.750000 0.750000 0.000000
O O5 0.196555 0.874403 0.811997
O O6 0.019756 0.949196 0.857109
O O7 0.190813 0.935415 0.992348
O O8 0.948161 0.882448 0.025363
O O9 0.656380 0.906757 0.132338
O O10 0.750500 0.854114 0.935725
O O11 0.000000 0.478339 0.250000
O O12 0.915952 0.438287 0.080440
O O13 0.165216 0.486142 0.005239
O O14 0.645408 0.518069 0.702528
O O15 0.500000 0.333877 0.750000
#
# Coordination Sequence:
#
# PCOD9257857 Si02
#       7
#     8   8   8   8   4   8   8
#     4   9  17  30  53  86 118 152 202 256 307 367
#     4  11  19  35  59  85 115 156 203 246 293 365
#     4  10  18  32  54  84 112 151 194 242 300 352
#     4  11  23  39  52  80 121 155 195 249 297 353
#     4  12  20  38  58  78 118 160 202 238 292 358
#     4   8  15  31  53  82 114 145 193 244 293 357
#     4  11  25  36  56  83 116 162 203 244 295 357
#
# _framework density 18.825388
#
# number of rings (size 3 to 8) (size 9 to 14) (size 15 to 20)
#    0.000    1.846    3.846    2.769    2.154    1.231 
#    0.000    0.000    0.000    0.000    0.000   53.846 
#    0.000    0.000    0.000    0.000    0.000    0.000 
#
# Total GULP energy -144796.292365 kJ/mol
# GULP energy per Si atom -5569.088168 kJ/mol
# Density = 1.878254 g / cm^3
# Si number density = 18.825388 Si / 1000 Ang^3
#
#
#
# Elastic Constant Matrix: (Units=GPa)
#
#
# Indices 1 2 3 4 5 6 
#
# 1 73.0193 34.2912 16.9028 0.0000 1.4750 0.0000
# 2 34.2912 95.1898 12.2366 0.0000 0.7746 0.0000
# 3 16.9028 12.2366 51.2425 0.0000 -17.4673 0.0000
# 4 0.0000 0.0000 0.0000 34.5821 0.0000 -8.1239
# 5 1.4750 0.7746 -17.4673 0.0000 22.7501 0.0000
# 6 0.0000 0.0000 0.0000 -8.1239 0.0000 -1.0744
#
#
#
# Elastic Compliance Matrix: (Units=1/GPa)
#
#
# Indices 1 2 3 4 5 6 
#
# 1 0.017980 -0.005568 -0.006683 0.000000 -0.006107 0.000000
# 2 -0.005568 0.012736 -0.001665 0.000000 -0.001351 0.000000
# 3 -0.006683 -0.001665 0.030184 0.000000 0.023665 0.000000
# 4 0.000000 0.000000 0.000000 0.010416 0.000000 -0.078756
# 5 -0.006107 -0.001351 0.023665 0.000000 0.062568 0.000000
# 6 0.000000 0.000000 0.000000 -0.078756 0.000000 -0.335253
#
#
# Mechanical properties :
#
#
# Convention : Reuss Voigt Hill
#
# Bulk Modulus (GPa) = 30.24139 38.47918 34.36029
# Shear Modulus (GPa) = -30.76671 21.65298 -4.55687
#
# Velocity S-wave (km/s) = -4.04706 3.39514 -1.55751
# Velocity P-wave (km/s) = 2.39567 5.98780 3.88037
#
# Compressibility (1/GPa) = 0.03306726
#
# Stress axis : x y z
#
# Youngs Moduli (GPa) = 55.61598 78.51532 33.13017
#
# Poissons Ratio (x) = 0.43721 0.22141
# Poissons Ratio (y) = 0.30970 0.05517
# Poissons Ratio (z) = 0.37169 0.13074
#
# Static dielectric constant tensor:
#      x y z
#    x 1.648960 0.000000 -0.039110 
#    y 0.000000 1.681450 0.000000 
#    z -0.039110 0.000000 1.750010 
# 
# From -- ./inp_files/80853.got.cif
#   From: 2010.05.17/outbox.cif.g08.bks.cpg/sg15_41_cif.got.tgz:80853.got - 2010.06.03 18:47:42.
