data_PCOD9257277
_publ_section_title
;
Structure prediction by ZEFSAII (Michael W. Deem and Ramdas Pophale) SiO2 
 PCOD9257277
Probable space group: C 2/C
;
_chemical_formula_sum "Si O2"
_cell_formula_units_Z 64
_cell_length_a 25.669892
_cell_length_b 17.657388
_cell_length_c 8.812500
_cell_angle_alpha 90.000000
_cell_angle_beta 100.002902
_cell_angle_gamma 90.000000
_cell_volume 3933.663549
_symmetry_space_group_name_H-M "C 2/C"
_symmetry_group_IT_number 15
_symmetry_cell_setting 'monoclinic'
loop_
_space_group_symop_operation_xyz
x,y,z
-x,y,1/2-z
-x,-y,-z
x,-y,1/2+z
1/2+x,1/2+y,z
1/2-x,1/2+y,1/2-z
1/2-x,1/2-y,-z
1/2+x,1/2-y,1/2+z
loop_
_atom_site_type_symbol
_atom_site_label
_atom_site_fract_x
_atom_site_fract_y
_atom_site_fract_z
Si Si1 0.913283 0.018509 0.032866
Si Si2 0.680129 0.744726 0.126921
Si Si3 0.851419 0.909138 0.766882
Si Si4 0.219911 0.405217 0.106796
Si Si5 0.051483 0.101945 0.721061
Si Si6 0.726821 0.064435 0.251811
Si Si7 0.667131 0.326534 0.295848
Si Si8 0.718822 0.782090 0.628729
O O1 0.871466 0.065882 0.111884
O O2 0.947003 0.969788 0.166235
O O3 0.949110 0.073821 0.951387
O O4 0.883722 0.959421 0.905434
O O5 0.645554 0.681679 0.200074
O O6 0.682121 0.835685 0.140280
O O7 0.739398 0.724705 0.211467
O O8 0.671706 0.723948 0.948579
O O9 0.790232 0.931443 0.758019
O O10 0.208575 0.481884 0.191040
O O11 0.281685 0.381894 0.171297
O O12 0.215538 0.418851 0.923265
O O13 0.110071 0.135767 0.769791
O O14 0.000000 0.147695 0.750000
O O15 0.704017 0.130133 0.129101
O O16 0.672706 0.274777 0.150048
O O17 0.750000 0.750000 0.500000
#
# Coordination Sequence:
#
# PCOD9257277 Si02
#       8
#     8   8   8   8   8   8   8   8
#     4  10  20  33  49  70  97 129 175 214 254 283
#     4  10  19  35  48  66  99 137 166 197 254 305
#     4  10  18  31  50  70  91 135 169 205 243 304
#     4  11  20  32  46  71  98 138 166 200 242 303
#     4  11  22  34  50  71  98 133 175 219 259 290
#     4  11  20  29  45  69 102 124 173 198 241 292
#     4  11  19  36  51  64  99 141 168 204 252 302
#     4  10  21  32  49  73  98 128 170 211 248 299
#
# _framework density 16.269819999999999
#
# number of rings (size 3 to 8) (size 9 to 14) (size 15 to 20)
#    0.000    1.500    5.000    3.375    7.000    0.000 
#    0.000    0.000    0.000    0.000    0.000    0.000 
#    0.000    1.000    0.250    0.000    0.000    0.000 
#
# Total GULP energy -178243.342619 kJ/mol
# GULP energy per Si atom -5570.104457 kJ/mol
# Density = 1.623279 g / cm^3
# Si number density = 16.269820 Si / 1000 Ang^3
#
#
#
# Elastic Constant Matrix: (Units=GPa)
#
#
# Indices 1 2 3 4 5 6 
#
# 1 50.8592 23.6479 25.7612 0.0000 -11.6012 0.0000
# 2 23.6479 131.8344 37.6781 0.0000 -9.8362 0.0000
# 3 25.7612 37.6781 53.3169 0.0000 -12.3016 0.0000
# 4 0.0000 0.0000 0.0000 24.2391 0.0000 -3.3798
# 5 -11.6012 -9.8362 -12.3016 0.0000 14.6358 0.0000
# 6 0.0000 0.0000 0.0000 -3.3798 0.0000 8.7524
#
#
#
# Elastic Compliance Matrix: (Units=1/GPa)
#
#
# Indices 1 2 3 4 5 6 
#
# 1 0.028192 -0.001313 -0.009604 0.000000 0.013392 0.000000
# 2 -0.001313 0.009576 -0.006064 0.000000 0.000298 0.000000
# 3 -0.009604 -0.006064 0.030996 0.000000 0.014364 0.000000
# 4 0.000000 0.000000 0.000000 0.043603 0.000000 0.016838
# 5 0.013392 0.000298 0.014364 0.000000 0.091215 0.000000
# 6 0.000000 0.000000 0.000000 0.016838 0.000000 0.120757
#
#
# Mechanical properties :
#
#
# Convention : Reuss Voigt Hill
#
# Bulk Modulus (GPa) = 28.73397 45.57610 37.15503
# Shear Modulus (GPa) = 13.51713 19.45367 16.48540
#
# Velocity S-wave (km/s) = 2.88551 3.46163 3.18661
# Velocity P-wave (km/s) = 5.36663 6.63706 6.03537
#
# Compressibility (1/GPa) = 0.03480201
#
# Stress axis : x y z
#
# Youngs Moduli (GPa) = 35.47114 104.42600 32.26265
#
# Poissons Ratio (x) = 0.13711 0.30984
# Poissons Ratio (y) = 0.04657 0.19564
# Poissons Ratio (z) = 0.34065 0.63325
#
# Static dielectric constant tensor:
#      x y z
#    x 1.564430 0.000000 -0.008830 
#    y 0.000000 1.631180 0.000000 
#    z -0.008830 0.000000 1.585830 
# 
# From -- ./inp_files/66712.got.cif
#   From: 2010.05.17/outbox.cif.g08.bks.cpg/sg15_34_cif.got.tgz:66712.got - 2010.06.03 18:47:42.
