data_PCOD9257152
_publ_section_title
;
Structure prediction by ZEFSAII (Michael W. Deem and Ramdas Pophale) SiO2 
 PCOD9257152
Probable space group: C 2/C
;
_chemical_formula_sum "Si O2"
_cell_formula_units_Z 52
_cell_length_a 15.160762
_cell_length_b 8.023101
_cell_length_c 18.924015
_cell_angle_alpha 90.000000
_cell_angle_beta 52.285051
_cell_angle_gamma 90.000000
_cell_volume 1820.908689
_symmetry_space_group_name_H-M "C 2/C"
_symmetry_group_IT_number 15
_symmetry_cell_setting 'monoclinic'
loop_
_space_group_symop_operation_xyz
x,y,z
-x,y,1/2-z
-x,-y,-z
x,-y,1/2+z
1/2+x,1/2+y,z
1/2-x,1/2+y,1/2-z
1/2-x,1/2-y,-z
1/2+x,1/2-y,1/2+z
loop_
_atom_site_type_symbol
_atom_site_label
_atom_site_fract_x
_atom_site_fract_y
_atom_site_fract_z
Si Si1 0.178730 0.270139 0.634332
Si Si2 0.428074 0.026053 0.922688
Si Si3 0.929332 0.779233 0.509474
Si Si4 0.831854 0.431550 0.712588
Si Si5 0.500000 0.335108 0.750000
Si Si6 0.234185 0.122075 0.104909
Si Si7 0.916635 0.991367 0.648149
O O1 0.107257 0.391029 0.620095
O O2 0.303513 0.334669 0.557304
O O3 0.152170 0.302364 0.730019
O O4 0.186598 0.070008 0.617672
O O5 0.559675 0.051049 0.840946
O O6 0.429971 0.912515 0.992786
O O7 0.328793 0.147812 0.998397
O O8 0.952665 0.846997 0.575334
O O9 0.015967 0.854278 0.413185
O O10 0.796156 0.372433 0.651090
O O11 0.715180 0.517135 0.791420
O O12 0.379296 0.262233 0.835685
O O13 0.456898 0.437887 0.704503
#
# Coordination Sequence:
#
# PCOD9257152 Si02
#       7
#     8   8   8   8   4   8   8
#     4  10  20  34  56  87 111 141 193 232 274 331
#     4  11  20  34  56  85 116 142 182 239 282 331
#     4   9  18  33  53  78 111 145 184 230 278 329
#     4  10  22  32  51  84 118 148 177 230 291 335
#     4  10  18  30  56  78 104 144 192 232 264 330
#     4  10  21  35  54  83 114 150 182 234 287 326
#     4   9  18  33  50  79 108 146 188 225 276 332
#
# _framework density 28.557169999999999
#
# number of rings (size 3 to 8) (size 9 to 14) (size 15 to 20)
#    0.000    2.154    0.000    4.615    6.462    0.000 
#    0.000    0.000    0.000    3.692   72.000    0.000 
#    0.000    0.000    0.000    0.000    0.000    0.000 
#
# Total GULP energy -145416.303863 kJ/mol
# GULP energy per Si atom -5592.934764 kJ/mol
# Density = 2.849217 g / cm^3
# Si number density = 28.557170 Si / 1000 Ang^3
#
#
#
# Elastic Constant Matrix: (Units=GPa)
#
#
# Indices 1 2 3 4 5 6 
#
# 1 146.5302 20.9544 71.0755 0.0000 -11.0543 0.0001
# 2 20.9544 43.3940 15.2857 0.0000 5.7274 0.0001
# 3 71.0755 15.2857 240.1590 0.0000 -27.5967 0.0000
# 4 0.0000 0.0000 0.0000 48.7786 0.0000 4.2602
# 5 -11.0543 5.7274 -27.5967 0.0000 67.0873 0.0000
# 6 0.0001 0.0001 0.0000 4.2602 0.0000 29.9754
#
#
#
# Elastic Compliance Matrix: (Units=1/GPa)
#
#
# Indices 1 2 3 4 5 6 
#
# 1 0.008432 -0.003403 -0.002189 0.000000 0.000779 0.000000
# 2 -0.003403 0.025444 -0.000972 0.000000 -0.003133 0.000000
# 3 -0.002189 -0.000972 0.005082 0.000000 0.001813 0.000000
# 4 0.000000 0.000000 0.000000 0.020758 0.000000 -0.002950
# 5 0.000779 -0.003133 0.001813 0.000000 0.016048 0.000000
# 6 0.000000 0.000000 0.000000 -0.002950 0.000000 0.033780
#
#
# Mechanical properties :
#
#
# Convention : Reuss Voigt Hill
#
# Bulk Modulus (GPa) = 38.71727 71.63495 55.17611
# Shear Modulus (GPa) = 38.08558 50.68608 44.38583
#
# Velocity S-wave (km/s) = 3.65589 4.21753 3.94671
# Velocity P-wave (km/s) = 5.60428 6.98970 6.33498
#
# Compressibility (1/GPa) = 0.02582827
#
# Stress axis : x y z
#
# Youngs Moduli (GPa) = 118.59657 39.30185 196.77222
#
# Poissons Ratio (x) = 0.13376 0.43079
# Poissons Ratio (y) = 0.40363 0.19131
# Poissons Ratio (z) = 0.25964 0.03821
#
# Static dielectric constant tensor:
#      x y z
#    x 2.213160 0.000000 -0.034050 
#    y 0.000000 2.270600 0.000000 
#    z -0.034050 0.000000 2.255440 
# 
# From -- ./inp_files/225526.got.cif
#   From: 2010.05.17/outbox.cif.g08.bks.cpg/sg15_113_cif.got.tgz:225526.got - 2010.06.03 18:47:42.
