data_PCOD9257563
_publ_section_title
;
Structure prediction by ZEFSAII (Michael W. Deem and Ramdas Pophale) SiO2 
 PCOD9257563
Probable space group: C 2/C
;
_chemical_formula_sum "Si O2"
_cell_formula_units_Z 56
_cell_length_a 9.556510
_cell_length_b 20.902328
_cell_length_c 15.262873
_cell_angle_alpha 90.000000
_cell_angle_beta 98.012366
_cell_angle_gamma 90.000000
_cell_volume 3019.046898
_symmetry_space_group_name_H-M "C 2/C"
_symmetry_group_IT_number 15
_symmetry_cell_setting 'monoclinic'
loop_
_space_group_symop_operation_xyz
x,y,z
-x,y,1/2-z
-x,-y,-z
x,-y,1/2+z
1/2+x,1/2+y,z
1/2-x,1/2+y,1/2-z
1/2-x,1/2-y,-z
1/2+x,1/2-y,1/2+z
loop_
_atom_site_type_symbol
_atom_site_label
_atom_site_fract_x
_atom_site_fract_y
_atom_site_fract_z
Si Si1 0.500000 0.909225 0.750000
Si Si2 0.096979 0.551883 0.960347
Si Si3 0.618408 0.836051 0.592643
Si Si4 0.106802 0.370557 0.186886
Si Si5 0.886562 0.264590 0.453827
Si Si6 0.068463 0.819730 0.846541
Si Si7 0.259614 0.015217 0.693028
Si Si8 0.500000 0.444802 0.750000
O O1 0.544687 0.864222 0.673141
O O2 0.371767 0.958222 0.721334
O O3 0.221478 0.527292 0.908727
O O4 0.989645 0.585574 0.883798
O O5 0.150976 0.602965 0.034382
O O6 0.000000 0.500000 0.000000
O O7 0.505879 0.795343 0.527286
O O8 0.767652 0.801405 0.625189
O O9 0.158652 0.314597 0.127176
O O10 0.206191 0.420280 0.248256
O O11 0.000000 0.343217 0.250000
O O12 0.750000 0.250000 0.500000
O O13 0.965046 0.205117 0.413447
O O14 0.000000 0.795084 0.750000
O O15 0.066657 0.895947 0.827173
O O16 0.112464 0.988040 0.711402
#
# Coordination Sequence:
#
# PCOD9257563 Si02
#       8
#     4   8   8   8   8   8   8   4
#     4  12  18  36  67  89 122 166 216 248 308 398
#     4  10  18  31  60  94 118 155 203 258 300 374
#     4  11  23  38  64  92 124 162 217 260 316 369
#     4   9  19  37  62  84 117 166 201 248 310 374
#     4  11  25  41  63  93 123 162 220 269 306 370
#     4  10  23  43  65  84 126 170 207 252 321 376
#     4  11  19  38  62  92 128 160 209 254 318 386
#     4  10  24  36  63  93 130 166 200 256 324 382
#
# _framework density 18.548901999999998
#
# number of rings (size 3 to 8) (size 9 to 14) (size 15 to 20)
#    0.429    1.143    5.000    0.857    4.000    0.000 
#    2.571    0.714    0.000    0.000    0.000    0.000 
#    0.000    0.000    0.000    0.000    0.000    0.000 
#
# Total GULP energy -155998.931215 kJ/mol
# GULP energy per Si atom -5571.390401 kJ/mol
# Density = 1.850668 g / cm^3
# Si number density = 18.548902 Si / 1000 Ang^3
#
#
#
# Elastic Constant Matrix: (Units=GPa)
#
#
# Indices 1 2 3 4 5 6 
#
# 1 123.5164 38.9957 62.3269 0.0000 -24.8690 0.0000
# 2 38.9957 67.4801 48.1323 0.0000 -19.6645 0.0000
# 3 62.3269 48.1323 136.4623 0.0000 -29.7238 0.0000
# 4 0.0000 0.0000 0.0000 18.4288 0.0000 -17.9969
# 5 -24.8690 -19.6645 -29.7238 0.0000 42.1185 0.0000
# 6 0.0000 0.0000 0.0000 -17.9969 0.0000 26.4715
#
#
#
# Elastic Compliance Matrix: (Units=1/GPa)
#
#
# Indices 1 2 3 4 5 6 
#
# 1 0.011450 -0.003354 -0.003444 0.000000 0.002764 0.000000
# 2 -0.003354 0.021756 -0.005153 0.000000 0.004541 0.000000
# 3 -0.003444 -0.005153 0.011523 0.000000 0.003693 0.000000
# 4 0.000000 0.000000 0.000000 0.161462 0.000000 0.109771
# 5 0.002764 0.004541 0.003693 0.000000 0.030100 0.000000
# 6 0.000000 0.000000 0.000000 0.109771 0.000000 0.112406
#
#
# Mechanical properties :
#
#
# Convention : Reuss Voigt Hill
#
# Bulk Modulus (GPa) = 48.01713 69.59654 58.80684
# Shear Modulus (GPa) = 13.17383 29.27069 21.22226
#
# Velocity S-wave (km/s) = 2.66789 3.97675 3.38616
# Velocity P-wave (km/s) = 5.95258 7.66081 6.86007
#
# Compressibility (1/GPa) = 0.02082590
#
# Stress axis : x y z
#
# Youngs Moduli (GPa) = 87.33960 45.96406 86.78423
#
# Poissons Ratio (x) = 0.15418 0.29891
# Poissons Ratio (y) = 0.29298 0.44716
# Poissons Ratio (z) = 0.30082 0.23683
#
# Static dielectric constant tensor:
#      x y z
#    x 1.666500 0.000000 -0.027710 
#    y 0.000000 1.688030 0.000000 
#    z -0.027710 0.000000 1.720840 
# 
# From -- ./inp_files/136491.got.cif
#   From: 2010.05.17/outbox.cif.g08.bks.cpg/sg15_69_cif.got.tgz:136491.got - 2010.06.03 18:47:42.
