data_PCOD9257132
_publ_section_title
;
Structure prediction by ZEFSAII (Michael W. Deem and Ramdas Pophale) SiO2 
 PCOD9257132
Probable space group: C 2/C
;
_chemical_formula_sum "Si O2"
_cell_formula_units_Z 60
_cell_length_a 8.827422
_cell_length_b 24.360213
_cell_length_c 17.423345
_cell_angle_alpha 90.000000
_cell_angle_beta 55.367150
_cell_angle_gamma 90.000000
_cell_volume 3082.807584
_symmetry_space_group_name_H-M "C 2/C"
_symmetry_group_IT_number 15
_symmetry_cell_setting 'monoclinic'
loop_
_space_group_symop_operation_xyz
x,y,z
-x,y,1/2-z
-x,-y,-z
x,-y,1/2+z
1/2+x,1/2+y,z
1/2-x,1/2+y,1/2-z
1/2-x,1/2-y,-z
1/2+x,1/2-y,1/2+z
loop_
_atom_site_type_symbol
_atom_site_label
_atom_site_fract_x
_atom_site_fract_y
_atom_site_fract_z
Si Si1 0.269809 0.807901 0.114714
Si Si2 0.185540 0.282296 0.944224
Si Si3 0.614280 0.510290 0.644229
Si Si4 0.366347 0.299155 0.175803
Si Si5 0.582386 0.920226 0.397980
Si Si6 0.888100 0.079180 0.596527
Si Si7 0.827614 0.899291 0.937426
Si Si8 0.000000 0.566049 0.750000
O O1 0.240206 0.793080 0.212857
O O2 0.279635 0.873981 0.111056
O O3 0.084457 0.788324 0.126776
O O4 0.465836 0.791616 0.022103
O O5 0.208891 0.244017 0.863813
O O6 0.306093 0.338202 0.910232
O O7 0.250000 0.250000 0.000000
O O8 0.500000 0.531052 0.750000
O O9 0.821422 0.522774 0.611178
O O10 0.551624 0.544217 0.587172
O O11 0.579590 0.446301 0.639597
O O12 0.358238 0.361570 0.145952
O O13 0.385649 0.916394 0.492745
O O14 0.547641 0.907152 0.318356
O O15 0.906026 0.094254 0.501590
O O16 0.702171 0.043140 0.668018
#
# Coordination Sequence:
#
# PCOD9257132 Si02
#       8
#     8   8   8   8   8   8   8   4
#     4  10  21  36  61  92 112 152 199 254 299 346
#     4  11  23  40  58  86 122 161 198 245 296 356
#     4  12  21  38  61  87 118 157 196 239 299 364
#     4  11  20  37  63  88 119 149 203 251 303 348
#     4  10  19  35  60  86 118 142 195 248 300 337
#     4  11  20  35  61  89 116 148 199 253 297 343
#     4  10  24  39  55  87 125 156 191 240 305 357
#     4  10  18  30  54  90 114 138 184 252 288 340
#
# _framework density 19.462778
#
# number of rings (size 3 to 8) (size 9 to 14) (size 15 to 20)
#    0.000    1.333    5.333    1.200    0.000    0.533 
#    2.400    0.000    0.000    1.600    0.000    0.000 
#    0.000    0.000    0.000    0.000    0.000    0.000 
#
# Total GULP energy -167004.585534 kJ/mol
# GULP energy per Si atom -5566.819518 kJ/mol
# Density = 1.941848 g / cm^3
# Si number density = 19.462778 Si / 1000 Ang^3
#
#
#
# Elastic Constant Matrix: (Units=GPa)
#
#
# Indices 1 2 3 4 5 6 
#
# 1 74.4664 24.9996 6.7184 0.0000 18.0747 0.0000
# 2 24.9996 91.4771 12.4945 0.0000 20.9755 0.0000
# 3 6.7184 12.4945 38.7674 0.0000 13.9110 0.0000
# 4 0.0000 0.0000 0.0000 22.5007 0.0000 2.3076
# 5 18.0747 20.9755 13.9110 0.0000 22.9038 0.0000
# 6 0.0000 0.0000 0.0000 2.3076 0.0000 19.8449
#
#
#
# Elastic Compliance Matrix: (Units=1/GPa)
#
#
# Indices 1 2 3 4 5 6 
#
# 1 0.017058 -0.001986 0.002380 0.000000 -0.013088 0.000000
# 2 -0.001986 0.014069 -0.000165 0.000000 -0.011217 0.000000
# 3 0.002380 -0.000165 0.033316 0.000000 -0.021962 0.000000
# 4 0.000000 0.000000 0.000000 0.044979 0.000000 -0.005230
# 5 -0.013088 -0.011217 -0.021962 0.000000 0.077602 0.000000
# 6 0.000000 0.000000 0.000000 -0.005230 0.000000 0.050999
#
#
# Mechanical properties :
#
#
# Convention : Reuss Voigt Hill
#
# Bulk Modulus (GPa) = 15.40780 32.57066 23.98923
# Shear Modulus (GPa) = 19.29030 23.74979 21.52005
#
# Velocity S-wave (km/s) = 3.15165 3.49702 3.32882
# Velocity P-wave (km/s) = 4.60191 5.75124 5.20837
#
# Compressibility (1/GPa) = 0.06490218
#
# Stress axis : x y z
#
# Youngs Moduli (GPa) = 58.62491 71.07838 30.01528
#
# Poissons Ratio (x) = 0.14114 -0.07145
# Poissons Ratio (y) = 0.11641 0.00496
# Poissons Ratio (z) = -0.13955 0.01174
#
# Static dielectric constant tensor:
#      x y z
#    x 1.713970 0.000000 -0.019480 
#    y 0.000000 1.718900 0.000000 
#    z -0.019480 0.000000 1.691320 
# 
# From -- ./inp_files/192220.got.cif
#   From: 2010.05.17/outbox.cif.g08.bks.cpg/sg15_97_cif.got.tgz:192220.got - 2010.06.03 18:47:42.
