data_PCOD9257431
_publ_section_title
;
Structure prediction by ZEFSAII (Michael W. Deem and Ramdas Pophale) SiO2 
 PCOD9257431
Probable space group: C 2/C
;
_chemical_formula_sum "Si O2"
_cell_formula_units_Z 48
_cell_length_a 16.343856
_cell_length_b 24.197267
_cell_length_c 9.658496
_cell_angle_alpha 90.000000
_cell_angle_beta 36.044035
_cell_angle_gamma 90.000000
_cell_volume 2247.543316
_symmetry_space_group_name_H-M "C 2/C"
_symmetry_group_IT_number 15
_symmetry_cell_setting 'monoclinic'
loop_
_space_group_symop_operation_xyz
x,y,z
-x,y,1/2-z
-x,-y,-z
x,-y,1/2+z
1/2+x,1/2+y,z
1/2-x,1/2+y,1/2-z
1/2-x,1/2-y,-z
1/2+x,1/2-y,1/2+z
loop_
_atom_site_type_symbol
_atom_site_label
_atom_site_fract_x
_atom_site_fract_y
_atom_site_fract_z
Si Si1 0.687000 0.352070 0.056121
Si Si2 0.500000 0.130122 0.750000
Si Si3 0.875561 0.537317 0.603459
Si Si4 0.503427 0.158488 0.051346
Si Si5 0.029452 0.926662 0.064240
Si Si6 0.244591 0.459904 0.951355
Si Si7 0.500000 0.747784 0.750000
O O1 0.850151 0.348898 0.825139
O O2 0.634542 0.380189 0.983775
O O3 0.613192 0.392988 0.267911
O O4 0.615236 0.292464 0.158058
O O5 0.494651 0.164366 0.898284
O O6 0.636413 0.090556 0.570223
O O7 0.920694 0.600403 0.528423
O O8 0.828490 0.511258 0.524645
O O9 0.000000 0.500000 0.500000
O O10 0.756247 0.533046 0.883371
O O11 0.562080 0.212265 0.046956
O O12 0.000000 0.959063 0.250000
O O13 0.109156 0.952346 0.826993
#
# Coordination Sequence:
#
# PCOD9257431 Si02
#       7
#     8   4   8   8   8   8   4
#     4   8  17  36  57  75 107 145 179 217 270 336
#     4  10  18  31  54  72 110 150 163 216 272 330
#     4  11  21  30  54  78 111 145 174 230 267 313
#     4  11  20  34  55  83 109 135 184 223 275 315
#     4   7  15  31  57  72  97 148 187 204 258 331
#     4  11  18  34  50  81 107 142 187 213 267 320
#     4  10  22  31  58  88 102 132 183 242 266 294
#
# _framework density 21.356650999999999
#
# number of rings (size 3 to 8) (size 9 to 14) (size 15 to 20)
#    1.000    1.333    5.000    0.500    2.333    0.000 
#    0.000    1.667    0.000    0.000    0.000    0.000 
#    0.000    0.000    0.000    0.000    0.000    0.000 
#
# Total GULP energy -133874.185211 kJ/mol
# GULP energy per Si atom -5578.091050 kJ/mol
# Density = 2.130804 g / cm^3
# Si number density = 21.356651 Si / 1000 Ang^3
#
#
#
# Elastic Constant Matrix: (Units=GPa)
#
#
# Indices 1 2 3 4 5 6 
#
# 1 47.7803 26.6825 25.8097 0.0001 18.5852 -0.0001
# 2 26.6825 81.4188 40.7581 0.0000 5.6738 0.0000
# 3 25.8097 40.7581 158.2700 0.0001 8.8100 -0.0001
# 4 0.0001 0.0000 0.0001 26.2271 -0.0001 -0.8537
# 5 18.5852 5.6738 8.8100 -0.0001 36.7997 0.0001
# 6 -0.0001 0.0000 -0.0001 -0.8537 0.0001 9.3157
#
#
#
# Elastic Compliance Matrix: (Units=1/GPa)
#
#
# Indices 1 2 3 4 5 6 
#
# 1 0.032613 -0.008512 -0.002313 0.000000 -0.014605 0.000000
# 2 -0.008512 0.016385 -0.002970 0.000000 0.002484 0.000000
# 3 -0.002313 -0.002970 0.007469 0.000000 -0.000162 0.000000
# 4 0.000000 0.000000 0.000000 0.038243 0.000000 0.003505
# 5 -0.014605 0.002484 -0.000162 0.000000 0.034206 0.000000
# 6 0.000000 0.000000 0.000000 0.003505 0.000000 0.107667
#
#
# Mechanical properties :
#
#
# Convention : Reuss Voigt Hill
#
# Bulk Modulus (GPa) = 34.62920 52.66327 43.64624
# Shear Modulus (GPa) = 18.26155 27.41641 22.83898
#
# Velocity S-wave (km/s) = 2.92734 3.58682 3.27373
# Velocity P-wave (km/s) = 5.26077 6.47041 5.89669
#
# Compressibility (1/GPa) = 0.02887736
#
# Stress axis : x y z
#
# Youngs Moduli (GPa) = 30.66262 61.03022 133.88048
#
# Poissons Ratio (x) = 0.51950 0.30971
# Poissons Ratio (y) = 0.26100 0.39759
# Poissons Ratio (z) = 0.07093 0.18124
#
# Static dielectric constant tensor:
#      x y z
#    x 1.846670 0.000000 -0.030590 
#    y 0.000000 1.780690 0.000000 
#    z -0.030590 0.000000 1.813690 
# 
# From -- ./inp_files/114220.got.cif
#   From: 2010.05.17/outbox.cif.g08.bks.cpg/sg15_58_cif.got.tgz:114220.got - 2010.06.03 18:47:42.
