data_PCOD9257805
_publ_section_title
;
Structure prediction by ZEFSAII (Michael W. Deem and Ramdas Pophale) SiO2 
 PCOD9257805
Probable space group: C 2/C
;
_chemical_formula_sum "Si O2"
_cell_formula_units_Z 64
_cell_length_a 20.261804
_cell_length_b 23.951325
_cell_length_c 12.723073
_cell_angle_alpha 90.000000
_cell_angle_beta 37.934869
_cell_angle_gamma 90.000000
_cell_volume 3795.849834
_symmetry_space_group_name_H-M "C 2/C"
_symmetry_group_IT_number 15
_symmetry_cell_setting 'monoclinic'
loop_
_space_group_symop_operation_xyz
x,y,z
-x,y,1/2-z
-x,-y,-z
x,-y,1/2+z
1/2+x,1/2+y,z
1/2-x,1/2+y,1/2-z
1/2-x,1/2-y,-z
1/2+x,1/2-y,1/2+z
loop_
_atom_site_type_symbol
_atom_site_label
_atom_site_fract_x
_atom_site_fract_y
_atom_site_fract_z
Si Si1 0.245297 0.174132 0.618136
Si Si2 0.118687 0.891156 0.596798
Si Si3 0.374697 0.210896 0.262757
Si Si4 0.388434 0.776385 0.115324
Si Si5 0.691649 0.190922 0.577283
Si Si6 0.747951 0.833381 0.786002
Si Si7 0.374297 0.557653 0.187170
Si Si8 0.377266 0.431687 0.146267
O O1 0.337890 0.178636 0.413734
O O2 0.166527 0.224856 0.684187
O O3 0.297252 0.191128 0.664285
O O4 0.183996 0.115776 0.710272
O O5 0.217050 0.850847 0.496401
O O6 0.118225 0.933250 0.696165
O O7 0.132453 0.916954 0.464835
O O8 0.000000 0.862986 0.750000
O O9 0.314036 0.180684 0.242414
O O10 0.500447 0.215345 0.083677
O O11 0.396877 0.801447 0.222002
O O12 0.344893 0.712465 0.174385
O O13 0.750000 0.250000 0.500000
O O14 0.669628 0.175069 0.484843
O O15 0.798904 0.894582 0.733103
O O16 0.337456 0.494678 0.213224
O O17 0.494814 0.566811 0.991335
#
# Coordination Sequence:
#
# PCOD9257805 Si02
#       8
#     8   8   8   8   8   8   8   8
#     4  10  20  34  51  76 103 137 181 212 261 314
#     4   9  17  31  50  73 104 134 164 211 262 312
#     4  10  21  33  51  75 105 141 171 218 266 309
#     4  10  18  33  53  75 103 135 175 215 261 321
#     4   9  17  31  47  76 100 129 167 208 260 312
#     4   9  19  34  48  75 110 131 166 216 271 312
#     4   9  19  32  51  79 106 134 172 214 265 317
#     4  10  18  32  54  77 102 139 176 212 261 319
#
# _framework density 16.860520000000001
#
# number of rings (size 3 to 8) (size 9 to 14) (size 15 to 20)
#    0.000    2.500    1.250    1.125    0.000    2.500 
#    0.000    3.125    0.000    0.750    6.500    0.000 
#    0.000    0.000    0.000    0.000    0.000    0.000 
#
# Total GULP energy -178210.036966 kJ/mol
# GULP energy per Si atom -5569.063655 kJ/mol
# Density = 1.682215 g / cm^3
# Si number density = 16.860520 Si / 1000 Ang^3
#
#
#
# Elastic Constant Matrix: (Units=GPa)
#
#
# Indices 1 2 3 4 5 6 
#
# 1 25.2591 19.5507 6.5968 0.0000 9.6384 0.0000
# 2 19.5507 113.8354 40.9729 0.0000 2.6315 0.0000
# 3 6.5968 40.9729 97.0088 0.0000 8.5884 0.0000
# 4 0.0000 0.0000 0.0000 18.3833 0.0000 -0.4854
# 5 9.6384 2.6315 8.5884 0.0000 23.6376 0.0000
# 6 0.0000 0.0000 0.0000 -0.4854 0.0000 11.2184
#
#
#
# Elastic Compliance Matrix: (Units=1/GPa)
#
#
# Indices 1 2 3 4 5 6 
#
# 1 0.055019 -0.009784 0.002357 0.000000 -0.022201 0.000000
# 2 -0.009784 0.012104 -0.004836 0.000000 0.004399 0.000000
# 3 0.002357 -0.004836 0.012635 0.000000 -0.005013 0.000000
# 4 0.000000 0.000000 0.000000 0.054459 0.000000 0.002356
# 5 -0.022201 0.004399 -0.005013 0.000000 0.052690 0.000000
# 6 0.000000 0.000000 0.000000 0.002356 0.000000 0.089241
#
#
# Mechanical properties :
#
#
# Convention : Reuss Voigt Hill
#
# Bulk Modulus (GPa) = 18.10632 41.14934 29.62783
# Shear Modulus (GPa) = 15.66979 21.91341 18.79160
#
# Velocity S-wave (km/s) = 3.05188 3.60903 3.34208
# Velocity P-wave (km/s) = 4.81464 6.46726 5.70115
#
# Compressibility (1/GPa) = 0.05522935
#
# Stress axis : x y z
#
# Youngs Moduli (GPa) = 18.17564 82.61674 79.14743
#
# Poissons Ratio (x) = 0.80834 -0.18652
# Poissons Ratio (y) = 0.17783 0.38279
# Poissons Ratio (z) = -0.04283 0.39957
#
# Static dielectric constant tensor:
#      x y z
#    x 1.568100 0.000000 0.020690 
#    y 0.000000 1.545060 0.000000 
#    z 0.020690 0.000000 1.600860 
# 
# From -- ./inp_files/114589.got.cif
#   From: 2010.05.17/outbox.cif.g08.bks.cpg/sg15_58_cif.got.tgz:114589.got - 2010.06.03 18:47:42.
