data_PCOD9257683
_publ_section_title
;
Structure prediction by ZEFSAII (Michael W. Deem and Ramdas Pophale) SiO2 
 PCOD9257683
Probable space group: C 2/C
;
_chemical_formula_sum "Si O2"
_cell_formula_units_Z 60
_cell_length_a 27.443458
_cell_length_b 15.453489
_cell_length_c 9.543859
_cell_angle_alpha 90.000000
_cell_angle_beta 37.867427
_cell_angle_gamma 90.000000
_cell_volume 2484.517760
_symmetry_space_group_name_H-M "C 2/C"
_symmetry_group_IT_number 15
_symmetry_cell_setting 'monoclinic'
loop_
_space_group_symop_operation_xyz
x,y,z
-x,y,1/2-z
-x,-y,-z
x,-y,1/2+z
1/2+x,1/2+y,z
1/2-x,1/2+y,1/2-z
1/2-x,1/2-y,-z
1/2+x,1/2-y,1/2+z
loop_
_atom_site_type_symbol
_atom_site_label
_atom_site_fract_x
_atom_site_fract_y
_atom_site_fract_z
Si Si1 0.212415 0.809368 0.881400
Si Si2 0.000000 0.726501 0.250000
Si Si3 0.132019 0.474382 0.621859
Si Si4 0.139256 0.604733 0.821559
Si Si5 0.417883 0.790825 0.677814
Si Si6 0.190800 0.056353 0.665445
Si Si7 0.175498 0.862533 0.657042
Si Si8 0.624419 0.286874 0.496884
O O1 0.201702 0.897061 0.991837
O O2 0.177308 0.821124 0.806520
O O3 0.302451 0.780309 0.665280
O O4 0.170602 0.736137 0.071250
O O5 0.925351 0.670600 0.474239
O O6 0.967933 0.764574 0.178020
O O7 0.111828 0.565655 0.736507
O O8 0.133682 0.470877 0.450988
O O9 0.079913 0.393829 0.799176
O O10 0.222335 0.459591 0.467072
O O11 0.230898 0.636535 0.606557
O O12 0.432024 0.759392 0.489174
O O13 0.146418 0.122925 0.868342
O O14 0.152676 0.962773 0.728404
O O15 0.120894 0.814476 0.667475
#
# Coordination Sequence:
#
# PCOD9257683 Si02
#       8
#     8   4   8   8   8   8   8   8
#     4  11  20  33  56  83 112 148 181 233 289 347
#     4  10  22  42  52  80 104 156 208 234 258 322
#     4  10  18  34  50  78 105 151 184 222 273 318
#     4  10  22  33  56  75 115 152 190 229 268 324
#     4  10  20  35  58  71 109 149 190 231 269 334
#     4  10  18  32  51  80 115 149 176 218 288 351
#     4  11  22  32  54  88 119 141 179 239 291 339
#     4  11  18  33  52  83 107 149 187 225 291 340
#
# _framework density 24.149554999999999
#
# number of rings (size 3 to 8) (size 9 to 14) (size 15 to 20)
#    0.000    1.600    4.000    2.800    5.600    2.133 
#    0.000    0.000    0.000    6.400    0.000   14.933 
#    0.000    0.000    0.000    0.000    0.000    0.000 
#
# Total GULP energy -167604.047348 kJ/mol
# GULP energy per Si atom -5586.801578 kJ/mol
# Density = 2.409459 g / cm^3
# Si number density = 24.149555 Si / 1000 Ang^3
#
#
#
# Elastic Constant Matrix: (Units=GPa)
#
#
# Indices 1 2 3 4 5 6 
#
# 1 99.7940 -9.4050 13.8977 0.0000 41.9029 0.0000
# 2 -9.4050 65.1771 23.0520 0.0000 9.0984 0.0000
# 3 13.8977 23.0520 102.5137 0.0000 21.3461 0.0000
# 4 0.0000 0.0000 0.0000 2.8630 0.0000 23.9598
# 5 41.9029 9.0984 21.3461 0.0000 38.5577 0.0000
# 6 0.0000 0.0000 0.0000 23.9598 0.0000 27.7468
#
#
#
# Elastic Compliance Matrix: (Units=1/GPa)
#
#
# Indices 1 2 3 4 5 6 
#
# 1 0.020754 0.006090 0.000919 0.000000 -0.024500 0.000000
# 2 0.006090 0.018607 -0.003071 0.000000 -0.009309 0.000000
# 3 0.000919 -0.003071 0.011730 0.000000 -0.006767 0.000000
# 4 0.000000 0.000000 0.000000 -0.056096 0.000000 0.048439
# 5 -0.024500 -0.009309 -0.006767 0.000000 0.058504 0.000000
# 6 0.000000 0.000000 0.000000 0.048439 0.000000 -0.005788
#
#
# Mechanical properties :
#
#
# Convention : Reuss Voigt Hill
#
# Bulk Modulus (GPa) = 16.95895 35.84159 26.40027
# Shear Modulus (GPa) = 84.04305 29.82950 56.93628
#
# Velocity S-wave (km/s) = 5.90564 3.51835 4.86083
# Velocity P-wave (km/s) = 7.31710 5.60168 6.51608
#
# Compressibility (1/GPa) = 0.05896593
#
# Stress axis : x y z
#
# Youngs Moduli (GPa) = 48.18290 53.74208 85.25083
#
# Poissons Ratio (x) = -0.32729 -0.07831
# Poissons Ratio (y) = -0.29344 0.26185
# Poissons Ratio (z) = -0.04426 0.16507
#
# Static dielectric constant tensor:
#      x y z
#    x 2.012040 0.000000 -0.021120 
#    y 0.000000 1.979830 0.000000 
#    z -0.021120 0.000000 1.933550 
# 
# From -- ./inp_files/67025.got.cif
#   From: 2010.05.17/outbox.cif.g08.bks.cpg/sg15_34_cif.got.tgz:67025.got - 2010.06.03 18:47:42.
