data_PCOD9257581
_publ_section_title
;
Structure prediction by ZEFSAII (Michael W. Deem and Ramdas Pophale) SiO2 
 PCOD9257581
Probable space group: C 2/C
;
_chemical_formula_sum "Si O2"
_cell_formula_units_Z 60
_cell_length_a 10.857324
_cell_length_b 26.419884
_cell_length_c 9.765893
_cell_angle_alpha 90.000000
_cell_angle_beta 101.071625
_cell_angle_gamma 90.000000
_cell_volume 2749.200155
_symmetry_space_group_name_H-M "C 2/C"
_symmetry_group_IT_number 15
_symmetry_cell_setting 'monoclinic'
loop_
_space_group_symop_operation_xyz
x,y,z
-x,y,1/2-z
-x,-y,-z
x,-y,1/2+z
1/2+x,1/2+y,z
1/2-x,1/2+y,1/2-z
1/2-x,1/2-y,-z
1/2+x,1/2-y,1/2+z
loop_
_atom_site_type_symbol
_atom_site_label
_atom_site_fract_x
_atom_site_fract_y
_atom_site_fract_z
Si Si1 0.248829 0.321209 0.992937
Si Si2 0.803498 0.190969 0.921598
Si Si3 0.152199 0.782115 0.781683
Si Si4 0.500000 0.572207 0.250000
Si Si5 0.759048 0.933904 0.054021
Si Si6 0.790244 0.998118 0.309981
Si Si7 0.545660 0.407374 0.059498
Si Si8 0.543697 0.252452 0.401829
O O1 0.199061 0.276229 0.319468
O O2 0.205936 0.193258 0.152208
O O3 0.210676 0.377936 0.014565
O O4 0.367975 0.301375 0.105246
O O5 0.781189 0.186677 0.079650
O O6 0.862210 0.138536 0.877599
O O7 0.922024 0.228750 0.949389
O O8 0.130444 0.713781 0.498154
O O9 0.000000 0.785077 0.750000
O O10 0.379885 0.536316 0.245409
O O11 0.512711 0.602795 0.393042
O O12 0.720056 0.963962 0.182152
O O13 0.910628 0.921446 0.097140
O O14 0.728856 0.968191 0.915234
O O15 0.877207 0.958751 0.410381
O O16 0.500000 0.229643 0.250000
#
# Coordination Sequence:
#
# PCOD9257581 Si02
#       8
#     8   8   8   4   8   8   8   8
#     4  11  24  36  63  84 121 167 204 244 307 368
#     4  11  24  36  61  85 122 160 200 250 304 368
#     4  11  22  41  56  85 120 160 202 247 301 367
#     4  10  18  32  46  76 112 156 186 240 292 364
#     4  11  21  34  54  82 116 164 196 254 312 365
#     4  11  20  34  50  78 118 151 198 245 304 368
#     4  11  20  31  53  79 114 157 196 235 308 364
#     4  11  22  39  55  89 123 155 203 253 291 367
#
# _framework density 21.824531
#
# number of rings (size 3 to 8) (size 9 to 14) (size 15 to 20)
#    0.000    1.067    6.667    0.800    6.533    0.000 
#    0.000    0.000    0.000    0.000    0.000    1.867 
#    0.000    0.133    0.000    0.000    0.000    0.000 
#
# Total GULP energy -167390.239589 kJ/mol
# GULP energy per Si atom -5579.674653 kJ/mol
# Density = 2.177486 g / cm^3
# Si number density = 21.824531 Si / 1000 Ang^3
#
#
#
# Elastic Constant Matrix: (Units=GPa)
#
#
# Indices 1 2 3 4 5 6 
#
# 1 37.2180 15.7440 6.4037 0.0000 5.1871 0.0000
# 2 15.7440 129.7491 26.5503 0.0000 3.8369 0.0000
# 3 6.4037 26.5503 99.4041 0.0000 12.4243 0.0000
# 4 0.0000 0.0000 0.0000 26.4973 0.0000 6.1162
# 5 5.1871 3.8369 12.4243 0.0000 14.8717 0.0000
# 6 0.0000 0.0000 0.0000 6.1162 0.0000 25.2338
#
#
#
# Elastic Compliance Matrix: (Units=1/GPa)
#
#
# Indices 1 2 3 4 5 6 
#
# 1 0.029591 -0.003345 0.000189 0.000000 -0.009616 0.000000
# 2 -0.003345 0.008532 -0.002160 0.000000 0.000770 0.000000
# 3 0.000189 -0.002160 0.011795 0.000000 -0.009363 0.000000
# 4 0.000000 0.000000 0.000000 0.039976 0.000000 -0.009689
# 5 -0.009616 0.000770 -0.009363 0.000000 0.078219 0.000000
# 6 0.000000 0.000000 0.000000 -0.009689 0.000000 0.041978
#
#
# Mechanical properties :
#
#
# Convention : Reuss Voigt Hill
#
# Bulk Modulus (GPa) = 25.45354 40.41858 32.93606
# Shear Modulus (GPa) = 21.38409 27.83210 24.60809
#
# Velocity S-wave (km/s) = 3.13360 3.57496 3.36153
# Velocity P-wave (km/s) = 4.97803 5.96661 5.49460
#
# Compressibility (1/GPa) = 0.03928727
#
# Stress axis : x y z
#
# Youngs Moduli (GPa) = 33.79358 117.20263 84.78310
#
# Poissons Ratio (x) = 0.39204 -0.01603
# Poissons Ratio (y) = 0.11304 0.18310
# Poissons Ratio (z) = -0.00639 0.25311
#
# Static dielectric constant tensor:
#      x y z
#    x 1.806810 0.000000 -0.027250 
#    y 0.000000 1.830100 0.000000 
#    z -0.027250 0.000000 1.959680 
# 
# From -- ./inp_files/42233.got.cif
#   From: 2010.05.17/outbox.cif.g08.bks.cpg/sg15_22_cif.got.tgz:42233.got - 2010.06.03 18:47:42.
