data_PCOD9257286
_publ_section_title
;
Structure prediction by ZEFSAII (Michael W. Deem and Ramdas Pophale) SiO2 
 PCOD9257286
Probable space group: C 2/C
;
_chemical_formula_sum "Si O2"
_cell_formula_units_Z 56
_cell_length_a 11.748828
_cell_length_b 28.388179
_cell_length_c 12.280039
_cell_angle_alpha 90.000000
_cell_angle_beta 143.155802
_cell_angle_gamma 90.000000
_cell_volume 2455.970934
_symmetry_space_group_name_H-M "C 2/C"
_symmetry_group_IT_number 15
_symmetry_cell_setting 'monoclinic'
loop_
_space_group_symop_operation_xyz
x,y,z
-x,y,1/2-z
-x,-y,-z
x,-y,1/2+z
1/2+x,1/2+y,z
1/2-x,1/2+y,1/2-z
1/2-x,1/2-y,-z
1/2+x,1/2-y,1/2+z
loop_
_atom_site_type_symbol
_atom_site_label
_atom_site_fract_x
_atom_site_fract_y
_atom_site_fract_z
Si Si1 0.186103 0.473790 0.691171
Si Si2 0.273552 0.587648 0.462203
Si Si3 0.128382 0.228097 0.656398
Si Si4 0.474066 0.794215 0.109631
Si Si5 0.394742 0.116732 0.460614
Si Si6 0.723950 0.819707 0.839088
Si Si7 0.302269 0.429705 0.233426
O O1 0.172415 0.445972 0.795765
O O2 0.227543 0.430931 0.639696
O O3 0.320375 0.518617 0.799801
O O4 0.000000 0.500000 0.500000
O O5 0.197066 0.641450 0.412950
O O6 0.492775 0.593422 0.592444
O O7 0.275891 0.565332 0.582866
O O8 0.326570 0.200669 0.803912
O O9 0.124288 0.269023 0.745313
O O10 0.133399 0.257394 0.547755
O O11 0.942879 0.196554 0.513372
O O12 0.500000 0.776237 0.250000
O O13 0.376066 0.845313 0.041222
O O14 0.333374 0.148537 0.309441
O O15 0.612427 0.097675 0.624818
#
# Coordination Sequence:
#
# PCOD9257286 Si02
#       7
#     8   8   8   8   8   8   8
#     4   9  19  35  53  79 109 143 183 229 277 328
#     4  10  20  35  60  84 109 149 188 230 285 340
#     4   9  18  32  53  77 107 143 180 233 279 330
#     4  10  18  31  50  76 105 142 185 223 280 332
#     4   9  19  34  51  76 110 141 182 230 274 333
#     4   9  18  33  56  79 108 143 183 227 284 337
#     4  10  20  36  58  81 108 147 189 233 282 339
#
# _framework density 22.801573000000001
#
# number of rings (size 3 to 8) (size 9 to 14) (size 15 to 20)
#    0.000    2.571    0.000    1.714    0.000    5.143 
#    5.143    0.000    6.286   29.143    0.000    0.000 
#    0.000    0.000    0.000    0.000    0.000    0.000 
#
# Total GULP energy -155909.803010 kJ/mol
# GULP energy per Si atom -5568.207250 kJ/mol
# Density = 2.274968 g / cm^3
# Si number density = 22.801573 Si / 1000 Ang^3
#
#
#
# Elastic Constant Matrix: (Units=GPa)
#
#
# Indices 1 2 3 4 5 6 
#
# 1 32.3315 19.7824 7.2073 0.0000 0.3871 0.0000
# 2 19.7824 162.1332 25.1000 0.0000 2.3970 0.0000
# 3 7.2073 25.1000 86.6350 0.0000 14.3126 0.0000
# 4 0.0000 0.0000 0.0000 16.6220 0.0000 5.3640
# 5 0.3871 2.3970 14.3126 0.0000 36.8549 0.0000
# 6 0.0000 0.0000 0.0000 5.3640 0.0000 -13.4677
#
#
#
# Elastic Compliance Matrix: (Units=1/GPa)
#
#
# Indices 1 2 3 4 5 6 
#
# 1 0.033670 -0.003840 -0.001786 0.000000 0.000590 0.000000
# 2 -0.003840 0.006899 -0.001722 0.000000 0.000261 0.000000
# 3 -0.001786 -0.001722 0.013003 0.000000 -0.004919 0.000000
# 4 0.000000 0.000000 0.000000 0.053310 0.000000 0.021233
# 5 0.000590 0.000261 -0.004919 0.000000 0.029021 0.000000
# 6 0.000000 0.000000 0.000000 0.021233 0.000000 -0.065795
#
#
# Mechanical properties :
#
#
# Convention : Reuss Voigt Hill
#
# Bulk Modulus (GPa) = 25.72339 42.80878 34.26609
# Shear Modulus (GPa) = 51.14387 23.26916 37.20651
#
# Velocity S-wave (km/s) = 4.74117 3.19800 4.04388
# Velocity P-wave (km/s) = 6.42475 5.69663 6.07161
#
# Compressibility (1/GPa) = 0.03887513
#
# Stress axis : x y z
#
# Youngs Moduli (GPa) = 29.69960 144.94548 76.90603
#
# Poissons Ratio (x) = 0.55666 0.13734
# Poissons Ratio (y) = 0.11406 0.13246
# Poissons Ratio (z) = 0.05304 0.24965
#
# Static dielectric constant tensor:
#      x y z
#    x 1.851500 0.000000 0.032480 
#    y 0.000000 1.888600 0.000000 
#    z 0.032480 0.000000 1.920290 
# 
# From -- ./inp_files/52000.got.cif
#   From: 2010.05.17/outbox.cif.g08.bks.cpg/sg15_26_cif.got.tgz:52000.got - 2010.06.03 18:47:42.
