data_PCOD9257284
_publ_section_title
;
Structure prediction by ZEFSAII (Michael W. Deem and Ramdas Pophale) SiO2 
 PCOD9257284
Probable space group: C 2/C
;
_chemical_formula_sum "Si O2"
_cell_formula_units_Z 48
_cell_length_a 9.809498
_cell_length_b 17.677065
_cell_length_c 10.765291
_cell_angle_alpha 90.000000
_cell_angle_beta 95.783348
_cell_angle_gamma 90.000000
_cell_volume 1857.233582
_symmetry_space_group_name_H-M "C 2/C"
_symmetry_group_IT_number 15
_symmetry_cell_setting 'monoclinic'
loop_
_space_group_symop_operation_xyz
x,y,z
-x,y,1/2-z
-x,-y,-z
x,-y,1/2+z
1/2+x,1/2+y,z
1/2-x,1/2+y,1/2-z
1/2-x,1/2-y,-z
1/2+x,1/2-y,1/2+z
loop_
_atom_site_type_symbol
_atom_site_label
_atom_site_fract_x
_atom_site_fract_y
_atom_site_fract_z
Si Si1 0.437457 0.163004 0.548322
Si Si2 0.704454 0.288583 0.826037
Si Si3 0.793699 0.537940 0.654944
Si Si4 0.450317 0.585277 0.054018
Si Si5 0.131863 0.638002 0.355453
Si Si6 0.892995 0.921994 0.148399
O O1 0.377829 0.212411 0.656456
O O2 0.331385 0.195165 0.432510
O O3 0.421679 0.078633 0.602320
O O4 0.579047 0.162569 0.486135
O O5 0.599355 0.353172 0.855871
O O6 0.765026 0.302433 0.696738
O O7 0.673833 0.570937 0.554746
O O8 0.810503 0.447992 0.647424
O O9 0.745412 0.562906 0.788756
O O10 0.455858 0.505608 0.124417
O O11 0.581682 0.611695 0.985739
O O12 0.000000 0.634847 0.250000
O O13 0.000000 0.880969 0.250000
#
# Coordination Sequence:
#
# PCOD9257284 Si02
#       6
#     8   8   8   8   8   8
#     4   9  19  30  47  75 102 132 172 212 255 305
#     4   9  17  32  49  70 104 134 166 216 260 303
#     4  10  18  31  50  76 104 133 172 211 255 309
#     4   9  17  30  50  77 100 128 172 211 258 299
#     4  10  19  32  51  75 104 141 173 209 263 305
#     4   9  17  29  49  77  98 125 165 214 259 293
#
# _framework density 25.844894
#
# number of rings (size 3 to 8) (size 9 to 14) (size 15 to 20)
#    0.000    2.667    1.667    0.500    0.000    1.333 
#    0.000    6.667    0.000    1.000    0.000    4.667 
#    0.000    0.000    0.000    0.000    0.000    0.000 
#
# Total GULP energy -133902.080856 kJ/mol
# GULP energy per Si atom -5579.253369 kJ/mol
# Density = 2.578607 g / cm^3
# Si number density = 25.844894 Si / 1000 Ang^3
#
#
#
# Elastic Constant Matrix: (Units=GPa)
#
#
# Indices 1 2 3 4 5 6 
#
# 1 73.7466 18.7259 81.3901 0.0000 -27.7085 0.0000
# 2 18.7259 41.4636 19.7194 0.0000 -26.6977 0.0000
# 3 81.3901 19.7194 157.9832 0.0000 -66.3563 0.0000
# 4 0.0000 0.0000 0.0000 31.2339 0.0000 0.2842
# 5 -27.7085 -26.6977 -66.3563 0.0000 74.9511 0.0000
# 6 0.0000 0.0000 0.0000 0.2842 0.0000 -1.5374
#
#
#
# Elastic Compliance Matrix: (Units=1/GPa)
#
#
# Indices 1 2 3 4 5 6 
#
# 1 0.036969 -0.012905 -0.021691 0.000000 -0.010134 0.000000
# 2 -0.012905 0.035952 0.008813 0.000000 0.015838 0.000000
# 3 -0.021691 0.008813 0.022853 0.000000 0.015353 0.000000
# 4 0.000000 0.000000 0.000000 0.031963 0.000000 0.005909
# 5 -0.010134 0.015838 0.015353 0.000000 0.028829 0.000000
# 6 0.000000 0.000000 0.000000 0.005909 0.000000 -0.649340
#
#
# Mechanical properties :
#
#
# Convention : Reuss Voigt Hill
#
# Bulk Modulus (GPa) = 22.62039 56.98491 39.80265
# Shear Modulus (GPa) = -11.72409 31.15338 9.71464
#
# Velocity S-wave (km/s) = -2.13218 3.47565 1.94087
# Velocity P-wave (km/s) = 1.64615 6.18090 4.52290
#
# Compressibility (1/GPa) = 0.04420790
#
# Stress axis : x y z
#
# Youngs Moduli (GPa) = 27.05003 27.81491 43.75776
#
# Poissons Ratio (x) = 0.35894 0.94915
# Poissons Ratio (y) = 0.34907 -0.38564
# Poissons Ratio (z) = 0.58674 -0.24513
#
# Static dielectric constant tensor:
#      x y z
#    x 2.220000 0.000000 0.076010 
#    y 0.000000 2.097950 0.000000 
#    z 0.076010 0.000000 2.105990 
# 
# From -- ./inp_files/88367.got.cif
#   From: 2010.05.17/outbox.cif.g08.bks.cpg/sg15_45_cif.got.tgz:88367.got - 2010.06.03 18:47:42.
