data_PCOD9257904
_publ_section_title
;
Structure prediction by ZEFSAII (Michael W. Deem and Ramdas Pophale) SiO2 
 PCOD9257904
Probable space group: C 2/C
;
_chemical_formula_sum "Si O2"
_cell_formula_units_Z 48
_cell_length_a 23.703944
_cell_length_b 15.992843
_cell_length_c 9.267728
_cell_angle_alpha 90.000000
_cell_angle_beta 47.779750
_cell_angle_gamma 90.000000
_cell_volume 2601.860488
_symmetry_space_group_name_H-M "C 2/C"
_symmetry_group_IT_number 15
_symmetry_cell_setting 'monoclinic'
loop_
_space_group_symop_operation_xyz
x,y,z
-x,y,1/2-z
-x,-y,-z
x,-y,1/2+z
1/2+x,1/2+y,z
1/2-x,1/2+y,1/2-z
1/2-x,1/2-y,-z
1/2+x,1/2-y,1/2+z
loop_
_atom_site_type_symbol
_atom_site_label
_atom_site_fract_x
_atom_site_fract_y
_atom_site_fract_z
Si Si1 0.327178 0.944029 0.397695
Si Si2 0.457859 0.931219 0.670763
Si Si3 0.962106 0.310322 0.158016
Si Si4 0.223644 0.992664 0.824802
Si Si5 0.379921 0.546914 0.746996
Si Si6 0.027091 0.879980 0.869445
O O1 0.388317 0.870002 0.278308
O O2 0.277305 0.938015 0.628252
O O3 0.373491 0.032075 0.330597
O O4 0.274321 0.953247 0.348381
O O5 0.500000 0.930525 0.750000
O O6 0.474731 0.844632 0.562390
O O7 0.500000 0.000000 0.500000
O O8 0.943318 0.213780 0.164211
O O9 0.000000 0.318642 0.250000
O O10 0.174552 0.048729 0.798740
O O11 0.167397 0.940542 0.025484
O O12 0.412576 0.452073 0.699502
O O13 0.452963 0.604473 0.596019
O O14 0.000000 0.891409 0.750000
#
# Coordination Sequence:
#
# PCOD9257904 Si02
#       6
#     8   8   8   8   8   8
#     4  10  18  33  57  83 112 152 179 220 280 347
#     4  10  18  32  55  84 114 148 195 232 267 329
#     4  10  20  35  58  85 115 148 187 238 283 323
#     4  10  20  33  58  81 115 144 186 222 275 356
#     4  10  20  38  59  84 102 151 195 236 279 324
#     4  10  20  37  63  80 111 139 199 248 275 321
#
# _framework density 18.448336999999999
#
# number of rings (size 3 to 8) (size 9 to 14) (size 15 to 20)
#    0.000    2.000    1.667    5.000    0.000    0.000 
#    3.000    3.333    7.333    4.000    0.000    0.000 
#    0.000    0.000    0.000    0.000    0.000    0.000 
#
# Total GULP energy -133864.262101 kJ/mol
# GULP energy per Si atom -5577.677588 kJ/mol
# Density = 1.840635 g / cm^3
# Si number density = 18.448337 Si / 1000 Ang^3
#
#
#
# Elastic Constant Matrix: (Units=GPa)
#
#
# Indices 1 2 3 4 5 6 
#
# 1 84.4955 34.0332 36.4792 0.0000 6.9543 0.0000
# 2 34.0332 83.3430 29.0603 0.0000 -2.6800 0.0000
# 3 36.4792 29.0603 136.1538 0.0000 0.9078 0.0000
# 4 0.0000 0.0000 0.0000 6.5090 0.0000 3.1506
# 5 6.9543 -2.6800 0.9078 0.0000 35.1521 0.0000
# 6 0.0000 0.0000 0.0000 3.1506 0.0000 12.0971
#
#
#
# Elastic Compliance Matrix: (Units=1/GPa)
#
#
# Indices 1 2 3 4 5 6 
#
# 1 0.015600 -0.005435 -0.002997 0.000000 -0.003423 0.000000
# 2 -0.005435 0.014897 -0.001738 0.000000 0.002256 0.000000
# 3 -0.002997 -0.001738 0.008517 0.000000 0.000240 0.000000
# 4 0.000000 0.000000 0.000000 0.175793 0.000000 -0.045783
# 5 -0.003423 0.002256 0.000240 0.000000 0.029291 0.000000
# 6 0.000000 0.000000 0.000000 -0.045783 0.000000 0.094588
#
#
# Mechanical properties :
#
#
# Convention : Reuss Voigt Hill
#
# Bulk Modulus (GPa) = 53.55371 55.90418 54.72894
# Shear Modulus (GPa) = 13.68924 24.37964 19.03444
#
# Velocity S-wave (km/s) = 2.72698 3.63920 3.21560
# Velocity P-wave (km/s) = 6.24558 6.93017 6.59676
#
# Compressibility (1/GPa) = 0.01867284
#
# Stress axis : x y z
#
# Youngs Moduli (GPa) = 64.10391 67.12853 117.41328
#
# Poissons Ratio (x) = 0.36487 0.35184
# Poissons Ratio (y) = 0.34843 0.20410
# Poissons Ratio (z) = 0.19210 0.11669
#
# Static dielectric constant tensor:
#      x y z
#    x 1.636620 0.000000 -0.022890 
#    y 0.000000 1.619750 0.000000 
#    z -0.022890 0.000000 1.680170 
# 
# From -- ./inp_files/48026.got.cif
#   From: 2010.05.17/outbox.cif.g08.bks.cpg/sg15_25_cif.got.tgz:48026.got - 2010.06.03 18:47:42.
