data_PCOD9257143
_publ_section_title
;
Structure prediction by ZEFSAII (Michael W. Deem and Ramdas Pophale) SiO2 
 PCOD9257143
Probable space group: C 2/C
;
_chemical_formula_sum "Si O2"
_cell_formula_units_Z 64
_cell_length_a 16.669802
_cell_length_b 9.595172
_cell_length_c 20.823455
_cell_angle_alpha 90.000000
_cell_angle_beta 85.070246
_cell_angle_gamma 90.000000
_cell_volume 3318.382736
_symmetry_space_group_name_H-M "C 2/C"
_symmetry_group_IT_number 15
_symmetry_cell_setting 'monoclinic'
loop_
_space_group_symop_operation_xyz
x,y,z
-x,y,1/2-z
-x,-y,-z
x,-y,1/2+z
1/2+x,1/2+y,z
1/2-x,1/2+y,1/2-z
1/2-x,1/2-y,-z
1/2+x,1/2-y,1/2+z
loop_
_atom_site_type_symbol
_atom_site_label
_atom_site_fract_x
_atom_site_fract_y
_atom_site_fract_z
Si Si1 0.902741 0.838807 0.826075
Si Si2 0.160381 0.720345 0.431496
Si Si3 0.921677 0.542624 0.593706
Si Si4 0.166426 0.364180 0.073264
Si Si5 0.406847 0.502751 0.574760
Si Si6 0.908286 0.196296 0.182947
Si Si7 0.916437 0.370284 0.947780
Si Si8 0.906925 0.045365 0.933267
O O1 0.885298 0.697334 0.865667
O O2 0.870707 0.824827 0.755847
O O3 0.999026 0.852534 0.815943
O O4 0.871200 0.962502 0.874964
O O5 0.150028 0.570722 0.400310
O O6 0.133999 0.692499 0.507061
O O7 0.246867 0.793275 0.425249
O O8 0.103791 0.836952 0.405296
O O9 0.913461 0.649017 0.652906
O O10 0.919679 0.625832 0.525715
O O11 0.003661 0.450677 0.583317
O O12 0.157212 0.529873 0.068680
O O13 0.371046 0.401129 0.630346
O O14 0.502949 0.481707 0.565257
O O15 0.369527 0.482982 0.506291
O O16 0.909993 0.211675 0.925386
#
# Coordination Sequence:
#
# PCOD9257143 Si02
#       8
#     8   8   8   8   8   8   8   8
#     4  10  20  35  54  78 113 149 179 224 295 335
#     4  10  20  34  54  81 112 143 182 228 282 331
#     4  10  18  31  54  84 108 137 190 233 268 330
#     4  10  20  35  53  79 114 148 175 226 290 335
#     4  10  18  31  53  81 106 139 185 234 277 322
#     4  10  20  34  55  81 110 145 184 232 280 336
#     4  10  18  30  55  84 108 137 186 237 275 318
#     4  10  18  30  55  83 106 139 185 238 275 324
#
# _framework density 19.286503
#
# number of rings (size 3 to 8) (size 9 to 14) (size 15 to 20)
#    0.000    2.000    5.000    0.000    0.000    0.000 
#    0.000    4.375    2.750    0.000    0.000    0.000 
#    0.000    0.000    0.000    0.000    0.000    0.000 
#
# Total GULP energy -178232.932375 kJ/mol
# GULP energy per Si atom -5569.779137 kJ/mol
# Density = 1.924261 g / cm^3
# Si number density = 19.286503 Si / 1000 Ang^3
#
#
#
# Elastic Constant Matrix: (Units=GPa)
#
#
# Indices 1 2 3 4 5 6 
#
# 1 26.2562 4.6206 9.0818 0.0000 1.2732 0.0000
# 2 4.6206 126.2588 75.4583 0.0000 7.5498 0.0000
# 3 9.0818 75.4583 133.0937 0.0000 2.0088 0.0000
# 4 0.0000 0.0000 0.0000 10.3316 0.0000 2.5091
# 5 1.2732 7.5498 2.0088 0.0000 8.8982 0.0000
# 6 0.0000 0.0000 0.0000 2.5091 0.0000 21.8873
#
#
#
# Elastic Compliance Matrix: (Units=1/GPa)
#
#
# Indices 1 2 3 4 5 6 
#
# 1 0.039265 0.000672 -0.002977 0.000000 -0.005517 0.000000
# 2 0.000672 0.012695 -0.007104 0.000000 -0.009264 0.000000
# 3 -0.002977 -0.007104 0.011686 0.000000 0.003815 0.000000
# 4 0.000000 0.000000 0.000000 0.099562 0.000000 -0.011414
# 5 -0.005517 -0.009264 0.003815 0.000000 0.120171 0.000000
# 6 0.000000 0.000000 0.000000 -0.011414 0.000000 0.046997
#
#
# Mechanical properties :
#
#
# Convention : Reuss Voigt Hill
#
# Bulk Modulus (GPa) = 22.30666 51.54779 36.92723
# Shear Modulus (GPa) = 13.73110 21.31996 17.52553
#
# Velocity S-wave (km/s) = 2.67114 3.32841 3.01773
# Velocity P-wave (km/s) = 4.59395 6.44644 5.59736
#
# Compressibility (1/GPa) = 0.04482966
#
# Stress axis : x y z
#
# Youngs Moduli (GPa) = 25.46785 78.77122 85.56904
#
# Poissons Ratio (x) = -0.05295 0.25475
# Poissons Ratio (y) = -0.01712 0.60784
# Poissons Ratio (z) = 0.07582 0.55956
#
# Static dielectric constant tensor:
#      x y z
#    x 1.761320 0.000000 0.010360 
#    y 0.000000 1.692290 0.000000 
#    z 0.010360 0.000000 1.707020 
# 
# From -- ./inp_files/251582.got.cif
#   From: 2010.05.17/outbox.cif.g08.bks.cpg/sg15_126_cif.got.tgz:251582.got - 2010.06.03 18:47:42.
