data_PCOD9257680
_publ_section_title
;
Structure prediction by ZEFSAII (Michael W. Deem and Ramdas Pophale) SiO2 
 PCOD9257680
Probable space group: C 2/C
;
_chemical_formula_sum "Si O2"
_cell_formula_units_Z 60
_cell_length_a 13.739128
_cell_length_b 23.641948
_cell_length_c 17.187398
_cell_angle_alpha 90.000000
_cell_angle_beta 148.430806
_cell_angle_gamma 90.000000
_cell_volume 2922.754786
_symmetry_space_group_name_H-M "C 2/C"
_symmetry_group_IT_number 15
_symmetry_cell_setting 'monoclinic'
loop_
_space_group_symop_operation_xyz
x,y,z
-x,y,1/2-z
-x,-y,-z
x,-y,1/2+z
1/2+x,1/2+y,z
1/2-x,1/2+y,1/2-z
1/2-x,1/2-y,-z
1/2+x,1/2-y,1/2+z
loop_
_atom_site_type_symbol
_atom_site_label
_atom_site_fract_x
_atom_site_fract_y
_atom_site_fract_z
Si Si1 0.500000 0.900843 0.250000
Si Si2 0.204321 0.979177 0.421117
Si Si3 0.640906 0.604158 0.410416
Si Si4 0.717188 0.567311 0.242747
Si Si5 0.428786 0.115129 0.988406
Si Si6 0.842813 0.088289 0.464461
Si Si7 0.662466 0.810932 0.926475
Si Si8 0.263905 0.062472 0.733971
O O1 0.675995 0.871982 0.418621
O O2 0.610596 0.934636 0.257586
O O3 0.355079 0.941867 0.480601
O O4 0.215250 0.962069 0.518314
O O5 0.000000 0.961548 0.250000
O O6 0.213953 0.046023 0.420049
O O7 0.500000 0.632940 0.250000
O O8 0.489604 0.581425 0.370265
O O9 0.758842 0.500293 0.268957
O O10 0.858322 0.605429 0.387351
O O11 0.768198 0.588208 0.190522
O O12 0.395103 0.164257 0.028012
O O13 0.325176 0.111545 0.835881
O O14 0.811464 0.144763 0.492353
O O15 0.048769 0.075860 0.575857
O O16 0.500000 0.808984 0.750000
O O17 0.750000 0.750000 0.000000
#
# Coordination Sequence:
#
# PCOD9257680 Si02
#       8
#     4   8   8   8   8   8   8   8
#     4  12  24  34  52  82 116 166 226 254 302 372
#     4  10  18  32  51  78 113 162 207 253 312 380
#     4  11  21  35  51  78 120 171 219 265 307 370
#     4  12  21  37  55  83 130 172 221 262 321 392
#     4  11  23  38  61  90 127 168 217 272 330 403
#     4  11  21  37  57  84 124 162 206 264 325 393
#     4  11  26  45  69  98 129 165 219 283 347 403
#     4  12  22  37  57  88 125 182 216 262 319 393
#
# _framework density 20.528578
#
# number of rings (size 3 to 8) (size 9 to 14) (size 15 to 20)
#    0.000    0.800    5.333    4.000    1.867    1.067 
#    0.000    0.000    0.000    0.000    0.000    0.933 
#    4.000    0.000    0.000    0.000    0.000    0.000 
#
# Total GULP energy -167193.928036 kJ/mol
# GULP energy per Si atom -5573.130935 kJ/mol
# Density = 2.048185 g / cm^3
# Si number density = 20.528578 Si / 1000 Ang^3
#
#
#
# Elastic Constant Matrix: (Units=GPa)
#
#
# Indices 1 2 3 4 5 6 
#
# 1 120.2109 28.1373 15.1082 0.0000 -1.6290 0.0000
# 2 28.1373 68.8595 8.7261 0.0000 1.9770 0.0000
# 3 15.1082 8.7261 86.6790 0.0000 -1.1976 0.0000
# 4 0.0000 0.0000 0.0000 19.1700 0.0000 -2.5197
# 5 -1.6290 1.9770 -1.1976 0.0000 40.6936 0.0000
# 6 0.0000 0.0000 0.0000 -2.5197 0.0000 17.6834
#
#
#
# Elastic Compliance Matrix: (Units=1/GPa)
#
#
# Indices 1 2 3 4 5 6 
#
# 1 0.009343 -0.003674 -0.001251 0.000000 0.000516 0.000000
# 2 -0.003674 0.016178 -0.001002 0.000000 -0.000963 0.000000
# 3 -0.001251 -0.001002 0.011861 0.000000 0.000348 0.000000
# 4 0.000000 0.000000 0.000000 0.053160 0.000000 0.007575
# 5 0.000516 -0.000963 0.000348 0.000000 0.024651 0.000000
# 6 0.000000 0.000000 0.000000 0.007575 0.000000 0.057629
#
#
# Mechanical properties :
#
#
# Convention : Reuss Voigt Hill
#
# Bulk Modulus (GPa) = 39.17327 42.18806 40.68067
# Shear Modulus (GPa) = 25.88176 30.42794 28.15485
#
# Velocity S-wave (km/s) = 3.55458 3.85414 3.70739
# Velocity P-wave (km/s) = 5.99754 6.35621 6.17948
#
# Compressibility (1/GPa) = 0.02552761
#
# Stress axis : x y z
#
# Youngs Moduli (GPa) = 107.03287 61.81190 84.31277
#
# Poissons Ratio (x) = 0.22709 0.10552
# Poissons Ratio (y) = 0.39323 0.08445
# Poissons Ratio (z) = 0.13395 0.06191
#
# Static dielectric constant tensor:
#      x y z
#    x 1.807870 0.000000 -0.032280 
#    y 0.000000 1.659850 0.000000 
#    z -0.032280 0.000000 1.870130 
# 
# From -- ./inp_files/207244.got.cif
#   From: 2010.05.17/outbox.cif.g08.bks.cpg/sg15_104_cif.got.tgz:207244.got - 2010.06.03 18:47:42.
