data_PCOD9257567
_publ_section_title
;
Structure prediction by ZEFSAII (Michael W. Deem and Ramdas Pophale) SiO2 
 PCOD9257567
Probable space group: C 2/C
;
_chemical_formula_sum "Si O2"
_cell_formula_units_Z 40
_cell_length_a 25.351083
_cell_length_b 12.990819
_cell_length_c 10.408857
_cell_angle_alpha 90.000000
_cell_angle_beta 26.888889
_cell_angle_gamma 90.000000
_cell_volume 1550.336457
_symmetry_space_group_name_H-M "C 2/C"
_symmetry_group_IT_number 15
_symmetry_cell_setting 'monoclinic'
loop_
_space_group_symop_operation_xyz
x,y,z
-x,y,1/2-z
-x,-y,-z
x,-y,1/2+z
1/2+x,1/2+y,z
1/2-x,1/2+y,1/2-z
1/2-x,1/2-y,-z
1/2+x,1/2-y,1/2+z
loop_
_atom_site_type_symbol
_atom_site_label
_atom_site_fract_x
_atom_site_fract_y
_atom_site_fract_z
Si Si1 0.081111 0.496329 0.698048
Si Si2 0.158825 0.712381 0.589694
Si Si3 0.937647 0.262254 0.751284
Si Si4 0.857842 0.898022 0.047912
Si Si5 0.369603 0.452555 0.303214
O O1 0.164871 0.594025 0.536225
O O2 0.000000 0.516659 0.750000
O O3 0.116306 0.375551 0.611371
O O4 0.000000 0.500000 0.000000
O O5 0.250000 0.750000 0.500000
O O6 0.166274 0.783102 0.447844
O O7 0.033661 0.729647 0.929630
O O8 0.000000 0.237329 0.750000
O O9 0.866983 0.161123 0.868452
O O10 0.000000 0.905930 0.750000
O O11 0.813914 0.969151 0.025366
O O12 0.820291 0.937497 0.268770
O O13 0.500000 0.500000 0.000000
#
# Coordination Sequence:
#
# PCOD9257567 Si02
#       5
#     8   8   8   8   8
#     4   9  20  36  62  88 114 160 212 244 294 382
#     4  11  22  37  59  91 123 157 202 261 314 356
#     4  10  19  36  63  87 117 160 209 250 299 373
#     4  10  19  34  59  89 113 157 204 250 296 378
#     4  10  18  31  61  89 112 144 217 251 292 354
#
# _framework density 25.800853
#
# number of rings (size 3 to 8) (size 9 to 14) (size 15 to 20)
#    0.000    2.000    4.000    2.400    2.800    0.000 
#    0.000    6.000    0.000    2.400    0.000    0.000 
#    0.000    0.000    0.000    0.000    0.000    0.000 
#
# Total GULP energy -111965.670436 kJ/mol
# GULP energy per Si atom -5598.283522 kJ/mol
# Density = 2.574213 g / cm^3
# Si number density = 25.800853 Si / 1000 Ang^3
#
#
#
# Elastic Constant Matrix: (Units=GPa)
#
#
# Indices 1 2 3 4 5 6 
#
# 1 206.9178 101.1268 36.3031 0.0000 27.2016 0.0000
# 2 101.1268 266.5974 53.2177 0.0000 14.2799 0.0000
# 3 36.3031 53.2177 59.7677 0.0000 18.1192 0.0000
# 4 0.0000 0.0000 0.0000 46.9533 0.0000 7.3373
# 5 27.2016 14.2799 18.1192 0.0000 44.0369 0.0000
# 6 0.0000 0.0000 0.0000 7.3373 0.0000 60.7512
#
#
#
# Elastic Compliance Matrix: (Units=1/GPa)
#
#
# Indices 1 2 3 4 5 6 
#
# 1 0.006412 -0.002036 -0.001235 0.000000 -0.002792 0.000000
# 2 -0.002036 0.005210 -0.003738 0.000000 0.001106 0.000000
# 3 -0.001235 -0.003738 0.023092 0.000000 -0.007526 0.000000
# 4 0.000000 0.000000 0.000000 0.021707 0.000000 -0.002622
# 5 -0.002792 0.001106 -0.007526 0.000000 0.027171 0.000000
# 6 0.000000 0.000000 0.000000 -0.002622 0.000000 0.016777
#
#
# Mechanical properties :
#
#
# Convention : Reuss Voigt Hill
#
# Bulk Modulus (GPa) = 48.31999 101.61977 74.96988
# Shear Modulus (GPa) = 41.22513 53.19062 47.20787
#
# Velocity S-wave (km/s) = 4.00161 4.54539 4.28214
# Velocity P-wave (km/s) = 6.33397 8.18652 7.31910
#
# Compressibility (1/GPa) = 0.02069537
#
# Stress axis : x y z
#
# Youngs Moduli (GPa) = 155.96673 191.93255 43.30594
#
# Poissons Ratio (x) = 0.39077 0.05349
# Poissons Ratio (y) = 0.31754 0.16187
# Poissons Ratio (z) = 0.19264 0.71741
#
# Static dielectric constant tensor:
#      x y z
#    x 1.940310 0.000000 -0.056280 
#    y 0.000000 1.997570 0.000000 
#    z -0.056280 0.000000 2.184670 
# 
# From -- ./inp_files/117393.got.cif
#   From: 2010.05.17/outbox.cif.g08.bks.cpg/sg15_59_cif.got.tgz:117393.got - 2010.06.03 18:47:42.
