data_PCOD9257098
_publ_section_title
;
Structure prediction by ZEFSAII (Michael W. Deem and Ramdas Pophale) SiO2 
 PCOD9257098
Probable space group: C 2/C
;
_chemical_formula_sum "Si O2"
_cell_formula_units_Z 48
_cell_length_a 5.899529
_cell_length_b 20.381724
_cell_length_c 23.670961
_cell_angle_alpha 90.000000
_cell_angle_beta 62.012126
_cell_angle_gamma 90.000000
_cell_volume 2513.378711
_symmetry_space_group_name_H-M "C 2/C"
_symmetry_group_IT_number 15
_symmetry_cell_setting 'monoclinic'
loop_
_space_group_symop_operation_xyz
x,y,z
-x,y,1/2-z
-x,-y,-z
x,-y,1/2+z
1/2+x,1/2+y,z
1/2-x,1/2+y,1/2-z
1/2-x,1/2-y,-z
1/2+x,1/2-y,1/2+z
loop_
_atom_site_type_symbol
_atom_site_label
_atom_site_fract_x
_atom_site_fract_y
_atom_site_fract_z
Si Si1 0.699628 0.139195 0.777879
Si Si2 0.481294 0.399782 0.837623
Si Si3 0.997152 0.164163 0.050569
Si Si4 0.043110 0.293274 0.869251
Si Si5 0.500000 0.513621 0.750000
Si Si6 0.171011 0.698870 0.589345
Si Si7 0.000000 0.327081 0.750000
O O1 0.500000 0.158637 0.750000
O O2 0.550102 0.161161 0.851648
O O3 0.000000 0.162370 0.750000
O O4 0.758322 0.061393 0.766673
O O5 0.487869 0.393529 0.904870
O O6 0.268027 0.346664 0.845882
O O7 0.441300 0.468074 0.810884
O O8 0.749941 0.372177 0.783037
O O9 0.700749 0.176052 0.070301
O O10 0.070601 0.233501 0.072442
O O11 0.183633 0.158052 0.975735
O O12 0.126585 0.226157 0.888420
O O13 0.991118 0.287143 0.809023
#
# Coordination Sequence:
#
# PCOD9257098 Si02
#       7
#     8   8   8   8   4   8   4
#     4  10  26  43  63  91 124 176 212 262 319 378
#     4  10  19  35  57  91 117 148 212 258 322 361
#     4   9  21  36  63  88 120 166 199 269 317 383
#     4  10  19  31  54  89 121 160 198 262 320 373
#     4  10  22  40  63  90 125 168 212 274 310 372
#     4  10  21  41  56  87 128 163 213 247 325 392
#     4  10  18  30  53  92 121 156 196 276 320 370
#
# _framework density 19.097799999999999
#
# number of rings (size 3 to 8) (size 9 to 14) (size 15 to 20)
#    0.500    1.667    1.667    0.500    3.500    4.000 
#    6.000    0.833    0.000    2.000    0.000    0.000 
#    0.000    0.000    0.000    0.000    0.000    0.000 
#
# Total GULP energy -133660.925125 kJ/mol
# GULP energy per Si atom -5569.205214 kJ/mol
# Density = 1.905433 g / cm^3
# Si number density = 19.097800 Si / 1000 Ang^3
#
#
#
# Elastic Constant Matrix: (Units=GPa)
#
#
# Indices 1 2 3 4 5 6 
#
# 1 82.4047 8.2562 41.9843 0.0000 -21.4851 0.0000
# 2 8.2562 45.7290 27.7443 0.0000 -1.6526 0.0000
# 3 41.9843 27.7443 157.0907 0.0000 -23.4679 0.0000
# 4 0.0000 0.0000 0.0000 17.7847 0.0000 -0.6873
# 5 -21.4851 -1.6526 -23.4679 0.0000 22.4268 0.0000
# 6 0.0000 0.0000 0.0000 -0.6873 0.0000 10.1025
#
#
#
# Elastic Compliance Matrix: (Units=1/GPa)
#
#
# Indices 1 2 3 4 5 6 
#
# 1 0.017021 -0.001196 -0.002270 0.000000 0.013843 0.000000
# 2 -0.001196 0.024775 -0.004687 0.000000 -0.004224 0.000000
# 3 -0.002270 -0.004687 0.008799 0.000000 0.006688 0.000000
# 4 0.000000 0.000000 0.000000 0.056376 0.000000 0.003835
# 5 0.013843 -0.004224 0.006688 0.000000 0.064538 0.000000
# 6 0.000000 0.000000 0.000000 0.003835 0.000000 0.099247
#
#
# Mechanical properties :
#
#
# Convention : Reuss Voigt Hill
#
# Bulk Modulus (GPa) = 29.16332 49.02156 39.09244
# Shear Modulus (GPa) = 16.75095 23.87876 20.31486
#
# Velocity S-wave (km/s) = 2.96482 3.53985 3.26502
# Velocity P-wave (km/s) = 5.19845 6.51397 5.89304
#
# Compressibility (1/GPa) = 0.03428965
#
# Stress axis : x y z
#
# Youngs Moduli (GPa) = 58.75232 40.36341 113.64533
#
# Poissons Ratio (x) = 0.04826 0.25796
# Poissons Ratio (y) = 0.07025 0.53267
# Poissons Ratio (z) = 0.13336 0.18919
#
# Static dielectric constant tensor:
#      x y z
#    x 1.777680 0.000000 0.021740 
#    y 0.000000 1.651510 0.000000 
#    z 0.021740 0.000000 1.671030 
# 
# From -- ./inp_files/227350.got.cif
#   From: 2010.05.17/outbox.cif.g08.bks.cpg/sg15_114_cif.got.tgz:227350.got - 2010.06.03 18:47:42.
