data_PCOD9257402
_publ_section_title
;
Structure prediction by ZEFSAII (Michael W. Deem and Ramdas Pophale) SiO2 
 PCOD9257402
Probable space group: C 2/C
;
_chemical_formula_sum "Si O2"
_cell_formula_units_Z 64
_cell_length_a 10.464391
_cell_length_b 20.666084
_cell_length_c 14.955985
_cell_angle_alpha 90.000000
_cell_angle_beta 92.475592
_cell_angle_gamma 90.000000
_cell_volume 3231.332578
_symmetry_space_group_name_H-M "C 2/C"
_symmetry_group_IT_number 15
_symmetry_cell_setting 'monoclinic'
loop_
_space_group_symop_operation_xyz
x,y,z
-x,y,1/2-z
-x,-y,-z
x,-y,1/2+z
1/2+x,1/2+y,z
1/2-x,1/2+y,1/2-z
1/2-x,1/2-y,-z
1/2+x,1/2-y,1/2+z
loop_
_atom_site_type_symbol
_atom_site_label
_atom_site_fract_x
_atom_site_fract_y
_atom_site_fract_z
Si Si1 0.178941 0.195473 0.675903
Si Si2 0.991234 0.576706 0.383847
Si Si3 0.878599 0.888648 0.012885
Si Si4 0.751878 0.333682 0.864578
Si Si5 0.831000 0.090465 0.967455
Si Si6 0.265289 0.867285 0.669090
Si Si7 0.879557 0.774190 0.135057
Si Si8 0.834800 0.475423 0.456538
O O1 0.255507 0.256535 0.639364
O O2 0.206090 0.131088 0.621416
O O3 0.191221 0.191751 0.782935
O O4 0.031172 0.217686 0.657221
O O5 0.897020 0.638160 0.378670
O O6 0.901934 0.513579 0.378364
O O7 0.110464 0.586286 0.322233
O O8 0.062036 0.564459 0.481830
O O9 0.831886 0.891927 0.908970
O O10 0.016809 0.920008 0.033397
O O11 0.866263 0.814347 0.043848
O O12 0.777590 0.927138 0.070144
O O13 0.680528 0.362896 0.946580
O O14 0.708598 0.358283 0.765644
O O15 0.738047 0.030326 0.985267
O O16 0.327187 0.798830 0.638136
#
# Coordination Sequence:
#
# PCOD9257402 Si02
#       8
#     8   8   8   8   8   8   8   8
#     4   9  17  31  52  76 102 132 172 223 269 315
#     4   9  17  32  54  78  97 130 171 224 270 297
#     4  10  20  33  50  75 107 145 176 207 261 320
#     4  10  18  31  53  78 104 132 173 224 268 311
#     4  10  20  33  50  75 107 145 176 207 261 320
#     4  10  18  31  53  78 104 132 173 224 268 311
#     4   9  17  31  52  76 102 132 172 223 269 315
#     4   9  19  34  52  74 107 139 174 216 256 315
#
# _framework density 19.806069000000001
#
# number of rings (size 3 to 8) (size 9 to 14) (size 15 to 20)
#    0.000    2.500    1.250    1.500    0.000    0.500 
#    0.000    6.250    0.000    6.000    0.000    0.000 
#    0.000    0.000    0.000    0.000    0.000    0.000 
#
# Total GULP energy -178178.619041 kJ/mol
# GULP energy per Si atom -5568.081845 kJ/mol
# Density = 1.976099 g / cm^3
# Si number density = 19.806069 Si / 1000 Ang^3
#
#
#
# Elastic Constant Matrix: (Units=GPa)
#
#
# Indices 1 2 3 4 5 6 
#
# 1 38.2155 1.3361 9.5440 0.0000 4.4074 0.0000
# 2 1.3361 45.4273 15.9323 0.0000 0.7159 0.0000
# 3 9.5440 15.9323 53.9139 0.0000 3.7248 0.0000
# 4 0.0000 0.0000 0.0000 23.8552 0.0000 -4.7940
# 5 4.4074 0.7159 3.7248 0.0000 18.5312 0.0000
# 6 0.0000 0.0000 0.0000 -4.7940 0.0000 24.6031
#
#
#
# Elastic Compliance Matrix: (Units=1/GPa)
#
#
# Indices 1 2 3 4 5 6 
#
# 1 0.028004 0.000967 -0.004848 0.000000 -0.005723 0.000000
# 2 0.000967 0.024597 -0.007462 0.000000 0.000320 0.000000
# 3 -0.004848 -0.007462 0.021815 0.000000 -0.002944 0.000000
# 4 0.000000 0.000000 0.000000 0.043628 0.000000 0.008501
# 5 -0.005723 0.000320 -0.002944 0.000000 0.055904 0.000000
# 6 0.000000 0.000000 0.000000 0.008501 0.000000 0.042302
#
#
# Mechanical properties :
#
#
# Convention : Reuss Voigt Hill
#
# Bulk Modulus (GPa) = 19.33110 21.24238 20.28674
# Shear Modulus (GPa) = 19.51766 20.78085 20.14926
#
# Velocity S-wave (km/s) = 3.14258 3.24268 3.19302
# Velocity P-wave (km/s) = 4.79052 4.97679 4.88454
#
# Compressibility (1/GPa) = 0.05173013
#
# Stress axis : x y z
#
# Youngs Moduli (GPa) = 35.70870 40.65575 45.84069
#
# Poissons Ratio (x) = -0.03930 0.22222
# Poissons Ratio (y) = -0.03452 0.34206
# Poissons Ratio (z) = 0.17310 0.30337
#
# Static dielectric constant tensor:
#      x y z
#    x 1.722250 0.000000 0.015790 
#    y 0.000000 1.722160 0.000000 
#    z 0.015790 0.000000 1.697320 
# 
# From -- ./inp_files/147160.got.cif
#   From: 2010.05.17/outbox.cif.g08.bks.cpg/sg15_74_cif.got.tgz:147160.got - 2010.06.03 18:47:42.
