data_PCOD9257815
_publ_section_title
;
Structure prediction by ZEFSAII (Michael W. Deem and Ramdas Pophale) SiO2 
 PCOD9257815
Probable space group: C 2/C
;
_chemical_formula_sum "Si O2"
_cell_formula_units_Z 44
_cell_length_a 5.990095
_cell_length_b 27.235462
_cell_length_c 13.818734
_cell_angle_alpha 90.000000
_cell_angle_beta 73.727137
_cell_angle_gamma 90.000000
_cell_volume 2164.113083
_symmetry_space_group_name_H-M "C 2/C"
_symmetry_group_IT_number 15
_symmetry_cell_setting 'monoclinic'
loop_
_space_group_symop_operation_xyz
x,y,z
-x,y,1/2-z
-x,-y,-z
x,-y,1/2+z
1/2+x,1/2+y,z
1/2-x,1/2+y,1/2-z
1/2-x,1/2-y,-z
1/2+x,1/2-y,1/2+z
loop_
_atom_site_type_symbol
_atom_site_label
_atom_site_fract_x
_atom_site_fract_y
_atom_site_fract_z
Si Si1 0.125460 0.565790 0.428538
Si Si2 0.000806 0.659597 0.144330
Si Si3 0.500000 0.511977 0.250000
Si Si4 0.070652 0.791632 0.986869
Si Si5 0.236702 0.007518 0.911583
Si Si6 0.293969 0.243269 0.844457
O O1 0.337065 0.544283 0.339498
O O2 0.136954 0.549376 0.539290
O O3 0.124395 0.623924 0.415261
O O4 0.897577 0.540455 0.408291
O O5 0.261796 0.666605 0.073421
O O6 0.000000 0.635655 0.250000
O O7 0.864014 0.711220 0.174162
O O8 0.333717 0.484213 0.191949
O O9 0.929212 0.768008 0.916770
O O10 0.250000 0.750000 0.000000
O O11 0.883624 0.797939 0.095129
O O12 0.000000 0.000000 0.000000
O O13 0.500000 0.226340 0.750000
#
# Coordination Sequence:
#
# PCOD9257815 Si02
#       6
#     8   8   4   8   8   8
#     4  10  21  33  53  85 119 146 187 244 294 341
#     4  11  20  31  52  85 120 143 181 239 301 338
#     4  10  18  32  54  78 112 152 204 234 282 352
#     4   9  20  34  50  80 111 146 186 223 277 350
#     4   9  19  35  51  79 111 151 196 230 279 345
#     4  10  19  34  55  80 112 149 186 226 282 351
#
# _framework density 20.331657
#
# number of rings (size 3 to 8) (size 9 to 14) (size 15 to 20)
#    0.000    2.182    1.818    1.636    1.273    2.909 
#    0.000    0.000    0.000    0.000    0.000  183.273 
#    0.000    0.000    0.000    0.000    0.000    0.000 
#
# Total GULP energy -122530.501875 kJ/mol
# GULP energy per Si atom -5569.568267 kJ/mol
# Density = 2.028538 g / cm^3
# Si number density = 20.331657 Si / 1000 Ang^3
#
#
#
# Elastic Constant Matrix: (Units=GPa)
#
#
# Indices 1 2 3 4 5 6 
#
# 1 98.6977 12.7045 48.2502 0.0000 -4.7991 0.0000
# 2 12.7045 33.4287 30.5097 0.0000 -4.9020 0.0000
# 3 48.2502 30.5097 121.2183 0.0000 -8.5357 0.0000
# 4 0.0000 0.0000 0.0000 18.3444 0.0000 -0.3183
# 5 -4.7991 -4.9020 -8.5357 0.0000 64.8083 0.0000
# 6 0.0000 0.0000 0.0000 -0.3183 0.0000 9.0791
#
#
#
# Elastic Compliance Matrix: (Units=1/GPa)
#
#
# Indices 1 2 3 4 5 6 
#
# 1 0.012586 -0.000246 -0.004929 0.000000 0.000264 0.000000
# 2 -0.000246 0.039019 -0.009606 0.000000 0.001668 0.000000
# 3 -0.004929 -0.009606 0.012670 0.000000 0.000577 0.000000
# 4 0.000000 0.000000 0.000000 0.054546 0.000000 0.001912
# 5 0.000264 0.001668 0.000577 0.000000 0.015652 0.000000
# 6 0.000000 0.000000 0.000000 0.001912 0.000000 0.110210
#
#
# Mechanical properties :
#
#
# Convention : Reuss Voigt Hill
#
# Bulk Modulus (GPa) = 28.80669 48.47484 38.64076
# Shear Modulus (GPa) = 17.49378 29.23838 23.36608
#
# Velocity S-wave (km/s) = 2.93648 3.79631 3.39373
# Velocity P-wave (km/s) = 5.06916 6.56580 5.86541
#
# Compressibility (1/GPa) = 0.03471416
#
# Stress axis : x y z
#
# Youngs Moduli (GPa) = 79.45163 25.62837 78.92638
#
# Poissons Ratio (x) = 0.00629 0.38907
# Poissons Ratio (y) = 0.01951 0.75814
# Poissons Ratio (z) = 0.39165 0.24618
#
# Static dielectric constant tensor:
#      x y z
#    x 1.684380 0.000000 -0.004080 
#    y 0.000000 1.720280 0.000000 
#    z -0.004080 0.000000 1.788750 
# 
# From -- ./inp_files/73889.got.cif
#   From: 2010.05.17/outbox.cif.g08.bks.cpg/sg15_37_cif.got.tgz:73889.got - 2010.06.03 18:47:42.
