data_PCOD9257100
_publ_section_title
;
Structure prediction by ZEFSAII (Michael W. Deem and Ramdas Pophale) SiO2 
 PCOD9257100
Probable space group: C 2/C
;
_chemical_formula_sum "Si O2"
_cell_formula_units_Z 56
_cell_length_a 5.480554
_cell_length_b 24.864830
_cell_length_c 23.946080
_cell_angle_alpha 90.000000
_cell_angle_beta 110.078409
_cell_angle_gamma 90.000000
_cell_volume 3064.879625
_symmetry_space_group_name_H-M "C 2/C"
_symmetry_group_IT_number 15
_symmetry_cell_setting 'monoclinic'
loop_
_space_group_symop_operation_xyz
x,y,z
-x,y,1/2-z
-x,-y,-z
x,-y,1/2+z
1/2+x,1/2+y,z
1/2-x,1/2+y,1/2-z
1/2-x,1/2-y,-z
1/2+x,1/2-y,1/2+z
loop_
_atom_site_type_symbol
_atom_site_label
_atom_site_fract_x
_atom_site_fract_y
_atom_site_fract_z
Si Si1 0.469919 0.795970 0.012314
Si Si2 0.696886 0.939403 0.714565
Si Si3 0.803190 0.310598 0.785435
Si Si4 0.685820 0.222289 0.406391
Si Si5 0.050082 0.125000 0.450055
Si Si6 0.783352 0.472289 0.906391
Si Si7 0.182979 0.954030 0.487686
O O1 0.602980 0.789699 0.963001
O O2 0.319109 0.851585 0.995063
O O3 0.250000 0.750000 0.000000
O O4 0.667621 0.779542 0.077093
O O5 0.500000 0.952261 0.750000
O O6 0.680016 0.875000 0.703344
O O7 0.639844 0.968779 0.651813
O O8 0.000000 0.951220 0.750000
O O9 0.500000 0.297740 0.750000
O O10 0.000000 0.298780 0.750000
O O11 0.934405 0.281221 0.848187
O O12 0.885823 0.173247 0.408719
O O13 0.090335 0.076753 0.408719
O O14 0.916081 0.101585 0.495063
O O15 0.036023 0.460302 0.963001
O O16 0.686340 0.529542 0.922907
O O17 0.000000 0.000000 0.500000
#
# Coordination Sequence:
#
# PCOD9257100 Si02
#       7
#     8   8   8   8   8   8   8
#     4   9  19  31  50  74 105 142 175 226 279 329
#     4  10  22  33  50  74 106 149 189 214 257 327
#     4  10  22  33  50  74 106 149 189 214 257 327
#     4  10  20  33  50  75 109 146 180 223 277 331
#     4  10  18  30  54  74 106 143 182 230 280 336
#     4  10  20  33  50  75 109 146 180 223 277 331
#     4   9  19  31  50  74 105 142 175 226 279 329
#
# _framework density 18.271516999999999
#
# number of rings (size 3 to 8) (size 9 to 14) (size 15 to 20)
#    0.000    2.286    0.000    2.571   14.000    0.000 
#    0.000    0.000    0.000    0.000    0.000    0.000 
#    0.000   66.286    0.000    0.000    0.000    0.000 
#
# Total GULP energy -155929.703109 kJ/mol
# GULP energy per Si atom -5568.917968 kJ/mol
# Density = 1.822993 g / cm^3
# Si number density = 18.271517 Si / 1000 Ang^3
#
#
#
# Elastic Constant Matrix: (Units=GPa)
#
#
# Indices 1 2 3 4 5 6 
#
# 1 80.9869 8.4351 36.6230 0.0000 0.7823 0.0000
# 2 8.4351 23.5674 25.9788 0.0000 0.7200 0.0000
# 3 36.6230 25.9788 105.5103 0.0000 0.2240 0.0000
# 4 0.0000 0.0000 0.0000 19.3928 0.0000 -0.6524
# 5 0.7823 0.7200 0.2240 0.0000 31.6901 0.0000
# 6 0.0000 0.0000 0.0000 -0.6524 0.0000 35.2864
#
#
#
# Elastic Compliance Matrix: (Units=1/GPa)
#
#
# Indices 1 2 3 4 5 6 
#
# 1 0.014654 0.000510 -0.005211 0.000000 -0.000337 0.000000
# 2 0.000510 0.058303 -0.014530 0.000000 -0.001235 0.000000
# 3 -0.005211 -0.014530 0.014863 0.000000 0.000354 0.000000
# 4 0.000000 0.000000 0.000000 0.051598 0.000000 0.000954
# 5 -0.000337 -0.001235 0.000354 0.000000 0.031589 0.000000
# 6 0.000000 0.000000 0.000000 0.000954 0.000000 0.028357
#
#
# Mechanical properties :
#
#
# Convention : Reuss Voigt Hill
#
# Bulk Modulus (GPa) = 20.25994 39.12650 29.69322
# Shear Modulus (GPa) = 19.66328 26.54239 23.10284
#
# Velocity S-wave (km/s) = 3.28406 3.81552 3.55972
# Velocity P-wave (km/s) = 5.04900 6.39307 5.76037
#
# Compressibility (1/GPa) = 0.04935850
#
# Stress axis : x y z
#
# Youngs Moduli (GPa) = 68.23852 17.15168 67.27898
#
# Poissons Ratio (x) = -0.00875 0.35062
# Poissons Ratio (y) = -0.03480 0.97756
# Poissons Ratio (z) = 0.35562 0.24921
#
# Static dielectric constant tensor:
#      x y z
#    x 1.777390 0.000000 -0.005490 
#    y 0.000000 1.671080 0.000000 
#    z -0.005490 0.000000 1.643690 
# 
# From -- ./inp_files/228176.got.cif
#   From: 2010.05.17/outbox.cif.g08.bks.cpg/sg15_115_cif.got.tgz:228176.got - 2010.06.03 18:47:42.
