data_PCOD9257888
_publ_section_title
;
Structure prediction by ZEFSAII (Michael W. Deem and Ramdas Pophale) SiO2 
 PCOD9257888
Probable space group: C 2/C
;
_chemical_formula_sum "Si O2"
_cell_formula_units_Z 64
_cell_length_a 25.908719
_cell_length_b 23.516884
_cell_length_c 11.636808
_cell_angle_alpha 90.000000
_cell_angle_beta 148.261832
_cell_angle_gamma 90.000000
_cell_volume 3729.726267
_symmetry_space_group_name_H-M "C 2/C"
_symmetry_group_IT_number 15
_symmetry_cell_setting 'monoclinic'
loop_
_space_group_symop_operation_xyz
x,y,z
-x,y,1/2-z
-x,-y,-z
x,-y,1/2+z
1/2+x,1/2+y,z
1/2-x,1/2+y,1/2-z
1/2-x,1/2-y,-z
1/2+x,1/2-y,1/2+z
loop_
_atom_site_type_symbol
_atom_site_label
_atom_site_fract_x
_atom_site_fract_y
_atom_site_fract_z
Si Si1 0.237262 0.650283 0.574392
Si Si2 0.674487 0.667425 0.004353
Si Si3 0.454491 0.402494 0.837569
Si Si4 0.159715 0.253538 0.597297
Si Si5 0.954881 0.765936 0.836427
Si Si6 0.046069 0.719227 0.220052
Si Si7 0.903040 0.061580 0.497726
Si Si8 0.156144 0.940756 0.096627
O O1 0.297207 0.646265 0.569103
O O2 0.285547 0.699030 0.745844
O O3 0.129586 0.674499 0.341146
O O4 0.253267 0.593282 0.677147
O O5 0.772160 0.693514 0.245317
O O6 0.599987 0.720194 0.845881
O O7 0.632109 0.618304 0.004255
O O8 0.458999 0.334093 0.854631
O O9 0.375153 0.420259 0.590203
O O10 0.428797 0.426496 0.914104
O O11 0.559817 0.424632 0.991313
O O12 0.135089 0.248317 0.416830
O O13 0.055567 0.253609 0.464937
O O14 0.961165 0.733850 0.968725
O O15 0.000000 0.698060 0.250000
O O16 0.000000 0.042532 0.750000
O O17 0.830698 0.008283 0.372632
#
# Coordination Sequence:
#
# PCOD9257888 Si02
#       8
#     8   8   8   8   8   8   8   8
#     4  11  19  37  56  77 108 147 186 224 262 330
#     4  11  21  36  53  81 114 144 182 222 271 320
#     4  11  20  35  52  80 115 141 184 211 267 319
#     4  10  18  32  55  80 104 143 184 215 268 325
#     4  11  17  33  56  80 109 143 177 221 270 323
#     4  11  21  35  54  82 110 145 180 225 280 320
#     4  12  24  34  53  81 115 147 177 220 267 321
#     4  11  21  35  55  78 106 154 181 214 260 328
#
# _framework density 17.159434999999998
#
# number of rings (size 3 to 8) (size 9 to 14) (size 15 to 20)
#    0.000    1.000    6.250    4.500    1.750    0.000 
#    2.250    1.875    0.000    0.000    3.250    1.750 
#    0.000    0.000    0.000    0.000    0.000    0.000 
#
# Total GULP energy -178641.305117 kJ/mol
# GULP energy per Si atom -5582.540785 kJ/mol
# Density = 1.712038 g / cm^3
# Si number density = 17.159435 Si / 1000 Ang^3
#
#
#
# Elastic Constant Matrix: (Units=GPa)
#
#
# Indices 1 2 3 4 5 6 
#
# 1 75.8535 14.0554 19.1888 0.0000 -25.8229 0.0000
# 2 14.0554 73.1989 21.4791 0.0000 -12.2870 0.0000
# 3 19.1888 21.4791 69.2505 0.0000 -30.4454 0.0000
# 4 0.0000 0.0000 0.0000 22.4214 0.0000 5.4265
# 5 -25.8229 -12.2870 -30.4454 0.0000 23.4738 0.0000
# 6 0.0000 0.0000 0.0000 5.4265 0.0000 -0.7488
#
#
#
# Elastic Compliance Matrix: (Units=1/GPa)
#
#
# Indices 1 2 3 4 5 6 
#
# 1 0.024742 -0.001205 0.012115 0.000000 0.042301 0.000000
# 2 -0.001205 0.015271 -0.003423 0.000000 0.002227 0.000000
# 3 0.012115 -0.003423 0.040059 0.000000 0.063491 0.000000
# 4 0.000000 0.000000 0.000000 0.016195 0.000000 0.117366
# 5 0.042301 0.002227 0.063491 0.000000 0.172648 0.000000
# 6 0.000000 0.000000 0.000000 0.117366 0.000000 -0.484941
#
#
# Mechanical properties :
#
#
# Convention : Reuss Voigt Hill
#
# Bulk Modulus (GPa) = 10.52136 36.41662 23.46899
# Shear Modulus (GPa) = -25.08566 19.93460 -2.57553
#
# Velocity S-wave (km/s) = -3.82765 3.41211 -1.22646
# Velocity P-wave (km/s) = 3.65919 6.06563 3.42069
#
# Compressibility (1/GPa) = 0.09504477
#
# Stress axis : x y z
#
# Youngs Moduli (GPa) = 40.41648 65.48230 24.96347
#
# Poissons Ratio (x) = 0.07894 -0.30244
# Poissons Ratio (y) = 0.04872 0.08546
# Poissons Ratio (z) = -0.48965 0.22417
#
# Static dielectric constant tensor:
#      x y z
#    x 1.604170 0.000000 -0.022800 
#    y 0.000000 1.577860 0.000000 
#    z -0.022800 0.000000 1.602070 
# 
# From -- ./inp_files/124464.got.cif
#   From: 2010.05.17/outbox.cif.g08.bks.cpg/sg15_63_cif.got.tgz:124464.got - 2010.06.03 18:47:42.
