data_PCOD9257103
_publ_section_title
;
Structure prediction by ZEFSAII (Michael W. Deem and Ramdas Pophale) SiO2 
 PCOD9257103
Probable space group: C 2/C
;
_chemical_formula_sum "Si O2"
_cell_formula_units_Z 56
_cell_length_a 22.967633
_cell_length_b 7.416149
_cell_length_c 22.013949
_cell_angle_alpha 90.000000
_cell_angle_beta 50.979490
_cell_angle_gamma 90.000000
_cell_volume 2913.193281
_symmetry_space_group_name_H-M "C 2/C"
_symmetry_group_IT_number 15
_symmetry_cell_setting 'monoclinic'
loop_
_space_group_symop_operation_xyz
x,y,z
-x,y,1/2-z
-x,-y,-z
x,-y,1/2+z
1/2+x,1/2+y,z
1/2-x,1/2+y,1/2-z
1/2-x,1/2-y,-z
1/2+x,1/2-y,1/2+z
loop_
_atom_site_type_symbol
_atom_site_label
_atom_site_fract_x
_atom_site_fract_y
_atom_site_fract_z
Si Si1 0.673347 0.677290 0.292790
Si Si2 0.938037 0.246897 0.037939
Si Si3 0.822076 0.227234 0.758159
Si Si4 0.745703 0.793405 0.129331
Si Si5 0.696285 0.580153 0.605092
Si Si6 0.601558 0.841895 0.909323
Si Si7 0.179224 0.127945 0.481885
O O1 0.592986 0.688242 0.376319
O O2 0.736807 0.705984 0.302793
O O3 0.682461 0.476789 0.263046
O O4 0.692301 0.808683 0.223934
O O5 0.915484 0.459112 0.054256
O O6 0.890666 0.147839 0.017100
O O7 0.026218 0.230165 0.970307
O O8 0.842075 0.195047 0.815246
O O9 0.876159 0.333967 0.676710
O O10 0.712074 0.625862 0.113803
O O11 0.825552 0.732876 0.104758
O O12 0.764159 0.970719 0.078583
O O13 0.775731 0.683479 0.546497
O O14 0.657084 0.587078 0.565769
#
# Coordination Sequence:
#
# PCOD9257103 Si02
#       7
#     8   8   8   8   8   8   8
#     4  10  18  30  54  77 108 132 183 223 275 330
#     4  11  20  36  52  83 110 144 185 229 282 332
#     4  10  19  33  51  79 105 142 176 229 274 323
#     4  10  20  36  57  86 110 141 180 233 278 325
#     4  10  21  36  53  84 111 138 189 220 266 332
#     4  10  22  33  55  79 115 141 180 238 281 329
#     4  11  21  34  58  78 111 149 175 227 269 326
#
# _framework density 19.222892000000002
#
# number of rings (size 3 to 8) (size 9 to 14) (size 15 to 20)
#    0.000    1.714    2.857    3.857    2.000    2.286 
#    0.000    0.714    0.000    0.000    0.000    3.000 
#    0.000    0.000    0.000    0.000    0.000    0.000 
#
# Total GULP energy -156214.435012 kJ/mol
# GULP energy per Si atom -5579.086965 kJ/mol
# Density = 1.917914 g / cm^3
# Si number density = 19.222892 Si / 1000 Ang^3
#
#
#
# Elastic Constant Matrix: (Units=GPa)
#
#
# Indices 1 2 3 4 5 6 
#
# 1 41.9209 10.7129 45.6469 -0.0002 6.7789 0.0007
# 2 10.7129 58.2869 20.9227 0.0006 9.2046 0.0013
# 3 45.6469 20.9227 125.5391 -0.0006 8.4311 0.0004
# 4 -0.0002 0.0006 -0.0006 17.5504 0.0004 5.3876
# 5 6.7789 9.2046 8.4311 0.0004 36.8500 0.0001
# 6 0.0007 0.0013 0.0004 5.3876 0.0001 19.0900
#
#
#
# Elastic Compliance Matrix: (Units=1/GPa)
#
#
# Indices 1 2 3 4 5 6 
#
# 1 0.040253 -0.001748 -0.014093 0.000000 -0.003744 -0.000001
# 2 -0.001748 0.018900 -0.002253 0.000000 -0.003884 -0.000001
# 3 -0.014093 -0.002253 0.013461 0.000000 0.000076 0.000000
# 4 0.000000 0.000000 0.000000 0.062383 -0.000001 -0.017606
# 5 -0.003744 -0.003884 0.000076 -0.000001 0.028779 0.000000
# 6 -0.000001 -0.000001 0.000000 -0.017606 0.000000 0.057352
#
#
# Mechanical properties :
#
#
# Convention : Reuss Voigt Hill
#
# Bulk Modulus (GPa) = 27.45494 42.25688 34.85591
# Shear Modulus (GPa) = 18.55574 24.59570 21.57572
#
# Velocity S-wave (km/s) = 3.11029 3.58089 3.35385
# Velocity P-wave (km/s) = 5.21651 6.25519 5.75931
#
# Compressibility (1/GPa) = 0.03642331
#
# Stress axis : x y z
#
# Youngs Moduli (GPa) = 24.84310 52.90989 74.29101
#
# Poissons Ratio (x) = 0.09249 1.04701
# Poissons Ratio (y) = 0.04343 0.16741
# Poissons Ratio (z) = 0.35012 0.11923
#
# Static dielectric constant tensor:
#      x y z
#    x 1.623490 0.000000 0.018350 
#    y 0.000000 1.740630 0.000000 
#    z 0.018350 0.000000 1.746980 
# 
# From -- ./inp_files/256893.got.cif
#   From: 2010.05.17/outbox.cif.g08.bks.cpg/sg15_129_cif.got.tgz:256893.got - 2010.06.03 18:47:42.
