data_PCOD9257606
_publ_section_title
;
Structure prediction by ZEFSAII (Michael W. Deem and Ramdas Pophale) SiO2 
 PCOD9257606
Probable space group: C 2/C
;
_chemical_formula_sum "Si O2"
_cell_formula_units_Z 56
_cell_length_a 17.876216
_cell_length_b 22.364504
_cell_length_c 23.353800
_cell_angle_alpha 90.000000
_cell_angle_beta 159.457585
_cell_angle_gamma 90.000000
_cell_volume 3276.247018
_symmetry_space_group_name_H-M "C 2/C"
_symmetry_group_IT_number 15
_symmetry_cell_setting 'monoclinic'
loop_
_space_group_symop_operation_xyz
x,y,z
-x,y,1/2-z
-x,-y,-z
x,-y,1/2+z
1/2+x,1/2+y,z
1/2-x,1/2+y,1/2-z
1/2-x,1/2-y,-z
1/2+x,1/2-y,1/2+z
loop_
_atom_site_type_symbol
_atom_site_label
_atom_site_fract_x
_atom_site_fract_y
_atom_site_fract_z
Si Si1 0.194661 0.047811 0.736433
Si Si2 0.239019 0.279323 0.399274
Si Si3 0.242644 0.495150 0.937713
Si Si4 0.764585 0.399972 0.161490
Si Si5 0.631935 0.924156 0.592042
Si Si6 0.926590 0.828543 0.781755
Si Si7 0.735822 0.080707 0.031748
O O1 0.193568 0.070616 0.670314
O O2 0.290274 0.980538 0.814870
O O3 0.376169 0.082902 0.903421
O O4 0.947145 0.046872 0.576329
O O5 0.307905 0.333313 0.406359
O O6 0.223661 0.212389 0.364828
O O7 0.416521 0.282963 0.574938
O O8 0.000000 0.292821 0.250000
O O9 0.274651 0.552914 0.918260
O O10 0.259589 0.519024 0.014540
O O11 0.000000 0.473975 0.750000
O O12 0.016659 0.393681 0.350722
O O13 0.769655 0.867050 0.709007
O O14 0.704409 0.931303 0.576745
O O15 0.084149 0.874387 0.862344
#
# Coordination Sequence:
#
# PCOD9257606 Si02
#       7
#     8   8   8   8   8   8   8
#     4  10  20  32  51  70  98 140 176 215 268 317
#     4  12  22  33  49  75 105 147 191 220 239 294
#     4  10  18  32  50  72  96 132 173 218 263 312
#     4  10  19  32  49  70 103 141 178 213 260 302
#     4  10  21  34  47  71 102 142 177 217 260 308
#     4  12  23  33  50  73 107 145 191 217 249 293
#     4  10  18  32  49  69 103 140 180 215 247 296
#
# _framework density 17.092728000000001
#
# number of rings (size 3 to 8) (size 9 to 14) (size 15 to 20)
#    0.000    1.429    4.286    2.571    4.000    0.000 
#    0.000    0.000    0.000    0.000    0.000    0.000 
#    0.000    1.143    2.857    4.286    0.571    0.000 
#
# Total GULP energy -155915.528076 kJ/mol
# GULP energy per Si atom -5568.411717 kJ/mol
# Density = 1.705382 g / cm^3
# Si number density = 17.092728 Si / 1000 Ang^3
#
#
#
# Elastic Constant Matrix: (Units=GPa)
#
#
# Indices 1 2 3 4 5 6 
#
# 1 27.1491 12.6006 7.8037 -0.0036 4.0227 -0.0050
# 2 12.6006 44.4974 18.6422 -0.0290 8.9210 -0.0044
# 3 7.8037 18.6422 101.4979 -0.1495 17.6536 -0.0082
# 4 -0.0036 -0.0290 -0.1495 27.6467 -0.0029 -3.5431
# 5 4.0227 8.9210 17.6536 -0.0029 23.0685 0.0069
# 6 -0.0050 -0.0044 -0.0082 -3.5431 0.0069 29.5269
#
#
#
# Elastic Compliance Matrix: (Units=1/GPa)
#
#
# Indices 1 2 3 4 5 6 
#
# 1 0.042649 -0.011251 -0.000780 -0.000010 -0.002490 0.000005
# 2 -0.011251 0.028310 -0.003197 0.000011 -0.006539 0.000004
# 3 -0.000780 -0.003197 0.011836 0.000061 -0.007686 0.000012
# 4 -0.000010 0.000011 0.000061 0.036736 -0.000046 0.004408
# 5 -0.002490 -0.006539 -0.007686 -0.000046 0.052194 -0.000021
# 6 0.000005 0.000004 0.000012 0.004408 -0.000021 0.034396
#
#
# Mechanical properties :
#
#
# Convention : Reuss Voigt Hill
#
# Bulk Modulus (GPa) = 19.10634 27.91527 23.51081
# Shear Modulus (GPa) = 19.68319 24.98827 22.33573
#
# Velocity S-wave (km/s) = 3.39714 3.82766 3.61881
# Velocity P-wave (km/s) = 5.15652 5.99181 5.58979
#
# Compressibility (1/GPa) = 0.05233864
#
# Stress axis : x y z
#
# Youngs Moduli (GPa) = 23.44735 35.32336 84.48470
#
# Poissons Ratio (x) = 0.39744 0.06586
# Poissons Ratio (y) = 0.26382 0.27012
# Poissons Ratio (z) = 0.01828 0.11294
#
# Static dielectric constant tensor:
#      x y z
#    x 1.613760 0.000000 -0.023010 
#    y 0.000000 1.594600 -0.000020 
#    z -0.023010 -0.000020 1.659970 
# 
# From -- ./inp_files/52062.got.cif
#   From: 2010.05.17/outbox.cif.g08.bks.cpg/sg15_27_cif.got.tgz:52062.got - 2010.06.03 18:47:42.
