data_PCOD9257321
_publ_section_title
;
Structure prediction by ZEFSAII (Michael W. Deem and Ramdas Pophale) SiO2 
 PCOD9257321
Probable space group: C 2/C
;
_chemical_formula_sum "Si O2"
_cell_formula_units_Z 52
_cell_length_a 5.171579
_cell_length_b 22.642321
_cell_length_c 25.938068
_cell_angle_alpha 90.000000
_cell_angle_beta 94.162149
_cell_angle_gamma 90.000000
_cell_volume 3029.247987
_symmetry_space_group_name_H-M "C 2/C"
_symmetry_group_IT_number 15
_symmetry_cell_setting 'monoclinic'
loop_
_space_group_symop_operation_xyz
x,y,z
-x,y,1/2-z
-x,-y,-z
x,-y,1/2+z
1/2+x,1/2+y,z
1/2-x,1/2+y,1/2-z
1/2-x,1/2-y,-z
1/2+x,1/2-y,1/2+z
loop_
_atom_site_type_symbol
_atom_site_label
_atom_site_fract_x
_atom_site_fract_y
_atom_site_fract_z
Si Si1 0.452448 0.416143 0.400333
Si Si2 0.010423 0.236185 0.068323
Si Si3 0.530623 0.939437 0.031187
Si Si4 0.000000 0.180138 0.750000
Si Si5 0.369771 0.086422 0.699126
Si Si6 0.499815 0.821594 0.968257
Si Si7 0.736060 0.178038 0.648795
O O1 0.220707 0.422518 0.438010
O O2 0.330101 0.441555 0.345016
O O3 0.546664 0.349214 0.386711
O O4 0.712133 0.442669 0.429411
O O5 0.271854 0.199526 0.065187
O O6 0.040915 0.279369 0.116953
O O7 0.770802 0.191863 0.063242
O O8 0.996732 0.279587 0.018739
O O9 0.553023 0.886503 0.990388
O O10 0.500000 0.000000 0.000000
O O11 0.207011 0.137798 0.725019
O O12 0.139925 0.210377 0.799996
O O13 0.500000 0.053072 0.750000
O O14 0.587223 0.120105 0.668397
#
# Coordination Sequence:
#
# PCOD9257321 Si02
#       7
#     8   8   8   4   8   8   8
#     4  11  20  34  53  76 105 143 175 206 273 314
#     4  10  20  30  53  71 107 134 168 211 253 307
#     4  12  24  38  53  72 108 146 185 228 260 313
#     4   8  18  26  48  76 110 142 164 196 260 340
#     4   9  17  31  50  78 111 138 164 209 259 334
#     4  10  21  33  47  76  98 138 180 208 250 305
#     4  10  18  31  51  76 113 140 166 210 267 324
#
# _framework density 17.165977999999999
#
# number of rings (size 3 to 8) (size 9 to 14) (size 15 to 20)
#    0.000    1.846    3.077    1.385    8.615    0.000 
#    0.000    0.000    0.000    0.000    0.000    0.000 
#   13.846    0.000    0.000    0.000    0.000    0.000 
#
# Total GULP energy -144774.387872 kJ/mol
# GULP energy per Si atom -5568.245687 kJ/mol
# Density = 1.712691 g / cm^3
# Si number density = 17.165978 Si / 1000 Ang^3
#
#
#
# Elastic Constant Matrix: (Units=GPa)
#
#
# Indices 1 2 3 4 5 6 
#
# 1 102.5743 17.4426 37.6788 0.0000 13.5850 0.0000
# 2 17.4426 48.2489 20.8158 0.0000 1.4645 0.0000
# 3 37.6788 20.8158 99.1884 0.0000 26.2778 0.0000
# 4 0.0000 0.0000 0.0000 8.0736 0.0000 3.6740
# 5 13.5850 1.4645 26.2778 0.0000 36.5927 0.0000
# 6 0.0000 0.0000 0.0000 3.6740 0.0000 10.2673
#
#
#
# Elastic Compliance Matrix: (Units=1/GPa)
#
#
# Indices 1 2 3 4 5 6 
#
# 1 0.011696 -0.002707 -0.003400 0.000000 -0.001792 0.000000
# 2 -0.002707 0.023707 -0.004893 0.000000 0.003570 0.000000
# 3 -0.003400 -0.004893 0.014836 0.000000 -0.009196 0.000000
# 4 0.000000 0.000000 0.000000 0.147953 0.000000 -0.052943
# 5 -0.001792 0.003570 -0.009196 0.000000 0.034454 0.000000
# 6 0.000000 0.000000 0.000000 -0.052943 0.000000 0.116342
#
#
# Mechanical properties :
#
#
# Convention : Reuss Voigt Hill
#
# Bulk Modulus (GPa) = 35.41061 44.65399 40.03230
# Shear Modulus (GPa) = 13.14404 22.59165 17.86785
#
# Velocity S-wave (km/s) = 2.77014 3.63171 3.22978
# Velocity P-wave (km/s) = 5.55920 6.60721 6.10573
#
# Compressibility (1/GPa) = 0.02824012
#
# Stress axis : x y z
#
# Youngs Moduli (GPa) = 85.50223 42.18186 67.40142
#
# Poissons Ratio (x) = 0.11418 0.22916
# Poissons Ratio (y) = 0.23144 0.32977
# Poissons Ratio (z) = 0.29071 0.20638
#
# Static dielectric constant tensor:
#      x y z
#    x 1.664160 0.000000 0.028750 
#    y 0.000000 1.513800 0.000000 
#    z 0.028750 0.000000 1.639610 
# 
# From -- ./inp_files/305567.got.cif
#   From: 2010.05.17/outbox.cif.g08.bks.cpg/sg15_153_cif.got.tgz:305567.got - 2010.06.03 18:47:42.
