data_PCOD9257814
_publ_section_title
;
Structure prediction by ZEFSAII (Michael W. Deem and Ramdas Pophale) SiO2 
 PCOD9257814
Probable space group: C 2/C
;
_chemical_formula_sum "Si O2"
_cell_formula_units_Z 48
_cell_length_a 20.140908
_cell_length_b 8.897395
_cell_length_c 13.671684
_cell_angle_alpha 90.000000
_cell_angle_beta 90.796629
_cell_angle_gamma 90.000000
_cell_volume 2449.751034
_symmetry_space_group_name_H-M "C 2/C"
_symmetry_group_IT_number 15
_symmetry_cell_setting 'monoclinic'
loop_
_space_group_symop_operation_xyz
x,y,z
-x,y,1/2-z
-x,-y,-z
x,-y,1/2+z
1/2+x,1/2+y,z
1/2-x,1/2+y,1/2-z
1/2-x,1/2-y,-z
1/2+x,1/2-y,1/2+z
loop_
_atom_site_type_symbol
_atom_site_label
_atom_site_fract_x
_atom_site_fract_y
_atom_site_fract_z
Si Si1 0.173519 0.154934 0.170651
Si Si2 0.193869 0.648835 0.052264
Si Si3 0.530406 0.455939 0.651644
Si Si4 0.198245 0.907879 0.450997
Si Si5 0.283786 0.325710 0.257082
Si Si6 0.914988 0.157175 0.020210
O O1 0.095113 0.141083 0.178425
O O2 0.207337 0.279151 0.239092
O O3 0.204197 0.993950 0.204701
O O4 0.190266 0.169379 0.055846
O O5 0.229685 0.488617 0.053326
O O6 0.187633 0.713305 0.161805
O O7 0.250000 0.750000 0.000000
O O8 0.124266 0.687549 0.998673
O O9 0.500000 0.519940 0.750000
O O10 0.555210 0.586601 0.579250
O O11 0.475026 0.354920 0.597093
O O12 0.187318 0.814201 0.351920
O O13 0.141863 0.037892 0.448881
#
# Coordination Sequence:
#
# PCOD9257814 Si02
#       6
#     8   8   8   8   8   8
#     4  11  23  35  54  85 111 142 182 223 275 320
#     4  10  18  32  54  78 109 140 172 223 271 322
#     4  10  19  31  50  75 109 143 175 222 264 317
#     4  10  20  35  54  82 113 137 181 225 275 322
#     4  12  20  34  55  81 110 143 178 226 274 322
#     4   9  19  32  50  81 108 138 179 219 271 317
#
# _framework density 19.593827000000001
#
# number of rings (size 3 to 8) (size 9 to 14) (size 15 to 20)
#    0.000    1.667    6.667    1.500    2.333    0.000 
#    0.000    0.000    0.000    1.000    0.000   11.667 
#    0.000    0.000    0.000    0.000    0.000    0.000 
#
# Total GULP energy -133845.384109 kJ/mol
# GULP energy per Si atom -5576.891005 kJ/mol
# Density = 1.954923 g / cm^3
# Si number density = 19.593827 Si / 1000 Ang^3
#
#
#
# Elastic Constant Matrix: (Units=GPa)
#
#
# Indices 1 2 3 4 5 6 
#
# 1 127.8754 45.1894 33.9823 0.0000 23.6620 0.0000
# 2 45.1894 41.9406 8.9276 0.0000 8.1885 0.0000
# 3 33.9823 8.9276 82.9275 0.0000 -8.1794 0.0000
# 4 0.0000 0.0000 0.0000 19.9804 0.0000 10.9231
# 5 23.6620 8.1885 -8.1794 0.0000 35.3666 0.0000
# 6 0.0000 0.0000 0.0000 10.9231 0.0000 23.1152
#
#
#
# Elastic Compliance Matrix: (Units=1/GPa)
#
#
# Indices 1 2 3 4 5 6 
#
# 1 0.016103 -0.014368 -0.005921 0.000000 -0.008816 0.000000
# 2 -0.014368 0.038728 0.001824 0.000000 0.001068 0.000000
# 3 -0.005921 0.001824 0.014980 0.000000 0.007004 0.000000
# 4 0.000000 0.000000 0.000000 0.067482 0.000000 -0.031889
# 5 -0.008816 0.001068 0.007004 0.000000 0.035546 0.000000
# 6 0.000000 0.000000 0.000000 -0.031889 0.000000 0.058330
#
#
# Mechanical properties :
#
#
# Convention : Reuss Voigt Hill
#
# Bulk Modulus (GPa) = 30.41477 47.66023 39.03750
# Shear Modulus (GPa) = 17.91733 26.66871 22.29302
#
# Velocity S-wave (km/s) = 3.02725 3.69328 3.37673
# Velocity P-wave (km/s) = 5.27023 6.52411 5.93040
#
# Compressibility (1/GPa) = 0.03287877
#
# Stress axis : x y z
#
# Youngs Moduli (GPa) = 62.10203 25.82134 66.75734
#
# Poissons Ratio (x) = 0.37101 0.39529
# Poissons Ratio (y) = 0.89229 -0.12176
# Poissons Ratio (z) = 0.36773 -0.04710
#
# Static dielectric constant tensor:
#      x y z
#    x 1.704470 0.000000 0.003250 
#    y 0.000000 1.730620 0.000000 
#    z 0.003250 0.000000 1.738120 
# 
# From -- ./inp_files/160004.got.cif
#   From: 2010.05.17/outbox.cif.g08.bks.cpg/sg15_81_cif.got.tgz:160004.got - 2010.06.03 18:47:42.
