data_PCOD9257692
_publ_section_title
;
Structure prediction by ZEFSAII (Michael W. Deem and Ramdas Pophale) SiO2 
 PCOD9257692
Probable space group: C 2/C
;
_chemical_formula_sum "Si O2"
_cell_formula_units_Z 60
_cell_length_a 16.037064
_cell_length_b 20.419934
_cell_length_c 9.955985
_cell_angle_alpha 90.000000
_cell_angle_beta 120.644536
_cell_angle_gamma 90.000000
_cell_volume 2805.024242
_symmetry_space_group_name_H-M "C 2/C"
_symmetry_group_IT_number 15
_symmetry_cell_setting 'monoclinic'
loop_
_space_group_symop_operation_xyz
x,y,z
-x,y,1/2-z
-x,-y,-z
x,-y,1/2+z
1/2+x,1/2+y,z
1/2-x,1/2+y,1/2-z
1/2-x,1/2-y,-z
1/2+x,1/2-y,1/2+z
loop_
_atom_site_type_symbol
_atom_site_label
_atom_site_fract_x
_atom_site_fract_y
_atom_site_fract_z
Si Si1 0.272133 0.052500 0.325498
Si Si2 0.222911 0.945004 0.485390
Si Si3 0.642180 0.757262 0.249501
Si Si4 0.354317 0.812708 0.958426
Si Si5 0.274373 0.811804 0.430470
Si Si6 0.902894 0.127445 0.185096
Si Si7 0.000000 0.902254 0.250000
Si Si8 0.085276 0.183606 0.595925
O O1 0.349831 0.112060 0.406601
O O2 0.178250 0.087374 0.311348
O O3 0.280019 0.989428 0.425569
O O4 0.243745 0.030854 0.152817
O O5 0.276499 0.874734 0.525219
O O6 0.105994 0.938525 0.356550
O O7 0.626948 0.803422 0.366337
O O8 0.747627 0.720948 0.349979
O O9 0.643180 0.794364 0.109647
O O10 0.574907 0.693010 0.209081
O O11 0.423586 0.761880 0.936693
O O12 0.250000 0.750000 0.500000
O O13 0.180544 0.825002 0.264036
O O14 0.000000 0.086406 0.250000
O O15 0.881754 0.151864 0.018476
O O16 0.008311 0.856252 0.122926
#
# Coordination Sequence:
#
# PCOD9257692 Si02
#       8
#     8   8   8   8   8   8   4   8
#     4  11  23  35  50  72 106 144 178 207 255 316
#     4  11  25  34  51  75 107 147 174 209 255 318
#     4   8  15  28  52  72  90 129 168 223 259 289
#     4   8  15  31  52  70  94 127 177 216 264 294
#     4  10  18  32  52  70  99 128 181 225 266 292
#     4  10  19  32  51  73 106 138 177 206 256 311
#     4  10  22  36  48  74 112 138 186 208 262 302
#     4   9  18  32  53  73  98 139 174 227 259 302
#
# _framework density 21.39019
#
# number of rings (size 3 to 8) (size 9 to 14) (size 15 to 20)
#    0.000    2.400    0.000    5.600    6.533    1.600 
#    0.000    0.000    0.000    0.000    0.000    0.000 
#    2.000    8.533    0.800    0.000    0.000    0.000 
#
# Total GULP energy -167107.187767 kJ/mol
# GULP energy per Si atom -5570.239592 kJ/mol
# Density = 2.134151 g / cm^3
# Si number density = 21.390190 Si / 1000 Ang^3
#
#
#
# Elastic Constant Matrix: (Units=GPa)
#
#
# Indices 1 2 3 4 5 6 
#
# 1 31.2128 1.4100 6.5523 0.0000 -6.6341 0.0000
# 2 1.4100 74.4141 18.8142 0.0000 -6.8973 0.0000
# 3 6.5523 18.8142 94.0529 0.0000 -30.7433 0.0000
# 4 0.0000 0.0000 0.0000 27.1578 0.0000 -10.3626
# 5 -6.6341 -6.8973 -30.7433 0.0000 22.6254 0.0000
# 6 0.0000 0.0000 0.0000 -10.3626 0.0000 34.1083
#
#
#
# Elastic Compliance Matrix: (Units=1/GPa)
#
#
# Indices 1 2 3 4 5 6 
#
# 1 0.034304 0.000081 0.001601 0.000000 0.012258 0.000000
# 2 0.000081 0.014163 -0.002554 0.000000 0.000871 0.000000
# 3 0.001601 -0.002554 0.019665 0.000000 0.026411 0.000000
# 4 0.000000 0.000000 0.000000 0.041650 0.000000 0.012654
# 5 0.012258 0.000871 0.026411 0.000000 0.083945 0.000000
# 6 0.000000 0.000000 0.000000 0.012654 0.000000 0.033163
#
#
# Mechanical properties :
#
#
# Convention : Reuss Voigt Hill
#
# Bulk Modulus (GPa) = 15.06296 28.13698 21.59997
# Shear Modulus (GPa) = 19.93913 28.30521 24.12217
#
# Velocity S-wave (km/s) = 3.05645 3.64164 3.36180
# Velocity P-wave (km/s) = 4.41736 5.55560 5.01886
#
# Compressibility (1/GPa) = 0.06638803
#
# Stress axis : x y z
#
# Youngs Moduli (GPa) = 29.15124 70.60521 50.85230
#
# Poissons Ratio (x) = -0.00575 -0.08140
# Poissons Ratio (y) = -0.00238 0.12989
# Poissons Ratio (z) = -0.04666 0.18034
#
# Static dielectric constant tensor:
#      x y z
#    x 1.962670 0.000000 -0.021100 
#    y 0.000000 1.867470 0.000000 
#    z -0.021100 0.000000 1.812050 
# 
# From -- ./inp_files/50297.got.cif
#   From: 2010.05.17/outbox.cif.g08.bks.cpg/sg15_26_cif.got.tgz:50297.got - 2010.06.03 18:47:42.
