data_PCOD9257534
_publ_section_title
;
Structure prediction by ZEFSAII (Michael W. Deem and Ramdas Pophale) SiO2 
 PCOD9257534
Probable space group: C 2/C
;
_chemical_formula_sum "Si O2"
_cell_formula_units_Z 48
_cell_length_a 18.462420
_cell_length_b 18.775459
_cell_length_c 23.956373
_cell_angle_alpha 90.000000
_cell_angle_beta 160.405699
_cell_angle_gamma 90.000000
_cell_volume 2784.894529
_symmetry_space_group_name_H-M "C 2/C"
_symmetry_group_IT_number 15
_symmetry_cell_setting 'monoclinic'
loop_
_space_group_symop_operation_xyz
x,y,z
-x,y,1/2-z
-x,-y,-z
x,-y,1/2+z
1/2+x,1/2+y,z
1/2-x,1/2+y,1/2-z
1/2-x,1/2-y,-z
1/2+x,1/2-y,1/2+z
loop_
_atom_site_type_symbol
_atom_site_label
_atom_site_fract_x
_atom_site_fract_y
_atom_site_fract_z
Si Si1 0.214706 0.551665 0.215340
Si Si2 0.335164 0.324399 0.291576
Si Si3 0.241899 0.675960 0.325363
Si Si4 0.452175 0.541366 0.602277
Si Si5 0.000000 0.389231 0.750000
Si Si6 0.431781 0.913287 0.015422
Si Si7 0.000000 0.046648 0.250000
O O1 0.237812 0.611197 0.278642
O O2 0.438214 0.510861 0.363591
O O3 0.044602 0.489980 0.108411
O O4 0.134320 0.584611 0.098099
O O5 0.526827 0.320835 0.475847
O O6 0.305698 0.249448 0.240238
O O7 0.409651 0.385896 0.302068
O O8 0.110729 0.352952 0.153913
O O9 0.064344 0.658900 0.243855
O O10 0.473181 0.503164 0.676575
O O11 0.207833 0.562389 0.412662
O O12 0.216034 0.908398 0.895218
#
# Coordination Sequence:
#
# PCOD9257534 Si02
#       7
#     8   8   8   8   4   8   4
#     4   9  18  34  55  75 105 143 175 208 257 317
#     4  10  22  35  52  76 106 144 179 210 261 319
#     4  11  22  36  54  77 108 143 176 216 259 311
#     4   9  20  34  52  81 107 138 174 212 262 309
#     4  10  22  33  50  81 110 136 174 220 262 301
#     4   9  18  34  55  80 103 135 177 215 259 311
#     4  10  18  31  58  81 104 134 172 226 262 299
#
# _framework density 17.235842000000002
#
# number of rings (size 3 to 8) (size 9 to 14) (size 15 to 20)
#    0.000    2.333    0.000    3.000    0.000   12.000 
#    0.000    0.000    0.000   10.000    0.000    0.000 
#    0.000    0.000    0.000    0.000    0.000    0.000 
#
# Total GULP energy -133916.511939 kJ/mol
# GULP energy per Si atom -5579.854664 kJ/mol
# Density = 1.719661 g / cm^3
# Si number density = 17.235842 Si / 1000 Ang^3
#
#
#
# Elastic Constant Matrix: (Units=GPa)
#
#
# Indices 1 2 3 4 5 6 
#
# 1 108.3337 71.9502 58.3932 0.0187 17.2778 -0.0579
# 2 71.9502 110.2116 54.4175 0.1206 1.5080 -0.0342
# 3 58.3932 54.4175 121.9738 0.0936 24.4941 -0.1101
# 4 0.0187 0.1206 0.0936 18.2929 0.0019 -5.1057
# 5 17.2778 1.5080 24.4941 0.0019 30.3203 -0.0324
# 6 -0.0579 -0.0342 -0.1101 -5.1057 -0.0324 12.5863
#
#
#
# Elastic Compliance Matrix: (Units=1/GPa)
#
#
# Indices 1 2 3 4 5 6 
#
# 1 0.019506 -0.011347 -0.002575 0.000082 -0.008471 0.000048
# 2 -0.011347 0.018731 -0.004817 -0.000106 0.009426 -0.000062
# 3 -0.002575 -0.004817 0.013414 -0.000016 -0.009129 0.000063
# 4 0.000082 -0.000106 -0.000016 0.061646 -0.000006 0.025007
# 5 -0.008471 0.009426 -0.009129 -0.000006 0.044714 0.000019
# 6 0.000048 -0.000062 0.000063 0.025007 0.000019 0.089596
#
#
# Mechanical properties :
#
#
# Convention : Reuss Voigt Hill
#
# Bulk Modulus (GPa) = 70.55980 78.89343 74.72661
# Shear Modulus (GPa) = 17.25276 22.62380 19.93828
#
# Velocity S-wave (km/s) = 3.16726 3.62692 3.40485
# Velocity P-wave (km/s) = 7.37578 7.96314 7.67508
#
# Compressibility (1/GPa) = 0.01417238
#
# Stress axis : x y z
#
# Youngs Moduli (GPa) = 51.26752 53.38813 74.55120
#
# Poissons Ratio (x) = 0.60579 0.19194
# Poissons Ratio (y) = 0.58172 0.35913
# Poissons Ratio (z) = 0.13200 0.25718
#
# Static dielectric constant tensor:
#      x y z
#    x 1.578410 0.000010 0.009720 
#    y 0.000010 1.559530 -0.000050 
#    z 0.009720 -0.000050 1.606250 
# 
# From -- ./inp_files/48392.got.cif
#   From: 2010.05.17/outbox.cif.g08.bks.cpg/sg15_25_cif.got.tgz:48392.got - 2010.06.03 18:47:42.
