data_PCOD9257292
_publ_section_title
;
Structure prediction by ZEFSAII (Michael W. Deem and Ramdas Pophale) SiO2 
 PCOD9257292
Probable space group: C 2/C
;
_chemical_formula_sum "Si O2"
_cell_formula_units_Z 36
_cell_length_a 10.824116
_cell_length_b 18.940668
_cell_length_c 7.297219
_cell_angle_alpha 90.000000
_cell_angle_beta 93.705134
_cell_angle_gamma 90.000000
_cell_volume 1492.919571
_symmetry_space_group_name_H-M "C 2/C"
_symmetry_group_IT_number 15
_symmetry_cell_setting 'monoclinic'
loop_
_space_group_symop_operation_xyz
x,y,z
-x,y,1/2-z
-x,-y,-z
x,-y,1/2+z
1/2+x,1/2+y,z
1/2-x,1/2+y,1/2-z
1/2-x,1/2-y,-z
1/2+x,1/2-y,1/2+z
loop_
_atom_site_type_symbol
_atom_site_label
_atom_site_fract_x
_atom_site_fract_y
_atom_site_fract_z
Si Si1 0.371039 0.115039 0.820632
Si Si2 0.000000 0.021129 0.750000
Si Si3 0.169434 0.081451 0.069478
Si Si4 0.824834 0.802825 0.383315
Si Si5 0.906403 0.773635 0.976390
O O1 0.500000 0.086874 0.750000
O O2 0.261956 0.128791 0.659946
O O3 0.301040 0.073586 0.978349
O O4 0.401997 0.194945 0.896278
O O5 0.942063 0.069691 0.588432
O O6 0.881214 0.972455 0.786141
O O7 0.165100 0.162739 0.131380
O O8 0.750000 0.750000 0.500000
O O9 0.854553 0.775600 0.179549
O O10 0.954981 0.801817 0.496899
#
# Coordination Sequence:
#
# PCOD9257292 Si02
#       5
#     8   4   8   8   8
#     4  11  21  36  58  91 126 151 184 240 309 362
#     4  10  22  40  62  80 110 158 212 244 272 334
#     4  10  21  38  59  84 109 154 202 246 285 334
#     4  10  18  31  50  78 122 152 178 222 284 355
#     4  10  21  34  56  88 120 146 190 241 299 352
#
# _framework density 24.113826
#
# number of rings (size 3 to 8) (size 9 to 14) (size 15 to 20)
#    0.000    1.778    2.222    5.333    1.556    1.778 
#    0.000    1.111    0.000    0.000    0.000    0.000 
#    0.000    0.000    0.000    0.000    0.000    0.000 
#
# Total GULP energy -100419.175632 kJ/mol
# GULP energy per Si atom -5578.843091 kJ/mol
# Density = 2.405894 g / cm^3
# Si number density = 24.113826 Si / 1000 Ang^3
#
#
#
# Elastic Constant Matrix: (Units=GPa)
#
#
# Indices 1 2 3 4 5 6 
#
# 1 175.6957 27.6447 21.4702 0.0000 -50.8875 0.0000
# 2 27.6447 85.7731 22.2963 0.0000 -26.0104 0.0000
# 3 21.4702 22.2963 53.9902 0.0000 -39.6236 0.0000
# 4 0.0000 0.0000 0.0000 24.1653 0.0000 -10.9484
# 5 -50.8875 -26.0104 -39.6236 0.0000 61.2628 0.0000
# 6 0.0000 0.0000 0.0000 -10.9484 0.0000 23.1339
#
#
#
# Elastic Compliance Matrix: (Units=1/GPa)
#
#
# Indices 1 2 3 4 5 6 
#
# 1 0.007819 -0.000875 0.003324 0.000000 0.008273 0.000000
# 2 -0.000875 0.013671 -0.002991 0.000000 0.003143 0.000000
# 3 0.003324 -0.002991 0.037176 0.000000 0.025536 0.000000
# 4 0.000000 0.000000 0.000000 0.052677 0.000000 0.024930
# 5 0.008273 0.003143 0.025536 0.000000 0.041045 0.000000
# 6 0.000000 0.000000 0.000000 0.024930 0.000000 0.055025
#
#
# Mechanical properties :
#
#
# Convention : Reuss Voigt Hill
#
# Bulk Modulus (GPa) = 17.36690 50.92015 34.14353
# Shear Modulus (GPa) = 21.95934 37.98225 29.97080
#
# Velocity S-wave (km/s) = 3.02098 3.97309 3.52929
# Velocity P-wave (km/s) = 4.40296 6.49690 5.54958
#
# Compressibility (1/GPa) = 0.05758080
#
# Stress axis : x y z
#
# Youngs Moduli (GPa) = 127.88635 73.14552 26.89899
#
# Poissons Ratio (x) = 0.06403 -0.08940
# Poissons Ratio (y) = 0.11195 0.08047
# Poissons Ratio (z) = -0.42506 0.21881
#
# Static dielectric constant tensor:
#      x y z
#    x 2.028060 0.000000 0.019860 
#    y 0.000000 1.902370 0.000000 
#    z 0.019860 0.000000 2.033400 
# 
# From -- ./inp_files/28735.got.cif
#   From: 2010.05.17/outbox.cif.g08.bks.cpg/sg15_15_cif.got.tgz:28735.got - 2010.06.03 18:47:42.
