data_PCOD9257668
_publ_section_title
;
Structure prediction by ZEFSAII (Michael W. Deem and Ramdas Pophale) SiO2 
 PCOD9257668
Probable space group: C 2/C
;
_chemical_formula_sum "Si O2"
_cell_formula_units_Z 56
_cell_length_a 12.912503
_cell_length_b 30.501483
_cell_length_c 8.639801
_cell_angle_alpha 90.000000
_cell_angle_beta 109.105189
_cell_angle_gamma 90.000000
_cell_volume 3215.361727
_symmetry_space_group_name_H-M "C 2/C"
_symmetry_group_IT_number 15
_symmetry_cell_setting 'monoclinic'
loop_
_space_group_symop_operation_xyz
x,y,z
-x,y,1/2-z
-x,-y,-z
x,-y,1/2+z
1/2+x,1/2+y,z
1/2-x,1/2+y,1/2-z
1/2-x,1/2-y,-z
1/2+x,1/2-y,1/2+z
loop_
_atom_site_type_symbol
_atom_site_label
_atom_site_fract_x
_atom_site_fract_y
_atom_site_fract_z
Si Si1 0.932305 0.319230 0.913655
Si Si2 0.206702 0.324016 0.362679
Si Si3 0.718608 0.100537 0.279938
Si Si4 0.127116 0.162926 0.279276
Si Si5 0.962916 0.454176 0.910966
Si Si6 0.738502 0.239597 0.314261
Si Si7 0.123585 0.379333 0.054630
O O1 0.862811 0.360645 0.817161
O O2 0.881569 0.278391 0.796474
O O3 0.895960 0.314116 0.074393
O O4 0.056935 0.335551 0.966019
O O5 0.306260 0.333041 0.527898
O O6 0.234133 0.282286 0.272150
O O7 0.182071 0.364796 0.239278
O O8 0.836195 0.117143 0.282154
O O9 0.665585 0.058425 0.168825
O O10 0.701828 0.102583 0.456795
O O11 0.175709 0.201702 0.194974
O O12 0.000000 0.166926 0.250000
O O13 0.000000 0.451768 0.750000
O O14 0.000000 0.500000 0.000000
O O15 0.030978 0.416356 0.032597
O O16 0.750000 0.250000 0.500000
#
# Coordination Sequence:
#
# PCOD9257668 Si02
#       7
#     8   8   8   8   8   8   8
#     4   9  17  29  46  69  96 126 160 202 254 304
#     4  10  19  31  48  71  94 126 171 213 251 302
#     4   8  17  33  49  71 101 132 163 198 242 299
#     4  10  21  37  51  67  96 135 177 218 254 299
#     4   9  18  30  51  83 113 133 156 194 251 316
#     4  10  20  34  48  69  97 129 172 218 255 301
#     4  10  18  32  51  74 103 133 159 201 260 311
#
# _framework density 17.416391999999998
#
# number of rings (size 3 to 8) (size 9 to 14) (size 15 to 20)
#    0.000    2.857    0.000    5.143    0.000    5.714 
#    0.000    7.143    0.000    0.000    0.000    9.000 
#    0.000    0.000    0.000    0.000    0.000    0.000 
#
# Total GULP energy -155966.335880 kJ/mol
# GULP energy per Si atom -5570.226281 kJ/mol
# Density = 1.737675 g / cm^3
# Si number density = 17.416392 Si / 1000 Ang^3
#
#
#
# Elastic Constant Matrix: (Units=GPa)
#
#
# Indices 1 2 3 4 5 6 
#
# 1 87.7909 25.4235 38.2580 0.0000 4.2577 0.0000
# 2 25.4235 79.3549 43.2787 0.0000 -0.7395 0.0000
# 3 38.2580 43.2787 109.1283 0.0000 -7.7658 0.0000
# 4 0.0000 0.0000 0.0000 35.0691 0.0000 3.1963
# 5 4.2577 -0.7395 -7.7658 0.0000 19.8435 0.0000
# 6 0.0000 0.0000 0.0000 3.1963 0.0000 16.3524
#
#
#
# Elastic Compliance Matrix: (Units=1/GPa)
#
#
# Indices 1 2 3 4 5 6 
#
# 1 0.014200 -0.002157 -0.004470 0.000000 -0.004876 0.000000
# 2 -0.002157 0.016481 -0.005867 0.000000 -0.001219 0.000000
# 3 -0.004470 -0.005867 0.013485 0.000000 0.006018 0.000000
# 4 0.000000 0.000000 0.000000 0.029032 0.000000 -0.005675
# 5 -0.004876 -0.001219 0.006018 0.000000 0.053750 0.000000
# 6 0.000000 0.000000 0.000000 -0.005675 0.000000 0.062262
#
#
# Mechanical properties :
#
#
# Convention : Reuss Voigt Hill
#
# Bulk Modulus (GPa) = 52.13954 54.46606 53.30280
# Shear Modulus (GPa) = 22.66643 25.54058 24.10350
#
# Velocity S-wave (km/s) = 3.61146 3.83360 3.72419
# Velocity P-wave (km/s) = 6.88420 7.13695 7.01172
#
# Compressibility (1/GPa) = 0.01917930
#
# Stress axis : x y z
#
# Youngs Moduli (GPa) = 70.42420 60.67644 74.15450
#
# Poissons Ratio (x) = 0.13088 0.33145
# Poissons Ratio (y) = 0.15191 0.43504
# Poissons Ratio (z) = 0.31477 0.35597
#
# Static dielectric constant tensor:
#      x y z
#    x 1.651390 0.000000 -0.014560 
#    y 0.000000 1.623960 0.000000 
#    z -0.014560 0.000000 1.620870 
# 
# From -- ./inp_files/44319.got.cif
#   From: 2010.05.17/outbox.cif.g08.bks.cpg/sg15_23_cif.got.tgz:44319.got - 2010.06.03 18:47:42.
