data_PCOD9257025
_publ_section_title
;
Structure prediction by ZEFSAII (Michael W. Deem and Ramdas Pophale) SiO2 
 PCOD9257025
Probable space group: C 2/C
;
_chemical_formula_sum "Si O2"
_cell_formula_units_Z 48
_cell_length_a 16.109338
_cell_length_b 30.375493
_cell_length_c 10.242722
_cell_angle_alpha 90.000000
_cell_angle_beta 35.716749
_cell_angle_gamma 90.000000
_cell_volume 2925.934298
_symmetry_space_group_name_H-M "C 2/C"
_symmetry_group_IT_number 15
_symmetry_cell_setting 'monoclinic'
loop_
_space_group_symop_operation_xyz
x,y,z
-x,y,1/2-z
-x,-y,-z
x,-y,1/2+z
1/2+x,1/2+y,z
1/2-x,1/2+y,1/2-z
1/2-x,1/2-y,-z
1/2+x,1/2-y,1/2+z
loop_
_atom_site_type_symbol
_atom_site_label
_atom_site_fract_x
_atom_site_fract_y
_atom_site_fract_z
Si Si1 0.422198 0.560366 0.487259
Si Si2 0.159467 0.810029 0.015067
Si Si3 0.158987 0.607330 0.211436
Si Si4 0.651903 0.785540 0.482123
Si Si5 0.389306 0.458369 0.511100
Si Si6 0.837535 0.379368 0.108278
O O1 0.500000 0.565236 0.250000
O O2 0.366040 0.509992 0.569266
O O3 0.535459 0.563996 0.460419
O O4 0.293768 0.594435 0.665024
O O5 0.224968 0.793779 0.069006
O O6 0.000000 0.825890 0.250000
O O7 0.260590 0.849019 0.838546
O O8 0.155948 0.765336 0.933897
O O9 0.992978 0.605498 0.456275
O O10 0.246871 0.566040 0.150272
O O11 0.168906 0.611979 0.040721
O O12 0.666727 0.826521 0.366392
O O13 0.500000 0.791129 0.750000
O O14 0.500000 0.455366 0.250000
#
# Coordination Sequence:
#
# PCOD9257025 Si02
#       6
#     8   8   8   8   8   8
#     4  10  22  36  52  74 103 136 169 213 259 305
#     4   9  16  23  42  73 110 129 158 206 260 299
#     4  10  18  30  51  79 104 131 170 212 257 300
#     4   9  15  27  41  71 110 133 155 203 265 302
#     4  10  19  35  56  77  98 129 178 217 250 303
#     4  10  18  32  49  73 107 138 164 210 259 302
#
# _framework density 16.405017000000001
#
# number of rings (size 3 to 8) (size 9 to 14) (size 15 to 20)
#    0.000    2.333    5.000    0.500    2.333    0.667 
#    0.000    0.833    0.000    0.000    0.000    4.667 
#    0.000    0.000    0.000    0.000    0.000    0.000 
#
# Total GULP energy -133645.046723 kJ/mol
# GULP energy per Si atom -5568.543613 kJ/mol
# Density = 1.636768 g / cm^3
# Si number density = 16.405017 Si / 1000 Ang^3
#
#
#
# Elastic Constant Matrix: (Units=GPa)
#
#
# Indices 1 2 3 4 5 6 
#
# 1 56.5833 22.7382 27.8046 0.0000 -18.2843 0.0000
# 2 22.7382 89.0218 45.0777 0.0000 -20.2852 0.0000
# 3 27.8046 45.0777 74.0182 0.0000 -22.6630 0.0000
# 4 0.0000 0.0000 0.0000 14.5749 0.0000 -10.8820
# 5 -18.2843 -20.2852 -22.6630 0.0000 29.0480 0.0000
# 6 0.0000 0.0000 0.0000 -10.8820 0.0000 18.3843
#
#
#
# Elastic Compliance Matrix: (Units=1/GPa)
#
#
# Indices 1 2 3 4 5 6 
#
# 1 0.023995 -0.001182 -0.005153 0.000000 0.010258 0.000000
# 2 -0.001182 0.016818 -0.008448 0.000000 0.004409 0.000000
# 3 -0.005153 -0.008448 0.023375 0.000000 0.009094 0.000000
# 4 0.000000 0.000000 0.000000 0.122946 0.000000 0.072774
# 5 0.010258 0.004409 0.009094 0.000000 0.051057 0.000000
# 6 0.000000 0.000000 0.000000 0.072774 0.000000 0.097470
#
#
# Mechanical properties :
#
#
# Convention : Reuss Voigt Hill
#
# Bulk Modulus (GPa) = 28.88364 45.65158 37.26761
# Shear Modulus (GPa) = 13.27078 20.66831 16.96954
#
# Velocity S-wave (km/s) = 2.84728 3.55333 3.21972
# Velocity P-wave (km/s) = 5.33425 6.68753 6.04885
#
# Compressibility (1/GPa) = 0.03462167
#
# Stress axis : x y z
#
# Youngs Moduli (GPa) = 41.67552 59.46127 42.78043
#
# Poissons Ratio (x) = 0.07029 0.22044
# Poissons Ratio (y) = 0.04927 0.36141
# Poissons Ratio (z) = 0.21475 0.50233
#
# Static dielectric constant tensor:
#      x y z
#    x 1.553850 0.000000 -0.014220 
#    y 0.000000 1.614710 0.000000 
#    z -0.014220 0.000000 1.526080 
# 
# From -- ./inp_files/108294.got.cif
#   From: 2010.05.17/outbox.cif.g08.bks.cpg/sg15_55_cif.got.tgz:108294.got - 2010.06.03 18:47:42.
