data_PCOD9257740
_publ_section_title
;
Structure prediction by ZEFSAII (Michael W. Deem and Ramdas Pophale) SiO2 
 PCOD9257740
Probable space group: C 2/C
;
_chemical_formula_sum "Si O2"
_cell_formula_units_Z 40
_cell_length_a 10.348823
_cell_length_b 17.993777
_cell_length_c 13.892913
_cell_angle_alpha 90.000000
_cell_angle_beta 41.054611
_cell_angle_gamma 90.000000
_cell_volume 1699.124712
_symmetry_space_group_name_H-M "C 2/C"
_symmetry_group_IT_number 15
_symmetry_cell_setting 'monoclinic'
loop_
_space_group_symop_operation_xyz
x,y,z
-x,y,1/2-z
-x,-y,-z
x,-y,1/2+z
1/2+x,1/2+y,z
1/2-x,1/2+y,1/2-z
1/2-x,1/2-y,-z
1/2+x,1/2-y,1/2+z
loop_
_atom_site_type_symbol
_atom_site_label
_atom_site_fract_x
_atom_site_fract_y
_atom_site_fract_z
Si Si1 0.794737 0.542209 0.908244
Si Si2 0.359904 0.410229 0.603733
Si Si3 0.274395 0.510610 0.349572
Si Si4 0.008232 0.213997 0.590720
Si Si5 0.803158 0.341006 0.096137
O O1 0.763473 0.453786 0.908258
O O2 0.000000 0.566741 0.750000
O O3 0.594112 0.570303 0.972416
O O4 0.793541 0.558003 0.021321
O O5 0.277406 0.444107 0.748981
O O6 0.378690 0.325725 0.562335
O O7 0.500000 0.492079 0.250000
O O8 0.174973 0.429719 0.405731
O O9 0.007356 0.298625 0.553923
O O10 0.147965 0.187519 0.600945
O O11 0.796456 0.185919 0.747264
#
# Coordination Sequence:
#
# PCOD9257740 Si02
#       5
#     8   8   8   8   8
#     4  10  20  33  54  85 116 151 197 245 288 341
#     4  10  20  37  57  80 123 160 190 237 304 344
#     4  10  18  35  57  85 119 154 191 242 293 348
#     4  10  19  33  53  82 115 157 183 229 295 360
#     4  10  18  32  52  82 117 148 186 231 292 350
#
# _framework density 23.541532
#
# number of rings (size 3 to 8) (size 9 to 14) (size 15 to 20)
#    0.000    2.000    4.000    2.400    0.000    2.400 
#    0.000    2.000    0.000    0.000    0.000   44.800 
#    0.000    0.000    0.000    0.000    0.000    0.000 
#
# Total GULP energy -111442.194754 kJ/mol
# GULP energy per Si atom -5572.109738 kJ/mol
# Density = 2.348795 g / cm^3
# Si number density = 23.541532 Si / 1000 Ang^3
#
#
#
# Elastic Constant Matrix: (Units=GPa)
#
#
# Indices 1 2 3 4 5 6 
#
# 1 66.8080 4.4135 32.8691 0.0003 5.3814 0.0000
# 2 4.4135 62.8142 10.8742 0.0002 18.8808 -0.0001
# 3 32.8691 10.8742 122.8865 0.0026 25.0718 -0.0005
# 4 0.0003 0.0002 0.0026 32.1293 -0.0007 12.8230
# 5 5.3814 18.8808 25.0718 -0.0007 33.8483 0.0000
# 6 0.0000 -0.0001 -0.0005 12.8230 0.0000 9.0114
#
#
#
# Elastic Compliance Matrix: (Units=1/GPa)
#
#
# Indices 1 2 3 4 5 6 
#
# 1 0.017284 -0.000753 -0.004808 0.000001 0.001233 -0.000001
# 2 -0.000753 0.019194 0.000781 -0.000001 -0.011165 0.000002
# 3 -0.004808 0.000781 0.010941 -0.000003 -0.007775 0.000005
# 4 0.000001 -0.000001 -0.000003 0.072033 0.000004 -0.102501
# 5 0.001233 -0.011165 -0.007775 0.000004 0.041335 -0.000006
# 6 -0.000001 0.000002 0.000005 -0.102501 -0.000006 0.256827
#
#
# Mechanical properties :
#
#
# Convention : Reuss Voigt Hill
#
# Bulk Modulus (GPa) = 26.41403 38.75802 32.58602
# Shear Modulus (GPa) = 11.36897 28.62126 19.99512
#
# Velocity S-wave (km/s) = 2.19996 3.49058 2.91753
# Velocity P-wave (km/s) = 4.20685 5.72232 5.02208
#
# Compressibility (1/GPa) = 0.03785867
#
# Stress axis : x y z
#
# Youngs Moduli (GPa) = 57.85619 52.10038 91.40035
#
# Poissons Ratio (x) = 0.03922 0.43947
# Poissons Ratio (y) = 0.04355 -0.07137
# Poissons Ratio (z) = 0.27818 -0.04068
#
# Static dielectric constant tensor:
#      x y z
#    x 1.912170 0.000000 -0.031400 
#    y 0.000000 1.979390 0.000000 
#    z -0.031400 0.000000 1.967150 
# 
# From -- ./inp_files/145379.got.cif
#   From: 2010.05.17/outbox.cif.g08.bks.cpg/sg15_73_cif.got.tgz:145379.got - 2010.06.03 18:47:42.
