data_PCOD9257553
_publ_section_title
;
Structure prediction by ZEFSAII (Michael W. Deem and Ramdas Pophale) SiO2 
 PCOD9257553
Probable space group: C 2/C
;
_chemical_formula_sum "Si O2"
_cell_formula_units_Z 28
_cell_length_a 17.696837
_cell_length_b 6.682364
_cell_length_c 14.801539
_cell_angle_alpha 90.000000
_cell_angle_beta 134.837128
_cell_angle_gamma 90.000000
_cell_volume 1241.219818
_symmetry_space_group_name_H-M "C 2/C"
_symmetry_group_IT_number 15
_symmetry_cell_setting 'monoclinic'
loop_
_space_group_symop_operation_xyz
x,y,z
-x,y,1/2-z
-x,-y,-z
x,-y,1/2+z
1/2+x,1/2+y,z
1/2-x,1/2+y,1/2-z
1/2-x,1/2-y,-z
1/2+x,1/2-y,1/2+z
loop_
_atom_site_type_symbol
_atom_site_label
_atom_site_fract_x
_atom_site_fract_y
_atom_site_fract_z
Si Si1 0.583361 0.382464 0.132821
Si Si2 0.769138 0.345545 0.865687
Si Si3 0.500000 0.543336 0.750000
Si Si4 0.619099 0.856856 0.362288
O O1 0.684189 0.520605 0.242821
O O2 0.633483 0.206082 0.117269
O O3 0.532053 0.340760 0.187184
O O4 0.500000 0.500000 0.000000
O O5 0.699415 0.156258 0.845456
O O6 0.821893 0.438363 0.000313
O O7 0.407852 0.382168 0.644878
O O8 0.500000 0.938722 0.250000
#
# Coordination Sequence:
#
# PCOD9257553 Si02
#       4
#     8   8   4   8
#     4  11  20  36  56  83 112 142 181 229 265 327
#     4  10  18  31  59  81 105 144 185 214 283 313
#     4   8  16  32  58  72 110 142 178 218 270 308
#     4   8  15  32  54  79  97 143 191 220 243 335
#
# _framework density 22.558451999999999
#
# number of rings (size 3 to 8) (size 9 to 14) (size 15 to 20)
#    0.857    1.714    2.857    0.000    0.000    0.000 
#    0.000    7.143    3.143    0.000    0.000    0.000 
#    0.000    0.000    0.000    0.000    0.000    0.000 
#
# Total GULP energy -77990.327415 kJ/mol
# GULP energy per Si atom -5570.737673 kJ/mol
# Density = 2.250711 g / cm^3
# Si number density = 22.558452 Si / 1000 Ang^3
#
#
#
# Elastic Constant Matrix: (Units=GPa)
#
#
# Indices 1 2 3 4 5 6 
#
# 1 157.8194 14.0737 15.8919 0.0000 -15.3748 0.0000
# 2 14.0737 16.4293 1.0540 0.0000 -4.4433 0.0000
# 3 15.8919 1.0540 141.7933 0.0000 16.1197 0.0000
# 4 0.0000 0.0000 0.0000 9.9402 0.0000 4.3312
# 5 -15.3748 -4.4433 16.1197 0.0000 40.8217 0.0000
# 6 0.0000 0.0000 0.0000 4.3312 0.0000 27.3098
#
#
#
# Elastic Compliance Matrix: (Units=1/GPa)
#
#
# Indices 1 2 3 4 5 6 
#
# 1 0.007169 -0.005390 -0.001051 0.000000 0.002528 0.000000
# 2 -0.005390 0.066995 -0.000515 0.000000 0.005466 0.000000
# 3 -0.001051 -0.000515 0.007565 0.000000 -0.003439 0.000000
# 4 0.000000 0.000000 0.000000 0.108070 0.000000 -0.017139
# 5 0.002528 0.005466 -0.003439 0.000000 0.027402 0.000000
# 6 0.000000 0.000000 0.000000 -0.017139 0.000000 0.039335
#
#
# Mechanical properties :
#
#
# Convention : Reuss Voigt Hill
#
# Bulk Modulus (GPa) = 14.74552 42.00904 28.37728
# Shear Modulus (GPa) = 17.06165 34.61581 25.83873
#
# Velocity S-wave (km/s) = 2.75313 3.92151 3.38807
# Velocity P-wave (km/s) = 4.08131 6.25836 5.28319
#
# Compressibility (1/GPa) = 0.06781722
#
# Stress axis : x y z
#
# Youngs Moduli (GPa) = 139.48638 14.92642 132.18570
#
# Poissons Ratio (x) = 0.08045 0.13891
# Poissons Ratio (y) = 0.75184 0.06811
# Poissons Ratio (z) = 0.14658 0.00769
#
# Static dielectric constant tensor:
#      x y z
#    x 1.911740 0.000000 0.007410 
#    y 0.000000 1.917150 0.000000 
#    z 0.007410 0.000000 1.827540 
# 
# From -- ./inp_files/93319.got.cif
#   From: 2010.05.17/outbox.cif.g08.bks.cpg/sg15_47_cif.got.tgz:93319.got - 2010.06.03 18:47:42.
