data_PCOD9257689
_publ_section_title
;
Structure prediction by ZEFSAII (Michael W. Deem and Ramdas Pophale) SiO2 
 PCOD9257689
Probable space group: C 2/C
;
_chemical_formula_sum "Si O2"
_cell_formula_units_Z 56
_cell_length_a 29.452198
_cell_length_b 17.696661
_cell_length_c 8.737261
_cell_angle_alpha 90.000000
_cell_angle_beta 148.861328
_cell_angle_gamma 90.000000
_cell_volume 2354.877151
_symmetry_space_group_name_H-M "C 2/C"
_symmetry_group_IT_number 15
_symmetry_cell_setting 'monoclinic'
loop_
_space_group_symop_operation_xyz
x,y,z
-x,y,1/2-z
-x,-y,-z
x,-y,1/2+z
1/2+x,1/2+y,z
1/2-x,1/2+y,1/2-z
1/2-x,1/2-y,-z
1/2+x,1/2-y,1/2+z
loop_
_atom_site_type_symbol
_atom_site_label
_atom_site_fract_x
_atom_site_fract_y
_atom_site_fract_z
Si Si1 0.000000 0.165060 0.750000
Si Si2 0.385948 0.175593 0.236604
Si Si3 0.500000 0.945388 0.250000
Si Si4 0.860797 0.550461 0.575349
Si Si5 0.304082 0.786973 0.801887
Si Si6 0.473376 0.313293 0.841645
Si Si7 0.300859 0.924059 0.228963
Si Si8 0.188673 0.809197 0.742710
O O1 0.989465 0.135656 0.541425
O O2 0.910079 0.209511 0.504608
O O3 0.434854 0.107333 0.463497
O O4 0.307281 0.198258 0.128377
O O5 0.460648 0.240776 0.448409
O O6 0.345593 0.139574 0.966165
O O7 0.557820 0.982749 0.284149
O O8 0.853641 0.637864 0.510916
O O9 0.783932 0.496803 0.286561
O O10 0.859547 0.551341 0.752893
O O11 0.214615 0.800083 0.640756
O O12 0.372732 0.718899 0.039557
O O13 0.500000 0.345050 0.750000
O O14 0.216291 0.888478 0.898870
O O15 0.250000 0.750000 0.000000
#
# Coordination Sequence:
#
# PCOD9257689 Si02
#       8
#     4   8   4   8   8   8   8   8
#     4  12  24  40  69  86 132 166 219 274 322 378
#     4  10  18  33  55  88 126 170 199 257 305 384
#     4  10  18  32  51  88 128 160 213 238 310 392
#     4  10  20  35  51  84 119 166 201 259 308 380
#     4   9  18  38  58  85 128 155 209 251 311 382
#     4  10  19  36  58  91 126 166 209 257 316 383
#     4  11  24  37  59  83 127 170 215 261 323 385
#     4  11  23  43  62  97 124 170 215 263 323 387
#
# _framework density 23.780435000000001
#
# number of rings (size 3 to 8) (size 9 to 14) (size 15 to 20)
#    0.000    1.714    5.000    2.571    2.000    2.857 
#    2.571    2.143    0.000    3.429    0.000    0.000 
#    0.000    0.000    0.000    0.000    0.000    0.000 
#
# Total GULP energy -155977.158932 kJ/mol
# GULP energy per Si atom -5570.612819 kJ/mol
# Density = 2.372631 g / cm^3
# Si number density = 23.780435 Si / 1000 Ang^3
#
#
#
# Elastic Constant Matrix: (Units=GPa)
#
#
# Indices 1 2 3 4 5 6 
#
# 1 183.4093 18.7879 63.2748 0.0000 -20.5576 0.0000
# 2 18.7879 22.8816 -10.8265 0.0000 -9.1418 0.0000
# 3 63.2748 -10.8265 73.4144 0.0000 -1.2503 0.0000
# 4 0.0000 0.0000 0.0000 -159.3830 0.0000 40.0649
# 5 -20.5576 -9.1418 -1.2503 0.0000 74.2089 0.0000
# 6 0.0000 0.0000 0.0000 40.0649 0.0000 6.9051
#
#
#
# Elastic Compliance Matrix: (Units=1/GPa)
#
#
# Indices 1 2 3 4 5 6 
#
# 1 0.010990 -0.014026 -0.011521 0.000000 0.001122 0.000000
# 2 -0.014026 0.067622 0.022143 0.000000 0.004818 0.000000
# 3 -0.011521 0.022143 0.026817 0.000000 -0.000012 0.000000
# 4 0.000000 0.000000 0.000000 -0.002552 0.000000 0.014807
# 5 0.001122 0.004818 -0.000012 0.000000 0.014380 0.000000
# 6 0.000000 0.000000 0.000000 0.014807 0.000000 0.058905
#
#
# Mechanical properties :
#
#
# Convention : Reuss Voigt Hill
#
# Bulk Modulus (GPa) = 10.13989 46.90864 28.52427
# Shear Modulus (GPa) = 23.16503 -1.75585 10.70459
#
# Velocity S-wave (km/s) = 3.12448 -0.86021 2.12396
# Velocity P-wave (km/s) = 4.15809 4.33381 4.24686
#
# Compressibility (1/GPa) = 0.09862036
#
# Stress axis : x y z
#
# Youngs Moduli (GPa) = 90.99500 14.78803 37.29044
#
# Poissons Ratio (x) = 0.20742 0.42963
# Poissons Ratio (y) = 1.27633 -0.82574
# Poissons Ratio (z) = 1.04837 -0.32746
#
# Static dielectric constant tensor:
#      x y z
#    x 2.026390 0.000000 0.021390 
#    y 0.000000 1.991540 0.000000 
#    z 0.021390 0.000000 2.100260 
# 
# From -- ./inp_files/70858.got.cif
#   From: 2010.05.17/outbox.cif.g08.bks.cpg/sg15_36_cif.got.tgz:70858.got - 2010.06.03 18:47:42.
