data_PCOD9257799
_publ_section_title
;
Structure prediction by ZEFSAII (Michael W. Deem and Ramdas Pophale) SiO2 
 PCOD9257799
Probable space group: C 2/C
;
_chemical_formula_sum "Si O2"
_cell_formula_units_Z 40
_cell_length_a 22.043375
_cell_length_b 9.648743
_cell_length_c 13.307426
_cell_angle_alpha 90.000000
_cell_angle_beta 34.081991
_cell_angle_gamma 90.000000
_cell_volume 1586.077858
_symmetry_space_group_name_H-M "C 2/C"
_symmetry_group_IT_number 15
_symmetry_cell_setting 'monoclinic'
loop_
_space_group_symop_operation_xyz
x,y,z
-x,y,1/2-z
-x,-y,-z
x,-y,1/2+z
1/2+x,1/2+y,z
1/2-x,1/2+y,1/2-z
1/2-x,1/2-y,-z
1/2+x,1/2-y,1/2+z
loop_
_atom_site_type_symbol
_atom_site_label
_atom_site_fract_x
_atom_site_fract_y
_atom_site_fract_z
Si Si1 0.311985 0.625000 0.250000
Si Si2 0.573941 0.094538 0.504165
Si Si3 0.116740 0.831615 0.287087
Si Si4 0.328106 0.655461 0.995835
Si Si5 0.653828 0.918385 0.212913
O O1 0.181471 0.609176 0.422648
O O2 0.377458 0.492080 0.196246
O O3 0.354118 0.640823 0.077352
O O4 0.323704 0.757919 0.303754
O O5 0.565990 0.232639 0.442238
O O6 0.453307 0.064581 0.708393
O O7 0.608772 0.970861 0.382478
O O8 0.241251 0.779139 0.117521
O O9 0.088299 0.814582 0.208393
O O10 0.258228 0.517360 0.057762
#
# Coordination Sequence:
#
# PCOD9257799 Si02
#       5
#     8   8   8   8   8
#     4  10  18  32  54  76 102 140 176 224 274 314
#     4   9  17  33  51  73 103 138 175 216 266 326
#     4   9  18  31  52  75 101 137 177 217 266 321
#     4   9  17  33  51  73 103 138 175 216 266 326
#     4   9  18  31  52  75 101 137 177 217 266 321
#
# _framework density 25.219443999999999
#
# number of rings (size 3 to 8) (size 9 to 14) (size 15 to 20)
#    0.000    3.200    0.000    4.800    0.000    1.600 
#    0.000    2.000    0.000   19.200    0.000    0.000 
#    0.000    0.000    0.000    0.000    0.000    0.000 
#
# Total GULP energy -111572.093548 kJ/mol
# GULP energy per Si atom -5578.604677 kJ/mol
# Density = 2.516204 g / cm^3
# Si number density = 25.219444 Si / 1000 Ang^3
#
#
#
# Elastic Constant Matrix: (Units=GPa)
#
#
# Indices 1 2 3 4 5 6 
#
# 1 47.9869 -3.8943 23.9650 0.0000 -2.4804 0.0000
# 2 -3.8943 154.6548 -2.1203 0.0000 -0.0818 0.0000
# 3 23.9650 -2.1203 115.7206 0.0000 -0.6517 0.0000
# 4 0.0000 0.0000 0.0000 -0.5160 0.0000 0.2285
# 5 -2.4804 -0.0818 -0.6517 0.0000 38.7445 0.0000
# 6 0.0000 0.0000 0.0000 0.2285 0.0000 4.4241
#
#
#
# Elastic Compliance Matrix: (Units=1/GPa)
#
#
# Indices 1 2 3 4 5 6 
#
# 1 0.023362 0.000523 -0.004821 0.000000 0.001416 0.000000
# 2 0.000523 0.006479 0.000011 0.000000 0.000047 0.000000
# 3 -0.004821 0.000011 0.009639 0.000000 -0.000146 0.000000
# 4 0.000000 0.000000 0.000000 -1.894700 0.000000 0.097844
# 5 0.001416 0.000047 -0.000146 0.000000 0.025898 0.000000
# 6 0.000000 0.000000 0.000000 0.097844 0.000000 0.220983
#
#
# Mechanical properties :
#
#
# Convention : Reuss Voigt Hill
#
# Bulk Modulus (GPa) = 32.35547 39.36256 35.85901
# Shear Modulus (GPa) = -3.14572 28.55799 12.70613
#
# Velocity S-wave (km/s) = -1.11805 3.36874 2.24704
# Velocity P-wave (km/s) = 3.34525 5.54735 4.58060
#
# Compressibility (1/GPa) = 0.03090668
#
# Stress axis : x y z
#
# Youngs Moduli (GPa) = 42.80446 154.33640 103.74320
#
# Poissons Ratio (x) = -0.08071 0.50010
# Poissons Ratio (y) = -0.02238 -0.00111
# Poissons Ratio (z) = 0.20634 -0.00165
#
# Static dielectric constant tensor:
#      x y z
#    x 2.077060 0.000000 -0.003300 
#    y 0.000000 1.945930 0.000000 
#    z -0.003300 0.000000 2.148290 
# 
# From -- ./inp_files/166019.got.cif
#   From: 2010.05.17/outbox.cif.g08.bks.cpg/sg15_84_cif.got.tgz:166019.got - 2010.06.03 18:47:42.
