data_PCOD9257040
_publ_section_title
;
Structure prediction by ZEFSAII (Michael W. Deem and Ramdas Pophale) SiO2 
 PCOD9257040
Probable space group: C 2/C
;
_chemical_formula_sum "Si O2"
_cell_formula_units_Z 64
_cell_length_a 25.772795
_cell_length_b 9.414507
_cell_length_c 13.839228
_cell_angle_alpha 90.000000
_cell_angle_beta 45.572842
_cell_angle_gamma 90.000000
_cell_volume 2398.031647
_symmetry_space_group_name_H-M "C 2/C"
_symmetry_group_IT_number 15
_symmetry_cell_setting 'monoclinic'
loop_
_space_group_symop_operation_xyz
x,y,z
-x,y,1/2-z
-x,-y,-z
x,-y,1/2+z
1/2+x,1/2+y,z
1/2-x,1/2+y,1/2-z
1/2-x,1/2-y,-z
1/2+x,1/2-y,1/2+z
loop_
_atom_site_type_symbol
_atom_site_label
_atom_site_fract_x
_atom_site_fract_y
_atom_site_fract_z
Si Si1 0.972331 0.788321 0.484372
Si Si2 0.963210 0.809888 0.897055
Si Si3 0.617044 0.633723 0.706509
Si Si4 0.844525 0.552234 0.264821
Si Si5 0.327854 0.751271 0.062451
Si Si6 0.010529 0.505448 0.341052
Si Si7 0.184463 0.297602 0.874895
Si Si8 0.243040 0.481362 0.954397
O O1 0.889915 0.781028 0.560106
O O2 0.992096 0.621803 0.444786
O O3 0.990740 0.839971 0.567291
O O4 0.031165 0.868771 0.339476
O O5 0.966447 0.637545 0.885845
O O6 0.000000 0.862758 0.750000
O O7 0.877370 0.823428 0.032463
O O8 0.641096 0.782571 0.725842
O O9 0.639907 0.654421 0.566204
O O10 0.672272 0.515016 0.674276
O O11 0.843630 0.563132 0.150910
O O12 0.773268 0.495346 0.410376
O O13 0.907693 0.466235 0.236730
O O14 0.253974 0.735122 0.218625
O O15 0.307341 0.894117 0.028122
O O16 0.000000 0.580334 0.250000
O O17 0.213667 0.342168 0.941218
#
# Coordination Sequence:
#
# PCOD9257040 Si02
#       8
#     8   8   8   8   8   8   8   8
#     4  11  20  33  60  82 111 147 193 248 289 329
#     4  11  22  36  51  80 122 155 182 228 292 361
#     4  10  18  38  60  85 114 146 191 247 293 327
#     4  10  18  34  56  82 117 146 189 237 280 345
#     4  11  21  37  60  92 111 147 198 245 286 346
#     4  10  18  30  51  85 114 142 182 231 295 355
#     4  12  22  37  58  85 119 151 194 233 288 350
#     4  11  20  34  60  84 119 157 184 237 302 330
#
# _framework density 26.688554
#
# number of rings (size 3 to 8) (size 9 to 14) (size 15 to 20)
#    0.000    1.250    5.000    6.000    1.750    0.000 
#    0.000    1.250    2.750    0.000    0.000    0.000 
#    0.000    0.000    0.000    0.000    0.000    0.000 
#
# Total GULP energy -178720.091722 kJ/mol
# GULP energy per Si atom -5585.002866 kJ/mol
# Density = 2.662781 g / cm^3
# Si number density = 26.688554 Si / 1000 Ang^3
#
#
#
# Elastic Constant Matrix: (Units=GPa)
#
#
# Indices 1 2 3 4 5 6 
#
# 1 114.9989 -0.6884 68.4961 0.0000 -19.3748 0.0000
# 2 -0.6884 45.0064 7.6124 0.0000 3.5688 0.0000
# 3 68.4961 7.6124 181.8088 0.0000 -6.9247 0.0000
# 4 0.0000 0.0000 0.0000 16.7784 0.0000 5.2593
# 5 -19.3748 3.5688 -6.9247 0.0000 53.0926 0.0000
# 6 0.0000 0.0000 0.0000 5.2593 0.0000 17.9674
#
#
#
# Elastic Compliance Matrix: (Units=1/GPa)
#
#
# Indices 1 2 3 4 5 6 
#
# 1 0.011940 0.000627 -0.004382 0.000000 0.003744 0.000000
# 2 0.000627 0.022553 -0.001236 0.000000 -0.001448 0.000000
# 3 -0.004382 -0.001236 0.007181 0.000000 -0.000580 0.000000
# 4 0.000000 0.000000 0.000000 0.065621 0.000000 -0.019208
# 5 0.003744 -0.001448 -0.000580 0.000000 0.020223 0.000000
# 6 0.000000 0.000000 0.000000 -0.019208 0.000000 0.061279
#
#
# Mechanical properties :
#
#
# Convention : Reuss Voigt Hill
#
# Bulk Modulus (GPa) = 31.55362 54.73937 43.14650
# Shear Modulus (GPa) = 23.88426 35.32727 29.60577
#
# Velocity S-wave (km/s) = 2.99478 3.64220 3.33424
# Velocity P-wave (km/s) = 4.87922 6.18405 5.56997
#
# Compressibility (1/GPa) = 0.03169208
#
# Stress axis : x y z
#
# Youngs Moduli (GPa) = 83.74983 44.34095 139.25796
#
# Poissons Ratio (x) = -0.02780 0.61025
# Poissons Ratio (y) = -0.05251 0.17208
# Poissons Ratio (z) = 0.36700 0.05479
#
# Static dielectric constant tensor:
#      x y z
#    x 2.145840 0.000000 -0.062080 
#    y 0.000000 2.157940 0.000000 
#    z -0.062080 0.000000 2.182820 
# 
# From -- ./inp_files/178165.got.cif
#   From: 2010.05.17/outbox.cif.g08.bks.cpg/sg15_90_cif.got.tgz:178165.got - 2010.06.03 18:47:42.
