data_PCOD9257798
_publ_section_title
;
Structure prediction by ZEFSAII (Michael W. Deem and Ramdas Pophale) SiO2 
 PCOD9257798
Probable space group: C 2/C
;
_chemical_formula_sum "Si O2"
_cell_formula_units_Z 48
_cell_length_a 13.100431
_cell_length_b 17.307534
_cell_length_c 11.975063
_cell_angle_alpha 90.000000
_cell_angle_beta 80.342215
_cell_angle_gamma 90.000000
_cell_volume 2676.698429
_symmetry_space_group_name_H-M "C 2/C"
_symmetry_group_IT_number 15
_symmetry_cell_setting 'monoclinic'
loop_
_space_group_symop_operation_xyz
x,y,z
-x,y,1/2-z
-x,-y,-z
x,-y,1/2+z
1/2+x,1/2+y,z
1/2-x,1/2+y,1/2-z
1/2-x,1/2-y,-z
1/2+x,1/2-y,1/2+z
loop_
_atom_site_type_symbol
_atom_site_label
_atom_site_fract_x
_atom_site_fract_y
_atom_site_fract_z
Si Si1 0.423298 0.609256 0.529880
Si Si2 0.352574 0.772496 0.549394
Si Si3 0.644643 0.442151 0.911964
Si Si4 0.718282 0.398542 0.664411
Si Si5 0.977615 0.395300 0.386263
Si Si6 0.337692 0.972243 0.019854
O O1 0.402327 0.693506 0.584406
O O2 0.374316 0.534587 0.598991
O O3 0.543712 0.591268 0.491116
O O4 0.364425 0.611296 0.420658
O O5 0.250000 0.750000 0.500000
O O6 0.306175 0.832454 0.646967
O O7 0.426895 0.819365 0.451281
O O8 0.659403 0.403570 0.790350
O O9 0.748536 0.432326 0.964365
O O10 0.779655 0.476874 0.624182
O O11 0.899070 0.466265 0.429659
O O12 0.000000 0.388650 0.250000
O O13 0.081180 0.416635 0.435265
#
# Coordination Sequence:
#
# PCOD9257798 Si02
#       6
#     8   8   8   8   8   8
#     4   9  19  33  52  79 103 130 172 212 242 293
#     4   9  19  34  51  76 102 126 172 220 245 288
#     4  10  18  32  54  75 104 137 164 203 254 304
#     4   9  17  32  54  76 101 135 171 207 249 293
#     4  10  19  33  54  74  98 134 172 212 255 298
#     4   9  19  32  49  78 104 128 171 214 249 298
#
# _framework density 17.932539999999999
#
# number of rings (size 3 to 8) (size 9 to 14) (size 15 to 20)
#    0.000    2.667    0.000    2.500    0.000    2.667 
#    0.000    0.833    0.000   12.000    0.000    0.000 
#    0.000    0.000    0.000    0.000    0.000    0.000 
#
# Total GULP energy -133741.957645 kJ/mol
# GULP energy per Si atom -5572.581569 kJ/mol
# Density = 1.789172 g / cm^3
# Si number density = 17.932540 Si / 1000 Ang^3
#
#
#
# Elastic Constant Matrix: (Units=GPa)
#
#
# Indices 1 2 3 4 5 6 
#
# 1 99.1372 17.8925 -0.5558 0.0000 -1.8061 0.0000
# 2 17.8925 60.4966 5.4322 0.0000 8.2450 0.0000
# 3 -0.5558 5.4322 37.5921 0.0000 -10.5695 0.0000
# 4 0.0000 0.0000 0.0000 2.9702 0.0000 2.4898
# 5 -1.8061 8.2450 -10.5695 0.0000 7.3702 0.0000
# 6 0.0000 0.0000 0.0000 2.4898 0.0000 22.1288
#
#
#
# Elastic Compliance Matrix: (Units=1/GPa)
#
#
# Indices 1 2 3 4 5 6 
#
# 1 0.011747 -0.006904 0.006957 0.000000 0.020579 0.000000
# 2 -0.006904 0.030373 -0.024330 0.000000 -0.070561 0.000000
# 3 0.006957 -0.024330 0.064263 0.000000 0.121081 0.000000
# 4 0.000000 0.000000 0.000000 0.371733 0.000000 -0.041825
# 5 0.020579 -0.070561 0.121081 0.000000 0.393300 0.000000
# 6 0.000000 0.000000 0.000000 -0.041825 0.000000 0.049896
#
#
# Mechanical properties :
#
#
# Convention : Reuss Voigt Hill
#
# Bulk Modulus (GPa) = 17.29198 26.97376 22.13287
# Shear Modulus (GPa) = 5.05489 18.12432 11.58961
#
# Velocity S-wave (km/s) = 1.68076 3.18259 2.54498
# Velocity P-wave (km/s) = 3.66474 5.34599 4.58312
#
# Compressibility (1/GPa) = 0.05783028
#
# Stress axis : x y z
#
# Youngs Moduli (GPa) = 85.12844 32.92389 15.56098
#
# Poissons Ratio (x) = 0.22730 -0.10826
# Poissons Ratio (y) = 0.58770 0.37860
# Poissons Ratio (z) = -0.59227 0.80104
#
# Static dielectric constant tensor:
#      x y z
#    x 1.610840 0.000000 -0.005330 
#    y 0.000000 1.651670 0.000000 
#    z -0.005330 0.000000 1.594260 
# 
# From -- ./inp_files/87246.got.cif
#   From: 2010.05.17/outbox.cif.g08.bks.cpg/sg15_44_cif.got.tgz:87246.got - 2010.06.03 18:47:42.
