data_PCOD9257602
_publ_section_title
;
Structure prediction by ZEFSAII (Michael W. Deem and Ramdas Pophale) SiO2 
 PCOD9257602
Probable space group: C 2/C
;
_chemical_formula_sum "Si O2"
_cell_formula_units_Z 48
_cell_length_a 6.981862
_cell_length_b 26.886672
_cell_length_c 11.424438
_cell_angle_alpha 90.000000
_cell_angle_beta 114.539430
_cell_angle_gamma 90.000000
_cell_volume 1950.876307
_symmetry_space_group_name_H-M "C 2/C"
_symmetry_group_IT_number 15
_symmetry_cell_setting 'monoclinic'
loop_
_space_group_symop_operation_xyz
x,y,z
-x,y,1/2-z
-x,-y,-z
x,-y,1/2+z
1/2+x,1/2+y,z
1/2-x,1/2+y,1/2-z
1/2-x,1/2-y,-z
1/2+x,1/2-y,1/2+z
loop_
_atom_site_type_symbol
_atom_site_label
_atom_site_fract_x
_atom_site_fract_y
_atom_site_fract_z
Si Si1 0.569875 0.396741 0.554426
Si Si2 0.009142 0.397167 0.001698
Si Si3 0.698852 0.416284 0.229466
Si Si4 0.929829 0.712439 0.416817
Si Si5 0.207353 0.468909 0.720299
Si Si6 0.351875 0.714624 0.362665
O O1 0.776431 0.399686 0.522455
O O2 0.369264 0.408386 0.421775
O O3 0.620085 0.436162 0.668073
O O4 0.565715 0.341605 0.606034
O O5 0.903846 0.345007 0.943853
O O6 0.868364 0.442830 0.918989
O O7 0.092369 0.396054 0.155304
O O8 0.500000 0.393951 0.250000
O O9 0.717546 0.474672 0.265171
O O10 0.140138 0.714947 0.389361
O O11 0.986137 0.747378 0.538991
O O12 0.734814 0.727834 0.286908
O O13 0.000000 0.469084 0.750000
#
# Coordination Sequence:
#
# PCOD9257602 Si02
#       6
#     8   8   8   8   8   8
#     4   9  17  29  43  62  91 122 149 184 230 270
#     4   9  17  29  43  62  91 122 149 184 230 270
#     4  10  20  30  45  69  93 119 154 192 223 260
#     4   9  16  25  39  60  87 119 150 179 219 273
#     4  10  18  32  49  63  89 127 156 182 225 272
#     4   9  16  25  39  60  87 119 150 179 219 273
#
# _framework density 24.604329
#
# number of rings (size 3 to 8) (size 9 to 14) (size 15 to 20)
#    0.000    2.667    1.667    1.000    2.333    0.000 
#    0.000    0.000    0.000    0.000    0.000    0.000 
#    0.000    8.000    0.000    0.000    0.000    0.000 
#
# Total GULP energy -134336.173343 kJ/mol
# GULP energy per Si atom -5597.340556 kJ/mol
# Density = 2.454833 g / cm^3
# Si number density = 24.604329 Si / 1000 Ang^3
#
#
#
# Elastic Constant Matrix: (Units=GPa)
#
#
# Indices 1 2 3 4 5 6 
#
# 1 99.1485 -12.9266 38.0638 0.0000 11.5095 0.0000
# 2 -12.9266 64.4689 44.4523 0.0000 1.8095 0.0000
# 3 38.0638 44.4523 233.0980 0.0000 8.7256 0.0000
# 4 0.0000 0.0000 0.0000 45.1431 0.0000 -8.5968
# 5 11.5095 1.8095 8.7256 0.0000 43.6617 0.0000
# 6 0.0000 0.0000 0.0000 -8.5968 0.0000 -4.1161
#
#
#
# Elastic Compliance Matrix: (Units=1/GPa)
#
#
# Indices 1 2 3 4 5 6 
#
# 1 0.012007 0.004336 -0.002682 0.000000 -0.002809 0.000000
# 2 0.004336 0.019426 -0.004372 0.000000 -0.001074 0.000000
# 3 -0.002682 -0.004372 0.005570 0.000000 -0.000225 0.000000
# 4 0.000000 0.000000 0.000000 0.015848 0.000000 -0.033101
# 5 -0.002809 -0.001074 -0.000225 0.000000 0.023733 0.000000
# 6 0.000000 0.000000 0.000000 -0.033101 0.000000 -0.173816
#
#
# Mechanical properties :
#
#
# Convention : Reuss Voigt Hill
#
# Bulk Modulus (GPa) = 31.68028 59.54382 45.61205
# Shear Modulus (GPa) = -61.52159 38.74614 -11.38772
#
# Velocity S-wave (km/s) = -5.00586 3.97264 -2.15369
# Velocity P-wave (km/s) = 4.52854 6.73020 3.52050
#
# Compressibility (1/GPa) = 0.03156538
#
# Stress axis : x y z
#
# Youngs Moduli (GPa) = 83.28450 51.47814 179.52342
#
# Poissons Ratio (x) = -0.22321 0.48156
# Poissons Ratio (y) = -0.36112 0.78494
# Poissons Ratio (z) = 0.22340 0.22508
#
# Static dielectric constant tensor:
#      x y z
#    x 1.614450 0.000000 -4.612400 
#    y 0.000000 1.856140 0.000000 
#    z -4.612400 0.000000 -47.878440 
# 
# From -- ./inp_files/201135.got.cif
#   From: 2010.05.17/outbox.cif.g08.bks.cpg/sg15_101_cif.got.tgz:201135.got - 2010.06.03 18:47:42.
