data_PCOD9257053
_publ_section_title
;
Structure prediction by ZEFSAII (Michael W. Deem and Ramdas Pophale) SiO2 
 PCOD9257053
Probable space group: C 2/C
;
_chemical_formula_sum "Si O2"
_cell_formula_units_Z 60
_cell_length_a 12.719166
_cell_length_b 19.706740
_cell_length_c 14.220217
_cell_angle_alpha 90.000000
_cell_angle_beta 115.753288
_cell_angle_gamma 90.000000
_cell_volume 3210.309749
_symmetry_space_group_name_H-M "C 2/C"
_symmetry_group_IT_number 15
_symmetry_cell_setting 'monoclinic'
loop_
_space_group_symop_operation_xyz
x,y,z
-x,y,1/2-z
-x,-y,-z
x,-y,1/2+z
1/2+x,1/2+y,z
1/2-x,1/2+y,1/2-z
1/2-x,1/2-y,-z
1/2+x,1/2-y,1/2+z
loop_
_atom_site_type_symbol
_atom_site_label
_atom_site_fract_x
_atom_site_fract_y
_atom_site_fract_z
Si Si1 0.708055 0.789586 0.622466
Si Si2 0.477107 0.887645 0.030232
Si Si3 0.873959 0.008410 0.233752
Si Si4 0.170295 0.471998 0.012808
Si Si5 0.500000 0.108272 0.750000
Si Si6 0.757541 0.467148 0.132363
Si Si7 0.584815 0.334564 0.703821
Si Si8 0.137823 0.160523 0.496045
O O1 0.597971 0.839066 0.566078
O O2 0.791097 0.797390 0.745236
O O3 0.790551 0.812536 0.566760
O O4 0.667704 0.713211 0.589714
O O5 0.596738 0.910244 0.027099
O O6 0.487763 0.857511 0.141250
O O7 0.408729 0.959265 0.016270
O O8 0.779604 0.987528 0.120575
O O9 0.825800 0.982719 0.313830
O O10 0.000000 0.982963 0.250000
O O11 0.885028 0.089605 0.249077
O O12 0.212113 0.468470 0.921254
O O13 0.618675 0.064218 0.786004
O O14 0.690084 0.412125 0.042351
O O15 0.500000 0.302010 0.750000
O O16 0.499399 0.339823 0.581697
#
# Coordination Sequence:
#
# PCOD9257053 Si02
#       8
#     8   8   8   8   4   8   8   8
#     4  10  18  33  52  74 109 150 184 229 278 336
#     4  10  18  32  52  76 111 147 183 231 285 330
#     4  11  21  34  57  80 114 151 182 228 286 345
#     4  10  19  33  51  77 114 143 182 235 277 333
#     4  10  18  30  52  78 116 140 180 236 274 338
#     4  11  21  35  52  87 114 148 188 230 287 339
#     4   9  18  33  48  72 105 140 178 218 277 329
#     4  10  20  32  48  78 111 143 186 230 275 337
#
# _framework density 18.689785000000001
#
# number of rings (size 3 to 8) (size 9 to 14) (size 15 to 20)
#    0.000    1.867    5.333    1.600    0.000    3.200 
#    2.400    0.000    0.000    0.000    3.467    1.867 
#    0.000    0.000    0.000    0.000    0.000    0.000 
#
# Total GULP energy -167166.617618 kJ/mol
# GULP energy per Si atom -5572.220587 kJ/mol
# Density = 1.864725 g / cm^3
# Si number density = 18.689785 Si / 1000 Ang^3
#
#
#
# Elastic Constant Matrix: (Units=GPa)
#
#
# Indices 1 2 3 4 5 6 
#
# 1 105.3763 20.5478 53.3895 0.0000 9.6805 0.0000
# 2 20.5478 31.6512 13.3869 0.0000 12.7364 0.0000
# 3 53.3895 13.3869 97.0259 0.0000 31.5488 0.0000
# 4 0.0000 0.0000 0.0000 4.7332 0.0000 -4.8013
# 5 9.6805 12.7364 31.5488 0.0000 36.9086 0.0000
# 6 0.0000 0.0000 0.0000 -4.8013 0.0000 9.1253
#
#
#
# Elastic Compliance Matrix: (Units=1/GPa)
#
#
# Indices 1 2 3 4 5 6 
#
# 1 0.015425 -0.008856 -0.009617 0.000000 0.007231 0.000000
# 2 -0.008856 0.041894 0.004208 0.000000 -0.015731 0.000000
# 3 -0.009617 0.004208 0.020317 0.000000 -0.016296 0.000000
# 4 0.000000 0.000000 0.000000 0.453099 0.000000 0.238397
# 5 0.007231 -0.015731 -0.016296 0.000000 0.044555 0.000000
# 6 0.000000 0.000000 0.000000 0.238397 0.000000 0.235017
#
#
# Mechanical properties :
#
#
# Convention : Reuss Voigt Hill
#
# Bulk Modulus (GPa) = 20.36437 45.41131 32.88784
# Shear Modulus (GPa) = 5.84655 19.93538 12.89096
#
# Velocity S-wave (km/s) = 1.77059 3.26950 2.62913
# Velocity P-wave (km/s) = 3.88583 6.21313 5.18182
#
# Compressibility (1/GPa) = 0.04910537
#
# Stress axis : x y z
#
# Youngs Moduli (GPa) = 64.83028 23.86980 49.22096
#
# Poissons Ratio (x) = 0.21139 0.47336
# Poissons Ratio (y) = 0.57413 -0.20711
# Poissons Ratio (z) = 0.62347 -0.10044
#
# Static dielectric constant tensor:
#      x y z
#    x 1.668530 0.000000 -0.000920 
#    y 0.000000 1.654430 0.000000 
#    z -0.000920 0.000000 1.711510 
# 
# From -- ./inp_files/147182.got.cif
#   From: 2010.05.17/outbox.cif.g08.bks.cpg/sg15_74_cif.got.tgz:147182.got - 2010.06.03 18:47:42.
