data_PCOD9257140
_publ_section_title
;
Structure prediction by ZEFSAII (Michael W. Deem and Ramdas Pophale) SiO2 
 PCOD9257140
Probable space group: C 2/C
;
_chemical_formula_sum "Si O2"
_cell_formula_units_Z 56
_cell_length_a 10.068424
_cell_length_b 16.375923
_cell_length_c 28.250027
_cell_angle_alpha 90.000000
_cell_angle_beta 141.604454
_cell_angle_gamma 90.000000
_cell_volume 2892.933761
_symmetry_space_group_name_H-M "C 2/C"
_symmetry_group_IT_number 15
_symmetry_cell_setting 'monoclinic'
loop_
_space_group_symop_operation_xyz
x,y,z
-x,y,1/2-z
-x,-y,-z
x,-y,1/2+z
1/2+x,1/2+y,z
1/2-x,1/2+y,1/2-z
1/2-x,1/2-y,-z
1/2+x,1/2-y,1/2+z
loop_
_atom_site_type_symbol
_atom_site_label
_atom_site_fract_x
_atom_site_fract_y
_atom_site_fract_z
Si Si1 0.740263 0.235305 0.607142
Si Si2 0.192079 0.840729 0.201406
Si Si3 0.632042 0.165281 0.484865
Si Si4 0.673563 0.695345 0.330563
Si Si5 0.564525 0.380580 0.992323
Si Si6 0.502109 0.458334 0.075444
Si Si7 0.001137 0.294651 0.365822
O O1 0.610911 0.177052 0.535129
O O2 0.648321 0.324280 0.566549
O O3 0.666193 0.225547 0.639976
O O4 0.984444 0.206968 0.665404
O O5 0.273499 0.779543 0.182996
O O6 0.372016 0.850194 0.291722
O O7 0.128520 0.923393 0.156124
O O8 0.750000 0.250000 0.500000
O O9 0.401596 0.154670 0.398529
O O10 0.778613 0.088840 0.516132
O O11 0.500000 0.650493 0.250000
O O12 0.576492 0.719136 0.354072
O O13 0.532336 0.446301 0.941990
O O14 0.595167 0.425235 0.051582
O O15 0.783167 0.329359 0.050229
#
# Coordination Sequence:
#
# PCOD9257140 Si02
#       7
#     8   8   8   8   8   8   8
#     4  11  20  34  59  86 113 146 191 250 284 339
#     4  10  19  37  58  81 113 159 199 226 297 356
#     4  11  16  34  56  81 111 154 198 231 280 355
#     4  10  18  30  55  82 105 146 197 244 278 332
#     4  11  20  34  57  91 116 143 197 246 292 336
#     4  10  20  34  60  83 113 158 193 233 293 359
#     4  11  21  33  58  86 116 145 199 252 287 330
#
# _framework density 19.357512
#
# number of rings (size 3 to 8) (size 9 to 14) (size 15 to 20)
#    0.000    1.429    7.143    0.857    0.000    0.000 
#    0.000    2.857   18.857    0.000    0.000    0.000 
#    0.000    0.000    0.000    0.000    0.000    0.000 
#
# Total GULP energy -155958.874046 kJ/mol
# GULP energy per Si atom -5569.959787 kJ/mol
# Density = 1.931345 g / cm^3
# Si number density = 19.357512 Si / 1000 Ang^3
#
#
#
# Elastic Constant Matrix: (Units=GPa)
#
#
# Indices 1 2 3 4 5 6 
#
# 1 90.6243 7.7186 2.6919 0.0000 -6.2679 0.0000
# 2 7.7186 47.2380 11.9742 0.0000 0.4741 0.0000
# 3 2.6919 11.9742 82.6659 -0.0001 8.5166 0.0000
# 4 0.0000 0.0000 -0.0001 14.6860 0.0000 -4.6413
# 5 -6.2679 0.4741 8.5166 0.0000 30.5143 0.0000
# 6 0.0000 0.0000 0.0000 -4.6413 0.0000 23.9882
#
#
#
# Elastic Compliance Matrix: (Units=1/GPa)
#
#
# Indices 1 2 3 4 5 6 
#
# 1 0.011368 -0.001790 -0.000365 0.000000 0.002465 0.000000
# 2 -0.001790 0.022268 -0.003185 0.000000 0.000175 0.000000
# 3 -0.000365 -0.003185 0.012945 0.000000 -0.003638 0.000000
# 4 0.000000 0.000000 0.000000 0.072527 0.000000 0.014033
# 5 0.002465 0.000175 -0.003638 0.000000 0.034291 0.000000
# 6 0.000000 0.000000 0.000000 0.014033 0.000000 0.044402
#
#
# Mechanical properties :
#
#
# Convention : Reuss Voigt Hill
#
# Bulk Modulus (GPa) = 27.85442 29.47753 28.66597
# Shear Modulus (GPa) = 22.68114 27.04727 24.86420
#
# Velocity S-wave (km/s) = 3.42672 3.74203 3.58784
# Velocity P-wave (km/s) = 5.48427 5.82507 5.65724
#
# Compressibility (1/GPa) = 0.03590094
#
# Stress axis : x y z
#
# Youngs Moduli (GPa) = 87.96370 44.90850 77.24989
#
# Poissons Ratio (x) = 0.08038 0.02819
# Poissons Ratio (y) = 0.15744 0.24606
# Poissons Ratio (z) = 0.03210 0.14304
#
# Static dielectric constant tensor:
#      x y z
#    x 1.722210 0.000000 -0.003020 
#    y 0.000000 1.677180 0.000000 
#    z -0.003020 0.000000 1.728630 
# 
# From -- ./inp_files/265492.got.cif
#   From: 2010.05.17/outbox.cif.g08.bks.cpg/sg15_133_cif.got.tgz:265492.got - 2010.06.03 18:47:42.
