data_PCOD9257227
_publ_section_title
;
Structure prediction by ZEFSAII (Michael W. Deem and Ramdas Pophale) SiO2 
 PCOD9257227
Probable space group: C 2/C
;
_chemical_formula_sum "Si O2"
_cell_formula_units_Z 64
_cell_length_a 25.230990
_cell_length_b 9.487620
_cell_length_c 15.196067
_cell_angle_alpha 90.000000
_cell_angle_beta 89.426184
_cell_angle_gamma 90.000000
_cell_volume 3637.483173
_symmetry_space_group_name_H-M "C 2/C"
_symmetry_group_IT_number 15
_symmetry_cell_setting 'monoclinic'
loop_
_space_group_symop_operation_xyz
x,y,z
-x,y,1/2-z
-x,-y,-z
x,-y,1/2+z
1/2+x,1/2+y,z
1/2-x,1/2+y,1/2-z
1/2-x,1/2-y,-z
1/2+x,1/2-y,1/2+z
loop_
_atom_site_type_symbol
_atom_site_label
_atom_site_fract_x
_atom_site_fract_y
_atom_site_fract_z
Si Si1 0.368929 0.259318 0.459835
Si Si2 0.212503 0.546840 0.127241
Si Si3 0.151366 0.068811 0.098539
Si Si4 0.059784 0.514008 0.029612
Si Si5 0.633331 0.098158 0.876242
Si Si6 0.708878 0.339949 0.442989
Si Si7 0.230559 0.405726 0.826650
Si Si8 0.384247 0.157103 0.823905
O O1 0.320751 0.167197 0.420406
O O2 0.369005 0.412669 0.418661
O O3 0.362788 0.241376 0.565872
O O4 0.422203 0.170025 0.438543
O O5 0.262465 0.487898 0.073880
O O6 0.231562 0.593694 0.222083
O O7 0.171552 0.416106 0.144433
O O8 0.211066 0.065826 0.136707
O O9 0.119446 0.176295 0.159937
O O10 0.157184 0.140483 0.001962
O O11 0.073970 0.410131 0.109166
O O12 0.098126 0.500665 0.942731
O O13 0.000000 0.500000 0.000000
O O14 0.609730 0.120681 0.779302
O O15 0.690015 0.024262 0.862143
O O16 0.750000 0.250000 0.500000
O O17 0.706504 0.245102 0.356621
#
# Coordination Sequence:
#
# PCOD9257227 Si02
#       8
#     8   8   8   8   8   8   8   8
#     4   9  21  36  51  83 113 143 193 241 285 332
#     4  10  19  33  49  74 114 149 201 228 264 330
#     4  11  21  32  54  78 122 158 186 230 281 334
#     4   9  20  41  64  84 109 143 186 247 302 341
#     4   9  20  36  57  87 116 143 202 233 277 346
#     4  10  18  31  47  70 105 158 192 214 269 326
#     4  10  20  30  52  81 114 158 196 226 271 339
#     4  10  19  36  59  83 113 154 188 234 283 349
#
# _framework density 17.594584000000001
#
# number of rings (size 3 to 8) (size 9 to 14) (size 15 to 20)
#    0.750    1.500    2.500    2.250    1.750    3.500 
#    0.000    0.625    0.000    0.000    0.000    0.000 
#    0.000    0.000    0.000    0.000    0.000    0.000 
#
# Total GULP energy -178154.076606 kJ/mol
# GULP energy per Si atom -5567.314894 kJ/mol
# Density = 1.755454 g / cm^3
# Si number density = 17.594584 Si / 1000 Ang^3
#
#
#
# Elastic Constant Matrix: (Units=GPa)
#
#
# Indices 1 2 3 4 5 6 
#
# 1 53.3637 22.2054 33.0562 0.0000 22.5199 0.0000
# 2 22.2054 99.1597 37.7768 0.0000 16.2684 0.0000
# 3 33.0562 37.7768 114.2122 0.0000 17.8068 0.0000
# 4 0.0000 0.0000 0.0000 24.2696 0.0000 -2.9209
# 5 22.5199 16.2684 17.8068 0.0000 19.0933 0.0000
# 6 0.0000 0.0000 0.0000 -2.9209 0.0000 6.8936
#
#
#
# Elastic Compliance Matrix: (Units=1/GPa)
#
#
# Indices 1 2 3 4 5 6 
#
# 1 0.039505 -0.000111 -0.004853 0.000000 -0.041974 0.000000
# 2 -0.000111 0.012490 -0.002879 0.000000 -0.007826 0.000000
# 3 -0.004853 -0.002879 0.011511 0.000000 -0.002559 0.000000
# 4 0.000000 0.000000 0.000000 0.043418 0.000000 0.018397
# 5 -0.041974 -0.007826 -0.002559 0.000000 0.110937 0.000000
# 6 0.000000 0.000000 0.000000 0.018397 0.000000 0.152858
#
#
# Mechanical properties :
#
#
# Convention : Reuss Voigt Hill
#
# Bulk Modulus (GPa) = 20.91141 50.31249 35.61195
# Shear Modulus (GPa) = 12.42711 21.63112 17.02912
#
# Velocity S-wave (km/s) = 2.66052 3.51011 3.11442
# Velocity P-wave (km/s) = 4.62047 6.71456 5.76342
#
# Compressibility (1/GPa) = 0.04782078
#
# Stress axis : x y z
#
# Youngs Moduli (GPa) = 25.31301 80.06115 86.87057
#
# Poissons Ratio (x) = 0.00892 0.42157
# Poissons Ratio (y) = 0.00282 0.25009
# Poissons Ratio (z) = 0.12284 0.23049
#
# Static dielectric constant tensor:
#      x y z
#    x 1.584760 0.000000 -0.011350 
#    y 0.000000 1.373180 0.000000 
#    z -0.011350 0.000000 1.651810 
# 
# From -- ./inp_files/180542.got.cif
#   From: 2010.05.17/outbox.cif.g08.bks.cpg/sg15_91_cif.got.tgz:180542.got - 2010.06.03 18:47:42.
