data_PCOD9257354
_publ_section_title
;
Structure prediction by ZEFSAII (Michael W. Deem and Ramdas Pophale) SiO2 
 PCOD9257354
Probable space group: C 2/C
;
_chemical_formula_sum "Si O2"
_cell_formula_units_Z 64
_cell_length_a 20.361566
_cell_length_b 19.676782
_cell_length_c 20.626388
_cell_angle_alpha 90.000000
_cell_angle_beta 151.028797
_cell_angle_gamma 90.000000
_cell_volume 4002.816174
_symmetry_space_group_name_H-M "C 2/C"
_symmetry_group_IT_number 15
_symmetry_cell_setting 'monoclinic'
loop_
_space_group_symop_operation_xyz
x,y,z
-x,y,1/2-z
-x,-y,-z
x,-y,1/2+z
1/2+x,1/2+y,z
1/2-x,1/2+y,1/2-z
1/2-x,1/2-y,-z
1/2+x,1/2-y,1/2+z
loop_
_atom_site_type_symbol
_atom_site_label
_atom_site_fract_x
_atom_site_fract_y
_atom_site_fract_z
Si Si1 0.191401 0.961128 0.362599
Si Si2 0.126110 0.035561 0.947794
Si Si3 0.179956 0.325421 0.064551
Si Si4 0.871040 0.821887 0.353935
Si Si5 0.848085 0.473610 0.879433
Si Si6 0.126161 0.669583 0.152201
Si Si7 0.139804 0.034110 0.595468
Si Si8 0.829939 0.173491 0.448671
O O1 0.185340 0.988642 0.430413
O O2 0.252069 0.885160 0.417141
O O3 0.037018 0.959179 0.202648
O O4 0.283074 0.001242 0.390396
O O5 0.182474 0.110513 0.013857
O O6 0.156277 0.988428 0.035498
O O7 0.255624 0.328424 0.199496
O O8 0.197887 0.249963 0.050988
O O9 0.021870 0.336783 0.942796
O O10 0.863630 0.744079 0.371331
O O11 0.862702 0.884770 0.395701
O O12 0.015464 0.827967 0.442846
O O13 0.849831 0.392458 0.875043
O O14 0.756330 0.503754 0.742168
O O15 0.000000 0.500000 0.000000
O O16 0.234428 0.664278 0.303746
O O17 0.000000 0.000000 0.500000
#
# Coordination Sequence:
#
# PCOD9257354 Si02
#       8
#     8   8   8   8   8   8   8   8
#     4  11  22  36  52  78 112 140 175 223 272 308
#     4  11  22  35  54  79 106 143 181 221 261 311
#     4  10  18  33  50  75 108 140 170 206 264 319
#     4  10  18  32  52  77 107 133 175 222 259 305
#     4  12  20  34  56  79 106 141 172 222 267 312
#     4  10  20  30  52  81 105 133 171 222 265 306
#     4  12  18  34  58  78 100 141 187 219 252 308
#     4  10  18  31  52  76 102 140 178 207 252 318
#
# _framework density 15.988742999999999
#
# number of rings (size 3 to 8) (size 9 to 14) (size 15 to 20)
#    0.000    1.250    7.500    0.000    0.000    0.500 
#    0.000    2.500    0.000    0.750    0.000    0.000 
#    0.000    0.000    0.000    0.000    0.000    0.000 
#
# Total GULP energy -178476.460625 kJ/mol
# GULP energy per Si atom -5577.389395 kJ/mol
# Density = 1.595235 g / cm^3
# Si number density = 15.988743 Si / 1000 Ang^3
#
#
#
# Elastic Constant Matrix: (Units=GPa)
#
#
# Indices 1 2 3 4 5 6 
#
# 1 96.4161 50.8981 32.0926 0.0001 -15.8867 -0.0002
# 2 50.8981 115.3852 23.1594 0.0012 -13.9993 0.0006
# 3 32.0926 23.1594 73.2613 0.0018 -3.1197 0.0012
# 4 0.0001 0.0012 0.0018 29.2083 0.0003 -7.1004
# 5 -15.8867 -13.9993 -3.1197 0.0003 19.9757 -0.0001
# 6 -0.0002 0.0006 0.0012 -7.1004 -0.0001 26.5228
#
#
#
# Elastic Compliance Matrix: (Units=1/GPa)
#
#
# Indices 1 2 3 4 5 6 
#
# 1 0.016146 -0.005066 -0.005110 0.000001 0.008493 0.000001
# 2 -0.005066 0.011637 -0.001292 -0.000001 0.003924 0.000000
# 3 -0.005110 -0.001292 0.016193 -0.000001 -0.002441 -0.000001
# 4 0.000001 -0.000001 -0.000001 0.036620 -0.000001 0.009803
# 5 0.008493 0.003924 -0.002441 -0.000001 0.059184 0.000000
# 6 0.000001 0.000000 -0.000001 0.009803 0.000000 0.040328
#
#
# Mechanical properties :
#
#
# Convention : Reuss Voigt Hill
#
# Bulk Modulus (GPa) = 47.53016 55.26251 51.39634
# Shear Modulus (GPa) = 23.80293 27.06886 25.43589
#
# Velocity S-wave (km/s) = 3.86259 4.11907 3.99289
# Velocity P-wave (km/s) = 7.04873 7.56708 7.31250
#
# Compressibility (1/GPa) = 0.02103927
#
# Stress axis : x y z
#
# Youngs Moduli (GPa) = 61.93305 85.93296 61.75613
#
# Poissons Ratio (x) = 0.43538 0.31556
# Poissons Ratio (y) = 0.31378 0.07980
# Poissons Ratio (z) = 0.31647 0.11104
#
# Static dielectric constant tensor:
#      x y z
#    x 1.509580 0.000000 0.005580 
#    y 0.000000 1.568100 0.000000 
#    z 0.005580 0.000000 1.535600 
# 
# From -- ./inp_files/211999.got.cif
#   From: 2010.05.17/outbox.cif.g08.bks.cpg/sg15_106_cif.got.tgz:211999.got - 2010.06.03 18:47:42.
