data_PCOD9257818
_publ_section_title
;
Structure prediction by ZEFSAII (Michael W. Deem and Ramdas Pophale) SiO2 
 PCOD9257818
Probable space group: C 2/C
;
_chemical_formula_sum "Si O2"
_cell_formula_units_Z 48
_cell_length_a 20.931952
_cell_length_b 11.243226
_cell_length_c 10.818319
_cell_angle_alpha 90.000000
_cell_angle_beta 114.512122
_cell_angle_gamma 90.000000
_cell_volume 2316.548927
_symmetry_space_group_name_H-M "C 2/C"
_symmetry_group_IT_number 15
_symmetry_cell_setting 'monoclinic'
loop_
_space_group_symop_operation_xyz
x,y,z
-x,y,1/2-z
-x,-y,-z
x,-y,1/2+z
1/2+x,1/2+y,z
1/2-x,1/2+y,1/2-z
1/2-x,1/2-y,-z
1/2+x,1/2-y,1/2+z
loop_
_atom_site_type_symbol
_atom_site_label
_atom_site_fract_x
_atom_site_fract_y
_atom_site_fract_z
Si Si1 0.600465 0.910378 0.809353
Si Si2 0.184505 0.188403 0.515751
Si Si3 0.490565 0.862798 0.533124
Si Si4 0.732338 0.203581 0.689254
Si Si5 0.097000 0.319919 0.253562
Si Si6 0.235036 0.077246 0.028078
O O1 0.561473 0.841241 0.667337
O O2 0.571009 0.858585 0.913572
O O3 0.683456 0.917673 0.867606
O O4 0.579872 0.049781 0.791858
O O5 0.250000 0.250000 0.500000
O O6 0.201099 0.228680 0.668539
O O7 0.118121 0.233952 0.383578
O O8 0.196720 0.046797 0.519669
O O9 0.465245 0.790092 0.392982
O O10 0.500000 0.000000 0.500000
O O11 0.667187 0.166742 0.723898
O O12 0.759609 0.107061 0.612806
O O13 0.705650 0.314878 0.586330
#
# Coordination Sequence:
#
# PCOD9257818 Si02
#       6
#     8   8   8   8   8   8
#     4  10  18  32  54  79 116 149 180 237 290 343
#     4  10  21  32  52  79 110 157 182 228 288 338
#     4   9  19  32  51  80 113 148 183 233 290 334
#     4  10  22  33  51  81 112 156 191 229 289 344
#     4  10  19  33  51  78 113 147 189 228 282 345
#     4  11  21  35  54  80 119 151 190 231 288 355
#
# _framework density 20.720478
#
# number of rings (size 3 to 8) (size 9 to 14) (size 15 to 20)
#    0.000    2.000    5.000    0.000    4.667    2.667 
#    0.000    0.000    0.000    0.000    0.000    4.667 
#   40.000    1.500    0.000    0.000    0.000    0.000 
#
# Total GULP energy -133712.938534 kJ/mol
# GULP energy per Si atom -5571.372439 kJ/mol
# Density = 2.067332 g / cm^3
# Si number density = 20.720478 Si / 1000 Ang^3
#
#
#
# Elastic Constant Matrix: (Units=GPa)
#
#
# Indices 1 2 3 4 5 6 
#
# 1 66.0815 16.0513 25.8555 0.0000 6.8405 0.0000
# 2 16.0513 55.3203 21.4887 0.0000 2.5806 0.0000
# 3 25.8555 21.4887 172.0761 0.0000 22.8895 0.0000
# 4 0.0000 0.0000 0.0000 31.1397 0.0000 0.8525
# 5 6.8405 2.5806 22.8895 0.0000 24.6841 0.0000
# 6 0.0000 0.0000 0.0000 0.8525 0.0000 18.0642
#
#
#
# Elastic Compliance Matrix: (Units=1/GPa)
#
#
# Indices 1 2 3 4 5 6 
#
# 1 0.017089 -0.004177 -0.001682 0.000000 -0.002740 0.000000
# 2 -0.004177 0.020021 -0.001994 0.000000 0.000914 0.000000
# 3 -0.001682 -0.001994 0.007099 0.000000 -0.005908 0.000000
# 4 0.000000 0.000000 0.000000 0.032155 0.000000 -0.001518
# 5 -0.002740 0.000914 -0.005908 0.000000 0.046654 0.000000
# 6 0.000000 0.000000 0.000000 -0.001518 0.000000 0.055430
#
#
# Mechanical properties :
#
#
# Convention : Reuss Voigt Hill
#
# Bulk Modulus (GPa) = 35.08457 46.69654 40.89056
# Shear Modulus (GPa) = 24.55136 30.11642 27.33389
#
# Velocity S-wave (km/s) = 3.44595 3.81657 3.63598
# Velocity P-wave (km/s) = 5.72729 6.48127 6.11591
#
# Compressibility (1/GPa) = 0.02850256
#
# Stress axis : x y z
#
# Youngs Moduli (GPa) = 58.51679 49.94860 140.86492
#
# Poissons Ratio (x) = 0.20866 0.23688
# Poissons Ratio (y) = 0.24445 0.28088
# Poissons Ratio (z) = 0.09840 0.09960
#
# Static dielectric constant tensor:
#      x y z
#    x 1.881710 0.000000 -0.002170 
#    y 0.000000 1.753760 0.000000 
#    z -0.002170 0.000000 1.848390 
# 
# From -- ./inp_files/117248.got.cif
#   From: 2010.05.17/outbox.cif.g08.bks.cpg/sg15_59_cif.got.tgz:117248.got - 2010.06.03 18:47:42.
