data_PCOD9257242
_publ_section_title
;
Structure prediction by ZEFSAII (Michael W. Deem and Ramdas Pophale) SiO2 
 PCOD9257242
Probable space group: C 2/C
;
_chemical_formula_sum "Si O2"
_cell_formula_units_Z 52
_cell_length_a 23.927592
_cell_length_b 17.993783
_cell_length_c 14.570552
_cell_angle_alpha 90.000000
_cell_angle_beta 24.303195
_cell_angle_gamma 90.000000
_cell_volume 2581.880302
_symmetry_space_group_name_H-M "C 2/C"
_symmetry_group_IT_number 15
_symmetry_cell_setting 'monoclinic'
loop_
_space_group_symop_operation_xyz
x,y,z
-x,y,1/2-z
-x,-y,-z
x,-y,1/2+z
1/2+x,1/2+y,z
1/2-x,1/2+y,1/2-z
1/2-x,1/2-y,-z
1/2+x,1/2-y,1/2+z
loop_
_atom_site_type_symbol
_atom_site_label
_atom_site_fract_x
_atom_site_fract_y
_atom_site_fract_z
Si Si1 0.329576 0.283181 0.523491
Si Si2 0.610752 0.271415 0.761047
Si Si3 0.748905 0.372904 0.683504
Si Si4 0.764410 0.149502 0.950205
Si Si5 0.542129 0.833151 0.530335
Si Si6 0.153654 0.538594 0.977501
Si Si7 0.500000 0.774215 0.250000
O O1 0.270413 0.337725 0.687836
O O2 0.231919 0.221633 0.621533
O O3 0.367856 0.335511 0.378672
O O4 0.424122 0.228172 0.441996
O O5 0.750000 0.250000 0.500000
O O6 0.627475 0.345012 0.798100
O O7 0.576770 0.204306 0.881868
O O8 0.507246 0.274428 0.831427
O O9 0.784139 0.458892 0.636626
O O10 0.874929 0.329388 0.450543
O O11 0.615721 0.147978 0.221450
O O12 0.754145 0.078936 0.899742
O O13 0.629560 0.905416 0.427988
O O14 0.000000 0.531202 0.250000
#
# Coordination Sequence:
#
# PCOD9257242 Si02
#       7
#     8   8   8   8   8   8   4
#     4   9  17  29  48  74  98 129 168 200 238 294
#     4   9  19  32  49  73 102 136 173 200 240 298
#     4  10  18  31  48  75 104 131 166 198 252 300
#     4   9  17  31  51  77 100 126 164 205 254 291
#     4   9  17  32  52  76 101 128 164 206 255 294
#     4   9  17  31  48  75 111 130 149 203 262 309
#     4  10  18  32  48  68 102 140 170 204 234 292
#
# _framework density 20.140360999999999
#
# number of rings (size 3 to 8) (size 9 to 14) (size 15 to 20)
#    0.000    2.769    0.769    2.308    0.000    0.000 
#    5.538    2.308    0.000    0.000   12.000   44.154 
#    0.000    0.000    0.000    0.000    0.000    0.000 
#
# Total GULP energy -144772.196226 kJ/mol
# GULP energy per Si atom -5568.161393 kJ/mol
# Density = 2.009452 g / cm^3
# Si number density = 20.140361 Si / 1000 Ang^3
#
#
#
# Elastic Constant Matrix: (Units=GPa)
#
#
# Indices 1 2 3 4 5 6 
#
# 1 140.8600 59.2060 18.3393 0.0000 23.3390 0.0000
# 2 59.2060 131.4134 31.2835 -0.0001 9.4942 0.0001
# 3 18.3393 31.2835 28.9000 -0.0003 20.3828 0.0002
# 4 0.0000 -0.0001 -0.0003 30.9289 0.0001 1.0730
# 5 23.3390 9.4942 20.3828 0.0001 29.8043 0.0000
# 6 0.0000 0.0001 0.0002 1.0730 0.0000 11.5118
#
#
#
# Elastic Compliance Matrix: (Units=1/GPa)
#
#
# Indices 1 2 3 4 5 6 
#
# 1 0.010416 -0.005706 0.007800 0.000000 -0.011673 0.000000
# 2 -0.005706 0.014580 -0.023252 0.000000 0.015726 0.000000
# 3 0.007800 -0.023252 0.104133 0.000001 -0.069916 -0.000002
# 4 0.000000 0.000000 0.000001 0.032437 -0.000001 -0.003023
# 5 -0.011673 0.015726 -0.069916 -0.000001 0.085498 0.000001
# 6 0.000000 0.000000 -0.000002 -0.003023 0.000001 0.087149
#
#
# Mechanical properties :
#
#
# Convention : Reuss Voigt Hill
#
# Bulk Modulus (GPa) = 11.51915 57.64789 34.58352
# Shear Modulus (GPa) = 12.33143 27.27198 19.80170
#
# Velocity S-wave (km/s) = 2.47710 3.68380 3.13898
# Velocity P-wave (km/s) = 3.73004 6.83952 5.50873
#
# Compressibility (1/GPa) = 0.08681194
#
# Stress axis : x y z
#
# Youngs Moduli (GPa) = 96.00283 68.58904 9.60310
#
# Poissons Ratio (x) = 0.39139 -0.07490
# Poissons Ratio (y) = 0.54783 0.22329
# Poissons Ratio (z) = -0.74883 1.59485
#
# Static dielectric constant tensor:
#      x y z
#    x 1.853180 0.000000 -0.114680 
#    y 0.000000 1.681880 0.000000 
#    z -0.114680 0.000000 1.851320 
# 
# From -- ./inp_files/173990.got.cif
#   From: 2010.05.17/outbox.cif.g08.bks.cpg/sg15_87_cif.got.tgz:173990.got - 2010.06.03 18:47:42.
