data_PCOD9257848
_publ_section_title
;
Structure prediction by ZEFSAII (Michael W. Deem and Ramdas Pophale) SiO2 
 PCOD9257848
Probable space group: C 2/C
;
_chemical_formula_sum "Si O2"
_cell_formula_units_Z 48
_cell_length_a 4.884194
_cell_length_b 30.133970
_cell_length_c 16.303341
_cell_angle_alpha 90.000000
_cell_angle_beta 105.317732
_cell_angle_gamma 90.000000
_cell_volume 2314.286721
_symmetry_space_group_name_H-M "C 2/C"
_symmetry_group_IT_number 15
_symmetry_cell_setting 'monoclinic'
loop_
_space_group_symop_operation_xyz
x,y,z
-x,y,1/2-z
-x,-y,-z
x,-y,1/2+z
1/2+x,1/2+y,z
1/2-x,1/2+y,1/2-z
1/2-x,1/2-y,-z
1/2+x,1/2-y,1/2+z
loop_
_atom_site_type_symbol
_atom_site_label
_atom_site_fract_x
_atom_site_fract_y
_atom_site_fract_z
Si Si1 0.500000 0.877434 0.750000
Si Si2 0.323473 0.523678 0.810298
Si Si3 0.106259 0.702489 0.995555
Si Si4 0.363033 0.594292 0.574250
Si Si5 0.073497 0.640829 0.850560
Si Si6 0.320876 0.343814 0.927670
Si Si7 0.000000 0.937822 0.750000
O O1 0.684185 0.849681 0.828486
O O2 0.276210 0.907936 0.781810
O O3 0.500000 0.545924 0.750000
O O4 0.458866 0.549051 0.898402
O O5 0.423301 0.472451 0.816607
O O6 0.000000 0.525427 0.750000
O O7 0.349795 0.668985 0.048073
O O8 0.842905 0.694618 0.034891
O O9 0.250000 0.750000 0.000000
O O10 0.018369 0.684839 0.898803
O O11 0.593618 0.630868 0.619633
O O12 0.284976 0.610401 0.476835
O O13 0.094150 0.602269 0.612311
O O14 0.000000 0.642225 0.750000
#
# Coordination Sequence:
#
# PCOD9257848 Si02
#       7
#     4   8   8   8   8   8   4
#     4  12  22  44  60  80 117 154 219 232 264 358
#     4  10  18  32  54  83 112 152 187 235 308 334
#     4  10  21  41  61  85 124 143 184 241 292 340
#     4  10  19  33  55  82 118 143 193 230 288 357
#     4  10  19  31  53  87 113 150 178 224 290 346
#     4  10  23  39  62  86 108 166 188 241 289 334
#     4  10  22  36  58  82 115 156 191 262 282 312
#
# _framework density 20.740729999999999
#
# number of rings (size 3 to 8) (size 9 to 14) (size 15 to 20)
#    0.500    1.333    0.833    4.500    0.000    0.000 
#    3.000    1.667    0.000    0.000    0.000    0.000 
#    0.000    0.000    0.000    0.000    0.000    0.000 
#
# Total GULP energy -133677.083652 kJ/mol
# GULP energy per Si atom -5569.878486 kJ/mol
# Density = 2.069352 g / cm^3
# Si number density = 20.740730 Si / 1000 Ang^3
#
#
#
# Elastic Constant Matrix: (Units=GPa)
#
#
# Indices 1 2 3 4 5 6 
#
# 1 107.1676 0.5301 1.9673 0.0000 8.5747 0.0000
# 2 0.5301 46.5852 -1.0757 0.0000 -1.6369 0.0000
# 3 1.9673 -1.0757 95.7746 0.0000 10.7565 0.0000
# 4 0.0000 0.0000 0.0000 11.8692 0.0000 4.2126
# 5 8.5747 -1.6369 10.7565 0.0000 17.1630 0.0000
# 6 0.0000 0.0000 0.0000 4.2126 0.0000 16.4987
#
#
#
# Elastic Compliance Matrix: (Units=1/GPa)
#
#
# Indices 1 2 3 4 5 6 
#
# 1 0.009736 -0.000282 0.000372 0.000000 -0.005124 0.000000
# 2 -0.000282 0.021546 0.000001 0.000000 0.002195 0.000000
# 3 0.000372 0.000001 0.011246 0.000000 -0.007234 0.000000
# 4 0.000000 0.000000 0.000000 0.092647 0.000000 -0.023656
# 5 -0.005124 0.002195 -0.007234 0.000000 0.065568 0.000000
# 6 0.000000 0.000000 0.000000 -0.023656 0.000000 0.066651
#
#
# Mechanical properties :
#
#
# Convention : Reuss Voigt Hill
#
# Bulk Modulus (GPa) = 23.41320 28.04120 25.72720
# Shear Modulus (GPa) = 17.76526 25.64658 21.70592
#
# Velocity S-wave (km/s) = 2.92984 3.52025 3.23853
# Velocity P-wave (km/s) = 4.77057 5.48380 5.13957
#
# Compressibility (1/GPa) = 0.04271096
#
# Stress axis : x y z
#
# Youngs Moduli (GPa) = 102.71423 46.41143 88.92038
#
# Poissons Ratio (x) = 0.01310 -0.03311
# Poissons Ratio (y) = 0.02899 -0.00011
# Poissons Ratio (z) = -0.03825 -0.00006
#
# Static dielectric constant tensor:
#      x y z
#    x 1.739870 0.000000 -0.027230 
#    y 0.000000 1.783800 0.000000 
#    z -0.027230 0.000000 1.776980 
# 
# From -- ./inp_files/130493.got.cif
#   From: 2010.05.17/outbox.cif.g08.bks.cpg/sg15_66_cif.got.tgz:130493.got - 2010.06.03 18:47:42.
