data_PCOD9257573
_publ_section_title
;
Structure prediction by ZEFSAII (Michael W. Deem and Ramdas Pophale) SiO2 
 PCOD9257573
Probable space group: C 2/C
;
_chemical_formula_sum "Si O2"
_cell_formula_units_Z 44
_cell_length_a 9.529698
_cell_length_b 25.702189
_cell_length_c 8.131022
_cell_angle_alpha 90.000000
_cell_angle_beta 128.070599
_cell_angle_gamma 90.000000
_cell_volume 1567.862271
_symmetry_space_group_name_H-M "C 2/C"
_symmetry_group_IT_number 15
_symmetry_cell_setting 'monoclinic'
loop_
_space_group_symop_operation_xyz
x,y,z
-x,y,1/2-z
-x,-y,-z
x,-y,1/2+z
1/2+x,1/2+y,z
1/2-x,1/2+y,1/2-z
1/2-x,1/2-y,-z
1/2+x,1/2-y,1/2+z
loop_
_atom_site_type_symbol
_atom_site_label
_atom_site_fract_x
_atom_site_fract_y
_atom_site_fract_z
Si Si1 0.000000 0.831992 0.750000
Si Si2 0.617411 0.248173 0.060251
Si Si3 0.266186 0.459798 0.897572
Si Si4 0.663930 0.138193 0.185488
Si Si5 0.679358 0.433820 0.182615
Si Si6 0.294309 0.667846 0.642809
O O1 0.009299 0.793755 0.597948
O O2 0.822986 0.863524 0.664150
O O3 0.555068 0.188984 0.041240
O O4 0.699061 0.273733 0.282499
O O5 0.750000 0.250000 0.000000
O O6 0.131184 0.422537 0.699228
O O7 0.227968 0.520471 0.850118
O O8 0.468682 0.442147 0.987024
O O9 0.284999 0.449401 0.103173
O O10 0.702489 0.156300 0.402555
O O11 0.744007 0.374084 0.239001
O O12 0.500000 0.655007 0.750000
#
# Coordination Sequence:
#
# PCOD9257573 Si02
#       6
#     4   8   8   8   8   8
#     4  10  18  32  44  66  94 120 162 200 244 278
#     4  10  21  31  48  68  92 128 163 201 241 279
#     4   9  16  26  39  64  92 120 161 179 223 277
#     4  10  19  31  47  68  94 131 160 199 232 284
#     4   9  16  26  42  63  91 130 152 184 223 278
#     4  11  17  33  47  66  98 133 163 192 233 281
#
# _framework density 28.063689
#
# number of rings (size 3 to 8) (size 9 to 14) (size 15 to 20)
#    0.000    2.182    5.455    0.545    0.000    5.818 
#    0.000    0.000    0.000    0.000    0.000    0.000 
#    0.000   23.273   12.364    0.909    0.000    0.182 
#
# Total GULP energy -122719.455354 kJ/mol
# GULP energy per Si atom -5578.157062 kJ/mol
# Density = 2.799982 g / cm^3
# Si number density = 28.063689 Si / 1000 Ang^3
#
#
#
# Elastic Constant Matrix: (Units=GPa)
#
#
# Indices 1 2 3 4 5 6 
#
# 1 60.2719 15.3500 17.1980 0.0000 -4.4085 0.0000
# 2 15.3500 183.3243 41.4119 0.0000 -0.8574 0.0000
# 3 17.1980 41.4119 97.3578 0.0000 -11.8852 0.0000
# 4 0.0000 0.0000 0.0000 62.0700 0.0000 -7.2481
# 5 -4.4085 -0.8574 -11.8852 0.0000 31.3312 0.0000
# 6 0.0000 0.0000 0.0000 -7.2481 0.0000 27.3012
#
#
#
# Elastic Compliance Matrix: (Units=1/GPa)
#
#
# Indices 1 2 3 4 5 6 
#
# 1 0.017658 -0.000894 -0.002557 0.000000 0.001490 0.000000
# 2 -0.000894 0.006101 -0.002550 0.000000 -0.000926 0.000000
# 3 -0.002557 -0.002550 0.012326 0.000000 0.004246 0.000000
# 4 0.000000 0.000000 0.000000 0.016626 0.000000 0.004414
# 5 0.001490 -0.000926 0.004246 0.000000 0.033712 0.000000
# 6 0.000000 0.000000 0.000000 0.004414 0.000000 0.037800
#
#
# Mechanical properties :
#
#
# Convention : Reuss Voigt Hill
#
# Bulk Modulus (GPa) = 41.52369 54.31932 47.92150
# Shear Modulus (GPa) = 34.66092 41.94010 38.30051
#
# Velocity S-wave (km/s) = 3.51818 3.87002 3.69829
# Velocity P-wave (km/s) = 5.59749 6.27433 5.94554
#
# Compressibility (1/GPa) = 0.02408264
#
# Stress axis : x y z
#
# Youngs Moduli (GPa) = 56.63234 163.89495 81.12715
#
# Poissons Ratio (x) = 0.14651 0.20745
# Poissons Ratio (y) = 0.05062 0.20691
# Poissons Ratio (z) = 0.14481 0.41801
#
# Static dielectric constant tensor:
#      x y z
#    x 2.394350 0.000000 0.212820 
#    y 0.000000 2.262130 0.000000 
#    z 0.212820 0.000000 2.321270 
# 
# From -- ./inp_files/41824.got.cif
#   From: 2010.05.17/outbox.cif.g08.bks.cpg/sg15_21_cif.got.tgz:41824.got - 2010.06.03 18:47:42.
