data_PCOD9257579
_publ_section_title
;
Structure prediction by ZEFSAII (Michael W. Deem and Ramdas Pophale) SiO2 
 PCOD9257579
Probable space group: C 2/C
;
_chemical_formula_sum "Si O2"
_cell_formula_units_Z 64
_cell_length_a 20.318273
_cell_length_b 11.730667
_cell_length_c 30.517126
_cell_angle_alpha 90.000000
_cell_angle_beta 33.705484
_cell_angle_gamma 90.000000
_cell_volume 4036.330126
_symmetry_space_group_name_H-M "C 2/C"
_symmetry_group_IT_number 15
_symmetry_cell_setting 'monoclinic'
loop_
_space_group_symop_operation_xyz
x,y,z
-x,y,1/2-z
-x,-y,-z
x,-y,1/2+z
1/2+x,1/2+y,z
1/2-x,1/2+y,1/2-z
1/2-x,1/2-y,-z
1/2+x,1/2-y,1/2+z
loop_
_atom_site_type_symbol
_atom_site_label
_atom_site_fract_x
_atom_site_fract_y
_atom_site_fract_z
Si Si1 0.693069 0.550458 0.267048
Si Si2 0.076198 0.274270 0.360314
Si Si3 0.077973 0.629078 0.249747
Si Si4 0.177272 0.000281 0.876009
Si Si5 0.071541 0.407283 0.489092
Si Si6 0.033717 0.471230 0.864583
Si Si7 0.526488 0.314497 0.498505
Si Si8 0.716101 0.641771 0.688858
O O1 0.621585 0.668778 0.306430
O O2 0.667144 0.492246 0.328761
O O3 0.835865 0.567983 0.189689
O O4 0.664247 0.466536 0.243214
O O5 0.042312 0.391462 0.355461
O O6 0.187597 0.305459 0.330274
O O7 0.976074 0.233695 0.450443
O O8 0.193926 0.548024 0.184188
O O9 0.012838 0.590994 0.330412
O O10 0.125232 0.758451 0.228042
O O11 0.000000 0.616126 0.250000
O O12 0.082046 0.904525 0.942808
O O13 0.141276 0.116842 0.919457
O O14 0.059192 0.441177 0.546227
O O15 0.006183 0.288159 0.515515
O O16 0.000000 0.500000 0.500000
O O17 0.203841 0.396042 0.396668
#
# Coordination Sequence:
#
# PCOD9257579 Si02
#       8
#     8   8   8   8   8   8   8   8
#     4   9  16  27  48  74 105 127 161 213 263 307
#     4   9  15  30  47  79 109 121 157 223 270 306
#     4  11  22  38  52  68 105 146 178 208 238 308
#     4   9  17  31  48  76 101 136 166 210 258 308
#     4  11  17  28  49  81 111 127 149 211 280 318
#     4  10  19  29  49  76 101 134 168 203 261 308
#     4   9  16  27  49  77 110 124 154 216 274 302
#     4  10  18  32  46  74 108 129 168 209 258 315
#
# _framework density 15.855988
#
# number of rings (size 3 to 8) (size 9 to 14) (size 15 to 20)
#    0.000    2.250    8.750    0.000    1.750    1.000 
#    0.000    0.625    0.000    1.500    0.000    0.000 
#    0.000    0.000    0.000    0.000    0.000    0.000 
#
# Total GULP energy -178233.065585 kJ/mol
# GULP energy per Si atom -5569.783300 kJ/mol
# Density = 1.581990 g / cm^3
# Si number density = 15.855988 Si / 1000 Ang^3
#
#
#
# Elastic Constant Matrix: (Units=GPa)
#
#
# Indices 1 2 3 4 5 6 
#
# 1 50.2052 24.3500 36.1556 0.0000 17.0633 0.0000
# 2 24.3500 103.5188 71.2491 0.0000 14.9798 0.0000
# 3 36.1556 71.2491 104.5788 0.0000 18.8551 0.0000
# 4 0.0000 0.0000 0.0000 34.8803 0.0000 3.2796
# 5 17.0633 14.9798 18.8551 0.0000 11.5352 0.0000
# 6 0.0000 0.0000 0.0000 3.2796 0.0000 9.3636
#
#
#
# Elastic Compliance Matrix: (Units=1/GPa)
#
#
# Indices 1 2 3 4 5 6 
#
# 1 0.041898 0.002347 -0.006182 0.000000 -0.054919 0.000000
# 2 0.002347 0.018508 -0.011997 0.000000 -0.007896 0.000000
# 3 -0.006182 -0.011997 0.021857 0.000000 -0.011001 0.000000
# 4 0.000000 0.000000 0.000000 0.029646 0.000000 -0.010384
# 5 -0.054919 -0.007896 -0.011001 0.000000 0.196166 0.000000
# 6 0.000000 0.000000 0.000000 -0.010384 0.000000 0.110434
#
#
# Mechanical properties :
#
#
# Convention : Reuss Voigt Hill
#
# Bulk Modulus (GPa) = 19.76399 57.97914 38.87157
# Shear Modulus (GPa) = 10.70574 19.59235 15.14904
#
# Velocity S-wave (km/s) = 2.60125 3.51899 3.09433
# Velocity P-wave (km/s) = 4.63829 7.29085 6.11025
#
# Compressibility (1/GPa) = 0.05059708
#
# Stress axis : x y z
#
# Youngs Moduli (GPa) = 23.86771 54.03093 45.75259
#
# Poissons Ratio (x) = -0.12681 0.28286
# Poissons Ratio (y) = -0.05602 0.54890
# Poissons Ratio (z) = 0.14756 0.64821
#
# Static dielectric constant tensor:
#      x y z
#    x 1.479640 0.000000 0.007750 
#    y 0.000000 1.564660 0.000000 
#    z 0.007750 0.000000 1.576690 
# 
# From -- ./inp_files/277088.got.cif
#   From: 2010.05.17/outbox.cif.g08.bks.cpg/sg15_139_cif.got.tgz:277088.got - 2010.06.03 18:47:42.
