data_PCOD9257643
_publ_section_title
;
Structure prediction by ZEFSAII (Michael W. Deem and Ramdas Pophale) SiO2 
 PCOD9257643
Probable space group: C 2/C
;
_chemical_formula_sum "Si O2"
_cell_formula_units_Z 64
_cell_length_a 24.456424
_cell_length_b 14.237399
_cell_length_c 10.750143
_cell_angle_alpha 90.000000
_cell_angle_beta 80.061664
_cell_angle_gamma 90.000000
_cell_volume 3686.985830
_symmetry_space_group_name_H-M "C 2/C"
_symmetry_group_IT_number 15
_symmetry_cell_setting 'monoclinic'
loop_
_space_group_symop_operation_xyz
x,y,z
-x,y,1/2-z
-x,-y,-z
x,-y,1/2+z
1/2+x,1/2+y,z
1/2-x,1/2+y,1/2-z
1/2-x,1/2-y,-z
1/2+x,1/2-y,1/2+z
loop_
_atom_site_type_symbol
_atom_site_label
_atom_site_fract_x
_atom_site_fract_y
_atom_site_fract_z
Si Si1 0.291860 0.093508 0.069741
Si Si2 0.839896 0.892081 0.498258
Si Si3 0.300890 0.414009 0.099375
Si Si4 0.975843 0.133103 0.395420
Si Si5 0.458355 0.411230 0.381200
Si Si6 0.801771 0.792857 0.750497
Si Si7 0.242358 0.394724 0.360381
Si Si8 0.632644 0.747924 0.020300
O O1 0.252997 0.147453 0.186795
O O2 0.296899 0.982144 0.090389
O O3 0.254559 0.102505 0.959433
O O4 0.349386 0.147885 0.026604
O O5 0.895504 0.872614 0.399143
O O6 0.838754 0.847552 0.635315
O O7 0.782120 0.863153 0.456540
O O8 0.834051 0.003805 0.519323
O O9 0.284142 0.440868 0.243790
O O10 0.336386 0.320491 0.088291
O O11 0.929342 0.210257 0.445404
O O12 0.000000 0.156600 0.250000
O O13 0.017149 0.125289 0.497029
O O14 0.954588 0.025095 0.389733
O O15 0.500000 0.389223 0.250000
O O16 0.784755 0.694659 0.693678
O O17 0.837079 0.774095 0.860497
#
# Coordination Sequence:
#
# PCOD9257643 Si02
#       8
#     8   8   8   8   8   8   8   8
#     4  10  20  32  52  76 104 146 181 221 269 332
#     4  11  22  32  51  77 108 154 173 215 284 324
#     4  10  18  32  50  77 107 142 182 212 264 327
#     4  10  21  35  54  79 105 140 192 232 264 322
#     4  10  22  35  50  77 113 144 184 228 271 324
#     4  11  20  34  51  78 109 140 187 224 265 337
#     4  11  21  33  51  77 115 141 181 223 269 335
#     4  11  19  34  57  74 104 147 185 224 273 318
#
# _framework density 17.358353000000001
#
# number of rings (size 3 to 8) (size 9 to 14) (size 15 to 20)
#    0.000    1.500    5.000    1.875    1.750    1.000 
#    0.000    0.000    0.000    0.000    0.000    4.375 
#    0.000    0.000    0.000    0.000    0.000    0.000 
#
# Total GULP energy -178334.786775 kJ/mol
# GULP energy per Si atom -5572.962087 kJ/mol
# Density = 1.731884 g / cm^3
# Si number density = 17.358353 Si / 1000 Ang^3
#
#
#
# Elastic Constant Matrix: (Units=GPa)
#
#
# Indices 1 2 3 4 5 6 
#
# 1 46.5688 35.3106 18.8845 0.0000 -13.0392 0.0000
# 2 35.3106 67.7092 16.9689 0.0000 -4.8990 0.0000
# 3 18.8845 16.9689 70.4696 0.0000 -8.2212 0.0000
# 4 0.0000 0.0000 0.0000 26.5336 0.0000 -2.9684
# 5 -13.0392 -4.8990 -8.2212 0.0000 18.4249 0.0000
# 6 0.0000 0.0000 0.0000 -2.9684 0.0000 12.4826
#
#
#
# Elastic Compliance Matrix: (Units=1/GPa)
#
#
# Indices 1 2 3 4 5 6 
#
# 1 0.046493 -0.021320 -0.004376 0.000000 0.025281 0.000000
# 2 -0.021320 0.025616 -0.001498 0.000000 -0.008946 0.000000
# 3 -0.004376 -0.001498 0.016157 0.000000 0.003714 0.000000
# 4 0.000000 0.000000 0.000000 0.038718 0.000000 0.009207
# 5 0.025281 -0.008946 0.003714 0.000000 0.071444 0.000000
# 6 0.000000 0.000000 0.000000 0.009207 0.000000 0.082301
#
#
# Mechanical properties :
#
#
# Convention : Reuss Voigt Hill
#
# Bulk Modulus (GPa) = 29.51881 36.34171 32.93026
# Shear Modulus (GPa) = 14.43371 19.06048 16.74710
#
# Velocity S-wave (km/s) = 2.88673 3.31729 3.10947
# Velocity P-wave (km/s) = 5.30598 5.97111 5.64834
#
# Compressibility (1/GPa) = 0.03387670
#
# Stress axis : x y z
#
# Youngs Moduli (GPa) = 21.50864 39.03817 61.89143
#
# Poissons Ratio (x) = 0.83231 0.27083
# Poissons Ratio (y) = 0.45857 0.09274
# Poissons Ratio (z) = 0.09412 0.05850
#
# Static dielectric constant tensor:
#      x y z
#    x 1.604570 0.000000 -0.007370 
#    y 0.000000 1.593500 0.000000 
#    z -0.007370 0.000000 1.625340 
# 
# From -- ./inp_files/112719.got.cif
#   From: 2010.05.17/outbox.cif.g08.bks.cpg/sg15_57_cif.got.tgz:112719.got - 2010.06.03 18:47:42.
