data_PCOD9257461
_publ_section_title
;
Structure prediction by ZEFSAII (Michael W. Deem and Ramdas Pophale) SiO2 
 PCOD9257461
Probable space group: C 2/C
;
_chemical_formula_sum "Si O2"
_cell_formula_units_Z 44
_cell_length_a 18.229886
_cell_length_b 14.152608
_cell_length_c 23.867177
_cell_angle_alpha 90.000000
_cell_angle_beta 157.647509
_cell_angle_gamma 90.000000
_cell_volume 2341.811566
_symmetry_space_group_name_H-M "C 2/C"
_symmetry_group_IT_number 15
_symmetry_cell_setting 'monoclinic'
loop_
_space_group_symop_operation_xyz
x,y,z
-x,y,1/2-z
-x,-y,-z
x,-y,1/2+z
1/2+x,1/2+y,z
1/2-x,1/2+y,1/2-z
1/2-x,1/2-y,-z
1/2+x,1/2-y,1/2+z
loop_
_atom_site_type_symbol
_atom_site_label
_atom_site_fract_x
_atom_site_fract_y
_atom_site_fract_z
Si Si1 0.066282 0.880981 0.385559
Si Si2 0.500000 0.466133 0.750000
Si Si3 0.659509 0.463251 0.570107
Si Si4 0.827684 0.309976 0.001282
Si Si5 0.500122 0.167606 0.317568
Si Si6 0.156843 0.660984 0.812205
O O1 0.075932 0.909085 0.457318
O O2 0.285440 0.868486 0.515883
O O3 0.976168 0.777137 0.315973
O O4 0.971261 0.964116 0.282408
O O5 0.315823 0.398417 0.608542
O O6 0.500000 0.500000 0.500000
O O7 0.825474 0.397718 0.714370
O O8 0.759018 0.558250 0.618397
O O9 0.044036 0.335074 0.173623
O O10 0.750000 0.250000 0.000000
O O11 0.809353 0.243416 0.933649
O O12 0.500000 0.161273 0.250000
O O13 0.000000 0.675213 0.750000
#
# Coordination Sequence:
#
# PCOD9257461 Si02
#       6
#     8   4   8   8   8   8
#     4  10  20  34  64  90 111 152 204 261 301 352
#     4  12  18  30  60  92 116 138 198 260 304 344
#     4  11  23  39  57  83 123 165 195 240 313 378
#     4  10  18  31  54  86 118 142 185 245 295 348
#     4   9  18  39  61  88 114 149 207 260 300 344
#     4  10  19  36  57  83 113 154 200 242 292 346
#
# _framework density 18.788872999999999
#
# number of rings (size 3 to 8) (size 9 to 14) (size 15 to 20)
#    0.000    1.818    3.636    4.909    0.000    0.000 
#    3.273    0.000    0.000    4.364    0.000    0.000 
#    0.000    0.000    0.000    0.000    0.000    0.000 
#
# Total GULP energy -122603.231109 kJ/mol
# GULP energy per Si atom -5572.874141 kJ/mol
# Density = 1.874611 g / cm^3
# Si number density = 18.788873 Si / 1000 Ang^3
#
#
#
# Elastic Constant Matrix: (Units=GPa)
#
#
# Indices 1 2 3 4 5 6 
#
# 1 27.5759 22.6718 26.7329 -0.0032 -1.3021 -0.0020
# 2 22.6718 122.3318 37.6308 0.0166 -0.6184 0.0083
# 3 26.7329 37.6308 60.0499 0.0280 -7.7871 0.0149
# 4 -0.0032 0.0166 0.0280 42.6901 -0.0005 -17.1205
# 5 -1.3021 -0.6184 -7.7871 -0.0005 13.4205 -0.0005
# 6 -0.0020 0.0083 0.0149 -17.1205 -0.0005 18.8920
#
#
#
# Elastic Compliance Matrix: (Units=1/GPa)
#
#
# Indices 1 2 3 4 5 6 
#
# 1 0.066569 -0.003542 -0.028764 0.000059 -0.010394 0.000084
# 2 -0.003542 0.010467 -0.005369 -0.000002 -0.002976 -0.000003
# 3 -0.028764 -0.005369 0.035067 -0.000053 0.017309 -0.000076
# 4 0.000059 -0.000002 -0.000053 0.036799 -0.000023 0.033348
# 5 -0.010394 -0.002976 0.017309 -0.000023 0.083410 -0.000032
# 6 0.000084 -0.000003 -0.000076 0.033348 -0.000032 0.083153
#
#
# Mechanical properties :
#
#
# Convention : Reuss Voigt Hill
#
# Bulk Modulus (GPa) = 27.20719 42.66985 34.93852
# Shear Modulus (GPa) = 12.40494 23.19533 17.80014
#
# Velocity S-wave (km/s) = 2.57228 3.51739 3.08129
# Velocity P-wave (km/s) = 4.83053 6.26542 5.59418
#
# Compressibility (1/GPa) = 0.03675499
#
# Stress axis : x y z
#
# Youngs Moduli (GPa) = 15.02198 95.53534 28.51703
#
# Poissons Ratio (x) = 0.33837 0.82025
# Poissons Ratio (y) = 0.05320 0.15310
# Poissons Ratio (z) = 0.43209 0.51290
#
# Static dielectric constant tensor:
#      x y z
#    x 1.624360 0.000000 -0.020790 
#    y 0.000000 1.616440 0.000000 
#    z -0.020790 0.000000 1.748510 
# 
# From -- ./inp_files/55472.got.cif
#   From: 2010.05.17/outbox.cif.g08.bks.cpg/sg15_28_cif.got.tgz:55472.got - 2010.06.03 18:47:42.
