data_PCOD9257318
_publ_section_title
;
Structure prediction by ZEFSAII (Michael W. Deem and Ramdas Pophale) SiO2 
 PCOD9257318
Probable space group: C 2/C
;
_chemical_formula_sum "Si O2"
_cell_formula_units_Z 48
_cell_length_a 9.762104
_cell_length_b 13.557475
_cell_length_c 14.999989
_cell_angle_alpha 90.000000
_cell_angle_beta 82.793617
_cell_angle_gamma 90.000000
_cell_volume 1969.558810
_symmetry_space_group_name_H-M "C 2/C"
_symmetry_group_IT_number 15
_symmetry_cell_setting 'monoclinic'
loop_
_space_group_symop_operation_xyz
x,y,z
-x,y,1/2-z
-x,-y,-z
x,-y,1/2+z
1/2+x,1/2+y,z
1/2-x,1/2+y,1/2-z
1/2-x,1/2-y,-z
1/2+x,1/2-y,1/2+z
loop_
_atom_site_type_symbol
_atom_site_label
_atom_site_fract_x
_atom_site_fract_y
_atom_site_fract_z
Si Si1 0.341347 0.744406 0.901805
Si Si2 0.857873 0.482792 0.597918
Si Si3 0.906417 0.265770 0.518449
Si Si4 0.342446 0.971349 0.902613
Si Si5 0.085588 0.253872 0.325631
Si Si6 0.142061 0.976619 0.774178
O O1 0.493662 0.707796 0.918651
O O2 0.250000 0.750000 0.000000
O O3 0.358874 0.858389 0.869537
O O4 0.236258 0.700030 0.836904
O O5 0.895191 0.373640 0.561355
O O6 0.806367 0.532478 0.510641
O O7 0.748707 0.476377 0.684234
O O8 0.007605 0.522156 0.616497
O O9 0.750000 0.250000 0.500000
O O10 0.993658 0.259719 0.421110
O O11 0.222755 0.019237 0.853335
O O12 0.107178 0.137088 0.303581
O O13 0.000000 0.295238 0.250000
O O14 0.000000 0.022623 0.750000
#
# Coordination Sequence:
#
# PCOD9257318 Si02
#       6
#     8   8   8   8   8   8
#     4   8  16  31  51  73  98 131 171 214 261 308
#     4  10  20  35  55  78 106 143 180 221 266 314
#     4  10  18  31  51  76 105 136 175 217 261 314
#     4   9  19  35  54  79 105 138 183 223 262 315
#     4   9  17  31  50  74 100 132 173 215 261 311
#     4  10  19  33  54  79 107 139 176 218 270 322
#
# _framework density 24.370940999999998
#
# number of rings (size 3 to 8) (size 9 to 14) (size 15 to 20)
#    0.000    2.667    0.000    2.500    0.000    0.667 
#    0.000    9.167    0.000    0.000    0.000    0.000 
#    0.000    0.000    0.000    0.000    0.000    0.000 
#
# Total GULP energy -133871.146956 kJ/mol
# GULP energy per Si atom -5577.964456 kJ/mol
# Density = 2.431547 g / cm^3
# Si number density = 24.370941 Si / 1000 Ang^3
#
#
#
# Elastic Constant Matrix: (Units=GPa)
#
#
# Indices 1 2 3 4 5 6 
#
# 1 282.0040 23.0979 79.2654 0.0000 62.1318 0.0000
# 2 23.0979 37.0439 17.9220 0.0000 -3.6793 0.0000
# 3 79.2654 17.9220 75.6014 0.0000 30.9008 0.0000
# 4 0.0000 0.0000 0.0000 25.3639 0.0000 5.5893
# 5 62.1318 -3.6793 30.9008 0.0000 54.2363 0.0000
# 6 0.0000 0.0000 0.0000 5.5893 0.0000 16.5130
#
#
#
# Elastic Compliance Matrix: (Units=1/GPa)
#
#
# Indices 1 2 3 4 5 6 
#
# 1 0.005791 -0.002358 -0.003566 0.000000 -0.004762 0.000000
# 2 -0.002358 0.034423 -0.010098 0.000000 0.010790 0.000000
# 3 -0.003566 -0.010098 0.023425 0.000000 -0.009946 0.000000
# 4 0.000000 0.000000 0.000000 0.042604 0.000000 -0.014420
# 5 -0.004762 0.010790 -0.009946 0.000000 0.030292 0.000000
# 6 0.000000 0.000000 0.000000 -0.014420 0.000000 0.065439
#
#
# Mechanical properties :
#
#
# Convention : Reuss Voigt Hill
#
# Bulk Modulus (GPa) = 31.65117 70.58001 51.11559
# Shear Modulus (GPa) = 20.44581 37.51358 28.97970
#
# Velocity S-wave (km/s) = 2.89959 3.92762 3.45209
# Velocity P-wave (km/s) = 4.92195 7.04215 6.07526
#
# Compressibility (1/GPa) = 0.03159441
#
# Stress axis : x y z
#
# Youngs Moduli (GPa) = 172.69100 29.05069 42.68932
#
# Poissons Ratio (x) = 0.06852 0.15222
# Poissons Ratio (y) = 0.40729 0.43106
# Poissons Ratio (z) = 0.61578 0.29334
#
# Static dielectric constant tensor:
#      x y z
#    x 2.140190 0.000000 0.074230 
#    y 0.000000 2.128750 0.000000 
#    z 0.074230 0.000000 1.897820 
# 
# From -- ./inp_files/79777.got.cif
#   From: 2010.05.17/outbox.cif.g08.bks.cpg/sg15_40_cif.got.tgz:79777.got - 2010.06.03 18:47:42.
