data_PCOD9257458
_publ_section_title
;
Structure prediction by ZEFSAII (Michael W. Deem and Ramdas Pophale) SiO2 
 PCOD9257458
Probable space group: C 2/C
;
_chemical_formula_sum "Si O2"
_cell_formula_units_Z 48
_cell_length_a 13.862602
_cell_length_b 35.007767
_cell_length_c 5.063159
_cell_angle_alpha 90.000000
_cell_angle_beta 78.635857
_cell_angle_gamma 90.000000
_cell_volume 2408.971582
_symmetry_space_group_name_H-M "C 2/C"
_symmetry_group_IT_number 15
_symmetry_cell_setting 'monoclinic'
loop_
_space_group_symop_operation_xyz
x,y,z
-x,y,1/2-z
-x,-y,-z
x,-y,1/2+z
1/2+x,1/2+y,z
1/2-x,1/2+y,1/2-z
1/2-x,1/2-y,-z
1/2+x,1/2-y,1/2+z
loop_
_atom_site_type_symbol
_atom_site_label
_atom_site_fract_x
_atom_site_fract_y
_atom_site_fract_z
Si Si1 0.500000 0.760415 0.750000
Si Si2 0.786718 0.978629 0.739404
Si Si3 0.205002 0.228407 0.774219
Si Si4 0.500000 0.459039 0.750000
Si Si5 0.000000 0.092888 0.750000
Si Si6 0.500000 0.186086 0.750000
Si Si7 0.791563 0.648436 0.889340
Si Si8 0.713427 0.608308 0.449456
O O1 0.589298 0.734903 0.805402
O O2 0.526805 0.787587 0.487675
O O3 0.905648 0.981609 0.700123
O O4 0.772214 0.935177 0.657381
O O5 0.749024 0.008386 0.543207
O O6 0.250000 0.250000 0.500000
O O7 0.235115 0.184783 0.795395
O O8 0.250000 0.250000 0.000000
O O9 0.531994 0.432495 0.485487
O O10 0.098760 0.113651 0.595808
O O11 0.404111 0.161230 0.869090
O O12 0.778141 0.616361 0.673337
O O13 0.744205 0.635421 0.190711
#
# Coordination Sequence:
#
# PCOD9257458 Si02
#       8
#     4   8   8   4   4   4   8   8
#     4  12  22  43  68  97 128 167 220 261 318 386
#     4  11  20  34  56  86 122 170 216 259 311 376
#     4  12  23  42  66  97 129 169 211 263 320 389
#     4  10  18  31  54  84 118 164 222 258 296 358
#     4  10  20  38  56  82 130 179 200 252 311 388
#     4  12  24  42  72  95 118 166 216 281 325 366
#     4  12  24  42  65  96 129 163 214 272 332 375
#     4  11  24  40  60  92 133 171 212 267 317 386
#
# _framework density 19.925515999999998
#
# number of rings (size 3 to 8) (size 9 to 14) (size 15 to 20)
#    0.000    0.667    3.333    7.500    0.000    1.333 
#    0.000    1.667    0.000    0.000    0.000   11.667 
#    0.000    0.000    0.000    0.000    0.000    0.000 
#
# Total GULP energy -134158.589725 kJ/mol
# GULP energy per Si atom -5589.941239 kJ/mol
# Density = 1.988016 g / cm^3
# Si number density = 19.925516 Si / 1000 Ang^3
#
#
#
# Elastic Constant Matrix: (Units=GPa)
#
#
# Indices 1 2 3 4 5 6 
#
# 1 118.0453 40.9884 37.3083 0.0000 -0.0223 0.0000
# 2 40.9884 65.1613 32.3959 0.0000 -4.8161 0.0000
# 3 37.3083 32.3959 149.6983 0.0000 9.2695 0.0000
# 4 0.0000 0.0000 0.0000 38.3363 0.0000 7.0058
# 5 -0.0223 -4.8161 9.2695 0.0000 34.6833 0.0000
# 6 0.0000 0.0000 0.0000 7.0058 0.0000 21.9366
#
#
#
# Elastic Compliance Matrix: (Units=1/GPa)
#
#
# Indices 1 2 3 4 5 6 
#
# 1 0.011105 -0.006346 -0.001363 0.000000 -0.000510 0.000000
# 2 -0.006346 0.021236 -0.003250 0.000000 0.003813 0.000000
# 3 -0.001363 -0.003250 0.007882 0.000000 -0.002559 0.000000
# 4 0.000000 0.000000 0.000000 0.027702 0.000000 -0.008847
# 5 -0.000510 0.003813 -0.002559 0.000000 0.030045 0.000000
# 6 0.000000 0.000000 0.000000 -0.008847 0.000000 0.048411
#
#
# Mechanical properties :
#
#
# Convention : Reuss Voigt Hill
#
# Bulk Modulus (GPa) = 54.62936 61.58779 58.10857
# Shear Modulus (GPa) = 28.66960 33.80540 31.23750
#
# Velocity S-wave (km/s) = 3.79732 4.12343 3.96373
# Velocity P-wave (km/s) = 6.83392 7.32437 7.08339
#
# Compressibility (1/GPa) = 0.01830518
#
# Stress axis : x y z
#
# Youngs Moduli (GPa) = 90.04656 47.09003 126.87808
#
# Poissons Ratio (x) = 0.29882 0.17292
# Poissons Ratio (y) = 0.57141 0.41239
# Poissons Ratio (z) = 0.12272 0.15305
#
# Static dielectric constant tensor:
#      x y z
#    x 1.679670 0.000000 0.001070 
#    y 0.000000 1.731980 0.000000 
#    z 0.001070 0.000000 1.717110 
# 
# From -- ./inp_files/8700.got.cif
#   From: 2010.05.17/outbox.cif.g08.bks.cpg/sg15_5_cif.got.tgz:8700.got - 2010.06.03 18:47:42.
