data_PCOD9257823
_publ_section_title
;
Structure prediction by ZEFSAII (Michael W. Deem and Ramdas Pophale) SiO2 
 PCOD9257823
Probable space group: C 2/C
;
_chemical_formula_sum "Si O2"
_cell_formula_units_Z 56
_cell_length_a 23.744045
_cell_length_b 7.457777
_cell_length_c 14.073425
_cell_angle_alpha 90.000000
_cell_angle_beta 81.680787
_cell_angle_gamma 90.000000
_cell_volume 2465.867574
_symmetry_space_group_name_H-M "C 2/C"
_symmetry_group_IT_number 15
_symmetry_cell_setting 'monoclinic'
loop_
_space_group_symop_operation_xyz
x,y,z
-x,y,1/2-z
-x,-y,-z
x,-y,1/2+z
1/2+x,1/2+y,z
1/2-x,1/2+y,1/2-z
1/2-x,1/2-y,-z
1/2+x,1/2-y,1/2+z
loop_
_atom_site_type_symbol
_atom_site_label
_atom_site_fract_x
_atom_site_fract_y
_atom_site_fract_z
Si Si1 0.565184 0.498502 0.258213
Si Si2 0.379961 0.137394 0.052159
Si Si3 0.352320 0.592662 0.914873
Si Si4 0.434196 0.518778 0.029976
Si Si5 0.940048 0.563311 0.218524
Si Si6 0.279325 0.359076 0.077114
Si Si7 0.166526 0.524228 0.132010
O O1 0.500000 0.556151 0.250000
O O2 0.617073 0.531095 0.172249
O O3 0.580062 0.567637 0.359026
O O4 0.561824 0.280776 0.268661
O O5 0.411673 0.318699 0.011946
O O6 0.423107 0.036842 0.112145
O O7 0.324489 0.228637 0.117525
O O8 0.353863 0.035250 0.968810
O O9 0.323671 0.762315 0.874579
O O10 0.408003 0.653997 0.960770
O O11 0.313103 0.508692 0.006880
O O12 0.500000 0.500000 0.000000
O O13 0.887110 0.484405 0.288947
O O14 0.000000 0.504073 0.250000
O O15 0.225963 0.434717 0.147175
O O16 0.250000 0.250000 0.000000
#
# Coordination Sequence:
#
# PCOD9257823 Si02
#       7
#     8   8   8   8   8   8   8
#     4   9  16  30  52  78 109 145 181 226 279 338
#     4   9  20  37  58  82 113 154 189 238 296 337
#     4  10  19  33  56  83 110 147 189 236 285 339
#     4  10  18  32  54  80 111 148 188 223 281 346
#     4   9  19  35  56  85 116 152 188 232 300 356
#     4   9  19  38  59  78 110 151 194 240 291 336
#     4  10  20  37  59  83 114 151 196 240 287 347
#
# _framework density 22.710059000000001
#
# number of rings (size 3 to 8) (size 9 to 14) (size 15 to 20)
#    0.000    2.571    1.429    0.429    2.000    0.571 
#    0.000   17.143    0.000    0.000    0.000    0.000 
#    0.000    0.000    0.000    0.000    0.000    0.000 
#
# Total GULP energy -155987.412995 kJ/mol
# GULP energy per Si atom -5570.979036 kJ/mol
# Density = 2.265837 g / cm^3
# Si number density = 22.710059 Si / 1000 Ang^3
#
#
#
# Elastic Constant Matrix: (Units=GPa)
#
#
# Indices 1 2 3 4 5 6 
#
# 1 88.0917 6.0812 -1.2915 0.0000 -15.3213 0.0000
# 2 6.0812 33.5776 -8.3005 0.0000 -2.5668 0.0000
# 3 -1.2915 -8.3005 75.7995 0.0000 1.4687 0.0000
# 4 0.0000 0.0000 0.0000 8.1370 0.0000 2.4206
# 5 -15.3213 -2.5668 1.4687 0.0000 38.1985 0.0000
# 6 0.0000 0.0000 0.0000 2.4206 0.0000 19.4340
#
#
#
# Elastic Compliance Matrix: (Units=1/GPa)
#
#
# Indices 1 2 3 4 5 6 
#
# 1 0.012319 -0.001885 -0.000090 0.000000 0.004818 0.000000
# 2 -0.001885 0.031042 0.003344 0.000000 0.001201 0.000000
# 3 -0.000090 0.003344 0.013564 0.000000 -0.000333 0.000000
# 4 0.000000 0.000000 0.000000 0.127624 0.000000 -0.015896
# 5 0.004818 0.001201 -0.000333 0.000000 0.028205 0.000000
# 6 0.000000 0.000000 0.000000 -0.015896 0.000000 0.053436
#
#
# Mechanical properties :
#
#
# Convention : Reuss Voigt Hill
#
# Bulk Modulus (GPa) = 16.76108 21.16079 18.96094
# Shear Modulus (GPa) = 17.64673 26.55253 22.09963
#
# Velocity S-wave (km/s) = 2.79058 3.42306 3.12287
# Velocity P-wave (km/s) = 4.21658 4.99612 4.62281
#
# Compressibility (1/GPa) = 0.05966203
#
# Stress axis : x y z
#
# Youngs Moduli (GPa) = 81.17856 32.21485 73.72569
#
# Poissons Ratio (x) = 0.06072 0.00663
# Poissons Ratio (y) = 0.15302 -0.24653
# Poissons Ratio (z) = 0.00730 -0.10772
#
# Static dielectric constant tensor:
#      x y z
#    x 1.844770 0.000000 0.009950 
#    y 0.000000 1.908620 0.000000 
#    z 0.009950 0.000000 1.886870 
# 
# From -- ./inp_files/171811.got.cif
#   From: 2010.05.17/outbox.cif.g08.bks.cpg/sg15_86_cif.got.tgz:171811.got - 2010.06.03 18:47:42.
