data_PCOD9257202
_publ_section_title
;
Structure prediction by ZEFSAII (Michael W. Deem and Ramdas Pophale) SiO2 
 PCOD9257202
Probable space group: C 2/C
;
_chemical_formula_sum "Si O2"
_cell_formula_units_Z 44
_cell_length_a 32.426696
_cell_length_b 10.544872
_cell_length_c 18.348923
_cell_angle_alpha 90.000000
_cell_angle_beta 20.961225
_cell_angle_gamma 90.000000
_cell_volume 2244.488151
_symmetry_space_group_name_H-M "C 2/C"
_symmetry_group_IT_number 15
_symmetry_cell_setting 'monoclinic'
loop_
_space_group_symop_operation_xyz
x,y,z
-x,y,1/2-z
-x,-y,-z
x,-y,1/2+z
1/2+x,1/2+y,z
1/2-x,1/2+y,1/2-z
1/2-x,1/2-y,-z
1/2+x,1/2-y,1/2+z
loop_
_atom_site_type_symbol
_atom_site_label
_atom_site_fract_x
_atom_site_fract_y
_atom_site_fract_z
Si Si1 0.376646 0.289751 0.815278
Si Si2 0.500000 0.280646 0.750000
Si Si3 0.837017 0.147365 0.073465
Si Si4 0.597618 0.409191 0.193055
Si Si5 0.207231 0.890933 0.311671
Si Si6 0.564472 0.634999 0.903297
O O1 0.429683 0.218880 0.798782
O O2 0.376602 0.440582 0.837473
O O3 0.466396 0.276018 0.600267
O O4 0.250000 0.250000 0.000000
O O5 0.600275 0.358341 0.542148
O O6 0.800197 0.281377 0.165809
O O7 0.754491 0.033485 0.235563
O O8 0.838322 0.143095 0.983688
O O9 0.962784 0.110447 0.896027
O O10 0.615404 0.337564 0.240053
O O11 0.159069 0.881060 0.309428
O O12 0.500000 0.500000 0.000000
#
# Coordination Sequence:
#
# PCOD9257202 Si02
#       6
#     8   4   8   8   8   8
#     4  10  18  30  61  90 113 160 208 246 295 357
#     4  10  18  38  54  88 126 146 214 252 284 364
#     4  11  21  37  62  88 117 164 200 245 310 361
#     4  10  19  38  57  84 124 157 199 246 300 373
#     4  11  21  36  62  89 114 162 201 249 306 359
#     4   9  18  34  56  86 116 150 205 248 292 362
#
# _framework density 19.603579
#
# number of rings (size 3 to 8) (size 9 to 14) (size 15 to 20)
#    0.000    1.818    7.273    0.000    2.545    0.727 
#    0.000    1.818    0.000    9.818    0.000    0.000 
#    0.000    0.000    0.000    0.000    0.000    0.000 
#
# Total GULP energy -122535.699366 kJ/mol
# GULP energy per Si atom -5569.804517 kJ/mol
# Density = 1.955896 g / cm^3
# Si number density = 19.603579 Si / 1000 Ang^3
#
#
#
# Elastic Constant Matrix: (Units=GPa)
#
#
# Indices 1 2 3 4 5 6 
#
# 1 151.3209 14.3053 42.7653 0.0000 14.8545 0.0000
# 2 14.3053 61.4460 26.3244 0.0000 -2.8134 0.0000
# 3 42.7653 26.3244 43.0576 0.0000 -4.5102 0.0000
# 4 0.0000 0.0000 0.0000 16.1445 0.0000 -8.2836
# 5 14.8545 -2.8134 -4.5102 0.0000 32.6607 0.0000
# 6 0.0000 0.0000 0.0000 -8.2836 0.0000 19.8030
#
#
#
# Elastic Compliance Matrix: (Units=1/GPa)
#
#
# Indices 1 2 3 4 5 6 
#
# 1 0.010620 0.002765 -0.012906 0.000000 -0.006374 0.000000
# 2 0.002765 0.022770 -0.016837 0.000000 -0.001621 0.000000
# 3 -0.012906 -0.016837 0.047487 0.000000 0.010977 0.000000
# 4 0.000000 0.000000 0.000000 0.078868 0.000000 0.032990
# 5 -0.006374 -0.001621 0.010977 0.000000 0.034893 0.000000
# 6 0.000000 0.000000 0.000000 0.032990 0.000000 0.064297
#
#
# Mechanical properties :
#
#
# Convention : Reuss Voigt Hill
#
# Bulk Modulus (GPa) = 37.14647 46.95716 42.05181
# Shear Modulus (GPa) = 15.53448 25.21695 20.37571
#
# Velocity S-wave (km/s) = 2.81807 3.59045 3.22745
# Velocity P-wave (km/s) = 5.43862 6.41824 5.94863
#
# Compressibility (1/GPa) = 0.02692046
#
# Stress axis : x y z
#
# Youngs Moduli (GPa) = 94.15913 43.91818 21.05848
#
# Poissons Ratio (x) = -0.12143 0.27179
# Poissons Ratio (y) = -0.26034 0.35456
# Poissons Ratio (z) = 1.21524 0.73944
#
# Static dielectric constant tensor:
#      x y z
#    x 1.752060 0.000000 0.030390 
#    y 0.000000 1.714980 0.000000 
#    z 0.030390 0.000000 1.705550 
# 
# From -- ./inp_files/203212.got.cif
#   From: 2010.05.17/outbox.cif.g08.bks.cpg/sg15_102_cif.got.tgz:203212.got - 2010.06.03 18:47:42.
