data_PCOD9257899
_publ_section_title
;
Structure prediction by ZEFSAII (Michael W. Deem and Ramdas Pophale) SiO2 
 PCOD9257899
Probable space group: C 2/C
;
_chemical_formula_sum "Si O2"
_cell_formula_units_Z 48
_cell_length_a 21.144399
_cell_length_b 13.036433
_cell_length_c 14.171493
_cell_angle_alpha 90.000000
_cell_angle_beta 138.648041
_cell_angle_gamma 90.000000
_cell_volume 2580.849346
_symmetry_space_group_name_H-M "C 2/C"
_symmetry_group_IT_number 15
_symmetry_cell_setting 'monoclinic'
loop_
_space_group_symop_operation_xyz
x,y,z
-x,y,1/2-z
-x,-y,-z
x,-y,1/2+z
1/2+x,1/2+y,z
1/2-x,1/2+y,1/2-z
1/2-x,1/2-y,-z
1/2+x,1/2-y,1/2+z
loop_
_atom_site_type_symbol
_atom_site_label
_atom_site_fract_x
_atom_site_fract_y
_atom_site_fract_z
Si Si1 0.675455 0.334859 0.880265
Si Si2 0.175171 0.899991 0.076034
Si Si3 0.083707 0.472189 0.520798
Si Si4 0.509788 0.232447 0.899140
Si Si5 0.860033 0.316224 0.390824
Si Si6 0.785359 0.105605 0.291708
O O1 0.572629 0.280617 0.757622
O O2 0.699578 0.375943 0.803568
O O3 0.750000 0.250000 0.000000
O O4 0.676018 0.417199 0.964575
O O5 0.277502 0.856926 0.226497
O O6 0.157509 0.006064 0.109842
O O7 0.096247 0.812440 0.006130
O O8 0.117776 0.583603 0.521059
O O9 0.173682 0.421853 0.676240
O O10 0.000000 0.500000 0.500000
O O11 0.047491 0.380591 0.413657
O O12 0.453852 0.214625 0.935849
O O13 0.817549 0.209298 0.380305
#
# Coordination Sequence:
#
# PCOD9257899 Si02
#       6
#     8   8   8   8   8   8
#     4  11  20  35  55  86 115 145 195 244 283 339
#     4  11  20  34  54  84 117 151 186 236 298 335
#     4   9  17  31  54  82 112 151 192 234 283 340
#     4  10  18  32  55  83 112 147 189 241 283 336
#     4   9  18  32  52  82 114 145 189 236 283 343
#     4  10  20  34  55  82 120 148 183 241 289 345
#
# _framework density 18.598528000000002
#
# number of rings (size 3 to 8) (size 9 to 14) (size 15 to 20)
#    0.000    2.000    5.000    0.500    0.000    2.667 
#    0.000    0.000    0.000    4.000    0.000   14.000 
#    0.000    0.000    0.000    0.000    0.000    0.000 
#
# Total GULP energy -133612.327024 kJ/mol
# GULP energy per Si atom -5567.180293 kJ/mol
# Density = 1.855620 g / cm^3
# Si number density = 18.598528 Si / 1000 Ang^3
#
#
#
# Elastic Constant Matrix: (Units=GPa)
#
#
# Indices 1 2 3 4 5 6 
#
# 1 45.3511 42.5276 33.3770 0.0000 14.8785 0.0000
# 2 42.5276 154.2921 42.7747 0.0000 -2.2538 0.0000
# 3 33.3770 42.7747 67.5802 0.0000 7.2347 0.0000
# 4 0.0000 0.0000 0.0000 32.5967 0.0000 5.8823
# 5 14.8785 -2.2538 7.2347 0.0000 29.4546 0.0000
# 6 0.0000 0.0000 0.0000 5.8823 0.0000 25.9446
#
#
#
# Elastic Compliance Matrix: (Units=1/GPa)
#
#
# Indices 1 2 3 4 5 6 
#
# 1 0.050537 -0.009696 -0.016443 0.000000 -0.022231 0.000000
# 2 -0.009696 0.009823 -0.002088 0.000000 0.006162 0.000000
# 3 -0.016443 -0.002088 0.023999 0.000000 0.002251 0.000000
# 4 0.000000 0.000000 0.000000 0.031987 0.000000 -0.007252
# 5 -0.022231 0.006162 0.002251 0.000000 0.045099 0.000000
# 6 0.000000 0.000000 0.000000 -0.007252 0.000000 0.040188
#
#
# Mechanical properties :
#
#
# Convention : Reuss Voigt Hill
#
# Bulk Modulus (GPa) = 35.83601 56.06466 45.95033
# Shear Modulus (GPa) = 18.69948 27.50213 23.10080
#
# Velocity S-wave (km/s) = 3.17429 3.84959 3.52813
# Velocity P-wave (km/s) = 5.72231 7.06889 6.43094
#
# Compressibility (1/GPa) = 0.02790489
#
# Stress axis : x y z
#
# Youngs Moduli (GPa) = 19.78742 101.80572 41.66870
#
# Poissons Ratio (x) = 0.98710 0.68515
# Poissons Ratio (y) = 0.19186 0.08701
# Poissons Ratio (z) = 0.32536 0.21259
#
# Static dielectric constant tensor:
#      x y z
#    x 1.680010 0.000000 0.020720 
#    y 0.000000 1.708210 0.000000 
#    z 0.020720 0.000000 1.648470 
# 
# From -- ./inp_files/168309.got.cif
#   From: 2010.05.17/outbox.cif.g08.bks.cpg/sg15_85_cif.got.tgz:168309.got - 2010.06.03 18:47:42.
