data_PCOD9257932
_publ_section_title
;
Structure prediction by ZEFSAII (Michael W. Deem and Ramdas Pophale) SiO2 
 PCOD9257932
Probable space group: C 2/C
;
_chemical_formula_sum "Si O2"
_cell_formula_units_Z 60
_cell_length_a 29.645264
_cell_length_b 15.600696
_cell_length_c 20.263276
_cell_angle_alpha 90.000000
_cell_angle_beta 158.578550
_cell_angle_gamma 90.000000
_cell_volume 3422.707888
_symmetry_space_group_name_H-M "C 2/C"
_symmetry_group_IT_number 15
_symmetry_cell_setting 'monoclinic'
loop_
_space_group_symop_operation_xyz
x,y,z
-x,y,1/2-z
-x,-y,-z
x,-y,1/2+z
1/2+x,1/2+y,z
1/2-x,1/2+y,1/2-z
1/2-x,1/2-y,-z
1/2+x,1/2-y,1/2+z
loop_
_atom_site_type_symbol
_atom_site_label
_atom_site_fract_x
_atom_site_fract_y
_atom_site_fract_z
Si Si1 0.853427 0.220425 0.872601
Si Si2 0.160641 0.019214 0.879131
Si Si3 0.927803 0.918924 0.370045
Si Si4 0.926951 0.224988 0.513057
Si Si5 0.000000 0.148083 0.750000
Si Si6 0.555146 0.395473 0.896074
Si Si7 0.305746 0.021079 0.695940
Si Si8 0.975992 0.361047 0.951835
O O1 0.863365 0.136750 0.839241
O O2 0.716236 0.255700 0.692536
O O3 0.936189 0.292011 0.951397
O O4 0.906466 0.188632 0.013631
O O5 0.173942 0.059482 0.825093
O O6 0.099621 0.087096 0.848143
O O7 0.054889 0.948830 0.721258
O O8 0.273674 0.979015 0.073894
O O9 0.024294 0.856784 0.462508
O O10 0.000000 0.000000 0.500000
O O11 0.947683 0.204400 0.618489
O O12 0.997779 0.307729 0.579451
O O13 0.500000 0.374815 0.750000
O O14 0.675302 0.456032 0.052351
O O15 0.366319 0.929441 0.793665
O O16 0.403911 0.089293 0.857583
#
# Coordination Sequence:
#
# PCOD9257932 Si02
#       8
#     8   8   8   8   4   8   8   8
#     4  11  21  36  55  81 116 143 178 235 278 321
#     4  10  18  33  58  84 104 146 193 222 264 331
#     4  10  21  35  55  84 107 143 189 225 276 329
#     4  10  22  36  53  83 116 141 183 231 278 329
#     4  10  18  32  56  80 108 142 182 218 276 328
#     4  10  19  34  59  80 104 148 190 224 270 323
#     4  10  19  37  57  79 110 143 188 225 265 337
#     4  10  22  35  56  85 109 148 185 221 282 330
#
# _framework density 17.529980999999999
#
# number of rings (size 3 to 8) (size 9 to 14) (size 15 to 20)
#    0.000    1.867    4.667    0.800    1.867    1.067 
#    0.000    8.000    0.000    0.000    3.467    0.000 
#    0.000    0.000    0.000    0.000    0.000    0.000 
#
# Total GULP energy -167157.401773 kJ/mol
# GULP energy per Si atom -5571.913392 kJ/mol
# Density = 1.749008 g / cm^3
# Si number density = 17.529981 Si / 1000 Ang^3
#
#
#
# Elastic Constant Matrix: (Units=GPa)
#
#
# Indices 1 2 3 4 5 6 
#
# 1 39.9407 12.9852 13.6817 0.0000 -14.3457 0.0000
# 2 12.9852 78.8774 31.5342 0.0000 -10.2799 0.0000
# 3 13.6817 31.5342 90.5982 0.0000 -12.6239 0.0000
# 4 0.0000 0.0000 0.0000 29.3454 0.0000 -8.8657
# 5 -14.3457 -10.2799 -12.6239 0.0000 19.0402 0.0000
# 6 0.0000 0.0000 0.0000 -8.8657 0.0000 13.5226
#
#
#
# Elastic Compliance Matrix: (Units=1/GPa)
#
#
# Indices 1 2 3 4 5 6 
#
# 1 0.034868 -0.002109 -0.001134 0.000000 0.024380 0.000000
# 2 -0.002109 0.015303 -0.004493 0.000000 0.003694 0.000000
# 3 -0.001134 -0.004493 0.013569 0.000000 0.005716 0.000000
# 4 0.000000 0.000000 0.000000 0.042494 0.000000 0.027860
# 5 0.024380 0.003694 0.005716 0.000000 0.076674 0.000000
# 6 0.000000 0.000000 0.000000 0.027860 0.000000 0.092215
#
#
# Mechanical properties :
#
#
# Convention : Reuss Voigt Hill
#
# Bulk Modulus (GPa) = 20.71812 36.20206 28.46009
# Shear Modulus (GPa) = 16.30333 22.46266 19.38300
#
# Velocity S-wave (km/s) = 3.05294 3.58353 3.32882
# Velocity P-wave (km/s) = 4.92662 6.14968 5.57181
#
# Compressibility (1/GPa) = 0.04826693
#
# Stress axis : x y z
#
# Youngs Moduli (GPa) = 28.67946 65.34723 73.69480
#
# Poissons Ratio (x) = 0.13783 0.08360
# Poissons Ratio (y) = 0.06049 0.33113
# Poissons Ratio (z) = 0.03253 0.29362
#
# Static dielectric constant tensor:
#      x y z
#    x 1.624870 0.000000 -0.015040 
#    y 0.000000 1.618150 0.000000 
#    z -0.015040 0.000000 1.591930 
# 
# From -- ./inp_files/222719.got.cif
#   From: 2010.05.17/outbox.cif.g08.bks.cpg/sg15_112_cif.got.tgz:222719.got - 2010.06.03 18:47:42.
