data_PCOD9257021
_publ_section_title
;
Structure prediction by ZEFSAII (Michael W. Deem and Ramdas Pophale) SiO2 
 PCOD9257021
Probable space group: C 2/C
;
_chemical_formula_sum "Si O2"
_cell_formula_units_Z 64
_cell_length_a 24.751887
_cell_length_b 10.275164
_cell_length_c 15.409514
_cell_angle_alpha 90.000000
_cell_angle_beta 134.207499
_cell_angle_gamma 90.000000
_cell_volume 2809.284616
_symmetry_space_group_name_H-M "C 2/C"
_symmetry_group_IT_number 15
_symmetry_cell_setting 'monoclinic'
loop_
_space_group_symop_operation_xyz
x,y,z
-x,y,1/2-z
-x,-y,-z
x,-y,1/2+z
1/2+x,1/2+y,z
1/2-x,1/2+y,1/2-z
1/2-x,1/2-y,-z
1/2+x,1/2-y,1/2+z
loop_
_atom_site_type_symbol
_atom_site_label
_atom_site_fract_x
_atom_site_fract_y
_atom_site_fract_z
Si Si1 0.679425 0.629817 0.467457
Si Si2 0.545694 0.389678 0.932981
Si Si3 0.067754 0.685611 0.739397
Si Si4 0.245886 0.372062 0.617504
Si Si5 0.445530 0.915730 0.825058
Si Si6 0.025231 0.136108 0.612407
Si Si7 0.866883 0.778261 0.869204
Si Si8 0.617808 0.012442 0.567582
O O1 0.620178 0.565005 0.465947
O O2 0.627329 0.734038 0.359635
O O3 0.723108 0.562661 0.436536
O O4 0.736825 0.717799 0.586640
O O5 0.513954 0.255074 0.856204
O O6 0.476665 0.493981 0.846500
O O7 0.556993 0.371386 0.049290
O O8 0.072713 0.531785 0.761954
O O9 0.091899 0.711252 0.666917
O O10 0.306158 0.377174 0.763047
O O11 0.165707 0.421175 0.559280
O O12 0.442461 0.761869 0.802384
O O13 0.394736 0.941098 0.853853
O O14 0.532885 0.949279 0.944986
O O15 0.935537 0.159517 0.498304
O O16 0.836380 0.649208 0.881094
#
# Coordination Sequence:
#
# PCOD9257021 Si02
#       8
#     8   8   8   8   8   8   8   8
#     4  10  20  31  46  70 102 136 173 207 241 300
#     4  10  18  30  51  77 105 133 164 207 259 304
#     4   9  17  31  52  74  96 128 169 211 252 293
#     4  10  19  31  47  71  99 133 171 204 246 303
#     4   9  16  31  54  77  99 124 166 222 263 292
#     4   9  18  31  51  80 106 127 162 212 263 305
#     4   8  17  31  47  72  99 124 160 209 253 297
#     4   9  16  29  51  74  97 125 163 212 261 296
#
# _framework density 22.781600000000001
#
# number of rings (size 3 to 8) (size 9 to 14) (size 15 to 20)
#    0.000    2.750    0.000    4.125    0.000    1.000 
#    0.000    2.500    0.000   12.000    0.000    7.000 
#    0.000    0.000    0.000    0.000    0.000    0.000 
#
# Total GULP energy -178313.581114 kJ/mol
# GULP energy per Si atom -5572.299410 kJ/mol
# Density = 2.272975 g / cm^3
# Si number density = 22.781600 Si / 1000 Ang^3
#
#
#
# Elastic Constant Matrix: (Units=GPa)
#
#
# Indices 1 2 3 4 5 6 
#
# 1 141.3250 26.4849 6.0085 0.0000 14.3717 0.0000
# 2 26.4849 93.2655 0.8003 0.0000 -2.4857 0.0000
# 3 6.0085 0.8003 36.4209 0.0000 3.0658 0.0000
# 4 0.0000 0.0000 0.0000 10.9258 0.0000 2.0307
# 5 14.3717 -2.4857 3.0658 0.0000 13.3192 0.0000
# 6 0.0000 0.0000 0.0000 2.0307 0.0000 24.6803
#
#
#
# Elastic Compliance Matrix: (Units=1/GPa)
#
#
# Indices 1 2 3 4 5 6 
#
# 1 0.008583 -0.002690 -0.000546 0.000000 -0.009638 0.000000
# 2 -0.002690 0.011625 -0.000243 0.000000 0.005128 0.000000
# 3 -0.000546 -0.000243 0.028050 0.000000 -0.005913 0.000000
# 4 0.000000 0.000000 0.000000 0.092948 0.000000 -0.007648
# 5 -0.009638 0.005128 -0.005913 0.000000 0.087797 0.000000
# 6 0.000000 0.000000 0.000000 -0.007648 0.000000 0.041147
#
#
# Mechanical properties :
#
#
# Convention : Reuss Voigt Hill
#
# Bulk Modulus (GPa) = 24.21272 37.51099 30.86185
# Shear Modulus (GPa) = 17.18955 25.63289 21.41122
#
# Velocity S-wave (km/s) = 2.74986 3.35798 3.06902
# Velocity P-wave (km/s) = 4.55342 5.61568 5.11222
#
# Compressibility (1/GPa) = 0.04130060
#
# Stress axis : x y z
#
# Youngs Moduli (GPa) = 116.50628 86.02445 35.65075
#
# Poissons Ratio (x) = 0.23137 0.01945
# Poissons Ratio (y) = 0.31335 0.00868
# Poissons Ratio (z) = 0.06357 0.02094
#
# Static dielectric constant tensor:
#      x y z
#    x 1.913510 0.000000 -0.031470 
#    y 0.000000 1.988640 0.000000 
#    z -0.031470 0.000000 1.907070 
# 
# From -- ./inp_files/219148.got.cif
#   From: 2010.05.17/outbox.cif.g08.bks.cpg/sg15_110_cif.got.tgz:219148.got - 2010.06.03 18:47:42.
