data_PCOD9257670
_publ_section_title
;
Structure prediction by ZEFSAII (Michael W. Deem and Ramdas Pophale) SiO2 
 PCOD9257670
Probable space group: C 2/C
;
_chemical_formula_sum "Si O2"
_cell_formula_units_Z 56
_cell_length_a 29.318204
_cell_length_b 16.288775
_cell_length_c 9.737432
_cell_angle_alpha 90.000000
_cell_angle_beta 133.289541
_cell_angle_gamma 90.000000
_cell_volume 3384.860021
_symmetry_space_group_name_H-M "C 2/C"
_symmetry_group_IT_number 15
_symmetry_cell_setting 'monoclinic'
loop_
_space_group_symop_operation_xyz
x,y,z
-x,y,1/2-z
-x,-y,-z
x,-y,1/2+z
1/2+x,1/2+y,z
1/2-x,1/2+y,1/2-z
1/2-x,1/2-y,-z
1/2+x,1/2-y,1/2+z
loop_
_atom_site_type_symbol
_atom_site_label
_atom_site_fract_x
_atom_site_fract_y
_atom_site_fract_z
Si Si1 0.287152 0.597126 0.407387
Si Si2 0.781529 0.090501 0.906534
Si Si3 0.696673 0.698334 0.810276
Si Si4 0.687553 0.296174 0.810556
Si Si5 0.148178 0.374339 0.264851
Si Si6 0.855103 0.360713 0.909612
Si Si7 0.453058 0.994851 0.028512
O O1 0.301233 0.501711 0.412694
O O2 0.323272 0.633938 0.613540
O O3 0.299410 0.655734 0.302333
O O4 0.211884 0.601771 0.275185
O O5 0.775707 0.146053 0.758936
O O6 0.715581 0.091121 0.853184
O O7 0.828588 0.137692 0.106359
O O8 0.649334 0.765974 0.649655
O O9 0.750000 0.750000 0.000000
O O10 0.642016 0.219315 0.700131
O O11 0.750000 0.250000 0.000000
O O12 0.143724 0.370429 0.421886
O O13 0.096746 0.432806 0.093940
O O14 0.912208 0.411912 0.963687
O O15 0.500000 0.005051 0.250000
O O16 0.500000 0.000000 0.000000
#
# Coordination Sequence:
#
# PCOD9257670 Si02
#       7
#     8   8   8   8   8   8   8
#     4  11  20  31  51  84 110 140 183 220 266 336
#     4  11  19  31  54  78 110 147 180 212 273 342
#     4  10  21  31  49  80 109 142 185 224 264 339
#     4  10  18  32  51  75 103 146 183 208 267 346
#     4  11  20  36  55  70 107 151 183 222 278 318
#     4  11  20  37  52  71 110 148 182 223 281 311
#     4  12  26  38  57  81 105 145 202 237 261 318
#
# _framework density 16.544257999999999
#
# number of rings (size 3 to 8) (size 9 to 14) (size 15 to 20)
#    0.000    1.143    7.143    3.429    0.000    3.429 
#    0.000    0.000    0.000    0.000    0.000    0.000 
#    0.000   22.857    0.000    0.000    0.000    0.000 
#
# Total GULP energy -155977.589231 kJ/mol
# GULP energy per Si atom -5570.628187 kJ/mol
# Density = 1.650660 g / cm^3
# Si number density = 16.544258 Si / 1000 Ang^3
#
#
#
# Elastic Constant Matrix: (Units=GPa)
#
#
# Indices 1 2 3 4 5 6 
#
# 1 82.9934 51.8448 36.5647 0.0000 -23.0233 0.0000
# 2 51.8448 145.1334 45.3269 0.0000 -6.4310 0.0000
# 3 36.5647 45.3269 77.5201 0.0000 -15.9939 0.0000
# 4 0.0000 0.0000 0.0000 22.8288 0.0000 -4.0730
# 5 -23.0233 -6.4310 -15.9939 0.0000 28.8326 0.0000
# 6 0.0000 0.0000 0.0000 -4.0730 0.0000 26.7591
#
#
#
# Elastic Compliance Matrix: (Units=1/GPa)
#
#
# Indices 1 2 3 4 5 6 
#
# 1 0.021018 -0.005727 -0.003801 0.000000 0.013398 0.000000
# 2 -0.005727 0.010014 -0.004107 0.000000 -0.004618 0.000000
# 3 -0.003801 -0.004107 0.018382 0.000000 0.006246 0.000000
# 4 0.000000 0.000000 0.000000 0.045027 0.000000 0.006854
# 5 0.013398 -0.004618 0.006246 0.000000 0.047816 0.000000
# 6 0.000000 0.000000 0.000000 0.006854 0.000000 0.038414
#
#
# Mechanical properties :
#
#
# Convention : Reuss Voigt Hill
#
# Bulk Modulus (GPa) = 45.15667 63.67997 54.41832
# Shear Modulus (GPa) = 23.22097 27.14481 25.18289
#
# Velocity S-wave (km/s) = 3.75048 4.05500 3.90571
# Velocity P-wave (km/s) = 6.79033 7.77806 7.30092
#
# Compressibility (1/GPa) = 0.02214512
#
# Stress axis : x y z
#
# Youngs Moduli (GPa) = 47.57793 99.85922 54.39964
#
# Poissons Ratio (x) = 0.57194 0.20676
# Poissons Ratio (y) = 0.27250 0.22340
# Poissons Ratio (z) = 0.18083 0.41008
#
# Static dielectric constant tensor:
#      x y z
#    x 1.601210 0.000000 -0.003640 
#    y 0.000000 1.631230 0.000000 
#    z -0.003640 0.000000 1.570430 
# 
# From -- ./inp_files/66909.got.cif
#   From: 2010.05.17/outbox.cif.g08.bks.cpg/sg15_34_cif.got.tgz:66909.got - 2010.06.03 18:47:42.
