data_PCOD9257397
_publ_section_title
;
Structure prediction by ZEFSAII (Michael W. Deem and Ramdas Pophale) SiO2 
 PCOD9257397
Probable space group: C 2/C
;
_chemical_formula_sum "Si O2"
_cell_formula_units_Z 60
_cell_length_a 25.719210
_cell_length_b 14.639871
_cell_length_c 18.598375
_cell_angle_alpha 90.000000
_cell_angle_beta 158.586359
_cell_angle_gamma 90.000000
_cell_volume 2556.700474
_symmetry_space_group_name_H-M "C 2/C"
_symmetry_group_IT_number 15
_symmetry_cell_setting 'monoclinic'
loop_
_space_group_symop_operation_xyz
x,y,z
-x,y,1/2-z
-x,-y,-z
x,-y,1/2+z
1/2+x,1/2+y,z
1/2-x,1/2+y,1/2-z
1/2-x,1/2-y,-z
1/2+x,1/2-y,1/2+z
loop_
_atom_site_type_symbol
_atom_site_label
_atom_site_fract_x
_atom_site_fract_y
_atom_site_fract_z
Si Si1 0.500000 0.184821 0.250000
Si Si2 0.635658 0.646179 0.957622
Si Si3 0.980112 0.335188 0.117427
Si Si4 0.865921 0.994011 0.273848
Si Si5 0.410480 0.881777 0.864111
Si Si6 0.315516 0.313331 0.685335
Si Si7 0.058134 0.471168 0.937432
Si Si8 0.999358 0.189602 0.928891
O O1 0.372854 0.258471 0.097725
O O2 0.482263 0.116155 0.161593
O O3 0.500000 0.594176 0.750000
O O4 0.603267 0.686035 0.995318
O O5 0.767569 0.581204 0.142701
O O6 0.916369 0.360495 0.955846
O O7 0.851268 0.303013 0.004861
O O8 0.026041 0.438392 0.197149
O O9 0.107216 0.263181 0.264867
O O10 0.892357 0.894189 0.276292
O O11 0.847982 0.082981 0.200900
O O12 0.722359 0.991924 0.134702
O O13 0.000000 0.000000 0.500000
O O14 0.536637 0.940727 0.992084
O O15 0.416772 0.782178 0.835706
O O16 0.403463 0.314501 0.874058
#
# Coordination Sequence:
#
# PCOD9257397 Si02
#       8
#     4   8   8   8   8   8   8   8
#     4  10  22  38  58  86 128 174 204 238 296 392
#     4  10  21  34  51  83 121 166 193 233 288 363
#     4  10  21  36  61  84 118 157 199 266 311 354
#     4   9  20  35  57  81 114 155 199 249 304 361
#     4  11  20  34  55  86 124 156 202 248 299 371
#     4   9  19  36  55  85 110 148 201 251 310 356
#     4  11  22  38  56  87 118 160 211 247 305 366
#     4  10  18  31  53  75 114 155 192 234 294 360
#
# _framework density 23.467746999999999
#
# number of rings (size 3 to 8) (size 9 to 14) (size 15 to 20)
#    0.400    1.600    2.667    1.200    0.000    6.400 
#    2.400    0.000    0.000    3.200    1.733    0.000 
#    0.000    0.000    0.000    0.000    0.000    0.000 
#
# Total GULP energy -167042.559862 kJ/mol
# GULP energy per Si atom -5568.085329 kJ/mol
# Density = 2.341433 g / cm^3
# Si number density = 23.467747 Si / 1000 Ang^3
#
#
#
# Elastic Constant Matrix: (Units=GPa)
#
#
# Indices 1 2 3 4 5 6 
#
# 1 63.6958 21.7403 5.1523 0.0000 16.3349 0.0000
# 2 21.7403 112.0395 19.1482 0.0000 34.7521 0.0000
# 3 5.1523 19.1482 62.7933 -0.0001 7.8028 0.0000
# 4 0.0000 0.0000 -0.0001 25.9803 0.0000 11.5101
# 5 16.3349 34.7521 7.8028 0.0000 30.4082 0.0000
# 6 0.0000 0.0000 0.0000 11.5101 0.0000 32.2411
#
#
#
# Elastic Compliance Matrix: (Units=1/GPa)
#
#
# Indices 1 2 3 4 5 6 
#
# 1 0.018253 -0.000752 -0.000162 0.000000 -0.008904 0.000000
# 2 -0.000752 0.014195 -0.002377 0.000000 -0.015209 0.000000
# 3 -0.000162 -0.002377 0.016852 0.000000 -0.001521 0.000000
# 4 0.000000 0.000000 0.000000 0.045722 0.000000 -0.016323
# 5 -0.008904 -0.015209 -0.001521 0.000000 0.055440 0.000000
# 6 0.000000 0.000000 0.000000 -0.016323 0.000000 0.036844
#
#
# Mechanical properties :
#
#
# Convention : Reuss Voigt Hill
#
# Bulk Modulus (GPa) = 23.40944 36.73446 30.07195
# Shear Modulus (GPa) = 24.02361 30.55844 27.29102
#
# Velocity S-wave (km/s) = 3.20298 3.61244 3.41386
# Velocity P-wave (km/s) = 4.86576 5.75211 5.32740
#
# Compressibility (1/GPa) = 0.04271781
#
# Stress axis : x y z
#
# Youngs Moduli (GPa) = 54.78573 70.44692 59.33877
#
# Poissons Ratio (x) = 0.05300 0.00960
# Poissons Ratio (y) = 0.04122 0.14105
# Poissons Ratio (z) = 0.00887 0.16746
#
# Static dielectric constant tensor:
#      x y z
#    x 1.958940 0.000000 0.008030 
#    y 0.000000 2.024980 0.000000 
#    z 0.008030 0.000000 2.120680 
# 
# From -- ./inp_files/284757.got.cif
#   From: 2010.05.17/outbox.cif.g08.bks.cpg/sg15_143_cif.got.tgz:284757.got - 2010.06.03 18:47:42.
