data_PCOD9257499
_publ_section_title
;
Structure prediction by ZEFSAII (Michael W. Deem and Ramdas Pophale) SiO2 
 PCOD9257499
Probable space group: C 2/C
;
_chemical_formula_sum "Si O2"
_cell_formula_units_Z 64
_cell_length_a 8.248827
_cell_length_b 19.916623
_cell_length_c 22.345146
_cell_angle_alpha 90.000000
_cell_angle_beta 57.879932
_cell_angle_gamma 90.000000
_cell_volume 3109.149161
_symmetry_space_group_name_H-M "C 2/C"
_symmetry_group_IT_number 15
_symmetry_cell_setting 'monoclinic'
loop_
_space_group_symop_operation_xyz
x,y,z
-x,y,1/2-z
-x,-y,-z
x,-y,1/2+z
1/2+x,1/2+y,z
1/2-x,1/2+y,1/2-z
1/2-x,1/2-y,-z
1/2+x,1/2-y,1/2+z
loop_
_atom_site_type_symbol
_atom_site_label
_atom_site_fract_x
_atom_site_fract_y
_atom_site_fract_z
Si Si1 0.595379 0.697818 0.134009
Si Si2 0.701559 0.802871 0.775141
Si Si3 0.213065 0.846781 0.269146
Si Si4 0.277349 0.480564 0.044753
Si Si5 0.391671 0.152732 0.866770
Si Si6 0.776677 0.058121 0.417316
Si Si7 0.451803 0.059146 0.164341
Si Si8 0.106572 0.007237 0.788221
O O1 0.695059 0.696642 0.180070
O O2 0.371153 0.686325 0.193550
O O3 0.627611 0.772484 0.103009
O O4 0.685227 0.637114 0.079612
O O5 0.625490 0.727474 0.779996
O O6 0.558986 0.865256 0.808476
O O7 0.380161 0.858143 0.187093
O O8 0.311384 0.845456 0.314958
O O9 0.084985 0.912757 0.294745
O O10 0.221716 0.406457 0.079168
O O11 0.159507 0.530449 0.110482
O O12 0.500000 0.500000 0.000000
O O13 0.203967 0.479112 0.990452
O O14 0.651944 0.053672 0.380990
O O15 0.985626 0.026462 0.363571
O O16 0.325020 0.014466 0.235065
O O17 0.000000 0.980757 0.750000
#
# Coordination Sequence:
#
# PCOD9257499 Si02
#       8
#     8   8   8   8   8   8   8   8
#     4   8  14  29  54  84  98 128 178 227 268 309
#     4   8  14  28  56  79 103 128 177 228 265 313
#     4   9  16  31  54  80 102 135 176 221 273 318
#     4  12  24  36  50  77 120 153 177 213 267 329
#     4   9  18  31  53  77 105 139 176 219 265 323
#     4  10  20  34  57  81 106 138 180 230 270 317
#     4  10  19  36  57  80 104 141 187 227 262 310
#     4  10  18  31  56  80 104 134 180 230 270 314
#
# _framework density 20.584409000000001
#
# number of rings (size 3 to 8) (size 9 to 14) (size 15 to 20)
#    0.000    2.500    2.500    2.625    0.000    0.500 
#    0.000    0.000    5.500   13.500    0.000    0.000 
#    0.000    0.000    0.000    0.000    0.000    0.000 
#
# Total GULP energy -178386.021832 kJ/mol
# GULP energy per Si atom -5574.563182 kJ/mol
# Density = 2.053756 g / cm^3
# Si number density = 20.584409 Si / 1000 Ang^3
#
#
#
# Elastic Constant Matrix: (Units=GPa)
#
#
# Indices 1 2 3 4 5 6 
#
# 1 55.3720 16.8606 25.0024 0.0000 -5.6828 0.0000
# 2 16.8606 141.7347 49.7135 0.0000 -28.6712 0.0000
# 3 25.0024 49.7135 84.8133 0.0000 -17.0267 0.0000
# 4 0.0000 0.0000 0.0000 31.0535 0.0000 -0.3498
# 5 -5.6828 -28.6712 -17.0267 0.0000 28.6546 0.0000
# 6 0.0000 0.0000 0.0000 -0.3498 0.0000 13.8111
#
#
#
# Elastic Compliance Matrix: (Units=1/GPa)
#
#
# Indices 1 2 3 4 5 6 
#
# 1 0.020853 -0.000362 -0.005879 0.000000 0.000280 0.000000
# 2 -0.000362 0.010133 -0.004328 0.000000 0.007495 0.000000
# 3 -0.005879 -0.004328 0.016983 0.000000 0.004595 0.000000
# 4 0.000000 0.000000 0.000000 0.032212 0.000000 0.000816
# 5 0.000280 0.007495 0.004595 0.000000 0.045184 0.000000
# 6 0.000000 0.000000 0.000000 0.000816 0.000000 0.072426
#
#
# Mechanical properties :
#
#
# Convention : Reuss Voigt Hill
#
# Bulk Modulus (GPa) = 37.27010 51.67477 44.47243
# Shear Modulus (GPa) = 21.94215 27.39340 24.66777
#
# Velocity S-wave (km/s) = 3.26845 3.65195 3.46551
# Velocity P-wave (km/s) = 5.69113 6.55291 6.13716
#
# Compressibility (1/GPa) = 0.02683116
#
# Stress axis : x y z
#
# Youngs Moduli (GPa) = 47.95425 98.69053 58.88249
#
# Poissons Ratio (x) = 0.03572 0.34617
# Poissons Ratio (y) = 0.01736 0.25484
# Poissons Ratio (z) = 0.28192 0.42712
#
# Static dielectric constant tensor:
#      x y z
#    x 1.788540 0.000000 0.007330 
#    y 0.000000 1.761120 0.000000 
#    z 0.007330 0.000000 1.716310 
# 
# From -- ./inp_files/266087.got.cif
#   From: 2010.05.17/outbox.cif.g08.bks.cpg/sg15_134_cif.got.tgz:266087.got - 2010.06.03 18:47:42.
