data_PCOD9257546
_publ_section_title
;
Structure prediction by ZEFSAII (Michael W. Deem and Ramdas Pophale) SiO2 
 PCOD9257546
Probable space group: C 2/C
;
_chemical_formula_sum "Si O2"
_cell_formula_units_Z 60
_cell_length_a 17.086193
_cell_length_b 9.784514
_cell_length_c 23.831498
_cell_angle_alpha 90.000000
_cell_angle_beta 36.673914
_cell_angle_gamma 90.000000
_cell_volume 2379.574866
_symmetry_space_group_name_H-M "C 2/C"
_symmetry_group_IT_number 15
_symmetry_cell_setting 'monoclinic'
loop_
_space_group_symop_operation_xyz
x,y,z
-x,y,1/2-z
-x,-y,-z
x,-y,1/2+z
1/2+x,1/2+y,z
1/2-x,1/2+y,1/2-z
1/2-x,1/2-y,-z
1/2+x,1/2-y,1/2+z
loop_
_atom_site_type_symbol
_atom_site_label
_atom_site_fract_x
_atom_site_fract_y
_atom_site_fract_z
Si Si1 0.453185 0.306866 0.576926
Si Si2 0.710163 0.352808 0.366702
Si Si3 0.180007 0.918363 0.743532
Si Si4 0.971681 0.513230 0.581879
Si Si5 0.642633 0.204872 0.605589
Si Si6 0.000000 0.926480 0.750000
Si Si7 0.930767 0.394177 0.869178
Si Si8 0.798004 0.660086 0.337550
O O1 0.556128 0.350688 0.469874
O O2 0.417279 0.415514 0.646520
O O3 0.506756 0.170039 0.576017
O O4 0.322044 0.260687 0.619798
O O5 0.766399 0.240207 0.291833
O O6 0.774279 0.296574 0.385888
O O7 0.760794 0.506657 0.338512
O O8 0.120943 0.984910 0.718662
O O9 0.317387 0.990157 0.679948
O O10 0.000000 0.500000 0.500000
O O11 0.055141 0.407570 0.572026
O O12 0.750000 0.250000 0.500000
O O13 0.546011 0.328177 0.673217
O O14 0.574519 0.056738 0.642631
O O15 0.816106 0.335650 0.894840
O O16 0.060647 0.319439 0.771873
#
# Coordination Sequence:
#
# PCOD9257546 Si02
#       8
#     8   8   8   8   8   4   8   8
#     4  12  23  40  64  94 126 165 216 264 325 388
#     4  10  20  36  60  91 124 153 204 262 314 379
#     4  11  23  39  63  89 126 163 204 260 325 387
#     4  12  24  42  63  91 126 172 216 266 323 389
#     4  10  18  31  58  89 115 154 196 260 314 362
#     4  10  20  34  52  88 120 144 196 254 314 370
#     4  10  20  39  62  88 123 168 218 257 321 383
#     4  10  21  39  64  93 123 164 214 269 313 387
#
# _framework density 25.214587000000002
#
# number of rings (size 3 to 8) (size 9 to 14) (size 15 to 20)
#    0.000    1.333    2.667    6.000    1.867    0.000 
#    0.000    2.000    0.000    0.000    0.000    0.000 
#    0.000    0.000    0.000    0.000    0.000    0.000 
#
# Total GULP energy -167235.906063 kJ/mol
# GULP energy per Si atom -5574.530202 kJ/mol
# Density = 2.515720 g / cm^3
# Si number density = 25.214587 Si / 1000 Ang^3
#
#
#
# Elastic Constant Matrix: (Units=GPa)
#
#
# Indices 1 2 3 4 5 6 
#
# 1 149.9222 -12.4532 15.5001 0.0000 10.7684 0.0000
# 2 -12.4532 33.5759 0.8193 0.0000 -10.1630 0.0000
# 3 15.5001 0.8193 100.0052 0.0000 6.5487 0.0000
# 4 0.0000 0.0000 0.0000 18.6548 0.0000 -4.0576
# 5 10.7684 -10.1630 6.5487 0.0000 44.4295 0.0000
# 6 0.0000 0.0000 0.0000 -4.0576 0.0000 36.9644
#
#
#
# Elastic Compliance Matrix: (Units=1/GPa)
#
#
# Indices 1 2 3 4 5 6 
#
# 1 0.007045 0.002329 -0.001044 0.000000 -0.001021 0.000000
# 2 0.002329 0.032825 -0.001095 0.000000 0.007105 0.000000
# 3 -0.001044 -0.001095 0.010269 0.000000 -0.001511 0.000000
# 4 0.000000 0.000000 0.000000 0.054917 0.000000 0.006028
# 5 -0.001021 0.007105 -0.001511 0.000000 0.024603 0.000000
# 6 0.000000 0.000000 0.000000 0.006028 0.000000 0.027715
#
#
# Mechanical properties :
#
#
# Convention : Reuss Voigt Hill
#
# Bulk Modulus (GPa) = 19.79458 32.35952 26.07705
# Shear Modulus (GPa) = 28.76327 38.65221 33.70774
#
# Velocity S-wave (km/s) = 3.38115 3.91951 3.66024
# Velocity P-wave (km/s) = 4.80732 5.77451 5.31297
#
# Compressibility (1/GPa) = 0.05051887
#
# Stress axis : x y z
#
# Youngs Moduli (GPa) = 141.94691 30.46491 97.37812
#
# Poissons Ratio (x) = -0.07097 0.10168
# Poissons Ratio (y) = -0.33066 0.10665
# Poissons Ratio (z) = 0.14821 0.03337
#
# Static dielectric constant tensor:
#      x y z
#    x 2.221320 0.000000 -0.217560 
#    y 0.000000 2.174060 0.000000 
#    z -0.217560 0.000000 2.325400 
# 
# From -- ./inp_files/277251.got.cif
#   From: 2010.05.17/outbox.cif.g08.bks.cpg/sg15_139_cif.got.tgz:277251.got - 2010.06.03 18:47:42.
