data_PCOD9257504
_publ_section_title
;
Structure prediction by ZEFSAII (Michael W. Deem and Ramdas Pophale) SiO2 
 PCOD9257504
Probable space group: C 2/C
;
_chemical_formula_sum "Si O2"
_cell_formula_units_Z 52
_cell_length_a 12.387087
_cell_length_b 29.951894
_cell_length_c 8.617487
_cell_angle_alpha 90.000000
_cell_angle_beta 123.889836
_cell_angle_gamma 90.000000
_cell_volume 2654.057914
_symmetry_space_group_name_H-M "C 2/C"
_symmetry_group_IT_number 15
_symmetry_cell_setting 'monoclinic'
loop_
_space_group_symop_operation_xyz
x,y,z
-x,y,1/2-z
-x,-y,-z
x,-y,1/2+z
1/2+x,1/2+y,z
1/2-x,1/2+y,1/2-z
1/2-x,1/2-y,-z
1/2+x,1/2-y,1/2+z
loop_
_atom_site_type_symbol
_atom_site_label
_atom_site_fract_x
_atom_site_fract_y
_atom_site_fract_z
Si Si1 0.221253 0.702986 0.657846
Si Si2 0.530509 0.648856 0.591101
Si Si3 0.500000 0.497932 0.750000
Si Si4 0.270068 0.695767 0.324502
Si Si5 0.517682 0.142247 0.077166
Si Si6 0.648982 0.555232 0.612287
Si Si7 0.542956 0.952701 0.106991
O O1 0.359325 0.686471 0.830850
O O2 0.236532 0.700856 0.481949
O O3 0.199623 0.753341 0.697384
O O4 0.104000 0.668744 0.595329
O O5 0.500000 0.641038 0.750000
O O6 0.396854 0.665302 0.410251
O O7 0.592580 0.604828 0.570055
O O8 0.570544 0.528410 0.680685
O O9 0.390345 0.468071 0.579792
O O10 0.147530 0.670984 0.150389
O O11 0.500000 0.141447 0.250000
O O12 0.519350 0.091100 0.023036
O O13 0.800993 0.552990 0.772259
O O14 0.500000 0.952804 0.250000
O O15 0.500000 0.000000 0.000000
#
# Coordination Sequence:
#
# PCOD9257504 Si02
#       7
#     8   8   4   8   8   8   8
#     4   9  16  32  51  86 124 158 194 250 299 353
#     4  10  18  31  56  84 120 153 191 243 301 348
#     4  10  24  38  66  86 118 150 200 250 308 360
#     4   9  18  28  54  89 122 153 199 246 304 355
#     4  10  20  35  59  89 123 159 204 256 306 362
#     4  11  22  42  60  90 117 157 196 254 302 369
#     4  12  26  43  63  87 122 165 208 255 309 374
#
# _framework density 19.592638999999998
#
# number of rings (size 3 to 8) (size 9 to 14) (size 15 to 20)
#    0.000    1.846    2.308    2.308    0.000    7.385 
#    0.000    0.000    0.000    0.923    4.000    0.000 
#    0.000    0.000    0.000    0.000    0.000    0.000 
#
# Total GULP energy -145151.651135 kJ/mol
# GULP energy per Si atom -5582.755813 kJ/mol
# Density = 1.954805 g / cm^3
# Si number density = 19.592639 Si / 1000 Ang^3
#
#
#
# Elastic Constant Matrix: (Units=GPa)
#
#
# Indices 1 2 3 4 5 6 
#
# 1 62.9916 37.8816 20.3766 0.0000 28.2890 0.0000
# 2 37.8816 149.9320 27.4466 0.0000 16.1163 0.0000
# 3 20.3766 27.4466 43.0499 0.0000 19.7956 0.0000
# 4 0.0000 0.0000 0.0000 27.0964 0.0000 8.4677
# 5 28.2890 16.1163 19.7956 0.0000 31.0010 0.0000
# 6 0.0000 0.0000 0.0000 8.4677 0.0000 25.9374
#
#
#
# Elastic Compliance Matrix: (Units=1/GPa)
#
#
# Indices 1 2 3 4 5 6 
#
# 1 0.029963 -0.004969 0.000525 0.000000 -0.025094 0.000000
# 2 -0.004969 0.008407 -0.004365 0.000000 0.002951 0.000000
# 3 0.000525 -0.004365 0.035307 0.000000 -0.020755 0.000000
# 4 0.000000 0.000000 0.000000 0.041098 0.000000 -0.013417
# 5 -0.025094 0.002951 -0.020755 0.000000 0.066874 0.000000
# 6 0.000000 0.000000 0.000000 -0.013417 0.000000 0.042935
#
#
# Mechanical properties :
#
#
# Convention : Reuss Voigt Hill
#
# Bulk Modulus (GPa) = 17.83861 47.48702 32.66282
# Shear Modulus (GPa) = 19.16524 28.15822 23.66173
#
# Velocity S-wave (km/s) = 3.13099 3.79513 3.47895
# Velocity P-wave (km/s) = 4.71119 6.59499 5.73102
#
# Compressibility (1/GPa) = 0.05605817
#
# Stress axis : x y z
#
# Youngs Moduli (GPa) = 33.37442 118.94834 28.32296
#
# Poissons Ratio (x) = 0.59107 -0.01486
# Poissons Ratio (y) = 0.16584 0.12363
# Poissons Ratio (z) = -0.01751 0.51920
#
# Static dielectric constant tensor:
#      x y z
#    x 1.670480 0.000000 -0.017380 
#    y 0.000000 1.686230 0.000000 
#    z -0.017380 0.000000 1.663320 
# 
# From -- ./inp_files/34418.got.cif
#   From: 2010.05.17/outbox.cif.g08.bks.cpg/sg15_18_cif.got.tgz:34418.got - 2010.06.03 18:47:42.
