data_PCOD9257114
_publ_section_title
;
Structure prediction by ZEFSAII (Michael W. Deem and Ramdas Pophale) SiO2 
 PCOD9257114
Probable space group: C 2/C
;
_chemical_formula_sum "Si O2"
_cell_formula_units_Z 64
_cell_length_a 7.918937
_cell_length_b 19.600414
_cell_length_c 23.157794
_cell_angle_alpha 90.000000
_cell_angle_beta 119.488904
_cell_angle_gamma 90.000000
_cell_volume 3128.770218
_symmetry_space_group_name_H-M "C 2/C"
_symmetry_group_IT_number 15
_symmetry_cell_setting 'monoclinic'
loop_
_space_group_symop_operation_xyz
x,y,z
-x,y,1/2-z
-x,-y,-z
x,-y,1/2+z
1/2+x,1/2+y,z
1/2-x,1/2+y,1/2-z
1/2-x,1/2-y,-z
1/2+x,1/2-y,1/2+z
loop_
_atom_site_type_symbol
_atom_site_label
_atom_site_fract_x
_atom_site_fract_y
_atom_site_fract_z
Si Si1 0.163916 0.040113 0.454250
Si Si2 0.738402 0.177618 0.530740
Si Si3 0.227631 0.940976 0.550415
Si Si4 0.058417 0.943504 0.818143
Si Si5 0.714926 0.191416 0.039653
Si Si6 0.305654 0.703533 0.183670
Si Si7 0.927618 0.229673 0.676842
Si Si8 0.811439 0.624714 0.179506
O O1 0.177145 0.121625 0.457549
O O2 0.949189 0.026637 0.442822
O O3 0.170733 0.018950 0.388459
O O4 0.304824 0.000338 0.521362
O O5 0.750000 0.250000 0.500000
O O6 0.825594 0.119204 0.503898
O O7 0.507983 0.167478 0.495874
O O8 0.836054 0.184602 0.610264
O O9 0.346834 0.906492 0.621926
O O10 0.870223 0.909945 0.818416
O O11 0.000000 0.982328 0.750000
O O12 0.182914 0.878888 0.816799
O O13 0.750000 0.250000 0.000000
O O14 0.785988 0.220432 0.112975
O O15 0.500000 0.725870 0.250000
O O16 0.118061 0.733510 0.182807
O O17 0.000000 0.198285 0.750000
O O18 0.784316 0.293608 0.667009
O O19 0.000000 0.614838 0.250000
#
# Coordination Sequence:
#
# PCOD9257114 Si02
#       8
#     8   8   8   8   8   8   8   8
#     4   9  21  37  58  82 110 153 187 236 282 337
#     4  12  22  37  57  84 116 151 188 239 288 335
#     4  10  20  39  58  80 114 149 196 231 285 341
#     4   9  17  30  51  79 108 139 184 231 281 331
#     4  11  23  35  59  88 117 146 191 242 289 340
#     4  10  19  32  51  80 113 146 183 233 283 332
#     4  11  22  34  53  81 117 151 187 233 290 341
#     4  10  18  30  54  80 108 143 184 237 278 334
#
# _framework density 20.455321000000001
#
# number of rings (size 3 to 8) (size 9 to 14) (size 15 to 20)
#    0.000    1.750    2.500    3.750    5.250    1.500 
#    0.000    0.625    0.000    3.750    0.000    0.000 
#    0.000    0.000    0.000    0.000    0.000    0.000 
#
# Total GULP energy -178374.924594 kJ/mol
# GULP energy per Si atom -5574.216394 kJ/mol
# Density = 2.040876 g / cm^3
# Si number density = 20.455321 Si / 1000 Ang^3
#
#
#
# Elastic Constant Matrix: (Units=GPa)
#
#
# Indices 1 2 3 4 5 6 
#
# 1 50.6676 -5.0998 22.8744 0.0000 -0.8887 0.0000
# 2 -5.0998 32.0839 37.1614 0.0000 -16.4664 0.0000
# 3 22.8744 37.1614 220.1394 0.0000 -30.0185 0.0000
# 4 0.0000 0.0000 0.0000 32.7493 0.0000 -11.8803
# 5 -0.8887 -16.4664 -30.0185 0.0000 33.7955 0.0000
# 6 0.0000 0.0000 0.0000 -11.8803 0.0000 13.8222
#
#
#
# Elastic Compliance Matrix: (Units=1/GPa)
#
#
# Indices 1 2 3 4 5 6 
#
# 1 0.022193 0.008391 -0.003511 0.000000 0.001554 0.000000
# 2 0.008391 0.049823 -0.006761 0.000000 0.018491 0.000000
# 3 -0.003511 -0.006761 0.006357 0.000000 0.002260 0.000000
# 4 0.000000 0.000000 0.000000 0.044369 0.000000 0.038136
# 5 0.001554 0.018491 0.002260 0.000000 0.040647 0.000000
# 6 0.000000 0.000000 0.000000 0.038136 0.000000 0.105125
#
#
# Mechanical properties :
#
#
# Convention : Reuss Voigt Hill
#
# Bulk Modulus (GPa) = 13.40254 45.86254 29.63254
# Shear Modulus (GPa) = 16.82669 32.60372 24.71521
#
# Velocity S-wave (km/s) = 2.87122 3.99670 3.47976
# Velocity P-wave (km/s) = 4.19025 6.61571 5.53741
#
# Compressibility (1/GPa) = 0.07461274
#
# Stress axis : x y z
#
# Youngs Moduli (GPa) = 45.05868 20.07091 157.31041
#
# Poissons Ratio (x) = -0.16842 0.55228
# Poissons Ratio (y) = -0.37811 1.06359
# Poissons Ratio (z) = 0.15819 0.13570
#
# Static dielectric constant tensor:
#      x y z
#    x 1.818540 0.000000 0.024970 
#    y 0.000000 1.761350 0.000000 
#    z 0.024970 0.000000 1.838910 
# 
# From -- ./inp_files/233895.got.cif
#   From: 2010.05.17/outbox.cif.g08.bks.cpg/sg15_117_cif.got.tgz:233895.got - 2010.06.03 18:47:42.
