data_PCOD9257718
_publ_section_title
;
Structure prediction by ZEFSAII (Michael W. Deem and Ramdas Pophale) SiO2 
 PCOD9257718
Probable space group: C 2/C
;
_chemical_formula_sum "Si O2"
_cell_formula_units_Z 64
_cell_length_a 11.343024
_cell_length_b 17.947373
_cell_length_c 16.140464
_cell_angle_alpha 90.000000
_cell_angle_beta 90.725512
_cell_angle_gamma 90.000000
_cell_volume 3285.571607
_symmetry_space_group_name_H-M "C 2/C"
_symmetry_group_IT_number 15
_symmetry_cell_setting 'monoclinic'
loop_
_space_group_symop_operation_xyz
x,y,z
-x,y,1/2-z
-x,-y,-z
x,-y,1/2+z
1/2+x,1/2+y,z
1/2-x,1/2+y,1/2-z
1/2-x,1/2-y,-z
1/2+x,1/2-y,1/2+z
loop_
_atom_site_type_symbol
_atom_site_label
_atom_site_fract_x
_atom_site_fract_y
_atom_site_fract_z
Si Si1 0.356957 0.543581 0.082467
Si Si2 0.799744 0.807582 0.104431
Si Si3 0.629817 0.696938 0.718535
Si Si4 0.363202 0.152727 0.043802
Si Si5 0.885639 0.330401 0.030157
Si Si6 0.984879 0.905602 0.415069
Si Si7 0.295497 0.697680 0.117576
Si Si8 0.864606 0.508678 0.526677
O O1 0.438675 0.476370 0.115433
O O2 0.345651 0.616493 0.139967
O O3 0.418864 0.570568 0.997480
O O4 0.228238 0.515065 0.050560
O O5 0.801560 0.830845 0.199738
O O6 0.810736 0.718339 0.098817
O O7 0.918043 0.842196 0.065266
O O8 0.694096 0.835787 0.047467
O O9 0.500000 0.721518 0.750000
O O10 0.601593 0.632035 0.652280
O O11 0.703793 0.763058 0.678167
O O12 0.336023 0.068706 0.072118
O O13 0.501186 0.164718 0.028290
O O14 0.888998 0.261512 0.093044
O O15 0.864210 0.411168 0.071202
O O16 0.776496 0.318989 0.967398
O O17 0.000000 0.500000 0.500000
#
# Coordination Sequence:
#
# PCOD9257718 Si02
#       8
#     8   8   8   8   8   8   8   8
#     4  10  19  32  58  89 113 142 188 244 295 335
#     4  10  20  33  54  75 109 151 188 231 286 345
#     4  10  20  34  55  79 109 153 197 230 286 357
#     4  10  18  32  52  78 106 139 190 237 282 334
#     4   9  17  30  55  80 105 139 182 233 284 332
#     4  10  19  34  57  87 113 144 190 243 292 348
#     4  10  18  33  56  83 110 146 192 235 282 351
#     4   9  17  29  49  80 111 135 173 234 287 334
#
# _framework density 19.479108
#
# number of rings (size 3 to 8) (size 9 to 14) (size 15 to 20)
#    0.000    2.250    1.250    4.500    0.000    0.000 
#    0.000    0.625   13.750    0.000    0.000    0.000 
#    0.000    0.000    0.000    0.000    0.000    0.000 
#
# Total GULP energy -178221.306622 kJ/mol
# GULP energy per Si atom -5569.415832 kJ/mol
# Density = 1.943477 g / cm^3
# Si number density = 19.479108 Si / 1000 Ang^3
#
#
#
# Elastic Constant Matrix: (Units=GPa)
#
#
# Indices 1 2 3 4 5 6 
#
# 1 44.5176 27.7846 6.4359 0.0000 1.2944 0.0000
# 2 27.7846 136.0823 22.5389 0.0000 -2.6372 0.0000
# 3 6.4359 22.5389 31.0791 0.0000 -2.5277 0.0000
# 4 0.0000 0.0000 0.0000 11.1513 0.0000 -5.2598
# 5 1.2944 -2.6372 -2.5277 0.0000 21.9472 0.0000
# 6 0.0000 0.0000 0.0000 -5.2598 0.0000 37.5844
#
#
#
# Elastic Compliance Matrix: (Units=1/GPa)
#
#
# Indices 1 2 3 4 5 6 
#
# 1 0.025945 -0.005025 -0.001920 0.000000 -0.002355 0.000000
# 2 -0.005025 0.009327 -0.005661 0.000000 0.000765 0.000000
# 3 -0.001920 -0.005661 0.036979 0.000000 0.003692 0.000000
# 4 0.000000 0.000000 0.000000 0.096014 0.000000 0.013437
# 5 -0.002355 0.000765 0.003692 0.000000 0.046220 0.000000
# 6 0.000000 0.000000 0.000000 0.013437 0.000000 0.028487
#
#
# Mechanical properties :
#
#
# Convention : Reuss Voigt Hill
#
# Bulk Modulus (GPa) = 21.25894 36.13308 28.69601
# Shear Modulus (GPa) = 17.61401 24.46455 21.03928
#
# Velocity S-wave (km/s) = 3.01034 3.54777 3.29004
# Velocity P-wave (km/s) = 4.79794 5.94745 5.40335
#
# Compressibility (1/GPa) = 0.04703903
#
# Stress axis : x y z
#
# Youngs Moduli (GPa) = 38.54253 107.21617 27.04212
#
# Poissons Ratio (x) = 0.53876 0.05192
# Poissons Ratio (y) = 0.19368 0.15309
# Poissons Ratio (z) = 0.07401 0.60697
#
# Static dielectric constant tensor:
#      x y z
#    x 1.720140 0.000000 -0.004530 
#    y 0.000000 1.783760 0.000000 
#    z -0.004530 0.000000 1.658240 
# 
# From -- ./inp_files/199190.got.cif
#   From: 2010.05.17/outbox.cif.g08.bks.cpg/sg15_100_cif.got.tgz:199190.got - 2010.06.03 18:47:42.
