data_PCOD9257317
_publ_section_title
;
Structure prediction by ZEFSAII (Michael W. Deem and Ramdas Pophale) SiO2 
 PCOD9257317
Probable space group: C 2/C
;
_chemical_formula_sum "Si O2"
_cell_formula_units_Z 52
_cell_length_a 14.271429
_cell_length_b 16.535357
_cell_length_c 8.603648
_cell_angle_alpha 90.000000
_cell_angle_beta 101.732979
_cell_angle_gamma 90.000000
_cell_volume 1987.894581
_symmetry_space_group_name_H-M "C 2/C"
_symmetry_group_IT_number 15
_symmetry_cell_setting 'monoclinic'
loop_
_space_group_symop_operation_xyz
x,y,z
-x,y,1/2-z
-x,-y,-z
x,-y,1/2+z
1/2+x,1/2+y,z
1/2-x,1/2+y,1/2-z
1/2-x,1/2-y,-z
1/2+x,1/2-y,1/2+z
loop_
_atom_site_type_symbol
_atom_site_label
_atom_site_fract_x
_atom_site_fract_y
_atom_site_fract_z
Si Si1 0.625542 0.719681 0.105718
Si Si2 0.000000 0.056158 0.750000
Si Si3 0.860525 0.078356 0.204948
Si Si4 0.638259 0.882726 0.277954
Si Si5 0.139164 0.544111 0.124542
Si Si6 0.355568 0.804733 0.700002
Si Si7 0.144725 0.160676 0.604775
O O1 0.589977 0.630027 0.140609
O O2 0.601764 0.794099 0.213689
O O3 0.740256 0.699609 0.137613
O O4 0.600625 0.755876 0.928920
O O5 0.062138 0.109446 0.656261
O O6 0.077458 0.993658 0.844156
O O7 0.754635 0.043965 0.192810
O O8 0.849230 0.147681 0.074197
O O9 0.622557 0.918460 0.446869
O O10 0.752762 0.869172 0.297414
O O11 0.605551 0.953200 0.147697
O O12 0.108198 0.606473 0.249137
O O13 0.370395 0.752956 0.859298
#
# Coordination Sequence:
#
# PCOD9257317 Si02
#       7
#     8   4   8   8   8   8   8
#     4   9  18  32  50  71  98 133 173 219 268 314
#     4  12  22  36  52  78 108 148 184 216 250 312
#     4  10  21  34  49  71 103 142 180 217 259 310
#     4  10  18  31  51  76 104 134 173 219 267 315
#     4  10  18  31  51  76 104 134 173 219 267 315
#     4   9  18  32  50  71  98 133 173 219 268 314
#     4  10  21  34  49  71 103 142 180 217 259 310
#
# _framework density 26.158328999999998
#
# number of rings (size 3 to 8) (size 9 to 14) (size 15 to 20)
#    0.000    2.154    1.538    2.308    0.000    7.385 
#    0.000    0.000    0.000    0.000    0.000    1.077 
#    0.000    7.385    0.000    0.000    0.000    0.000 
#
# Total GULP energy -145358.107624 kJ/mol
# GULP energy per Si atom -5590.696447 kJ/mol
# Density = 2.609879 g / cm^3
# Si number density = 26.158329 Si / 1000 Ang^3
#
#
#
# Elastic Constant Matrix: (Units=GPa)
#
#
# Indices 1 2 3 4 5 6 
#
# 1 111.2061 12.9262 4.9169 0.0000 -1.2541 0.0000
# 2 12.9262 105.4382 17.5701 0.0000 -8.0961 0.0000
# 3 4.9169 17.5701 42.5027 0.0000 -11.8221 0.0000
# 4 0.0000 0.0000 0.0000 42.5104 0.0000 -9.5700
# 5 -1.2541 -8.0961 -11.8221 0.0000 9.3160 0.0000
# 6 0.0000 0.0000 0.0000 -9.5700 0.0000 5.8986
#
#
#
# Elastic Compliance Matrix: (Units=1/GPa)
#
#
# Indices 1 2 3 4 5 6 
#
# 1 0.009141 -0.001038 -0.000830 0.000000 -0.000725 0.000000
# 2 -0.001038 0.010484 -0.002656 0.000000 0.005601 0.000000
# 3 -0.000830 -0.002656 0.037168 0.000000 0.044747 0.000000
# 4 0.000000 0.000000 0.000000 0.037059 0.000000 0.060126
# 5 -0.000725 0.005601 0.044747 0.000000 0.168896 0.000000
# 6 0.000000 0.000000 0.000000 0.060126 0.000000 0.267083
#
#
# Mechanical properties :
#
#
# Convention : Reuss Voigt Hill
#
# Bulk Modulus (GPa) = 20.94427 36.66370 28.80399
# Shear Modulus (GPa) = 9.01232 26.46058 17.73645
#
# Velocity S-wave (km/s) = 1.85816 3.18395 2.60675
# Velocity P-wave (km/s) = 3.55356 5.25006 4.48280
#
# Compressibility (1/GPa) = 0.04774575
#
# Stress axis : x y z
#
# Youngs Moduli (GPa) = 109.39133 95.38199 26.90465
#
# Poissons Ratio (x) = 0.09901 0.02233
# Poissons Ratio (y) = 0.11355 0.07146
# Poissons Ratio (z) = 0.09080 0.25334
#
# Static dielectric constant tensor:
#      x y z
#    x 2.101200 0.000000 0.030610 
#    y 0.000000 2.006030 0.000000 
#    z 0.030610 0.000000 2.050120 
# 
# From -- ./inp_files/48597.got.cif
#   From: 2010.05.17/outbox.cif.g08.bks.cpg/sg15_25_cif.got.tgz:48597.got - 2010.06.03 18:47:42.
