data_PCOD9257013
_publ_section_title
;
Structure prediction by ZEFSAII (Michael W. Deem and Ramdas Pophale) SiO2 
 PCOD9257013
Probable space group: C 2/C
;
_chemical_formula_sum "Si O2"
_cell_formula_units_Z 52
_cell_length_a 10.930703
_cell_length_b 30.238561
_cell_length_c 12.011548
_cell_angle_alpha 90.000000
_cell_angle_beta 44.908911
_cell_angle_gamma 90.000000
_cell_volume 2802.861615
_symmetry_space_group_name_H-M "C 2/C"
_symmetry_group_IT_number 15
_symmetry_cell_setting 'monoclinic'
loop_
_space_group_symop_operation_xyz
x,y,z
-x,y,1/2-z
-x,-y,-z
x,-y,1/2+z
1/2+x,1/2+y,z
1/2-x,1/2+y,1/2-z
1/2-x,1/2-y,-z
1/2+x,1/2-y,1/2+z
loop_
_atom_site_type_symbol
_atom_site_label
_atom_site_fract_x
_atom_site_fract_y
_atom_site_fract_z
Si Si1 0.976272 0.698928 0.630862
Si Si2 0.487273 0.622381 0.124615
Si Si3 0.868201 0.958949 0.561622
Si Si4 0.500000 0.470275 0.250000
Si Si5 0.162233 0.788070 0.731524
Si Si6 0.826600 0.487035 0.172455
Si Si7 0.656040 0.109028 0.735171
O O1 0.159164 0.707077 0.451661
O O2 0.000000 0.695652 0.750000
O O3 0.853986 0.741684 0.693312
O O4 0.897306 0.650997 0.654736
O O5 0.500000 0.616697 0.250000
O O6 0.395104 0.581107 0.127302
O O7 0.381603 0.667660 0.172244
O O8 0.676986 0.622814 0.945843
O O9 0.913001 0.944413 0.408297
O O10 0.690908 0.983107 0.705702
O O11 0.000000 0.000000 0.500000
O O12 0.663264 0.496794 0.195513
O O13 0.000000 0.786598 0.750000
O O14 0.812950 0.435669 0.215720
O O15 0.000000 0.500000 0.000000
O O16 0.500000 0.099402 0.750000
#
# Coordination Sequence:
#
# PCOD9257013 Si02
#       7
#     8   8   8   4   8   8   8
#     4  10  18  31  48  77 112 148 183 231 289 361
#     4  11  21  34  55  84 113 153 191 237 291 352
#     4  10  22  37  58  81 111 155 195 238 285 339
#     4  10  22  46  56  82 118 154 202 244 290 342
#     4  10  18  30  51  75 111 150 181 229 293 358
#     4  11  26  37  62  84 115 158 200 249 290 343
#     4  11  22  34  52  85 115 150 196 234 293 349
#
# _framework density 18.552468999999999
#
# number of rings (size 3 to 8) (size 9 to 14) (size 15 to 20)
#    0.000    1.538    3.077    6.462   10.769    0.000 
#    0.000    0.000    0.000    0.000    0.000    1.077 
#    0.000    0.000    0.000    0.000    0.000    0.000 
#
# Total GULP energy -144812.221065 kJ/mol
# GULP energy per Si atom -5569.700810 kJ/mol
# Density = 1.851024 g / cm^3
# Si number density = 18.552469 Si / 1000 Ang^3
#
#
#
# Elastic Constant Matrix: (Units=GPa)
#
#
# Indices 1 2 3 4 5 6 
#
# 1 36.5535 27.0095 29.1442 0.0000 -5.5801 0.0000
# 2 27.0095 137.6446 52.1019 0.0000 -0.7777 0.0000
# 3 29.1442 52.1019 176.8239 0.0000 -23.6546 0.0000
# 4 0.0000 0.0000 0.0000 14.6917 0.0000 -8.1861
# 5 -5.5801 -0.7777 -23.6546 0.0000 28.2668 0.0000
# 6 0.0000 0.0000 0.0000 -8.1861 0.0000 18.1540
#
#
#
# Elastic Compliance Matrix: (Units=1/GPa)
#
#
# Indices 1 2 3 4 5 6 
#
# 1 0.034844 -0.005435 -0.003650 0.000000 0.003674 0.000000
# 2 -0.005435 0.009128 -0.002144 0.000000 -0.002616 0.000000
# 3 -0.003650 -0.002144 0.007640 0.000000 0.005614 0.000000
# 4 0.000000 0.000000 0.000000 0.090906 0.000000 0.040992
# 5 0.003674 -0.002616 0.005614 0.000000 0.040728 0.000000
# 6 0.000000 0.000000 0.000000 0.040992 0.000000 0.073568
#
#
# Mechanical properties :
#
#
# Convention : Reuss Voigt Hill
#
# Bulk Modulus (GPa) = 34.30014 63.05923 48.67968
# Shear Modulus (GPa) = 17.30161 28.40693 22.85427
#
# Velocity S-wave (km/s) = 3.05713 3.91726 3.51361
# Velocity P-wave (km/s) = 5.56684 7.38399 6.53885
#
# Compressibility (1/GPa) = 0.02915440
#
# Stress axis : x y z
#
# Youngs Moduli (GPa) = 28.69918 109.54962 130.89736
#
# Poissons Ratio (x) = 0.59540 0.47778
# Poissons Ratio (y) = 0.15598 0.28062
# Poissons Ratio (z) = 0.10475 0.23485
#
# Static dielectric constant tensor:
#      x y z
#    x 1.702140 0.000000 0.032190 
#    y 0.000000 1.706860 0.000000 
#    z 0.032190 0.000000 1.683610 
# 
# From -- ./inp_files/92547.got.cif
#   From: 2010.05.17/outbox.cif.g08.bks.cpg/sg15_47_cif.got.tgz:92547.got - 2010.06.03 18:47:42.
