data_PCOD9257941
_publ_section_title
;
Structure prediction by ZEFSAII (Michael W. Deem and Ramdas Pophale) SiO2 
 PCOD9257941
Probable space group: C 2/C
;
_chemical_formula_sum "Si O2"
_cell_formula_units_Z 60
_cell_length_a 12.592797
_cell_length_b 13.604383
_cell_length_c 26.259765
_cell_angle_alpha 90.000000
_cell_angle_beta 133.184052
_cell_angle_gamma 90.000000
_cell_volume 3280.304891
_symmetry_space_group_name_H-M "C 2/C"
_symmetry_group_IT_number 15
_symmetry_cell_setting 'monoclinic'
loop_
_space_group_symop_operation_xyz
x,y,z
-x,y,1/2-z
-x,-y,-z
x,-y,1/2+z
1/2+x,1/2+y,z
1/2-x,1/2+y,1/2-z
1/2-x,1/2-y,-z
1/2+x,1/2-y,1/2+z
loop_
_atom_site_type_symbol
_atom_site_label
_atom_site_fract_x
_atom_site_fract_y
_atom_site_fract_z
Si Si1 0.497317 0.518313 0.167991
Si Si2 0.704195 0.474787 0.542401
Si Si3 0.000269 0.376341 0.638818
Si Si4 0.975796 0.118372 0.428992
Si Si5 0.500000 0.796230 0.750000
Si Si6 0.874452 0.165349 0.575794
Si Si7 0.299167 0.809178 0.385778
Si Si8 0.253256 0.520940 0.165907
O O1 0.529956 0.588781 0.131701
O O2 0.479761 0.407812 0.141308
O O3 0.343849 0.545224 0.144499
O O4 0.623377 0.517140 0.250501
O O5 0.876546 0.460677 0.597571
O O6 0.630341 0.576961 0.500882
O O7 0.641692 0.444338 0.576806
O O8 0.648257 0.390844 0.484470
O O9 0.035861 0.356383 0.710173
O O10 0.936039 0.274471 0.595823
O O11 0.133385 0.405709 0.647213
O O12 0.926733 0.230477 0.420108
O O13 0.354288 0.735144 0.686818
O O14 0.731025 0.172499 0.564188
O O15 0.318181 0.914259 0.366100
#
# Coordination Sequence:
#
# PCOD9257941 Si02
#       8
#     8   8   8   8   4   8   8   8
#     4   9  19  36  54  79 103 145 173 217 265 324
#     4  10  20  34  56  84 104 138 179 228 265 312
#     4  11  20  32  56  85 106 135 178 233 261 313
#     4  10  19  34  58  75 108 142 180 214 270 317
#     4  10  18  32  56  82 104 130 186 226 268 300
#     4   9  18  34  57  79 103 132 189 223 257 299
#     4  10  18  33  55  80 103 144 176 224 261 318
#     4  10  20  33  55  78 111 135 179 216 267 315
#
# _framework density 18.290984000000002
#
# number of rings (size 3 to 8) (size 9 to 14) (size 15 to 20)
#    0.000    2.133    2.667    3.600    0.000    0.000 
#    0.000    6.667    8.800    1.600    0.000    0.000 
#    0.000    0.000    0.000    0.000    0.000    0.000 
#
# Total GULP energy -167225.807621 kJ/mol
# GULP energy per Si atom -5574.193587 kJ/mol
# Density = 1.824935 g / cm^3
# Si number density = 18.290984 Si / 1000 Ang^3
#
#
#
# Elastic Constant Matrix: (Units=GPa)
#
#
# Indices 1 2 3 4 5 6 
#
# 1 89.1634 39.9300 28.7880 0.0000 -17.1213 0.0000
# 2 39.9300 56.5327 2.4290 0.0000 -13.0162 0.0000
# 3 28.7880 2.4290 37.9362 0.0000 -15.3100 0.0000
# 4 0.0000 0.0000 0.0000 2.8106 0.0000 -1.5699
# 5 -17.1213 -13.0162 -15.3100 0.0000 24.2236 0.0000
# 6 0.0000 0.0000 0.0000 -1.5699 0.0000 37.2169
#
#
#
# Elastic Compliance Matrix: (Units=1/GPa)
#
#
# Indices 1 2 3 4 5 6 
#
# 1 0.024307 -0.017302 -0.019003 0.000000 -0.004128 0.000000
# 2 -0.017302 0.032999 0.017770 0.000000 0.016733 0.000000
# 3 -0.019003 0.017770 0.051113 0.000000 0.028422 0.000000
# 4 0.000000 0.000000 0.000000 0.364383 0.000000 0.015371
# 5 -0.004128 0.016733 0.028422 0.000000 0.065319 0.000000
# 6 0.000000 0.000000 0.000000 0.015371 0.000000 0.027518
#
#
# Mechanical properties :
#
#
# Convention : Reuss Voigt Hill
#
# Bulk Modulus (GPa) = 14.01575 36.21402 25.11489
# Shear Modulus (GPa) = 7.98095 20.34925 14.16510
#
# Velocity S-wave (km/s) = 2.09112 3.33908 2.78588
# Velocity P-wave (km/s) = 3.67555 5.89133 4.91006
#
# Compressibility (1/GPa) = 0.07134829
#
# Stress axis : x y z
#
# Youngs Moduli (GPa) = 41.14101 30.30412 19.56445
#
# Poissons Ratio (x) = 0.52432 0.37179
# Poissons Ratio (y) = 0.71182 -0.34766
# Poissons Ratio (z) = 0.78181 -0.53850
#
# Static dielectric constant tensor:
#      x y z
#    x 1.631430 0.000000 -0.008510 
#    y 0.000000 1.619430 0.000000 
#    z -0.008510 0.000000 1.657220 
# 
# From -- ./inp_files/292717.got.cif
#   From: 2010.05.17/outbox.cif.g08.bks.cpg/sg15_147_cif.got.tgz:292717.got - 2010.06.03 18:47:42.
