data_PCOD9257697
_publ_section_title
;
Structure prediction by ZEFSAII (Michael W. Deem and Ramdas Pophale) SiO2 
 PCOD9257697
Probable space group: C 2/C
;
_chemical_formula_sum "Si O2"
_cell_formula_units_Z 36
_cell_length_a 13.310598
_cell_length_b 20.621590
_cell_length_c 12.683190
_cell_angle_alpha 90.000000
_cell_angle_beta 146.482613
_cell_angle_gamma 90.000000
_cell_volume 1922.369024
_symmetry_space_group_name_H-M "C 2/C"
_symmetry_group_IT_number 15
_symmetry_cell_setting 'monoclinic'
loop_
_space_group_symop_operation_xyz
x,y,z
-x,y,1/2-z
-x,-y,-z
x,-y,1/2+z
1/2+x,1/2+y,z
1/2-x,1/2+y,1/2-z
1/2-x,1/2-y,-z
1/2+x,1/2-y,1/2+z
loop_
_atom_site_type_symbol
_atom_site_label
_atom_site_fract_x
_atom_site_fract_y
_atom_site_fract_z
Si Si1 0.829270 0.944267 0.914159
Si Si2 0.000000 0.463397 0.750000
Si Si3 0.399136 0.926348 0.994542
Si Si4 0.202273 0.174874 0.468851
Si Si5 0.803921 0.910345 0.336805
O O1 0.671369 0.924009 0.855935
O O2 0.749609 0.933931 0.726634
O O3 0.841872 0.022679 0.935580
O O4 0.026005 0.911237 0.093595
O O5 0.072972 0.511104 0.906474
O O6 0.597572 0.915429 0.116171
O O7 0.339614 0.868260 0.019305
O O8 0.250000 0.250000 0.500000
O O9 0.200095 0.149011 0.586144
O O10 0.000000 0.163495 0.250000
#
# Coordination Sequence:
#
# PCOD9257697 Si02
#       5
#     8   4   8   8   8
#     4  10  20  32  52  77 109 148 180 225 280 321
#     4  10  18  32  52  74 110 144 176 234 264 330
#     4  11  19  35  50  78 112 144 180 224 276 325
#     4  12  22  35  55  80 115 149 182 226 279 334
#     4  10  19  34  49  75 110 141 180 223 267 334
#
# _framework density 18.726893
#
# number of rings (size 3 to 8) (size 9 to 14) (size 15 to 20)
#    0.000    1.333    6.667    4.000    0.000    0.000 
#    0.000    3.333    0.000    0.000    0.000    1.556 
#    0.000    0.000    0.000    0.000    0.000    0.000 
#
# Total GULP energy -100426.796327 kJ/mol
# GULP energy per Si atom -5579.266463 kJ/mol
# Density = 1.868427 g / cm^3
# Si number density = 18.726893 Si / 1000 Ang^3
#
#
#
# Elastic Constant Matrix: (Units=GPa)
#
#
# Indices 1 2 3 4 5 6 
#
# 1 109.2218 31.7887 29.7547 0.0000 44.6252 0.0000
# 2 31.7887 75.8822 6.1588 0.0000 6.6602 0.0000
# 3 29.7547 6.1588 87.6345 0.0000 29.4627 0.0000
# 4 0.0000 0.0000 0.0000 19.4546 0.0000 2.3093
# 5 44.6252 6.6602 29.4627 0.0000 45.5951 0.0000
# 6 0.0000 0.0000 0.0000 2.3093 0.0000 28.1016
#
#
#
# Elastic Compliance Matrix: (Units=1/GPa)
#
#
# Indices 1 2 3 4 5 6 
#
# 1 0.017538 -0.005914 -0.000075 0.000000 -0.016252 0.000000
# 2 -0.005914 0.015353 -0.000336 0.000000 0.003763 0.000000
# 3 -0.000075 -0.000336 0.014588 0.000000 -0.009304 0.000000
# 4 0.000000 0.000000 0.000000 0.051908 0.000000 -0.004266
# 5 -0.016252 0.003763 -0.009304 0.000000 0.043301 0.000000
# 6 0.000000 0.000000 0.000000 -0.004266 0.000000 0.035936
#
#
# Mechanical properties :
#
#
# Convention : Reuss Voigt Hill
#
# Bulk Modulus (GPa) = 28.71236 45.34921 37.03079
# Shear Modulus (GPa) = 24.64464 32.29935 28.47200
#
# Velocity S-wave (km/s) = 3.63161 4.15753 3.90344
# Velocity P-wave (km/s) = 5.74023 6.87862 6.33504
#
# Compressibility (1/GPa) = 0.03482821
#
# Stress axis : x y z
#
# Youngs Moduli (GPa) = 57.01993 65.13402 68.54885
#
# Poissons Ratio (x) = 0.38523 0.00514
# Poissons Ratio (y) = 0.33724 0.02303
# Poissons Ratio (z) = 0.00427 0.02188
#
# Static dielectric constant tensor:
#      x y z
#    x 1.720340 0.000000 0.041210 
#    y 0.000000 1.626680 0.000000 
#    z 0.041210 0.000000 1.696520 
# 
# From -- ./inp_files/31156.got.cif
#   From: 2010.05.17/outbox.cif.g08.bks.cpg/sg15_16_cif.got.tgz:31156.got - 2010.06.03 18:47:42.
