data_PCOD9257691
_publ_section_title
;
Structure prediction by ZEFSAII (Michael W. Deem and Ramdas Pophale) SiO2 
 PCOD9257691
Probable space group: C 2/C
;
_chemical_formula_sum "Si O2"
_cell_formula_units_Z 60
_cell_length_a 11.616225
_cell_length_b 24.749305
_cell_length_c 16.778920
_cell_angle_alpha 90.000000
_cell_angle_beta 142.458281
_cell_angle_gamma 90.000000
_cell_volume 2939.347655
_symmetry_space_group_name_H-M "C 2/C"
_symmetry_group_IT_number 15
_symmetry_cell_setting 'monoclinic'
loop_
_space_group_symop_operation_xyz
x,y,z
-x,y,1/2-z
-x,-y,-z
x,-y,1/2+z
1/2+x,1/2+y,z
1/2-x,1/2+y,1/2-z
1/2-x,1/2-y,-z
1/2+x,1/2-y,1/2+z
loop_
_atom_site_type_symbol
_atom_site_label
_atom_site_fract_x
_atom_site_fract_y
_atom_site_fract_z
Si Si1 0.000000 0.314316 0.250000
Si Si2 0.537255 0.853770 0.092326
Si Si3 0.778497 0.467543 0.524486
Si Si4 0.868115 0.759258 0.483524
Si Si5 0.989997 0.875963 0.547817
Si Si6 0.218331 0.468910 0.784980
Si Si7 0.608409 0.580700 0.679440
Si Si8 0.804877 0.078333 0.097373
O O1 0.001007 0.348899 0.168896
O O2 0.815383 0.277217 0.167772
O O3 0.741074 0.881412 0.192961
O O4 0.487651 0.794197 0.032419
O O5 0.377358 0.892525 0.967919
O O6 0.753817 0.482930 0.605324
O O7 0.609467 0.425732 0.412505
O O8 0.739854 0.516785 0.444696
O O9 0.001640 0.457097 0.644501
O O10 0.750000 0.750000 0.500000
O O11 0.002329 0.811508 0.560184
O O12 0.169779 0.913190 0.663742
O O13 0.913077 0.893012 0.419743
O O14 0.844549 0.894028 0.534713
O O15 0.304668 0.519946 0.784274
O O16 0.000000 0.084965 0.250000
#
# Coordination Sequence:
#
# PCOD9257691 Si02
#       8
#     4   8   8   8   8   8   8   8
#     4  10  18  32  52  70 106 134 180 218 262 306
#     4  11  21  32  50  78 104 149 173 216 266 319
#     4  10  20  34  51  86 106 136 183 232 279 304
#     4  10  20  29  49  75 110 135 169 215 266 320
#     4  11  19  36  50  82 107 145 181 221 273 315
#     4  10  19  31  62  79 106 132 184 242 273 304
#     4  11  18  33  61  78 107 135 185 235 268 315
#     4  12  22  31  49  77 118 146 178 210 263 343
#
# _framework density 20.412692
#
# number of rings (size 3 to 8) (size 9 to 14) (size 15 to 20)
#    0.000    1.333    8.000    0.800    0.933    0.000 
#    0.000    2.667    0.000    0.800    0.000    0.000 
#    0.000    0.000    0.000    0.000    0.000    0.000 
#
# Total GULP energy -167192.315583 kJ/mol
# GULP energy per Si atom -5573.077186 kJ/mol
# Density = 2.036623 g / cm^3
# Si number density = 20.412692 Si / 1000 Ang^3
#
#
#
# Elastic Constant Matrix: (Units=GPa)
#
#
# Indices 1 2 3 4 5 6 
#
# 1 27.6583 27.5821 19.4024 -0.0001 10.2188 0.0000
# 2 27.5821 132.5739 58.0660 0.0000 21.4176 0.0000
# 3 19.4024 58.0660 114.7170 -0.0001 36.1790 0.0000
# 4 -0.0001 0.0000 -0.0001 46.2995 -0.0001 11.1552
# 5 10.2188 21.4176 36.1790 -0.0001 28.0686 0.0000
# 6 0.0000 0.0000 0.0000 11.1552 0.0000 14.9957
#
#
#
# Elastic Compliance Matrix: (Units=1/GPa)
#
#
# Indices 1 2 3 4 5 6 
#
# 1 0.048657 -0.008060 -0.000847 0.000000 -0.010472 0.000000
# 2 -0.008060 0.011081 -0.004220 0.000000 -0.000082 0.000000
# 3 -0.000847 -0.004220 0.016653 0.000000 -0.017937 0.000000
# 4 0.000000 0.000000 0.000000 0.026315 0.000000 -0.019576
# 5 -0.010472 -0.000082 -0.017937 0.000000 0.062621 0.000000
# 6 0.000000 0.000000 0.000000 -0.019576 0.000000 0.081248
#
#
# Mechanical properties :
#
#
# Convention : Reuss Voigt Hill
#
# Bulk Modulus (GPa) = 19.94536 53.89447 36.91991
# Shear Modulus (GPa) = 17.26861 29.19934 23.23398
#
# Velocity S-wave (km/s) = 2.91172 3.78623 3.37740
# Velocity P-wave (km/s) = 4.59308 6.75084 5.77366
#
# Compressibility (1/GPa) = 0.05013699
#
# Stress axis : x y z
#
# Youngs Moduli (GPa) = 20.55210 90.24091 60.04857
#
# Poissons Ratio (x) = 0.72737 0.05085
# Poissons Ratio (y) = 0.16566 0.25341
# Poissons Ratio (z) = 0.01741 0.38082
#
# Static dielectric constant tensor:
#      x y z
#    x 1.760330 0.000000 -0.011690 
#    y 0.000000 -2.125480 -0.000010 
#    z -0.011690 -0.000010 1.849520 
# 
# From -- ./inp_files/245604.got.cif
#   From: 2010.05.17/outbox.cif.g08.bks.cpg/sg15_123_cif.got.tgz:245604.got - 2010.06.03 18:47:42.
