data_PCOD9257151
_publ_section_title
;
Structure prediction by ZEFSAII (Michael W. Deem and Ramdas Pophale) SiO2 
 PCOD9257151
Probable space group: C 2/C
;
_chemical_formula_sum "Si O2"
_cell_formula_units_Z 60
_cell_length_a 27.948475
_cell_length_b 9.277341
_cell_length_c 20.668233
_cell_angle_alpha 90.000000
_cell_angle_beta 141.819662
_cell_angle_gamma 90.000000
_cell_volume 3312.614544
_symmetry_space_group_name_H-M "C 2/C"
_symmetry_group_IT_number 15
_symmetry_cell_setting 'monoclinic'
loop_
_space_group_symop_operation_xyz
x,y,z
-x,y,1/2-z
-x,-y,-z
x,-y,1/2+z
1/2+x,1/2+y,z
1/2-x,1/2+y,1/2-z
1/2-x,1/2-y,-z
1/2+x,1/2-y,1/2+z
loop_
_atom_site_type_symbol
_atom_site_label
_atom_site_fract_x
_atom_site_fract_y
_atom_site_fract_z
Si Si1 0.317885 0.428476 0.884021
Si Si2 0.522218 0.655557 0.999266
Si Si3 0.500000 0.704035 0.750000
Si Si4 0.424946 0.928187 0.386935
Si Si5 0.083740 0.681756 0.214624
Si Si6 0.769494 0.385691 0.303224
Si Si7 0.237103 0.134022 0.908146
Si Si8 0.664308 0.596308 0.956177
O O1 0.298100 0.554326 0.813648
O O2 0.268040 0.287501 0.810996
O O3 0.404194 0.368362 0.968625
O O4 0.309355 0.475251 0.949049
O O5 0.455912 0.729487 0.886154
O O6 0.500000 0.500000 0.000000
O O7 0.550645 0.760199 0.087480
O O8 0.469819 0.798154 0.778848
O O9 0.572848 0.605471 0.848104
O O10 0.349372 0.931555 0.353020
O O11 0.500000 0.000000 0.500000
O O12 0.408645 0.019460 0.304883
O O13 0.164846 0.758727 0.316621
O O14 0.759704 0.443694 0.365813
O O15 0.208344 0.043344 0.938932
O O16 0.307685 0.237009 0.004178
#
# Coordination Sequence:
#
# PCOD9257151 Si02
#       8
#     8   8   4   8   8   8   8   8
#     4  10  19  33  53  79 107 139 175 224 269 324
#     4  10  19  31  50  76 109 141 175 214 272 326
#     4  10  18  30  56  76 106 142 182 230 274 322
#     4   9  19  31  48  72 104 135 173 222 263 314
#     4  10  18  33  51  80 103 139 181 225 272 317
#     4  10  19  32  52  77 107 138 173 222 273 317
#     4   9  18  29  51  77 107 134 177 222 270 323
#     4   9  17  31  48  78 106 135 175 227 266 318
#
# _framework density 18.112580000000001
#
# number of rings (size 3 to 8) (size 9 to 14) (size 15 to 20)
#    0.000    2.400    1.333    2.400    1.867    1.067 
#    0.000    0.000    0.000    1.600    3.467    0.000 
#    0.000    0.000    0.000    0.000    0.000    0.000 
#
# Total GULP energy -167041.941442 kJ/mol
# GULP energy per Si atom -5568.064715 kJ/mol
# Density = 1.807136 g / cm^3
# Si number density = 18.112580 Si / 1000 Ang^3
#
#
#
# Elastic Constant Matrix: (Units=GPa)
#
#
# Indices 1 2 3 4 5 6 
#
# 1 78.0002 22.4111 7.0071 0.0000 -22.3243 0.0000
# 2 22.4111 57.0361 14.0302 0.0000 -12.6171 0.0000
# 3 7.0071 14.0302 76.3262 0.0000 -5.7022 0.0000
# 4 0.0000 0.0000 0.0000 27.1769 0.0000 -4.5374
# 5 -22.3243 -12.6171 -5.7022 0.0000 37.7111 0.0000
# 6 0.0000 0.0000 0.0000 -4.5374 0.0000 19.2410
#
#
#
# Elastic Compliance Matrix: (Units=1/GPa)
#
#
# Indices 1 2 3 4 5 6 
#
# 1 0.016513 -0.004661 -0.000046 0.000000 0.008209 0.000000
# 2 -0.004661 0.020975 -0.003145 0.000000 0.003783 0.000000
# 3 -0.000046 -0.003145 0.013759 0.000000 0.001001 0.000000
# 4 0.000000 0.000000 0.000000 0.038304 0.000000 0.009033
# 5 0.008209 0.003783 0.001001 0.000000 0.032794 0.000000
# 6 0.000000 0.000000 0.000000 0.009033 0.000000 0.054103
#
#
# Mechanical properties :
#
#
# Convention : Reuss Voigt Hill
#
# Bulk Modulus (GPa) = 28.13536 33.13992 30.63764
# Shear Modulus (GPa) = 24.50985 28.02007 26.26496
#
# Velocity S-wave (km/s) = 3.68257 3.93745 3.81214
# Velocity P-wave (km/s) = 5.80078 6.24562 6.02731
#
# Compressibility (1/GPa) = 0.03554247
#
# Stress axis : x y z
#
# Youngs Moduli (GPa) = 60.55670 47.67642 72.68093
#
# Poissons Ratio (x) = 0.22224 0.00333
# Poissons Ratio (y) = 0.28228 0.22858
# Poissons Ratio (z) = 0.00278 0.14994
#
# Static dielectric constant tensor:
#      x y z
#    x 1.720980 0.000000 0.006370 
#    y 0.000000 1.611670 0.000000 
#    z 0.006370 0.000000 1.651150 
# 
# From -- ./inp_files/257225.got.cif
#   From: 2010.05.17/outbox.cif.g08.bks.cpg/sg15_129_cif.got.tgz:257225.got - 2010.06.03 18:47:42.
