data_PCOD9257406
_publ_section_title
;
Structure prediction by ZEFSAII (Michael W. Deem and Ramdas Pophale) SiO2 
 PCOD9257406
Probable space group: C 2/C
;
_chemical_formula_sum "Si O2"
_cell_formula_units_Z 40
_cell_length_a 11.957773
_cell_length_b 8.983389
_cell_length_c 15.500722
_cell_angle_alpha 90.000000
_cell_angle_beta 61.569062
_cell_angle_gamma 90.000000
_cell_volume 1464.282128
_symmetry_space_group_name_H-M "C 2/C"
_symmetry_group_IT_number 15
_symmetry_cell_setting 'monoclinic'
loop_
_space_group_symop_operation_xyz
x,y,z
-x,y,1/2-z
-x,-y,-z
x,-y,1/2+z
1/2+x,1/2+y,z
1/2-x,1/2+y,1/2-z
1/2-x,1/2-y,-z
1/2+x,1/2-y,1/2+z
loop_
_atom_site_type_symbol
_atom_site_label
_atom_site_fract_x
_atom_site_fract_y
_atom_site_fract_z
Si Si1 0.202493 0.460977 0.454935
Si Si2 0.824542 0.362101 0.225555
Si Si3 0.551167 0.314601 0.049627
Si Si4 0.445730 0.419571 0.646802
Si Si5 0.618905 0.176959 0.613524
O O1 0.222147 0.433754 0.346257
O O2 0.319888 0.389399 0.462946
O O3 0.081602 0.358817 0.529966
O O4 0.177101 0.625360 0.501372
O O5 0.798637 0.385159 0.336925
O O6 0.823591 0.180880 0.213900
O O7 0.977078 0.393875 0.167270
O O8 0.447702 0.401344 0.147319
O O9 0.529051 0.366354 0.960337
O O10 0.570504 0.347161 0.646595
#
# Coordination Sequence:
#
# PCOD9257406 Si02
#       5
#     8   8   8   8   8
#     4  10  18  31  53  79  99 131 166 216 249 288
#     4   8  17  32  52  72  98 133 174 201 246 297
#     4   9  18  30  50  76 102 123 165 208 260 292
#     4   8  16  33  51  68  97 134 163 199 246 312
#     4   9  17  32  55  69 101 136 174 201 244 302
#
# _framework density 27.317139999999998
#
# number of rings (size 3 to 8) (size 9 to 14) (size 15 to 20)
#    1.200    2.000    0.000    0.600    0.000    0.800 
#    0.000    8.000    8.800    0.000    0.000    0.000 
#    0.000    0.000    0.000    0.000    0.000    0.000 
#
# Total GULP energy -111342.436259 kJ/mol
# GULP energy per Si atom -5567.121813 kJ/mol
# Density = 2.725496 g / cm^3
# Si number density = 27.317140 Si / 1000 Ang^3
#
#
#
# Elastic Constant Matrix: (Units=GPa)
#
#
# Indices 1 2 3 4 5 6 
#
# 1 72.1992 4.5883 22.0342 0.0000 29.7597 0.0000
# 2 4.5883 141.2816 43.0785 0.0000 1.7069 0.0000
# 3 22.0342 43.0785 151.0067 0.0000 25.1009 0.0000
# 4 0.0000 0.0000 0.0000 44.3842 0.0000 -7.4400
# 5 29.7597 1.7069 25.1009 0.0000 43.3064 0.0000
# 6 0.0000 0.0000 0.0000 -7.4400 0.0000 22.9630
#
#
#
# Elastic Compliance Matrix: (Units=1/GPa)
#
#
# Indices 1 2 3 4 5 6 
#
# 1 0.019398 -0.000293 -0.000590 0.000000 -0.012977 0.000000
# 2 -0.000293 0.007803 -0.002396 0.000000 0.001283 0.000000
# 3 -0.000590 -0.002396 0.008088 0.000000 -0.004188 0.000000
# 4 0.000000 0.000000 0.000000 0.023824 0.000000 0.007719
# 5 -0.012977 0.001283 -0.004188 0.000000 0.034386 0.000000
# 6 0.000000 0.000000 0.000000 0.007719 0.000000 0.046049
#
#
# Mechanical properties :
#
#
# Convention : Reuss Voigt Hill
#
# Bulk Modulus (GPa) = 34.80698 55.98773 45.39735
# Shear Modulus (GPa) = 32.11635 41.78317 36.94976
#
# Velocity S-wave (km/s) = 3.43255 3.91520 3.68179
# Velocity P-wave (km/s) = 5.33660 6.40143 5.89312
#
# Compressibility (1/GPa) = 0.02872987
#
# Stress axis : x y z
#
# Youngs Moduli (GPa) = 51.55154 128.15933 123.63855
#
# Poissons Ratio (x) = 0.03760 0.07291
# Poissons Ratio (y) = 0.01512 0.29629
# Poissons Ratio (z) = 0.03040 0.30712
#
# Static dielectric constant tensor:
#      x y z
#    x 2.203930 0.000000 -0.099710 
#    y 0.000000 2.261640 0.000000 
#    z -0.099710 0.000000 2.144240 
# 
# From -- ./inp_files/158752.got.cif
#   From: 2010.05.17/outbox.cif.g08.bks.cpg/sg15_80_cif.got.tgz:158752.got - 2010.06.03 18:47:42.
