data_PCOD9257665
_publ_section_title
;
Structure prediction by ZEFSAII (Michael W. Deem and Ramdas Pophale) SiO2 
 PCOD9257665
Probable space group: C 2/C
;
_chemical_formula_sum "Si O2"
_cell_formula_units_Z 52
_cell_length_a 17.300823
_cell_length_b 24.465129
_cell_length_c 12.105107
_cell_angle_alpha 90.000000
_cell_angle_beta 147.735948
_cell_angle_gamma 90.000000
_cell_volume 2735.138400
_symmetry_space_group_name_H-M "C 2/C"
_symmetry_group_IT_number 15
_symmetry_cell_setting 'monoclinic'
loop_
_space_group_symop_operation_xyz
x,y,z
-x,y,1/2-z
-x,-y,-z
x,-y,1/2+z
1/2+x,1/2+y,z
1/2-x,1/2+y,1/2-z
1/2-x,1/2-y,-z
1/2+x,1/2-y,1/2+z
loop_
_atom_site_type_symbol
_atom_site_label
_atom_site_fract_x
_atom_site_fract_y
_atom_site_fract_z
Si Si1 0.500000 0.272130 0.750000
Si Si2 0.678640 0.098112 0.808689
Si Si3 0.595254 0.550963 0.972540
Si Si4 0.338572 0.001903 0.540157
Si Si5 0.623735 0.436526 0.129923
Si Si6 0.146425 0.596322 0.128103
Si Si7 0.254142 0.183453 0.418806
O O1 0.364795 0.234696 0.545582
O O2 0.411088 0.303706 0.740623
O O3 0.696020 0.039624 0.894162
O O4 0.799478 0.103751 0.861514
O O5 0.524077 0.101629 0.561784
O O6 0.686807 0.144346 0.911217
O O7 0.500000 0.555602 0.750000
O O8 0.519233 0.583212 0.981880
O O9 0.589450 0.489321 0.012120
O O10 0.756189 0.574183 0.154519
O O11 0.500000 0.979322 0.750000
O O12 0.344459 0.047871 0.451382
O O13 0.228527 0.958474 0.354801
O O14 0.216297 0.649487 0.156709
#
# Coordination Sequence:
#
# PCOD9257665 Si02
#       7
#     4   8   8   8   8   8   8
#     4  10  20  32  58  80 114 126 156 202 268 326
#     4  10  18  32  51  72 105 138 169 208 249 309
#     4  10  21  34  45  68 103 138 181 218 245 288
#     4   8  16  29  45  66  96 135 171 206 242 289
#     4  10  20  30  47  71  96 138 182 212 249 288
#     4   9  18  33  49  68 104 138 164 203 255 297
#     4  10  19  35  52  85 109 131 157 204 261 320
#
# _framework density 19.011835000000001
#
# number of rings (size 3 to 8) (size 9 to 14) (size 15 to 20)
#    0.000    2.462    1.538    1.846    2.154    8.000 
#    0.000    0.000    0.000    0.000    0.000    1.077 
#    0.000    0.000    0.000    0.000    0.000    0.000 
#
# Total GULP energy -144809.789453 kJ/mol
# GULP energy per Si atom -5569.607287 kJ/mol
# Density = 1.896856 g / cm^3
# Si number density = 19.011835 Si / 1000 Ang^3
#
#
#
# Elastic Constant Matrix: (Units=GPa)
#
#
# Indices 1 2 3 4 5 6 
#
# 1 50.8901 -13.2915 6.0697 0.0000 5.1050 0.0000
# 2 -13.2915 17.8959 4.0442 0.0000 -4.9120 0.0000
# 3 6.0697 4.0442 90.7450 0.0000 -4.8945 0.0000
# 4 0.0000 0.0000 0.0000 11.6834 0.0000 9.5700
# 5 5.1050 -4.9120 -4.8945 0.0000 22.0116 0.0000
# 6 0.0000 0.0000 0.0000 9.5700 0.0000 24.8363
#
#
#
# Elastic Compliance Matrix: (Units=1/GPa)
#
#
# Indices 1 2 3 4 5 6 
#
# 1 0.025039 0.018574 -0.002624 0.000000 -0.002246 0.000000
# 2 0.018574 0.073648 -0.003917 0.000000 0.011256 0.000000
# 3 -0.002624 -0.003917 0.011493 0.000000 0.002290 0.000000
# 4 0.000000 0.000000 0.000000 0.125066 0.000000 -0.048191
# 5 -0.002246 0.011256 0.002290 0.000000 0.048972 0.000000
# 6 0.000000 0.000000 0.000000 -0.048191 0.000000 0.058833
#
#
# Mechanical properties :
#
#
# Convention : Reuss Voigt Hill
#
# Bulk Modulus (GPa) = 7.44900 17.01953 12.23427
# Shear Modulus (GPa) = 13.74622 22.55350 18.14986
#
# Velocity S-wave (km/s) = 2.69185 3.44799 3.09311
# Velocity P-wave (km/s) = 3.68619 4.98227 4.38241
#
# Compressibility (1/GPa) = 0.13424621
#
# Stress axis : x y z
#
# Youngs Moduli (GPa) = 39.93694 13.57802 87.00575
#
# Poissons Ratio (x) = -0.25219 0.22828
# Poissons Ratio (y) = -0.74177 0.34084
# Poissons Ratio (z) = 0.10478 0.05319
#
# Static dielectric constant tensor:
#      x y z
#    x 1.740220 0.000000 0.052110 
#    y 0.000000 1.675630 0.000000 
#    z 0.052110 0.000000 1.723100 
# 
# From -- ./inp_files/52531.got.cif
#   From: 2010.05.17/outbox.cif.g08.bks.cpg/sg15_27_cif.got.tgz:52531.got - 2010.06.03 18:47:42.
