data_PCOD9257894
_publ_section_title
;
Structure prediction by ZEFSAII (Michael W. Deem and Ramdas Pophale) SiO2 
 PCOD9257894
Probable space group: C 2/C
;
_chemical_formula_sum "Si O2"
_cell_formula_units_Z 56
_cell_length_a 15.206154
_cell_length_b 25.356862
_cell_length_c 8.253783
_cell_angle_alpha 90.000000
_cell_angle_beta 57.738131
_cell_angle_gamma 90.000000
_cell_volume 2691.174004
_symmetry_space_group_name_H-M "C 2/C"
_symmetry_group_IT_number 15
_symmetry_cell_setting 'monoclinic'
loop_
_space_group_symop_operation_xyz
x,y,z
-x,y,1/2-z
-x,-y,-z
x,-y,1/2+z
1/2+x,1/2+y,z
1/2-x,1/2+y,1/2-z
1/2-x,1/2-y,-z
1/2+x,1/2-y,1/2+z
loop_
_atom_site_type_symbol
_atom_site_label
_atom_site_fract_x
_atom_site_fract_y
_atom_site_fract_z
Si Si1 0.564669 0.157723 0.845980
Si Si2 0.867440 0.884862 0.120260
Si Si3 0.047403 0.053035 0.526415
Si Si4 0.269838 0.198056 0.585193
Si Si5 0.251584 0.038298 0.508671
Si Si6 0.718612 0.913765 0.009370
Si Si7 0.123597 0.381543 0.767441
O O1 0.500000 0.176623 0.750000
O O2 0.628859 0.106615 0.720719
O O3 0.647296 0.197917 0.846584
O O4 0.487347 0.138696 0.063519
O O5 0.832661 0.830692 0.240390
O O6 0.801739 0.930162 0.288031
O O7 0.822615 0.890090 0.984787
O O8 0.989261 0.898547 0.998360
O O9 0.168646 0.047723 0.443464
O O10 0.000000 0.057256 0.750000
O O11 0.000000 0.000000 0.500000
O O12 0.250000 0.250000 0.500000
O O13 0.319708 0.159098 0.404731
O O14 0.359992 0.064043 0.346040
O O15 0.267491 0.976446 0.517357
O O16 0.685851 0.888327 0.873533
#
# Coordination Sequence:
#
# PCOD9257894 Si02
#       7
#     8   8   8   8   8   8   8
#     4   9  20  39  60  89 118 148 187 242 295 352
#     4   9  19  34  50  82 117 152 200 246 286 353
#     4  10  19  30  49  77 112 159 196 231 288 343
#     4  10  21  41  66  84 109 150 199 250 305 352
#     4  10  19  31  52  81 119 161 200 231 285 350
#     4  10  18  32  55  82 121 155 189 235 281 345
#     4  10  21  36  57  86 115 150 194 237 288 352
#
# _framework density 20.808762999999999
#
# number of rings (size 3 to 8) (size 9 to 14) (size 15 to 20)
#    0.000    2.286    1.429    1.286    2.000    0.571 
#    0.000   20.714    0.000    0.000    0.000    0.000 
#    0.000    0.000    0.000    0.000    0.000    0.000 
#
# Total GULP energy -156023.890731 kJ/mol
# GULP energy per Si atom -5572.281812 kJ/mol
# Density = 2.076140 g / cm^3
# Si number density = 20.808763 Si / 1000 Ang^3
#
#
#
# Elastic Constant Matrix: (Units=GPa)
#
#
# Indices 1 2 3 4 5 6 
#
# 1 108.1080 42.5363 5.1785 0.0000 7.4262 0.0000
# 2 42.5363 86.1108 7.2245 0.0000 10.5012 0.0000
# 3 5.1785 7.2245 52.4574 0.0000 -2.8496 0.0000
# 4 0.0000 0.0000 0.0000 12.6889 0.0000 7.3387
# 5 7.4262 10.5012 -2.8496 0.0000 20.3260 0.0000
# 6 0.0000 0.0000 0.0000 7.3387 0.0000 22.2669
#
#
#
# Elastic Compliance Matrix: (Units=1/GPa)
#
#
# Indices 1 2 3 4 5 6 
#
# 1 0.011527 -0.005479 -0.000462 0.000000 -0.001446 0.000000
# 2 -0.005479 0.015225 -0.001889 0.000000 -0.006129 0.000000
# 3 -0.000462 -0.001889 0.019580 0.000000 0.003890 0.000000
# 4 0.000000 0.000000 0.000000 0.097369 0.000000 -0.032091
# 5 -0.001446 -0.006129 0.003890 0.000000 0.053438 0.000000
# 6 0.000000 0.000000 0.000000 -0.032091 0.000000 0.055486
#
#
# Mechanical properties :
#
#
# Convention : Reuss Voigt Hill
#
# Bulk Modulus (GPa) = 32.60203 39.61721 36.10962
# Shear Modulus (GPa) = 17.95272 23.83884 20.89578
#
# Velocity S-wave (km/s) = 2.94044 3.38837 3.17232
# Velocity P-wave (km/s) = 5.21821 5.86413 5.55058
#
# Compressibility (1/GPa) = 0.03067294
#
# Stress axis : x y z
#
# Youngs Moduli (GPa) = 86.75101 65.67984 51.07224
#
# Poissons Ratio (x) = 0.35987 0.02359
# Poissons Ratio (y) = 0.47532 0.09647
# Poissons Ratio (z) = 0.04007 0.12406
#
# Static dielectric constant tensor:
#      x y z
#    x 1.884300 0.000000 -0.003540 
#    y 0.000000 1.735160 0.000000 
#    z -0.003540 0.000000 1.785300 
# 
# From -- ./inp_files/42554.got.cif
#   From: 2010.05.17/outbox.cif.g08.bks.cpg/sg15_22_cif.got.tgz:42554.got - 2010.06.03 18:47:42.
