data_PCOD9257280
_publ_section_title
;
Structure prediction by ZEFSAII (Michael W. Deem and Ramdas Pophale) SiO2 
 PCOD9257280
Probable space group: C 2/C
;
_chemical_formula_sum "Si O2"
_cell_formula_units_Z 64
_cell_length_a 19.429821
_cell_length_b 21.040848
_cell_length_c 28.990305
_cell_angle_alpha 90.000000
_cell_angle_beta 161.634656
_cell_angle_gamma 90.000000
_cell_volume 3734.210746
_symmetry_space_group_name_H-M "C 2/C"
_symmetry_group_IT_number 15
_symmetry_cell_setting 'monoclinic'
loop_
_space_group_symop_operation_xyz
x,y,z
-x,y,1/2-z
-x,-y,-z
x,-y,1/2+z
1/2+x,1/2+y,z
1/2-x,1/2+y,1/2-z
1/2-x,1/2-y,-z
1/2+x,1/2-y,1/2+z
loop_
_atom_site_type_symbol
_atom_site_label
_atom_site_fract_x
_atom_site_fract_y
_atom_site_fract_z
Si Si1 0.284318 0.501254 0.137096
Si Si2 0.696224 0.493709 0.689047
Si Si3 0.290289 0.193191 0.883607
Si Si4 0.038331 0.395437 0.926626
Si Si5 0.362274 0.919633 0.373433
Si Si6 0.832390 0.821451 0.050817
Si Si7 0.222525 0.474425 0.862604
Si Si8 0.755517 0.829612 0.899467
O O1 0.500000 0.526864 0.250000
O O2 0.293879 0.455339 0.188038
O O3 0.183375 0.455042 0.034331
O O4 0.105801 0.553711 0.036317
O O5 0.781002 0.551968 0.773910
O O6 0.785582 0.501756 0.694007
O O7 0.434404 0.495126 0.521628
O O8 0.799974 0.426924 0.772594
O O9 0.368283 0.155065 0.887745
O O10 0.317770 0.268420 0.908412
O O11 0.031267 0.177442 0.713712
O O12 0.412287 0.158256 0.003592
O O13 0.138310 0.367666 0.943367
O O14 0.750000 0.750000 0.000000
O O15 0.884510 0.833120 0.030357
O O16 0.273207 0.399111 0.889114
O O17 0.000000 0.480978 0.750000
O O18 0.500000 0.819637 0.750000
#
# Coordination Sequence:
#
# PCOD9257280 Si02
#       8
#     8   8   8   8   8   8   8   8
#     4   9  17  30  50  74 104 146 187 229 275 328
#     4  10  21  37  53  76 109 149 194 240 283 335
#     4  11  20  32  47  76 117 147 184 223 272 339
#     4  10  18  31  50  72 110 151 182 225 272 328
#     4   9  19  32  48  75 108 145 187 232 278 333
#     4  12  20  29  48  79 116 154 187 214 269 353
#     4  10  22  37  56  80 112 149 191 235 283 350
#     4  11  20  32  50  78 113 150 185 220 280 354
#
# _framework density 17.138829000000001
#
# number of rings (size 3 to 8) (size 9 to 14) (size 15 to 20)
#    0.000    1.750    2.500    4.875    0.000    2.500 
#    0.000    0.000    0.000    0.000    0.000    3.500 
#    0.000   14.000    0.000    0.000    0.000    0.000 
#
# Total GULP energy -178223.044756 kJ/mol
# GULP energy per Si atom -5569.470149 kJ/mol
# Density = 1.709982 g / cm^3
# Si number density = 17.138829 Si / 1000 Ang^3
#
#
#
# Elastic Constant Matrix: (Units=GPa)
#
#
# Indices 1 2 3 4 5 6 
#
# 1 84.0549 40.3405 34.2871 0.0125 -6.3619 -0.0065
# 2 40.3405 92.9849 37.8263 0.0783 4.1160 -0.0180
# 3 34.2871 37.8263 81.5590 0.0835 -3.5650 -0.0385
# 4 0.0125 0.0783 0.0835 21.7601 -0.0160 -0.7474
# 5 -6.3619 4.1160 -3.5650 -0.0160 29.3788 -0.0116
# 6 -0.0065 -0.0180 -0.0385 -0.7474 -0.0116 36.5489
#
#
#
# Elastic Compliance Matrix: (Units=1/GPa)
#
#
# Indices 1 2 3 4 5 6 
#
# 1 0.016625 -0.005683 -0.004184 0.000030 0.003889 -0.000002
# 2 -0.005683 0.015401 -0.004928 -0.000036 -0.003986 -0.000001
# 3 -0.004184 -0.004928 0.016383 -0.000041 0.001772 0.000014
# 4 0.000030 -0.000036 -0.000041 0.045988 0.000032 0.000940
# 5 0.003889 -0.003986 0.001772 0.000032 0.035654 0.000013
# 6 -0.000002 -0.000001 0.000014 0.000940 0.000013 0.027380
#
#
# Mechanical properties :
#
#
# Convention : Reuss Voigt Hill
#
# Bulk Modulus (GPa) = 53.13429 53.72295 53.42862
# Shear Modulus (GPa) = 25.86737 27.28056 26.57397
#
# Velocity S-wave (km/s) = 3.88917 3.99399 3.94193
# Velocity P-wave (km/s) = 7.15801 7.25831 7.20833
#
# Compressibility (1/GPa) = 0.01882024
#
# Stress axis : x y z
#
# Youngs Moduli (GPa) = 60.14933 64.93023 61.03931
#
# Poissons Ratio (x) = 0.36900 0.25536
# Poissons Ratio (y) = 0.34183 0.30080
# Poissons Ratio (z) = 0.25164 0.31998
#
# Static dielectric constant tensor:
#      x y z
#    x 1.631900 0.000010 -0.031170 
#    y 0.000010 1.592260 -0.000030 
#    z -0.031170 -0.000030 1.658680 
# 
# From -- ./inp_files/299539.got.cif
#   From: 2010.05.17/outbox.cif.g08.bks.cpg/sg15_150_cif.got.tgz:299539.got - 2010.06.03 18:47:42.
