data_PCOD9258378
_publ_section_title
;
Structure prediction by ZEFSAII (Michael W. Deem and Ramdas Pophale) SiO2 
 PCOD9258378
Probable space group: C 2/C
;
_chemical_formula_sum "Si O2"
_cell_formula_units_Z 64
_cell_length_a 23.970924
_cell_length_b 20.413844
_cell_length_c 9.300223
_cell_angle_alpha 90.000000
_cell_angle_beta 123.997994
_cell_angle_gamma 90.000000
_cell_volume 3773.005150
_symmetry_space_group_name_H-M "C 2/C"
_symmetry_group_IT_number 15
_symmetry_cell_setting 'monoclinic'
loop_
_space_group_symop_operation_xyz
x,y,z
-x,y,1/2-z
-x,-y,-z
x,-y,1/2+z
1/2+x,1/2+y,z
1/2-x,1/2+y,1/2-z
1/2-x,1/2-y,-z
1/2+x,1/2-y,1/2+z
loop_
_atom_site_type_symbol
_atom_site_label
_atom_site_fract_x
_atom_site_fract_y
_atom_site_fract_z
Si Si1 0.493746 0.912756 0.891357
Si Si2 0.040519 0.836843 0.656390
Si Si3 0.447254 0.811353 0.300991
Si Si4 0.634504 0.490948 0.492468
Si Si5 0.329789 0.091369 0.569773
Si Si6 0.550419 0.440885 0.108919
Si Si7 0.385523 0.008821 0.382351
Si Si8 0.180071 0.913959 0.827154
O O1 0.500000 0.877103 0.750000
O O2 0.420255 0.939414 0.824030
O O3 0.519381 0.864088 0.047501
O O4 0.547898 0.972176 0.959178
O O5 0.057665 0.761780 0.644367
O O6 0.112054 0.874288 0.764995
O O7 0.000000 0.841148 0.750000
O O8 0.991152 0.874556 0.474565
O O9 0.500000 0.804409 0.250000
O O10 0.379253 0.846405 0.150643
O O11 0.580520 0.454385 0.310546
O O12 0.604460 0.545960 0.558658
O O13 0.669962 0.440837 0.651233
O O14 0.680502 0.526248 0.441504
O O15 0.344408 0.044550 0.729901
O O16 0.253433 0.116268 0.449502
O O17 0.347710 0.046635 0.455700
O O18 0.500000 0.500000 0.000000
#
# Coordination Sequence:
#
# PCOD9258378 Si02
#       8
#     8   8   8   8   8   8   8   8
#     4  10  18  33  55  82 107 134 173 230 270 312
#     4  11  21  36  56  81 105 145 187 223 272 318
#     4  10  22  37  56  78 106 145 190 222 262 323
#     4  10  20  32  53  84 108 133 173 223 281 318
#     4  11  21  36  54  81 113 142 183 219 273 320
#     4  11  17  32  57  80 106 134 175 232 271 318
#     4  10  19  31  56  83 105 139 175 220 272 321
#     4  11  22  34  54  80 112 145 176 224 270 330
#
# _framework density 16.962606000000001
#
# number of rings (size 3 to 8) (size 9 to 14) (size 15 to 20)
#    0.000    1.500    6.250    1.125    0.000    0.500 
#    2.250    0.000    0.000    0.000    0.000    2.625 
#    0.000    0.000    0.000    0.000    0.000    0.000 
#
# Total GULP energy -178189.995671 kJ/mol
# GULP energy per Si atom -5568.437365 kJ/mol
# Density = 1.692400 g / cm^3
# Si number density = 16.962606 Si / 1000 Ang^3
#
#
#
# Elastic Constant Matrix: (Units=GPa)
#
#
# Indices 1 2 3 4 5 6 
#
# 1 41.0816 11.9960 26.9368 0.0000 10.4572 0.0000
# 2 11.9960 75.2008 20.8910 0.0000 11.1282 0.0000
# 3 26.9368 20.8910 74.2055 0.0000 8.9108 0.0000
# 4 0.0000 0.0000 0.0000 49.8157 0.0000 12.5205
# 5 10.4572 11.1282 8.9108 0.0000 33.7513 0.0000
# 6 0.0000 0.0000 0.0000 12.5205 0.0000 19.8056
#
#
#
# Elastic Compliance Matrix: (Units=1/GPa)
#
#
# Indices 1 2 3 4 5 6 
#
# 1 0.033768 -0.001263 -0.011046 0.000000 -0.007130 0.000000
# 2 -0.001263 0.014962 -0.003314 0.000000 -0.003667 0.000000
# 3 -0.011046 -0.003314 0.018462 0.000000 -0.000359 0.000000
# 4 0.000000 0.000000 0.000000 0.023866 0.000000 -0.015087
# 5 -0.007130 -0.003667 -0.000359 0.000000 0.033141 0.000000
# 6 0.000000 0.000000 0.000000 -0.015087 0.000000 0.060029
#
#
# Mechanical properties :
#
#
# Convention : Reuss Voigt Hill
#
# Bulk Modulus (GPa) = 27.81861 34.45947 31.13904
# Shear Modulus (GPa) = 21.98220 29.38546 25.68383
#
# Velocity S-wave (km/s) = 3.60380 4.16669 3.89542
# Velocity P-wave (km/s) = 5.80965 6.59602 6.21528
#
# Compressibility (1/GPa) = 0.03594715
#
# Stress axis : x y z
#
# Youngs Moduli (GPa) = 29.61346 66.83435 54.16556
#
# Poissons Ratio (x) = 0.08441 0.59833
# Poissons Ratio (y) = 0.03740 0.17948
# Poissons Ratio (z) = 0.32712 0.22146
#
# Static dielectric constant tensor:
#      x y z
#    x 1.599040 0.000000 0.000550 
#    y 0.000000 1.567110 0.000000 
#    z 0.000550 0.000000 1.593070 
# 
# From -- ./inp_files/63413.got.cif
#   From: 2010.05.17/outbox.cif.g08.bks.cpg/sg15_32_cif.got.tgz:63413.got - 2010.06.03 18:47:42.
