data_PCOD9258975
_publ_section_title
;
Structure prediction by ZEFSAII (Michael W. Deem and Ramdas Pophale) SiO2 
 PCOD9258975
Probable space group: C 2/C
;
_chemical_formula_sum "Si O2"
_cell_formula_units_Z 32
_cell_length_a 13.424034
_cell_length_b 7.592294
_cell_length_c 27.289645
_cell_angle_alpha 90.000000
_cell_angle_beta 28.944743
_cell_angle_gamma 90.000000
_cell_volume 1346.073290
_symmetry_space_group_name_H-M "C 2/C"
_symmetry_group_IT_number 15
_symmetry_cell_setting 'monoclinic'
loop_
_space_group_symop_operation_xyz
x,y,z
-x,y,1/2-z
-x,-y,-z
x,-y,1/2+z
1/2+x,1/2+y,z
1/2-x,1/2+y,1/2-z
1/2-x,1/2-y,-z
1/2+x,1/2-y,1/2+z
loop_
_atom_site_type_symbol
_atom_site_label
_atom_site_fract_x
_atom_site_fract_y
_atom_site_fract_z
Si Si1 0.097027 0.602832 0.290760
Si Si2 0.840573 0.084959 0.863102
Si Si3 0.031374 0.781948 0.630071
Si Si4 0.922909 0.143287 0.071321
O O1 0.292790 0.647866 0.240840
O O2 0.208318 0.582632 0.189776
O O3 0.945108 0.768427 0.353571
O O4 0.986341 0.424407 0.352837
O O5 0.637175 0.176382 0.929859
O O6 0.000000 0.061460 0.750000
O O7 0.830363 0.900974 0.894842
O O8 0.061910 0.826783 0.559555
O O9 0.000000 0.000000 0.000000
#
# Coordination Sequence:
#
# PCOD9258975 Si02
#       4
#     8   8   8   8
#     4   9  17  33  57  80 106 149 194 233 276 350
#     4  10  19  34  57  83 110 150 199 233 284 348
#     4  10  18  34  58  79 109 152 193 234 284 349
#     4   9  20  36  55  85 121 148 188 251 295 334
#
# _framework density 23.772852
#
# number of rings (size 3 to 8) (size 9 to 14) (size 15 to 20)
#    1.500    1.000    2.500    0.000    0.000    4.000 
#    0.000    1.250    0.000   31.500    0.000    0.000 
#    0.000    0.000    0.000    0.000    0.000    0.000 
#
# Total GULP energy -89420.450211 kJ/mol
# GULP energy per Si atom -5588.778138 kJ/mol
# Density = 2.371874 g / cm^3
# Si number density = 23.772852 Si / 1000 Ang^3
#
#
#
# Elastic Constant Matrix: (Units=GPa)
#
#
# Indices 1 2 3 4 5 6 
#
# 1 80.1824 6.2975 1.5994 0.0000 -5.7507 0.0001
# 2 6.2975 113.7034 26.0229 0.0001 10.4114 0.0001
# 3 1.5994 26.0229 54.0532 0.0009 -5.1926 0.0000
# 4 0.0000 0.0001 0.0009 40.2815 0.0001 2.8065
# 5 -5.7507 10.4114 -5.1926 0.0001 25.6826 -0.0001
# 6 0.0001 0.0001 0.0000 2.8065 -0.0001 51.3518
#
#
#
# Elastic Compliance Matrix: (Units=1/GPa)
#
#
# Indices 1 2 3 4 5 6 
#
# 1 0.012797 -0.001136 0.000498 0.000000 0.003427 0.000000
# 2 -0.001136 0.010677 -0.005657 0.000000 -0.005726 0.000000
# 3 0.000498 -0.005657 0.021864 0.000000 0.006825 0.000000
# 4 0.000000 0.000000 0.000000 0.024920 0.000000 -0.001362
# 5 0.003427 -0.005726 0.006825 0.000000 0.043405 0.000000
# 6 0.000000 0.000000 0.000000 -0.001362 0.000000 0.019548
#
#
# Mechanical properties :
#
#
# Convention : Reuss Voigt Hill
#
# Bulk Modulus (GPa) = 30.53700 35.08651 32.81176
# Shear Modulus (GPa) = 31.90451 37.73115 34.81783
#
# Velocity S-wave (km/s) = 3.66738 3.98823 3.83117
# Velocity P-wave (km/s) = 5.55033 5.99992 5.77950
#
# Compressibility (1/GPa) = 0.03274716
#
# Stress axis : x y z
#
# Youngs Moduli (GPa) = 78.14549 93.66208 45.73629
#
# Poissons Ratio (x) = 0.10644 -0.02276
# Poissons Ratio (y) = 0.08881 0.25871
# Poissons Ratio (z) = -0.03889 0.52980
#
# Static dielectric constant tensor:
#      x y z
#    x 1.959550 0.000000 -0.085830 
#    y 0.000000 1.822030 0.000000 
#    z -0.085830 0.000000 1.968130 
# 
# From -- ./inp_files/201844.got.cif
#   From: 2010.05.17/outbox.cif.g08.bks.cpg/sg15_101_cif.got.tgz:201844.got - 2010.06.03 18:47:42.
