data_PCOD9258096
_publ_section_title
;
Structure prediction by ZEFSAII (Michael W. Deem and Ramdas Pophale) SiO2 
 PCOD9258096
Probable space group: C 2/C
;
_chemical_formula_sum "Si O2"
_cell_formula_units_Z 56
_cell_length_a 9.576744
_cell_length_b 24.365300
_cell_length_c 14.216754
_cell_angle_alpha 90.000000
_cell_angle_beta 126.819907
_cell_angle_gamma 90.000000
_cell_volume 2655.608259
_symmetry_space_group_name_H-M "C 2/C"
_symmetry_group_IT_number 15
_symmetry_cell_setting 'monoclinic'
loop_
_space_group_symop_operation_xyz
x,y,z
-x,y,1/2-z
-x,-y,-z
x,-y,1/2+z
1/2+x,1/2+y,z
1/2-x,1/2+y,1/2-z
1/2-x,1/2-y,-z
1/2+x,1/2-y,1/2+z
loop_
_atom_site_type_symbol
_atom_site_label
_atom_site_fract_x
_atom_site_fract_y
_atom_site_fract_z
Si Si1 0.725557 0.020449 0.154069
Si Si2 0.989242 0.200894 0.032633
Si Si3 0.375749 0.184025 0.512976
Si Si4 0.317729 0.362811 0.730631
Si Si5 0.052482 0.985023 0.415376
Si Si6 0.078919 0.416735 0.179381
Si Si7 0.533885 0.633977 0.656388
O O1 0.701875 0.082212 0.180798
O O2 0.790561 0.017133 0.072225
O O3 0.591193 0.972597 0.124485
O O4 0.888255 0.000576 0.284486
O O5 0.787901 0.190742 0.982683
O O6 0.117764 0.162971 0.146165
O O7 0.007847 0.264897 0.065440
O O8 0.002929 0.182381 0.930996
O O9 0.285467 0.180543 0.374534
O O10 0.468230 0.128282 0.579249
O O11 0.500000 0.376620 0.750000
O O12 0.081285 0.919889 0.416088
O O13 0.000000 0.000000 0.500000
O O14 0.268574 0.388808 0.271753
O O15 0.000000 0.428256 0.250000
O O16 0.500000 0.649112 0.750000
#
# Coordination Sequence:
#
# PCOD9258096 Si02
#       7
#     8   8   8   8   8   8   8
#     4  10  20  36  57  93 126 162 213 257 309 384
#     4  10  22  39  66  92 124 169 222 267 308 381
#     4  10  23  38  62  98 125 167 211 274 327 371
#     4  10  20  37  62  92 127 163 217 262 315 385
#     4  10  18  32  59  89 121 160 214 260 295 369
#     4  11  22  39  65  94 140 168 205 266 335 384
#     4  11  21  39  64  95 123 167 221 259 310 389
#
# _framework density 21.087447999999998
#
# number of rings (size 3 to 8) (size 9 to 14) (size 15 to 20)
#    0.000    1.714    5.714    0.857    4.000    1.143 
#    0.000    0.714    0.000    0.000    0.000    0.000 
#    0.000    0.000    0.000    0.000    0.000    0.000 
#
# Total GULP energy -156305.737130 kJ/mol
# GULP energy per Si atom -5582.347755 kJ/mol
# Density = 2.103945 g / cm^3
# Si number density = 21.087448 Si / 1000 Ang^3
#
#
#
# Elastic Constant Matrix: (Units=GPa)
#
#
# Indices 1 2 3 4 5 6 
#
# 1 78.0213 32.6061 47.0293 0.0000 -33.5198 0.0000
# 2 32.6061 124.5533 39.5310 0.0000 -19.9416 0.0000
# 3 47.0293 39.5310 77.6786 0.0000 -38.1113 0.0000
# 4 0.0000 0.0000 0.0000 29.5533 0.0000 -1.9283
# 5 -33.5198 -19.9416 -38.1113 0.0000 46.0987 0.0000
# 6 0.0000 0.0000 0.0000 -1.9283 0.0000 20.8253
#
#
#
# Elastic Compliance Matrix: (Units=1/GPa)
#
#
# Indices 1 2 3 4 5 6 
#
# 1 0.022282 -0.001806 -0.008421 0.000000 0.008459 0.000000
# 2 -0.001806 0.009723 -0.004097 0.000000 -0.000495 0.000000
# 3 -0.008421 -0.004097 0.027227 0.000000 0.014614 0.000000
# 4 0.000000 0.000000 0.000000 0.034043 0.000000 0.003152
# 5 0.008459 -0.000495 0.014614 0.000000 0.039711 0.000000
# 6 0.000000 0.000000 0.000000 0.003152 0.000000 0.048310
#
#
# Mechanical properties :
#
#
# Convention : Reuss Voigt Hill
#
# Bulk Modulus (GPa) = 32.69795 57.62065 45.15930
# Shear Modulus (GPa) = 22.71303 30.03460 26.37381
#
# Velocity S-wave (km/s) = 3.28546 3.77807 3.54034
# Velocity P-wave (km/s) = 5.47100 6.81290 6.17849
#
# Compressibility (1/GPa) = 0.03058296
#
# Stress axis : x y z
#
# Youngs Moduli (GPa) = 44.87967 102.85262 36.72843
#
# Poissons Ratio (x) = 0.18576 0.30929
# Poissons Ratio (y) = 0.08106 0.15048
# Poissons Ratio (z) = 0.37793 0.42140
#
# Static dielectric constant tensor:
#      x y z
#    x 1.791650 0.000000 0.035370 
#    y 0.000000 1.813730 0.000000 
#    z 0.035370 0.000000 1.763780 
# 
# From -- ./inp_files/137933.got.cif
#   From: 2010.05.17/outbox.cif.g08.bks.cpg/sg15_69_cif.got.tgz:137933.got - 2010.06.03 18:47:42.
