data_PCOD9258493
_publ_section_title
;
Structure prediction by ZEFSAII (Michael W. Deem and Ramdas Pophale) SiO2 
 PCOD9258493
Probable space group: C 2/C
;
_chemical_formula_sum "Si O2"
_cell_formula_units_Z 56
_cell_length_a 8.591651
_cell_length_b 28.514971
_cell_length_c 10.709037
_cell_angle_alpha 90.000000
_cell_angle_beta 87.839848
_cell_angle_gamma 90.000000
_cell_volume 2621.749835
_symmetry_space_group_name_H-M "C 2/C"
_symmetry_group_IT_number 15
_symmetry_cell_setting 'monoclinic'
loop_
_space_group_symop_operation_xyz
x,y,z
-x,y,1/2-z
-x,-y,-z
x,-y,1/2+z
1/2+x,1/2+y,z
1/2-x,1/2+y,1/2-z
1/2-x,1/2-y,-z
1/2+x,1/2-y,1/2+z
loop_
_atom_site_type_symbol
_atom_site_label
_atom_site_fract_x
_atom_site_fract_y
_atom_site_fract_z
Si Si1 0.159765 0.135701 0.183483
Si Si2 0.777098 0.697039 0.540845
Si Si3 0.094770 0.294522 0.926579
Si Si4 0.841879 0.024845 0.957623
Si Si5 0.809665 0.963332 0.733351
Si Si6 0.790537 0.800305 0.172070
Si Si7 0.493163 0.623770 0.937066
O O1 0.285324 0.175407 0.157758
O O2 0.228560 0.091268 0.251525
O O3 0.000000 0.153850 0.250000
O O4 0.101390 0.114459 0.053453
O O5 0.750000 0.750000 0.500000
O O6 0.789361 0.699662 0.691039
O O7 0.635287 0.662181 0.520589
O O8 0.927870 0.682855 0.456446
O O9 0.093388 0.243080 0.863919
O O10 0.168330 0.293688 0.063574
O O11 0.756388 0.025125 0.094443
O O12 0.901237 0.076102 0.908874
O O13 0.758674 0.997331 0.847528
O O14 0.000000 0.000000 0.000000
O O15 0.000000 0.964970 0.750000
O O16 0.887488 0.848721 0.157074
#
# Coordination Sequence:
#
# PCOD9258493 Si02
#       7
#     8   8   8   8   8   8   8
#     4  10  19  37  61  87 116 157 207 241 283 367
#     4  12  25  39  55  87 126 149 197 251 298 355
#     4  10  23  40  62  82 111 167 198 240 296 354
#     4  10  18  33  57  92 121 154 198 261 305 354
#     4   9  17  32  56  90 123 148 201 251 306 353
#     4  10  23  40  58  82 114 159 205 237 295 360
#     4  11  21  37  58  90 122 156 193 254 303 342
#
# _framework density 21.359780000000001
#
# number of rings (size 3 to 8) (size 9 to 14) (size 15 to 20)
#    0.000    1.714    5.714    0.857    2.000    3.429 
#    0.000    0.000    0.000    0.857    0.000    0.000 
#    0.000    0.000    0.000    0.000    0.000    0.000 
#
# Total GULP energy -156141.215900 kJ/mol
# GULP energy per Si atom -5576.471996 kJ/mol
# Density = 2.131116 g / cm^3
# Si number density = 21.359780 Si / 1000 Ang^3
#
#
#
# Elastic Constant Matrix: (Units=GPa)
#
#
# Indices 1 2 3 4 5 6 
#
# 1 34.0535 20.7814 19.6126 0.0000 -14.1993 0.0000
# 2 20.7814 99.1251 49.5641 0.0000 -11.7949 0.0000
# 3 19.6126 49.5641 140.3164 0.0000 -5.4582 0.0000
# 4 0.0000 0.0000 0.0000 34.1023 0.0000 -1.8045
# 5 -14.1993 -11.7949 -5.4582 0.0000 36.8118 0.0000
# 6 0.0000 0.0000 0.0000 -1.8045 0.0000 2.2973
#
#
#
# Elastic Compliance Matrix: (Units=1/GPa)
#
#
# Indices 1 2 3 4 5 6 
#
# 1 0.039914 -0.005172 -0.003236 0.000000 0.013259 0.000000
# 2 -0.005172 0.013335 -0.003922 0.000000 0.001696 0.000000
# 3 -0.003236 -0.003922 0.008918 0.000000 -0.001182 0.000000
# 4 0.000000 0.000000 0.000000 0.030595 0.000000 0.024032
# 5 0.013259 0.001696 -0.001182 0.000000 0.032648 0.000000
# 6 0.000000 0.000000 0.000000 0.024032 0.000000 0.454168
#
#
# Mechanical properties :
#
#
# Convention : Reuss Voigt Hill
#
# Bulk Modulus (GPa) = 26.66085 50.37902 38.51993
# Shear Modulus (GPa) = 8.10713 26.87807 17.49260
#
# Velocity S-wave (km/s) = 1.95032 3.55117 2.86484
# Velocity P-wave (km/s) = 4.19292 6.36015 5.38666
#
# Compressibility (1/GPa) = 0.03750818
#
# Stress axis : x y z
#
# Youngs Moduli (GPa) = 25.05361 74.98928 112.12889
#
# Poissons Ratio (x) = 0.38785 0.36288
# Poissons Ratio (y) = 0.12958 0.43972
# Poissons Ratio (z) = 0.08108 0.29407
#
# Static dielectric constant tensor:
#      x y z
#    x 1.766170 0.000000 0.000520 
#    y 0.000000 1.824130 0.000000 
#    z 0.000520 0.000000 1.880920 
# 
# From -- ./inp_files/82149.got.cif
#   From: 2010.05.17/outbox.cif.g08.bks.cpg/sg15_42_cif.got.tgz:82149.got - 2010.06.03 18:47:42.
