data_PCOD9258915
_publ_section_title
;
Structure prediction by ZEFSAII (Michael W. Deem and Ramdas Pophale) SiO2 
 PCOD9258915
Probable space group: C 2/C
;
_chemical_formula_sum "Si O2"
_cell_formula_units_Z 48
_cell_length_a 12.154771
_cell_length_b 18.112161
_cell_length_c 18.905376
_cell_angle_alpha 90.000000
_cell_angle_beta 147.112527
_cell_angle_gamma 90.000000
_cell_volume 2259.929511
_symmetry_space_group_name_H-M "C 2/C"
_symmetry_group_IT_number 15
_symmetry_cell_setting 'monoclinic'
loop_
_space_group_symop_operation_xyz
x,y,z
-x,y,1/2-z
-x,-y,-z
x,-y,1/2+z
1/2+x,1/2+y,z
1/2-x,1/2+y,1/2-z
1/2-x,1/2-y,-z
1/2+x,1/2-y,1/2+z
loop_
_atom_site_type_symbol
_atom_site_label
_atom_site_fract_x
_atom_site_fract_y
_atom_site_fract_z
Si Si1 0.030614 0.810554 0.437696
Si Si2 0.622110 0.858039 0.960039
Si Si3 0.180377 0.461071 0.643880
Si Si4 0.756659 0.884094 0.182790
Si Si5 0.214381 0.652650 0.047078
Si Si6 0.727040 0.173367 0.896916
O O1 0.902747 0.827054 0.298432
O O2 0.899917 0.840288 0.432192
O O3 0.248774 0.846992 0.540773
O O4 0.055979 0.722571 0.452185
O O5 0.761196 0.886092 0.100355
O O6 0.432256 0.913111 0.857275
O O7 0.300700 0.532706 0.733571
O O8 0.282336 0.403381 0.645271
O O9 0.000000 0.500000 0.500000
O O10 0.530228 0.857840 0.082725
O O11 0.277721 0.638252 0.000456
O O12 0.272710 0.737154 0.094062
O O13 0.500000 0.151708 0.750000
#
# Coordination Sequence:
#
# PCOD9258915 Si02
#       6
#     8   8   8   8   8   8
#     4  11  19  31  56  90 109 145 189 227 279 328
#     4   9  19  34  53  84 119 139 184 235 276 322
#     4   8  16  34  55  72 106 150 182 222 268 321
#     4  10  18  34  57  81 110 150 189 220 275 336
#     4   9  18  32  49  78 112 148 182 230 274 322
#     4  11  19  30  51  82 116 145 184 228 281 327
#
# _framework density 21.239599999999999
#
# number of rings (size 3 to 8) (size 9 to 14) (size 15 to 20)
#    0.000    2.667    5.000    0.500    0.000    0.000 
#    0.000    5.000    0.000    9.000   52.000    0.000 
#    0.000    0.000    0.000    0.000    0.000    0.000 
#
# Total GULP energy -133731.793380 kJ/mol
# GULP energy per Si atom -5572.158058 kJ/mol
# Density = 2.119126 g / cm^3
# Si number density = 21.239600 Si / 1000 Ang^3
#
#
#
# Elastic Constant Matrix: (Units=GPa)
#
#
# Indices 1 2 3 4 5 6 
#
# 1 153.4765 15.0436 9.7491 -0.0004 20.7065 -0.0001
# 2 15.0436 80.4273 9.3366 -0.0013 6.1964 -0.0005
# 3 9.7491 9.3366 18.5227 -0.0044 9.1643 -0.0015
# 4 -0.0004 -0.0013 -0.0044 0.7143 -0.0010 -5.2539
# 5 20.7065 6.1964 9.1643 -0.0010 22.6298 -0.0001
# 6 -0.0001 -0.0005 -0.0015 -5.2539 -0.0001 26.5274
#
#
#
# Elastic Compliance Matrix: (Units=1/GPa)
#
#
# Indices 1 2 3 4 5 6 
#
# 1 0.007497 -0.000867 -0.000290 0.000018 -0.006504 0.000004
# 2 -0.000867 0.013331 -0.006065 0.000031 -0.000400 0.000006
# 3 -0.000290 -0.006065 0.070338 -0.000892 -0.026558 -0.000173
# 4 0.000018 0.000031 -0.000892 -3.065011 0.000194 -0.607043
# 5 -0.006504 -0.000400 -0.026558 0.000194 0.061006 0.000037
# 6 0.000004 0.000006 -0.000173 -0.607043 0.000037 -0.082532
#
#
# Mechanical properties :
#
#
# Convention : Reuss Voigt Hill
#
# Bulk Modulus (GPa) = 13.03446 35.63166 24.33306
# Shear Modulus (GPa) = -1.69184 24.52747 11.41781
#
# Velocity S-wave (km/s) = -0.89347 3.40192 2.32107
# Velocity P-wave (km/s) = 2.25518 5.67831 4.32024
#
# Compressibility (1/GPa) = 0.07671970
#
# Stress axis : x y z
#
# Youngs Moduli (GPa) = 133.39244 75.01463 14.21716
#
# Poissons Ratio (x) = 0.06507 0.00413
# Poissons Ratio (y) = 0.11570 0.08623
# Poissons Ratio (z) = 0.03873 0.45495
#
# Static dielectric constant tensor:
#      x y z
#    x 1.824240 0.000000 0.039090 
#    y 0.000000 1.773670 0.000000 
#    z 0.039090 0.000000 1.830930 
# 
# From -- ./inp_files/239664.got.cif
#   From: 2010.05.17/outbox.cif.g08.bks.cpg/sg15_120_cif.got.tgz:239664.got - 2010.06.03 18:47:42.
