data_PCOD9258116
_publ_section_title
;
Structure prediction by ZEFSAII (Michael W. Deem and Ramdas Pophale) SiO2 
 PCOD9258116
Probable space group: C 2/C
;
_chemical_formula_sum "Si O2"
_cell_formula_units_Z 36
_cell_length_a 5.571062
_cell_length_b 15.707427
_cell_length_c 17.972871
_cell_angle_alpha 90.000000
_cell_angle_beta 85.604831
_cell_angle_gamma 90.000000
_cell_volume 1568.127791
_symmetry_space_group_name_H-M "C 2/C"
_symmetry_group_IT_number 15
_symmetry_cell_setting 'monoclinic'
loop_
_space_group_symop_operation_xyz
x,y,z
-x,y,1/2-z
-x,-y,-z
x,-y,1/2+z
1/2+x,1/2+y,z
1/2-x,1/2+y,1/2-z
1/2-x,1/2-y,-z
1/2+x,1/2-y,1/2+z
loop_
_atom_site_type_symbol
_atom_site_label
_atom_site_fract_x
_atom_site_fract_y
_atom_site_fract_z
Si Si1 0.844334 0.457816 0.939853
Si Si2 0.959984 0.820124 0.483387
Si Si3 0.500000 0.357593 0.750000
Si Si4 0.261171 0.474398 0.211015
Si Si5 0.182211 0.301873 0.887559
O O1 0.755118 0.523563 0.878659
O O2 0.001424 0.382463 0.896026
O O3 0.644428 0.410907 0.993970
O O4 0.000000 0.500000 0.000000
O O5 0.750000 0.750000 0.500000
O O6 0.056816 0.789712 0.401180
O O7 0.158399 0.811497 0.542503
O O8 0.696565 0.424198 0.775846
O O9 0.363365 0.304858 0.815092
O O10 0.500000 0.438725 0.250000
O O11 0.000000 0.447903 0.250000
#
# Coordination Sequence:
#
# PCOD9258116 Si02
#       5
#     8   8   4   8   8
#     4  11  21  35  58  96 125 164 213 265 329 394
#     4   9  19  35  54  85 124 154 200 267 322 371
#     4  10  18  32  60  88 116 150 224 258 326 368
#     4  10  19  35  55  88 128 157 215 265 321 375
#     4  10  19  35  58  90 117 160 210 272 320 374
#
# _framework density 22.957312999999999
#
# number of rings (size 3 to 8) (size 9 to 14) (size 15 to 20)
#    0.667    1.333    4.444    0.000    0.000    0.889 
#    0.000    0.000    0.000    0.000   49.111    0.000 
#    0.000    0.000    0.000    0.000    0.000    0.000 
#
# Total GULP energy -100225.087469 kJ/mol
# GULP energy per Si atom -5568.060415 kJ/mol
# Density = 2.290506 g / cm^3
# Si number density = 22.957313 Si / 1000 Ang^3
#
#
#
# Elastic Constant Matrix: (Units=GPa)
#
#
# Indices 1 2 3 4 5 6 
#
# 1 101.3023 16.6303 15.6040 0.0000 13.6691 0.0000
# 2 16.6303 48.7506 13.8830 0.0000 -4.8262 0.0000
# 3 15.6040 13.8830 85.3500 0.0000 -7.3694 0.0000
# 4 0.0000 0.0000 0.0000 17.3007 0.0000 3.4355
# 5 13.6691 -4.8262 -7.3694 0.0000 62.0126 0.0000
# 6 0.0000 0.0000 0.0000 3.4355 0.0000 31.2862
#
#
#
# Elastic Compliance Matrix: (Units=1/GPa)
#
#
# Indices 1 2 3 4 5 6 
#
# 1 0.011120 -0.003599 -0.001701 0.000000 -0.002933 0.000000
# 2 -0.003599 0.022774 -0.002854 0.000000 0.002227 0.000000
# 3 -0.001701 -0.002854 0.012634 0.000000 0.001654 0.000000
# 4 0.000000 0.000000 0.000000 0.059090 0.000000 -0.006489
# 5 -0.002933 0.002227 0.001654 0.000000 0.017142 0.000000
# 6 0.000000 0.000000 0.000000 -0.006489 0.000000 0.032675
#
#
# Mechanical properties :
#
#
# Convention : Reuss Voigt Hill
#
# Bulk Modulus (GPa) = 33.09106 36.40416 34.74761
# Shear Modulus (GPa) = 27.50010 34.73895 31.11952
#
# Velocity S-wave (km/s) = 3.46479 3.89420 3.68576
# Velocity P-wave (km/s) = 5.51832 6.00929 5.76903
#
# Compressibility (1/GPa) = 0.03021964
#
# Stress axis : x y z
#
# Youngs Moduli (GPa) = 89.92679 43.91040 79.14851
#
# Poissons Ratio (x) = 0.15805 0.13462
# Poissons Ratio (y) = 0.32369 0.22589
# Poissons Ratio (z) = 0.15295 0.12532
#
# Static dielectric constant tensor:
#      x y z
#    x 2.137740 0.000000 -0.087150 
#    y 0.000000 1.811900 0.000000 
#    z -0.087150 0.000000 1.893980 
# 
# From -- ./inp_files/184105.got.cif
#   From: 2010.05.17/outbox.cif.g08.bks.cpg/sg15_93_cif.got.tgz:184105.got - 2010.06.03 18:47:42.
