data_PCOD9258995
_publ_section_title
;
Structure prediction by ZEFSAII (Michael W. Deem and Ramdas Pophale) SiO2 
 PCOD9258995
Probable space group: C 2/C
;
_chemical_formula_sum "Si O2"
_cell_formula_units_Z 48
_cell_length_a 18.407120
_cell_length_b 18.188689
_cell_length_c 5.166114
_cell_angle_alpha 90.000000
_cell_angle_beta 98.781492
_cell_angle_gamma 90.000000
_cell_volume 1709.347036
_symmetry_space_group_name_H-M "C 2/C"
_symmetry_group_IT_number 15
_symmetry_cell_setting 'monoclinic'
loop_
_space_group_symop_operation_xyz
x,y,z
-x,y,1/2-z
-x,-y,-z
x,-y,1/2+z
1/2+x,1/2+y,z
1/2-x,1/2+y,1/2-z
1/2-x,1/2-y,-z
1/2+x,1/2-y,1/2+z
loop_
_atom_site_type_symbol
_atom_site_label
_atom_site_fract_x
_atom_site_fract_y
_atom_site_fract_z
Si Si1 0.075770 0.799316 0.686131
Si Si2 0.654291 0.448646 0.264397
Si Si3 0.818010 0.551986 0.864939
Si Si4 0.616907 0.845815 0.469501
Si Si5 0.739072 0.301538 0.742294
Si Si6 0.000000 0.947669 0.250000
Si Si7 0.500000 0.811510 0.750000
O O1 0.097523 0.739663 0.916013
O O2 0.156664 0.835580 0.696322
O O3 0.000000 0.837893 0.750000
O O4 0.051369 0.745253 0.440811
O O5 0.652176 0.510991 0.485735
O O6 0.734854 0.414322 0.319081
O O7 0.577424 0.405664 0.268941
O O8 0.825836 0.496004 0.625140
O O9 0.871393 0.616177 0.799323
O O10 0.691445 0.854347 0.675661
O O11 0.546366 0.866172 0.593388
O O12 0.750000 0.250000 0.500000
O O13 0.750000 0.250000 0.000000
O O14 0.000000 0.000000 0.500000
#
# Coordination Sequence:
#
# PCOD9258995 Si02
#       7
#     8   8   8   8   8   4   4
#     4   9  19  34  57  90 119 151 183 235 297 365
#     4   8  14  26  42  68  92 123 171 226 273 319
#     4  10  22  36  54  78 111 154 204 246 285 325
#     4  10  21  35  58  84 119 155 197 244 288 351
#     4  10  19  34  57  90 116 146 187 232 296 362
#     4   8  12  20  40  64  89 112 156 218 277 324
#     4  10  18  34  58  82 121 148 196 234 297 352
#
# _framework density 28.080898000000001
#
# number of rings (size 3 to 8) (size 9 to 14) (size 15 to 20)
#    0.000    2.667    1.667    0.000    2.333    0.000 
#    0.000    0.833    0.000    0.000   41.167    0.000 
#    0.000    0.000    0.000    0.000    0.000    0.000 
#
# Total GULP energy -134283.244896 kJ/mol
# GULP energy per Si atom -5595.135204 kJ/mol
# Density = 2.801698 g / cm^3
# Si number density = 28.080898 Si / 1000 Ang^3
#
#
#
# Elastic Constant Matrix: (Units=GPa)
#
#
# Indices 1 2 3 4 5 6 
#
# 1 189.8200 34.6188 39.0756 0.0000 -18.2593 0.0000
# 2 34.6188 78.3197 27.0638 0.0000 -1.0952 0.0000
# 3 39.0756 27.0638 167.0236 0.0000 -5.5554 0.0000
# 4 0.0000 0.0000 0.0000 29.5279 0.0000 13.3900
# 5 -18.2593 -1.0952 -5.5554 0.0000 63.8706 0.0000
# 6 0.0000 0.0000 0.0000 13.3900 0.0000 28.2210
#
#
#
# Elastic Compliance Matrix: (Units=1/GPa)
#
#
# Indices 1 2 3 4 5 6 
#
# 1 0.006047 -0.002309 -0.000987 0.000000 0.001603 0.000000
# 2 -0.002309 0.014408 -0.001813 0.000000 -0.000571 0.000000
# 3 -0.000987 -0.001813 0.006520 0.000000 0.000254 0.000000
# 4 0.000000 0.000000 0.000000 0.043150 0.000000 -0.020473
# 5 0.001603 -0.000571 0.000254 0.000000 0.016127 0.000000
# 6 0.000000 0.000000 0.000000 -0.020473 0.000000 0.045149
#
#
# Mechanical properties :
#
#
# Convention : Reuss Voigt Hill
#
# Bulk Modulus (GPa) = 59.68251 70.74216 65.21234
# Shear Modulus (GPa) = 33.96619 46.61758 40.29189
#
# Velocity S-wave (km/s) = 3.48168 4.07887 3.79205
# Velocity P-wave (km/s) = 6.12068 6.88694 6.51508
#
# Compressibility (1/GPa) = 0.01675533
#
# Stress axis : x y z
#
# Youngs Moduli (GPa) = 165.37885 69.40822 153.36529
#
# Poissons Ratio (x) = 0.16028 0.15139
# Poissons Ratio (y) = 0.38190 0.27809
# Poissons Ratio (z) = 0.16325 0.12586
#
# Static dielectric constant tensor:
#      x y z
#    x 2.326470 0.000000 -0.047510 
#    y 0.000000 2.295180 0.000000 
#    z -0.047510 0.000000 2.305400 
# 
# From -- ./inp_files/10741.got.cif
#   From: 2010.05.17/outbox.cif.g08.bks.cpg/sg15_6_cif.got.tgz:10741.got - 2010.06.03 18:47:42.
