data_PCOD9258998
_publ_section_title
;
Structure prediction by ZEFSAII (Michael W. Deem and Ramdas Pophale) SiO2 
 PCOD9258998
Probable space group: C 2/C
;
_chemical_formula_sum "Si O2"
_cell_formula_units_Z 56
_cell_length_a 16.103467
_cell_length_b 8.147480
_cell_length_c 24.976702
_cell_angle_alpha 90.000000
_cell_angle_beta 134.515309
_cell_angle_gamma 90.000000
_cell_volume 2336.715148
_symmetry_space_group_name_H-M "C 2/C"
_symmetry_group_IT_number 15
_symmetry_cell_setting 'monoclinic'
loop_
_space_group_symop_operation_xyz
x,y,z
-x,y,1/2-z
-x,-y,-z
x,-y,1/2+z
1/2+x,1/2+y,z
1/2-x,1/2+y,1/2-z
1/2-x,1/2-y,-z
1/2+x,1/2-y,1/2+z
loop_
_atom_site_type_symbol
_atom_site_label
_atom_site_fract_x
_atom_site_fract_y
_atom_site_fract_z
Si Si1 0.314454 0.982280 0.127025
Si Si2 0.778340 0.711547 0.210861
Si Si3 0.986648 0.347089 0.645650
Si Si4 0.601055 0.643879 0.986475
Si Si5 0.025325 0.195670 0.074751
Si Si6 0.113480 0.941663 0.324026
Si Si7 0.286791 0.169902 0.460665
O O1 0.304125 0.065570 0.179800
O O2 0.439275 0.990007 0.154178
O O3 0.250339 0.809164 0.099133
O O4 0.235260 0.094126 0.051645
O O5 0.875016 0.675216 0.298921
O O6 0.642091 0.720178 0.161697
O O7 0.813315 0.873438 0.193088
O O8 0.927241 0.294355 0.563997
O O9 0.946433 0.208838 0.670971
O O10 0.532690 0.479604 0.936798
O O11 0.565138 0.679151 0.031166
O O12 0.925986 0.334389 0.028545
O O13 0.205578 0.021773 0.406110
O O14 0.000000 0.039191 0.250000
O O15 0.250000 0.250000 0.500000
#
# Coordination Sequence:
#
# PCOD9258998 Si02
#       7
#     8   8   8   8   8   8   8
#     4   9  18  33  56  81 105 138 180 220 261 314
#     4   9  19  36  57  78 107 143 179 220 262 319
#     4  10  18  34  58  83 104 138 184 218 258 319
#     4   9  17  32  55  77 104 138 175 219 261 308
#     4   9  19  35  52  76 107 141 175 215 269 314
#     4   9  19  34  53  78 110 141 171 218 275 314
#     4  11  22  36  55  79 107 139 178 224 269 321
#
# _framework density 23.965266
#
# number of rings (size 3 to 8) (size 9 to 14) (size 15 to 20)
#    0.000    2.571    0.000    4.286    0.000    4.000 
#    0.000    5.714    0.000    0.000    0.000    0.000 
#    0.000    0.000    0.000    0.000    0.000    0.000 
#
# Total GULP energy -156319.980416 kJ/mol
# GULP energy per Si atom -5582.856443 kJ/mol
# Density = 2.391072 g / cm^3
# Si number density = 23.965266 Si / 1000 Ang^3
#
#
#
# Elastic Constant Matrix: (Units=GPa)
#
#
# Indices 1 2 3 4 5 6 
#
# 1 48.2434 -1.5802 13.6429 0.0000 27.1262 0.0000
# 2 -1.5802 36.8160 2.9220 0.0000 7.3818 0.0000
# 3 13.6429 2.9220 88.7443 0.0000 45.0308 0.0000
# 4 0.0000 0.0000 0.0000 26.4999 0.0000 5.7375
# 5 27.1262 7.3818 45.0308 0.0000 47.3612 0.0000
# 6 0.0000 0.0000 0.0000 5.7375 0.0000 13.1135
#
#
#
# Elastic Compliance Matrix: (Units=1/GPa)
#
#
# Indices 1 2 3 4 5 6 
#
# 1 0.035526 0.006936 0.010016 0.000000 -0.030952 0.000000
# 2 0.006936 0.029683 0.004482 0.000000 -0.012860 0.000000
# 3 0.010016 0.004482 0.024822 0.000000 -0.030035 0.000000
# 4 0.000000 0.000000 0.000000 0.041685 0.000000 -0.018238
# 5 -0.030952 -0.012860 -0.030035 0.000000 0.069404 0.000000
# 6 0.000000 0.000000 0.000000 -0.018238 0.000000 0.084237
#
#
# Mechanical properties :
#
#
# Convention : Reuss Voigt Hill
#
# Bulk Modulus (GPa) = 7.52459 22.64145 15.08302
# Shear Modulus (GPa) = 17.43450 27.98287 22.70868
#
# Velocity S-wave (km/s) = 2.70013 3.42079 3.08160
# Velocity P-wave (km/s) = 3.58713 5.00704 4.35534
#
# Compressibility (1/GPa) = 0.13289756
#
# Stress axis : x y z
#
# Youngs Moduli (GPa) = 28.14805 33.68970 40.28755
#
# Poissons Ratio (x) = -0.23367 -0.40350
# Poissons Ratio (y) = -0.19523 -0.18057
# Poissons Ratio (z) = -0.28192 -0.15100
#
# Static dielectric constant tensor:
#      x y z
#    x 1.896960 0.000000 0.043880 
#    y 0.000000 2.001500 0.000000 
#    z 0.043880 0.000000 1.994890 
# 
# From -- ./inp_files/276608.got.cif
#   From: 2010.05.17/outbox.cif.g08.bks.cpg/sg15_139_cif.got.tgz:276608.got - 2010.06.03 18:47:42.
