data_PCOD9258034
_publ_section_title
;
Structure prediction by ZEFSAII (Michael W. Deem and Ramdas Pophale) SiO2 
 PCOD9258034
Probable space group: C 2/C
;
_chemical_formula_sum "Si O2"
_cell_formula_units_Z 52
_cell_length_a 17.981456
_cell_length_b 10.251303
_cell_length_c 17.084340
_cell_angle_alpha 90.000000
_cell_angle_beta 105.312980
_cell_angle_gamma 90.000000
_cell_volume 3037.409093
_symmetry_space_group_name_H-M "C 2/C"
_symmetry_group_IT_number 15
_symmetry_cell_setting 'monoclinic'
loop_
_space_group_symop_operation_xyz
x,y,z
-x,y,1/2-z
-x,-y,-z
x,-y,1/2+z
1/2+x,1/2+y,z
1/2-x,1/2+y,1/2-z
1/2-x,1/2-y,-z
1/2+x,1/2-y,1/2+z
loop_
_atom_site_type_symbol
_atom_site_label
_atom_site_fract_x
_atom_site_fract_y
_atom_site_fract_z
Si Si1 0.408413 0.611907 0.003386
Si Si2 0.804491 0.772973 0.590502
Si Si3 0.190329 0.725744 0.413474
Si Si4 0.534426 0.328342 0.421931
Si Si5 0.824482 0.016842 0.696901
Si Si6 0.261403 0.468744 0.355109
Si Si7 0.000000 0.067734 0.750000
O O1 0.470056 0.691077 0.969447
O O2 0.337229 0.568885 0.927661
O O3 0.384617 0.700295 0.069827
O O4 0.435976 0.473767 0.046350
O O5 0.750000 0.750000 0.500000
O O6 0.795698 0.652320 0.645747
O O7 0.786923 0.904257 0.633396
O O8 0.250000 0.750000 0.500000
O O9 0.105797 0.730589 0.430829
O O10 0.187569 0.846134 0.351382
O O11 0.219325 0.596832 0.377105
O O12 0.496978 0.344401 0.326593
O O13 0.788489 0.017450 0.773282
O O14 0.917587 0.994246 0.726768
#
# Coordination Sequence:
#
# PCOD9258034 Si02
#       7
#     8   8   8   8   8   8   4
#     4  10  18  34  56  83 112 148 191 227 281 340
#     4  10  20  36  55  83 117 151 187 236 288 347
#     4  11  20  36  56  86 113 147 192 237 281 343
#     4  10  19  33  58  85 107 146 191 238 277 329
#     4  11  21  37  57  87 113 148 193 239 286 339
#     4  11  21  34  56  85 117 149 187 237 293 338
#     4  10  18  32  58  84 108 138 196 244 266 328
#
# _framework density 17.119854
#
# number of rings (size 3 to 8) (size 9 to 14) (size 15 to 20)
#    0.000    1.538    6.154    1.846    0.000    0.000 
#    0.000    0.769    0.000    3.692    0.000    0.000 
#    0.000    0.000    0.000    0.000    0.000    0.000 
#
# Total GULP energy -144744.954823 kJ/mol
# GULP energy per Si atom -5567.113647 kJ/mol
# Density = 1.708089 g / cm^3
# Si number density = 17.119854 Si / 1000 Ang^3
#
#
#
# Elastic Constant Matrix: (Units=GPa)
#
#
# Indices 1 2 3 4 5 6 
#
# 1 112.0163 56.4229 48.4702 0.0000 -35.0554 0.0000
# 2 56.4229 91.3793 22.8077 0.0000 -16.0570 0.0000
# 3 48.4702 22.8077 84.3721 0.0000 -20.5805 0.0000
# 4 0.0000 0.0000 0.0000 27.1111 0.0000 -5.8358
# 5 -35.0554 -16.0570 -20.5805 0.0000 42.2542 0.0000
# 6 0.0000 0.0000 0.0000 -5.8358 0.0000 26.0849
#
#
#
# Elastic Compliance Matrix: (Units=1/GPa)
#
#
# Indices 1 2 3 4 5 6 
#
# 1 0.018784 -0.008398 -0.006240 0.000000 0.009354 0.000000
# 2 -0.008398 0.015911 0.000339 0.000000 -0.000755 0.000000
# 3 -0.006240 0.000339 0.016017 0.000000 0.002753 0.000000
# 4 0.000000 0.000000 0.000000 0.038751 0.000000 0.008670
# 5 0.009354 -0.000755 0.002753 0.000000 0.032481 0.000000
# 6 0.000000 0.000000 0.000000 0.008670 0.000000 0.040276
#
#
# Mechanical properties :
#
#
# Convention : Reuss Voigt Hill
#
# Bulk Modulus (GPa) = 45.21662 60.35215 52.78438
# Shear Modulus (GPa) = 25.22847 29.76117 27.49482
#
# Velocity S-wave (km/s) = 3.84296 4.17394 4.01186
# Velocity P-wave (km/s) = 6.79414 7.65234 7.23597
#
# Compressibility (1/GPa) = 0.02211576
#
# Stress axis : x y z
#
# Youngs Moduli (GPa) = 53.23593 62.84871 62.43441
#
# Poissons Ratio (x) = 0.52777 0.38956
# Poissons Ratio (y) = 0.44705 -0.02115
# Poissons Ratio (z) = 0.33217 -0.02129
#
# Static dielectric constant tensor:
#      x y z
#    x 1.645620 0.000000 0.011700 
#    y 0.000000 1.585380 0.000000 
#    z 0.011700 0.000000 1.588440 
# 
# From -- ./inp_files/209220.got.cif
#   From: 2010.05.17/outbox.cif.g08.bks.cpg/sg15_105_cif.got.tgz:209220.got - 2010.06.03 18:47:42.
