data_PCOD9258967
_publ_section_title
;
Structure prediction by ZEFSAII (Michael W. Deem and Ramdas Pophale) SiO2 
 PCOD9258967
Probable space group: C 2/C
;
_chemical_formula_sum "Si O2"
_cell_formula_units_Z 52
_cell_length_a 18.917203
_cell_length_b 19.271991
_cell_length_c 14.490322
_cell_angle_alpha 90.000000
_cell_angle_beta 33.675909
_cell_angle_gamma 90.000000
_cell_volume 2929.266208
_symmetry_space_group_name_H-M "C 2/C"
_symmetry_group_IT_number 15
_symmetry_cell_setting 'monoclinic'
loop_
_space_group_symop_operation_xyz
x,y,z
-x,y,1/2-z
-x,-y,-z
x,-y,1/2+z
1/2+x,1/2+y,z
1/2-x,1/2+y,1/2-z
1/2-x,1/2-y,-z
1/2+x,1/2-y,1/2+z
loop_
_atom_site_type_symbol
_atom_site_label
_atom_site_fract_x
_atom_site_fract_y
_atom_site_fract_z
Si Si1 0.412520 0.734163 0.592022
Si Si2 0.613267 0.471156 0.812040
Si Si3 0.474302 0.153418 0.171344
Si Si4 0.677811 0.677645 0.314424
Si Si5 0.000000 0.998479 0.250000
Si Si6 0.296867 0.617148 0.019395
Si Si7 0.757170 0.883925 0.349896
O O1 0.434193 0.777984 0.661683
O O2 0.555289 0.716503 0.404931
O O3 0.308949 0.781819 0.651945
O O4 0.343938 0.661984 0.689176
O O5 0.674879 0.401846 0.785015
O O6 0.557789 0.458054 0.770370
O O7 0.708224 0.535716 0.696262
O O8 0.500000 0.500000 0.000000
O O9 0.500000 0.167735 0.250000
O O10 0.352267 0.102442 0.295951
O O11 0.609254 0.127005 0.988177
O O12 0.661226 0.670242 0.445130
O O13 0.893525 0.947291 0.410640
O O14 0.289838 0.640542 0.919712
#
# Coordination Sequence:
#
# PCOD9258967 Si02
#       7
#     8   8   8   8   4   8   8
#     4  11  20  30  50  74 109 144 179 209 266 316
#     4  11  20  35  57  79 105 138 183 221 259 314
#     4   9  19  29  44  75 113 147 168 206 259 331
#     4  11  21  34  52  79 109 138 176 222 261 319
#     4  10  18  34  58  78 104 142 174 222 268 304
#     4   9  18  30  49  78 110 138 175 206 260 329
#     4  10  19  32  50  75 109 147 175 213 263 314
#
# _framework density 17.751885999999999
#
# number of rings (size 3 to 8) (size 9 to 14) (size 15 to 20)
#    0.000    1.846    4.615    0.923    2.154    1.846 
#    0.000    3.077    3.385    0.923    0.000    0.000 
#    0.000    0.000    0.000    0.000    0.000    0.000 
#
# Total GULP energy -144778.511234 kJ/mol
# GULP energy per Si atom -5568.404278 kJ/mol
# Density = 1.771148 g / cm^3
# Si number density = 17.751886 Si / 1000 Ang^3
#
#
#
# Elastic Constant Matrix: (Units=GPa)
#
#
# Indices 1 2 3 4 5 6 
#
# 1 60.5354 37.5990 29.1944 0.0000 -23.9611 0.0000
# 2 37.5990 79.9361 18.7291 0.0000 -16.3556 0.0000
# 3 29.1944 18.7291 49.1429 0.0000 -26.3557 0.0000
# 4 0.0000 0.0000 0.0000 1.3937 0.0000 2.4845
# 5 -23.9611 -16.3556 -26.3557 0.0000 28.7943 0.0000
# 6 0.0000 0.0000 0.0000 2.4845 0.0000 23.4111
#
#
#
# Elastic Compliance Matrix: (Units=1/GPa)
#
#
# Indices 1 2 3 4 5 6 
#
# 1 0.032251 -0.010537 -0.007779 -0.000001 0.013732 0.000000
# 2 -0.010537 0.017712 0.000398 0.000000 0.001656 0.000000
# 3 -0.007779 0.000398 0.042168 0.000000 0.032349 0.000000
# 4 -0.000001 0.000000 0.000000 0.884949 0.000000 -0.093916
# 5 0.013732 0.001656 0.032349 0.000000 0.076707 0.000000
# 6 0.000000 0.000000 0.000000 -0.093916 0.000000 0.052682
#
#
# Mechanical properties :
#
#
# Convention : Reuss Voigt Hill
#
# Bulk Modulus (GPa) = 17.76386 40.07326 28.91856
# Shear Modulus (GPa) = 4.30638 17.65928 10.98283
#
# Velocity S-wave (km/s) = 1.55921 3.15744 2.49004
# Velocity P-wave (km/s) = 3.64280 5.99297 4.95912
#
# Compressibility (1/GPa) = 0.05629406
#
# Stress axis : x y z
#
# Youngs Moduli (GPa) = 31.00663 56.45873 23.71494
#
# Poissons Ratio (x) = 0.59493 0.18447
# Poissons Ratio (y) = 0.32673 -0.00944
# Poissons Ratio (z) = 0.24119 -0.02247
#
# Static dielectric constant tensor:
#      x y z
#    x 1.644400 0.000000 -0.023060 
#    y 0.000000 1.593180 0.000000 
#    z -0.023060 0.000000 1.632580 
# 
# From -- ./inp_files/112814.got.cif
#   From: 2010.05.17/outbox.cif.g08.bks.cpg/sg15_57_cif.got.tgz:112814.got - 2010.06.03 18:47:42.
