data_PCOD9258799
_publ_section_title
;
Structure prediction by ZEFSAII (Michael W. Deem and Ramdas Pophale) SiO2 
 PCOD9258799
Probable space group: C 2/C
;
_chemical_formula_sum "Si O2"
_cell_formula_units_Z 44
_cell_length_a 16.984034
_cell_length_b 6.982859
_cell_length_c 18.377150
_cell_angle_alpha 90.000000
_cell_angle_beta 49.275550
_cell_angle_gamma 90.000000
_cell_volume 1651.729685
_symmetry_space_group_name_H-M "C 2/C"
_symmetry_group_IT_number 15
_symmetry_cell_setting 'monoclinic'
loop_
_space_group_symop_operation_xyz
x,y,z
-x,y,1/2-z
-x,-y,-z
x,-y,1/2+z
1/2+x,1/2+y,z
1/2-x,1/2+y,1/2-z
1/2-x,1/2-y,-z
1/2+x,1/2-y,1/2+z
loop_
_atom_site_type_symbol
_atom_site_label
_atom_site_fract_x
_atom_site_fract_y
_atom_site_fract_z
Si Si1 0.881851 0.625410 0.692416
Si Si2 0.353395 0.429573 0.915067
Si Si3 0.942488 0.067916 0.655965
Si Si4 0.500000 0.126563 0.750000
Si Si5 0.765124 0.642506 0.628338
Si Si6 0.175623 0.912628 0.406263
O O1 0.928967 0.836813 0.657174
O O2 0.957302 0.519605 0.704170
O O3 0.848853 0.548975 0.633417
O O4 0.772782 0.652026 0.799569
O O5 0.445020 0.585227 0.876458
O O6 0.407800 0.267338 0.832807
O O7 0.259861 0.536212 0.931139
O O8 0.327672 0.343784 0.009444
O O9 0.923189 0.133707 0.584896
O O10 0.846709 0.136447 0.763126
O O11 0.802951 0.859384 0.597820
#
# Coordination Sequence:
#
# PCOD9258799 Si02
#       6
#     8   8   8   4   8   8
#     4   9  19  36  55  77 103 147 178 217 266 324
#     4  11  18  34  58  80 107 142 186 215 263 323
#     4   9  18  37  57  76 111 150 177 207 269 334
#     4  10  20  38  56  74 110 148 182 212 268 332
#     4  10  18  34  55  78 110 139 177 221 272 313
#     4  10  21  31  56  87 108 134 183 231 261 305
#
# _framework density 26.638742000000001
#
# number of rings (size 3 to 8) (size 9 to 14) (size 15 to 20)
#    0.000    2.182    3.636    1.091    0.000    0.727 
#    3.273    0.000    0.000    1.091    0.000    0.000 
#    0.000    0.000    0.000    0.000    0.000    0.000 
#
# Total GULP energy -123042.593183 kJ/mol
# GULP energy per Si atom -5592.845145 kJ/mol
# Density = 2.657811 g / cm^3
# Si number density = 26.638742 Si / 1000 Ang^3
#
#
#
# Elastic Constant Matrix: (Units=GPa)
#
#
# Indices 1 2 3 4 5 6 
#
# 1 220.2083 32.7057 10.3233 0.0001 44.4821 -0.0001
# 2 32.7057 87.9170 0.3753 0.0000 -5.1826 0.0000
# 3 10.3233 0.3753 48.9779 0.0000 13.1426 0.0000
# 4 0.0001 0.0000 0.0000 22.5407 0.0000 -2.9167
# 5 44.4821 -5.1826 13.1426 0.0000 45.5692 0.0001
# 6 -0.0001 0.0000 0.0000 -2.9167 0.0001 15.0549
#
#
#
# Elastic Compliance Matrix: (Units=1/GPa)
#
#
# Indices 1 2 3 4 5 6 
#
# 1 0.006242 -0.002709 0.000458 0.000000 -0.006533 0.000000
# 2 -0.002709 0.012637 -0.000673 0.000000 0.004276 0.000000
# 3 0.000458 -0.000673 0.022183 0.000000 -0.006922 0.000000
# 4 0.000000 0.000000 0.000000 0.045505 0.000000 0.008816
# 5 -0.006533 0.004276 -0.006922 0.000000 0.030805 0.000000
# 6 0.000000 0.000000 0.000000 0.008816 0.000000 0.068132
#
#
# Mechanical properties :
#
#
# Convention : Reuss Voigt Hill
#
# Bulk Modulus (GPa) = 28.39770 49.32353 38.86061
# Shear Modulus (GPa) = 24.61973 37.54621 31.08297
#
# Velocity S-wave (km/s) = 3.04338 3.75835 3.41960
# Velocity P-wave (km/s) = 4.79927 6.11469 5.49647
#
# Compressibility (1/GPa) = 0.03521412
#
# Stress axis : x y z
#
# Youngs Moduli (GPa) = 160.21260 79.13228 45.07891
#
# Poissons Ratio (x) = 0.21437 -0.02066
# Poissons Ratio (y) = 0.43402 0.03035
# Poissons Ratio (z) = -0.07342 0.05327
#
# Static dielectric constant tensor:
#      x y z
#    x 2.200210 0.000000 0.020030 
#    y 0.000000 2.084650 0.000000 
#    z 0.020030 0.000000 2.080370 
# 
# From -- ./inp_files/246810.got.cif
#   From: 2010.05.17/outbox.cif.g08.bks.cpg/sg15_124_cif.got.tgz:246810.got - 2010.06.03 18:47:42.
