data_PCOD9258009
_publ_section_title
;
Structure prediction by ZEFSAII (Michael W. Deem and Ramdas Pophale) SiO2 
 PCOD9258009
Probable space group: C 2/C
;
_chemical_formula_sum "Si O2"
_cell_formula_units_Z 56
_cell_length_a 10.022763
_cell_length_b 17.774074
_cell_length_c 16.317874
_cell_angle_alpha 90.000000
_cell_angle_beta 123.847706
_cell_angle_gamma 90.000000
_cell_volume 2414.285554
_symmetry_space_group_name_H-M "C 2/C"
_symmetry_group_IT_number 15
_symmetry_cell_setting 'monoclinic'
loop_
_space_group_symop_operation_xyz
x,y,z
-x,y,1/2-z
-x,-y,-z
x,-y,1/2+z
1/2+x,1/2+y,z
1/2-x,1/2+y,1/2-z
1/2-x,1/2-y,-z
1/2+x,1/2-y,1/2+z
loop_
_atom_site_type_symbol
_atom_site_label
_atom_site_fract_x
_atom_site_fract_y
_atom_site_fract_z
Si Si1 0.758937 0.546606 0.875379
Si Si2 0.654421 0.176255 0.987527
Si Si3 0.317410 0.115712 0.672731
Si Si4 0.051457 0.411242 0.598313
Si Si5 0.021858 0.945324 0.432237
Si Si6 0.708836 0.794465 0.186384
Si Si7 0.275735 0.182153 0.075193
O O1 0.837298 0.483177 0.843147
O O2 0.612739 0.522533 0.883637
O O3 0.715023 0.628425 0.823874
O O4 0.907329 0.561694 0.988594
O O5 0.699463 0.119014 0.930694
O O6 0.471546 0.198450 0.908201
O O7 0.750000 0.250000 0.000000
O O8 0.663045 0.141634 0.079946
O O9 0.500000 0.088352 0.750000
O O10 0.302291 0.194203 0.719400
O O11 0.161174 0.073995 0.650762
O O12 0.944913 0.361696 0.623279
O O13 0.130180 0.875229 0.503064
O O14 0.000000 0.000000 0.500000
O O15 0.773072 0.720925 0.163619
O O16 0.250000 0.250000 0.000000
#
# Coordination Sequence:
#
# PCOD9258009 Si02
#       7
#     8   8   8   8   8   8   8
#     4   9  18  34  54  87 121 169 208 269 324 390
#     4  10  18  32  57  87 118 162 216 264 316 391
#     4  10  23  37  58  95 136 173 215 277 353 398
#     4   9  18  32  58  86 123 162 219 266 324 375
#     4  11  22  38  67  96 129 172 239 277 327 412
#     4  10  20  37  58  87 133 168 214 267 336 397
#     4  11  19  38  63  97 129 171 227 277 318 409
#
# _framework density 23.195267999999999
#
# number of rings (size 3 to 8) (size 9 to 14) (size 15 to 20)
#    0.000    2.000    4.286    1.714    0.000    4.000 
#    0.000    0.000    3.143    1.714    7.429    0.000 
#    0.000    0.000    0.000    0.000    0.000    0.286 
#
# Total GULP energy -156088.790100 kJ/mol
# GULP energy per Si atom -5574.599646 kJ/mol
# Density = 2.314247 g / cm^3
# Si number density = 23.195268 Si / 1000 Ang^3
#
#
#
# Elastic Constant Matrix: (Units=GPa)
#
#
# Indices 1 2 3 4 5 6 
#
# 1 160.9399 60.9273 26.2316 0.0000 -5.4561 0.0000
# 2 60.9273 79.9409 21.7244 0.0000 0.7547 0.0000
# 3 26.2316 21.7244 47.0058 0.0000 0.1941 0.0000
# 4 0.0000 0.0000 0.0000 20.6145 0.0000 -9.3178
# 5 -5.4561 0.7547 0.1941 0.0000 20.9492 0.0000
# 6 0.0000 0.0000 0.0000 -9.3178 0.0000 53.7339
#
#
#
# Elastic Compliance Matrix: (Units=1/GPa)
#
#
# Indices 1 2 3 4 5 6 
#
# 1 0.009050 -0.006344 -0.002130 0.000000 0.002605 0.000000
# 2 -0.006344 0.018757 -0.005119 0.000000 -0.002280 0.000000
# 3 -0.002130 -0.005119 0.024831 0.000000 -0.000600 0.000000
# 4 0.000000 0.000000 0.000000 0.052635 0.000000 0.009127
# 5 0.002605 -0.002280 -0.000600 0.000000 0.048501 0.000000
# 6 0.000000 0.000000 0.000000 0.009127 0.000000 0.020193
#
#
# Mechanical properties :
#
#
# Convention : Reuss Voigt Hill
#
# Bulk Modulus (GPa) = 39.28792 56.18370 47.73581
# Shear Modulus (GPa) = 23.85083 30.99307 27.42195
#
# Velocity S-wave (km/s) = 3.21013 3.65935 3.44208
# Velocity P-wave (km/s) = 5.54208 6.49069 6.03505
#
# Compressibility (1/GPa) = 0.02545311
#
# Stress axis : x y z
#
# Youngs Moduli (GPa) = 110.49139 53.31380 40.27264
#
# Poissons Ratio (x) = 0.33821 0.08576
# Poissons Ratio (y) = 0.70093 0.20616
# Poissons Ratio (z) = 0.23529 0.27293
#
# Static dielectric constant tensor:
#      x y z
#    x 2.180160 0.000000 0.976430 
#    y 0.000000 1.986480 0.000000 
#    z 0.976430 0.000000 5.845500 
# 
# From -- ./inp_files/191024.got.cif
#   From: 2010.05.17/outbox.cif.g08.bks.cpg/sg15_96_cif.got.tgz:191024.got - 2010.06.03 18:47:42.
