data_PCOD9258508
_publ_section_title
;
Structure prediction by ZEFSAII (Michael W. Deem and Ramdas Pophale) SiO2 
 PCOD9258508
Probable space group: C 2/C
;
_chemical_formula_sum "Si O2"
_cell_formula_units_Z 36
_cell_length_a 23.232467
_cell_length_b 11.515865
_cell_length_c 5.207966
_cell_angle_alpha 90.000000
_cell_angle_beta 98.203582
_cell_angle_gamma 90.000000
_cell_volume 1379.091688
_symmetry_space_group_name_H-M "C 2/C"
_symmetry_group_IT_number 15
_symmetry_cell_setting 'monoclinic'
loop_
_space_group_symop_operation_xyz
x,y,z
-x,y,1/2-z
-x,-y,-z
x,-y,1/2+z
1/2+x,1/2+y,z
1/2-x,1/2+y,1/2-z
1/2-x,1/2-y,-z
1/2+x,1/2-y,1/2+z
loop_
_atom_site_type_symbol
_atom_site_label
_atom_site_fract_x
_atom_site_fract_y
_atom_site_fract_z
Si Si1 0.957340 0.889039 0.909259
Si Si2 0.500000 0.790352 0.750000
Si Si3 0.671328 0.430658 0.862221
Si Si4 0.090208 0.428112 0.506356
Si Si5 0.788692 0.419562 0.793240
O O1 0.895812 0.904032 0.737902
O O2 0.000000 0.821151 0.750000
O O3 0.950216 0.802022 0.138177
O O4 0.000000 0.000000 0.000000
O O5 0.531429 0.869907 0.563495
O O6 0.677741 0.460924 0.164775
O O7 0.727032 0.356335 0.804484
O O8 0.093060 0.463045 0.210120
O O9 0.149660 0.358178 0.613248
O O10 0.789345 0.477987 0.512452
#
# Coordination Sequence:
#
# PCOD9258508 Si02
#       5
#     8   4   8   8   8
#     4  12  23  39  57  85 124 160 203 248 291 349
#     4  12  26  38  62  88 118 166 198 246 300 354
#     4  10  18  33  58  84 113 155 196 238 295 348
#     4  10  22  42  64  91 121 152 198 249 299 357
#     4   8  16  32  58  85 112 148 191 239 295 351
#
# _framework density 26.104140999999998
#
# number of rings (size 3 to 8) (size 9 to 14) (size 15 to 20)
#    0.000    1.778    3.333    0.667    3.111    0.000 
#    0.000    1.111    0.000    1.333    0.000    0.000 
#    0.000    0.000    0.000    0.000    0.000    0.000 
#
# Total GULP energy -100225.137008 kJ/mol
# GULP energy per Si atom -5568.063167 kJ/mol
# Density = 2.604473 g / cm^3
# Si number density = 26.104141 Si / 1000 Ang^3
#
#
#
# Elastic Constant Matrix: (Units=GPa)
#
#
# Indices 1 2 3 4 5 6 
#
# 1 208.4436 30.9828 14.8084 0.0000 -8.6986 0.0000
# 2 30.9828 34.9428 11.5759 0.0000 8.2067 0.0000
# 3 14.8084 11.5759 110.0188 0.0000 3.6962 0.0000
# 4 0.0000 0.0000 0.0000 26.9425 0.0000 9.1476
# 5 -8.6986 8.2067 3.6962 0.0000 55.8632 0.0000
# 6 0.0000 0.0000 0.0000 9.1476 0.0000 -6.9431
#
#
#
# Elastic Compliance Matrix: (Units=1/GPa)
#
#
# Indices 1 2 3 4 5 6 
#
# 1 0.005681 -0.005348 -0.000259 0.000000 0.001687 0.000000
# 2 -0.005348 0.035683 -0.002837 0.000000 -0.005887 0.000000
# 3 -0.000259 -0.002837 0.009431 0.000000 -0.000248 0.000000
# 4 0.000000 0.000000 0.000000 0.025645 0.000000 0.033787
# 5 0.001687 -0.005887 -0.000248 0.000000 0.019045 0.000000
# 6 0.000000 0.000000 0.000000 0.033787 0.000000 -0.099513
#
#
# Mechanical properties :
#
#
# Convention : Reuss Voigt Hill
#
# Bulk Modulus (GPa) = 29.49173 52.01548 40.75360
# Shear Modulus (GPa) = 206.95157 34.90841 120.92999
#
# Velocity S-wave (km/s) = 8.91355 3.66084 6.81370
# Velocity P-wave (km/s) = 10.82854 6.15130 8.80613
#
# Compressibility (1/GPa) = 0.03390782
#
# Stress axis : x y z
#
# Youngs Moduli (GPa) = 176.02021 28.02491 106.03362
#
# Poissons Ratio (x) = 0.14988 0.02743
# Poissons Ratio (y) = 0.94135 0.30080
# Poissons Ratio (z) = 0.04553 0.07950
#
# Static dielectric constant tensor:
#      x y z
#    x 2.186170 0.000000 0.154450 
#    y 0.000000 2.048920 0.000000 
#    z 0.154450 0.000000 2.677960 
# 
# From -- ./inp_files/14862.got.cif
#   From: 2010.05.17/outbox.cif.g08.bks.cpg/sg15_8_cif.got.tgz:14862.got - 2010.06.03 18:47:42.
