data_PCOD9258444
_publ_section_title
;
Structure prediction by ZEFSAII (Michael W. Deem and Ramdas Pophale) SiO2 
 PCOD9258444
Probable space group: C 2/C
;
_chemical_formula_sum "Si O2"
_cell_formula_units_Z 48
_cell_length_a 9.217903
_cell_length_b 19.964591
_cell_length_c 15.989533
_cell_angle_alpha 90.000000
_cell_angle_beta 115.493064
_cell_angle_gamma 90.000000
_cell_volume 2656.083061
_symmetry_space_group_name_H-M "C 2/C"
_symmetry_group_IT_number 15
_symmetry_cell_setting 'monoclinic'
loop_
_space_group_symop_operation_xyz
x,y,z
-x,y,1/2-z
-x,-y,-z
x,-y,1/2+z
1/2+x,1/2+y,z
1/2-x,1/2+y,1/2-z
1/2-x,1/2-y,-z
1/2+x,1/2-y,1/2+z
loop_
_atom_site_type_symbol
_atom_site_label
_atom_site_fract_x
_atom_site_fract_y
_atom_site_fract_z
Si Si1 0.036554 0.659463 0.849727
Si Si2 0.399442 0.717971 0.405471
Si Si3 0.169619 0.751392 0.107322
Si Si4 0.433985 0.925759 0.975991
Si Si5 0.544935 0.169988 0.350414
Si Si6 0.899974 0.122297 0.142535
O O1 0.218607 0.686045 0.883921
O O2 0.000000 0.629059 0.750000
O O3 0.920888 0.724478 0.839040
O O4 0.028307 0.612533 0.927971
O O5 0.523499 0.745007 0.505580
O O6 0.222232 0.701652 0.393637
O O7 0.469386 0.646976 0.391354
O O8 0.291898 0.689581 0.126164
O O9 0.079637 0.732133 0.169713
O O10 0.509477 0.882491 0.917140
O O11 0.239987 0.928761 0.916097
O O12 0.500000 0.000000 0.000000
O O13 0.500000 0.138097 0.250000
O O14 0.000000 0.105281 0.250000
#
# Coordination Sequence:
#
# PCOD9258444 Si02
#       6
#     8   8   8   8   8   8
#     4  11  20  36  60  86 114 154 188 231 292 354
#     4  11  17  33  60  88 123 143 182 239 305 349
#     4  10  18  33  56  91 123 144 179 232 302 355
#     4  11  24  42  59  79 114 160 207 241 273 331
#     4  11  22  35  57  91 121 151 186 240 297 347
#     4  10  18  35  61  86 111 152 194 235 285 352
#
# _framework density 18.071722000000001
#
# number of rings (size 3 to 8) (size 9 to 14) (size 15 to 20)
#    0.000    1.333    5.000    6.500    0.000    0.667 
#    0.000    0.833    3.667    0.000    0.000    0.000 
#    0.000    0.000    0.000    0.000    0.000    0.000 
#
# Total GULP energy -133614.002971 kJ/mol
# GULP energy per Si atom -5567.250124 kJ/mol
# Density = 1.803059 g / cm^3
# Si number density = 18.071722 Si / 1000 Ang^3
#
#
#
# Elastic Constant Matrix: (Units=GPa)
#
#
# Indices 1 2 3 4 5 6 
#
# 1 127.7598 44.0977 34.6926 0.0000 -3.7505 0.0000
# 2 44.0977 86.2994 47.4226 0.0000 -1.0511 0.0000
# 3 34.6926 47.4226 128.5103 0.0000 -10.4628 0.0000
# 4 0.0000 0.0000 0.0000 9.4328 0.0000 1.3040
# 5 -3.7505 -1.0511 -10.4628 0.0000 30.8013 0.0000
# 6 0.0000 0.0000 0.0000 1.3040 0.0000 20.4444
#
#
#
# Elastic Compliance Matrix: (Units=1/GPa)
#
#
# Indices 1 2 3 4 5 6 
#
# 1 0.009616 -0.004403 -0.000913 0.000000 0.000710 0.000000
# 2 -0.004403 0.016607 -0.005078 0.000000 -0.001694 0.000000
# 3 -0.000913 -0.005078 0.010160 0.000000 0.003167 0.000000
# 4 0.000000 0.000000 0.000000 0.106956 0.000000 -0.006822
# 5 0.000710 -0.001694 0.003167 0.000000 0.033570 0.000000
# 6 0.000000 0.000000 0.000000 -0.006822 0.000000 0.049348
#
#
# Mechanical properties :
#
#
# Convention : Reuss Voigt Hill
#
# Bulk Modulus (GPa) = 64.12460 66.11058 65.11759
# Shear Modulus (GPa) = 19.82216 26.55948 23.19082
#
# Velocity S-wave (km/s) = 3.31548 3.83779 3.58616
# Velocity P-wave (km/s) = 7.08639 7.50333 7.29784
#
# Compressibility (1/GPa) = 0.01559464
#
# Stress axis : x y z
#
# Youngs Moduli (GPa) = 103.99568 60.21563 98.42966
#
# Poissons Ratio (x) = 0.26513 0.08989
# Poissons Ratio (y) = 0.45790 0.49978
# Poissons Ratio (z) = 0.09497 0.30575
#
# Static dielectric constant tensor:
#      x y z
#    x 1.654270 0.000000 -0.016710 
#    y 0.000000 1.613260 0.000000 
#    z -0.016710 0.000000 1.718390 
# 
# From -- ./inp_files/136190.got.cif
#   From: 2010.05.17/outbox.cif.g08.bks.cpg/sg15_69_cif.got.tgz:136190.got - 2010.06.03 18:47:42.
