data_PCOD9258459
_publ_section_title
;
Structure prediction by ZEFSAII (Michael W. Deem and Ramdas Pophale) SiO2 
 PCOD9258459
Probable space group: C 2/C
;
_chemical_formula_sum "Si O2"
_cell_formula_units_Z 48
_cell_length_a 7.827449
_cell_length_b 13.841062
_cell_length_c 22.176326
_cell_angle_alpha 90.000000
_cell_angle_beta 51.158907
_cell_angle_gamma 90.000000
_cell_volume 1871.347628
_symmetry_space_group_name_H-M "C 2/C"
_symmetry_group_IT_number 15
_symmetry_cell_setting 'monoclinic'
loop_
_space_group_symop_operation_xyz
x,y,z
-x,y,1/2-z
-x,-y,-z
x,-y,1/2+z
1/2+x,1/2+y,z
1/2-x,1/2+y,1/2-z
1/2-x,1/2-y,-z
1/2+x,1/2-y,1/2+z
loop_
_atom_site_type_symbol
_atom_site_label
_atom_site_fract_x
_atom_site_fract_y
_atom_site_fract_z
Si Si1 0.832676 0.099868 0.732370
Si Si2 0.739741 0.088668 0.290256
Si Si3 0.621355 0.493425 0.060280
Si Si4 0.334880 0.826775 0.570598
Si Si5 0.667354 0.274934 0.826273
Si Si6 0.351768 0.657672 0.045687
O O1 0.705880 0.199237 0.763148
O O2 0.000000 0.119069 0.750000
O O3 0.666403 0.020722 0.797522
O O4 0.968375 0.057999 0.645764
O O5 0.632430 0.149229 0.366352
O O6 0.734428 0.131062 0.225814
O O7 0.000000 0.084181 0.250000
O O8 0.803108 0.566737 0.047677
O O9 0.716374 0.406997 0.997813
O O10 0.474165 0.570181 0.055069
O O11 0.498348 0.743731 0.513851
O O12 0.094834 0.780468 0.611562
O O13 0.758760 0.280687 0.874361
#
# Coordination Sequence:
#
# PCOD9258459 Si02
#       6
#     8   8   8   8   8   8
#     4  11  19  35  58  74 106 155 183 224 285 344
#     4   9  16  33  56  77 101 140 191 219 269 343
#     4  10  18  33  57  81 109 146 185 230 289 336
#     4  10  18  36  60  82 109 148 191 238 285 347
#     4  10  19  32  56  81 110 138 191 236 277 339
#     4  10  20  33  58  86 113 143 188 240 292 344
#
# _framework density 25.649964000000001
#
# number of rings (size 3 to 8) (size 9 to 14) (size 15 to 20)
#    0.000    2.000    6.667    3.000    0.000    0.000 
#    0.000    1.667   14.667    0.000    0.000    0.000 
#    0.000    0.000    0.000    0.000    0.000    0.000 
#
# Total GULP energy -133671.902417 kJ/mol
# GULP energy per Si atom -5569.662601 kJ/mol
# Density = 2.559158 g / cm^3
# Si number density = 25.649964 Si / 1000 Ang^3
#
#
#
# Elastic Constant Matrix: (Units=GPa)
#
#
# Indices 1 2 3 4 5 6 
#
# 1 35.1636 26.5293 35.5334 0.0009 2.8590 -0.0001
# 2 26.5293 150.0720 85.8975 0.0002 -4.0202 0.0002
# 3 35.5334 85.8975 152.8116 0.0006 17.6823 -0.0003
# 4 0.0009 0.0002 0.0006 57.2012 -0.0005 1.0819
# 5 2.8590 -4.0202 17.6823 -0.0005 26.7509 0.0002
# 6 -0.0001 0.0002 -0.0003 1.0819 0.0002 16.8435
#
#
#
# Elastic Compliance Matrix: (Units=1/GPa)
#
#
# Indices 1 2 3 4 5 6 
#
# 1 0.037774 -0.002352 -0.007529 -0.000001 0.000586 0.000000
# 2 -0.002352 0.010796 -0.006214 0.000000 0.005981 0.000000
# 3 -0.007529 -0.006214 0.012780 0.000000 -0.008577 0.000000
# 4 -0.000001 0.000000 0.000000 0.017503 0.000000 -0.001124
# 5 0.000586 0.005981 -0.008577 0.000000 0.043887 -0.000001
# 6 0.000000 0.000000 0.000000 -0.001124 -0.000001 0.059442
#
#
# Mechanical properties :
#
#
# Convention : Reuss Voigt Hill
#
# Bulk Modulus (GPa) = 34.29408 70.44084 52.36746
# Shear Modulus (GPa) = 22.31212 32.83159 27.57186
#
# Velocity S-wave (km/s) = 2.95255 3.58157 3.28217
# Velocity P-wave (km/s) = 5.00225 6.68023 5.90119
#
# Compressibility (1/GPa) = 0.02915955
#
# Stress axis : x y z
#
# Youngs Moduli (GPa) = 26.47335 92.62577 78.24711
#
# Poissons Ratio (x) = 0.21789 0.58913
# Poissons Ratio (y) = 0.06228 0.48621
# Poissons Ratio (z) = 0.19932 0.57555
#
# Static dielectric constant tensor:
#      x y z
#    x 2.180930 0.000000 -0.028610 
#    y 0.000000 2.096480 0.000000 
#    z -0.028610 0.000000 2.042970 
# 
# From -- ./inp_files/236650.got.cif
#   From: 2010.05.17/outbox.cif.g08.bks.cpg/sg15_119_cif.got.tgz:236650.got - 2010.06.03 18:47:42.
