data_PCOD9258445
_publ_section_title
;
Structure prediction by ZEFSAII (Michael W. Deem and Ramdas Pophale) SiO2 
 PCOD9258445
Probable space group: C 2/C
;
_chemical_formula_sum "Si O2"
_cell_formula_units_Z 64
_cell_length_a 8.285747
_cell_length_b 19.233995
_cell_length_c 17.568471
_cell_angle_alpha 90.000000
_cell_angle_beta 106.872129
_cell_angle_gamma 90.000000
_cell_volume 2679.332393
_symmetry_space_group_name_H-M "C 2/C"
_symmetry_group_IT_number 15
_symmetry_cell_setting 'monoclinic'
loop_
_space_group_symop_operation_xyz
x,y,z
-x,y,1/2-z
-x,-y,-z
x,-y,1/2+z
1/2+x,1/2+y,z
1/2-x,1/2+y,1/2-z
1/2-x,1/2-y,-z
1/2+x,1/2-y,1/2+z
loop_
_atom_site_type_symbol
_atom_site_label
_atom_site_fract_x
_atom_site_fract_y
_atom_site_fract_z
Si Si1 0.087658 0.516411 0.418835
Si Si2 0.374819 0.661058 0.126447
Si Si3 0.985045 0.194917 0.978090
Si Si4 0.037724 0.111471 0.675532
Si Si5 0.253563 0.835168 0.734172
Si Si6 0.268809 0.496207 0.597754
Si Si7 0.365162 0.172916 0.082551
Si Si8 0.805237 0.501843 0.222760
O O1 0.178428 0.487717 0.504629
O O2 0.055015 0.598298 0.421467
O O3 0.223293 0.507626 0.372074
O O4 0.000000 0.482030 0.250000
O O5 0.251063 0.688604 0.177509
O O6 0.563293 0.678731 0.179941
O O7 0.359561 0.576854 0.125282
O O8 0.368707 0.687197 0.037788
O O9 0.042003 0.270966 0.956963
O O10 0.916563 0.156580 0.892596
O O11 0.169391 0.165553 0.029407
O O12 0.000000 0.152282 0.750000
O O13 0.175955 0.057314 0.726191
O O14 0.890522 0.061244 0.623104
O O15 0.362521 0.813087 0.674000
O O16 0.282070 0.918538 0.744632
O O17 0.099686 0.512160 0.623318
#
# Coordination Sequence:
#
# PCOD9258445 Si02
#       8
#     8   8   8   8   8   8   8   8
#     4  10  21  36  59  90 122 162 208 258 312 370
#     4  10  18  33  56  92 120 156 200 258 313 368
#     4  10  21  37  62  89 121 163 212 255 304 372
#     4  12  23  37  59  91 127 168 204 252 321 384
#     4   9  18  32  59  89 119 154 204 257 312 366
#     4  11  21  35  58  92 127 159 202 260 320 380
#     4   9  19  39  61  89 119 162 212 257 302 366
#     4  11  21  35  57  92 127 163 202 261 323 379
#
# _framework density 23.886548000000001
#
# number of rings (size 3 to 8) (size 9 to 14) (size 15 to 20)
#    0.000    1.750    2.500    3.000    0.000    1.000 
#    0.000    4.375    0.000    3.000    9.750    0.000 
#    0.000    0.000    0.000    0.000    0.000    0.000 
#
# Total GULP energy -178412.656761 kJ/mol
# GULP energy per Si atom -5575.395524 kJ/mol
# Density = 2.383218 g / cm^3
# Si number density = 23.886548 Si / 1000 Ang^3
#
#
#
# Elastic Constant Matrix: (Units=GPa)
#
#
# Indices 1 2 3 4 5 6 
#
# 1 61.3468 8.4302 38.8933 0.0000 -13.5667 0.0000
# 2 8.4302 34.7002 21.0873 0.0000 -14.4651 0.0000
# 3 38.8933 21.0873 124.9476 0.0000 -40.2890 0.0000
# 4 0.0000 0.0000 0.0000 17.3637 0.0000 4.9849
# 5 -13.5667 -14.4651 -40.2890 0.0000 65.7581 0.0000
# 6 0.0000 0.0000 0.0000 4.9849 0.0000 19.2699
#
#
#
# Elastic Compliance Matrix: (Units=1/GPa)
#
#
# Indices 1 2 3 4 5 6 
#
# 1 0.020357 -0.001164 -0.006067 0.000000 0.000227 0.000000
# 2 -0.001164 0.033369 -0.003714 0.000000 0.004825 0.000000
# 3 -0.006067 -0.003714 0.012277 0.000000 0.005453 0.000000
# 4 0.000000 0.000000 0.000000 0.062212 0.000000 -0.016094
# 5 0.000227 0.004825 0.005453 0.000000 0.019657 0.000000
# 6 0.000000 0.000000 0.000000 -0.016094 0.000000 0.056058
#
#
# Mechanical properties :
#
#
# Convention : Reuss Voigt Hill
#
# Bulk Modulus (GPa) = 22.66863 39.75734 31.21298
# Shear Modulus (GPa) = 20.78794 30.65060 25.71927
#
# Velocity S-wave (km/s) = 2.95325 3.58603 3.28491
# Velocity P-wave (km/s) = 4.59778 5.81606 5.24243
#
# Compressibility (1/GPa) = 0.04411383
#
# Stress axis : x y z
#
# Youngs Moduli (GPa) = 49.12212 29.96778 81.45239
#
# Poissons Ratio (x) = 0.03489 0.49419
# Poissons Ratio (y) = 0.05719 0.30247
# Poissons Ratio (z) = 0.29804 0.11129
#
# Static dielectric constant tensor:
#      x y z
#    x 1.981090 0.000000 -0.083460 
#    y 0.000000 1.870200 0.000000 
#    z -0.083460 0.000000 2.119960 
# 
# From -- ./inp_files/147168.got.cif
#   From: 2010.05.17/outbox.cif.g08.bks.cpg/sg15_74_cif.got.tgz:147168.got - 2010.06.03 18:47:42.
