data_PCOD9258681
_publ_section_title
;
Structure prediction by ZEFSAII (Michael W. Deem and Ramdas Pophale) SiO2 
 PCOD9258681
Probable space group: C 2/C
;
_chemical_formula_sum "Si O2"
_cell_formula_units_Z 44
_cell_length_a 16.211332
_cell_length_b 16.439825
_cell_length_c 19.609155
_cell_angle_alpha 90.000000
_cell_angle_beta 157.705523
_cell_angle_gamma 90.000000
_cell_volume 1982.596287
_symmetry_space_group_name_H-M "C 2/C"
_symmetry_group_IT_number 15
_symmetry_cell_setting 'monoclinic'
loop_
_space_group_symop_operation_xyz
x,y,z
-x,y,1/2-z
-x,-y,-z
x,-y,1/2+z
1/2+x,1/2+y,z
1/2-x,1/2+y,1/2-z
1/2-x,1/2-y,-z
1/2+x,1/2-y,1/2+z
loop_
_atom_site_type_symbol
_atom_site_label
_atom_site_fract_x
_atom_site_fract_y
_atom_site_fract_z
Si Si1 0.694224 0.480026 0.805648
Si Si2 0.969494 0.211820 0.863036
Si Si3 0.000000 0.894352 0.250000
Si Si4 0.887151 0.363877 0.735011
Si Si5 0.178781 0.031172 0.582103
Si Si6 0.398670 0.885689 0.361149
O O1 0.676229 0.539911 0.857189
O O2 0.457066 0.459589 0.591830
O O3 0.802789 0.537592 0.831103
O O4 0.844921 0.402124 0.935672
O O5 0.022849 0.164634 0.832653
O O6 0.002995 0.308035 0.879545
O O7 0.728065 0.189666 0.702980
O O8 0.143915 0.172234 0.046292
O O9 0.855200 0.459092 0.714615
O O10 0.000000 0.344804 0.750000
O O11 0.306472 0.105327 0.714012
O O12 0.000000 0.000000 0.500000
#
# Coordination Sequence:
#
# PCOD9258681 Si02
#       6
#     8   8   4   8   8   8
#     4   9  18  31  56  76 104 147 185 238 271 320
#     4  11  23  37  50  81 120 157 189 223 287 349
#     4  10  18  34  50  78 122 142 190 226 278 352
#     4  12  24  35  53  83 118 155 183 228 287 344
#     4  10  19  37  55  76 106 148 196 231 268 331
#     4   9  19  36  55  74 105 153 198 232 269 326
#
# _framework density 22.193121999999999
#
# number of rings (size 3 to 8) (size 9 to 14) (size 15 to 20)
#    0.000    1.818    6.364    0.545    2.545    4.364 
#    0.000    0.000    0.000    0.000    0.000    0.000 
#    2.727   16.000    1.091    0.000    0.000    0.000 
#
# Total GULP energy -122614.263894 kJ/mol
# GULP energy per Si atom -5573.375632 kJ/mol
# Density = 2.214261 g / cm^3
# Si number density = 22.193122 Si / 1000 Ang^3
#
#
#
# Elastic Constant Matrix: (Units=GPa)
#
#
# Indices 1 2 3 4 5 6 
#
# 1 35.4655 35.4174 28.3770 0.0031 -3.2410 0.0055
# 2 35.4174 54.2445 32.1024 0.0737 0.0462 0.0257
# 3 28.3770 32.1024 94.0950 0.0373 -3.7830 0.0084
# 4 0.0031 0.0737 0.0373 14.2110 -0.0062 -7.5908
# 5 -3.2410 0.0462 -3.7830 -0.0062 18.0654 -0.0017
# 6 0.0055 0.0257 0.0084 -7.5908 -0.0017 4.8734
#
#
#
# Elastic Compliance Matrix: (Units=1/GPa)
#
#
# Indices 1 2 3 4 5 6 
#
# 1 0.089785 -0.053829 -0.008129 0.002349 0.014544 0.003860
# 2 -0.053829 0.055427 -0.003095 -0.002349 -0.010448 -0.003888
# 3 -0.008129 -0.003095 0.014196 -0.000107 0.001522 -0.000164
# 4 0.002349 -0.002349 -0.000107 0.418988 0.000611 0.652635
# 5 0.014544 -0.010448 0.001522 0.000611 0.058309 0.001008
# 6 0.003860 -0.003888 -0.000164 0.652635 0.001008 1.221773
#
#
# Mechanical properties :
#
#
# Convention : Reuss Voigt Hill
#
# Bulk Modulus (GPa) = 34.12744 41.73319 37.93032
# Shear Modulus (GPa) = 2.50206 13.29050 7.89628
#
# Velocity S-wave (km/s) = 1.06294 2.44981 1.88831
# Velocity P-wave (km/s) = 4.11307 5.18146 4.67786
#
# Compressibility (1/GPa) = 0.02930193
#
# Stress axis : x y z
#
# Youngs Moduli (GPa) = 11.13771 18.04177 70.44126
#
# Poissons Ratio (x) = 0.97118 0.57260
# Poissons Ratio (y) = 0.59953 0.21802
# Poissons Ratio (z) = 0.09054 0.05584
#
# Static dielectric constant tensor:
#      x y z
#    x 1.843220 -0.000020 0.019600 
#    y -0.000020 1.818160 -0.000050 
#    z 0.019600 -0.000050 2.022350 
# 
# From -- ./inp_files/249682.got.cif
#   From: 2010.05.17/outbox.cif.g08.bks.cpg/sg15_125_cif.got.tgz:249682.got - 2010.06.03 18:47:42.
