data_PCOD9258334
_publ_section_title
;
Structure prediction by ZEFSAII (Michael W. Deem and Ramdas Pophale) SiO2 
 PCOD9258334
Probable space group: C 2/C
;
_chemical_formula_sum "Si O2"
_cell_formula_units_Z 64
_cell_length_a 22.812551
_cell_length_b 9.591465
_cell_length_c 21.495299
_cell_angle_alpha 90.000000
_cell_angle_beta 130.780291
_cell_angle_gamma 90.000000
_cell_volume 3561.428576
_symmetry_space_group_name_H-M "C 2/C"
_symmetry_group_IT_number 15
_symmetry_cell_setting 'monoclinic'
loop_
_space_group_symop_operation_xyz
x,y,z
-x,y,1/2-z
-x,-y,-z
x,-y,1/2+z
1/2+x,1/2+y,z
1/2-x,1/2+y,1/2-z
1/2-x,1/2-y,-z
1/2+x,1/2-y,1/2+z
loop_
_atom_site_type_symbol
_atom_site_label
_atom_site_fract_x
_atom_site_fract_y
_atom_site_fract_z
Si Si1 0.670118 0.688446 0.608512
Si Si2 0.920198 0.770131 0.233210
Si Si3 0.806792 0.863915 0.512686
Si Si4 0.311014 0.374220 0.856010
Si Si5 0.761952 0.658852 0.069164
Si Si6 0.910993 0.089013 0.205243
Si Si7 0.646855 0.202306 0.729905
Si Si8 0.369238 0.112555 0.311938
O O1 0.655425 0.693209 0.524638
O O2 0.652742 0.528892 0.616601
O O3 0.762905 0.695353 0.685835
O O4 0.630355 0.811575 0.620559
O O5 0.849359 0.687889 0.151656
O O6 0.922005 0.704576 0.302861
O O7 0.000000 0.758900 0.250000
O O8 0.897002 0.932913 0.221495
O O9 0.750000 0.750000 0.500000
O O10 0.864196 0.900016 0.608401
O O11 0.756752 0.999004 0.459044
O O12 0.298189 0.310378 0.915982
O O13 0.355620 0.283415 0.837021
O O14 0.221877 0.379648 0.770338
O O15 0.750000 0.750000 0.000000
O O16 0.891243 0.207693 0.241654
O O17 0.000000 0.100013 0.250000
O O18 0.613836 0.049222 0.691179
#
# Coordination Sequence:
#
# PCOD9258334 Si02
#       8
#     8   8   8   8   8   8   8   8
#     4   9  17  32  54  79 110 142 185 233 276 327
#     4  10  21  37  57  82 115 151 190 227 282 339
#     4  11  21  36  57  86 116 146 187 233 287 328
#     4   8  17  29  51  79 107 138 183 230 275 323
#     4  10  19  35  57  85 113 144 187 235 276 330
#     4  11  23  37  57  81 116 153 187 228 281 345
#     4  10  18  33  54  82 111 142 189 232 277 331
#     4   9  18  31  53  81 106 143 188 231 278 326
#
# _framework density 17.970317000000001
#
# number of rings (size 3 to 8) (size 9 to 14) (size 15 to 20)
#    0.000    2.250    2.500    1.500    0.000    4.500 
#    0.000    0.000    2.750    3.750    0.000    0.000 
#    0.000    0.000    0.000    0.000    0.000    0.000 
#
# Total GULP energy -178212.386942 kJ/mol
# GULP energy per Si atom -5569.137092 kJ/mol
# Density = 1.792942 g / cm^3
# Si number density = 17.970317 Si / 1000 Ang^3
#
#
#
# Elastic Constant Matrix: (Units=GPa)
#
#
# Indices 1 2 3 4 5 6 
#
# 1 74.2354 71.2086 42.3321 0.0000 -28.7676 0.0000
# 2 71.2086 124.1508 56.0474 0.0000 -31.5005 0.0000
# 3 42.3321 56.0474 50.3049 0.0000 -25.5959 0.0000
# 4 0.0000 0.0000 0.0000 16.9232 0.0000 -16.1755
# 5 -28.7676 -31.5005 -25.5959 0.0000 36.4042 0.0000
# 6 0.0000 0.0000 0.0000 -16.1755 0.0000 28.3410
#
#
#
# Elastic Compliance Matrix: (Units=1/GPa)
#
#
# Indices 1 2 3 4 5 6 
#
# 1 0.036154 -0.013631 -0.010434 0.000000 0.009438 0.000000
# 2 -0.013631 0.021446 -0.013176 0.000000 -0.001478 0.000000
# 3 -0.010434 -0.013176 0.051915 0.000000 0.016856 0.000000
# 4 0.000000 0.000000 0.000000 0.130021 0.000000 0.074209
# 5 0.009438 -0.001478 0.016856 0.000000 0.045500 0.000000
# 6 0.000000 0.000000 0.000000 0.074209 0.000000 0.077639
#
#
# Mechanical properties :
#
#
# Convention : Reuss Voigt Hill
#
# Bulk Modulus (GPa) = 28.54434 65.31858 46.93146
# Shear Modulus (GPa) = 11.13998 21.60720 16.37359
#
# Velocity S-wave (km/s) = 2.49250 3.47130 3.02180
# Velocity P-wave (km/s) = 4.91956 7.24524 6.19256
#
# Compressibility (1/GPa) = 0.03503322
#
# Stress axis : x y z
#
# Youngs Moduli (GPa) = 27.65977 46.62840 19.26228
#
# Poissons Ratio (x) = 0.63561 0.20098
# Poissons Ratio (y) = 0.37704 0.25379
# Poissons Ratio (z) = 0.28860 0.61436
#
# Static dielectric constant tensor:
#      x y z
#    x 1.601920 0.000000 -0.020970 
#    y 0.000000 1.634030 0.000000 
#    z -0.020970 0.000000 1.635480 
# 
# From -- ./inp_files/255050.got.cif
#   From: 2010.05.17/outbox.cif.g08.bks.cpg/sg15_128_cif.got.tgz:255050.got - 2010.06.03 18:47:42.
