data_PCOD9258255
_publ_section_title
;
Structure prediction by ZEFSAII (Michael W. Deem and Ramdas Pophale) SiO2 
 PCOD9258255
Probable space group: C 2/C
;
_chemical_formula_sum "Si O2"
_cell_formula_units_Z 60
_cell_length_a 18.300144
_cell_length_b 15.134019
_cell_length_c 11.456586
_cell_angle_alpha 90.000000
_cell_angle_beta 127.687868
_cell_angle_gamma 90.000000
_cell_volume 2510.927977
_symmetry_space_group_name_H-M "C 2/C"
_symmetry_group_IT_number 15
_symmetry_cell_setting 'monoclinic'
loop_
_space_group_symop_operation_xyz
x,y,z
-x,y,1/2-z
-x,-y,-z
x,-y,1/2+z
1/2+x,1/2+y,z
1/2-x,1/2+y,1/2-z
1/2-x,1/2-y,-z
1/2+x,1/2-y,1/2+z
loop_
_atom_site_type_symbol
_atom_site_label
_atom_site_fract_x
_atom_site_fract_y
_atom_site_fract_z
Si Si1 0.095696 0.180393 0.199613
Si Si2 0.423444 0.013857 0.276487
Si Si3 0.905231 0.032397 0.469438
Si Si4 0.659745 0.278043 0.260560
Si Si5 0.876053 0.844304 0.516346
Si Si6 0.058500 0.359143 0.022250
Si Si7 0.500000 0.653087 0.750000
Si Si8 0.794160 0.624491 0.031817
O O1 0.138248 0.101558 0.163750
O O2 0.145295 0.184304 0.373117
O O3 0.083150 0.271134 0.117305
O O4 0.987810 0.157343 0.117078
O O5 0.500000 0.992773 0.250000
O O6 0.459786 0.102910 0.378963
O O7 0.326442 0.034179 0.120699
O O8 0.414854 0.937851 0.363022
O O9 0.934906 0.090369 0.609584
O O10 0.852517 0.945027 0.458701
O O11 0.000000 0.000000 0.500000
O O12 0.557450 0.288704 0.214160
O O13 0.709769 0.365273 0.361921
O O14 0.712316 0.196935 0.371835
O O15 0.660367 0.281822 0.122531
O O16 0.119110 0.352288 0.965498
#
# Coordination Sequence:
#
# PCOD9258255 Si02
#       8
#     8   8   8   8   8   8   4   8
#     4  10  19  33  58  90 118 158 205 257 308 362
#     4   9  20  37  66  95 125 158 211 264 307 376
#     4  10  18  33  52  87 123 149 202 247 296 355
#     4  11  23  39  62  88 122 159 209 256 307 376
#     4  10  21  34  54  90 124 153 198 260 302 366
#     4  10  20  39  64  93 121 163 210 256 317 372
#     4  12  20  34  62  88 112 162 200 248 294 364
#     4  10  23  42  59  90 124 162 205 257 317 377
#
# _framework density 23.895548000000002
#
# number of rings (size 3 to 8) (size 9 to 14) (size 15 to 20)
#    0.000    1.867    2.667    3.200    4.667    0.000 
#    4.800    0.667    0.000    0.000    0.000    0.000 
#    0.000    0.000    0.000    0.000    0.000    0.000 
#
# Total GULP energy -167557.351333 kJ/mol
# GULP energy per Si atom -5585.245044 kJ/mol
# Density = 2.384116 g / cm^3
# Si number density = 23.895548 Si / 1000 Ang^3
#
#
#
# Elastic Constant Matrix: (Units=GPa)
#
#
# Indices 1 2 3 4 5 6 
#
# 1 43.5779 21.4103 23.7069 0.0000 -12.6013 0.0000
# 2 21.4103 97.0237 28.9880 0.0000 -27.4027 0.0000
# 3 23.7069 28.9880 150.9036 0.0000 -44.6394 0.0000
# 4 0.0000 0.0000 0.0000 38.6569 0.0000 -8.2542
# 5 -12.6013 -27.4027 -44.6394 0.0000 38.8791 0.0000
# 6 0.0000 0.0000 0.0000 -8.2542 0.0000 18.2651
#
#
#
# Elastic Compliance Matrix: (Units=1/GPa)
#
#
# Indices 1 2 3 4 5 6 
#
# 1 0.027367 -0.004497 -0.002649 0.000000 0.002659 0.000000
# 2 -0.004497 0.013617 0.000755 0.000000 0.009007 0.000000
# 3 -0.002649 0.000755 0.010299 0.000000 0.011499 0.000000
# 4 0.000000 0.000000 0.000000 0.028631 0.000000 0.012939
# 5 0.002659 0.009007 0.011499 0.000000 0.046134 0.000000
# 6 0.000000 0.000000 0.000000 0.012939 0.000000 0.060596
#
#
# Mechanical properties :
#
#
# Convention : Reuss Voigt Hill
#
# Bulk Modulus (GPa) = 25.97215 48.85729 37.41472
# Shear Modulus (GPa) = 23.55604 33.65357 28.60481
#
# Velocity S-wave (km/s) = 3.14314 3.75689 3.46363
# Velocity P-wave (km/s) = 4.90562 6.26973 5.62915
#
# Compressibility (1/GPa) = 0.03850278
#
# Stress axis : x y z
#
# Youngs Moduli (GPa) = 36.54088 73.43550 97.09320
#
# Poissons Ratio (x) = 0.33020 0.25718
# Poissons Ratio (y) = 0.16431 -0.07331
# Poissons Ratio (z) = 0.09679 -0.05545
#
# Static dielectric constant tensor:
#      x y z
#    x 1.946490 0.000000 0.051990 
#    y 0.000000 1.931370 0.000000 
#    z 0.051990 0.000000 1.910800 
# 
# From -- ./inp_files/118793.got.cif
#   From: 2010.05.17/outbox.cif.g08.bks.cpg/sg15_60_cif.got.tgz:118793.got - 2010.06.03 18:47:42.
