data_PCOD9258457
_publ_section_title
;
Structure prediction by ZEFSAII (Michael W. Deem and Ramdas Pophale) SiO2 
 PCOD9258457
Probable space group: C 2/C
;
_chemical_formula_sum "Si O2"
_cell_formula_units_Z 48
_cell_length_a 8.043129
_cell_length_b 19.577503
_cell_length_c 13.891480
_cell_angle_alpha 90.000000
_cell_angle_beta 113.543528
_cell_angle_gamma 90.000000
_cell_volume 2005.326200
_symmetry_space_group_name_H-M "C 2/C"
_symmetry_group_IT_number 15
_symmetry_cell_setting 'monoclinic'
loop_
_space_group_symop_operation_xyz
x,y,z
-x,y,1/2-z
-x,-y,-z
x,-y,1/2+z
1/2+x,1/2+y,z
1/2-x,1/2+y,1/2-z
1/2-x,1/2-y,-z
1/2+x,1/2-y,1/2+z
loop_
_atom_site_type_symbol
_atom_site_label
_atom_site_fract_x
_atom_site_fract_y
_atom_site_fract_z
Si Si1 0.193433 0.467331 0.067848
Si Si2 0.004726 0.927750 0.868150
Si Si3 0.067491 0.227635 0.377848
Si Si4 0.282174 0.030022 0.700128
Si Si5 0.241462 0.316549 0.109980
Si Si6 0.137275 0.824182 0.137514
O O1 0.349414 0.516259 0.063751
O O2 0.249256 0.466383 0.192970
O O3 0.182684 0.387133 0.045550
O O4 0.000000 0.500000 0.000000
O O5 0.061982 0.851402 0.909229
O O6 0.000000 0.925216 0.750000
O O7 0.809057 0.958627 0.853342
O O8 0.247193 0.273341 0.402620
O O9 0.000000 0.225647 0.250000
O O10 0.927619 0.267288 0.413834
O O11 0.500000 0.033104 0.750000
O O12 0.186894 0.095870 0.629736
O O13 0.428511 0.301481 0.098243
O O14 0.297299 0.321841 0.235668
#
# Coordination Sequence:
#
# PCOD9258457 Si02
#       6
#     8   8   8   8   8   8
#     4  10  19  34  55  78 108 145 177 217 273 322
#     4   9  18  34  51  77 110 136 172 224 270 311
#     4   9  17  30  49  78 106 133 175 226 269 309
#     4  10  18  33  57  81 105 137 184 226 261 314
#     4   9  16  29  50  73 101 137 178 211 262 321
#     4   9  15  28  52  77 100 132 176 226 255 307
#
# _framework density 23.936254999999999
#
# number of rings (size 3 to 8) (size 9 to 14) (size 15 to 20)
#    0.000    2.667    1.667    2.500    0.000    0.000 
#   12.000    1.667    0.000    1.000    0.000    0.000 
#    0.000    0.000    0.000    0.000    0.000    0.000 
#
# Total GULP energy -133853.746995 kJ/mol
# GULP energy per Si atom -5577.239458 kJ/mol
# Density = 2.388177 g / cm^3
# Si number density = 23.936255 Si / 1000 Ang^3
#
#
#
# Elastic Constant Matrix: (Units=GPa)
#
#
# Indices 1 2 3 4 5 6 
#
# 1 168.0961 131.1306 45.5233 0.0000 20.4356 0.0000
# 2 131.1306 194.7816 54.0492 0.0000 2.0701 0.0000
# 3 45.5233 54.0492 82.5334 0.0000 -2.3102 0.0000
# 4 0.0000 0.0000 0.0000 33.0534 0.0000 4.7164
# 5 20.4356 2.0701 -2.3102 0.0000 33.4620 0.0000
# 6 0.0000 0.0000 0.0000 4.7164 0.0000 24.0867
#
#
#
# Elastic Compliance Matrix: (Units=1/GPa)
#
#
# Indices 1 2 3 4 5 6 
#
# 1 0.014871 -0.009258 -0.002382 0.000000 -0.008673 0.000000
# 2 -0.009258 0.012053 -0.002654 0.000000 0.004725 0.000000
# 3 -0.002382 -0.002654 0.015243 0.000000 0.002671 0.000000
# 4 0.000000 0.000000 0.000000 0.031124 0.000000 -0.006094
# 5 -0.008673 0.004725 0.002671 0.000000 0.035074 0.000000
# 6 0.000000 0.000000 0.000000 -0.006094 0.000000 0.042710
#
#
# Mechanical properties :
#
#
# Convention : Reuss Voigt Hill
#
# Bulk Modulus (GPa) = 73.65032 100.75748 87.20390
# Shear Modulus (GPa) = 27.14597 32.43431 29.79014
#
# Velocity S-wave (km/s) = 3.37128 3.68507 3.53166
# Velocity P-wave (km/s) = 6.78161 7.76478 7.28979
#
# Compressibility (1/GPa) = 0.01357767
#
# Stress axis : x y z
#
# Youngs Moduli (GPa) = 67.24667 82.96720 65.60217
#
# Poissons Ratio (x) = 0.76811 0.15628
# Poissons Ratio (y) = 0.62257 0.17414
# Poissons Ratio (z) = 0.16020 0.22023
#
# Static dielectric constant tensor:
#      x y z
#    x 1.875730 0.000000 -0.047650 
#    y 0.000000 1.922140 0.000000 
#    z -0.047650 0.000000 2.032000 
# 
# From -- ./inp_files/190650.got.cif
#   From: 2010.05.17/outbox.cif.g08.bks.cpg/sg15_96_cif.got.tgz:190650.got - 2010.06.03 18:47:42.
