data_PCOD9258657
_publ_section_title
;
Structure prediction by ZEFSAII (Michael W. Deem and Ramdas Pophale) SiO2 
 PCOD9258657
Probable space group: C 2/C
;
_chemical_formula_sum "Si O2"
_cell_formula_units_Z 52
_cell_length_a 18.110701
_cell_length_b 14.282575
_cell_length_c 14.854007
_cell_angle_alpha 90.000000
_cell_angle_beta 137.398084
_cell_angle_gamma 90.000000
_cell_volume 2600.819948
_symmetry_space_group_name_H-M "C 2/C"
_symmetry_group_IT_number 15
_symmetry_cell_setting 'monoclinic'
loop_
_space_group_symop_operation_xyz
x,y,z
-x,y,1/2-z
-x,-y,-z
x,-y,1/2+z
1/2+x,1/2+y,z
1/2-x,1/2+y,1/2-z
1/2-x,1/2-y,-z
1/2+x,1/2-y,1/2+z
loop_
_atom_site_type_symbol
_atom_site_label
_atom_site_fract_x
_atom_site_fract_y
_atom_site_fract_z
Si Si1 0.713428 0.078919 0.657135
Si Si2 0.756102 0.975771 0.511696
Si Si3 0.542188 0.414083 0.097335
Si Si4 0.390941 0.039009 0.283641
Si Si5 0.008524 0.705422 0.479041
Si Si6 0.944753 0.367906 0.112827
Si Si7 0.000000 0.996128 0.750000
O O1 0.736931 0.047521 0.576803
O O2 0.829481 0.099621 0.805190
O O3 0.629650 0.163464 0.586066
O O4 0.655777 0.996955 0.662914
O O5 0.703838 0.022957 0.375414
O O6 0.883376 0.947827 0.623463
O O7 0.678173 0.890233 0.469271
O O8 0.487174 0.314932 0.032801
O O9 0.523311 0.442740 0.183162
O O10 0.500000 0.500000 0.000000
O O11 0.439697 0.142123 0.345507
O O12 0.488249 0.966628 0.343166
O O13 0.958687 0.686997 0.533144
O O14 0.000000 0.322291 0.250000
#
# Coordination Sequence:
#
# PCOD9258657 Si02
#       7
#     8   8   8   8   8   8   4
#     4  10  20  38  61  90 126 159 208 263 315 377
#     4  10  18  34  62  91 127 163 203 252 320 370
#     4  11  26  44  60  85 133 176 211 259 318 380
#     4  10  18  33  65  93 121 154 206 266 322 363
#     4  11  21  39  64  98 123 161 221 260 319 371
#     4   9  17  34  64  99 122 152 204 273 318 363
#     4  10  24  42  58  84 128 182 210 238 318 400
#
# _framework density 19.993694000000001
#
# number of rings (size 3 to 8) (size 9 to 14) (size 15 to 20)
#    0.000    1.846    3.077    1.846    0.000    3.692 
#    1.385    3.077    0.000    3.692    0.000    0.000 
#    0.000    0.000    0.000    0.000    0.000    0.000 
#
# Total GULP energy -145055.281531 kJ/mol
# GULP energy per Si atom -5579.049290 kJ/mol
# Density = 1.994819 g / cm^3
# Si number density = 19.993694 Si / 1000 Ang^3
#
#
#
# Elastic Constant Matrix: (Units=GPa)
#
#
# Indices 1 2 3 4 5 6 
#
# 1 88.4191 7.9327 48.7133 0.0000 11.8432 0.0000
# 2 7.9327 50.4268 27.9517 0.0000 2.3890 0.0000
# 3 48.7133 27.9517 133.8068 0.0000 15.2327 0.0000
# 4 0.0000 0.0000 0.0000 12.6854 0.0000 -0.5572
# 5 11.8432 2.3890 15.2327 0.0000 55.7323 0.0000
# 6 0.0000 0.0000 0.0000 -0.5572 0.0000 5.2615
#
#
#
# Elastic Compliance Matrix: (Units=1/GPa)
#
#
# Indices 1 2 3 4 5 6 
#
# 1 0.014317 0.000691 -0.005168 0.000000 -0.001660 0.000000
# 2 0.000691 0.022467 -0.004973 0.000000 0.000249 0.000000
# 3 -0.005168 -0.004973 0.010573 0.000000 -0.001579 0.000000
# 4 0.000000 0.000000 0.000000 0.079199 0.000000 0.008387
# 5 -0.001660 0.000249 -0.001579 0.000000 0.018716 0.000000
# 6 0.000000 0.000000 0.000000 0.008387 0.000000 0.190950
#
#
# Mechanical properties :
#
#
# Convention : Reuss Voigt Hill
#
# Bulk Modulus (GPa) = 35.14017 49.09424 42.11720
# Shear Modulus (GPa) = 13.71336 27.27283 20.49310
#
# Velocity S-wave (km/s) = 2.62178 3.69734 3.20500
# Velocity P-wave (km/s) = 5.17482 6.54487 5.89975
#
# Compressibility (1/GPa) = 0.02845746
#
# Stress axis : x y z
#
# Youngs Moduli (GPa) = 69.84641 44.50996 94.57744
#
# Poissons Ratio (x) = -0.03075 0.48874
# Poissons Ratio (y) = -0.04825 0.47035
# Poissons Ratio (z) = 0.36094 0.22135
#
# Static dielectric constant tensor:
#      x y z
#    x 1.703060 0.000000 0.018910 
#    y 0.000000 1.676660 0.000000 
#    z 0.018910 0.000000 1.771840 
# 
# From -- ./inp_files/162618.got.cif
#   From: 2010.05.17/outbox.cif.g08.bks.cpg/sg15_82_cif.got.tgz:162618.got - 2010.06.03 18:47:42.
