data_PCOD9258554
_publ_section_title
;
Structure prediction by ZEFSAII (Michael W. Deem and Ramdas Pophale) SiO2 
 PCOD9258554
Probable space group: C 2/C
;
_chemical_formula_sum "Si O2"
_cell_formula_units_Z 56
_cell_length_a 16.679049
_cell_length_b 26.961886
_cell_length_c 8.930205
_cell_angle_alpha 90.000000
_cell_angle_beta 140.729393
_cell_angle_gamma 90.000000
_cell_volume 2542.000200
_symmetry_space_group_name_H-M "C 2/C"
_symmetry_group_IT_number 15
_symmetry_cell_setting 'monoclinic'
loop_
_space_group_symop_operation_xyz
x,y,z
-x,y,1/2-z
-x,-y,-z
x,-y,1/2+z
1/2+x,1/2+y,z
1/2-x,1/2+y,1/2-z
1/2-x,1/2-y,-z
1/2+x,1/2-y,1/2+z
loop_
_atom_site_type_symbol
_atom_site_label
_atom_site_fract_x
_atom_site_fract_y
_atom_site_fract_z
Si Si1 0.789905 0.301985 0.131104
Si Si2 0.912805 0.454541 0.425208
Si Si3 0.740237 0.005076 0.522396
Si Si4 0.351898 0.757340 0.512632
Si Si5 0.885340 0.048897 0.481480
Si Si6 0.317247 0.345520 0.799679
Si Si7 0.028918 0.365246 0.451881
O O1 0.782984 0.295279 0.298216
O O2 0.935850 0.317868 0.315071
O O3 0.750000 0.250000 0.000000
O O4 0.705333 0.339477 0.911486
O O5 0.856192 0.469114 0.502729
O O6 0.000000 0.500000 0.500000
O O7 0.982407 0.402428 0.512099
O O8 0.806463 0.457630 0.140539
O O9 0.772175 0.043715 0.437976
O O10 0.850310 0.985463 0.791205
O O11 0.500000 0.773541 0.750000
O O12 0.250000 0.750000 0.500000
O O13 0.367046 0.704744 0.446873
O O14 0.897181 0.105665 0.449573
O O15 0.000000 0.031752 0.750000
O O16 0.175695 0.352309 0.663510
O O17 0.000000 0.391479 0.250000
#
# Coordination Sequence:
#
# PCOD9258554 Si02
#       7
#     8   8   8   8   8   8   8
#     4   9  20  38  60  87 118 159 205 253 315 385
#     4  11  20  34  56  88 126 164 204 255 317 384
#     4  10  22  36  56  86 121 163 210 258 314 383
#     4  11  23  41  64  93 127 164 209 266 326 384
#     4  11  22  40  61  85 120 166 214 265 320 380
#     4  10  21  38  61  88 121 164 211 259 317 388
#     4  10  18  33  59  87 118 158 205 258 315 380
#
# _framework density 22.029896000000001
#
# number of rings (size 3 to 8) (size 9 to 14) (size 15 to 20)
#    0.000    1.714    0.000    6.429    0.000    2.286 
#    0.000    5.000    0.000    5.143    0.000    0.000 
#    0.000    0.000    0.000    0.000    0.000    0.000 
#
# Total GULP energy -156133.464840 kJ/mol
# GULP energy per Si atom -5576.195173 kJ/mol
# Density = 2.197976 g / cm^3
# Si number density = 22.029896 Si / 1000 Ang^3
#
#
#
# Elastic Constant Matrix: (Units=GPa)
#
#
# Indices 1 2 3 4 5 6 
#
# 1 98.3168 6.4301 19.5983 0.0000 -29.6424 0.0000
# 2 6.4301 65.5533 10.1333 0.0000 -10.1650 0.0000
# 3 19.5983 10.1333 110.1448 0.0000 -18.2895 0.0000
# 4 0.0000 0.0000 0.0000 24.9214 0.0000 -2.8495
# 5 -29.6424 -10.1650 -18.2895 0.0000 34.6262 0.0000
# 6 0.0000 0.0000 0.0000 -2.8495 0.0000 29.0328
#
#
#
# Elastic Compliance Matrix: (Units=1/GPa)
#
#
# Indices 1 2 3 4 5 6 
#
# 1 0.013757 0.000543 -0.000565 0.000000 0.011638 0.000000
# 2 0.000543 0.016062 -0.000783 0.000000 0.004766 0.000000
# 3 -0.000565 -0.000783 0.010011 0.000000 0.004574 0.000000
# 4 0.000000 0.000000 0.000000 0.040582 0.000000 0.003983
# 5 0.011638 0.004766 0.004574 0.000000 0.042658 0.000000
# 6 0.000000 0.000000 0.000000 0.003983 0.000000 0.034835
#
#
# Mechanical properties :
#
#
# Convention : Reuss Voigt Hill
#
# Bulk Modulus (GPa) = 26.16518 38.48204 32.32361
# Shear Modulus (GPa) = 29.02682 33.57297 31.29989
#
# Velocity S-wave (km/s) = 3.63383 3.90804 3.77343
# Velocity P-wave (km/s) = 5.43224 6.15384 5.80426
#
# Compressibility (1/GPa) = 0.03821873
#
# Stress axis : x y z
#
# Youngs Moduli (GPa) = 72.68933 62.26028 99.88924
#
# Poissons Ratio (x) = -0.03378 0.05647
# Poissons Ratio (y) = -0.03944 0.07819
# Poissons Ratio (z) = 0.04109 0.04874
#
# Static dielectric constant tensor:
#      x y z
#    x 1.835140 0.000000 0.035890 
#    y 0.000000 1.811580 0.000000 
#    z 0.035890 0.000000 1.924290 
# 
# From -- ./inp_files/34307.got.cif
#   From: 2010.05.17/outbox.cif.g08.bks.cpg/sg15_18_cif.got.tgz:34307.got - 2010.06.03 18:47:42.
