data_PCOD9258098
_publ_section_title
;
Structure prediction by ZEFSAII (Michael W. Deem and Ramdas Pophale) SiO2 
 PCOD9258098
Probable space group: C 2/C
;
_chemical_formula_sum "Si O2"
_cell_formula_units_Z 56
_cell_length_a 22.539580
_cell_length_b 19.352447
_cell_length_c 19.488036
_cell_angle_alpha 90.000000
_cell_angle_beta 19.006223
_cell_angle_gamma 90.000000
_cell_volume 2768.398867
_symmetry_space_group_name_H-M "C 2/C"
_symmetry_group_IT_number 15
_symmetry_cell_setting 'monoclinic'
loop_
_space_group_symop_operation_xyz
x,y,z
-x,y,1/2-z
-x,-y,-z
x,-y,1/2+z
1/2+x,1/2+y,z
1/2-x,1/2+y,1/2-z
1/2-x,1/2-y,-z
1/2+x,1/2-y,1/2+z
loop_
_atom_site_type_symbol
_atom_site_label
_atom_site_fract_x
_atom_site_fract_y
_atom_site_fract_z
Si Si1 0.066148 0.090338 0.256438
Si Si2 0.152674 0.343681 0.965982
Si Si3 0.823084 0.859279 0.641719
Si Si4 0.236132 0.317186 0.168639
Si Si5 0.482181 0.566097 0.687627
Si Si6 0.310923 0.812547 0.984408
Si Si7 0.213048 0.786004 0.237028
O O1 0.263798 0.122356 0.057150
O O2 0.000000 0.092304 0.250000
O O3 0.913570 0.136803 0.460540
O O4 0.067479 0.011211 0.280456
O O5 0.249858 0.384037 0.795643
O O6 0.218886 0.263558 0.894607
O O7 0.937713 0.341492 0.185257
O O8 0.689517 0.795520 0.773149
O O9 0.855048 0.908174 0.540922
O O10 0.019960 0.823447 0.438647
O O11 0.203524 0.318923 0.285965
O O12 0.500000 0.559981 0.750000
O O13 0.332991 0.626636 0.849204
O O14 0.500000 0.840301 0.750000
O O15 0.250000 0.750000 0.000000
O O16 0.335401 0.787323 0.035284
#
# Coordination Sequence:
#
# PCOD9258098 Si02
#       7
#     8   8   8   8   8   8   8
#     4  11  25  46  63  88 131 167 207 268 326 385
#     4  11  21  40  68  95 121 158 212 266 324 381
#     4  10  18  34  61  89 124 164 202 261 311 376
#     4  11  21  41  66  96 124 158 212 270 320 376
#     4  10  23  41  59  87 132 174 204 258 326 373
#     4  11  21  36  62  96 129 171 219 257 305 378
#     4  10  18  32  59  93 125 160 207 267 313 355
#
# _framework density 20.228299
#
# number of rings (size 3 to 8) (size 9 to 14) (size 15 to 20)
#    0.000    1.429    2.857    5.571    0.000    2.857 
#    5.143    0.714    0.000    0.000    0.000    0.000 
#    0.000    0.000    0.000    0.000    0.000    0.000 
#
# Total GULP energy -155998.349969 kJ/mol
# GULP energy per Si atom -5571.369642 kJ/mol
# Density = 2.018226 g / cm^3
# Si number density = 20.228299 Si / 1000 Ang^3
#
#
#
# Elastic Constant Matrix: (Units=GPa)
#
#
# Indices 1 2 3 4 5 6 
#
# 1 81.4323 34.3540 4.7588 -0.0009 -6.7272 0.0022
# 2 34.3540 88.1844 17.2543 -0.0216 -1.3749 0.0185
# 3 4.7588 17.2543 59.0630 -0.0283 -12.5866 -0.0073
# 4 -0.0009 -0.0216 -0.0283 11.4480 0.0039 0.6002
# 5 -6.7272 -1.3749 -12.5866 0.0039 34.4237 -0.0026
# 6 0.0022 0.0185 -0.0073 0.6002 -0.0026 23.2571
#
#
#
# Elastic Compliance Matrix: (Units=1/GPa)
#
#
# Indices 1 2 3 4 5 6 
#
# 1 0.015016 -0.006040 0.001224 -0.000008 0.003141 0.000004
# 2 -0.006040 0.014481 -0.004199 0.000018 -0.002138 -0.000013
# 3 0.001224 -0.004199 0.019602 0.000038 0.007239 0.000009
# 4 -0.000008 0.000018 0.000038 0.087470 0.000003 -0.002257
# 5 0.003141 -0.002138 0.007239 0.000003 0.032225 0.000007
# 6 0.000004 -0.000013 0.000009 -0.002257 0.000007 0.043056
#
#
# Mechanical properties :
#
#
# Convention : Reuss Voigt Hill
#
# Bulk Modulus (GPa) = 32.18729 37.93488 35.06108
# Shear Modulus (GPa) = 20.81274 25.31328 23.06301
#
# Velocity S-wave (km/s) = 3.21111 3.54132 3.38025
# Velocity P-wave (km/s) = 5.44930 5.95948 5.71009
#
# Compressibility (1/GPa) = 0.03106816
#
# Stress axis : x y z
#
# Youngs Moduli (GPa) = 66.59401 69.05419 51.01560
#
# Poissons Ratio (x) = 0.41712 -0.06245
# Poissons Ratio (y) = 0.40226 0.21423
# Poissons Ratio (z) = -0.08152 0.28998
#
# Static dielectric constant tensor:
#      x y z
#    x 2.163930 -0.000200 0.099100 
#    y -0.000200 1.751370 -0.000010 
#    z 0.099100 -0.000010 1.762050 
# 
# From -- ./inp_files/255901.got.cif
#   From: 2010.05.17/outbox.cif.g08.bks.cpg/sg15_128_cif.got.tgz:255901.got - 2010.06.03 18:47:42.
