data_PCOD9258427
_publ_section_title
;
Structure prediction by ZEFSAII (Michael W. Deem and Ramdas Pophale) SiO2 
 PCOD9258427
Probable space group: C 2/C
;
_chemical_formula_sum "Si O2"
_cell_formula_units_Z 64
_cell_length_a 13.284932
_cell_length_b 19.216835
_cell_length_c 13.914852
_cell_angle_alpha 90.000000
_cell_angle_beta 66.179829
_cell_angle_gamma 90.000000
_cell_volume 3249.782328
_symmetry_space_group_name_H-M "C 2/C"
_symmetry_group_IT_number 15
_symmetry_cell_setting 'monoclinic'
loop_
_space_group_symop_operation_xyz
x,y,z
-x,y,1/2-z
-x,-y,-z
x,-y,1/2+z
1/2+x,1/2+y,z
1/2-x,1/2+y,1/2-z
1/2-x,1/2-y,-z
1/2+x,1/2-y,1/2+z
loop_
_atom_site_type_symbol
_atom_site_label
_atom_site_fract_x
_atom_site_fract_y
_atom_site_fract_z
Si Si1 0.345166 0.338635 0.377329
Si Si2 0.620429 0.976940 0.986469
Si Si3 0.046688 0.195874 0.461825
Si Si4 0.082957 0.330296 0.945245
Si Si5 0.133508 0.614020 0.078010
Si Si6 0.338291 0.492035 0.310135
Si Si7 0.788876 0.704289 0.284399
Si Si8 0.502820 0.453188 0.592844
O O1 0.423380 0.320997 0.437727
O O2 0.225515 0.350144 0.473601
O O3 0.366648 0.410501 0.313046
O O4 0.343037 0.274480 0.305602
O O5 0.647611 0.031040 0.061186
O O6 0.617914 0.894122 0.000125
O O7 0.709051 0.994876 0.869537
O O8 0.500000 0.000000 0.000000
O O9 0.161055 0.208444 0.361630
O O10 0.968917 0.262607 0.486062
O O11 0.996134 0.126669 0.436708
O O12 0.181596 0.308033 0.837035
O O13 0.984132 0.360472 0.915554
O O14 0.159605 0.641556 0.173106
O O15 0.393718 0.528007 0.381256
O O16 0.395728 0.526088 0.196615
O O17 0.500000 0.500000 0.500000
#
# Coordination Sequence:
#
# PCOD9258427 Si02
#       8
#     8   8   8   8   8   8   8   8
#     4  10  18  33  56  84 122 143 180 249 312 346
#     4   9  20  38  59  83 115 158 197 242 295 355
#     4  11  21  36  53  88 121 147 192 248 294 360
#     4  11  20  32  55  86 112 149 196 236 294 360
#     4   9  17  33  51  80 114 148 180 232 298 351
#     4  10  22  40  62  86 121 159 202 245 297 357
#     4  11  20  31  56  88 117 146 184 246 316 349
#     4  11  23  38  59  89 121 161 199 241 299 363
#
# _framework density 19.693625999999998
#
# number of rings (size 3 to 8) (size 9 to 14) (size 15 to 20)
#    0.000    1.750    3.750    1.875    1.750    0.000 
#    0.000    0.625    0.000    0.000   19.500    0.000 
#    0.000    0.000    0.000    0.000    0.000    0.000 
#
# Total GULP energy -178705.006342 kJ/mol
# GULP energy per Si atom -5584.531448 kJ/mol
# Density = 1.964880 g / cm^3
# Si number density = 19.693626 Si / 1000 Ang^3
#
#
#
# Elastic Constant Matrix: (Units=GPa)
#
#
# Indices 1 2 3 4 5 6 
#
# 1 34.3059 28.7620 26.1821 0.0000 -10.6609 0.0000
# 2 28.7620 194.0455 56.8664 0.0000 3.6751 0.0000
# 3 26.1821 56.8664 73.4844 0.0000 -10.0611 0.0000
# 4 0.0000 0.0000 0.0000 11.4357 0.0000 -7.9015
# 5 -10.6609 3.6751 -10.0611 0.0000 20.1224 0.0000
# 6 0.0000 0.0000 0.0000 -7.9015 0.0000 27.7046
#
#
#
# Elastic Compliance Matrix: (Units=1/GPa)
#
#
# Indices 1 2 3 4 5 6 
#
# 1 0.047268 -0.004239 -0.010763 0.000000 0.020436 0.000000
# 2 -0.004239 0.007372 -0.005030 0.000000 -0.006107 0.000000
# 3 -0.010763 -0.005030 0.022201 0.000000 0.006317 0.000000
# 4 0.000000 0.000000 0.000000 0.108907 0.000000 0.031061
# 5 0.020436 -0.006107 0.006317 0.000000 0.064797 0.000000
# 6 0.000000 0.000000 0.000000 0.031061 0.000000 0.044954
#
#
# Mechanical properties :
#
#
# Convention : Reuss Voigt Hill
#
# Bulk Modulus (GPa) = 27.19186 58.38408 42.78797
# Shear Modulus (GPa) = 14.37516 24.52089 19.44802
#
# Velocity S-wave (km/s) = 2.70467 3.53245 3.14591
# Velocity P-wave (km/s) = 4.85706 6.80795 5.91351
#
# Compressibility (1/GPa) = 0.03677572
#
# Stress axis : x y z
#
# Youngs Moduli (GPa) = 21.15578 135.65511 45.04330
#
# Poissons Ratio (x) = 0.57506 0.48480
# Poissons Ratio (y) = 0.08968 0.22659
# Poissons Ratio (z) = 0.22770 0.68240
#
# Static dielectric constant tensor:
#      x y z
#    x 1.695680 0.000000 -0.034490 
#    y 0.000000 1.711880 0.000000 
#    z -0.034490 0.000000 1.673470 
# 
# From -- ./inp_files/155174.got.cif
#   From: 2010.05.17/outbox.cif.g08.bks.cpg/sg15_78_cif.got.tgz:155174.got - 2010.06.03 18:47:42.
