data_PCOD9258877
_publ_section_title
;
Structure prediction by ZEFSAII (Michael W. Deem and Ramdas Pophale) SiO2 
 PCOD9258877
Probable space group: C 2/C
;
_chemical_formula_sum "Si O2"
_cell_formula_units_Z 56
_cell_length_a 22.021674
_cell_length_b 8.788080
_cell_length_c 18.639474
_cell_angle_alpha 90.000000
_cell_angle_beta 140.215886
_cell_angle_gamma 90.000000
_cell_volume 2308.276476
_symmetry_space_group_name_H-M "C 2/C"
_symmetry_group_IT_number 15
_symmetry_cell_setting 'monoclinic'
loop_
_space_group_symop_operation_xyz
x,y,z
-x,y,1/2-z
-x,-y,-z
x,-y,1/2+z
1/2+x,1/2+y,z
1/2-x,1/2+y,1/2-z
1/2-x,1/2-y,-z
1/2+x,1/2-y,1/2+z
loop_
_atom_site_type_symbol
_atom_site_label
_atom_site_fract_x
_atom_site_fract_y
_atom_site_fract_z
Si Si1 0.714871 0.559110 0.046080
Si Si2 0.310955 0.989508 0.361066
Si Si3 0.661733 0.652273 0.840181
Si Si4 0.540908 0.556697 0.164878
Si Si5 0.150699 0.159277 0.133742
Si Si6 0.067916 0.660526 0.915627
Si Si7 0.134529 0.663847 0.818182
O O1 0.807299 0.672500 0.128376
O O2 0.646237 0.616634 0.046570
O O3 0.763778 0.399630 0.110327
O O4 0.671866 0.583356 0.928712
O O5 0.238147 0.917535 0.353333
O O6 0.354287 0.840900 0.362078
O O7 0.251507 0.095993 0.253877
O O8 0.386207 0.085877 0.474018
O O9 0.560014 0.608123 0.714307
O O10 0.573846 0.577566 0.113499
O O11 0.447986 0.657109 0.092283
O O12 0.617454 0.661718 0.279758
O O13 0.126246 0.638513 0.895772
O O14 0.961683 0.595914 0.804331
#
# Coordination Sequence:
#
# PCOD9258877 Si02
#       7
#     8   8   8   8   8   8   8
#     4  10  18  34  56  86 115 153 195 247 295 346
#     4  10  19  38  57  82 117 153 193 250 290 357
#     4   9  19  33  59  81 116 151 199 246 293 341
#     4   9  19  36  55  86 118 152 195 247 287 354
#     4  10  21  34  56  88 118 150 197 244 299 351
#     4   9  19  36  61  80 116 152 203 241 294 346
#     4   9  18  35  59  87 108 151 204 247 284 354
#
# _framework density 24.260524
#
# number of rings (size 3 to 8) (size 9 to 14) (size 15 to 20)
#    0.857    1.714    1.429    0.857    0.000    1.143 
#    2.571    0.000    9.429    2.571    0.000    0.000 
#    0.000    0.000    0.000    0.000    0.000    0.000 
#
# Total GULP energy -156441.830200 kJ/mol
# GULP energy per Si atom -5587.208221 kJ/mol
# Density = 2.420531 g / cm^3
# Si number density = 24.260524 Si / 1000 Ang^3
#
#
#
# Elastic Constant Matrix: (Units=GPa)
#
#
# Indices 1 2 3 4 5 6 
#
# 1 64.0912 -7.1205 26.9413 0.0000 -12.4563 0.0000
# 2 -7.1205 64.3157 41.5886 0.0000 3.4886 0.0000
# 3 26.9413 41.5886 117.6009 0.0000 -11.1225 0.0000
# 4 0.0000 0.0000 0.0000 46.0157 0.0000 -3.8960
# 5 -12.4563 3.4886 -11.1225 0.0000 37.1233 0.0000
# 6 0.0000 0.0000 0.0000 -3.8960 0.0000 22.3230
#
#
#
# Elastic Compliance Matrix: (Units=1/GPa)
#
#
# Indices 1 2 3 4 5 6 
#
# 1 0.019701 0.005986 -0.006235 0.000000 0.004180 0.000000
# 2 0.005986 0.022617 -0.009654 0.000000 -0.003009 0.000000
# 3 -0.006235 -0.009654 0.013620 0.000000 0.002896 0.000000
# 4 0.000000 0.000000 0.000000 0.022058 0.000000 0.003850
# 5 0.004180 -0.003009 0.002896 0.000000 0.029490 0.000000
# 6 0.000000 0.000000 0.000000 0.003850 0.000000 0.045469
#
#
# Mechanical properties :
#
#
# Convention : Reuss Voigt Hill
#
# Bulk Modulus (GPa) = 27.67653 40.98074 34.32863
# Shear Modulus (GPa) = 27.05555 33.39894 30.22725
#
# Velocity S-wave (km/s) = 3.34310 3.71439 3.53362
# Velocity P-wave (km/s) = 5.13172 5.94341 5.55242
#
# Compressibility (1/GPa) = 0.03613170
#
# Stress axis : x y z
#
# Youngs Moduli (GPa) = 50.75843 44.21429 73.42251
#
# Poissons Ratio (x) = -0.26468 0.45779
# Poissons Ratio (y) = -0.30385 0.70885
# Poissons Ratio (z) = 0.31648 0.42686
#
# Static dielectric constant tensor:
#      x y z
#    x 1.957230 0.000000 0.055190 
#    y 0.000000 1.970350 0.000000 
#    z 0.055190 0.000000 1.926310 
# 
# From -- ./inp_files/221723.got.cif
#   From: 2010.05.17/outbox.cif.g08.bks.cpg/sg15_111_cif.got.tgz:221723.got - 2010.06.03 18:47:42.
