data_PCOD9258669
_publ_section_title
;
Structure prediction by ZEFSAII (Michael W. Deem and Ramdas Pophale) SiO2 
 PCOD9258669
Probable space group: C 2/C
;
_chemical_formula_sum "Si O2"
_cell_formula_units_Z 44
_cell_length_a 16.006847
_cell_length_b 10.628759
_cell_length_c 14.228071
_cell_angle_alpha 90.000000
_cell_angle_beta 136.971180
_cell_angle_gamma 90.000000
_cell_volume 1651.778658
_symmetry_space_group_name_H-M "C 2/C"
_symmetry_group_IT_number 15
_symmetry_cell_setting 'monoclinic'
loop_
_space_group_symop_operation_xyz
x,y,z
-x,y,1/2-z
-x,-y,-z
x,-y,1/2+z
1/2+x,1/2+y,z
1/2-x,1/2+y,1/2-z
1/2-x,1/2-y,-z
1/2+x,1/2-y,1/2+z
loop_
_atom_site_type_symbol
_atom_site_label
_atom_site_fract_x
_atom_site_fract_y
_atom_site_fract_z
Si Si1 0.485528 0.372955 0.108311
Si Si2 0.885460 0.145213 0.985071
Si Si3 0.000000 0.215907 0.250000
Si Si4 0.299467 0.526213 0.157122
Si Si5 0.841105 0.541592 0.788802
Si Si6 0.070481 0.397969 0.936355
O O1 0.411438 0.503824 0.047004
O O2 0.610513 0.406351 0.265096
O O3 0.423873 0.245133 0.090584
O O4 0.534244 0.349094 0.042651
O O5 0.932442 0.252346 0.096083
O O6 0.743697 0.136475 0.838881
O O7 0.114686 0.137616 0.303205
O O8 0.250860 0.546291 0.224457
O O9 0.183192 0.486168 0.000370
O O10 0.939135 0.461761 0.811358
O O11 0.910505 0.604856 0.933933
#
# Coordination Sequence:
#
# PCOD9258669 Si02
#       6
#     8   8   4   8   8   8
#     4   9  17  30  52  74  96 123 175 206 243 280
#     4   9  18  31  49  73  96 136 163 201 243 298
#     4  10  18  34  50  66 114 132 162 202 242 310
#     4   8  17  32  47  75  95 130 163 199 245 293
#     4   8  17  32  53  75  95 125 173 204 251 280
#     4   9  17  31  54  77  98 122 167 221 239 282
#
# _framework density 26.637951000000001
#
# number of rings (size 3 to 8) (size 9 to 14) (size 15 to 20)
#    1.091    2.182    0.000    1.091    2.545    0.000 
#    0.000    4.545    0.000    4.364    0.000    0.000 
#    0.000    0.000    0.000    0.000    0.000    0.000 
#
# Total GULP energy -122732.570234 kJ/mol
# GULP energy per Si atom -5578.753192 kJ/mol
# Density = 2.657732 g / cm^3
# Si number density = 26.637951 Si / 1000 Ang^3
#
#
#
# Elastic Constant Matrix: (Units=GPa)
#
#
# Indices 1 2 3 4 5 6 
#
# 1 86.0327 36.0532 24.5840 0.0000 12.6571 0.0000
# 2 36.0532 105.1804 28.2923 0.0000 22.5693 0.0000
# 3 24.5840 28.2923 135.4205 0.0000 3.7742 0.0000
# 4 0.0000 0.0000 0.0000 -19.0285 0.0000 -16.5711
# 5 12.6571 22.5693 3.7742 0.0000 53.7898 0.0000
# 6 0.0000 0.0000 0.0000 -16.5711 0.0000 10.5488
#
#
#
# Elastic Compliance Matrix: (Units=1/GPa)
#
#
# Indices 1 2 3 4 5 6 
#
# 1 0.014007 -0.004037 -0.001658 0.000000 -0.001486 0.000000
# 2 -0.004037 0.012221 -0.001707 0.000000 -0.004058 0.000000
# 3 -0.001658 -0.001707 0.008027 0.000000 0.000543 0.000000
# 4 0.000000 0.000000 0.000000 -0.022193 0.000000 -0.034862
# 5 -0.001486 -0.004058 0.000543 0.000000 0.020605 0.000000
# 6 0.000000 0.000000 0.000000 -0.034862 0.000000 0.040032
#
#
# Mechanical properties :
#
#
# Convention : Reuss Voigt Hill
#
# Bulk Modulus (GPa) = 51.40988 56.05475 53.73232
# Shear Modulus (GPa) = 53.19798 24.90895 39.05347
#
# Velocity S-wave (km/s) = 4.47371 3.06125 3.83310
# Velocity P-wave (km/s) = 6.78431 5.79516 6.30915
#
# Compressibility (1/GPa) = 0.01945151
#
# Stress axis : x y z
#
# Youngs Moduli (GPa) = 71.39033 81.82539 124.57970
#
# Poissons Ratio (x) = 0.33029 0.20657
# Poissons Ratio (y) = 0.28817 0.21270
# Poissons Ratio (z) = 0.11838 0.13971
#
# Static dielectric constant tensor:
#      x y z
#    x 2.146800 0.000000 -0.077420 
#    y 0.000000 2.074900 0.000000 
#    z -0.077420 0.000000 2.167600 
# 
# From -- ./inp_files/104506.got.cif
#   From: 2010.05.17/outbox.cif.g08.bks.cpg/sg15_53_cif.got.tgz:104506.got - 2010.06.03 18:47:42.
