data_PCOD9258201
_publ_section_title
;
Structure prediction by ZEFSAII (Michael W. Deem and Ramdas Pophale) SiO2 
 PCOD9258201
Probable space group: C 2/C
;
_chemical_formula_sum "Si O2"
_cell_formula_units_Z 60
_cell_length_a 24.714327
_cell_length_b 14.055422
_cell_length_c 9.253719
_cell_angle_alpha 90.000000
_cell_angle_beta 92.086071
_cell_angle_gamma 90.000000
_cell_volume 3212.336787
_symmetry_space_group_name_H-M "C 2/C"
_symmetry_group_IT_number 15
_symmetry_cell_setting 'monoclinic'
loop_
_space_group_symop_operation_xyz
x,y,z
-x,y,1/2-z
-x,-y,-z
x,-y,1/2+z
1/2+x,1/2+y,z
1/2-x,1/2+y,1/2-z
1/2-x,1/2-y,-z
1/2+x,1/2-y,1/2+z
loop_
_atom_site_type_symbol
_atom_site_label
_atom_site_fract_x
_atom_site_fract_y
_atom_site_fract_z
Si Si1 0.844506 0.397311 0.476760
Si Si2 0.747163 0.950388 0.614662
Si Si3 0.304404 0.572457 0.424642
Si Si4 0.000000 0.471188 0.250000
Si Si5 0.927178 0.437094 0.988457
Si Si6 0.164875 0.284279 0.549279
Si Si7 0.336310 0.266339 0.774400
Si Si8 0.208586 0.234555 0.834079
O O1 0.797701 0.467139 0.412645
O O2 0.891860 0.468863 0.526556
O O3 0.863298 0.324178 0.353941
O O4 0.819526 0.327984 0.596787
O O5 0.764878 0.947184 0.783227
O O6 0.717186 0.854901 0.559856
O O7 0.797882 0.977357 0.517790
O O8 0.351185 0.631960 0.346082
O O9 0.293791 0.650141 0.551294
O O10 0.963706 0.534380 0.355170
O O11 0.037297 0.413778 0.366718
O O12 0.886336 0.353929 0.940490
O O13 0.158877 0.235843 0.395050
O O14 0.175179 0.216368 0.685798
O O15 0.271796 0.249818 0.802818
#
# Coordination Sequence:
#
# PCOD9258201 Si02
#       8
#     8   8   8   4   8   8   8   8
#     4  10  18  33  50  65  97 127 179 212 249 281
#     4  11  19  30  44  66  87 129 172 221 227 282
#     4  11  22  30  44  59  92 125 167 215 251 262
#     4  10  20  36  52  72 104 116 170 218 284 290
#     4  10  21  35  53  76  94 135 168 223 248 310
#     4  11  22  30  51  69  94 127 182 207 250 292
#     4  11  19  32  44  66  94 130 163 223 246 282
#     4  11  20  34  44  67  96 130 164 227 248 282
#
# _framework density 18.677992
#
# number of rings (size 3 to 8) (size 9 to 14) (size 15 to 20)
#    0.000    1.333    4.000    3.600    0.000    4.267 
#    0.000    0.000    0.000    0.000    0.000    0.000 
#    0.000    0.000    0.000    0.000    0.000  942.667 
#
# Total GULP energy -167118.625691 kJ/mol
# GULP energy per Si atom -5570.620856 kJ/mol
# Density = 1.863548 g / cm^3
# Si number density = 18.677992 Si / 1000 Ang^3
#
#
#
# Elastic Constant Matrix: (Units=GPa)
#
#
# Indices 1 2 3 4 5 6 
#
# 1 36.2422 10.9159 10.5442 0.0000 -0.2281 0.0000
# 2 10.9159 43.7381 14.7863 0.0000 -0.6822 0.0000
# 3 10.5442 14.7863 120.5143 0.0000 2.3683 0.0000
# 4 0.0000 0.0000 0.0000 32.5210 0.0000 2.6911
# 5 -0.2281 -0.6822 2.3683 0.0000 27.5768 0.0000
# 6 0.0000 0.0000 0.0000 2.6911 0.0000 7.6264
#
#
#
# Elastic Compliance Matrix: (Units=1/GPa)
#
#
# Indices 1 2 3 4 5 6 
#
# 1 0.030203 -0.006927 -0.001797 0.000000 0.000233 0.000000
# 2 -0.006927 0.025461 -0.002533 0.000000 0.000790 0.000000
# 3 -0.001797 -0.002533 0.008782 0.000000 -0.000832 0.000000
# 4 0.000000 0.000000 0.000000 0.031674 0.000000 -0.011177
# 5 0.000233 0.000790 -0.000832 0.000000 0.036355 0.000000
# 6 0.000000 0.000000 0.000000 -0.011177 0.000000 0.135067
#
#
# Mechanical properties :
#
#
# Convention : Reuss Voigt Hill
#
# Bulk Modulus (GPa) = 23.84853 30.33193 27.09023
# Shear Modulus (GPa) = 16.44555 24.49472 20.47013
#
# Velocity S-wave (km/s) = 2.97050 3.62528 3.31410
# Velocity P-wave (km/s) = 4.95592 5.81362 5.40182
#
# Compressibility (1/GPa) = 0.04193130
#
# Stress axis : x y z
#
# Youngs Moduli (GPa) = 33.10962 39.27601 113.86681
#
# Poissons Ratio (x) = 0.27205 0.20465
# Poissons Ratio (y) = 0.22934 0.28847
# Poissons Ratio (z) = 0.05951 0.09950
#
# Static dielectric constant tensor:
#      x y z
#    x 1.659130 0.000000 -0.026040 
#    y 0.000000 1.744450 0.000000 
#    z -0.026040 0.000000 1.702340 
# 
# From -- ./inp_files/65951.got.cif
#   From: 2010.05.17/outbox.cif.g08.bks.cpg/sg15_33_cif.got.tgz:65951.got - 2010.06.03 18:47:42.
