data_PCOD9258339
_publ_section_title
;
Structure prediction by ZEFSAII (Michael W. Deem and Ramdas Pophale) SiO2 
 PCOD9258339
Probable space group: C 2/C
;
_chemical_formula_sum "Si O2"
_cell_formula_units_Z 60
_cell_length_a 7.037919
_cell_length_b 14.157213
_cell_length_c 27.362661
_cell_angle_alpha 90.000000
_cell_angle_beta 108.398369
_cell_angle_gamma 90.000000
_cell_volume 2586.985176
_symmetry_space_group_name_H-M "C 2/C"
_symmetry_group_IT_number 15
_symmetry_cell_setting 'monoclinic'
loop_
_space_group_symop_operation_xyz
x,y,z
-x,y,1/2-z
-x,-y,-z
x,-y,1/2+z
1/2+x,1/2+y,z
1/2-x,1/2+y,1/2-z
1/2-x,1/2-y,-z
1/2+x,1/2-y,1/2+z
loop_
_atom_site_type_symbol
_atom_site_label
_atom_site_fract_x
_atom_site_fract_y
_atom_site_fract_z
Si Si1 0.000000 0.107239 0.750000
Si Si2 0.452128 0.786635 0.380775
Si Si3 0.992702 0.890611 0.444860
Si Si4 0.516124 0.913342 0.622673
Si Si5 0.071684 0.884932 0.558496
Si Si6 0.535838 0.286004 0.154655
Si Si7 0.063006 0.430887 0.199740
Si Si8 0.910121 0.442382 0.448190
O O1 0.916304 0.167444 0.789322
O O2 0.196384 0.052569 0.784362
O O3 0.508281 0.683659 0.405281
O O4 0.208197 0.786370 0.363574
O O5 0.485624 0.830874 0.330140
O O6 0.531326 0.866150 0.425751
O O7 0.968717 0.857342 0.498678
O O8 0.903410 0.839537 0.390319
O O9 0.230404 0.883239 0.455552
O O10 0.958719 0.003021 0.438916
O O11 0.314759 0.879270 0.578344
O O12 0.609478 0.820633 0.653775
O O13 0.458554 0.985521 0.661078
O O14 0.644024 0.977077 0.595932
O O15 0.000000 0.433312 0.250000
O O16 0.000000 0.500000 0.500000
#
# Coordination Sequence:
#
# PCOD9258339 Si02
#       8
#     4   8   8   8   8   8   8   8
#     4  10  22  44  62  86 124 158 202 262 300 356
#     4   8  19  37  58  82 117 152 201 243 294 363
#     4  10  21  35  57  88 120 164 195 239 309 353
#     4  10  21  37  61  90 112 153 202 243 302 363
#     4  10  20  37  59  87 123 156 194 249 300 362
#     4   9  20  37  63  84 116 158 204 243 299 365
#     4  10  22  41  67  89 118 159 204 256 312 360
#     4  10  18  33  54  82 118 153 197 240 286 361
#
# _framework density 23.193021000000002
#
# number of rings (size 3 to 8) (size 9 to 14) (size 15 to 20)
#    0.000    2.400    1.333    0.800    4.667    1.600 
#    2.400    0.667    2.933    0.000    0.000    0.000 
#    0.000    0.000    0.000    0.000    0.000    0.000 
#
# Total GULP energy -167313.087729 kJ/mol
# GULP energy per Si atom -5577.102924 kJ/mol
# Density = 2.314023 g / cm^3
# Si number density = 23.193021 Si / 1000 Ang^3
#
#
#
# Elastic Constant Matrix: (Units=GPa)
#
#
# Indices 1 2 3 4 5 6 
#
# 1 41.1634 -12.7804 7.9207 0.0000 10.3499 0.0000
# 2 -12.7804 83.7795 37.2024 0.0000 -5.4766 0.0000
# 3 7.9207 37.2024 126.9129 0.0000 -4.6777 0.0000
# 4 0.0000 0.0000 0.0000 16.1592 0.0000 1.6209
# 5 10.3499 -5.4766 -4.6777 0.0000 29.1397 0.0000
# 6 0.0000 0.0000 0.0000 1.6209 0.0000 22.1389
#
#
#
# Elastic Compliance Matrix: (Units=1/GPa)
#
#
# Indices 1 2 3 4 5 6 
#
# 1 0.029237 0.005498 -0.003803 0.000000 -0.009962 0.000000
# 2 0.005498 0.014867 -0.004698 0.000000 0.000087 0.000000
# 3 -0.003803 -0.004698 0.009568 0.000000 0.002004 0.000000
# 4 0.000000 0.000000 0.000000 0.062342 0.000000 -0.004564
# 5 -0.009962 0.000087 0.002004 0.000000 0.038194 0.000000
# 6 0.000000 0.000000 0.000000 -0.004564 0.000000 0.045504
#
#
# Mechanical properties :
#
#
# Convention : Reuss Voigt Hill
#
# Bulk Modulus (GPa) = 20.98007 35.17126 28.07567
# Shear Modulus (GPa) = 22.56260 28.12177 25.34218
#
# Velocity S-wave (km/s) = 3.12239 3.48589 3.30913
# Velocity P-wave (km/s) = 4.69729 5.60352 5.17030
#
# Compressibility (1/GPa) = 0.04766428
#
# Stress axis : x y z
#
# Youngs Moduli (GPa) = 34.20331 67.26525 104.51805
#
# Poissons Ratio (x) = -0.36981 0.39753
# Poissons Ratio (y) = -0.18804 0.49100
# Poissons Ratio (z) = 0.13009 0.31600
#
# Static dielectric constant tensor:
#      x y z
#    x 2.006310 0.000000 0.017910 
#    y 0.000000 1.879830 0.000000 
#    z 0.017910 0.000000 1.900940 
# 
# From -- ./inp_files/264364.got.cif
#   From: 2010.05.17/outbox.cif.g08.bks.cpg/sg15_133_cif.got.tgz:264364.got - 2010.06.03 18:47:42.
