data_PCOD9258553
_publ_section_title
;
Structure prediction by ZEFSAII (Michael W. Deem and Ramdas Pophale) SiO2 
 PCOD9258553
Probable space group: C 2/C
;
_chemical_formula_sum "Si O2"
_cell_formula_units_Z 40
_cell_length_a 17.234077
_cell_length_b 7.514007
_cell_length_c 20.167637
_cell_angle_alpha 90.000000
_cell_angle_beta 129.697439
_cell_angle_gamma 90.000000
_cell_volume 2009.475365
_symmetry_space_group_name_H-M "C 2/C"
_symmetry_group_IT_number 15
_symmetry_cell_setting 'monoclinic'
loop_
_space_group_symop_operation_xyz
x,y,z
-x,y,1/2-z
-x,-y,-z
x,-y,1/2+z
1/2+x,1/2+y,z
1/2-x,1/2+y,1/2-z
1/2-x,1/2-y,-z
1/2+x,1/2-y,1/2+z
loop_
_atom_site_type_symbol
_atom_site_label
_atom_site_fract_x
_atom_site_fract_y
_atom_site_fract_z
Si Si1 0.476047 0.310747 0.808905
Si Si2 0.335834 0.533835 0.382859
Si Si3 0.462767 0.983910 0.903568
Si Si4 0.543314 0.606310 0.926955
Si Si5 0.243508 0.821378 0.784035
O O1 0.500000 0.235244 0.750000
O O2 0.549339 0.473544 0.868428
O O3 0.361972 0.388569 0.744300
O O4 0.480334 0.157955 0.868021
O O5 0.363218 0.586950 0.471951
O O6 0.443193 0.472867 0.409588
O O7 0.266423 0.362678 0.333334
O O8 0.283842 0.684230 0.309417
O O9 0.518551 0.812412 0.902276
O O10 0.344926 0.934154 0.843871
O O11 0.500000 0.000000 0.000000
#
# Coordination Sequence:
#
# PCOD9258553 Si02
#       5
#     8   8   8   8   8
#     4  11  23  40  61  92 129 162 198 257 322 367
#     4   9  16  31  54  86 110 147 199 248 287 348
#     4  11  21  38  66  91 119 163 218 256 299 368
#     4   9  20  35  55  84 125 155 191 246 309 358
#     4  10  18  33  59  87 115 156 207 250 289 365
#
# _framework density 19.905692999999999
#
# number of rings (size 3 to 8) (size 9 to 14) (size 15 to 20)
#    0.000    2.000    2.000    4.800    0.000    0.800 
#    0.000    4.000    0.000    2.400    0.000    0.000 
#    0.000    0.000    0.000    0.000    0.000    0.000 
#
# Total GULP energy -111373.318115 kJ/mol
# GULP energy per Si atom -5568.665906 kJ/mol
# Density = 1.986039 g / cm^3
# Si number density = 19.905693 Si / 1000 Ang^3
#
#
#
# Elastic Constant Matrix: (Units=GPa)
#
#
# Indices 1 2 3 4 5 6 
#
# 1 27.6203 11.1736 43.7530 0.0000 -8.0426 0.0000
# 2 11.1736 125.1198 43.3836 0.0000 -3.4468 0.0000
# 3 43.7530 43.3836 146.3378 0.0000 13.7755 0.0000
# 4 0.0000 0.0000 0.0000 26.7019 0.0000 -1.5486
# 5 -8.0426 -3.4468 13.7755 0.0000 26.5280 0.0000
# 6 0.0000 0.0000 0.0000 -1.5486 0.0000 13.9872
#
#
#
# Elastic Compliance Matrix: (Units=1/GPa)
#
#
# Indices 1 2 3 4 5 6 
#
# 1 0.118915 0.005867 -0.042853 0.000000 0.059067 0.000000
# 2 0.005867 0.009379 -0.005064 0.000000 0.005627 0.000000
# 3 -0.042853 -0.005064 0.023585 0.000000 -0.025897 0.000000
# 4 0.000000 0.000000 0.000000 0.037693 0.000000 0.004173
# 5 0.059067 0.005627 -0.025897 0.000000 0.069783 0.000000
# 6 0.000000 0.000000 0.000000 0.004173 0.000000 0.071956
#
#
# Mechanical properties :
#
#
# Convention : Reuss Voigt Hill
#
# Bulk Modulus (GPa) = 14.75425 55.07759 34.91592
# Shear Modulus (GPa) = 11.41539 26.82793 19.12166
#
# Velocity S-wave (km/s) = 2.39733 3.67516 3.10274
# Velocity P-wave (km/s) = 3.88472 6.76301 5.51495
#
# Compressibility (1/GPa) = 0.06777710
#
# Stress axis : x y z
#
# Youngs Moduli (GPa) = 8.40940 106.61590 42.39932
#
# Poissons Ratio (x) = -0.62547 1.81695
# Poissons Ratio (y) = -0.04933 0.21473
# Poissons Ratio (z) = 0.36037 0.53994
#
# Static dielectric constant tensor:
#      x y z
#    x 1.716040 0.000000 -0.015410 
#    y 0.000000 1.773280 0.000000 
#    z -0.015410 0.000000 1.748710 
# 
# From -- ./inp_files/159489.got.cif
#   From: 2010.05.17/outbox.cif.g08.bks.cpg/sg15_80_cif.got.tgz:159489.got - 2010.06.03 18:47:42.
