data_PCOD9258363
_publ_section_title
;
Structure prediction by ZEFSAII (Michael W. Deem and Ramdas Pophale) SiO2 
 PCOD9258363
Probable space group: C 2/C
;
_chemical_formula_sum "Si O2"
_cell_formula_units_Z 64
_cell_length_a 32.271504
_cell_length_b 16.037166
_cell_length_c 12.338158
_cell_angle_alpha 90.000000
_cell_angle_beta 147.711499
_cell_angle_gamma 90.000000
_cell_volume 3411.041283
_symmetry_space_group_name_H-M "C 2/C"
_symmetry_group_IT_number 15
_symmetry_cell_setting 'monoclinic'
loop_
_space_group_symop_operation_xyz
x,y,z
-x,y,1/2-z
-x,-y,-z
x,-y,1/2+z
1/2+x,1/2+y,z
1/2-x,1/2+y,1/2-z
1/2-x,1/2-y,-z
1/2+x,1/2-y,1/2+z
loop_
_atom_site_type_symbol
_atom_site_label
_atom_site_fract_x
_atom_site_fract_y
_atom_site_fract_z
Si Si1 0.219280 0.217017 0.047353
Si Si2 0.941600 0.759168 0.379758
Si Si3 0.619663 0.846911 0.555682
Si Si4 0.344772 0.862913 0.194661
Si Si5 0.146964 0.510437 0.967690
Si Si6 0.988955 0.390258 0.852600
Si Si7 0.254167 0.135631 0.719274
Si Si8 0.600344 0.713784 0.325740
O O1 0.286400 0.153677 0.229944
O O2 0.221360 0.290006 0.143109
O O3 0.250000 0.250000 0.000000
O O4 0.132550 0.189441 0.825232
O O5 0.915221 0.687757 0.409435
O O6 0.967511 0.704226 0.335495
O O7 0.014643 0.806935 0.592863
O O8 0.593089 0.777220 0.410636
O O9 0.603810 0.936047 0.467006
O O10 0.428608 0.901735 0.408935
O O11 0.294703 0.856153 0.191878
O O12 0.358940 0.771753 0.175350
O O13 0.317007 0.924440 0.038177
O O14 0.212741 0.449499 0.158579
O O15 0.080796 0.451357 0.770155
O O16 0.000000 0.397565 0.750000
O O17 0.161687 0.144024 0.497151
#
# Coordination Sequence:
#
# PCOD9258363 Si02
#       8
#     8   8   8   8   8   8   8   8
#     4   9  18  34  55  77 103 138 182 229 269 318
#     4  10  18  33  55  78 105 135 183 229 273 319
#     4   9  20  34  51  78 107 140 175 222 280 328
#     4  10  21  34  49  75 109 144 182 217 273 328
#     4  11  22  32  50  78 111 148 177 217 275 336
#     4  11  20  32  47  78 110 145 174 212 273 333
#     4  11  20  36  53  74 111 145 185 220 268 328
#     4   9  20  34  53  76 104 143 184 227 270 321
#
# _framework density 18.762599000000002
#
# number of rings (size 3 to 8) (size 9 to 14) (size 15 to 20)
#    0.000    2.000    2.500    1.125    1.750    3.000 
#    0.000    0.000    0.000    0.750    0.000    3.500 
#    0.000    0.000    0.000    0.000    0.000    0.000 
#
# Total GULP energy -178287.215921 kJ/mol
# GULP energy per Si atom -5571.475498 kJ/mol
# Density = 1.871989 g / cm^3
# Si number density = 18.762599 Si / 1000 Ang^3
#
#
#
# Elastic Constant Matrix: (Units=GPa)
#
#
# Indices 1 2 3 4 5 6 
#
# 1 66.6482 12.3823 11.1653 0.0000 -8.0694 0.0000
# 2 12.3823 24.1743 13.7879 0.0000 1.7889 0.0000
# 3 11.1653 13.7879 126.5551 0.0000 15.8601 0.0000
# 4 0.0000 0.0000 0.0000 24.6179 0.0000 -9.1225
# 5 -8.0694 1.7889 15.8601 0.0000 26.3106 0.0000
# 6 0.0000 0.0000 0.0000 -9.1225 0.0000 1.2236
#
#
#
# Elastic Compliance Matrix: (Units=1/GPa)
#
#
# Indices 1 2 3 4 5 6 
#
# 1 0.017713 -0.008742 -0.001477 0.000000 0.006918 0.000000
# 2 -0.008742 0.048422 -0.004062 0.000000 -0.003525 0.000000
# 3 -0.001477 -0.004062 0.009191 0.000000 -0.005717 0.000000
# 4 0.000000 0.000000 0.000000 -0.023045 0.000000 -0.171809
# 5 0.006918 -0.003525 -0.005717 0.000000 0.043815 0.000000
# 6 0.000000 0.000000 0.000000 -0.171809 0.000000 -0.463641
#
#
# Mechanical properties :
#
#
# Convention : Reuss Voigt Hill
#
# Bulk Modulus (GPa) = 21.38464 32.44983 26.91724
# Shear Modulus (GPa) = -15.46104 22.43323 3.48610
#
# Velocity S-wave (km/s) = -2.87372 3.46155 1.36456
# Velocity P-wave (km/s) = 0.64128 5.77139 4.10610
#
# Compressibility (1/GPa) = 0.04676254
#
# Stress axis : x y z
#
# Youngs Moduli (GPa) = 56.45449 20.65175 108.80069
#
# Poissons Ratio (x) = 0.18054 0.16072
# Poissons Ratio (y) = 0.49354 0.44200
# Poissons Ratio (z) = 0.08340 0.08390
#
# Static dielectric constant tensor:
#      x y z
#    x 1.677770 0.000000 0.001780 
#    y 0.000000 1.619160 0.000000 
#    z 0.001780 0.000000 1.734990 
# 
# From -- ./inp_files/123503.got.cif
#   From: 2010.05.17/outbox.cif.g08.bks.cpg/sg15_62_cif.got.tgz:123503.got - 2010.06.03 18:47:42.
