data_PCOD9258935
_publ_section_title
;
Structure prediction by ZEFSAII (Michael W. Deem and Ramdas Pophale) SiO2 
 PCOD9258935
Probable space group: C 2/C
;
_chemical_formula_sum "Si O2"
_cell_formula_units_Z 48
_cell_length_a 8.921211
_cell_length_b 17.083695
_cell_length_c 18.678688
_cell_angle_alpha 90.000000
_cell_angle_beta 54.689651
_cell_angle_gamma 90.000000
_cell_volume 2323.056740
_symmetry_space_group_name_H-M "C 2/C"
_symmetry_group_IT_number 15
_symmetry_cell_setting 'monoclinic'
loop_
_space_group_symop_operation_xyz
x,y,z
-x,y,1/2-z
-x,-y,-z
x,-y,1/2+z
1/2+x,1/2+y,z
1/2-x,1/2+y,1/2-z
1/2-x,1/2-y,-z
1/2+x,1/2-y,1/2+z
loop_
_atom_site_type_symbol
_atom_site_label
_atom_site_fract_x
_atom_site_fract_y
_atom_site_fract_z
Si Si1 0.670244 0.922204 0.411952
Si Si2 0.879895 0.507971 0.417938
Si Si3 0.464769 0.680085 0.877774
Si Si4 0.837583 0.626161 0.836159
Si Si5 0.247112 0.669873 0.090405
Si Si6 0.041779 0.728308 0.576472
O O1 0.671257 0.969172 0.486314
O O2 0.866438 0.881413 0.352488
O O3 0.534089 0.845586 0.449786
O O4 0.588582 0.977165 0.372696
O O5 0.769836 0.434715 0.415340
O O6 0.836475 0.583654 0.382768
O O7 0.672867 0.658280 0.834978
O O8 0.417365 0.767068 0.865172
O O9 0.357421 0.673700 0.983950
O O10 0.942653 0.695719 0.847954
O O11 0.000000 0.582399 0.750000
O O12 0.398921 0.701595 0.103981
O O13 0.250000 0.750000 0.500000
#
# Coordination Sequence:
#
# PCOD9258935 Si02
#       6
#     8   8   8   8   8   8
#     4   8  17  32  54  83 107 137 175 231 281 317
#     4   9  18  34  52  80 112 138 175 226 274 333
#     4   9  17  33  55  82 110 140 183 229 277 332
#     4  11  23  37  52  79 119 153 183 225 289 352
#     4   9  17  32  59  86 103 135 189 241 274 308
#     4  10  18  34  57  85 108 142 192 235 272 329
#
# _framework density 20.662431000000002
#
# number of rings (size 3 to 8) (size 9 to 14) (size 15 to 20)
#    0.000    2.667    1.667    1.000    0.000    2.667 
#    3.000    9.167    0.000    0.000    0.000    0.000 
#    0.000    0.000    0.000    0.000    0.000    0.000 
#
# Total GULP energy -133660.548088 kJ/mol
# GULP energy per Si atom -5569.189504 kJ/mol
# Density = 2.061540 g / cm^3
# Si number density = 20.662431 Si / 1000 Ang^3
#
#
#
# Elastic Constant Matrix: (Units=GPa)
#
#
# Indices 1 2 3 4 5 6 
#
# 1 160.3716 84.1819 25.9398 0.0000 -29.7081 0.0000
# 2 84.1819 113.1046 16.1141 0.0000 -18.0087 0.0000
# 3 25.9398 16.1141 38.1213 0.0000 -10.6184 0.0000
# 4 0.0000 0.0000 0.0000 2.9004 0.0000 3.0645
# 5 -29.7081 -18.0087 -10.6184 0.0000 22.3838 0.0000
# 6 0.0000 0.0000 0.0000 3.0645 0.0000 47.5427
#
#
#
# Elastic Compliance Matrix: (Units=1/GPa)
#
#
# Indices 1 2 3 4 5 6 
#
# 1 0.012122 -0.007203 -0.002692 0.000000 0.009016 0.000000
# 2 -0.007203 0.014602 -0.000762 0.000000 0.001826 0.000000
# 3 -0.002692 -0.000762 0.031364 0.000000 0.010692 0.000000
# 4 0.000000 0.000000 0.000000 0.369974 0.000000 -0.023848
# 5 0.009016 0.001826 0.010692 0.000000 0.063183 0.000000
# 6 0.000000 0.000000 0.000000 -0.023848 0.000000 0.022571
#
#
# Mechanical properties :
#
#
# Convention : Reuss Voigt Hill
#
# Bulk Modulus (GPa) = 27.19386 62.67431 44.93409
# Shear Modulus (GPa) = 9.13426 26.92285 18.02855
#
# Velocity S-wave (km/s) = 2.10483 3.61360 2.95706
# Velocity P-wave (km/s) = 4.36997 6.91442 5.78385
#
# Compressibility (1/GPa) = 0.03677300
#
# Stress axis : x y z
#
# Youngs Moduli (GPa) = 82.49188 68.48371 31.88328
#
# Poissons Ratio (x) = 0.49331 0.08584
# Poissons Ratio (y) = 0.59421 0.02430
# Poissons Ratio (z) = 0.22210 0.05220
#
# Static dielectric constant tensor:
#      x y z
#    x 1.872410 0.000000 0.595900 
#    y 0.000000 1.770670 0.000000 
#    z 0.595900 0.000000 4.717730 
# 
# From -- ./inp_files/189953.got.cif
#   From: 2010.05.17/outbox.cif.g08.bks.cpg/sg15_95_cif.got.tgz:189953.got - 2010.06.03 18:47:42.
