data_PCOD9258336
_publ_section_title
;
Structure prediction by ZEFSAII (Michael W. Deem and Ramdas Pophale) SiO2 
 PCOD9258336
Probable space group: C 2/C
;
_chemical_formula_sum "Si O2"
_cell_formula_units_Z 60
_cell_length_a 21.790250
_cell_length_b 8.040625
_cell_length_c 19.222474
_cell_angle_alpha 90.000000
_cell_angle_beta 53.337896
_cell_angle_gamma 90.000000
_cell_volume 2701.644006
_symmetry_space_group_name_H-M "C 2/C"
_symmetry_group_IT_number 15
_symmetry_cell_setting 'monoclinic'
loop_
_space_group_symop_operation_xyz
x,y,z
-x,y,1/2-z
-x,-y,-z
x,-y,1/2+z
1/2+x,1/2+y,z
1/2-x,1/2+y,1/2-z
1/2-x,1/2-y,-z
1/2+x,1/2-y,1/2+z
loop_
_atom_site_type_symbol
_atom_site_label
_atom_site_fract_x
_atom_site_fract_y
_atom_site_fract_z
Si Si1 0.966750 0.734606 0.510440
Si Si2 0.000000 0.407944 0.250000
Si Si3 0.182688 0.186518 0.328516
Si Si4 0.553786 0.430746 0.567968
Si Si5 0.220997 0.598801 0.683449
Si Si6 0.647745 0.684826 0.122473
Si Si7 0.066510 0.590245 0.326448
Si Si8 0.403059 0.465774 0.228417
O O1 0.880078 0.693901 0.592834
O O2 0.018148 0.791272 0.541390
O O3 0.019639 0.613228 0.429311
O O4 0.948902 0.900663 0.475833
O O5 0.925887 0.296522 0.309631
O O6 0.994665 0.524917 0.187131
O O7 0.239857 0.280008 0.236385
O O8 0.225058 0.061977 0.352437
O O9 0.133845 0.065967 0.310835
O O10 0.630538 0.370742 0.554837
O O11 0.490570 0.471156 0.669758
O O12 0.212613 0.702385 0.617183
O O13 0.138144 0.530772 0.765186
O O14 0.642321 0.519244 0.172701
O O15 0.095813 0.772203 0.286126
#
# Coordination Sequence:
#
# PCOD9258336 Si02
#       8
#     8   4   8   8   8   8   8   8
#     4   9  20  33  56  86 118 152 193 248 305 349
#     4  10  20  30  50  84 122 140 190 248 282 352
#     4  10  20  38  57  82 116 156 199 243 290 355
#     4   9  16  31  53  81 114 147 189 245 295 350
#     4  10  22  37  60  83 116 156 201 251 284 360
#     4  10  18  33  54  82 113 152 194 247 292 341
#     4  10  21  34  54  92 112 147 195 249 302 344
#     4   9  17  30  57  79 108 148 195 239 293 338
#
# _framework density 22.208701999999999
#
# number of rings (size 3 to 8) (size 9 to 14) (size 15 to 20)
#    0.000    2.400    1.333    1.600    5.600    0.533 
#    0.000    0.667    0.000    3.200    0.000    0.000 
#    0.000    0.000    0.000    0.000    0.000    0.000 
#
# Total GULP energy -167191.491624 kJ/mol
# GULP energy per Si atom -5573.049721 kJ/mol
# Density = 2.215815 g / cm^3
# Si number density = 22.208702 Si / 1000 Ang^3
#
#
#
# Elastic Constant Matrix: (Units=GPa)
#
#
# Indices 1 2 3 4 5 6 
#
# 1 74.3819 14.1777 41.5559 -0.0001 11.7863 0.0000
# 2 14.1777 62.9377 17.1528 0.0001 7.8533 0.0001
# 3 41.5559 17.1528 56.9447 0.0000 15.2299 -0.0001
# 4 -0.0001 0.0001 0.0000 7.8718 0.0000 4.2014
# 5 11.7863 7.8533 15.2299 0.0000 30.9530 -0.0001
# 6 0.0000 0.0001 -0.0001 4.2014 -0.0001 34.6717
#
#
#
# Elastic Compliance Matrix: (Units=1/GPa)
#
#
# Indices 1 2 3 4 5 6 
#
# 1 0.022729 -0.000625 -0.016267 0.000000 -0.000492 0.000000
# 2 -0.000625 0.017447 -0.004236 0.000000 -0.002104 0.000000
# 3 -0.016267 -0.004236 0.033123 0.000000 -0.009029 0.000000
# 4 0.000000 0.000000 0.000000 0.135820 0.000000 -0.016458
# 5 -0.000492 -0.002104 -0.009029 0.000000 0.037471 0.000000
# 6 0.000000 0.000000 0.000000 -0.016458 0.000000 0.030836
#
#
# Mechanical properties :
#
#
# Convention : Reuss Voigt Hill
#
# Bulk Modulus (GPa) = 32.21479 37.78190 34.99835
# Shear Modulus (GPa) = 15.15015 22.79115 18.97065
#
# Velocity S-wave (km/s) = 2.61468 3.20695 2.92584
# Velocity P-wave (km/s) = 4.86337 5.54634 5.21604
#
# Compressibility (1/GPa) = 0.03104164
#
# Stress axis : x y z
#
# Youngs Moduli (GPa) = 43.99581 57.31763 30.19090
#
# Poissons Ratio (x) = 0.03585 0.49111
# Poissons Ratio (y) = 0.02751 0.12789
# Poissons Ratio (z) = 0.71568 0.24281
#
# Static dielectric constant tensor:
#      x y z
#    x 1.990230 0.000000 0.040050 
#    y 0.000000 1.822900 0.000000 
#    z 0.040050 0.000000 1.873770 
# 
# From -- ./inp_files/213864.got.cif
#   From: 2010.05.17/outbox.cif.g08.bks.cpg/sg15_107_cif.got.tgz:213864.got - 2010.06.03 18:47:42.
