data_PCOD9258999
_publ_section_title
;
Structure prediction by ZEFSAII (Michael W. Deem and Ramdas Pophale) SiO2 
 PCOD9258999
Probable space group: C 2/C
;
_chemical_formula_sum "Si O2"
_cell_formula_units_Z 56
_cell_length_a 19.274799
_cell_length_b 14.654605
_cell_length_c 9.441088
_cell_angle_alpha 90.000000
_cell_angle_beta 93.564835
_cell_angle_gamma 90.000000
_cell_volume 2661.612825
_symmetry_space_group_name_H-M "C 2/C"
_symmetry_group_IT_number 15
_symmetry_cell_setting 'monoclinic'
loop_
_space_group_symop_operation_xyz
x,y,z
-x,y,1/2-z
-x,-y,-z
x,-y,1/2+z
1/2+x,1/2+y,z
1/2-x,1/2+y,1/2-z
1/2-x,1/2-y,-z
1/2+x,1/2-y,1/2+z
loop_
_atom_site_type_symbol
_atom_site_label
_atom_site_fract_x
_atom_site_fract_y
_atom_site_fract_z
Si Si1 0.713307 0.624182 0.356020
Si Si2 0.256503 0.513162 0.415397
Si Si3 0.908523 0.954648 0.004723
Si Si4 0.328878 0.153543 0.951334
Si Si5 0.424618 0.710625 0.307395
Si Si6 0.797947 0.775611 0.223734
Si Si7 0.567815 0.387636 0.200458
O O1 0.733384 0.541611 0.247692
O O2 0.728114 0.585651 0.514820
O O3 0.637300 0.666263 0.301311
O O4 0.768120 0.702438 0.328537
O O5 0.325930 0.562437 0.484145
O O6 0.186476 0.556437 0.473511
O O7 0.937359 0.866376 0.929062
O O8 0.931635 0.048258 0.935279
O O9 0.924655 0.959968 0.170775
O O10 0.394236 0.196785 0.876062
O O11 0.266817 0.162226 0.829772
O O12 0.317212 0.222510 0.081021
O O13 0.500000 0.727043 0.250000
O O14 0.865911 0.824429 0.287876
O O15 0.500000 0.335540 0.250000
#
# Coordination Sequence:
#
# PCOD9258999 Si02
#       7
#     8   8   8   8   8   8   8
#     4   9  20  34  60  80 112 144 185 235 283 327
#     4  10  18  34  58  83 105 144 189 230 274 332
#     4  11  21  35  54  81 119 154 184 224 273 346
#     4   9  16  33  60  74 105 149 198 230 266 338
#     4  10  19  32  53  83 112 147 184 232 272 341
#     4   9  17  36  55  78 105 155 194 225 274 339
#     4  12  23  35  55  81 122 159 189 222 282 344
#
# _framework density 21.039874999999999
#
# number of rings (size 3 to 8) (size 9 to 14) (size 15 to 20)
#    0.000    2.000    2.857    4.286    0.000    1.143 
#    0.000    2.857    6.286    0.857    0.000    4.000 
#    0.000    0.000    0.000    0.000    0.000    0.000 
#
# Total GULP energy -156044.510024 kJ/mol
# GULP energy per Si atom -5573.018215 kJ/mol
# Density = 2.099199 g / cm^3
# Si number density = 21.039875 Si / 1000 Ang^3
#
#
#
# Elastic Constant Matrix: (Units=GPa)
#
#
# Indices 1 2 3 4 5 6 
#
# 1 143.3305 58.7774 38.3899 0.0000 -33.7296 0.0000
# 2 58.7774 57.1035 25.7479 0.0000 -11.1460 0.0000
# 3 38.3899 25.7479 57.6087 0.0000 -8.0146 0.0000
# 4 0.0000 0.0000 0.0000 25.1276 0.0000 -8.3471
# 5 -33.7296 -11.1460 -8.0146 0.0000 34.8389 0.0000
# 6 0.0000 0.0000 0.0000 -8.3471 0.0000 31.9313
#
#
#
# Elastic Compliance Matrix: (Units=1/GPa)
#
#
# Indices 1 2 3 4 5 6 
#
# 1 0.015257 -0.012252 -0.003287 0.000000 0.010096 0.000000
# 2 -0.012252 0.032618 -0.006831 0.000000 -0.002998 0.000000
# 3 -0.003287 -0.006831 0.022578 0.000000 -0.000174 0.000000
# 4 0.000000 0.000000 0.000000 0.043581 0.000000 0.011392
# 5 0.010096 -0.002998 -0.000174 0.000000 0.037479 0.000000
# 6 0.000000 0.000000 0.000000 0.011392 0.000000 0.034295
#
#
# Mechanical properties :
#
#
# Convention : Reuss Voigt Hill
#
# Bulk Modulus (GPa) = 38.88996 55.98591 47.43794
# Shear Modulus (GPa) = 20.91007 27.38806 24.14907
#
# Velocity S-wave (km/s) = 3.15593 3.61185 3.39156
# Velocity P-wave (km/s) = 5.63949 6.63786 6.15894
#
# Compressibility (1/GPa) = 0.02571358
#
# Stress axis : x y z
#
# Youngs Moduli (GPa) = 65.54209 30.65783 44.29147
#
# Poissons Ratio (x) = 0.37562 0.14558
# Poissons Ratio (y) = 0.80302 0.30255
# Poissons Ratio (z) = 0.21543 0.20942
#
# Static dielectric constant tensor:
#      x y z
#    x 1.835410 0.000000 0.000010 
#    y 0.000000 1.808040 0.000000 
#    z 0.000010 0.000000 1.830580 
# 
# From -- ./inp_files/55607.got.cif
#   From: 2010.05.17/outbox.cif.g08.bks.cpg/sg15_28_cif.got.tgz:55607.got - 2010.06.03 18:47:42.
