data_PCOD9258693
_publ_section_title
;
Structure prediction by ZEFSAII (Michael W. Deem and Ramdas Pophale) SiO2 
 PCOD9258693
Probable space group: C 2/C
;
_chemical_formula_sum "Si O2"
_cell_formula_units_Z 64
_cell_length_a 14.308661
_cell_length_b 20.122493
_cell_length_c 10.981022
_cell_angle_alpha 90.000000
_cell_angle_beta 108.749289
_cell_angle_gamma 90.000000
_cell_volume 2993.941469
_symmetry_space_group_name_H-M "C 2/C"
_symmetry_group_IT_number 15
_symmetry_cell_setting 'monoclinic'
loop_
_space_group_symop_operation_xyz
x,y,z
-x,y,1/2-z
-x,-y,-z
x,-y,1/2+z
1/2+x,1/2+y,z
1/2-x,1/2+y,1/2-z
1/2-x,1/2-y,-z
1/2+x,1/2-y,1/2+z
loop_
_atom_site_type_symbol
_atom_site_label
_atom_site_fract_x
_atom_site_fract_y
_atom_site_fract_z
Si Si1 0.220629 0.709652 0.770665
Si Si2 0.248685 0.987345 0.518020
Si Si3 0.648739 0.170626 0.114597
Si Si4 0.394815 0.899471 0.143357
Si Si5 0.683762 0.562268 0.252254
Si Si6 0.905261 0.817582 0.884792
Si Si7 0.270194 0.835927 0.489823
Si Si8 0.474206 0.242127 0.119895
O O1 0.292295 0.759884 0.871040
O O2 0.185553 0.640871 0.811573
O O3 0.124062 0.756078 0.712495
O O4 0.262835 0.691918 0.655088
O O5 0.198242 0.978243 0.631302
O O6 0.282846 0.914676 0.489231
O O7 0.344107 0.032553 0.581400
O O8 0.186047 0.020173 0.379353
O O9 0.723258 0.113479 0.190782
O O10 0.558896 0.186672 0.164099
O O11 0.597219 0.146739 0.970955
O O12 0.500000 0.908034 0.250000
O O13 0.593620 0.613687 0.188130
O O14 0.812950 0.826273 0.941717
O O15 0.988440 0.790252 0.009226
O O16 0.370895 0.796522 0.560513
O O17 0.500000 0.284338 0.250000
#
# Coordination Sequence:
#
# PCOD9258693 Si02
#       8
#     8   8   8   8   8   8   8   8
#     4  10  18  34  52  70 100 140 175 215 260 303
#     4  10  20  34  52  76 106 143 176 205 251 314
#     4  10  21  34  51  77 106 134 173 218 262 306
#     4  11  22  34  49  75 109 143 173 206 252 315
#     4   9  19  35  52  75 105 139 175 212 253 308
#     4   9  18  32  50  75 105 134 171 221 262 300
#     4  10  19  32  51  77 106 136 172 215 257 306
#     4  11  18  29  51  79 105 133 167 214 267 312
#
# _framework density 21.376501999999999
#
# number of rings (size 3 to 8) (size 9 to 14) (size 15 to 20)
#    0.000    2.000    0.000    7.125    0.000    1.500 
#    0.000    3.125    0.000    0.000    0.000   25.375 
#    0.000    0.000    0.000    0.000    0.000    0.000 
#
# Total GULP energy -178260.134427 kJ/mol
# GULP energy per Si atom -5570.629201 kJ/mol
# Density = 2.132785 g / cm^3
# Si number density = 21.376502 Si / 1000 Ang^3
#
#
#
# Elastic Constant Matrix: (Units=GPa)
#
#
# Indices 1 2 3 4 5 6 
#
# 1 18.7599 11.7993 -7.4780 0.0000 -8.3169 0.0000
# 2 11.7993 137.9481 50.5275 0.0000 5.5885 0.0000
# 3 -7.4780 50.5275 118.5330 0.0000 -4.2096 0.0000
# 4 0.0000 0.0000 0.0000 72.5748 0.0000 -19.6270
# 5 -8.3169 5.5885 -4.2096 0.0000 18.1078 0.0000
# 6 0.0000 0.0000 0.0000 -19.6270 0.0000 14.2446
#
#
#
# Elastic Compliance Matrix: (Units=1/GPa)
#
#
# Indices 1 2 3 4 5 6 
#
# 1 0.089585 -0.014630 0.013622 0.000000 0.048829 0.000000
# 2 -0.014630 0.011210 -0.006113 0.000000 -0.011601 0.000000
# 3 0.013622 -0.006113 0.012293 0.000000 0.011001 0.000000
# 4 0.000000 0.000000 0.000000 0.021963 0.000000 0.030262
# 5 0.048829 -0.011601 0.011001 0.000000 0.083790 0.000000
# 6 0.000000 0.000000 0.000000 0.030262 0.000000 0.111898
#
#
# Mechanical properties :
#
#
# Convention : Reuss Voigt Hill
#
# Bulk Modulus (GPa) = 10.11691 42.77095 26.44393
# Shear Modulus (GPa) = 13.23002 35.67825 24.45414
#
# Velocity S-wave (km/s) = 2.49048 4.08982 3.38594
# Velocity P-wave (km/s) = 3.60735 6.50800 5.26151
#
# Compressibility (1/GPa) = 0.09884442
#
# Stress axis : x y z
#
# Youngs Moduli (GPa) = 11.16260 89.20881 81.35018
#
# Poissons Ratio (x) = 1.30515 -1.10818
# Poissons Ratio (y) = 0.16331 0.49732
# Poissons Ratio (z) = -0.15206 0.54537
#
# Static dielectric constant tensor:
#      x y z
#    x 1.837610 0.000000 -0.097830 
#    y 0.000000 1.776350 0.000000 
#    z -0.097830 0.000000 1.947580 
# 
# From -- ./inp_files/107326.got.cif
#   From: 2010.05.17/outbox.cif.g08.bks.cpg/sg15_54_cif.got.tgz:107326.got - 2010.06.03 18:47:42.
