data_PCOD9258357
_publ_section_title
;
Structure prediction by ZEFSAII (Michael W. Deem and Ramdas Pophale) SiO2 
 PCOD9258357
Probable space group: C 2/C
;
_chemical_formula_sum "Si O2"
_cell_formula_units_Z 40
_cell_length_a 12.924138
_cell_length_b 12.518222
_cell_length_c 20.159449
_cell_angle_alpha 90.000000
_cell_angle_beta 148.551881
_cell_angle_gamma 90.000000
_cell_volume 1701.631886
_symmetry_space_group_name_H-M "C 2/C"
_symmetry_group_IT_number 15
_symmetry_cell_setting 'monoclinic'
loop_
_space_group_symop_operation_xyz
x,y,z
-x,y,1/2-z
-x,-y,-z
x,-y,1/2+z
1/2+x,1/2+y,z
1/2-x,1/2+y,1/2-z
1/2-x,1/2-y,-z
1/2+x,1/2-y,1/2+z
loop_
_atom_site_type_symbol
_atom_site_label
_atom_site_fract_x
_atom_site_fract_y
_atom_site_fract_z
Si Si1 0.694059 0.573291 0.614467
Si Si2 0.736285 0.440286 0.378268
Si Si3 0.798130 0.570091 0.528511
Si Si4 0.182906 0.070555 0.228411
Si Si5 0.963490 0.260793 0.426104
O O1 0.500000 0.500000 0.500000
O O2 0.828044 0.554637 0.622777
O O3 0.753891 0.528625 0.719558
O O4 0.610921 0.692075 0.554534
O O5 0.500000 0.421041 0.250000
O O6 0.832048 0.467939 0.501029
O O7 0.763553 0.543824 0.345186
O O8 0.840868 0.341400 0.402854
O O9 0.557365 0.577018 0.392115
O O10 0.907580 0.672498 0.557208
O O11 0.197232 0.181803 0.197267
#
# Coordination Sequence:
#
# PCOD9258357 Si02
#       5
#     8   8   8   8   8
#     4   8  16  33  52  72 100 131 162 202 248 297
#     4  10  21  35  50  75 108 132 161 213 260 292
#     4   9  17  33  55  74  97 133 174 207 241 298
#     4   9  19  36  52  75 107 131 161 214 258 285
#     4  10  18  33  55  76  96 135 179 200 243 310
#
# _framework density 23.506847
#
# number of rings (size 3 to 8) (size 9 to 14) (size 15 to 20)
#    0.000    3.200    0.000    3.000    0.000    1.600 
#    0.000   27.000    0.000    0.000    0.000    0.000 
#    0.000    0.000    0.000    0.000    0.000    0.000 
#
# Total GULP energy -111495.980492 kJ/mol
# GULP energy per Si atom -5574.799025 kJ/mol
# Density = 2.345334 g / cm^3
# Si number density = 23.506847 Si / 1000 Ang^3
#
#
#
# Elastic Constant Matrix: (Units=GPa)
#
#
# Indices 1 2 3 4 5 6 
#
# 1 147.6664 93.6377 37.9866 0.0002 -0.4462 0.0000
# 2 93.6377 135.6903 30.5736 0.0006 -4.0878 0.0002
# 3 37.9866 30.5736 92.1618 0.0025 -11.1473 0.0010
# 4 0.0002 0.0006 0.0025 -2.9777 0.0004 -3.3457
# 5 -0.4462 -4.0878 -11.1473 0.0004 23.3379 0.0001
# 6 0.0000 0.0002 0.0010 -3.3457 0.0001 53.6594
#
#
#
# Elastic Compliance Matrix: (Units=1/GPa)
#
#
# Indices 1 2 3 4 5 6 
#
# 1 0.012687 -0.008197 -0.002817 -0.000004 -0.002539 0.000000
# 2 -0.008197 0.013261 -0.000805 0.000002 0.001781 0.000000
# 3 -0.002817 -0.000805 0.013007 0.000011 0.006018 0.000000
# 4 -0.000004 0.000002 0.000011 -0.313842 0.000011 -0.019568
# 5 -0.002539 0.001781 0.006018 0.000011 0.045987 0.000001
# 6 0.000000 0.000000 0.000000 -0.019568 0.000001 0.017416
#
#
# Mechanical properties :
#
#
# Convention : Reuss Voigt Hill
#
# Bulk Modulus (GPa) = 65.28924 77.76829 71.52877
# Shear Modulus (GPa) = -27.36100 29.02530 0.83215
#
# Velocity S-wave (km/s) = -3.41539 3.51773 0.59563
# Velocity P-wave (km/s) = 3.50453 7.04658 5.56489
#
# Compressibility (1/GPa) = 0.01531646
#
# Stress axis : x y z
#
# Youngs Moduli (GPa) = 78.82333 75.40810 76.88399
#
# Poissons Ratio (x) = 0.61809 0.21658
# Poissons Ratio (y) = 0.64608 0.06192
# Poissons Ratio (z) = 0.22205 0.06073
#
# Static dielectric constant tensor:
#      x y z
#    x 1.961340 0.000000 -0.027310 
#    y 0.000000 1.900230 0.000000 
#    z -0.027310 0.000000 2.040680 
# 
# From -- ./inp_files/236724.got.cif
#   From: 2010.05.17/outbox.cif.g08.bks.cpg/sg15_119_cif.got.tgz:236724.got - 2010.06.03 18:47:42.
