data_PCOD9258014
_publ_section_title
;
Structure prediction by ZEFSAII (Michael W. Deem and Ramdas Pophale) SiO2 
 PCOD9258014
Probable space group: C 2/C
;
_chemical_formula_sum "Si O2"
_cell_formula_units_Z 56
_cell_length_a 10.855794
_cell_length_b 18.755600
_cell_length_c 12.839939
_cell_angle_alpha 90.000000
_cell_angle_beta 59.210539
_cell_angle_gamma 90.000000
_cell_volume 2245.825531
_symmetry_space_group_name_H-M "C 2/C"
_symmetry_group_IT_number 15
_symmetry_cell_setting 'monoclinic'
loop_
_space_group_symop_operation_xyz
x,y,z
-x,y,1/2-z
-x,-y,-z
x,-y,1/2+z
1/2+x,1/2+y,z
1/2-x,1/2+y,1/2-z
1/2-x,1/2-y,-z
1/2+x,1/2-y,1/2+z
loop_
_atom_site_type_symbol
_atom_site_label
_atom_site_fract_x
_atom_site_fract_y
_atom_site_fract_z
Si Si1 0.838669 0.211074 0.225572
Si Si2 0.802143 0.316035 0.050271
Si Si3 0.422358 0.398721 0.939572
Si Si4 0.630036 0.553918 0.530767
Si Si5 0.829010 0.339133 0.338064
Si Si6 0.343644 0.981611 0.267846
Si Si7 0.929398 0.386704 0.665820
O O1 0.787066 0.257118 0.346714
O O2 0.712939 0.157042 0.258866
O O3 0.828813 0.274407 0.145703
O O4 0.981447 0.163336 0.153228
O O5 0.695195 0.383030 0.073392
O O6 0.955604 0.348960 0.954556
O O7 0.750000 0.250000 0.000000
O O8 0.418475 0.479221 0.894794
O O9 0.259142 0.371827 0.026672
O O10 0.503215 0.412436 0.015559
O O11 0.744949 0.523704 0.394448
O O12 0.788597 0.402320 0.272711
O O13 0.000000 0.330550 0.250000
O O14 0.500000 0.968744 0.250000
O O15 0.377389 0.033945 0.158408
O O16 0.000000 0.389942 0.750000
#
# Coordination Sequence:
#
# PCOD9258014 Si02
#       7
#     8   8   8   8   8   8   8
#     4  12  23  36  58  91 121 150 192 252 298 343
#     4  12  20  33  57  97 125 146 183 248 303 346
#     4  10  20  37  60  83 114 159 201 228 291 365
#     4  10  18  32  57  89 118 150 191 230 286 372
#     4  10  24  40  60  78 107 156 208 239 282 347
#     4   9  15  34  59  79 103 152 191 222 268 352
#     4  11  18  33  59  86 119 151 180 226 296 358
#
# _framework density 24.935151000000001
#
# number of rings (size 3 to 8) (size 9 to 14) (size 15 to 20)
#    0.000    1.429    7.143    0.857    0.000    0.571 
#    0.000    0.714    3.143    0.000    0.000    0.000 
#    0.000    0.000    0.000    0.000    0.000    0.000 
#
# Total GULP energy -155991.318715 kJ/mol
# GULP energy per Si atom -5571.118526 kJ/mol
# Density = 2.487840 g / cm^3
# Si number density = 24.935151 Si / 1000 Ang^3
#
#
#
# Elastic Constant Matrix: (Units=GPa)
#
#
# Indices 1 2 3 4 5 6 
#
# 1 58.8105 28.7317 33.1568 0.0000 -12.5319 0.0000
# 2 28.7317 232.2435 38.5618 0.0000 5.2786 0.0000
# 3 33.1568 38.5618 58.2338 0.0000 -19.1610 0.0000
# 4 0.0000 0.0000 0.0000 28.7914 0.0000 -11.4967
# 5 -12.5319 5.2786 -19.1610 0.0000 29.8384 0.0000
# 6 0.0000 0.0000 0.0000 -11.4967 0.0000 22.1020
#
#
#
# Elastic Compliance Matrix: (Units=1/GPa)
#
#
# Indices 1 2 3 4 5 6 
#
# 1 0.025325 -0.001052 -0.012884 0.000000 0.002548 0.000000
# 2 -0.001052 0.005225 -0.004198 0.000000 -0.004062 0.000000
# 3 -0.012884 -0.004198 0.032651 0.000000 0.016298 0.000000
# 4 0.000000 0.000000 0.000000 0.043838 0.000000 0.022803
# 5 0.002548 -0.004062 0.016298 0.000000 0.045769 0.000000
# 6 0.000000 0.000000 0.000000 0.022803 0.000000 0.057106
#
#
# Mechanical properties :
#
#
# Convention : Reuss Voigt Hill
#
# Bulk Modulus (GPa) = 37.12911 61.13203 49.13057
# Shear Modulus (GPa) = 19.59564 32.73551 26.16557
#
# Velocity S-wave (km/s) = 2.80637 3.62722 3.24287
# Velocity P-wave (km/s) = 5.04217 6.48937 5.81100
#
# Compressibility (1/GPa) = 0.02693305
#
# Stress axis : x y z
#
# Youngs Moduli (GPa) = 39.48728 191.37871 30.62728
#
# Poissons Ratio (x) = 0.20125 0.39461
# Poissons Ratio (y) = 0.04152 0.12857
# Poissons Ratio (z) = 0.50877 0.80337
#
# Static dielectric constant tensor:
#      x y z
#    x 2.043530 0.000000 0.063120 
#    y 0.000000 2.079640 0.000000 
#    z 0.063120 0.000000 2.028390 
# 
# From -- ./inp_files/199440.got.cif
#   From: 2010.05.17/outbox.cif.g08.bks.cpg/sg15_100_cif.got.tgz:199440.got - 2010.06.03 18:47:42.
