data_PCOD9258367
_publ_section_title
;
Structure prediction by ZEFSAII (Michael W. Deem and Ramdas Pophale) SiO2 
 PCOD9258367
Probable space group: C 2/C
;
_chemical_formula_sum "Si O2"
_cell_formula_units_Z 52
_cell_length_a 8.550928
_cell_length_b 16.535526
_cell_length_c 21.045815
_cell_angle_alpha 90.000000
_cell_angle_beta 114.458548
_cell_angle_gamma 90.000000
_cell_volume 2708.712884
_symmetry_space_group_name_H-M "C 2/C"
_symmetry_group_IT_number 15
_symmetry_cell_setting 'monoclinic'
loop_
_space_group_symop_operation_xyz
x,y,z
-x,y,1/2-z
-x,-y,-z
x,-y,1/2+z
1/2+x,1/2+y,z
1/2-x,1/2+y,1/2-z
1/2-x,1/2-y,-z
1/2+x,1/2-y,1/2+z
loop_
_atom_site_type_symbol
_atom_site_label
_atom_site_fract_x
_atom_site_fract_y
_atom_site_fract_z
Si Si1 0.212350 0.834765 0.129850
Si Si2 0.050188 0.903727 0.328815
Si Si3 0.759902 0.477734 0.042753
Si Si4 0.475135 0.549754 0.394412
Si Si5 0.000000 0.435631 0.250000
Si Si6 0.627421 0.338039 0.831383
Si Si7 0.870472 0.504595 0.359128
O O1 0.231311 0.888626 0.069376
O O2 0.346543 0.878489 0.200049
O O3 0.269456 0.742804 0.135714
O O4 0.024026 0.845249 0.129574
O O5 0.000000 0.876342 0.250000
O O6 0.954768 0.988328 0.331827
O O7 0.247627 0.929854 0.358001
O O8 0.675363 0.537541 0.080793
O O9 0.957462 0.500812 0.070085
O O10 0.645709 0.479494 0.960669
O O11 0.508823 0.636473 0.371015
O O12 0.936338 0.488346 0.298617
O O13 0.500000 0.328813 0.750000
O O14 0.759872 0.413154 0.844168
#
# Coordination Sequence:
#
# PCOD9258367 Si02
#       7
#     8   8   8   8   4   8   8
#     4  10  20  36  54  77 116 146 189 221 288 340
#     4  10  18  33  55  79 108 151 181 231 277 335
#     4   9  20  37  61  84 101 153 195 232 272 344
#     4   9  19  37  60  80 111 142 197 234 278 332
#     4  10  18  34  54  76 104 146 182 228 254 354
#     4  11  23  35  53  86 119 148 176 240 288 330
#     4  10  20  33  57  81 108 142 190 231 277 325
#
# _framework density 19.197309000000001
#
# number of rings (size 3 to 8) (size 9 to 14) (size 15 to 20)
#    0.000    2.154    2.308    1.846    4.308    3.077 
#    1.385    3.077    0.000    9.231    0.000    0.000 
#    0.000    0.000    0.000    0.000    0.000    0.000 
#
# Total GULP energy -144955.911005 kJ/mol
# GULP energy per Si atom -5575.227346 kJ/mol
# Density = 1.915361 g / cm^3
# Si number density = 19.197309 Si / 1000 Ang^3
#
#
#
# Elastic Constant Matrix: (Units=GPa)
#
#
# Indices 1 2 3 4 5 6 
#
# 1 96.3189 36.2964 20.3761 0.0000 10.7066 0.0000
# 2 36.2964 102.8562 8.6579 0.0000 -10.2877 0.0000
# 3 20.3761 8.6579 35.6002 0.0000 -7.2973 0.0000
# 4 0.0000 0.0000 0.0000 8.1282 0.0000 1.3125
# 5 10.7066 -10.2877 -7.2973 0.0000 32.4468 0.0000
# 6 0.0000 0.0000 0.0000 1.3125 0.0000 26.8493
#
#
#
# Elastic Compliance Matrix: (Units=1/GPa)
#
#
# Indices 1 2 3 4 5 6 
#
# 1 0.015446 -0.005562 -0.009324 0.000000 -0.008957 0.000000
# 2 -0.005562 0.012164 0.001459 0.000000 0.006020 0.000000
# 3 -0.009324 0.001459 0.035431 0.000000 0.011508 0.000000
# 4 0.000000 0.000000 0.000000 0.124007 0.000000 -0.006062
# 5 -0.008957 0.006020 0.011508 0.000000 0.038272 0.000000
# 6 0.000000 0.000000 0.000000 -0.006062 0.000000 0.037541
#
#
# Mechanical properties :
#
#
# Convention : Reuss Voigt Hill
#
# Bulk Modulus (GPa) = 27.63417 40.60403 34.11910
# Shear Modulus (GPa) = 16.56846 24.78117 20.67482
#
# Velocity S-wave (km/s) = 2.94098 3.59676 3.28527
# Velocity P-wave (km/s) = 5.09495 6.20046 5.67469
#
# Compressibility (1/GPa) = 0.03618708
#
# Stress axis : x y z
#
# Youngs Moduli (GPa) = 64.74054 82.20762 28.22421
#
# Poissons Ratio (x) = 0.45722 0.26317
# Poissons Ratio (y) = 0.36007 -0.04118
# Poissons Ratio (z) = 0.60366 -0.11994
#
# Static dielectric constant tensor:
#      x y z
#    x 1.725510 0.000000 -0.001480 
#    y 0.000000 1.655880 0.000000 
#    z -0.001480 0.000000 1.691050 
# 
# From -- ./inp_files/190456.got.cif
#   From: 2010.05.17/outbox.cif.g08.bks.cpg/sg15_96_cif.got.tgz:190456.got - 2010.06.03 18:47:42.
