data_PCOD9258161
_publ_section_title
;
Structure prediction by ZEFSAII (Michael W. Deem and Ramdas Pophale) SiO2 
 PCOD9258161
Probable space group: C 2/C
;
_chemical_formula_sum "Si O2"
_cell_formula_units_Z 56
_cell_length_a 19.361238
_cell_length_b 11.710063
_cell_length_c 14.390079
_cell_angle_alpha 90.000000
_cell_angle_beta 42.928204
_cell_angle_gamma 90.000000
_cell_volume 2222.053660
_symmetry_space_group_name_H-M "C 2/C"
_symmetry_group_IT_number 15
_symmetry_cell_setting 'monoclinic'
loop_
_space_group_symop_operation_xyz
x,y,z
-x,y,1/2-z
-x,-y,-z
x,-y,1/2+z
1/2+x,1/2+y,z
1/2-x,1/2+y,1/2-z
1/2-x,1/2-y,-z
1/2+x,1/2-y,1/2+z
loop_
_atom_site_type_symbol
_atom_site_label
_atom_site_fract_x
_atom_site_fract_y
_atom_site_fract_z
Si Si1 0.836616 0.571476 0.529085
Si Si2 0.903039 0.702161 0.697959
Si Si3 0.029456 0.124730 0.871020
Si Si4 0.297277 0.308562 0.644795
Si Si5 0.500000 0.207859 0.250000
Si Si6 0.000000 0.500000 0.500000
Si Si7 0.950057 0.114703 0.433369
Si Si8 0.740132 0.982348 0.079628
O O1 0.777264 0.679329 0.630984
O O2 0.766520 0.518143 0.519944
O O3 0.929318 0.626713 0.379576
O O4 0.892952 0.485753 0.543419
O O5 0.819671 0.786517 0.732127
O O6 0.851038 0.603360 0.807720
O O7 0.961998 0.630185 0.560030
O O8 0.988516 0.776981 0.660430
O O9 0.063088 0.210385 0.757241
O O10 0.070051 0.130855 0.935685
O O11 0.025494 0.992938 0.847260
O O12 0.909588 0.155611 0.998816
O O13 0.232483 0.408266 0.658602
O O14 0.843837 0.083917 0.494487
#
# Coordination Sequence:
#
# PCOD9258161 Si02
#       8
#     8   8   8   8   4   4   8   8
#     4  10  20  36  60  88 121 160 208 262 313 367
#     4  10  21  37  61  88 124 168 202 249 318 379
#     4   8  16  34  58  83 118 158 197 249 315 364
#     4   8  18  36  58  87 121 158 201 260 315 358
#     4  10  18  32  62  94 106 144 220 270 292 356
#     4  10  22  42  60  82 122 166 204 254 322 380
#     4   9  19  38  57  83 127 167 197 247 316 381
#     4  11  21  35  62  93 120 162 216 259 302 373
#
# _framework density 25.201912
#
# number of rings (size 3 to 8) (size 9 to 14) (size 15 to 20)
#    0.000    2.571    0.000    3.000    0.000    2.286 
#    0.000    5.000    0.000    6.857    0.000    0.000 
#    0.000    0.000    0.000    2.000    0.000    0.000 
#
# Total GULP energy -155983.791805 kJ/mol
# GULP energy per Si atom -5570.849707 kJ/mol
# Density = 2.514455 g / cm^3
# Si number density = 25.201912 Si / 1000 Ang^3
#
#
#
# Elastic Constant Matrix: (Units=GPa)
#
#
# Indices 1 2 3 4 5 6 
#
# 1 154.4622 60.9688 23.4286 0.0000 -0.1535 0.0000
# 2 60.9688 116.2445 24.7204 0.0000 -17.5432 0.0000
# 3 23.4286 24.7204 46.9710 0.0000 0.0141 0.0000
# 4 0.0000 0.0000 0.0000 15.2516 0.0000 1.3352
# 5 -0.1535 -17.5432 0.0141 0.0000 18.3967 0.0000
# 6 0.0000 0.0000 0.0000 1.3352 0.0000 36.9014
#
#
#
# Elastic Compliance Matrix: (Units=1/GPa)
#
#
# Indices 1 2 3 4 5 6 
#
# 1 0.008651 -0.004850 -0.001761 0.000000 -0.004551 0.000000
# 2 -0.004850 0.014280 -0.005101 0.000000 0.013581 0.000000
# 3 -0.001761 -0.005101 0.024854 0.000000 -0.004898 0.000000
# 4 0.000000 0.000000 0.000000 0.065775 0.000000 -0.002380
# 5 -0.004551 0.013581 -0.004898 0.000000 0.067275 0.000000
# 6 0.000000 0.000000 0.000000 -0.002380 0.000000 0.027185
#
#
# Mechanical properties :
#
#
# Convention : Reuss Voigt Hill
#
# Bulk Modulus (GPa) = 41.04725 59.54593 50.29659
# Shear Modulus (GPa) = 20.87116 28.01394 24.44255
#
# Velocity S-wave (km/s) = 2.88089 3.33765 3.11765
# Velocity P-wave (km/s) = 5.23343 6.20742 5.74112
#
# Compressibility (1/GPa) = 0.02436217
#
# Stress axis : x y z
#
# Youngs Moduli (GPa) = 115.59473 70.02566 40.23455
#
# Poissons Ratio (x) = 0.33959 0.07087
# Poissons Ratio (y) = 0.56058 0.20523
# Poissons Ratio (z) = 0.20360 0.35719
#
# Static dielectric constant tensor:
#      x y z
#    x 2.110270 0.000000 0.051380 
#    y 0.000000 1.991140 0.000000 
#    z 0.051380 0.000000 2.045560 
# 
# From -- ./inp_files/214808.got.cif
#   From: 2010.05.17/outbox.cif.g08.bks.cpg/sg15_108_cif.got.tgz:214808.got - 2010.06.03 18:47:42.
