data_PCOD9258966
_publ_section_title
;
Structure prediction by ZEFSAII (Michael W. Deem and Ramdas Pophale) SiO2 
 PCOD9258966
Probable space group: C 2/C
;
_chemical_formula_sum "Si O2"
_cell_formula_units_Z 64
_cell_length_a 19.850604
_cell_length_b 15.700716
_cell_length_c 15.189052
_cell_angle_alpha 90.000000
_cell_angle_beta 44.953830
_cell_angle_gamma 90.000000
_cell_volume 3344.711090
_symmetry_space_group_name_H-M "C 2/C"
_symmetry_group_IT_number 15
_symmetry_cell_setting 'monoclinic'
loop_
_space_group_symop_operation_xyz
x,y,z
-x,y,1/2-z
-x,-y,-z
x,-y,1/2+z
1/2+x,1/2+y,z
1/2-x,1/2+y,1/2-z
1/2-x,1/2-y,-z
1/2+x,1/2-y,1/2+z
loop_
_atom_site_type_symbol
_atom_site_label
_atom_site_fract_x
_atom_site_fract_y
_atom_site_fract_z
Si Si1 0.480573 0.522157 0.873496
Si Si2 0.048763 0.464125 0.300963
Si Si3 0.079053 0.819020 0.254031
Si Si4 0.609140 0.162548 0.491606
Si Si5 0.873031 0.358026 0.717959
Si Si6 0.770389 0.409058 0.462298
Si Si7 0.939455 0.157638 0.395486
Si Si8 0.785935 0.094372 0.997354
O O1 0.500000 0.510672 0.750000
O O2 0.552817 0.596187 0.833923
O O3 0.483650 0.425598 0.903330
O O4 0.375403 0.562177 0.973462
O O5 0.063725 0.557340 0.327550
O O6 0.151859 0.420272 0.187804
O O7 0.000000 0.473909 0.250000
O O8 0.978475 0.403446 0.419426
O O9 0.077798 0.731944 0.307425
O O10 0.175627 0.841892 0.112280
O O11 0.000000 0.811546 0.250000
O O12 0.660074 0.147382 0.351871
O O13 0.680014 0.144416 0.506934
O O14 0.567983 0.257190 0.541378
O O15 0.791308 0.367175 0.866510
O O16 0.668716 0.370331 0.529756
O O17 0.753078 0.506773 0.508869
O O18 0.000000 0.175179 0.250000
#
# Coordination Sequence:
#
# PCOD9258966 Si02
#       8
#     8   8   8   8   8   8   8   8
#     4   7  14  30  53  75  93 122 170 215 245 289
#     4   9  19  37  57  75 100 140 180 213 255 312
#     4   9  17  33  54  76  99 133 176 212 252 314
#     4  11  22  33  48  80 112 137 172 216 260 305
#     4  11  20  32  51  78 109 136 168 218 263 301
#     4   9  18  35  57  76  99 138 179 212 255 317
#     4  10  18  34  58  78 100 136 176 214 257 314
#     4   8  16  32  53  72  96 134 174 208 250 308
#
# _framework density 19.134687
#
# number of rings (size 3 to 8) (size 9 to 14) (size 15 to 20)
#    0.000    3.000    0.000    3.375    0.000    0.000 
#    0.000    9.375    0.000    0.000    0.000    1.750 
#    0.000    0.000    0.000    0.000    0.000    0.000 
#
# Total GULP energy -178235.776158 kJ/mol
# GULP energy per Si atom -5569.868005 kJ/mol
# Density = 1.909114 g / cm^3
# Si number density = 19.134687 Si / 1000 Ang^3
#
#
#
# Elastic Constant Matrix: (Units=GPa)
#
#
# Indices 1 2 3 4 5 6 
#
# 1 12.5882 24.6738 28.0378 0.0000 -6.9794 0.0000
# 2 24.6738 146.7987 39.6072 0.0000 2.8054 0.0000
# 3 28.0378 39.6072 34.1093 0.0000 -10.5760 0.0000
# 4 0.0000 0.0000 0.0000 -5.2664 0.0000 -12.2283
# 5 -6.9794 2.8054 -10.5760 0.0000 24.0064 0.0000
# 6 0.0000 0.0000 0.0000 -12.2283 0.0000 1.1451
#
#
#
# Elastic Compliance Matrix: (Units=1/GPa)
#
#
# Indices 1 2 3 4 5 6 
#
# 1 -0.086740 -0.008817 0.085753 0.000000 0.013591 0.000000
# 2 -0.008817 0.010236 -0.006723 0.000000 -0.006721 0.000000
# 3 0.085753 -0.006723 -0.029408 0.000000 0.012761 0.000000
# 4 0.000000 0.000000 0.000000 -0.007361 0.000000 -0.078607
# 5 0.013591 -0.006721 0.012761 0.000000 0.052014 0.000000
# 6 0.000000 0.000000 0.000000 -0.078607 0.000000 0.033854
#
#
# Mechanical properties :
#
#
# Convention : Reuss Voigt Hill
#
# Bulk Modulus (GPa) = 28.97394 42.01483 35.49439
# Shear Modulus (GPa) = -31.98434 10.72217 -10.63108
#
# Velocity S-wave (km/s) = -4.09288 2.36975 -2.35966
# Velocity P-wave (km/s) = 2.67592 5.43072 3.34156
#
# Compressibility (1/GPa) = 0.03451377
#
# Stress axis : x y z
#
# Youngs Moduli (GPa) = -11.52868 97.69202 -34.00400
#
# Poissons Ratio (x) = 0.86136 2.91593
# Poissons Ratio (y) = -0.10165 -0.22859
# Poissons Ratio (z) = 0.98862 0.65674
#
# Static dielectric constant tensor:
#      x y z
#    x 1.649890 0.000000 -0.031450 
#    y 0.000000 1.708390 0.000000 
#    z -0.031450 0.000000 1.675780 
# 
# From -- ./inp_files/173646.got.cif
#   From: 2010.05.17/outbox.cif.g08.bks.cpg/sg15_87_cif.got.tgz:173646.got - 2010.06.03 18:47:42.
