data_PCOD9258960
_publ_section_title
;
Structure prediction by ZEFSAII (Michael W. Deem and Ramdas Pophale) SiO2 
 PCOD9258960
Probable space group: C 2/C
;
_chemical_formula_sum "Si O2"
_cell_formula_units_Z 64
_cell_length_a 24.410715
_cell_length_b 7.775819
_cell_length_c 27.418036
_cell_angle_alpha 90.000000
_cell_angle_beta 150.105555
_cell_angle_gamma 90.000000
_cell_volume 2593.846274
_symmetry_space_group_name_H-M "C 2/C"
_symmetry_group_IT_number 15
_symmetry_cell_setting 'monoclinic'
loop_
_space_group_symop_operation_xyz
x,y,z
-x,y,1/2-z
-x,-y,-z
x,-y,1/2+z
1/2+x,1/2+y,z
1/2-x,1/2+y,1/2-z
1/2-x,1/2-y,-z
1/2+x,1/2-y,1/2+z
loop_
_atom_site_type_symbol
_atom_site_label
_atom_site_fract_x
_atom_site_fract_y
_atom_site_fract_z
Si Si1 0.206797 0.486961 0.962454
Si Si2 0.748698 0.104026 0.390673
Si Si3 0.232366 0.543783 0.224347
Si Si4 0.371106 0.330941 0.651533
Si Si5 0.284095 0.755919 0.882281
Si Si6 0.385741 0.100761 0.953652
Si Si7 0.912766 0.213385 0.840849
Si Si8 0.989355 0.718650 0.298043
O O1 0.267393 0.405532 0.962868
O O2 0.159736 0.668193 0.906211
O O3 0.100294 0.381988 0.895336
O O4 0.298319 0.515632 0.073531
O O5 0.788455 0.284708 0.400757
O O6 0.616390 0.092709 0.285624
O O7 0.809820 0.941238 0.413673
O O8 0.243427 0.703323 0.194758
O O9 0.144354 0.423469 0.126789
O O10 0.176905 0.629047 0.228427
O O11 0.348550 0.448834 0.313290
O O12 0.500000 0.352945 0.750000
O O13 0.321371 0.297081 0.666156
O O14 0.374817 0.903816 0.964581
O O15 0.493039 0.205764 0.051974
O O16 0.959555 0.171307 0.823229
O O17 0.000000 0.782144 0.250000
#
# Coordination Sequence:
#
# PCOD9258960 Si02
#       8
#     8   8   8   8   8   8   8   8
#     4   9  19  33  59  98 130 186 231 270 357 408
#     4  10  19  41  69  98 142 179 230 283 347 421
#     4  10  26  45  67 104 136 182 233 289 341 414
#     4  10  18  34  57  92 142 179 230 285 339 420
#     4   9  21  41  65  95 139 176 223 293 337 400
#     4  10  23  45  68 102 138 177 237 289 341 412
#     4  12  24  47  72  99 142 183 232 287 353 410
#     4  10  20  39  70 101 136 183 225 290 349 414
#
# _framework density 24.673784000000001
#
# number of rings (size 3 to 8) (size 9 to 14) (size 15 to 20)
#    0.750    1.250    1.250    3.000    1.750    1.000 
#    2.250   14.375    0.000    0.000    0.000    0.000 
#    0.000    0.000    0.000    0.000    0.000    0.000 
#
# Total GULP energy -178756.375275 kJ/mol
# GULP energy per Si atom -5586.136727 kJ/mol
# Density = 2.461762 g / cm^3
# Si number density = 24.673784 Si / 1000 Ang^3
#
#
#
# Elastic Constant Matrix: (Units=GPa)
#
#
# Indices 1 2 3 4 5 6 
#
# 1 120.2568 28.2849 38.0238 0.0002 1.6985 0.0006
# 2 28.2849 100.1321 23.4203 0.0002 11.4089 0.0010
# 3 38.0238 23.4203 107.8024 0.0001 17.9724 0.0001
# 4 0.0002 0.0002 0.0001 27.0219 0.0000 5.2705
# 5 1.6985 11.4089 17.9724 0.0000 23.5083 0.0000
# 6 0.0006 0.0010 0.0001 5.2705 0.0000 20.3978
#
#
#
# Elastic Compliance Matrix: (Units=1/GPa)
#
#
# Indices 1 2 3 4 5 6 
#
# 1 0.009932 -0.002337 -0.003513 0.000000 0.003102 0.000000
# 2 -0.002337 0.011385 -0.000866 0.000000 -0.004694 0.000000
# 3 -0.003513 -0.000866 0.012138 0.000000 -0.008605 0.000000
# 4 0.000000 0.000000 0.000000 0.038971 0.000000 -0.010070
# 5 0.003102 -0.004694 -0.008605 0.000000 0.051171 0.000000
# 6 0.000000 0.000000 0.000000 -0.010070 0.000000 0.051627
#
#
# Mechanical properties :
#
#
# Convention : Reuss Voigt Hill
#
# Bulk Modulus (GPa) = 49.94517 56.40548 53.17532
# Shear Modulus (GPa) = 25.59770 30.08311 27.84040
#
# Velocity S-wave (km/s) = 3.22443 3.49554 3.36272
# Velocity P-wave (km/s) = 5.84370 6.26114 6.05601
#
# Compressibility (1/GPa) = 0.02002196
#
# Stress axis : x y z
#
# Youngs Moduli (GPa) = 100.68313 87.83858 82.38545
#
# Poissons Ratio (x) = 0.20532 0.28939
# Poissons Ratio (y) = 0.23534 0.07137
# Poissons Ratio (z) = 0.35366 0.07609
#
# Static dielectric constant tensor:
#      x y z
#    x 1.963040 0.000000 -0.041620 
#    y 0.000000 2.010020 0.000000 
#    z -0.041620 0.000000 1.972400 
# 
# From -- ./inp_files/318651.got.cif
#   From: 2010.05.17/outbox.cif.g08.bks.cpg/sg15_160_cif.got.tgz:318651.got - 2010.06.03 18:47:42.
