data_PCOD9258987
_publ_section_title
;
Structure prediction by ZEFSAII (Michael W. Deem and Ramdas Pophale) SiO2 
 PCOD9258987
Probable space group: C 2/C
;
_chemical_formula_sum "Si O2"
_cell_formula_units_Z 44
_cell_length_a 9.348343
_cell_length_b 11.718109
_cell_length_c 16.580587
_cell_angle_alpha 90.000000
_cell_angle_beta 107.435235
_cell_angle_gamma 90.000000
_cell_volume 1732.870282
_symmetry_space_group_name_H-M "C 2/C"
_symmetry_group_IT_number 15
_symmetry_cell_setting 'monoclinic'
loop_
_space_group_symop_operation_xyz
x,y,z
-x,y,1/2-z
-x,-y,-z
x,-y,1/2+z
1/2+x,1/2+y,z
1/2-x,1/2+y,1/2-z
1/2-x,1/2-y,-z
1/2+x,1/2-y,1/2+z
loop_
_atom_site_type_symbol
_atom_site_label
_atom_site_fract_x
_atom_site_fract_y
_atom_site_fract_z
Si Si1 0.072985 0.703867 0.851487
Si Si2 0.798946 0.061902 0.121502
Si Si3 0.179772 0.920380 0.537666
Si Si4 0.581319 0.350211 0.092850
Si Si5 0.500000 0.602666 0.750000
Si Si6 0.004625 0.550764 0.348171
O O1 0.079628 0.837917 0.873449
O O2 0.250500 0.685327 0.894827
O O3 0.000000 0.704595 0.750000
O O4 0.007528 0.584897 0.875097
O O5 0.863754 0.978105 0.200807
O O6 0.638185 0.101093 0.129355
O O7 0.780103 0.989592 0.037327
O O8 0.101522 0.012077 0.583828
O O9 0.338652 0.889824 0.602227
O O10 0.059452 0.825365 0.489192
O O11 0.542137 0.327126 0.178563
O O12 0.000000 0.552325 0.250000
#
# Coordination Sequence:
#
# PCOD9258987 Si02
#       6
#     8   8   8   8   4   8
#     4  10  20  37  57  87 118 153 201 246 289 355
#     4  11  20  34  60  87 114 154 202 241 298 359
#     4   9  19  36  58  85 116 156 197 241 301 363
#     4   9  19  35  58  83 119 153 193 244 298 352
#     4  10  18  34  58  82 108 158 194 236 300 354
#     4  10  21  38  60  82 119 158 195 251 302 352
#
# _framework density 25.391399
#
# number of rings (size 3 to 8) (size 9 to 14) (size 15 to 20)
#    0.000    2.182    0.909    3.818    0.000    2.909 
#    1.636    0.909    0.000    0.000    0.000    0.000 
#    0.000    0.000    0.000    0.000    0.000    0.000 
#
# Total GULP energy -122754.741176 kJ/mol
# GULP energy per Si atom -5579.760963 kJ/mol
# Density = 2.533361 g / cm^3
# Si number density = 25.391399 Si / 1000 Ang^3
#
#
#
# Elastic Constant Matrix: (Units=GPa)
#
#
# Indices 1 2 3 4 5 6 
#
# 1 81.1298 12.9880 37.1512 0.0000 9.2945 0.0000
# 2 12.9880 80.6532 13.2222 0.0000 4.8725 0.0000
# 3 37.1512 13.2222 130.3613 0.0000 19.9006 0.0000
# 4 0.0000 0.0000 0.0000 50.4464 0.0000 15.7909
# 5 9.2945 4.8725 19.9006 0.0000 51.6602 0.0000
# 6 0.0000 0.0000 0.0000 15.7909 0.0000 43.6916
#
#
#
# Elastic Compliance Matrix: (Units=1/GPa)
#
#
# Indices 1 2 3 4 5 6 
#
# 1 0.014441 -0.001643 -0.003799 0.000000 -0.000980 0.000000
# 2 -0.001643 0.012822 -0.000736 0.000000 -0.000630 0.000000
# 3 -0.003799 -0.000736 0.009258 0.000000 -0.002813 0.000000
# 4 0.000000 0.000000 0.000000 0.022352 0.000000 -0.008078
# 5 -0.000980 -0.000630 -0.002813 0.000000 0.020677 0.000000
# 6 0.000000 0.000000 0.000000 -0.008078 0.000000 0.025807
#
#
# Mechanical properties :
#
#
# Convention : Reuss Voigt Hill
#
# Bulk Modulus (GPa) = 41.38448 46.54079 43.96263
# Shear Modulus (GPa) = 39.75551 44.41184 42.08368
#
# Velocity S-wave (km/s) = 3.96120 4.18675 4.07553
# Velocity P-wave (km/s) = 6.10372 6.46073 6.28476
#
# Compressibility (1/GPa) = 0.02416365
#
# Stress axis : x y z
#
# Youngs Moduli (GPa) = 69.24710 77.99007 108.01642
#
# Poissons Ratio (x) = 0.12818 0.41038
# Poissons Ratio (y) = 0.11381 0.07949
# Poissons Ratio (z) = 0.26309 0.05740
#
# Static dielectric constant tensor:
#      x y z
#    x 2.009230 0.000000 0.012680 
#    y 0.000000 2.118370 0.000000 
#    z 0.012680 0.000000 1.979870 
# 
# From -- ./inp_files/189007.got.cif
#   From: 2010.05.17/outbox.cif.g08.bks.cpg/sg15_95_cif.got.tgz:189007.got - 2010.06.03 18:47:42.
