data_PCOD9258379
_publ_section_title
;
Structure prediction by ZEFSAII (Michael W. Deem and Ramdas Pophale) SiO2 
 PCOD9258379
Probable space group: C 2/C
;
_chemical_formula_sum "Si O2"
_cell_formula_units_Z 60
_cell_length_a 19.653618
_cell_length_b 23.909183
_cell_length_c 5.451762
_cell_angle_alpha 90.000000
_cell_angle_beta 109.930994
_cell_angle_gamma 90.000000
_cell_volume 2408.352049
_symmetry_space_group_name_H-M "C 2/C"
_symmetry_group_IT_number 15
_symmetry_cell_setting 'monoclinic'
loop_
_space_group_symop_operation_xyz
x,y,z
-x,y,1/2-z
-x,-y,-z
x,-y,1/2+z
1/2+x,1/2+y,z
1/2-x,1/2+y,1/2-z
1/2-x,1/2-y,-z
1/2+x,1/2-y,1/2+z
loop_
_atom_site_type_symbol
_atom_site_label
_atom_site_fract_x
_atom_site_fract_y
_atom_site_fract_z
Si Si1 0.346718 0.650266 0.741212
Si Si2 0.003027 0.881447 0.503455
Si Si3 0.500000 0.035708 0.250000
Si Si4 0.125605 0.627095 0.390668
Si Si5 0.148148 0.190082 0.254679
Si Si6 0.088202 0.309442 0.345878
Si Si7 0.301274 0.022880 0.101828
Si Si8 0.137120 0.020965 0.881865
O O1 0.433998 0.660838 0.898621
O O2 0.317531 0.686110 0.475402
O O3 0.352099 0.585160 0.681265
O O4 0.311479 0.662332 0.962943
O O5 0.000000 0.914993 0.250000
O O6 0.076090 0.846415 0.614027
O O7 0.000000 0.914107 0.750000
O O8 0.566612 0.078010 0.302718
O O9 0.500000 0.000000 0.500000
O O10 0.113157 0.653030 0.643783
O O11 0.197255 0.589386 0.445162
O O12 0.114256 0.668110 0.144544
O O13 0.123799 0.250296 0.318899
O O14 0.000000 0.306640 0.250000
O O15 0.219815 0.999175 0.019612
O O16 0.334503 0.991680 0.907168
O O17 0.105079 0.988679 0.610981
#
# Coordination Sequence:
#
# PCOD9258379 Si02
#       8
#     8   8   4   8   8   8   8   8
#     4  10  18  33  55  82 108 140 191 224 274 325
#     4   8  15  27  46  72 100 134 178 207 253 308
#     4  12  22  36  54  76 110 148 180 216 280 338
#     4  12  23  37  55  83 114 147 182 239 275 328
#     4  10  20  33  56  79 109 155 183 224 262 338
#     4  12  22  37  54  83 120 144 191 226 279 318
#     4  10  21  40  61  81 105 146 191 224 281 341
#     4  10  21  37  61  86 108 137 184 244 281 321
#
# _framework density 24.913298999999999
#
# number of rings (size 3 to 8) (size 9 to 14) (size 15 to 20)
#    0.000    1.600    1.333    5.200    0.000    2.133 
#    0.000    0.000    0.000   26.400    0.000    0.000 
#    0.000    0.000    0.000    0.000    0.000    0.000 
#
# Total GULP energy -167460.738410 kJ/mol
# GULP energy per Si atom -5582.024614 kJ/mol
# Density = 2.485659 g / cm^3
# Si number density = 24.913299 Si / 1000 Ang^3
#
#
#
# Elastic Constant Matrix: (Units=GPa)
#
#
# Indices 1 2 3 4 5 6 
#
# 1 28.4704 18.9981 36.1583 0.0000 -9.9339 0.0000
# 2 18.9981 103.1070 44.3000 0.0000 -13.5126 0.0000
# 3 36.1583 44.3000 213.5599 0.0000 -68.0255 0.0000
# 4 0.0000 0.0000 0.0000 54.5532 0.0000 -14.6252
# 5 -9.9339 -13.5126 -68.0255 0.0000 30.5652 0.0000
# 6 0.0000 0.0000 0.0000 -14.6252 0.0000 18.9450
#
#
#
# Elastic Compliance Matrix: (Units=1/GPa)
#
#
# Indices 1 2 3 4 5 6 
#
# 1 0.048346 -0.005866 -0.009584 0.000000 -0.008211 0.000000
# 2 -0.005866 0.011364 -0.001275 0.000000 0.000280 0.000000
# 3 -0.009584 -0.001275 0.018545 0.000000 0.037594 0.000000
# 4 0.000000 0.000000 0.000000 0.023115 0.000000 0.017844
# 5 -0.008211 0.000280 0.037594 0.000000 0.113841 0.000000
# 6 0.000000 0.000000 0.000000 0.017844 0.000000 0.066560
#
#
# Mechanical properties :
#
#
# Convention : Reuss Voigt Hill
#
# Bulk Modulus (GPa) = 22.31951 60.45001 41.38476
# Shear Modulus (GPa) = 15.14443 37.19141 26.16792
#
# Velocity S-wave (km/s) = 2.46821 3.86791 3.24444
# Velocity P-wave (km/s) = 4.13534 6.65316 5.53920
#
# Compressibility (1/GPa) = 0.04480385
#
# Stress axis : x y z
#
# Youngs Moduli (GPa) = 20.68428 87.99710 53.92419
#
# Poissons Ratio (x) = 0.51621 0.51682
# Poissons Ratio (y) = 0.12134 0.06875
# Poissons Ratio (z) = 0.19824 0.11219
#
# Static dielectric constant tensor:
#      x y z
#    x 2.244140 0.000000 -0.024750 
#    y 0.000000 1.920280 0.000000 
#    z -0.024750 0.000000 2.033770 
# 
# From -- ./inp_files/17477.got.cif
#   From: 2010.05.17/outbox.cif.g08.bks.cpg/sg15_9_cif.got.tgz:17477.got - 2010.06.03 18:47:42.
