data_PCOD9258874
_publ_section_title
;
Structure prediction by ZEFSAII (Michael W. Deem and Ramdas Pophale) SiO2 
 PCOD9258874
Probable space group: C 2/C
;
_chemical_formula_sum "Si O2"
_cell_formula_units_Z 60
_cell_length_a 13.874034
_cell_length_b 7.433092
_cell_length_c 22.507628
_cell_angle_alpha 90.000000
_cell_angle_beta 85.657002
_cell_angle_gamma 90.000000
_cell_volume 2314.478535
_symmetry_space_group_name_H-M "C 2/C"
_symmetry_group_IT_number 15
_symmetry_cell_setting 'monoclinic'
loop_
_space_group_symop_operation_xyz
x,y,z
-x,y,1/2-z
-x,-y,-z
x,-y,1/2+z
1/2+x,1/2+y,z
1/2-x,1/2+y,1/2-z
1/2-x,1/2-y,-z
1/2+x,1/2-y,1/2+z
loop_
_atom_site_type_symbol
_atom_site_label
_atom_site_fract_x
_atom_site_fract_y
_atom_site_fract_z
Si Si1 0.500000 0.823390 0.250000
Si Si2 0.931555 0.400124 0.658870
Si Si3 0.680801 0.906613 0.195386
Si Si4 0.273633 0.930798 0.932068
Si Si5 0.617209 0.596524 0.026893
Si Si6 0.629726 0.694464 0.741495
Si Si7 0.531398 0.213771 0.034600
Si Si8 0.727919 0.542305 0.626109
O O1 0.523065 0.931192 0.309415
O O2 0.605679 0.756282 0.224808
O O3 0.948668 0.226061 0.701473
O O4 0.820957 0.453019 0.651456
O O5 0.979733 0.367543 0.593815
O O6 0.692125 0.951168 0.125600
O O7 0.644266 0.097075 0.223022
O O8 0.781626 0.872304 0.222058
O O9 0.363085 0.879770 0.972165
O O10 0.245318 0.734239 0.906184
O O11 0.186255 0.032750 0.969155
O O12 0.552029 0.423690 0.045625
O O13 0.687924 0.596393 0.079501
O O14 0.547272 0.763705 0.014701
O O15 0.647693 0.593914 0.678722
#
# Coordination Sequence:
#
# PCOD9258874 Si02
#       8
#     4   8   8   8   8   8   8   8
#     4  10  18  34  56  86 110 150 190 242 290 370
#     4  11  21  35  61  86 117 153 204 242 306 368
#     4  10  19  34  62  81 116 149 203 240 305 367
#     4  10  20  39  63  84 116 165 203 249 317 362
#     4  10  22  39  61  85 120 159 212 256 306 364
#     4  10  19  34  57  88 112 154 194 249 304 368
#     4  10  20  37  61  86 115 156 212 254 292 376
#     4  10  20  36  58  84 118 156 194 254 304 368
#
# _framework density 25.923766000000001
#
# number of rings (size 3 to 8) (size 9 to 14) (size 15 to 20)
#    0.000    1.867    4.000    2.400    1.867    0.533 
#    0.000    2.667   11.733    3.200    0.000    0.000 
#    0.000    0.000    0.000    0.000    0.000    0.000 
#
# Total GULP energy -167409.274566 kJ/mol
# GULP energy per Si atom -5580.309152 kJ/mol
# Density = 2.586476 g / cm^3
# Si number density = 25.923766 Si / 1000 Ang^3
#
#
#
# Elastic Constant Matrix: (Units=GPa)
#
#
# Indices 1 2 3 4 5 6 
#
# 1 44.5007 -34.8893 75.9992 0.0000 4.4779 0.0000
# 2 -34.8893 -1.9355 96.0333 0.0000 -15.5926 0.0000
# 3 75.9992 96.0333 63.3931 0.0000 10.5813 0.0000
# 4 0.0000 0.0000 0.0000 3.8163 0.0000 5.5546
# 5 4.4779 -15.5926 10.5813 0.0000 54.5118 0.0000
# 6 0.0000 0.0000 0.0000 5.5546 0.0000 27.2707
#
#
#
# Elastic Compliance Matrix: (Units=1/GPa)
#
#
# Indices 1 2 3 4 5 6 
#
# 1 0.010373 -0.009660 0.002896 0.000000 -0.004177 0.000000
# 2 -0.009660 0.002986 0.007010 0.000000 0.000287 0.000000
# 3 0.002896 0.007010 0.001435 0.000000 0.001489 0.000000
# 4 0.000000 0.000000 0.000000 0.372452 0.000000 -0.075862
# 5 -0.004177 0.000287 0.001489 0.000000 0.018481 0.000000
# 6 0.000000 0.000000 0.000000 -0.075862 0.000000 0.052121
#
#
# Mechanical properties :
#
#
# Convention : Reuss Voigt Hill
#
# Bulk Modulus (GPa) = 65.42351 42.24941 53.83646
# Shear Modulus (GPa) = 10.81194 15.04076 12.92635
#
# Velocity S-wave (km/s) = 2.04444 2.41133 2.23542
# Velocity P-wave (km/s) = 5.55559 4.90771 5.24167
#
# Compressibility (1/GPa) = 0.01528503
#
# Stress axis : x y z
#
# Youngs Moduli (GPa) = 96.40403 334.92378 696.86302
#
# Poissons Ratio (x) = 3.23542 -2.01783
# Poissons Ratio (y) = 0.93128 -4.88516
# Poissons Ratio (z) = -0.27915 -2.34789
#
# Static dielectric constant tensor:
#      x y z
#    x 2.266420 0.000000 -0.047380 
#    y 0.000000 2.056340 0.000000 
#    z -0.047380 0.000000 2.070990 
# 
# From -- ./inp_files/272713.got.cif
#   From: 2010.05.17/outbox.cif.g08.bks.cpg/sg15_137_cif.got.tgz:272713.got - 2010.06.03 18:47:42.
