data_PCOD9258519
_publ_section_title
;
Structure prediction by ZEFSAII (Michael W. Deem and Ramdas Pophale) SiO2 
 PCOD9258519
Probable space group: C 2/C
;
_chemical_formula_sum "Si O2"
_cell_formula_units_Z 64
_cell_length_a 29.152691
_cell_length_b 14.439320
_cell_length_c 12.304096
_cell_angle_alpha 90.000000
_cell_angle_beta 143.606373
_cell_angle_gamma 90.000000
_cell_volume 3073.059273
_symmetry_space_group_name_H-M "C 2/C"
_symmetry_group_IT_number 15
_symmetry_cell_setting 'monoclinic'
loop_
_space_group_symop_operation_xyz
x,y,z
-x,y,1/2-z
-x,-y,-z
x,-y,1/2+z
1/2+x,1/2+y,z
1/2-x,1/2+y,1/2-z
1/2-x,1/2-y,-z
1/2+x,1/2-y,1/2+z
loop_
_atom_site_type_symbol
_atom_site_label
_atom_site_fract_x
_atom_site_fract_y
_atom_site_fract_z
Si Si1 0.243775 0.322338 0.891123
Si Si2 0.627496 0.982554 0.746211
Si Si3 0.351688 0.413565 0.642181
Si Si4 0.984527 0.395197 0.595597
Si Si5 0.241425 0.686348 0.759053
Si Si6 0.629023 0.572921 0.964660
Si Si7 0.250167 0.497026 0.136104
Si Si8 0.088249 0.208523 0.056814
O O1 0.187600 0.407903 0.812351
O O2 0.217785 0.267460 0.733058
O O3 0.332357 0.355301 0.043845
O O4 0.250000 0.250000 0.000000
O O5 0.554622 0.929773 0.656343
O O6 0.593539 0.054376 0.594875
O O7 0.671380 0.032001 0.930542
O O8 0.289899 0.358869 0.449510
O O9 0.397957 0.481702 0.649578
O O10 0.309815 0.480988 0.650648
O O11 0.397364 0.338665 0.799834
O O12 0.976829 0.285398 0.568097
O O13 0.000000 0.417917 0.750000
O O14 0.230631 0.604390 0.648509
O O15 0.164889 0.735736 0.661108
O O16 0.706025 0.545091 0.181146
O O17 0.576087 0.625394 0.948888
#
# Coordination Sequence:
#
# PCOD9258519 Si02
#       8
#     8   8   8   8   8   8   8   8
#     4  11  20  34  56  89 116 148 190 244 307 359
#     4  11  23  39  59  84 120 158 199 240 294 354
#     4  10  18  34  55  91 122 146 187 251 308 355
#     4  11  26  42  58  80 117 171 208 239 280 353
#     4  10  19  31  55  91 120 152 185 239 309 358
#     4   9  20  32  59  93 116 150 181 244 318 355
#     4  10  18  33  58  87 123 144 183 242 304 358
#     4  10  21  36  57  85 120 156 203 241 292 362
#
# _framework density 20.826152
#
# number of rings (size 3 to 8) (size 9 to 14) (size 15 to 20)
#    0.000    1.750    2.500    1.875    5.250    2.000 
#    2.250    0.000    0.000    0.750    0.000    0.000 
#    0.000    0.000    0.000    0.000    0.000    0.000 
#
# Total GULP energy -178422.945948 kJ/mol
# GULP energy per Si atom -5575.717061 kJ/mol
# Density = 2.077875 g / cm^3
# Si number density = 20.826152 Si / 1000 Ang^3
#
#
#
# Elastic Constant Matrix: (Units=GPa)
#
#
# Indices 1 2 3 4 5 6 
#
# 1 44.7611 22.6526 20.8472 0.0000 -24.1540 0.0000
# 2 22.6526 81.1904 31.4402 0.0000 -17.5803 0.0000
# 3 20.8472 31.4402 82.3827 0.0000 -18.0055 0.0000
# 4 0.0000 0.0000 0.0000 32.4417 0.0000 -0.9045
# 5 -24.1540 -17.5803 -18.0055 0.0000 24.5135 0.0000
# 6 0.0000 0.0000 0.0000 -0.9045 0.0000 32.2002
#
#
#
# Elastic Compliance Matrix: (Units=1/GPa)
#
#
# Indices 1 2 3 4 5 6 
#
# 1 0.048771 -0.003448 -0.001266 0.000000 0.044653 0.000000
# 2 -0.003448 0.015962 -0.004121 0.000000 0.005023 0.000000
# 3 -0.001266 -0.004121 0.015621 0.000000 0.007270 0.000000
# 4 0.000000 0.000000 0.000000 0.030849 0.000000 0.000867
# 5 0.044653 0.005023 0.007270 0.000000 0.093734 0.000000
# 6 0.000000 0.000000 0.000000 0.000867 0.000000 0.031080
#
#
# Mechanical properties :
#
#
# Convention : Reuss Voigt Hill
#
# Bulk Modulus (GPa) = 15.95352 39.80159 27.87755
# Shear Modulus (GPa) = 18.20939 26.72402 22.46670
#
# Velocity S-wave (km/s) = 2.96015 3.58606 3.28803
# Velocity P-wave (km/s) = 4.40003 6.02489 5.27539
#
# Compressibility (1/GPa) = 0.06268210
#
# Stress axis : x y z
#
# Youngs Moduli (GPa) = 20.50383 62.64721 64.01724
#
# Poissons Ratio (x) = 0.21603 0.08108
# Poissons Ratio (y) = 0.07070 0.26384
# Poissons Ratio (z) = 0.02597 0.25820
#
# Static dielectric constant tensor:
#      x y z
#    x 1.771930 0.000000 -0.014160 
#    y 0.000000 1.791240 0.000000 
#    z -0.014160 0.000000 1.775940 
# 
# From -- ./inp_files/126889.got.cif
#   From: 2010.05.17/outbox.cif.g08.bks.cpg/sg15_64_cif.got.tgz:126889.got - 2010.06.03 18:47:42.
