data_PCOD9258200
_publ_section_title
;
Structure prediction by ZEFSAII (Michael W. Deem and Ramdas Pophale) SiO2 
 PCOD9258200
Probable space group: C 2/C
;
_chemical_formula_sum "Si O2"
_cell_formula_units_Z 64
_cell_length_a 16.540892
_cell_length_b 17.867896
_cell_length_c 11.399622
_cell_angle_alpha 90.000000
_cell_angle_beta 125.682617
_cell_angle_gamma 90.000000
_cell_volume 2736.642979
_symmetry_space_group_name_H-M "C 2/C"
_symmetry_group_IT_number 15
_symmetry_cell_setting 'monoclinic'
loop_
_space_group_symop_operation_xyz
x,y,z
-x,y,1/2-z
-x,-y,-z
x,-y,1/2+z
1/2+x,1/2+y,z
1/2-x,1/2+y,1/2-z
1/2-x,1/2-y,-z
1/2+x,1/2-y,1/2+z
loop_
_atom_site_type_symbol
_atom_site_label
_atom_site_fract_x
_atom_site_fract_y
_atom_site_fract_z
Si Si1 0.860594 0.501295 0.927776
Si Si2 0.682073 0.433838 0.438903
Si Si3 0.244381 0.069190 0.614767
Si Si4 0.346893 0.796492 0.105073
Si Si5 0.031461 0.392067 0.625488
Si Si6 0.300752 0.806590 0.635589
Si Si7 0.523315 0.239029 0.571810
Si Si8 0.890050 0.164633 0.829818
O O1 0.772623 0.532267 0.936014
O O2 0.824569 0.533354 0.770855
O O3 0.889367 0.418031 0.908897
O O4 0.959547 0.536570 0.070746
O O5 0.664537 0.509496 0.496403
O O6 0.719986 0.372717 0.565278
O O7 0.612649 0.388846 0.287755
O O8 0.311769 0.117329 0.582887
O O9 0.178364 0.125764 0.633051
O O10 0.385063 0.767208 0.263832
O O11 0.431241 0.778568 0.081418
O O12 0.250000 0.750000 0.000000
O O13 0.098056 0.357407 0.786224
O O14 0.966013 0.326139 0.514503
O O15 0.250000 0.750000 0.500000
O O16 0.338821 0.745131 0.760163
O O17 0.495835 0.313644 0.476370
#
# Coordination Sequence:
#
# PCOD9258200 Si02
#       8
#     8   8   8   8   8   8   8   8
#     4  10  20  31  50  81 123 156 185 236 304 364
#     4  10  20  34  56  83 119 159 197 246 296 363
#     4  11  19  36  53  87 121 151 207 241 299 365
#     4  11  21  34  56  86 116 154 198 250 302 358
#     4  10  18  33  49  79 120 158 185 235 295 361
#     4   9  18  34  52  76 109 159 202 234 288 358
#     4  10  20  35  56  82 118 158 197 243 295 353
#     4   9  20  36  58  81 117 159 197 247 291 353
#
# _framework density 23.386317999999999
#
# number of rings (size 3 to 8) (size 9 to 14) (size 15 to 20)
#    0.000    2.000    3.750    0.750    0.000    0.500 
#    0.000    0.000    0.000    0.750    0.000    0.000 
#    0.000    0.000    0.000    0.000    0.000    0.000 
#
# Total GULP energy -178175.675015 kJ/mol
# GULP energy per Si atom -5567.989844 kJ/mol
# Density = 2.333309 g / cm^3
# Si number density = 23.386318 Si / 1000 Ang^3
#
#
#
# Elastic Constant Matrix: (Units=GPa)
#
#
# Indices 1 2 3 4 5 6 
#
# 1 35.4030 10.5761 7.2439 0.0000 1.3037 0.0000
# 2 10.5761 104.8305 56.1258 0.0000 8.7067 0.0000
# 3 7.2439 56.1258 132.8197 0.0000 9.3767 0.0000
# 4 0.0000 0.0000 0.0000 42.4485 0.0000 -2.6864
# 5 1.3037 8.7067 9.3767 0.0000 24.9279 0.0000
# 6 0.0000 0.0000 0.0000 -2.6864 0.0000 18.2826
#
#
#
# Elastic Compliance Matrix: (Units=1/GPa)
#
#
# Indices 1 2 3 4 5 6 
#
# 1 0.029149 -0.002676 -0.000429 0.000000 -0.000429 0.000000
# 2 -0.002676 0.012717 -0.005058 0.000000 -0.002399 0.000000
# 3 -0.000429 -0.005058 0.009825 0.000000 -0.001906 0.000000
# 4 0.000000 0.000000 0.000000 0.023779 0.000000 0.003494
# 5 -0.000429 -0.002399 -0.001906 0.000000 0.041693 0.000000
# 6 0.000000 0.000000 0.000000 0.003494 0.000000 0.055210
#
#
# Mechanical properties :
#
#
# Convention : Reuss Voigt Hill
#
# Bulk Modulus (GPa) = 28.27699 46.77167 37.52433
# Shear Modulus (GPa) = 24.93935 30.40562 27.67249
#
# Velocity S-wave (km/s) = 3.26913 3.60967 3.44361
# Velocity P-wave (km/s) = 5.13489 6.11685 5.64726
#
# Compressibility (1/GPa) = 0.03536444
#
# Stress axis : x y z
#
# Youngs Moduli (GPa) = 34.30648 78.63720 101.78617
#
# Poissons Ratio (x) = 0.21040 0.04366
# Poissons Ratio (y) = 0.09179 0.51488
# Poissons Ratio (z) = 0.01471 0.39778
#
# Static dielectric constant tensor:
#      x y z
#    x 1.961650 0.000000 -0.029070 
#    y 0.000000 2.000810 0.000000 
#    z -0.029070 0.000000 1.929880 
# 
# From -- ./inp_files/113686.got.cif
#   From: 2010.05.17/outbox.cif.g08.bks.cpg/sg15_57_cif.got.tgz:113686.got - 2010.06.03 18:47:42.
