data_PCOD9258036
_publ_section_title
;
Structure prediction by ZEFSAII (Michael W. Deem and Ramdas Pophale) SiO2 
 PCOD9258036
Probable space group: C 2/C
;
_chemical_formula_sum "Si O2"
_cell_formula_units_Z 52
_cell_length_a 22.290531
_cell_length_b 7.469252
_cell_length_c 29.503808
_cell_angle_alpha 90.000000
_cell_angle_beta 152.607447
_cell_angle_gamma 90.000000
_cell_volume 2260.024231
_symmetry_space_group_name_H-M "C 2/C"
_symmetry_group_IT_number 15
_symmetry_cell_setting 'monoclinic'
loop_
_space_group_symop_operation_xyz
x,y,z
-x,y,1/2-z
-x,-y,-z
x,-y,1/2+z
1/2+x,1/2+y,z
1/2-x,1/2+y,1/2-z
1/2-x,1/2-y,-z
1/2+x,1/2-y,1/2+z
loop_
_atom_site_type_symbol
_atom_site_label
_atom_site_fract_x
_atom_site_fract_y
_atom_site_fract_z
Si Si1 0.528426 0.870962 0.867913
Si Si2 0.634425 0.285449 0.030678
Si Si3 0.385695 0.934373 0.355489
Si Si4 0.794949 0.014613 0.589860
Si Si5 0.971975 0.051921 0.129526
Si Si6 0.252149 0.745920 0.195300
Si Si7 0.500000 0.185866 0.250000
O O1 0.501971 0.659424 0.852384
O O2 0.500114 0.922976 0.796905
O O3 0.449530 0.971291 0.854110
O O4 0.678481 0.909581 0.980714
O O5 0.698419 0.366386 0.118499
O O6 0.728358 0.119228 0.080470
O O7 0.490088 0.207782 0.943132
O O8 0.614960 0.403232 0.972861
O O9 0.259388 0.841700 0.248770
O O10 0.344796 0.079125 0.364443
O O11 0.875457 0.179519 0.664817
O O12 0.892694 0.909658 0.622158
O O13 0.103845 0.166126 0.216136
#
# Coordination Sequence:
#
# PCOD9258036 Si02
#       7
#     8   8   8   8   8   8   4
#     4  10  21  37  56  83 116 146 183 228 271 324
#     4  10  21  37  59  83 110 147 184 224 279 330
#     4  10  23  40  57  82 112 144 184 233 275 319
#     4  10  20  35  55  83 118 146 181 229 273 323
#     4  10  20  36  57  84 114 146 182 227 274 323
#     4  11  22  39  59  80 110 146 187 229 274 330
#     4  10  18  32  58  84 108 152 186 216 278 330
#
# _framework density 23.008603999999998
#
# number of rings (size 3 to 8) (size 9 to 14) (size 15 to 20)
#    0.000    1.846    0.000    5.538    0.000    2.462 
#    0.000   10.000    0.000    0.923    0.000    0.000 
#    0.000    0.000    0.000    0.000    0.000    0.000 
#
# Total GULP energy -145380.250830 kJ/mol
# GULP energy per Si atom -5591.548109 kJ/mol
# Density = 2.295623 g / cm^3
# Si number density = 23.008604 Si / 1000 Ang^3
#
#
#
# Elastic Constant Matrix: (Units=GPa)
#
#
# Indices 1 2 3 4 5 6 
#
# 1 59.6930 -2.1928 30.7310 0.0002 -1.8705 0.0001
# 2 -2.1928 24.7930 -1.5676 0.0012 -1.7497 -0.0010
# 3 30.7310 -1.5676 108.5341 -0.0005 -29.5196 0.0004
# 4 0.0002 0.0012 -0.0005 21.6705 -0.0001 -0.6171
# 5 -1.8705 -1.7497 -29.5196 -0.0001 32.7569 0.0002
# 6 0.0001 -0.0010 0.0004 -0.6171 0.0002 27.4820
#
#
#
# Elastic Compliance Matrix: (Units=1/GPa)
#
#
# Indices 1 2 3 4 5 6 
#
# 1 0.020312 0.000974 -0.007163 0.000000 -0.005243 0.000000
# 2 0.000974 0.040732 0.001218 -0.000002 0.003329 0.000001
# 3 -0.007163 0.001218 0.014791 0.000000 0.012986 0.000000
# 4 0.000000 -0.000002 0.000000 0.046175 0.000000 0.001037
# 5 -0.005243 0.003329 0.012986 0.000000 0.042109 0.000000
# 6 0.000000 0.000001 0.000000 0.001037 0.000000 0.036411
#
#
# Mechanical properties :
#
#
# Convention : Reuss Voigt Hill
#
# Bulk Modulus (GPa) = 15.17641 27.44014 21.30828
# Shear Modulus (GPa) = 21.51123 27.45184 24.48154
#
# Velocity S-wave (km/s) = 3.06097 3.45789 3.26547
# Velocity P-wave (km/s) = 4.37069 5.28154 4.84756
#
# Compressibility (1/GPa) = 0.06589174
#
# Stress axis : x y z
#
# Youngs Moduli (GPa) = 49.23298 24.55073 67.60680
#
# Poissons Ratio (x) = -0.02390 0.48428
# Poissons Ratio (y) = -0.04793 -0.08235
# Poissons Ratio (z) = 0.35267 -0.02990
#
# Static dielectric constant tensor:
#      x y z
#    x 1.847250 0.000000 0.002780 
#    y 0.000000 1.874800 0.000000 
#    z 0.002780 0.000000 1.885560 
# 
# From -- ./inp_files/121592.got.cif
#   From: 2010.05.17/outbox.cif.g08.bks.cpg/sg15_61_cif.got.tgz:121592.got - 2010.06.03 18:47:42.
