data_PCOD9258426
_publ_section_title
;
Structure prediction by ZEFSAII (Michael W. Deem and Ramdas Pophale) SiO2 
 PCOD9258426
Probable space group: C 2/C
;
_chemical_formula_sum "Si O2"
_cell_formula_units_Z 40
_cell_length_a 23.393020
_cell_length_b 10.141604
_cell_length_c 8.638797
_cell_angle_alpha 90.000000
_cell_angle_beta 94.150058
_cell_angle_gamma 90.000000
_cell_volume 2044.118018
_symmetry_space_group_name_H-M "C 2/C"
_symmetry_group_IT_number 15
_symmetry_cell_setting 'monoclinic'
loop_
_space_group_symop_operation_xyz
x,y,z
-x,y,1/2-z
-x,-y,-z
x,-y,1/2+z
1/2+x,1/2+y,z
1/2-x,1/2+y,1/2-z
1/2-x,1/2-y,-z
1/2+x,1/2-y,1/2+z
loop_
_atom_site_type_symbol
_atom_site_label
_atom_site_fract_x
_atom_site_fract_y
_atom_site_fract_z
Si Si1 0.377288 0.434173 0.691010
Si Si2 0.593421 0.308077 0.469104
Si Si3 0.296878 0.146627 0.076635
Si Si4 0.245679 0.615062 0.092228
Si Si5 0.482658 0.357598 0.566214
O O1 0.388701 0.381376 0.866023
O O2 0.399408 0.583093 0.665104
O O3 0.310277 0.428825 0.646302
O O4 0.414183 0.349421 0.571667
O O5 0.639796 0.195415 0.453259
O O6 0.527032 0.266489 0.480863
O O7 0.288278 0.141609 0.257658
O O8 0.250000 0.250000 0.000000
O O9 0.283046 0.003143 0.007126
O O10 0.250000 0.750000 0.000000
O O11 0.500000 0.353386 0.750000
O O12 0.500000 0.500000 0.500000
#
# Coordination Sequence:
#
# PCOD9258426 Si02
#       5
#     8   8   8   8   8
#     4  10  18  33  56  84 118 146 189 234 284 337
#     4  10  20  34  57  84 119 149 188 235 290 341
#     4  12  23  39  58  84 119 152 191 239 292 346
#     4  12  25  38  58  86 118 154 192 234 289 350
#     4   8  16  30  51  82 110 148 181 235 281 332
#
# _framework density 19.568341
#
# number of rings (size 3 to 8) (size 9 to 14) (size 15 to 20)
#    0.000    1.600    4.000    1.200    2.800    0.000 
#    0.000    0.000    0.000    1.200    0.000    0.000 
#    0.000    0.000    0.000    0.000    0.000    0.000 
#
# Total GULP energy -111544.001370 kJ/mol
# GULP energy per Si atom -5577.200069 kJ/mol
# Density = 1.952380 g / cm^3
# Si number density = 19.568341 Si / 1000 Ang^3
#
#
#
# Elastic Constant Matrix: (Units=GPa)
#
#
# Indices 1 2 3 4 5 6 
#
# 1 108.1643 16.9684 15.5657 0.0000 -34.2943 0.0000
# 2 16.9684 96.7828 45.9055 0.0000 -14.0378 0.0000
# 3 15.5657 45.9055 103.6139 0.0000 -27.8350 0.0000
# 4 0.0000 0.0000 0.0000 25.8702 0.0000 -3.1982
# 5 -34.2943 -14.0378 -27.8350 0.0000 25.3269 0.0000
# 6 0.0000 0.0000 0.0000 -3.1982 0.0000 31.2109
#
#
#
# Elastic Compliance Matrix: (Units=1/GPa)
#
#
# Indices 1 2 3 4 5 6 
#
# 1 0.018401 -0.001735 0.006300 0.000000 0.030877 0.000000
# 2 -0.001735 0.013273 -0.006066 0.000000 -0.001659 0.000000
# 3 0.006300 -0.006066 0.018135 0.000000 0.025099 0.000000
# 4 0.000000 0.000000 0.000000 0.039150 0.000000 0.004012
# 5 0.030877 -0.001659 0.025099 0.000000 0.107958 0.000000
# 6 0.000000 0.000000 0.000000 0.004012 0.000000 0.032451
#
#
# Mechanical properties :
#
#
# Convention : Reuss Voigt Hill
#
# Bulk Modulus (GPa) = 21.36505 51.71558 36.54031
# Shear Modulus (GPa) = 20.16347 31.82303 25.99325
#
# Velocity S-wave (km/s) = 3.21349 4.03705 3.64858
# Velocity P-wave (km/s) = 4.97097 6.94377 6.03848
#
# Compressibility (1/GPa) = 0.04680542
#
# Stress axis : x y z
#
# Youngs Moduli (GPa) = 54.34548 75.34095 55.14276
#
# Poissons Ratio (x) = 0.13075 -0.34737
# Poissons Ratio (y) = 0.09432 0.33447
# Poissons Ratio (z) = -0.34235 0.45699
#
# Static dielectric constant tensor:
#      x y z
#    x 1.759010 0.000000 -0.001000 
#    y 0.000000 1.657560 0.000000 
#    z -0.001000 0.000000 1.697290 
# 
# From -- ./inp_files/59899.got.cif
#   From: 2010.05.17/outbox.cif.g08.bks.cpg/sg15_30_cif.got.tgz:59899.got - 2010.06.03 18:47:42.
