data_PCOD9258054
_publ_section_title
;
Structure prediction by ZEFSAII (Michael W. Deem and Ramdas Pophale) SiO2 
 PCOD9258054
Probable space group: C 2/C
;
_chemical_formula_sum "Si O2"
_cell_formula_units_Z 52
_cell_length_a 22.672640
_cell_length_b 9.044000
_cell_length_c 15.370541
_cell_angle_alpha 90.000000
_cell_angle_beta 127.186343
_cell_angle_gamma 90.000000
_cell_volume 2510.917523
_symmetry_space_group_name_H-M "C 2/C"
_symmetry_group_IT_number 15
_symmetry_cell_setting 'monoclinic'
loop_
_space_group_symop_operation_xyz
x,y,z
-x,y,1/2-z
-x,-y,-z
x,-y,1/2+z
1/2+x,1/2+y,z
1/2-x,1/2+y,1/2-z
1/2-x,1/2-y,-z
1/2+x,1/2-y,1/2+z
loop_
_atom_site_type_symbol
_atom_site_label
_atom_site_fract_x
_atom_site_fract_y
_atom_site_fract_z
Si Si1 0.263587 0.960346 0.683035
Si Si2 0.923876 0.446005 0.351053
Si Si3 0.167139 0.861118 0.233862
Si Si4 0.221979 0.019886 0.449287
Si Si5 0.500000 0.965036 0.250000
Si Si6 0.449509 0.231447 0.473888
Si Si7 0.639376 0.795973 0.443181
O O1 0.337969 0.062795 0.748926
O O2 0.206338 0.026955 0.701366
O O3 0.233507 0.957230 0.557121
O O4 0.291479 0.797651 0.734974
O O5 0.971085 0.529024 0.315911
O O6 0.927041 0.561836 0.432654
O O7 0.966733 0.295612 0.417324
O O8 0.080860 0.831406 0.131941
O O9 0.181462 0.917046 0.344168
O O10 0.301832 0.074527 0.485518
O O11 0.176931 0.171124 0.419678
O O12 0.569996 0.866662 0.334923
O O13 0.395132 0.278221 0.502631
#
# Coordination Sequence:
#
# PCOD9258054 Si02
#       7
#     8   8   8   8   4   8   8
#     4  11  22  39  59  94 121 166 201 262 309 379
#     4   9  18  32  58  83 121 149 205 244 306 352
#     4  11  23  37  64  89 127 158 210 255 321 365
#     4  11  21  36  58  90 126 161 205 261 312 374
#     4  10  18  32  58  88 114 160 202 256 294 370
#     4   9  18  36  55  86 117 159 194 259 297 368
#     4  10  20  35  60  89 118 160 209 250 310 368
#
# _framework density 20.709561999999998
#
# number of rings (size 3 to 8) (size 9 to 14) (size 15 to 20)
#    0.000    1.846    3.077    2.308    2.154    0.000 
#    0.000    0.000    3.385    3.692    0.000    0.000 
#    0.000    0.000    0.000    0.000    0.000    0.000 
#
# Total GULP energy -144794.159765 kJ/mol
# GULP energy per Si atom -5569.006145 kJ/mol
# Density = 2.066243 g / cm^3
# Si number density = 20.709562 Si / 1000 Ang^3
#
#
#
# Elastic Constant Matrix: (Units=GPa)
#
#
# Indices 1 2 3 4 5 6 
#
# 1 54.3342 0.4265 24.1144 0.0000 3.4629 0.0000
# 2 0.4265 39.4112 15.5938 0.0000 -2.8880 0.0000
# 3 24.1144 15.5938 118.4180 0.0000 -5.8174 0.0000
# 4 0.0000 0.0000 0.0000 86.8926 0.0000 1.8508
# 5 3.4629 -2.8880 -5.8174 0.0000 17.6343 0.0000
# 6 0.0000 0.0000 0.0000 1.8508 0.0000 20.6488
#
#
#
# Elastic Compliance Matrix: (Units=1/GPa)
#
#
# Indices 1 2 3 4 5 6 
#
# 1 0.020811 0.001223 -0.004666 0.000000 -0.005426 0.000000
# 2 0.001223 0.027027 -0.003662 0.000000 0.002978 0.000000
# 3 -0.004666 -0.003662 0.010055 0.000000 0.003634 0.000000
# 4 0.000000 0.000000 0.000000 0.011530 0.000000 -0.001034
# 5 -0.005426 0.002978 0.003634 0.000000 0.059460 0.000000
# 6 0.000000 0.000000 0.000000 -0.001034 0.000000 0.048522
#
#
# Mechanical properties :
#
#
# Convention : Reuss Voigt Hill
#
# Bulk Modulus (GPa) = 22.89074 32.49255 27.69165
# Shear Modulus (GPa) = 24.25105 36.50371 30.37738
#
# Velocity S-wave (km/s) = 3.42571 4.20295 3.83407
# Velocity P-wave (km/s) = 5.16958 6.26711 5.74462
#
# Compressibility (1/GPa) = 0.04368578
#
# Stress axis : x y z
#
# Youngs Moduli (GPa) = 48.05037 36.99950 99.44811
#
# Poissons Ratio (x) = -0.04526 0.46399
# Poissons Ratio (y) = -0.05878 0.36417
# Poissons Ratio (z) = 0.22419 0.13549
#
# Static dielectric constant tensor:
#      x y z
#    x 1.782360 0.000000 -0.040130 
#    y 0.000000 1.721950 0.000000 
#    z -0.040130 0.000000 1.907280 
# 
# From -- ./inp_files/172033.got.cif
#   From: 2010.05.17/outbox.cif.g08.bks.cpg/sg15_87_cif.got.tgz:172033.got - 2010.06.03 18:47:42.
