data_PCOD9258220
_publ_section_title
;
Structure prediction by ZEFSAII (Michael W. Deem and Ramdas Pophale) SiO2 
 PCOD9258220
Probable space group: C 2/C
;
_chemical_formula_sum "Si O2"
_cell_formula_units_Z 56
_cell_length_a 5.193836
_cell_length_b 24.131811
_cell_length_c 26.314481
_cell_angle_alpha 90.000000
_cell_angle_beta 98.729099
_cell_angle_gamma 90.000000
_cell_volume 3259.966487
_symmetry_space_group_name_H-M "C 2/C"
_symmetry_group_IT_number 15
_symmetry_cell_setting 'monoclinic'
loop_
_space_group_symop_operation_xyz
x,y,z
-x,y,1/2-z
-x,-y,-z
x,-y,1/2+z
1/2+x,1/2+y,z
1/2-x,1/2+y,1/2-z
1/2-x,1/2-y,-z
1/2+x,1/2-y,1/2+z
loop_
_atom_site_type_symbol
_atom_site_label
_atom_site_fract_x
_atom_site_fract_y
_atom_site_fract_z
Si Si1 0.264907 0.742494 0.896387
Si Si2 0.208584 0.864257 0.863790
Si Si3 0.464535 0.711966 0.691245
Si Si4 0.271153 0.180261 0.912621
Si Si5 0.257067 0.571868 0.520221
Si Si6 0.198607 0.947696 0.952263
Si Si7 0.168417 0.660678 0.305037
O O1 0.281114 0.725395 0.836322
O O2 0.555030 0.725798 0.922763
O O3 0.201239 0.807174 0.896163
O O4 0.055633 0.706662 0.920169
O O5 0.962784 0.860390 0.818216
O O6 0.180688 0.916916 0.898499
O O7 0.487993 0.862256 0.844877
O O8 0.500000 0.693239 0.750000
O O9 0.303832 0.671996 0.649275
O O10 0.327058 0.772324 0.690022
O O11 0.240270 0.125211 0.943900
O O12 0.315105 0.514324 0.551301
O O13 0.471361 0.573887 0.482363
O O14 0.974091 0.566541 0.486393
O O15 0.000000 0.648173 0.250000
#
# Coordination Sequence:
#
# PCOD9258220 Si02
#       7
#     8   8   8   8   8   8   8
#     4   9  18  30  48  76 107 134 163 203 259 314
#     4  11  18  35  52  79 110 134 176 211 261 303
#     4   8  17  29  49  75 103 139 167 202 246 309
#     4  10  18  33  51  73 109 133 166 219 251 309
#     4  10  21  39  55  78  97 134 189 216 264 297
#     4  10  22  37  59  75  98 137 182 226 249 317
#     4  10  19  31  53  79 112 139 170 204 252 317
#
# _framework density 17.178091999999999
#
# number of rings (size 3 to 8) (size 9 to 14) (size 15 to 20)
#    0.857    1.429    1.429    2.143    0.000    0.571 
#    0.000    4.286    0.000    1.714    0.000    0.000 
#    0.000    0.000    0.000    0.000    0.000    0.000 
#
# Total GULP energy -155897.966786 kJ/mol
# GULP energy per Si atom -5567.784528 kJ/mol
# Density = 1.713899 g / cm^3
# Si number density = 17.178092 Si / 1000 Ang^3
#
#
#
# Elastic Constant Matrix: (Units=GPa)
#
#
# Indices 1 2 3 4 5 6 
#
# 1 92.3114 -3.2983 2.1578 0.0000 -5.6493 0.0000
# 2 -3.2983 26.4423 13.2652 0.0000 -1.9320 0.0000
# 3 2.1578 13.2652 23.3939 0.0000 4.2261 0.0000
# 4 0.0000 0.0000 0.0000 124.3287 0.0000 29.1472
# 5 -5.6493 -1.9320 4.2261 0.0000 18.8600 0.0000
# 6 0.0000 0.0000 0.0000 29.1472 0.0000 38.9939
#
#
#
# Elastic Compliance Matrix: (Units=1/GPa)
#
#
# Indices 1 2 3 4 5 6 
#
# 1 0.011350 0.003786 -0.004042 0.000000 0.004693 0.000000
# 2 0.003786 0.057175 -0.035468 0.000000 0.014939 0.000000
# 3 -0.004042 -0.035468 0.066810 0.000000 -0.019815 0.000000
# 4 0.000000 0.000000 0.000000 0.009752 0.000000 -0.007290
# 5 0.004693 0.014939 -0.019815 0.000000 0.060398 0.000000
# 6 0.000000 0.000000 0.000000 -0.007290 0.000000 0.031094
#
#
# Mechanical properties :
#
#
# Convention : Reuss Voigt Hill
#
# Bulk Modulus (GPa) = 15.65243 18.48856 17.07049
# Shear Modulus (GPa) = 15.18267 45.10473 30.14370
#
# Velocity S-wave (km/s) = 2.97617 5.12973 4.19355
# Velocity P-wave (km/s) = 4.57621 6.77287 5.77986
#
# Compressibility (1/GPa) = 0.06388786
#
# Stress axis : x y z
#
# Youngs Moduli (GPa) = 88.10682 17.49010 14.96778
#
# Poissons Ratio (x) = -0.06622 0.06049
# Poissons Ratio (y) = -0.33359 0.53088
# Poissons Ratio (z) = 0.35609 0.62034
#
# Static dielectric constant tensor:
#      x y z
#    x 1.604820 0.000000 0.003810 
#    y 0.000000 1.551040 0.000000 
#    z 0.003810 0.000000 1.607040 
# 
# From -- ./inp_files/261570.got.cif
#   From: 2010.05.17/outbox.cif.g08.bks.cpg/sg15_131_cif.got.tgz:261570.got - 2010.06.03 18:47:42.
