data_PCOD9258184
_publ_section_title
;
Structure prediction by ZEFSAII (Michael W. Deem and Ramdas Pophale) SiO2 
 PCOD9258184
Probable space group: C 2/C
;
_chemical_formula_sum "Si O2"
_cell_formula_units_Z 56
_cell_length_a 27.630594
_cell_length_b 19.168678
_cell_length_c 17.718270
_cell_angle_alpha 90.000000
_cell_angle_beta 19.969531
_cell_angle_gamma 90.000000
_cell_volume 3204.943114
_symmetry_space_group_name_H-M "C 2/C"
_symmetry_group_IT_number 15
_symmetry_cell_setting 'monoclinic'
loop_
_space_group_symop_operation_xyz
x,y,z
-x,y,1/2-z
-x,-y,-z
x,-y,1/2+z
1/2+x,1/2+y,z
1/2-x,1/2+y,1/2-z
1/2-x,1/2-y,-z
1/2+x,1/2-y,1/2+z
loop_
_atom_site_type_symbol
_atom_site_label
_atom_site_fract_x
_atom_site_fract_y
_atom_site_fract_z
Si Si1 0.382212 0.509935 0.558423
Si Si2 0.445592 0.007734 0.696015
Si Si3 0.262043 0.338061 0.401672
Si Si4 0.411284 0.798334 0.696327
Si Si5 0.684082 0.075890 0.254188
Si Si6 0.851023 0.620208 0.589226
Si Si7 0.817073 0.001498 0.328040
O O1 0.328804 0.451129 0.578990
O O2 0.288540 0.578876 0.679262
O O3 0.548329 0.524960 0.320270
O O4 0.342214 0.485816 0.702544
O O5 0.358698 0.975242 0.752540
O O6 0.539087 0.942910 0.589112
O O7 0.558052 0.062853 0.499415
O O8 0.330809 0.030961 0.924946
O O9 0.389710 0.282736 0.212175
O O10 0.156716 0.313616 0.621856
O O11 0.185609 0.339731 0.433202
O O12 0.308597 0.417271 0.348748
O O13 0.323126 0.846321 0.767254
O O14 0.569015 0.829818 0.469457
#
# Coordination Sequence:
#
# PCOD9258184 Si02
#       7
#     8   8   8   8   8   8   8
#     4   9  20  29  49  69  98 130 173 217 269 296
#     4   9  17  30  51  67  96 132 171 210 255 305
#     4  10  19  29  47  71  99 139 168 196 245 307
#     4  10  19  30  46  72 102 134 172 198 236 321
#     4   9  17  31  44  71  96 131 167 208 250 303
#     4   9  17  32  48  64  94 138 170 201 248 313
#     4  10  18  33  46  74  98 132 171 218 254 314
#
# _framework density 17.473009000000001
#
# number of rings (size 3 to 8) (size 9 to 14) (size 15 to 20)
#    0.000    2.571    2.857    1.286    2.000    3.429 
#    0.000    1.429    0.000    0.000    0.000    9.000 
#    0.000   27.429    0.000    0.429    0.000    0.000 
#
# Total GULP energy -156025.934323 kJ/mol
# GULP energy per Si atom -5572.354797 kJ/mol
# Density = 1.743324 g / cm^3
# Si number density = 17.473009 Si / 1000 Ang^3
#
#
#
# Elastic Constant Matrix: (Units=GPa)
#
#
# Indices 1 2 3 4 5 6 
#
# 1 58.5603 21.8176 -0.9619 0.0001 -18.6936 0.0000
# 2 21.8176 36.5235 -5.7859 0.0003 -4.4588 0.0005
# 3 -0.9619 -5.7859 25.7132 0.0009 -9.8551 0.0003
# 4 0.0001 0.0003 0.0009 15.5370 0.0005 -4.5553
# 5 -18.6936 -4.4588 -9.8551 0.0005 27.6130 -0.0002
# 6 0.0000 0.0005 0.0003 -4.5553 -0.0002 14.7443
#
#
#
# Elastic Compliance Matrix: (Units=1/GPa)
#
#
# Indices 1 2 3 4 5 6 
#
# 1 0.028288 -0.013793 0.005144 -0.000001 0.018760 0.000000
# 2 -0.013793 0.036709 0.007457 -0.000001 -0.000749 -0.000002
# 3 0.005144 0.007457 0.049301 -0.000005 0.022283 -0.000002
# 4 -0.000001 -0.000001 -0.000005 0.070773 -0.000004 0.021865
# 5 0.018760 -0.000749 0.022283 -0.000004 0.056747 -0.000001
# 6 0.000000 -0.000002 -0.000002 0.021865 -0.000001 0.074578
#
#
# Mechanical properties :
#
#
# Convention : Reuss Voigt Hill
#
# Bulk Modulus (GPa) = 8.93527 16.77072 12.85300
# Shear Modulus (GPa) = 14.04163 18.62735 16.33449
#
# Velocity S-wave (km/s) = 2.83789 3.26861 3.06083
# Velocity P-wave (km/s) = 3.98284 4.88507 4.45685
#
# Compressibility (1/GPa) = 0.11191600
#
# Stress axis : x y z
#
# Youngs Moduli (GPa) = 35.35046 27.24130 20.28345
#
# Poissons Ratio (x) = 0.37574 -0.10435
# Poissons Ratio (y) = 0.48759 -0.15126
# Poissons Ratio (z) = -0.18186 -0.20315
#
# Static dielectric constant tensor:
#      x y z
#    x 1.635050 0.000000 -0.011210 
#    y 0.000000 1.592180 0.000000 
#    z -0.011210 0.000000 1.641830 
# 
# From -- ./inp_files/174730.got.cif
#   From: 2010.05.17/outbox.cif.g08.bks.cpg/sg15_88_cif.got.tgz:174730.got - 2010.06.03 18:47:42.
