data_PCOD9258154
_publ_section_title
;
Structure prediction by ZEFSAII (Michael W. Deem and Ramdas Pophale) SiO2 
 PCOD9258154
Probable space group: C 2/C
;
_chemical_formula_sum "Si O2"
_cell_formula_units_Z 44
_cell_length_a 19.824326
_cell_length_b 9.116494
_cell_length_c 13.204952
_cell_angle_alpha 90.000000
_cell_angle_beta 48.233348
_cell_angle_gamma 90.000000
_cell_volume 1780.010842
_symmetry_space_group_name_H-M "C 2/C"
_symmetry_group_IT_number 15
_symmetry_cell_setting 'monoclinic'
loop_
_space_group_symop_operation_xyz
x,y,z
-x,y,1/2-z
-x,-y,-z
x,-y,1/2+z
1/2+x,1/2+y,z
1/2-x,1/2+y,1/2-z
1/2-x,1/2-y,-z
1/2+x,1/2-y,1/2+z
loop_
_atom_site_type_symbol
_atom_site_label
_atom_site_fract_x
_atom_site_fract_y
_atom_site_fract_z
Si Si1 0.098507 0.251058 0.266909
Si Si2 0.828571 0.560527 0.304957
Si Si3 0.901493 0.251058 0.463923
Si Si4 0.328571 0.060527 0.537901
Si Si5 0.670266 0.500000 0.829734
Si Si6 0.500000 0.000000 0.000000
O O1 0.170424 0.380565 0.194410
O O2 0.093822 0.197957 0.156178
O O3 0.000000 0.329195 0.390095
O O4 0.113814 0.116823 0.323705
O O5 0.834748 0.609935 0.415252
O O6 0.734938 0.589341 0.342288
O O7 0.916786 0.589994 0.149595
O O8 0.829576 0.380565 0.535257
O O9 0.886186 0.116823 0.551333
O O10 0.234938 0.089341 0.687837
O O11 0.416786 0.089995 0.516833
#
# Coordination Sequence:
#
# PCOD9258154 Si02
#       6
#     8   8   8   8   8   4
#     4  10  20  37  60  84 111 146 192 236 273 327
#     4  10  20  36  58  85 113 144 189 236 277 328
#     4  10  20  37  60  84 111 146 192 236 273 327
#     4  10  20  36  58  85 113 144 189 236 277 328
#     4  11  21  31  55  90 114 146 181 233 283 331
#     4  10  18  32  62  88 106 138 188 242 276 330
#
# _framework density 24.718948999999999
#
# number of rings (size 3 to 8) (size 9 to 14) (size 15 to 20)
#    0.000    1.818    1.818    3.273    0.000    2.909 
#    0.000    0.000    0.000   45.818    0.000    0.000 
#    0.000    0.000    0.000    0.000    0.000    0.000 
#
# Total GULP energy -122718.092102 kJ/mol
# GULP energy per Si atom -5578.095096 kJ/mol
# Density = 2.466269 g / cm^3
# Si number density = 24.718949 Si / 1000 Ang^3
#
#
#
# Elastic Constant Matrix: (Units=GPa)
#
#
# Indices 1 2 3 4 5 6 
#
# 1 82.3622 2.7262 39.2141 0.0000 14.7595 0.0000
# 2 2.7262 77.0181 0.8365 -0.0002 -3.3365 0.0002
# 3 39.2141 0.8365 106.3423 0.0000 27.5808 0.0000
# 4 0.0000 -0.0002 0.0000 37.2094 0.0000 11.0049
# 5 14.7595 -3.3365 27.5808 0.0000 48.3913 0.0000
# 6 0.0000 0.0002 0.0000 11.0049 0.0000 30.9766
#
#
#
# Elastic Compliance Matrix: (Units=1/GPa)
#
#
# Indices 1 2 3 4 5 6 
#
# 1 0.014861 -0.000545 -0.005035 0.000000 -0.001701 0.000000
# 2 -0.000545 0.013057 -0.000209 0.000000 0.001186 0.000000
# 3 -0.005035 -0.000209 0.012752 0.000000 -0.005747 0.000000
# 4 0.000000 0.000000 0.000000 0.030030 0.000000 -0.010669
# 5 -0.001701 0.001186 -0.005747 0.000000 0.024541 0.000000
# 6 0.000000 0.000000 0.000000 -0.010669 0.000000 0.036073
#
#
# Mechanical properties :
#
#
# Convention : Reuss Voigt Hill
#
# Bulk Modulus (GPa) = 34.37310 39.03069 36.70190
# Shear Modulus (GPa) = 32.76746 38.17850 35.47298
#
# Velocity S-wave (km/s) = 3.64483 3.93428 3.79232
# Velocity P-wave (km/s) = 5.62573 6.03839 5.83571
#
# Compressibility (1/GPa) = 0.02909252
#
# Stress axis : x y z
#
# Youngs Moduli (GPa) = 67.28799 76.58790 78.41648
#
# Poissons Ratio (x) = 0.04174 0.39481
# Poissons Ratio (y) = 0.03667 0.01641
# Poissons Ratio (z) = 0.33878 0.01603
#
# Static dielectric constant tensor:
#      x y z
#    x 1.794490 0.000000 -0.216120 
#    y 0.000000 1.774520 0.000000 
#    z -0.216120 0.000000 1.672080 
# 
# From -- ./inp_files/47207.got.cif
#   From: 2010.05.17/outbox.cif.g08.bks.cpg/sg15_24_cif.got.tgz:47207.got - 2010.06.03 18:47:42.
