data_PCOD9258706
_publ_section_title
;
Structure prediction by ZEFSAII (Michael W. Deem and Ramdas Pophale) SiO2 
 PCOD9258706
Probable space group: C 2/C
;
_chemical_formula_sum "Si O2"
_cell_formula_units_Z 52
_cell_length_a 21.223363
_cell_length_b 13.493746
_cell_length_c 19.493305
_cell_angle_alpha 90.000000
_cell_angle_beta 33.824534
_cell_angle_gamma 90.000000
_cell_volume 3107.531288
_symmetry_space_group_name_H-M "C 2/C"
_symmetry_group_IT_number 15
_symmetry_cell_setting 'monoclinic'
loop_
_space_group_symop_operation_xyz
x,y,z
-x,y,1/2-z
-x,-y,-z
x,-y,1/2+z
1/2+x,1/2+y,z
1/2-x,1/2+y,1/2-z
1/2-x,1/2-y,-z
1/2+x,1/2-y,1/2+z
loop_
_atom_site_type_symbol
_atom_site_label
_atom_site_fract_x
_atom_site_fract_y
_atom_site_fract_z
Si Si1 0.578569 0.862170 0.885416
Si Si2 0.433899 0.512097 0.955506
Si Si3 0.887557 0.134377 0.615668
Si Si4 0.217685 0.351992 0.624017
Si Si5 0.755181 0.129025 0.937994
Si Si6 0.000000 0.051943 0.750000
Si Si7 0.329410 0.952945 0.119300
O O1 0.593037 0.750891 0.898940
O O2 0.620214 0.862420 0.768628
O O3 0.652335 0.939857 0.863083
O O4 0.449950 0.898327 0.008120
O O5 0.528698 0.579503 0.906518
O O6 0.472517 0.491322 0.843195
O O7 0.413793 0.415547 0.019125
O O8 0.320033 0.577278 0.054551
O O9 0.761344 0.106526 0.753317
O O10 0.258897 0.237703 0.582514
O O11 0.190614 0.377065 0.569023
O O12 0.717673 0.049285 0.915768
O O13 0.888218 0.116525 0.835395
#
# Coordination Sequence:
#
# PCOD9258706 Si02
#       7
#     8   8   8   8   8   4   8
#     4  11  23  36  58  81 119 148 185 223 285 330
#     4  10  20  33  58  82 110 143 191 231 275 320
#     4  11  21  36  58  84 109 148 190 234 268 334
#     4  10  19  33  54  84 111 147 178 228 280 339
#     4  10  20  33  55  82 116 140 185 227 287 327
#     4  10  18  34  52  82 110 144 186 238 270 320
#     4  11  22  38  53  84 116 151 179 230 279 336
#
# _framework density 16.733540000000001
#
# number of rings (size 3 to 8) (size 9 to 14) (size 15 to 20)
#    0.000    1.538    4.615    0.923    0.000    3.077 
#    0.000    0.000    0.000    7.385    0.000    0.000 
#    0.000    0.000    0.000    0.000    0.000    0.000 
#
# Total GULP energy -145059.208258 kJ/mol
# GULP energy per Si atom -5579.200318 kJ/mol
# Density = 1.669545 g / cm^3
# Si number density = 16.733540 Si / 1000 Ang^3
#
#
#
# Elastic Constant Matrix: (Units=GPa)
#
#
# Indices 1 2 3 4 5 6 
#
# 1 68.9437 52.3338 34.6809 0.0000 18.4684 0.0000
# 2 52.3338 100.4367 69.8927 0.0000 13.5048 0.0000
# 3 34.6809 69.8927 115.9000 0.0000 25.8393 0.0000
# 4 0.0000 0.0000 0.0000 17.9790 0.0000 2.6910
# 5 18.4684 13.5048 25.8393 0.0000 34.3233 0.0000
# 6 0.0000 0.0000 0.0000 2.6910 0.0000 18.0441
#
#
#
# Elastic Compliance Matrix: (Units=1/GPa)
#
#
# Indices 1 2 3 4 5 6 
#
# 1 0.027251 -0.015094 0.003476 0.000000 -0.011341 0.000000
# 2 -0.015094 0.025561 -0.012577 0.000000 0.007533 0.000000
# 3 0.003476 -0.012577 0.017408 0.000000 -0.010027 0.000000
# 4 0.000000 0.000000 0.000000 0.056890 0.000000 -0.008484
# 5 -0.011341 0.007533 -0.010027 0.000000 0.039822 0.000000
# 6 0.000000 0.000000 0.000000 -0.008484 0.000000 0.056685
#
#
# Mechanical properties :
#
#
# Convention : Reuss Voigt Hill
#
# Bulk Modulus (GPa) = 45.80688 66.56613 56.18650
# Shear Modulus (GPa) = 17.90299 22.62751 20.26525
#
# Velocity S-wave (km/s) = 3.27446 3.68125 3.48380
# Velocity P-wave (km/s) = 6.45986 7.61152 7.05922
#
# Compressibility (1/GPa) = 0.02183078
#
# Stress axis : x y z
#
# Youngs Moduli (GPa) = 36.69539 39.12262 57.44527
#
# Poissons Ratio (x) = 0.59051 -0.19969
# Poissons Ratio (y) = 0.55387 0.72249
# Poissons Ratio (z) = -0.12756 0.49205
#
# Static dielectric constant tensor:
#      x y z
#    x 1.576660 0.000000 0.004670 
#    y 0.000000 1.528130 0.000000 
#    z 0.004670 0.000000 1.587160 
# 
# From -- ./inp_files/112307.got.cif
#   From: 2010.05.17/outbox.cif.g08.bks.cpg/sg15_57_cif.got.tgz:112307.got - 2010.06.03 18:47:42.
