data_PCOD9258167
_publ_section_title
;
Structure prediction by ZEFSAII (Michael W. Deem and Ramdas Pophale) SiO2 
 PCOD9258167
Probable space group: C 2/C
;
_chemical_formula_sum "Si O2"
_cell_formula_units_Z 52
_cell_length_a 13.901315
_cell_length_b 11.720332
_cell_length_c 14.929761
_cell_angle_alpha 90.000000
_cell_angle_beta 116.268606
_cell_angle_gamma 90.000000
_cell_volume 2181.272386
_symmetry_space_group_name_H-M "C 2/C"
_symmetry_group_IT_number 15
_symmetry_cell_setting 'monoclinic'
loop_
_space_group_symop_operation_xyz
x,y,z
-x,y,1/2-z
-x,-y,-z
x,-y,1/2+z
1/2+x,1/2+y,z
1/2-x,1/2+y,1/2-z
1/2-x,1/2-y,-z
1/2+x,1/2-y,1/2+z
loop_
_atom_site_type_symbol
_atom_site_label
_atom_site_fract_x
_atom_site_fract_y
_atom_site_fract_z
Si Si1 0.415749 0.934975 0.837549
Si Si2 0.413708 0.885828 0.029894
Si Si3 0.500000 0.737486 0.750000
Si Si4 0.707356 0.642106 0.924359
Si Si5 0.193617 0.631059 0.828658
Si Si6 0.369667 0.244438 0.863173
Si Si7 0.372651 0.511215 0.447612
O O1 0.441310 0.820053 0.796079
O O2 0.526610 0.997147 0.913774
O O3 0.362312 0.021517 0.744175
O O4 0.362582 0.905143 0.911458
O O5 0.343516 0.851350 0.085474
O O6 0.510654 0.794521 0.062617
O O7 0.590419 0.666839 0.837253
O O8 0.791951 0.650921 0.878522
O O9 0.750000 0.750000 0.000000
O O10 0.688220 0.536209 0.982833
O O11 0.154199 0.733319 0.751110
O O12 0.318009 0.598539 0.881235
O O13 0.347972 0.371967 0.884732
O O14 0.500000 0.500000 0.500000
#
# Coordination Sequence:
#
# PCOD9258167 Si02
#       7
#     8   8   4   8   8   8   8
#     4  10  18  32  64 100 134 168 229 286 341 400
#     4  10  21  36  65 100 138 175 224 291 348 401
#     4  12  20  36  68 100 132 180 246 288 354 414
#     4  10  23  39  67  97 135 179 234 295 347 411
#     4  11  23  42  70 100 139 183 235 282 351 422
#     4  10  22  44  68 100 138 176 236 291 344 416
#     4  11  26  47  68  99 146 186 227 292 360 419
#
# _framework density 23.839296999999998
#
# number of rings (size 3 to 8) (size 9 to 14) (size 15 to 20)
#    0.000    1.538    1.538    5.077    8.615    0.000 
#    2.769    3.846    3.385    0.000    0.000    0.000 
#    0.000    0.000    0.000    0.000    0.000    0.000 
#
# Total GULP energy -145405.112870 kJ/mol
# GULP energy per Si atom -5592.504341 kJ/mol
# Density = 2.378504 g / cm^3
# Si number density = 23.839297 Si / 1000 Ang^3
#
#
#
# Elastic Constant Matrix: (Units=GPa)
#
#
# Indices 1 2 3 4 5 6 
#
# 1 81.5509 -1.1390 27.6111 0.0000 -10.4595 0.0000
# 2 -1.1390 34.8416 7.3990 0.0000 -5.3894 0.0000
# 3 27.6111 7.3990 95.6929 0.0000 -16.8337 0.0000
# 4 0.0000 0.0000 0.0000 20.6643 0.0000 3.9095
# 5 -10.4595 -5.3894 -16.8337 0.0000 54.9184 0.0000
# 6 0.0000 0.0000 0.0000 3.9095 0.0000 28.9343
#
#
#
# Elastic Compliance Matrix: (Units=1/GPa)
#
#
# Indices 1 2 3 4 5 6 
#
# 1 0.013779 0.001508 -0.003810 0.000000 0.001604 0.000000
# 2 0.001508 0.029622 -0.002287 0.000000 0.002493 0.000000
# 3 -0.003810 -0.002287 0.012218 0.000000 0.002795 0.000000
# 4 0.000000 0.000000 0.000000 0.049662 0.000000 -0.006710
# 5 0.001604 0.002493 0.002795 0.000000 0.019616 0.000000
# 6 0.000000 0.000000 0.000000 -0.006710 0.000000 0.035468
#
#
# Mechanical properties :
#
#
# Convention : Reuss Voigt Hill
#
# Bulk Modulus (GPa) = 21.53296 31.09197 26.31247
# Shear Modulus (GPa) = 27.02362 32.78435 29.90398
#
# Velocity S-wave (km/s) = 3.37051 3.71242 3.54559
# Velocity P-wave (km/s) = 4.91928 5.60774 5.27475
#
# Compressibility (1/GPa) = 0.04644044
#
# Stress axis : x y z
#
# Youngs Moduli (GPa) = 72.57351 33.75885 81.84664
#
# Poissons Ratio (x) = -0.05090 0.31185
# Poissons Ratio (y) = -0.10942 0.18717
# Poissons Ratio (z) = 0.27652 0.07720
#
# Static dielectric constant tensor:
#      x y z
#    x 1.945040 0.000000 -0.048440 
#    y 0.000000 1.929240 0.000000 
#    z -0.048440 0.000000 1.919780 
# 
# From -- ./inp_files/144322.got.cif
#   From: 2010.05.17/outbox.cif.g08.bks.cpg/sg15_73_cif.got.tgz:144322.got - 2010.06.03 18:47:42.
