data_PCOD9258450
_publ_section_title
;
Structure prediction by ZEFSAII (Michael W. Deem and Ramdas Pophale) SiO2 
 PCOD9258450
Probable space group: C 2/C
;
_chemical_formula_sum "Si O2"
_cell_formula_units_Z 52
_cell_length_a 15.843743
_cell_length_b 7.900244
_cell_length_c 18.269912
_cell_angle_alpha 90.000000
_cell_angle_beta 94.599025
_cell_angle_gamma 90.000000
_cell_volume 2279.471522
_symmetry_space_group_name_H-M "C 2/C"
_symmetry_group_IT_number 15
_symmetry_cell_setting 'monoclinic'
loop_
_space_group_symop_operation_xyz
x,y,z
-x,y,1/2-z
-x,-y,-z
x,-y,1/2+z
1/2+x,1/2+y,z
1/2-x,1/2+y,1/2-z
1/2-x,1/2-y,-z
1/2+x,1/2-y,1/2+z
loop_
_atom_site_type_symbol
_atom_site_label
_atom_site_fract_x
_atom_site_fract_y
_atom_site_fract_z
Si Si1 0.086078 0.255647 0.901912
Si Si2 0.253808 0.112788 0.159154
Si Si3 0.500000 0.626668 0.750000
Si Si4 0.585891 0.231825 0.056465
Si Si5 0.926074 0.087157 0.363315
Si Si6 0.229601 0.287095 0.673880
Si Si7 0.612137 0.367472 0.910179
O O1 0.173299 0.350410 0.893974
O O2 0.042330 0.230599 0.818412
O O3 0.010844 0.332799 0.945679
O O4 0.108272 0.066444 0.930240
O O5 0.160747 0.188118 0.134975
O O6 0.280084 0.173863 0.241624
O O7 0.238050 0.913452 0.163183
O O8 0.567992 0.505440 0.715283
O O9 0.574748 0.429643 0.080391
O O10 0.649314 0.153546 0.120236
O O11 0.627916 0.246256 0.980179
O O12 0.016527 0.176605 0.377757
O O13 0.316168 0.357137 0.645841
#
# Coordination Sequence:
#
# PCOD9258450 Si02
#       7
#     8   8   4   8   8   8   8
#     4  10  18  33  57  79 106 141 182 224 260 315
#     4  11  21  36  54  84 109 139 178 222 275 311
#     4   8  14  30  52  74 100 142 180 214 262 312
#     4   9  19  36  57  79 106 146 181 208 261 332
#     4   9  17  31  53  78 107 139 177 221 262 317
#     4  11  22  36  57  80 110 140 177 225 266 318
#     4  10  19  37  58  80 104 143 182 217 261 319
#
# _framework density 22.812304999999999
#
# number of rings (size 3 to 8) (size 9 to 14) (size 15 to 20)
#    0.000    2.462    0.000    7.846    0.000    0.000 
#    0.000   13.846    0.000    0.000    0.000    0.000 
#    0.000    0.000    0.000    0.000    0.000    0.000 
#
# Total GULP energy -145099.477047 kJ/mol
# GULP energy per Si atom -5580.749117 kJ/mol
# Density = 2.276038 g / cm^3
# Si number density = 22.812305 Si / 1000 Ang^3
#
#
#
# Elastic Constant Matrix: (Units=GPa)
#
#
# Indices 1 2 3 4 5 6 
#
# 1 154.7601 18.6117 7.0871 0.0000 -15.7306 0.0000
# 2 18.6117 25.0145 1.2291 0.0000 -1.9479 0.0000
# 3 7.0871 1.2291 35.1578 0.0000 -23.6595 0.0000
# 4 0.0000 0.0000 0.0000 3.0620 0.0000 -9.3747
# 5 -15.7306 -1.9479 -23.6595 0.0000 23.8175 0.0000
# 6 0.0000 0.0000 0.0000 -9.3747 0.0000 25.6772
#
#
#
# Elastic Compliance Matrix: (Units=1/GPa)
#
#
# Indices 1 2 3 4 5 6 
#
# 1 0.007891 -0.005345 0.005458 0.000000 0.010196 0.000000
# 2 -0.005345 0.043923 -0.001256 0.000000 -0.001186 0.000000
# 3 0.005458 -0.001256 0.089721 0.000000 0.092627 0.000000
# 4 0.000000 0.000000 0.000000 -2.772158 0.000000 -1.012109
# 5 0.010196 -0.001186 0.092627 0.000000 0.140636 0.000000
# 6 0.000000 0.000000 0.000000 -1.012109 0.000000 -0.330574
#
#
# Mechanical properties :
#
#
# Convention : Reuss Voigt Hill
#
# Bulk Modulus (GPa) = 7.18150 29.86535 18.52343
# Shear Modulus (GPa) = -1.80384 23.04497 10.62056
#
# Velocity S-wave (km/s) = -0.89020 3.18181 2.16003
# Velocity P-wave (km/s) = 1.44856 5.15934 3.78927
#
# Compressibility (1/GPa) = 0.13924670
#
# Stress axis : x y z
#
# Youngs Moduli (GPa) = 126.72853 22.76693 11.14572
#
# Poissons Ratio (x) = 0.12170 -0.06083
# Poissons Ratio (y) = 0.67740 0.01400
# Poissons Ratio (z) = -0.69163 0.02860
#
# Static dielectric constant tensor:
#      x y z
#    x 1.950770 0.000000 0.011850 
#    y 0.000000 1.867340 0.000000 
#    z 0.011850 0.000000 1.877020 
# 
# From -- ./inp_files/242493.got.cif
#   From: 2010.05.17/outbox.cif.g08.bks.cpg/sg15_122_cif.got.tgz:242493.got - 2010.06.03 18:47:42.
