data_PCOD9258674
_publ_section_title
;
Structure prediction by ZEFSAII (Michael W. Deem and Ramdas Pophale) SiO2 
 PCOD9258674
Probable space group: C 2/C
;
_chemical_formula_sum "Si O2"
_cell_formula_units_Z 64
_cell_length_a 26.129745
_cell_length_b 21.668731
_cell_length_c 17.563786
_cell_angle_alpha 90.000000
_cell_angle_beta 157.747583
_cell_angle_gamma 90.000000
_cell_volume 3765.892691
_symmetry_space_group_name_H-M "C 2/C"
_symmetry_group_IT_number 15
_symmetry_cell_setting 'monoclinic'
loop_
_space_group_symop_operation_xyz
x,y,z
-x,y,1/2-z
-x,-y,-z
x,-y,1/2+z
1/2+x,1/2+y,z
1/2-x,1/2+y,1/2-z
1/2-x,1/2-y,-z
1/2+x,1/2-y,1/2+z
loop_
_atom_site_type_symbol
_atom_site_label
_atom_site_fract_x
_atom_site_fract_y
_atom_site_fract_z
Si Si1 0.149014 0.640232 0.205198
Si Si2 0.655515 0.132601 0.484786
Si Si3 0.465505 0.036853 0.530175
Si Si4 0.345610 0.735887 0.703153
Si Si5 0.549339 0.491632 0.177285
Si Si6 0.789160 0.971056 0.256750
Si Si7 0.452922 0.357555 0.095871
Si Si8 0.199725 0.460047 0.905456
O O1 0.041888 0.609052 0.000854
O O2 0.106373 0.701229 0.191695
O O3 0.294652 0.655221 0.371043
O O4 0.184726 0.584512 0.312748
O O5 0.500000 0.147658 0.250000
O O6 0.748201 0.192574 0.619407
O O7 0.695281 0.088430 0.609922
O O8 0.697285 0.089423 0.470693
O O9 0.500000 0.000000 0.500000
O O10 0.317213 0.019222 0.355913
O O11 0.577576 0.008828 0.741122
O O12 0.250000 0.750000 0.500000
O O13 0.465389 0.694527 0.835983
O O14 0.638483 0.493583 0.222104
O O15 0.488390 0.423289 0.106995
O O16 0.659494 0.496726 0.395924
O O17 0.419745 0.535799 0.991070
O O18 0.500000 0.357910 0.250000
#
# Coordination Sequence:
#
# PCOD9258674 Si02
#       8
#     8   8   8   8   8   8   8   8
#     4  11  22  34  48  72 106 147 181 214 258 329
#     4  11  20  31  50  74 105 137 166 214 266 322
#     4  10  21  34  51  72 104 145 180 225 276 312
#     4  12  22  32  45  74 105 146 180 202 255 327
#     4  10  19  31  52  77 102 136 176 221 270 322
#     4  10  19  33  49  73 107 136 175 227 268 320
#     4  12  19  32  51  72 105 144 180 212 257 325
#     4  10  18  34  50  75 102 134 175 219 268 316
#
# _framework density 16.994643
#
# number of rings (size 3 to 8) (size 9 to 14) (size 15 to 20)
#    0.000    1.250    8.750    0.000    1.750    0.000 
#    0.000    0.000    0.000    0.000    0.000    0.875 
#    0.000    0.000    0.000    0.000    0.000    0.250 
#
# Total GULP energy -178187.023176 kJ/mol
# GULP energy per Si atom -5568.344474 kJ/mol
# Density = 1.695596 g / cm^3
# Si number density = 16.994643 Si / 1000 Ang^3
#
#
#
# Elastic Constant Matrix: (Units=GPa)
#
#
# Indices 1 2 3 4 5 6 
#
# 1 34.9937 23.8955 5.5968 0.0000 10.8019 0.0000
# 2 23.8955 83.4251 33.6203 0.0000 -0.3497 0.0000
# 3 5.5968 33.6203 82.9771 0.0000 10.9674 0.0000
# 4 0.0000 0.0000 0.0000 22.3205 0.0000 -6.7218
# 5 10.8019 -0.3497 10.9674 0.0000 20.0618 0.0000
# 6 0.0000 0.0000 0.0000 -6.7218 0.0000 23.8127
#
#
#
# Elastic Compliance Matrix: (Units=1/GPa)
#
#
# Indices 1 2 3 4 5 6 
#
# 1 0.048492 -0.017128 0.007717 0.000000 -0.030627 0.000000
# 2 -0.017128 0.020634 -0.009131 0.000000 0.014574 0.000000
# 3 0.007717 -0.009131 0.017032 0.000000 -0.013625 0.000000
# 4 0.000000 0.000000 0.000000 0.048964 0.000000 0.013821
# 5 -0.030627 0.014574 -0.013625 0.000000 0.074039 0.000000
# 6 0.000000 0.000000 0.000000 0.013821 0.000000 0.045896
#
#
# Mechanical properties :
#
#
# Convention : Reuss Voigt Hill
#
# Bulk Modulus (GPa) = 20.37764 36.40236 28.39000
# Shear Modulus (GPa) = 16.20748 22.45788 19.33268
#
# Velocity S-wave (km/s) = 3.09152 3.63914 3.37645
# Velocity P-wave (km/s) = 4.97594 6.25494 5.65174
#
# Compressibility (1/GPa) = 0.04907340
#
# Stress axis : x y z
#
# Youngs Moduli (GPa) = 20.62179 48.46407 58.71415
#
# Poissons Ratio (x) = 0.83010 -0.45311
# Poissons Ratio (y) = 0.35321 0.53614
# Poissons Ratio (z) = -0.15914 0.44254
#
# Static dielectric constant tensor:
#      x y z
#    x 1.220690 0.000000 -0.198420 
#    y 0.000000 1.618540 0.000000 
#    z -0.198420 0.000000 1.569730 
# 
# From -- ./inp_files/259530.got.cif
#   From: 2010.05.17/outbox.cif.g08.bks.cpg/sg15_130_cif.got.tgz:259530.got - 2010.06.03 18:47:42.
