data_PCOD9258534
_publ_section_title
;
Structure prediction by ZEFSAII (Michael W. Deem and Ramdas Pophale) SiO2 
 PCOD9258534
Probable space group: C 2/C
;
_chemical_formula_sum "Si O2"
_cell_formula_units_Z 60
_cell_length_a 13.548524
_cell_length_b 28.490384
_cell_length_c 7.869529
_cell_angle_alpha 90.000000
_cell_angle_beta 96.025903
_cell_angle_gamma 90.000000
_cell_volume 3020.874587
_symmetry_space_group_name_H-M "C 2/C"
_symmetry_group_IT_number 15
_symmetry_cell_setting 'monoclinic'
loop_
_space_group_symop_operation_xyz
x,y,z
-x,y,1/2-z
-x,-y,-z
x,-y,1/2+z
1/2+x,1/2+y,z
1/2-x,1/2+y,1/2-z
1/2-x,1/2-y,-z
1/2+x,1/2-y,1/2+z
loop_
_atom_site_type_symbol
_atom_site_label
_atom_site_fract_x
_atom_site_fract_y
_atom_site_fract_z
Si Si1 0.774483 0.517132 0.405656
Si Si2 0.812534 0.067097 0.785012
Si Si3 0.357371 0.338186 0.807975
Si Si4 0.858707 0.740194 0.943536
Si Si5 0.315439 0.137941 0.961963
Si Si6 0.000000 0.780587 0.250000
Si Si7 0.940071 0.861598 0.470344
Si Si8 0.600386 0.051563 0.367949
O O1 0.740610 0.548800 0.554356
O O2 0.691667 0.478575 0.337080
O O3 0.809138 0.546780 0.250328
O O4 0.868987 0.486397 0.484909
O O5 0.748982 0.107685 0.681895
O O6 0.913081 0.091819 0.862695
O O7 0.374649 0.281719 0.810644
O O8 0.367768 0.356845 0.619504
O O9 0.448759 0.359554 0.934054
O O10 0.257800 0.349057 0.893946
O O11 0.857973 0.685954 0.892535
O O12 0.750000 0.750000 0.000000
O O13 0.937093 0.750182 0.107475
O O14 0.398176 0.102664 0.047835
O O15 0.931485 0.816522 0.345578
O O16 0.500000 0.042622 0.250000
#
# Coordination Sequence:
#
# PCOD9258534 Si02
#       8
#     8   8   8   8   8   4   8   8
#     4   9  20  35  53  80 107 136 178 231 275 323
#     4  10  19  35  58  79 108 142 180 224 274 328
#     4   9  19  34  55  80 110 143 181 221 263 325
#     4   9  18  34  52  77 110 145 180 222 270 315
#     4  10  20  34  54  78 109 142 181 228 262 320
#     4  10  20  34  58  80 114 148 182 226 270 324
#     4  10  18  33  59  82 103 146 185 213 269 330
#     4  10  19  33  55  75 102 140 178 221 278 325
#
# _framework density 19.861799000000001
#
# number of rings (size 3 to 8) (size 9 to 14) (size 15 to 20)
#    0.000    2.400    0.000    3.600    0.933    0.000 
#    0.000    7.333    5.867   36.000    0.000    0.000 
#    0.000    0.000    0.000    0.000    0.000    0.000 
#
# Total GULP energy -167296.718513 kJ/mol
# GULP energy per Si atom -5576.557284 kJ/mol
# Density = 1.981659 g / cm^3
# Si number density = 19.861799 Si / 1000 Ang^3
#
#
#
# Elastic Constant Matrix: (Units=GPa)
#
#
# Indices 1 2 3 4 5 6 
#
# 1 34.3992 18.6195 2.2091 0.0000 1.6701 0.0000
# 2 18.6195 110.2231 31.9588 0.0000 5.0432 0.0000
# 3 2.2091 31.9588 71.0427 0.0000 -8.2530 0.0000
# 4 0.0000 0.0000 0.0000 17.8104 0.0000 -6.7212
# 5 1.6701 5.0432 -8.2530 0.0000 13.6714 0.0000
# 6 0.0000 0.0000 0.0000 -6.7212 0.0000 12.2634
#
#
#
# Elastic Compliance Matrix: (Units=1/GPa)
#
#
# Indices 1 2 3 4 5 6 
#
# 1 0.032174 -0.005839 0.001527 0.000000 -0.000855 0.000000
# 2 -0.005839 0.012193 -0.006177 0.000000 -0.007513 0.000000
# 3 0.001527 -0.006177 0.018336 0.000000 0.013161 0.000000
# 4 0.000000 0.000000 0.000000 0.070788 0.000000 0.038797
# 5 -0.000855 -0.007513 0.013161 0.000000 0.083966 0.000000
# 6 0.000000 0.000000 0.000000 0.038797 0.000000 0.102807
#
#
# Mechanical properties :
#
#
# Convention : Reuss Voigt Hill
#
# Bulk Modulus (GPa) = 23.96541 35.69334 29.82937
# Shear Modulus (GPa) = 14.07852 19.60754 16.84303
#
# Velocity S-wave (km/s) = 2.66526 3.14538 2.91522
# Velocity P-wave (km/s) = 4.64368 5.58579 5.13638
#
# Compressibility (1/GPa) = 0.04172681
#
# Stress axis : x y z
#
# Youngs Moduli (GPa) = 31.08077 82.01136 54.53757
#
# Poissons Ratio (x) = 0.47883 -0.08326
# Poissons Ratio (y) = 0.18147 0.33685
# Poissons Ratio (z) = -0.04745 0.50655
#
# Static dielectric constant tensor:
#      x y z
#    x 1.696750 0.000000 0.007570 
#    y 0.000000 1.723110 0.000000 
#    z 0.007570 0.000000 1.696830 
# 
# From -- ./inp_files/43194.got.cif
#   From: 2010.05.17/outbox.cif.g08.bks.cpg/sg15_22_cif.got.tgz:43194.got - 2010.06.03 18:47:42.
