data_PCOD9258632
_publ_section_title
;
Structure prediction by ZEFSAII (Michael W. Deem and Ramdas Pophale) SiO2 
 PCOD9258632
Probable space group: C 2/C
;
_chemical_formula_sum "Si O2"
_cell_formula_units_Z 56
_cell_length_a 12.151809
_cell_length_b 14.870655
_cell_length_c 14.259898
_cell_angle_alpha 90.000000
_cell_angle_beta 103.551440
_cell_angle_gamma 90.000000
_cell_volume 2505.100616
_symmetry_space_group_name_H-M "C 2/C"
_symmetry_group_IT_number 15
_symmetry_cell_setting 'monoclinic'
loop_
_space_group_symop_operation_xyz
x,y,z
-x,y,1/2-z
-x,-y,-z
x,-y,1/2+z
1/2+x,1/2+y,z
1/2-x,1/2+y,1/2-z
1/2-x,1/2-y,-z
1/2+x,1/2-y,1/2+z
loop_
_atom_site_type_symbol
_atom_site_label
_atom_site_fract_x
_atom_site_fract_y
_atom_site_fract_z
Si Si1 0.055249 0.580927 0.386576
Si Si2 0.563719 0.639809 0.846640
Si Si3 0.265151 0.662901 0.066751
Si Si4 0.208750 0.843051 0.541990
Si Si5 0.457961 0.891925 0.065529
Si Si6 0.620907 0.230979 0.194569
Si Si7 0.997530 0.190266 0.360238
O O1 0.044677 0.598329 0.496807
O O2 0.956789 0.642703 0.324786
O O3 0.183250 0.608452 0.391311
O O4 0.031263 0.476815 0.365459
O O5 0.500000 0.584612 0.750000
O O6 0.628019 0.715740 0.794277
O O7 0.461191 0.696359 0.875593
O O8 0.646639 0.605364 0.942490
O O9 0.232658 0.701385 0.163449
O O10 0.393481 0.633147 0.083706
O O11 0.250000 0.750000 0.000000
O O12 0.165431 0.599976 0.009166
O O13 0.250000 0.750000 0.500000
O O14 0.474625 0.795714 0.115448
O O15 0.885133 0.170512 0.396516
O O16 0.000000 0.175831 0.250000
#
# Coordination Sequence:
#
# PCOD9258632 Si02
#       7
#     8   8   8   8   8   8   8
#     4  10  18  33  62  87 118 148 191 239 297 350
#     4   8  17  28  50  82 109 140 192 233 278 333
#     4   9  17  32  53  73 111 152 188 223 288 342
#     4  12  19  35  58  85 116 151 197 240 286 343
#     4   9  19  37  56  87 118 154 186 238 301 350
#     4   8  16  29  48  82 105 144 185 234 278 339
#     4  11  24  36  58  88 116 148 197 251 284 343
#
# _framework density 22.354391
#
# number of rings (size 3 to 8) (size 9 to 14) (size 15 to 20)
#    0.857    1.429    2.857    1.714    2.000    0.000 
#    2.571    0.714    3.143    0.857    0.000    0.000 
#    0.000    0.000    0.000    0.000    0.000    0.000 
#
# Total GULP energy -155876.473103 kJ/mol
# GULP energy per Si atom -5567.016897 kJ/mol
# Density = 2.230351 g / cm^3
# Si number density = 22.354391 Si / 1000 Ang^3
#
#
#
# Elastic Constant Matrix: (Units=GPa)
#
#
# Indices 1 2 3 4 5 6 
#
# 1 168.4313 9.1611 41.7019 0.0000 6.5154 0.0000
# 2 9.1611 27.6217 9.8378 0.0000 3.4436 0.0000
# 3 41.7019 9.8378 103.7287 0.0000 -5.7875 0.0000
# 4 0.0000 0.0000 0.0000 6.7936 0.0000 1.1721
# 5 6.5154 3.4436 -5.7875 0.0000 32.6839 0.0000
# 6 0.0000 0.0000 0.0000 1.1721 0.0000 12.0587
#
#
#
# Elastic Compliance Matrix: (Units=1/GPa)
#
#
# Indices 1 2 3 4 5 6 
#
# 1 0.006729 -0.001057 -0.002700 0.000000 -0.001708 0.000000
# 2 -0.001057 0.038340 -0.003459 0.000000 -0.004441 0.000000
# 3 -0.002700 -0.003459 0.011215 0.000000 0.002889 0.000000
# 4 0.000000 0.000000 0.000000 0.149708 0.000000 -0.014552
# 5 -0.001708 -0.004441 0.002889 0.000000 0.031916 0.000000
# 6 0.000000 0.000000 0.000000 -0.014552 0.000000 0.084342
#
#
# Mechanical properties :
#
#
# Convention : Reuss Voigt Hill
#
# Bulk Modulus (GPa) = 23.89409 46.79814 35.34611
# Shear Modulus (GPa) = 14.25987 26.24598 20.25292
#
# Velocity S-wave (km/s) = 2.52841 3.43021 3.01324
# Velocity P-wave (km/s) = 4.38586 6.05546 5.28698
#
# Compressibility (1/GPa) = 0.04185135
#
# Stress axis : x y z
#
# Youngs Moduli (GPa) = 148.60351 26.08264 89.16304
#
# Poissons Ratio (x) = 0.02757 0.24078
# Poissons Ratio (y) = 0.15709 0.30841
# Poissons Ratio (z) = 0.40129 0.09022
#
# Static dielectric constant tensor:
#      x y z
#    x 1.877680 0.000000 -0.026850 
#    y 0.000000 1.835790 0.000000 
#    z -0.026850 0.000000 1.990930 
# 
# From -- ./inp_files/239622.got.cif
#   From: 2010.05.17/outbox.cif.g08.bks.cpg/sg15_120_cif.got.tgz:239622.got - 2010.06.03 18:47:42.
