data_PCOD9258453
_publ_section_title
;
Structure prediction by ZEFSAII (Michael W. Deem and Ramdas Pophale) SiO2 
 PCOD9258453
Probable space group: C 2/C
;
_chemical_formula_sum "Si O2"
_cell_formula_units_Z 48
_cell_length_a 7.858049
_cell_length_b 13.855454
_cell_length_c 18.283100
_cell_angle_alpha 90.000000
_cell_angle_beta 73.858552
_cell_angle_gamma 90.000000
_cell_volume 1912.132997
_symmetry_space_group_name_H-M "C 2/C"
_symmetry_group_IT_number 15
_symmetry_cell_setting 'monoclinic'
loop_
_space_group_symop_operation_xyz
x,y,z
-x,y,1/2-z
-x,-y,-z
x,-y,1/2+z
1/2+x,1/2+y,z
1/2-x,1/2+y,1/2-z
1/2-x,1/2-y,-z
1/2+x,1/2-y,1/2+z
loop_
_atom_site_type_symbol
_atom_site_label
_atom_site_fract_x
_atom_site_fract_y
_atom_site_fract_z
Si Si1 0.981994 0.039268 0.172541
Si Si2 0.397757 0.954353 0.327279
Si Si3 0.480674 0.855579 0.880671
Si Si4 0.930692 0.105416 0.031651
Si Si5 0.472475 0.890407 0.472917
Si Si6 0.636572 0.339159 0.114937
O O1 0.788703 0.993715 0.179456
O O2 0.000000 0.083668 0.250000
O O3 0.103072 0.943112 0.154352
O O4 0.012347 0.113853 0.102481
O O5 0.500000 0.899530 0.250000
O O6 0.370571 0.900778 0.408289
O O7 0.522662 0.048162 0.330598
O O8 0.279802 0.881676 0.931507
O O9 0.449091 0.756523 0.840802
O O10 0.591893 0.846194 0.942435
O O11 0.955381 0.161754 0.953962
O O12 0.000000 0.000000 0.000000
O O13 0.653231 0.837189 0.425496
O O14 0.500000 0.000000 0.500000
#
# Coordination Sequence:
#
# PCOD9258453 Si02
#       6
#     8   8   8   8   8   8
#     4  10  20  33  52  77 103 139 179 212 254 310
#     4  10  20  35  53  76 104 136 176 218 256 307
#     4   9  18  32  55  80 104 135 170 214 265 311
#     4   8  15  28  49  76 100 127 168 208 245 297
#     4   9  17  31  53  79 103 133 171 209 255 306
#     4  10  18  33  57  80 105 136 170 215 263 313
#
# _framework density 25.102857
#
# number of rings (size 3 to 8) (size 9 to 14) (size 15 to 20)
#    0.000    2.667    0.000    4.000    0.000    0.667 
#    0.000    0.833    0.000   41.000    0.000    0.000 
#    0.000    0.000    0.000    0.000    0.000    0.000 
#
# Total GULP energy -133621.824807 kJ/mol
# GULP energy per Si atom -5567.576034 kJ/mol
# Density = 2.504572 g / cm^3
# Si number density = 25.102857 Si / 1000 Ang^3
#
#
#
# Elastic Constant Matrix: (Units=GPa)
#
#
# Indices 1 2 3 4 5 6 
#
# 1 98.3718 5.2012 30.1757 0.0000 12.6518 0.0000
# 2 5.2012 48.8809 -4.5344 0.0000 5.4202 0.0000
# 3 30.1757 -4.5344 138.3490 0.0000 32.4061 0.0000
# 4 0.0000 0.0000 0.0000 7.3106 0.0000 -1.7769
# 5 12.6518 5.4202 32.4061 0.0000 32.8870 0.0000
# 6 0.0000 0.0000 0.0000 -1.7769 0.0000 20.7073
#
#
#
# Elastic Compliance Matrix: (Units=1/GPa)
#
#
# Indices 1 2 3 4 5 6 
#
# 1 0.011102 -0.001122 -0.001952 0.000000 -0.002163 0.000000
# 2 -0.001122 0.021358 0.002169 0.000000 -0.005225 0.000000
# 3 -0.001952 0.002169 0.009923 0.000000 -0.009385 0.000000
# 4 0.000000 0.000000 0.000000 0.139702 0.000000 0.011988
# 5 -0.002163 -0.005225 -0.009385 0.000000 0.041348 0.000000
# 6 0.000000 0.000000 0.000000 0.011988 0.000000 0.049321
#
#
# Mechanical properties :
#
#
# Convention : Reuss Voigt Hill
#
# Bulk Modulus (GPa) = 24.64750 38.58740 31.61745
# Shear Modulus (GPa) = 17.35585 29.16493 23.26039
#
# Velocity S-wave (km/s) = 2.63228 3.41224 3.04732
# Velocity P-wave (km/s) = 4.36789 5.56144 5.00040
#
# Compressibility (1/GPa) = 0.04057207
#
# Stress axis : x y z
#
# Youngs Moduli (GPa) = 90.07636 46.82100 100.77557
#
# Poissons Ratio (x) = 0.05256 0.19667
# Poissons Ratio (y) = 0.10111 -0.21856
# Poissons Ratio (z) = 0.17579 -0.10155
#
# Static dielectric constant tensor:
#      x y z
#    x 2.043190 0.000000 0.018140 
#    y 0.000000 2.087580 0.000000 
#    z 0.018140 0.000000 2.044700 
# 
# From -- ./inp_files/189246.got.cif
#   From: 2010.05.17/outbox.cif.g08.bks.cpg/sg15_95_cif.got.tgz:189246.got - 2010.06.03 18:47:42.
