data_PCOD9258244
_publ_section_title
;
Structure prediction by ZEFSAII (Michael W. Deem and Ramdas Pophale) SiO2 
 PCOD9258244
Probable space group: C 2/C
;
_chemical_formula_sum "Si O2"
_cell_formula_units_Z 56
_cell_length_a 5.359272
_cell_length_b 23.375894
_cell_length_c 27.712196
_cell_angle_alpha 90.000000
_cell_angle_beta 124.257250
_cell_angle_gamma 90.000000
_cell_volume 2869.442747
_symmetry_space_group_name_H-M "C 2/C"
_symmetry_group_IT_number 15
_symmetry_cell_setting 'monoclinic'
loop_
_space_group_symop_operation_xyz
x,y,z
-x,y,1/2-z
-x,-y,-z
x,-y,1/2+z
1/2+x,1/2+y,z
1/2-x,1/2+y,1/2-z
1/2-x,1/2-y,-z
1/2+x,1/2-y,1/2+z
loop_
_atom_site_type_symbol
_atom_site_label
_atom_site_fract_x
_atom_site_fract_y
_atom_site_fract_z
Si Si1 0.677569 0.209320 0.724308
Si Si2 0.137556 0.941779 0.573707
Si Si3 0.175013 0.841106 0.725198
Si Si4 0.108622 0.927947 0.061379
Si Si5 0.124298 0.312417 0.409324
Si Si6 0.296990 0.172823 0.970255
Si Si7 0.204488 0.373919 0.596768
O O1 0.500000 0.182830 0.750000
O O2 0.739679 0.275184 0.746500
O O3 0.502014 0.210275 0.654682
O O4 0.000000 0.181148 0.750000
O O5 0.972937 0.934114 0.504009
O O6 0.448311 0.906491 0.600279
O O7 0.911912 0.916993 0.588752
O O8 0.178345 0.009147 0.587299
O O9 0.500000 0.867779 0.750000
O O10 0.000000 0.870029 0.750000
O O11 0.942123 0.841417 0.655989
O O12 0.371956 0.881663 0.095258
O O13 0.822654 0.892954 0.052530
O O14 0.481860 0.298562 0.452720
O O15 0.937752 0.299819 0.437496
O O16 0.533427 0.165743 0.039229
#
# Coordination Sequence:
#
# PCOD9258244 Si02
#       7
#     8   8   8   8   8   8   8
#     4  10  21  38  58  78  96 137 187 224 258 315
#     4  10  19  29  53  79 110 142 175 202 254 319
#     4  10  22  39  59  75  99 138 187 223 261 307
#     4   8  19  29  51  78 114 137 171 204 254 312
#     4  10  18  33  52  77 111 132 172 216 266 306
#     4   9  18  30  50  80 112 135 160 209 267 316
#     4  11  19  34  52  80 109 135 177 218 257 313
#
# _framework density 19.515986000000002
#
# number of rings (size 3 to 8) (size 9 to 14) (size 15 to 20)
#    0.857    1.429    1.429    1.714    2.000    1.714 
#    0.000    1.429    0.000    5.143    0.000    0.000 
#    0.000    0.000    0.000    0.000    0.000    0.000 
#
# Total GULP energy -155903.292874 kJ/mol
# GULP energy per Si atom -5567.974745 kJ/mol
# Density = 1.947157 g / cm^3
# Si number density = 19.515986 Si / 1000 Ang^3
#
#
#
# Elastic Constant Matrix: (Units=GPa)
#
#
# Indices 1 2 3 4 5 6 
#
# 1 144.3244 5.9488 39.0766 0.0000 -0.1417 0.0000
# 2 5.9488 47.1836 -16.9298 0.0000 1.0189 0.0000
# 3 39.0766 -16.9298 67.4002 0.0000 3.4035 0.0000
# 4 0.0000 0.0000 0.0000 -22.4040 0.0000 10.5448
# 5 -0.1417 1.0189 3.4035 0.0000 23.8107 0.0000
# 6 0.0000 0.0000 0.0000 10.5448 0.0000 -7.8814
#
#
#
# Elastic Compliance Matrix: (Units=1/GPa)
#
#
# Indices 1 2 3 4 5 6 
#
# 1 0.008654 -0.003223 -0.005879 0.000000 0.001030 0.000000
# 2 -0.003223 0.024574 0.008154 0.000000 -0.002236 0.000000
# 3 -0.005879 0.008154 0.020461 0.000000 -0.003309 0.000000
# 4 0.000000 0.000000 0.000000 -0.120542 0.000000 -0.161277
# 5 0.001030 -0.002236 -0.003309 0.000000 0.042573 0.000000
# 6 0.000000 0.000000 0.000000 -0.161277 0.000000 -0.342657
#
#
# Mechanical properties :
#
#
# Convention : Reuss Voigt Hill
#
# Bulk Modulus (GPa) = 19.30751 35.01105 27.15928
# Shear Modulus (GPa) = -14.37705 14.09256 -0.14224
#
# Velocity S-wave (km/s) = -2.71713 2.69011 -0.27027
# Velocity P-wave (km/s) = 0.26632 5.25619 3.72146
#
# Compressibility (1/GPa) = 0.05179331
#
# Stress axis : x y z
#
# Youngs Moduli (GPa) = 115.54691 40.69315 48.87455
#
# Poissons Ratio (x) = 0.13115 0.28734
# Poissons Ratio (y) = 0.37239 -0.39853
# Poissons Ratio (z) = 0.67932 -0.33181
#
# Static dielectric constant tensor:
#      x y z
#    x 1.385150 0.000000 0.000810 
#    y 0.000000 1.707140 0.000000 
#    z 0.000810 0.000000 1.676510 
# 
# From -- ./inp_files/286457.got.cif
#   From: 2010.05.17/outbox.cif.g08.bks.cpg/sg15_144_cif.got.tgz:286457.got - 2010.06.03 18:47:42.
