data_PCOD9258370
_publ_section_title
;
Structure prediction by ZEFSAII (Michael W. Deem and Ramdas Pophale) SiO2 
 PCOD9258370
Probable space group: C 2/C
;
_chemical_formula_sum "Si O2"
_cell_formula_units_Z 52
_cell_length_a 25.537370
_cell_length_b 10.316858
_cell_length_c 14.518261
_cell_angle_alpha 90.000000
_cell_angle_beta 145.437695
_cell_angle_gamma 90.000000
_cell_volume 2169.964339
_symmetry_space_group_name_H-M "C 2/C"
_symmetry_group_IT_number 15
_symmetry_cell_setting 'monoclinic'
loop_
_space_group_symop_operation_xyz
x,y,z
-x,y,1/2-z
-x,-y,-z
x,-y,1/2+z
1/2+x,1/2+y,z
1/2-x,1/2+y,1/2-z
1/2-x,1/2-y,-z
1/2+x,1/2-y,1/2+z
loop_
_atom_site_type_symbol
_atom_site_label
_atom_site_fract_x
_atom_site_fract_y
_atom_site_fract_z
Si Si1 0.500000 0.327903 0.250000
Si Si2 0.900113 0.730116 0.272584
Si Si3 0.259111 0.901593 0.438210
Si Si4 0.152684 0.310881 0.239224
Si Si5 0.170722 0.826462 0.592168
Si Si6 0.878571 0.421648 0.908107
Si Si7 0.162128 0.320554 0.462855
O O1 0.472299 0.239014 0.295924
O O2 0.593741 0.395887 0.418047
O O3 0.847648 0.865043 0.211269
O O4 0.930017 0.672827 0.411781
O O5 0.815805 0.642276 0.110882
O O6 0.304547 0.811893 0.423127
O O7 0.274014 0.052002 0.453704
O O8 0.130253 0.196862 0.134815
O O9 0.116364 0.437947 0.132504
O O10 0.123192 0.301190 0.303275
O O11 0.266663 0.296099 0.408847
O O12 0.268514 0.894003 0.742817
O O13 0.901586 0.372255 0.044886
#
# Coordination Sequence:
#
# PCOD9258370 Si02
#       7
#     4   8   8   8   8   8   8
#     4  10  20  34  54  82 108 142 180 226 272 316
#     4   9  18  30  53  77 107 135 183 229 262 308
#     4   9  15  30  53  82  99 132 182 229 264 307
#     4  10  19  31  51  84 111 136 174 229 280 319
#     4   9  19  33  54  81 108 135 180 226 268 319
#     4  10  18  33  55  80 104 140 185 228 266 317
#     4  10  19  29  52  85 110 134 174 235 280 312
#
# _framework density 23.963528
#
# number of rings (size 3 to 8) (size 9 to 14) (size 15 to 20)
#    0.000    2.462    3.077    0.923    0.000    0.000 
#    0.000    0.769    0.000    4.615    0.000    5.385 
#    0.000    0.000    0.000    0.000    0.000    0.000 
#
# Total GULP energy -144841.294342 kJ/mol
# GULP energy per Si atom -5570.819013 kJ/mol
# Density = 2.390899 g / cm^3
# Si number density = 23.963528 Si / 1000 Ang^3
#
#
#
# Elastic Constant Matrix: (Units=GPa)
#
#
# Indices 1 2 3 4 5 6 
#
# 1 151.8157 15.8614 40.4790 0.0000 -36.7146 0.0000
# 2 15.8614 29.4034 -1.1805 0.0000 1.3238 0.0000
# 3 40.4790 -1.1805 112.1689 0.0000 -18.7447 0.0000
# 4 0.0000 0.0000 0.0000 9.4457 0.0000 -4.8962
# 5 -36.7146 1.3238 -18.7447 0.0000 49.0294 0.0000
# 6 0.0000 0.0000 0.0000 -4.8962 0.0000 16.8797
#
#
#
# Elastic Compliance Matrix: (Units=1/GPa)
#
#
# Indices 1 2 3 4 5 6 
#
# 1 0.009277 -0.005378 -0.002371 0.000000 0.006186 0.000000
# 2 -0.005378 0.037174 0.001593 0.000000 -0.004422 0.000000
# 3 -0.002371 0.001593 0.010131 0.000000 0.002055 0.000000
# 4 0.000000 0.000000 0.000000 0.124603 0.000000 0.036143
# 5 0.006186 -0.004422 0.002055 0.000000 0.025933 0.000000
# 6 0.000000 0.000000 0.000000 0.036143 0.000000 0.069727
#
#
# Mechanical properties :
#
#
# Convention : Reuss Voigt Hill
#
# Bulk Modulus (GPa) = 22.58853 44.85644 33.72249
# Shear Modulus (GPa) = 16.45212 30.95281 23.70246
#
# Velocity S-wave (km/s) = 2.62305 3.59787 3.14842
# Velocity P-wave (km/s) = 4.31515 6.00157 5.22682
#
# Compressibility (1/GPa) = 0.04427025
#
# Stress axis : x y z
#
# Youngs Moduli (GPa) = 107.79551 26.90067 98.70867
#
# Poissons Ratio (x) = 0.14467 0.23401
# Poissons Ratio (y) = 0.57972 -0.15725
# Poissons Ratio (z) = 0.25555 -0.04285
#
# Static dielectric constant tensor:
#      x y z
#    x 2.051690 0.000000 -0.030350 
#    y 0.000000 1.941610 0.000000 
#    z -0.030350 0.000000 1.978020 
# 
# From -- ./inp_files/177378.got.cif
#   From: 2010.05.17/outbox.cif.g08.bks.cpg/sg15_89_cif.got.tgz:177378.got - 2010.06.03 18:47:42.
