data_PCOD9258303
_publ_section_title
;
Structure prediction by ZEFSAII (Michael W. Deem and Ramdas Pophale) SiO2 
 PCOD9258303
Probable space group: C 2/C
;
_chemical_formula_sum "Si O2"
_cell_formula_units_Z 64
_cell_length_a 22.940504
_cell_length_b 5.121937
_cell_length_c 21.157904
_cell_angle_alpha 90.000000
_cell_angle_beta 104.266044
_cell_angle_gamma 90.000000
_cell_volume 2409.384887
_symmetry_space_group_name_H-M "C 2/C"
_symmetry_group_IT_number 15
_symmetry_cell_setting 'monoclinic'
loop_
_space_group_symop_operation_xyz
x,y,z
-x,y,1/2-z
-x,-y,-z
x,-y,1/2+z
1/2+x,1/2+y,z
1/2-x,1/2+y,1/2-z
1/2-x,1/2-y,-z
1/2+x,1/2-y,1/2+z
loop_
_atom_site_type_symbol
_atom_site_label
_atom_site_fract_x
_atom_site_fract_y
_atom_site_fract_z
Si Si1 0.762774 0.048979 0.945705
Si Si2 0.201105 0.389604 0.301892
Si Si3 0.552593 0.586850 0.597586
Si Si4 0.039661 0.805923 0.708849
Si Si5 0.648689 0.713782 0.953499
Si Si6 0.856217 0.452186 0.830203
Si Si7 0.083484 0.420299 0.037668
Si Si8 0.127375 0.105111 0.815131
O O1 0.753776 0.106982 0.868674
O O2 0.710276 0.837589 0.943841
O O3 0.750000 0.250000 0.000000
O O4 0.829205 0.958562 0.981761
O O5 0.201528 0.487423 0.228691
O O6 0.150580 0.600308 0.312208
O O7 0.175871 0.098682 0.300721
O O8 0.512521 0.465315 0.642386
O O9 0.542027 0.853916 0.556720
O O10 0.558425 0.359764 0.548851
O O11 0.615062 0.664094 0.652409
O O12 0.068878 0.023674 0.762116
O O13 0.000000 0.653046 0.750000
O O14 0.089197 0.617867 0.688730
O O15 0.622981 0.557106 0.888379
O O16 0.603424 0.924372 0.970753
O O17 0.855702 0.545670 0.902464
#
# Coordination Sequence:
#
# PCOD9258303 Si02
#       8
#     8   8   8   8   8   8   8   8
#     4  10  20  33  52  82 104 141 172 236 268 306
#     4  10  18  33  54  72 110 134 177 216 269 311
#     4   9  18  35  53  77 102 141 180 207 264 314
#     4  10  19  34  58  87 111 131 173 229 273 312
#     4  10  21  34  54  78 108 140 186 218 269 315
#     4   8  18  34  54  77 101 144 172 212 261 322
#     4   9  19  33  55  73 102 145 184 206 252 330
#     4  10  19  33  51  80 105 140 170 216 267 323
#
# _framework density 26.562795999999999
#
# number of rings (size 3 to 8) (size 9 to 14) (size 15 to 20)
#    0.750    1.750    2.500    0.000    1.750    0.500 
#    0.000    0.000    5.500    3.750    0.000    0.000 
#    0.000    0.000    0.000    0.000    0.000    0.000 
#
# Total GULP energy -178378.759194 kJ/mol
# GULP energy per Si atom -5574.336225 kJ/mol
# Density = 2.650234 g / cm^3
# Si number density = 26.562796 Si / 1000 Ang^3
#
#
#
# Elastic Constant Matrix: (Units=GPa)
#
#
# Indices 1 2 3 4 5 6 
#
# 1 82.1187 18.0799 17.9283 0.0000 -6.9144 0.0000
# 2 18.0799 95.0957 17.3417 0.0000 1.7840 0.0000
# 3 17.9283 17.3417 121.5403 0.0000 4.1917 0.0000
# 4 0.0000 0.0000 0.0000 43.8147 0.0000 1.1234
# 5 -6.9144 1.7840 4.1917 0.0000 36.1945 0.0000
# 6 0.0000 0.0000 0.0000 1.1234 0.0000 12.9409
#
#
#
# Elastic Compliance Matrix: (Units=1/GPa)
#
#
# Indices 1 2 3 4 5 6 
#
# 1 0.013295 -0.002265 -0.001736 0.000000 0.002853 0.000000
# 2 -0.002265 0.011187 -0.001233 0.000000 -0.000841 0.000000
# 3 -0.001736 -0.001233 0.008704 0.000000 -0.001279 0.000000
# 4 0.000000 0.000000 0.000000 0.022874 0.000000 -0.001986
# 5 0.002853 -0.000841 -0.001279 0.000000 0.028363 0.000000
# 6 0.000000 0.000000 0.000000 -0.001986 0.000000 0.077447
#
#
# Mechanical properties :
#
#
# Convention : Reuss Voigt Hill
#
# Bulk Modulus (GPa) = 44.01824 45.05052 44.53438
# Shear Modulus (GPa) = 27.79145 34.95033 31.37089
#
# Velocity S-wave (km/s) = 3.23810 3.63128 3.44031
# Velocity P-wave (km/s) = 5.53062 5.88034 5.70816
#
# Compressibility (1/GPa) = 0.02271785
#
# Stress axis : x y z
#
# Youngs Moduli (GPa) = 75.21407 89.39001 114.89072
#
# Poissons Ratio (x) = 0.20243 0.19950
# Poissons Ratio (y) = 0.17033 0.14167
# Poissons Ratio (z) = 0.13061 0.11023
#
# Static dielectric constant tensor:
#      x y z
#    x 2.192390 0.000000 0.034380 
#    y 0.000000 2.154950 0.000000 
#    z 0.034380 0.000000 2.218750 
# 
# From -- ./inp_files/258444.got.cif
#   From: 2010.05.17/outbox.cif.g08.bks.cpg/sg15_130_cif.got.tgz:258444.got - 2010.06.03 18:47:42.
