data_PCOD9258388
_publ_section_title
;
Structure prediction by ZEFSAII (Michael W. Deem and Ramdas Pophale) SiO2 
 PCOD9258388
Probable space group: C 2/C
;
_chemical_formula_sum "Si O2"
_cell_formula_units_Z 56
_cell_length_a 9.517845
_cell_length_b 12.734165
_cell_length_c 24.617357
_cell_angle_alpha 90.000000
_cell_angle_beta 130.215788
_cell_angle_gamma 90.000000
_cell_volume 2278.383162
_symmetry_space_group_name_H-M "C 2/C"
_symmetry_group_IT_number 15
_symmetry_cell_setting 'monoclinic'
loop_
_space_group_symop_operation_xyz
x,y,z
-x,y,1/2-z
-x,-y,-z
x,-y,1/2+z
1/2+x,1/2+y,z
1/2-x,1/2+y,1/2-z
1/2-x,1/2-y,-z
1/2+x,1/2-y,1/2+z
loop_
_atom_site_type_symbol
_atom_site_label
_atom_site_fract_x
_atom_site_fract_y
_atom_site_fract_z
Si Si1 0.414179 0.758773 0.104744
Si Si2 0.124438 0.952436 0.632660
Si Si3 0.000000 0.344759 0.750000
Si Si4 0.585473 0.172964 0.160426
Si Si5 0.231289 0.961875 0.431333
Si Si6 0.821163 0.515879 0.576374
Si Si7 0.000000 0.207359 0.250000
Si Si8 0.959444 0.670807 0.467780
O O1 0.523458 0.662272 0.105118
O O2 0.430622 0.877823 0.091899
O O3 0.461966 0.760715 0.181685
O O4 0.196139 0.738189 0.042972
O O5 0.321337 0.919549 0.705553
O O6 0.173041 0.010880 0.588197
O O7 0.983665 0.020974 0.634086
O O8 0.025786 0.275510 0.702196
O O9 0.471779 0.066620 0.132990
O O10 0.803161 0.154271 0.211124
O O11 0.520376 0.221148 0.086913
O O12 0.348443 0.855298 0.455787
O O13 0.237722 0.981527 0.498182
O O14 0.351589 0.057361 0.435337
#
# Coordination Sequence:
#
# PCOD9258388 Si02
#       8
#     8   8   4   8   8   8   4   8
#     4  10  20  35  58  87 113 157 200 247 300 364
#     4  10  20  34  56  84 116 157 191 246 310 355
#     4  10  18  33  55  84 110 146 196 240 295 361
#     4   9  18  33  57  80 112 151 189 240 292 357
#     4   9  17  35  56  81 114 157 198 238 301 363
#     4  10  21  35  57  89 116 149 202 250 296 361
#     4  10  18  37  59  78 114 156 192 234 311 355
#     4   8  17  32  56  81 111 155 197 236 294 361
#
# _framework density 24.578834000000001
#
# number of rings (size 3 to 8) (size 9 to 14) (size 15 to 20)
#    0.000    2.571    1.429    0.429    0.000    4.571 
#    0.000    1.429    0.000   36.000    0.000    0.000 
#    0.000    0.000    0.000    0.000    0.000    0.000 
#
# Total GULP energy -156075.625763 kJ/mol
# GULP energy per Si atom -5574.129492 kJ/mol
# Density = 2.452289 g / cm^3
# Si number density = 24.578834 Si / 1000 Ang^3
#
#
#
# Elastic Constant Matrix: (Units=GPa)
#
#
# Indices 1 2 3 4 5 6 
#
# 1 139.9015 10.4705 42.2773 0.0000 5.0288 0.0000
# 2 10.4705 41.0786 10.7226 0.0000 -0.9424 0.0000
# 3 42.2773 10.7226 78.9070 0.0000 7.4960 0.0000
# 4 0.0000 0.0000 0.0000 10.0623 0.0000 -7.9412
# 5 5.0288 -0.9424 7.4960 0.0000 62.4982 0.0000
# 6 0.0000 0.0000 0.0000 -7.9412 0.0000 22.6703
#
#
#
# Elastic Compliance Matrix: (Units=1/GPa)
#
#
# Indices 1 2 3 4 5 6 
#
# 1 0.008572 -0.001031 -0.004436 0.000000 -0.000173 0.000000
# 2 -0.001031 0.025402 -0.002978 0.000000 0.000823 0.000000
# 3 -0.004436 -0.002978 0.015603 0.000000 -0.001559 0.000000
# 4 0.000000 0.000000 0.000000 0.137353 0.000000 0.048114
# 5 -0.000173 0.000823 -0.001559 0.000000 0.016214 0.000000
# 6 0.000000 0.000000 0.000000 0.048114 0.000000 0.060964
#
#
# Mechanical properties :
#
#
# Convention : Reuss Voigt Hill
#
# Bulk Modulus (GPa) = 30.59277 42.98088 36.78682
# Shear Modulus (GPa) = 17.12955 32.14062 24.63508
#
# Velocity S-wave (km/s) = 2.64279 3.62007 3.16933
# Velocity P-wave (km/s) = 4.66758 5.91592 5.32844
#
# Compressibility (1/GPa) = 0.03268746
#
# Stress axis : x y z
#
# Youngs Moduli (GPa) = 116.66109 39.36623 64.09129
#
# Poissons Ratio (x) = 0.04058 0.28432
# Poissons Ratio (y) = 0.12026 0.19085
# Poissons Ratio (z) = 0.51752 0.11722
#
# Static dielectric constant tensor:
#      x y z
#    x 2.051300 0.000000 -0.085870 
#    y 0.000000 1.969380 0.000000 
#    z -0.085870 0.000000 2.126840 
# 
# From -- ./inp_files/288384.got.cif
#   From: 2010.05.17/outbox.cif.g08.bks.cpg/sg15_145_cif.got.tgz:288384.got - 2010.06.03 18:47:42.
