data_PCOD9258866
_publ_section_title
;
Structure prediction by ZEFSAII (Michael W. Deem and Ramdas Pophale) SiO2 
 PCOD9258866
Probable space group: C 2/C
;
_chemical_formula_sum "Si O2"
_cell_formula_units_Z 40
_cell_length_a 25.648228
_cell_length_b 10.104667
_cell_length_c 8.598854
_cell_angle_alpha 90.000000
_cell_angle_beta 114.188161
_cell_angle_gamma 90.000000
_cell_volume 2032.882603
_symmetry_space_group_name_H-M "C 2/C"
_symmetry_group_IT_number 15
_symmetry_cell_setting 'monoclinic'
loop_
_space_group_symop_operation_xyz
x,y,z
-x,y,1/2-z
-x,-y,-z
x,-y,1/2+z
1/2+x,1/2+y,z
1/2-x,1/2+y,1/2-z
1/2-x,1/2-y,-z
1/2+x,1/2-y,1/2+z
loop_
_atom_site_type_symbol
_atom_site_label
_atom_site_fract_x
_atom_site_fract_y
_atom_site_fract_z
Si Si1 0.707977 0.144302 0.366768
Si Si2 0.984347 0.855434 0.912988
Si Si3 0.595795 0.307970 0.169186
Si Si4 0.879776 0.932663 0.642328
Si Si5 0.751370 0.894866 0.575522
O O1 0.750000 0.250000 0.500000
O O2 0.644533 0.203023 0.268648
O O3 0.736653 0.118710 0.236164
O O4 0.708901 0.004189 0.454668
O O5 0.000000 0.853136 0.750000
O O6 0.916056 0.844377 0.811649
O O7 0.030076 0.763663 0.057977
O O8 0.000000 0.000000 0.000000
O O9 0.595639 0.419579 0.303752
O O10 0.614497 0.376327 0.025694
O O11 0.814956 0.943895 0.616695
O O12 0.750000 0.750000 0.500000
#
# Coordination Sequence:
#
# PCOD9258866 Si02
#       5
#     8   8   8   8   8
#     4  12  24  39  58  84 119 155 190 243 292 351
#     4   8  16  29  52  81 111 147 182 236 282 332
#     4  10  19  34  55  86 118 150 189 234 292 340
#     4  10  18  34  56  84 117 147 189 237 284 340
#     4  12  23  38  57  85 118 153 195 232 291 347
#
# _framework density 19.676493000000001
#
# number of rings (size 3 to 8) (size 9 to 14) (size 15 to 20)
#    0.000    1.600    4.000    2.400    0.000    0.000 
#    0.000    0.000    0.000    1.200    0.000    0.000 
#    0.000    0.000    0.000    0.000    0.000    0.000 
#
# Total GULP energy -111438.736431 kJ/mol
# GULP energy per Si atom -5571.936822 kJ/mol
# Density = 1.963171 g / cm^3
# Si number density = 19.676493 Si / 1000 Ang^3
#
#
#
# Elastic Constant Matrix: (Units=GPa)
#
#
# Indices 1 2 3 4 5 6 
#
# 1 37.7337 7.6469 22.3289 0.0000 22.1566 0.0000
# 2 7.6469 85.5445 58.4969 0.0000 5.4985 0.0000
# 3 22.3289 58.4969 116.2128 0.0000 11.1249 0.0000
# 4 0.0000 0.0000 0.0000 39.3934 0.0000 5.3562
# 5 22.1566 5.4985 11.1249 0.0000 47.3216 0.0000
# 6 0.0000 0.0000 0.0000 5.3562 0.0000 21.1433
#
#
#
# Elastic Compliance Matrix: (Units=1/GPa)
#
#
# Indices 1 2 3 4 5 6 
#
# 1 0.040725 0.002576 -0.007435 0.000000 -0.017619 0.000000
# 2 0.002576 0.017989 -0.009447 0.000000 -0.001075 0.000000
# 3 -0.007435 -0.009447 0.014681 0.000000 0.001127 0.000000
# 4 0.000000 0.000000 0.000000 0.026291 0.000000 -0.006660
# 5 -0.017619 -0.001075 0.001127 0.000000 0.029242 0.000000
# 6 0.000000 0.000000 0.000000 -0.006660 0.000000 0.048984
#
#
# Mechanical properties :
#
#
# Convention : Reuss Voigt Hill
#
# Bulk Modulus (GPa) = 22.32982 46.27072 34.30027
# Shear Modulus (GPa) = 22.57865 31.63954 27.10910
#
# Velocity S-wave (km/s) = 3.39114 4.01432 3.71582
# Velocity P-wave (km/s) = 5.16781 6.71216 5.98997
#
# Compressibility (1/GPa) = 0.04478316
#
# Stress axis : x y z
#
# Youngs Moduli (GPa) = 24.55503 55.59103 68.11714
#
# Poissons Ratio (x) = -0.14321 0.50644
# Poissons Ratio (y) = -0.06326 0.64348
# Poissons Ratio (z) = 0.18256 0.52515
#
# Static dielectric constant tensor:
#      x y z
#    x 1.767070 0.000000 0.060810 
#    y 0.000000 1.745640 0.000000 
#    z 0.060810 0.000000 1.740460 
# 
# From -- ./inp_files/64540.got.cif
#   From: 2010.05.17/outbox.cif.g08.bks.cpg/sg15_33_cif.got.tgz:64540.got - 2010.06.03 18:47:42.
