data_PCOD9258118
_publ_section_title
;
Structure prediction by ZEFSAII (Michael W. Deem and Ramdas Pophale) SiO2 
 PCOD9258118
Probable space group: C 2/C
;
_chemical_formula_sum "Si O2"
_cell_formula_units_Z 32
_cell_length_a 21.630099
_cell_length_b 9.079777
_cell_length_c 9.695187
_cell_angle_alpha 90.000000
_cell_angle_beta 127.681895
_cell_angle_gamma 90.000000
_cell_volume 1506.937037
_symmetry_space_group_name_H-M "C 2/C"
_symmetry_group_IT_number 15
_symmetry_cell_setting 'monoclinic'
loop_
_space_group_symop_operation_xyz
x,y,z
-x,y,1/2-z
-x,-y,-z
x,-y,1/2+z
1/2+x,1/2+y,z
1/2-x,1/2+y,1/2-z
1/2-x,1/2-y,-z
1/2+x,1/2-y,1/2+z
loop_
_atom_site_type_symbol
_atom_site_label
_atom_site_fract_x
_atom_site_fract_y
_atom_site_fract_z
Si Si1 0.604427 0.416627 0.688959
Si Si2 0.027464 0.776429 0.139356
Si Si3 0.797585 0.095283 0.909630
Si Si4 0.697787 0.171325 0.309369
O O1 0.546166 0.287763 0.562874
O O2 0.554740 0.552480 0.684672
O O3 0.647957 0.490999 0.616244
O O4 0.661580 0.372770 0.889789
O O5 0.105650 0.692522 0.203740
O O6 0.000000 0.723702 0.250000
O O7 0.781635 0.240934 0.801629
O O8 0.722292 0.996770 0.834794
O O9 0.750000 0.250000 0.500000
#
# Coordination Sequence:
#
# PCOD9258118 Si02
#       4
#     8   8   8   8
#     4  10  19  33  59  92 115 158 213 256 291 365
#     4  10  18  32  60  88 122 155 208 258 305 352
#     4  11  21  39  62  94 123 163 205 260 314 365
#     4  11  22  38  60  94 128 161 204 262 313 368
#
# _framework density 21.235129000000001
#
# number of rings (size 3 to 8) (size 9 to 14) (size 15 to 20)
#    0.000    1.500    7.500    0.000    0.000    1.000 
#    0.000    0.000    0.000    6.000    6.500    0.000 
#    0.000    0.000    0.000    0.000    0.000    0.000 
#
# Total GULP energy -89397.116867 kJ/mol
# GULP energy per Si atom -5587.319804 kJ/mol
# Density = 2.118680 g / cm^3
# Si number density = 21.235129 Si / 1000 Ang^3
#
#
#
# Elastic Constant Matrix: (Units=GPa)
#
#
# Indices 1 2 3 4 5 6 
#
# 1 83.1268 32.4000 46.5505 0.0000 1.8684 0.0000
# 2 32.4000 40.2805 48.6039 0.0000 12.0532 0.0000
# 3 46.5505 48.6039 187.2709 0.0000 -1.5538 0.0000
# 4 0.0000 0.0000 0.0000 8.7802 0.0000 -0.3376
# 5 1.8684 12.0532 -1.5538 0.0000 30.0130 0.0000
# 6 0.0000 0.0000 0.0000 -0.3376 0.0000 19.8946
#
#
#
# Elastic Compliance Matrix: (Units=1/GPa)
#
#
# Indices 1 2 3 4 5 6 
#
# 1 0.018286 -0.015757 -0.000413 0.000000 0.005168 0.000000
# 2 -0.015757 0.058034 -0.011335 0.000000 -0.022912 0.000000
# 3 -0.000413 -0.011335 0.008426 0.000000 0.005014 0.000000
# 4 0.000000 0.000000 0.000000 0.113967 0.000000 0.001934
# 5 0.005168 -0.022912 0.005014 0.000000 0.042458 0.000000
# 6 0.000000 0.000000 0.000000 0.001934 0.000000 0.050298
#
#
# Mechanical properties :
#
#
# Convention : Reuss Voigt Hill
#
# Bulk Modulus (GPa) = 33.62969 62.86522 48.24745
# Shear Modulus (GPa) = 14.02953 23.94583 18.98768
#
# Velocity S-wave (km/s) = 2.57315 3.36170 2.99350
# Velocity P-wave (km/s) = 4.96984 6.68854 5.89220
#
# Compressibility (1/GPa) = 0.02973563
#
# Stress axis : x y z
#
# Youngs Moduli (GPa) = 54.68516 17.23141 118.67886
#
# Poissons Ratio (x) = 0.27151 0.04903
# Poissons Ratio (y) = 0.86166 1.34526
# Poissons Ratio (z) = 0.02259 0.19532
#
# Static dielectric constant tensor:
#      x y z
#    x 1.806400 0.000000 0.021890 
#    y 0.000000 1.755650 0.000000 
#    z 0.021890 0.000000 1.772690 
# 
# From -- ./inp_files/36578.got.cif
#   From: 2010.05.17/outbox.cif.g08.bks.cpg/sg15_19_cif.got.tgz:36578.got - 2010.06.03 18:47:42.
