data_PCOD9258950
_publ_section_title
;
Structure prediction by ZEFSAII (Michael W. Deem and Ramdas Pophale) SiO2 
 PCOD9258950
Probable space group: C 2/C
;
_chemical_formula_sum "Si O2"
_cell_formula_units_Z 52
_cell_length_a 11.147497
_cell_length_b 27.480521
_cell_length_c 8.347822
_cell_angle_alpha 90.000000
_cell_angle_beta 77.077056
_cell_angle_gamma 90.000000
_cell_volume 2492.492555
_symmetry_space_group_name_H-M "C 2/C"
_symmetry_group_IT_number 15
_symmetry_cell_setting 'monoclinic'
loop_
_space_group_symop_operation_xyz
x,y,z
-x,y,1/2-z
-x,-y,-z
x,-y,1/2+z
1/2+x,1/2+y,z
1/2-x,1/2+y,1/2-z
1/2-x,1/2-y,-z
1/2+x,1/2-y,1/2+z
loop_
_atom_site_type_symbol
_atom_site_label
_atom_site_fract_x
_atom_site_fract_y
_atom_site_fract_z
Si Si1 0.357160 0.604805 0.260969
Si Si2 0.649103 0.576476 0.738379
Si Si3 0.636240 0.260507 0.255808
Si Si4 0.645609 0.486899 0.934386
Si Si5 0.157527 0.798041 0.902256
Si Si6 0.000000 0.279300 0.250000
Si Si7 0.745664 0.839392 0.097621
O O1 0.500000 0.596227 0.250000
O O2 0.317566 0.551513 0.215516
O O3 0.367280 0.645655 0.118807
O O4 0.284860 0.630432 0.428261
O O5 0.500000 0.585817 0.750000
O O6 0.685382 0.540557 0.874542
O O7 0.685227 0.543437 0.576848
O O8 0.722597 0.624655 0.763015
O O9 0.500000 0.247399 0.250000
O O10 0.721217 0.213921 0.236945
O O11 0.658953 0.294837 0.400020
O O12 0.679466 0.288711 0.082153
O O13 0.500000 0.500000 0.000000
O O14 0.061976 0.757906 0.860139
O O15 0.889024 0.313950 0.349276
#
# Coordination Sequence:
#
# PCOD9258950 Si02
#       7
#     8   8   8   8   8   4   8
#     4  12  21  34  59  90 120 153 198 250 317 370
#     4  10  18  34  57  89 118 153 188 251 308 372
#     4  10  21  36  56  80 117 159 207 253 306 353
#     4  10  20  34  59  91 127 149 189 252 320 372
#     4  10  22  37  56  85 117 160 209 256 298 363
#     4  10  24  42  58  86 124 172 220 250 296 358
#     4  11  23  37  62  86 125 168 205 253 307 364
#
# _framework density 20.862651
#
# number of rings (size 3 to 8) (size 9 to 14) (size 15 to 20)
#    0.000    1.538    0.769    6.462    2.154    1.231 
#    0.000    0.000    0.000    3.692    0.000    0.000 
#    0.000    0.000    0.000    0.000    0.000    0.000 
#
# Total GULP energy -144786.098585 kJ/mol
# GULP energy per Si atom -5568.696099 kJ/mol
# Density = 2.081517 g / cm^3
# Si number density = 20.862651 Si / 1000 Ang^3
#
#
#
# Elastic Constant Matrix: (Units=GPa)
#
#
# Indices 1 2 3 4 5 6 
#
# 1 88.9377 40.0618 16.0542 0.0000 -11.3962 0.0000
# 2 40.0618 112.8644 29.7496 0.0000 0.2052 0.0000
# 3 16.0542 29.7496 66.8109 0.0000 -8.6782 0.0000
# 4 0.0000 0.0000 0.0000 27.4258 0.0000 -12.6008
# 5 -11.3962 0.2052 -8.6782 0.0000 18.2991 0.0000
# 6 0.0000 0.0000 0.0000 -12.6008 0.0000 14.5454
#
#
#
# Elastic Compliance Matrix: (Units=1/GPa)
#
#
# Indices 1 2 3 4 5 6 
#
# 1 0.014808 -0.005272 -0.000006 0.000000 0.009279 0.000000
# 2 -0.005272 0.012013 -0.004824 0.000000 -0.005705 0.000000
# 3 -0.000006 -0.004824 0.018247 0.000000 0.008704 0.000000
# 4 0.000000 0.000000 0.000000 0.060571 0.000000 0.052473
# 5 0.009279 -0.005705 0.008704 0.000000 0.064618 0.000000
# 6 0.000000 0.000000 0.000000 0.052473 0.000000 0.114208
#
#
# Mechanical properties :
#
#
# Convention : Reuss Voigt Hill
#
# Bulk Modulus (GPa) = 40.21381 48.92714 44.57047
# Shear Modulus (GPa) = 15.97661 24.23721 20.10691
#
# Velocity S-wave (km/s) = 2.77031 3.41215 3.10784
# Velocity P-wave (km/s) = 5.43601 6.24713 5.85563
#
# Compressibility (1/GPa) = 0.02486708
#
# Stress axis : x y z
#
# Youngs Moduli (GPa) = 67.52914 83.24172 54.80210
#
# Poissons Ratio (x) = 0.43882 0.00032
# Poissons Ratio (y) = 0.35599 0.26434
# Poissons Ratio (z) = 0.00039 0.40152
#
# Static dielectric constant tensor:
#      x y z
#    x 1.782760 0.000000 0.038470 
#    y 0.000000 1.778340 0.000000 
#    z 0.038470 0.000000 1.885190 
# 
# From -- ./inp_files/33548.got.cif
#   From: 2010.05.17/outbox.cif.g08.bks.cpg/sg15_17_cif.got.tgz:33548.got - 2010.06.03 18:47:42.
