data_PCOD9258090
_publ_section_title
;
Structure prediction by ZEFSAII (Michael W. Deem and Ramdas Pophale) SiO2 
 PCOD9258090
Probable space group: C 2/C
;
_chemical_formula_sum "Si O2"
_cell_formula_units_Z 48
_cell_length_a 11.377259
_cell_length_b 11.546397
_cell_length_c 20.226305
_cell_angle_alpha 90.000000
_cell_angle_beta 98.024824
_cell_angle_gamma 90.000000
_cell_volume 2631.037098
_symmetry_space_group_name_H-M "C 2/C"
_symmetry_group_IT_number 15
_symmetry_cell_setting 'monoclinic'
loop_
_space_group_symop_operation_xyz
x,y,z
-x,y,1/2-z
-x,-y,-z
x,-y,1/2+z
1/2+x,1/2+y,z
1/2-x,1/2+y,1/2-z
1/2-x,1/2-y,-z
1/2+x,1/2-y,1/2+z
loop_
_atom_site_type_symbol
_atom_site_label
_atom_site_fract_x
_atom_site_fract_y
_atom_site_fract_z
Si Si1 0.747574 0.091839 0.959864
Si Si2 0.517317 0.164058 0.542935
Si Si3 0.421346 0.775940 0.900078
Si Si4 0.216753 0.485512 0.604848
Si Si5 0.430390 0.567507 0.434350
Si Si6 0.040252 0.077778 0.828273
O O1 0.611343 0.126810 0.938983
O O2 0.833595 0.188662 0.934137
O O3 0.794202 0.971660 0.933124
O O4 0.763476 0.073750 0.040068
O O5 0.501268 0.162415 0.462263
O O6 0.618362 0.078297 0.575422
O O7 0.548328 0.296814 0.560501
O O8 0.499060 0.699079 0.857345
O O9 0.343579 0.877941 0.862052
O O10 0.321543 0.549838 0.650773
O O11 0.500000 0.500000 0.500000
O O12 0.475741 0.517348 0.369023
O O13 0.000000 0.071675 0.750000
#
# Coordination Sequence:
#
# PCOD9258090 Si02
#       6
#     8   8   8   8   8   8
#     4  10  18  32  59  86 116 147 180 241 294 342
#     4  11  20  32  59  96 115 143 187 252 304 337
#     4  10  19  36  61  83 117 152 190 239 301 344
#     4  11  21  34  58  90 122 141 194 241 296 358
#     4  11  19  37  60  85 111 153 202 238 288 350
#     4  11  23  41  60  79 117 163 197 237 294 358
#
# _framework density 18.243756000000001
#
# number of rings (size 3 to 8) (size 9 to 14) (size 15 to 20)
#    0.000    1.333    5.000    5.000    0.000    4.000 
#    3.000    0.000    0.000    0.000    0.000    0.000 
#    0.000    0.000    0.000    0.000    0.000    0.000 
#
# Total GULP energy -133902.713175 kJ/mol
# GULP energy per Si atom -5579.279716 kJ/mol
# Density = 1.820223 g / cm^3
# Si number density = 18.243756 Si / 1000 Ang^3
#
#
#
# Elastic Constant Matrix: (Units=GPa)
#
#
# Indices 1 2 3 4 5 6 
#
# 1 109.2477 79.4797 55.9064 0.0000 23.6194 0.0000
# 2 79.4797 141.0919 42.3827 0.0000 10.2302 0.0000
# 3 55.9064 42.3827 87.3339 0.0000 14.5530 0.0000
# 4 0.0000 0.0000 0.0000 8.3299 0.0000 -1.9392
# 5 23.6194 10.2302 14.5530 0.0000 15.2211 0.0000
# 6 0.0000 0.0000 0.0000 -1.9392 0.0000 36.5457
#
#
#
# Elastic Compliance Matrix: (Units=1/GPa)
#
#
# Indices 1 2 3 4 5 6 
#
# 1 0.026612 -0.010848 -0.007262 0.000000 -0.027062 0.000000
# 2 -0.010848 0.012773 -0.000748 0.000000 0.008963 0.000000
# 3 -0.007262 -0.000748 0.017249 0.000000 -0.004720 0.000000
# 4 0.000000 0.000000 0.000000 0.121551 0.000000 0.006450
# 5 -0.027062 0.008963 -0.004720 0.000000 0.106180 0.000000
# 6 0.000000 0.000000 0.000000 0.006450 0.000000 0.027705
#
#
# Mechanical properties :
#
#
# Convention : Reuss Voigt Hill
#
# Bulk Modulus (GPa) = 52.85886 77.02347 64.94116
# Shear Modulus (GPa) = 14.04132 22.67965 18.36048
#
# Velocity S-wave (km/s) = 2.77727 3.52965 3.17582
# Velocity P-wave (km/s) = 6.27063 7.67607 7.00867
#
# Compressibility (1/GPa) = 0.01891830
#
# Stress axis : x y z
#
# Youngs Moduli (GPa) = 37.57643 78.28937 57.97540
#
# Poissons Ratio (x) = 0.84926 0.42102
# Poissons Ratio (y) = 0.40762 0.04338
# Poissons Ratio (z) = 0.27288 0.05858
#
# Static dielectric constant tensor:
#      x y z
#    x 1.694240 0.000000 0.000880 
#    y 0.000000 1.665460 0.000000 
#    z 0.000880 0.000000 1.589330 
# 
# From -- ./inp_files/196195.got.cif
#   From: 2010.05.17/outbox.cif.g08.bks.cpg/sg15_99_cif.got.tgz:196195.got - 2010.06.03 18:47:42.
