data_PCOD9258062
_publ_section_title
;
Structure prediction by ZEFSAII (Michael W. Deem and Ramdas Pophale) SiO2 
 PCOD9258062
Probable space group: C 2/C
;
_chemical_formula_sum "Si O2"
_cell_formula_units_Z 60
_cell_length_a 14.009749
_cell_length_b 16.682536
_cell_length_c 13.535417
_cell_angle_alpha 90.000000
_cell_angle_beta 67.929674
_cell_angle_gamma 90.000000
_cell_volume 2931.663866
_symmetry_space_group_name_H-M "C 2/C"
_symmetry_group_IT_number 15
_symmetry_cell_setting 'monoclinic'
loop_
_space_group_symop_operation_xyz
x,y,z
-x,y,1/2-z
-x,-y,-z
x,-y,1/2+z
1/2+x,1/2+y,z
1/2-x,1/2+y,1/2-z
1/2-x,1/2-y,-z
1/2+x,1/2-y,1/2+z
loop_
_atom_site_type_symbol
_atom_site_label
_atom_site_fract_x
_atom_site_fract_y
_atom_site_fract_z
Si Si1 0.985117 0.241144 0.870435
Si Si2 0.655916 0.610801 0.831914
Si Si3 0.098393 0.404202 0.515640
Si Si4 0.333669 0.402540 0.406855
Si Si5 0.769556 0.655944 0.977907
Si Si6 0.070070 0.927099 0.627433
Si Si7 0.500000 0.500000 0.000000
Si Si8 0.980147 0.569819 0.873100
O O1 0.892149 0.177638 0.911658
O O2 0.000000 0.262598 0.750000
O O3 0.085730 0.191105 0.861433
O O4 0.955063 0.320903 0.937846
O O5 0.674140 0.594196 0.709017
O O6 0.746023 0.629137 0.874185
O O7 0.598602 0.532056 0.893669
O O8 0.219445 0.405459 0.491744
O O9 0.050335 0.477662 0.595024
O O10 0.077059 0.416595 0.407357
O O11 0.405555 0.478326 0.412991
O O12 0.884547 0.623781 0.950735
O O13 0.750000 0.750000 0.000000
O O14 0.680990 0.613773 0.080168
O O15 0.000000 0.920147 0.750000
O O16 0.002695 0.909799 0.557922
O O17 0.000000 0.585314 0.750000
#
# Coordination Sequence:
#
# PCOD9258062 Si02
#       8
#     8   8   8   8   8   8   4   8
#     4  10  20  37  62  91 125 152 197 254 306 354
#     4  10  20  35  62  88 121 157 194 249 307 356
#     4  11  23  39  62  89 120 165 210 245 291 361
#     4  11  19  38  62  93 121 155 197 255 307 351
#     4  11  24  41  62  87 124 162 202 247 302 362
#     4  11  20  38  63  92 123 151 201 249 309 362
#     4  10  18  32  58  90 114 158 186 236 306 360
#     4  11  24  43  62  84 123 170 209 245 292 357
#
# _framework density 20.466194000000002
#
# number of rings (size 3 to 8) (size 9 to 14) (size 15 to 20)
#    0.000    1.333    4.000    2.800    0.000    0.533 
#    0.000    2.667    2.933    0.000    0.000    0.000 
#    0.000    0.000    0.000    0.000    0.000    0.000 
#
# Total GULP energy -167004.977811 kJ/mol
# GULP energy per Si atom -5566.832594 kJ/mol
# Density = 2.041961 g / cm^3
# Si number density = 20.466194 Si / 1000 Ang^3
#
#
#
# Elastic Constant Matrix: (Units=GPa)
#
#
# Indices 1 2 3 4 5 6 
#
# 1 72.8517 3.9786 6.9636 0.0000 -6.6330 0.0000
# 2 3.9786 97.0904 24.3998 0.0000 -15.3196 0.0000
# 3 6.9636 24.3998 90.4517 0.0000 -1.6674 0.0000
# 4 0.0000 0.0000 0.0000 16.1591 0.0000 -0.8646
# 5 -6.6330 -15.3196 -1.6674 0.0000 26.4223 0.0000
# 6 0.0000 0.0000 0.0000 -0.8646 0.0000 5.2684
#
#
#
# Elastic Compliance Matrix: (Units=1/GPa)
#
#
# Indices 1 2 3 4 5 6 
#
# 1 0.014148 0.000270 -0.001095 0.000000 0.003639 0.000000
# 2 0.000270 0.012181 -0.003179 0.000000 0.006930 0.000000
# 3 -0.001095 -0.003179 0.011972 0.000000 -0.001362 0.000000
# 4 0.000000 0.000000 0.000000 0.062433 0.000000 0.010246
# 5 0.003639 0.006930 -0.001362 0.000000 0.042692 0.000000
# 6 0.000000 0.000000 0.000000 0.010246 0.000000 0.191493
#
#
# Mechanical properties :
#
#
# Convention : Reuss Voigt Hill
#
# Bulk Modulus (GPa) = 33.01130 36.78644 34.89887
# Shear Modulus (GPa) = 14.16330 24.57339 19.36835
#
# Velocity S-wave (km/s) = 2.63351 3.46885 3.07963
# Velocity P-wave (km/s) = 5.04102 5.83585 5.45293
#
# Compressibility (1/GPa) = 0.03029266
#
# Stress axis : x y z
#
# Youngs Moduli (GPa) = 70.68259 82.09577 83.52602
#
# Poissons Ratio (x) = -0.02213 0.09145
# Poissons Ratio (y) = -0.01905 0.26552
# Poissons Ratio (z) = 0.07739 0.26097
#
# Static dielectric constant tensor:
#      x y z
#    x 1.344270 0.000000 -0.138460 
#    y 0.000000 1.698360 0.000000 
#    z -0.138460 0.000000 1.716690 
# 
# From -- ./inp_files/154225.got.cif
#   From: 2010.05.17/outbox.cif.g08.bks.cpg/sg15_78_cif.got.tgz:154225.got - 2010.06.03 18:47:42.
