data_PCOD9258447
_publ_section_title
;
Structure prediction by ZEFSAII (Michael W. Deem and Ramdas Pophale) SiO2 
 PCOD9258447
Probable space group: C 2/C
;
_chemical_formula_sum "Si O2"
_cell_formula_units_Z 52
_cell_length_a 8.480584
_cell_length_b 13.963913
_cell_length_c 24.783326
_cell_angle_alpha 90.000000
_cell_angle_beta 44.255872
_cell_angle_gamma 90.000000
_cell_volume 2048.156777
_symmetry_space_group_name_H-M "C 2/C"
_symmetry_group_IT_number 15
_symmetry_cell_setting 'monoclinic'
loop_
_space_group_symop_operation_xyz
x,y,z
-x,y,1/2-z
-x,-y,-z
x,-y,1/2+z
1/2+x,1/2+y,z
1/2-x,1/2+y,1/2-z
1/2-x,1/2-y,-z
1/2+x,1/2-y,1/2+z
loop_
_atom_site_type_symbol
_atom_site_label
_atom_site_fract_x
_atom_site_fract_y
_atom_site_fract_z
Si Si1 0.942206 0.403594 0.678259
Si Si2 0.328223 0.604889 0.999517
Si Si3 0.873886 0.103548 0.464045
Si Si4 0.000000 0.445060 0.250000
Si Si5 0.486552 0.797827 0.113651
Si Si6 0.500000 0.381212 0.750000
Si Si7 0.208593 0.795210 0.357984
Si Si8 0.000000 0.764934 0.250000
O O1 0.679278 0.437649 0.741273
O O2 0.957324 0.304773 0.708680
O O3 0.084122 0.398405 0.587850
O O4 0.058573 0.484098 0.686818
O O5 0.487938 0.604186 0.013632
O O6 0.351487 0.508419 0.958152
O O7 0.446993 0.689374 0.935966
O O8 0.624079 0.150140 0.532395
O O9 0.000497 0.182082 0.396717
O O10 0.789575 0.372629 0.294481
O O11 0.634862 0.821967 0.129139
O O12 0.226507 0.822636 0.182159
O O13 0.687537 0.308098 0.680333
#
# Coordination Sequence:
#
# PCOD9258447 Si02
#       8
#     8   8   8   4   8   4   8   4
#     4  11  22  38  63  87 121 160 209 245 312 359
#     4  10  19  35  58  87 117 167 204 249 297 375
#     4   9  18  31  57  88 120 152 206 254 297 347
#     4  10  22  40  64  91 117 166 204 252 300 376
#     4  10  18  33  56  93 120 154 202 259 292 362
#     4  11  24  41  59  91 124 162 196 263 306 357
#     4  10  22  38  62  89 124 156 206 250 309 356
#     4  11  20  33  59  92 113 160 202 249 292 371
#
# _framework density 25.388680000000001
#
# number of rings (size 3 to 8) (size 9 to 14) (size 15 to 20)
#    0.000    1.846    3.077    2.769    2.154    0.615 
#    0.000    3.077    0.000    1.846    0.000    0.000 
#    0.000    0.000    0.000    0.000    0.000    0.000 
#
# Total GULP energy -145045.639702 kJ/mol
# GULP energy per Si atom -5578.678450 kJ/mol
# Density = 2.533089 g / cm^3
# Si number density = 25.388680 Si / 1000 Ang^3
#
#
#
# Elastic Constant Matrix: (Units=GPa)
#
#
# Indices 1 2 3 4 5 6 
#
# 1 34.5983 7.8256 20.3625 -0.0004 -25.6928 0.0004
# 2 7.8256 87.1390 35.0346 -0.0002 -1.9343 0.0003
# 3 20.3625 35.0346 169.0186 0.0008 -41.6774 0.0005
# 4 -0.0004 -0.0002 0.0008 22.1566 0.0003 7.3408
# 5 -25.6928 -1.9343 -41.6774 0.0003 46.8685 -0.0005
# 6 0.0004 0.0003 0.0005 7.3408 -0.0005 23.2645
#
#
#
# Elastic Compliance Matrix: (Units=1/GPa)
#
#
# Indices 1 2 3 4 5 6 
#
# 1 0.050576 -0.004754 0.002152 0.000001 0.029443 0.000000
# 2 -0.004754 0.013162 -0.003412 0.000000 -0.005097 0.000000
# 3 0.002152 -0.003412 0.008480 0.000000 0.008580 0.000000
# 4 0.000001 0.000000 0.000000 0.050402 -0.000001 -0.015904
# 5 0.029443 -0.005097 0.008580 -0.000001 0.044896 0.000000
# 6 0.000000 0.000000 0.000000 -0.015904 0.000000 0.048002
#
#
# Mechanical properties :
#
#
# Convention : Reuss Voigt Hill
#
# Bulk Modulus (GPa) = 16.61389 46.35572 31.48481
# Shear Modulus (GPa) = 20.19302 33.62680 26.90991
#
# Velocity S-wave (km/s) = 2.82326 3.64329 3.25917
# Velocity P-wave (km/s) = 4.14557 5.99968 5.15664
#
# Compressibility (1/GPa) = 0.06019061
#
# Stress axis : x y z
#
# Youngs Moduli (GPa) = 19.77209 75.97828 117.92113
#
# Poissons Ratio (x) = 0.36120 -0.25382
# Poissons Ratio (y) = 0.09400 0.40239
# Poissons Ratio (z) = -0.04256 0.25927
#
# Static dielectric constant tensor:
#      x y z
#    x 2.203930 0.000000 0.026570 
#    y 0.000000 2.110840 0.000000 
#    z 0.026570 0.000000 2.082650 
# 
# From -- ./inp_files/308206.got.cif
#   From: 2010.05.17/outbox.cif.g08.bks.cpg/sg15_155_cif.got.tgz:308206.got - 2010.06.03 18:47:42.
