data_PCOD9258174
_publ_section_title
;
Structure prediction by ZEFSAII (Michael W. Deem and Ramdas Pophale) SiO2 
 PCOD9258174
Probable space group: C 2/C
;
_chemical_formula_sum "Si O2"
_cell_formula_units_Z 56
_cell_length_a 10.890043
_cell_length_b 13.583251
_cell_length_c 17.388655
_cell_angle_alpha 90.000000
_cell_angle_beta 102.402118
_cell_angle_gamma 90.000000
_cell_volume 2512.144649
_symmetry_space_group_name_H-M "C 2/C"
_symmetry_group_IT_number 15
_symmetry_cell_setting 'monoclinic'
loop_
_space_group_symop_operation_xyz
x,y,z
-x,y,1/2-z
-x,-y,-z
x,-y,1/2+z
1/2+x,1/2+y,z
1/2-x,1/2+y,1/2-z
1/2-x,1/2-y,-z
1/2+x,1/2-y,1/2+z
loop_
_atom_site_type_symbol
_atom_site_label
_atom_site_fract_x
_atom_site_fract_y
_atom_site_fract_z
Si Si1 0.000000 0.611475 0.750000
Si Si2 0.277983 0.080735 0.832618
Si Si3 0.046916 0.382323 0.842065
Si Si4 0.612682 0.071233 0.045448
Si Si5 0.000000 0.033908 0.750000
Si Si6 0.716343 0.724640 0.082985
Si Si7 0.679541 0.095481 0.891181
Si Si8 0.426387 0.520195 0.410200
O O1 0.887216 0.559073 0.784626
O O2 0.906509 0.662633 0.675805
O O3 0.136973 0.086480 0.780434
O O4 0.329044 0.178766 0.880139
O O5 0.285228 0.997603 0.899360
O O6 0.151577 0.300637 0.861308
O O7 0.112685 0.487357 0.870937
O O8 0.000000 0.382294 0.750000
O O9 0.945009 0.363697 0.894608
O O10 0.664928 0.124271 0.977750
O O11 0.500000 0.000000 0.000000
O O12 0.015145 0.979903 0.668403
O O13 0.633366 0.627924 0.083023
O O14 0.750000 0.750000 0.000000
O O15 0.822023 0.067647 0.892283
O O16 0.500000 0.500000 0.500000
#
# Coordination Sequence:
#
# PCOD9258174 Si02
#       8
#     4   8   8   8   4   8   8   8
#     4  12  20  37  69  90 130 170 232 280 328 399
#     4  12  24  42  66 102 136 177 224 293 358 402
#     4  10  19  34  61  97 126 165 234 277 317 403
#     4  10  18  32  65  93 124 166 230 276 327 395
#     4  12  26  43  71 102 142 188 234 292 358 433
#     4  11  25  42  66  98 140 182 225 288 358 416
#     4  10  18  35  61  99 119 168 229 282 312 397
#     4  11  24  45  69  99 143 189 237 282 358 433
#
# _framework density 22.291709999999998
#
# number of rings (size 3 to 8) (size 9 to 14) (size 15 to 20)
#    0.000    1.143    5.000    4.286    3.000    0.571 
#    0.000    0.000    0.000    0.857    0.000    0.000 
#    0.000    0.000    0.000    0.000    0.000    0.000 
#
# Total GULP energy -155927.661083 kJ/mol
# GULP energy per Si atom -5568.845039 kJ/mol
# Density = 2.224097 g / cm^3
# Si number density = 22.291710 Si / 1000 Ang^3
#
#
#
# Elastic Constant Matrix: (Units=GPa)
#
#
# Indices 1 2 3 4 5 6 
#
# 1 108.9445 23.3463 71.5435 0.0000 -1.7268 0.0000
# 2 23.3463 37.8777 29.7717 0.0000 -7.7765 0.0000
# 3 71.5435 29.7717 197.5751 0.0000 -21.8299 0.0000
# 4 0.0000 0.0000 0.0000 -7.5519 0.0000 -6.7839
# 5 -1.7268 -7.7765 -21.8299 0.0000 53.5251 0.0000
# 6 0.0000 0.0000 0.0000 -6.7839 0.0000 10.9284
#
#
#
# Elastic Compliance Matrix: (Units=1/GPa)
#
#
# Indices 1 2 3 4 5 6 
#
# 1 0.012973 -0.005153 -0.004144 0.000000 -0.002020 0.000000
# 2 -0.005153 0.032352 -0.002626 0.000000 0.003463 0.000000
# 3 -0.004144 -0.002626 0.007227 0.000000 0.002432 0.000000
# 4 0.000000 0.000000 0.000000 -0.085012 0.000000 -0.052772
# 5 -0.002020 0.003463 0.002432 0.000000 0.020113 0.000000
# 6 0.000000 0.000000 0.000000 -0.052772 0.000000 0.058746
#
#
# Mechanical properties :
#
#
# Convention : Reuss Voigt Hill
#
# Bulk Modulus (GPa) = 34.83864 65.96893 50.40378
# Shear Modulus (GPa) = 62.64523 26.02936 44.33729
#
# Velocity S-wave (km/s) = 5.30693 3.42083 4.46461
# Velocity P-wave (km/s) = 7.29478 6.72759 7.01692
#
# Compressibility (1/GPa) = 0.02870377
#
# Stress axis : x y z
#
# Youngs Moduli (GPa) = 77.08423 30.90964 138.37953
#
# Poissons Ratio (x) = 0.15929 0.57348
# Poissons Ratio (y) = 0.39724 0.36343
# Poissons Ratio (z) = 0.31946 0.08118
#
# Static dielectric constant tensor:
#      x y z
#    x 1.863060 0.000000 0.005610 
#    y 0.000000 1.839690 0.000000 
#    z 0.005610 0.000000 1.925520 
# 
# From -- ./inp_files/197978.got.cif
#   From: 2010.05.17/outbox.cif.g08.bks.cpg/sg15_99_cif.got.tgz:197978.got - 2010.06.03 18:47:42.
