data_PCOD9258619
_publ_section_title
;
Structure prediction by ZEFSAII (Michael W. Deem and Ramdas Pophale) SiO2 
 PCOD9258619
Probable space group: C 2/C
;
_chemical_formula_sum "Si O2"
_cell_formula_units_Z 44
_cell_length_a 13.689842
_cell_length_b 9.774653
_cell_length_c 32.372812
_cell_angle_alpha 90.000000
_cell_angle_beta 26.421554
_cell_angle_gamma 90.000000
_cell_volume 1927.582590
_symmetry_space_group_name_H-M "C 2/C"
_symmetry_group_IT_number 15
_symmetry_cell_setting 'monoclinic'
loop_
_space_group_symop_operation_xyz
x,y,z
-x,y,1/2-z
-x,-y,-z
x,-y,1/2+z
1/2+x,1/2+y,z
1/2-x,1/2+y,1/2-z
1/2-x,1/2-y,-z
1/2+x,1/2-y,1/2+z
loop_
_atom_site_type_symbol
_atom_site_label
_atom_site_fract_x
_atom_site_fract_y
_atom_site_fract_z
Si Si1 0.271293 0.479232 0.213119
Si Si2 0.664735 0.109587 0.116516
Si Si3 0.080065 0.867867 0.260226
Si Si4 0.890620 0.828480 0.058063
Si Si5 0.500000 0.791807 0.250000
Si Si6 0.009931 0.219569 0.074609
O O1 0.422674 0.424651 0.192471
O O2 0.410493 0.582118 0.132340
O O3 0.066015 0.555684 0.313508
O O4 0.149422 0.373181 0.228212
O O5 0.574872 0.232176 0.179148
O O6 0.771252 0.977408 0.099330
O O7 0.870499 0.158836 0.010974
O O8 0.332123 0.829621 0.156350
O O9 0.000000 0.948025 0.250000
O O10 0.702506 0.731286 0.147307
O O11 0.958863 0.787983 0.986170
O O12 0.250000 0.250000 0.000000
#
# Coordination Sequence:
#
# PCOD9258619 Si02
#       6
#     8   8   8   8   4   8
#     4  10  21  36  61  95 125 157 210 267 312 371
#     4   9  18  33  60  87 115 160 210 258 306 369
#     4  11  22  39  63  93 129 169 207 253 328 386
#     4  10  18  33  61  93 117 157 217 272 303 357
#     4  10  20  34  58  90 122 152 208 276 310 342
#     4  11  21  37  65  91 123 170 217 248 313 389
#
# _framework density 22.826518
#
# number of rings (size 3 to 8) (size 9 to 14) (size 15 to 20)
#    0.000    1.818    1.818    5.455    6.364    0.000 
#    0.000    4.545   18.000    0.000    0.000    0.000 
#    0.000    0.000    0.000    0.000    0.000    0.000 
#
# Total GULP energy -122468.186148 kJ/mol
# GULP energy per Si atom -5566.735734 kJ/mol
# Density = 2.277456 g / cm^3
# Si number density = 22.826518 Si / 1000 Ang^3
#
#
#
# Elastic Constant Matrix: (Units=GPa)
#
#
# Indices 1 2 3 4 5 6 
#
# 1 103.8180 14.2016 20.6187 0.0033 8.6348 -0.0047
# 2 14.2016 22.4123 23.9509 0.0499 6.8839 -0.0095
# 3 20.6187 23.9509 196.2723 0.1390 -7.3971 -0.0043
# 4 0.0033 0.0499 0.1390 17.8418 0.0055 2.3109
# 5 8.6348 6.8839 -7.3971 0.0055 42.4957 -0.0035
# 6 -0.0047 -0.0095 -0.0043 2.3109 -0.0035 9.1671
#
#
#
# Elastic Compliance Matrix: (Units=1/GPa)
#
#
# Indices 1 2 3 4 5 6 
#
# 1 0.010630 -0.005859 -0.000450 0.000019 -0.001289 -0.000006
# 2 -0.005859 0.058620 -0.006896 -0.000116 -0.009506 0.000080
# 3 -0.000450 -0.006896 0.006069 -0.000029 0.002265 0.000004
# 4 0.000019 -0.000116 -0.000029 0.057941 0.000001 -0.014606
# 5 -0.001289 -0.009506 0.002265 0.000001 0.025728 0.000000
# 6 -0.000006 0.000080 0.000004 -0.014606 0.000000 0.112768
#
#
# Mechanical properties :
#
#
# Convention : Reuss Voigt Hill
#
# Bulk Modulus (GPa) = 20.44593 48.89388 34.66990
# Shear Modulus (GPa) = 15.89978 31.48301 23.69140
#
# Velocity S-wave (km/s) = 2.64208 3.71783 3.22512
# Velocity P-wave (km/s) = 4.27598 6.31632 5.39351
#
# Compressibility (1/GPa) = 0.04890950
#
# Stress axis : x y z
#
# Youngs Moduli (GPa) = 94.07019 17.05896 164.76670
#
# Poissons Ratio (x) = 0.09994 0.07421
# Poissons Ratio (y) = 0.55112 1.13624
# Poissons Ratio (z) = 0.04237 0.11764
#
# Static dielectric constant tensor:
#      x y z
#    x 1.958920 -0.000010 -0.036060 
#    y -0.000010 2.013220 -0.000030 
#    z -0.036060 -0.000030 1.900260 
# 
# From -- ./inp_files/311013.got.cif
#   From: 2010.05.17/outbox.cif.g08.bks.cpg/sg15_156_cif.got.tgz:311013.got - 2010.06.03 18:47:42.
