data_PCOD9258645
_publ_section_title
;
Structure prediction by ZEFSAII (Michael W. Deem and Ramdas Pophale) SiO2 
 PCOD9258645
Probable space group: C 2/C
;
_chemical_formula_sum "Si O2"
_cell_formula_units_Z 40
_cell_length_a 23.210540
_cell_length_b 19.032866
_cell_length_c 13.498762
_cell_angle_alpha 90.000000
_cell_angle_beta 158.987667
_cell_angle_gamma 90.000000
_cell_volume 2138.237730
_symmetry_space_group_name_H-M "C 2/C"
_symmetry_group_IT_number 15
_symmetry_cell_setting 'monoclinic'
loop_
_space_group_symop_operation_xyz
x,y,z
-x,y,1/2-z
-x,-y,-z
x,-y,1/2+z
1/2+x,1/2+y,z
1/2-x,1/2+y,1/2-z
1/2-x,1/2-y,-z
1/2+x,1/2-y,1/2+z
loop_
_atom_site_type_symbol
_atom_site_label
_atom_site_fract_x
_atom_site_fract_y
_atom_site_fract_z
Si Si1 0.074539 0.571356 0.165695
Si Si2 0.263668 0.847736 0.113436
Si Si3 0.000000 0.485824 0.750000
Si Si4 0.719301 0.570591 0.186455
Si Si5 0.500000 0.462610 0.750000
Si Si6 0.689632 0.808216 0.538967
O O1 0.086226 0.558635 0.301600
O O2 0.941593 0.630147 0.931528
O O3 0.771205 0.416846 0.655366
O O4 0.000000 0.500000 0.000000
O O5 0.215339 0.775155 0.088196
O O6 0.142919 0.911451 0.943952
O O7 0.265185 0.832808 0.998892
O O8 0.865627 0.532651 0.479972
O O9 0.705938 0.645259 0.218217
O O10 0.574537 0.515175 0.951417
O O11 0.500000 0.821520 0.250000
#
# Coordination Sequence:
#
# PCOD9258645 Si02
#       6
#     8   8   4   8   4   8
#     4  10  18  36  60  86 115 158 205 249 300 363
#     4  11  22  38  62  95 123 159 211 261 295 371
#     4  10  18  33  63  84 106 162 206 240 298 365
#     4  11  22  38  61  90 125 161 201 257 307 367
#     4  12  24  37  61 100 130 148 212 272 300 347
#     4  11  21  38  65  87 123 169 209 245 311 369
#
# _framework density 18.706994999999999
#
# number of rings (size 3 to 8) (size 9 to 14) (size 15 to 20)
#    0.000    1.200    8.000    1.200    0.000    0.800 
#    0.000    1.000    0.000    2.400    0.000    0.000 
#    0.000    0.000    0.000    0.000    0.000    0.000 
#
# Total GULP energy -111539.620343 kJ/mol
# GULP energy per Si atom -5576.981017 kJ/mol
# Density = 1.866442 g / cm^3
# Si number density = 18.706995 Si / 1000 Ang^3
#
#
#
# Elastic Constant Matrix: (Units=GPa)
#
#
# Indices 1 2 3 4 5 6 
#
# 1 89.7502 37.4714 4.7201 0.0000 -17.1752 0.0000
# 2 37.4714 129.6585 39.8516 0.0000 -2.9966 0.0000
# 3 4.7201 39.8516 55.7138 0.0000 -2.8401 0.0000
# 4 0.0000 0.0000 0.0000 27.0552 0.0000 -11.1085
# 5 -17.1752 -2.9966 -2.8401 0.0000 21.8351 0.0000
# 6 0.0000 0.0000 0.0000 -11.1085 0.0000 -2.5907
#
#
#
# Elastic Compliance Matrix: (Units=1/GPa)
#
#
# Indices 1 2 3 4 5 6 
#
# 1 0.015353 -0.005063 0.002920 0.000000 0.011761 0.000000
# 2 -0.005063 0.011560 -0.008015 0.000000 -0.003438 0.000000
# 3 0.002920 -0.008015 0.023652 0.000000 0.004273 0.000000
# 4 0.000000 0.000000 0.000000 0.013389 0.000000 -0.057411
# 5 0.011761 -0.003438 0.004273 0.000000 0.055133 0.000000
# 6 0.000000 0.000000 0.000000 -0.057411 0.000000 -0.139827
#
#
# Mechanical properties :
#
#
# Convention : Reuss Voigt Hill
#
# Bulk Modulus (GPa) = 33.05783 48.80096 40.92940
# Shear Modulus (GPa) = 517.65757 22.13189 269.89473
#
# Velocity S-wave (km/s) = 16.65291 3.44333 12.02447
# Velocity P-wave (km/s) = 19.68423 6.47706 14.65301
#
# Compressibility (1/GPa) = 0.03025001
#
# Stress axis : x y z
#
# Youngs Moduli (GPa) = 65.13417 86.50767 42.27918
#
# Poissons Ratio (x) = 0.43796 -0.12346
# Poissons Ratio (y) = 0.32976 0.33886
# Poissons Ratio (z) = -0.19020 0.69335
#
# Static dielectric constant tensor:
#      x y z
#    x 1.681970 0.000000 0.023060 
#    y 0.000000 1.666270 0.000000 
#    z 0.023060 0.000000 1.641580 
# 
# From -- ./inp_files/178890.got.cif
#   From: 2010.05.17/outbox.cif.g08.bks.cpg/sg15_90_cif.got.tgz:178890.got - 2010.06.03 18:47:42.
