data_PCOD9258805
_publ_section_title
;
Structure prediction by ZEFSAII (Michael W. Deem and Ramdas Pophale) SiO2 
 PCOD9258805
Probable space group: C 2/C
;
_chemical_formula_sum "Si O2"
_cell_formula_units_Z 60
_cell_length_a 8.793864
_cell_length_b 19.938306
_cell_length_c 17.626353
_cell_angle_alpha 90.000000
_cell_angle_beta 79.122635
_cell_angle_gamma 90.000000
_cell_volume 3034.986036
_symmetry_space_group_name_H-M "C 2/C"
_symmetry_group_IT_number 15
_symmetry_cell_setting 'monoclinic'
loop_
_space_group_symop_operation_xyz
x,y,z
-x,y,1/2-z
-x,-y,-z
x,-y,1/2+z
1/2+x,1/2+y,z
1/2-x,1/2+y,1/2-z
1/2-x,1/2-y,-z
1/2+x,1/2-y,1/2+z
loop_
_atom_site_type_symbol
_atom_site_label
_atom_site_fract_x
_atom_site_fract_y
_atom_site_fract_z
Si Si1 0.045061 0.122355 0.367360
Si Si2 0.476793 0.293822 0.165366
Si Si3 0.323502 0.739656 0.379159
Si Si4 0.314159 0.541574 0.503383
Si Si5 0.500000 0.480365 0.750000
Si Si6 0.687098 0.192374 0.062213
Si Si7 0.060455 0.936148 0.101765
Si Si8 0.087158 0.344073 0.009999
O O1 0.181009 0.152533 0.405788
O O2 0.945825 0.183927 0.341813
O O3 0.927964 0.083355 0.435538
O O4 0.093069 0.070780 0.296368
O O5 0.500000 0.311401 0.250000
O O6 0.297736 0.276339 0.164742
O O7 0.579762 0.230118 0.133694
O O8 0.540232 0.356797 0.110866
O O9 0.207983 0.698146 0.446021
O O10 0.417774 0.796694 0.415767
O O11 0.312531 0.468336 0.466069
O O12 0.399595 0.541339 0.576108
O O13 0.159369 0.584088 0.521355
O O14 0.418148 0.529236 0.818319
O O15 0.570897 0.150450 0.020615
O O16 0.750000 0.250000 0.000000
#
# Coordination Sequence:
#
# PCOD9258805 Si02
#       8
#     8   8   8   8   4   8   8   8
#     4  10  20  35  55  84 113 146 184 237 293 349
#     4  11  22  34  55  85 116 149 187 238 290 354
#     4   9  17  31  53  78 113 142 178 226 290 339
#     4   9  18  33  60  81 105 147 190 239 275 338
#     4  10  22  34  52  76 108 146 188 238 270 336
#     4  11  21  34  57  90 117 145 185 244 298 349
#     4  10  18  34  55  80 105 144 200 230 272 333
#     4   9  16  31  53  84 110 139 180 233 287 329
#
# _framework density 19.769449999999999
#
# number of rings (size 3 to 8) (size 9 to 14) (size 15 to 20)
#    0.000    2.133    3.333    0.800    1.867    0.000 
#    0.000    0.000    0.000   16.000    3.467    0.000 
#    0.000    0.000    0.000    0.000    0.000    0.000 
#
# Total GULP energy -167185.829862 kJ/mol
# GULP energy per Si atom -5572.860995 kJ/mol
# Density = 1.972445 g / cm^3
# Si number density = 19.769450 Si / 1000 Ang^3
#
#
#
# Elastic Constant Matrix: (Units=GPa)
#
#
# Indices 1 2 3 4 5 6 
#
# 1 74.4413 51.4129 13.5130 0.0000 14.5537 0.0000
# 2 51.4129 99.4144 19.7969 0.0000 14.8542 0.0000
# 3 13.5130 19.7969 57.0747 0.0000 17.3115 0.0000
# 4 0.0000 0.0000 0.0000 39.4665 0.0000 6.9232
# 5 14.5537 14.8542 17.3115 0.0000 19.0509 0.0000
# 6 0.0000 0.0000 0.0000 6.9232 0.0000 33.4863
#
#
#
# Elastic Compliance Matrix: (Units=1/GPa)
#
#
# Indices 1 2 3 4 5 6 
#
# 1 0.022280 -0.010264 0.001409 0.000000 -0.010297 0.000000
# 2 -0.010264 0.016240 -0.002403 0.000000 -0.002638 0.000000
# 3 0.001409 -0.002403 0.024544 0.000000 -0.021506 0.000000
# 4 0.000000 0.000000 0.000000 0.026291 0.000000 -0.005436
# 5 -0.010297 -0.002638 -0.021506 0.000000 0.081956 0.000000
# 6 0.000000 0.000000 0.000000 -0.005436 0.000000 0.030987
#
#
# Mechanical properties :
#
#
# Convention : Reuss Voigt Hill
#
# Bulk Modulus (GPa) = 24.66288 44.48624 34.57456
# Shear Modulus (GPa) = 20.97933 28.14789 24.56361
#
# Velocity S-wave (km/s) = 3.26114 3.77743 3.52874
# Velocity P-wave (km/s) = 5.16550 6.44800 5.84205
#
# Compressibility (1/GPa) = 0.04054677
#
# Stress axis : x y z
#
# Youngs Moduli (GPa) = 44.88379 61.57773 40.74360
#
# Poissons Ratio (x) = 0.63204 -0.05739
# Poissons Ratio (y) = 0.46069 0.09789
# Poissons Ratio (z) = -0.06322 0.14795
#
# Static dielectric constant tensor:
#      x y z
#    x 1.679600 0.000000 -0.003580 
#    y 0.000000 1.760130 0.000000 
#    z -0.003580 0.000000 1.718380 
# 
# From -- ./inp_files/192081.got.cif
#   From: 2010.05.17/outbox.cif.g08.bks.cpg/sg15_97_cif.got.tgz:192081.got - 2010.06.03 18:47:42.
