data_PCOD9258142
_publ_section_title
;
Structure prediction by ZEFSAII (Michael W. Deem and Ramdas Pophale) SiO2 
 PCOD9258142
Probable space group: C 2/C
;
_chemical_formula_sum "Si O2"
_cell_formula_units_Z 36
_cell_length_a 24.606015
_cell_length_b 7.088692
_cell_length_c 14.182332
_cell_angle_alpha 90.000000
_cell_angle_beta 146.291826
_cell_angle_gamma 90.000000
_cell_volume 1372.837568
_symmetry_space_group_name_H-M "C 2/C"
_symmetry_group_IT_number 15
_symmetry_cell_setting 'monoclinic'
loop_
_space_group_symop_operation_xyz
x,y,z
-x,y,1/2-z
-x,-y,-z
x,-y,1/2+z
1/2+x,1/2+y,z
1/2-x,1/2+y,1/2-z
1/2-x,1/2-y,-z
1/2+x,1/2-y,1/2+z
loop_
_atom_site_type_symbol
_atom_site_label
_atom_site_fract_x
_atom_site_fract_y
_atom_site_fract_z
Si Si1 0.149055 0.235088 0.201846
Si Si2 0.007628 0.749193 0.652848
Si Si3 0.750000 0.250000 0.500000
Si Si4 0.474942 0.205920 0.317803
Si Si5 0.696419 0.168252 0.224579
O O1 0.108240 0.184150 0.246688
O O2 0.241976 0.146054 0.284018
O O3 0.172377 0.459196 0.229838
O O4 0.053253 0.206696 0.000661
O O5 0.000000 0.810443 0.750000
O O6 0.016524 0.521017 0.665265
O O7 0.904110 0.774805 0.449332
O O8 0.634308 0.255175 0.314447
O O9 0.765232 0.257239 0.404221
O O10 0.500000 0.266917 0.250000
#
# Coordination Sequence:
#
# PCOD9258142 Si02
#       5
#     8   8   4   8   8
#     4  11  21  40  60  96 127 164 208 262 306 378
#     4  10  21  39  60  87 126 174 211 246 309 385
#     4  12  18  34  62 100 116 158 216 266 298 364
#     4  10  18  32  61  91 117 156 210 257 299 358
#     4  11  23  36  66  93 126 165 213 254 320 367
#
# _framework density 26.223058000000002
#
# number of rings (size 3 to 8) (size 9 to 14) (size 15 to 20)
#    0.000    1.333    6.667    1.333    0.000    0.889 
#    0.000    1.111    4.889    0.000    0.000    0.000 
#    0.000    0.000    0.000    0.000    0.000    0.000 
#
# Total GULP energy -100319.188612 kJ/mol
# GULP energy per Si atom -5573.288256 kJ/mol
# Density = 2.616337 g / cm^3
# Si number density = 26.223058 Si / 1000 Ang^3
#
#
#
# Elastic Constant Matrix: (Units=GPa)
#
#
# Indices 1 2 3 4 5 6 
#
# 1 210.7274 9.4018 35.0429 0.0000 11.9320 0.0000
# 2 9.4018 103.1391 26.3221 0.0000 -5.9864 0.0000
# 3 35.0429 26.3221 75.8587 0.0000 6.5763 0.0000
# 4 0.0000 0.0000 0.0000 -2.3442 0.0000 6.0316
# 5 11.9320 -5.9864 6.5763 0.0000 64.1558 0.0000
# 6 0.0000 0.0000 0.0000 6.0316 0.0000 12.4619
#
#
#
# Elastic Compliance Matrix: (Units=1/GPa)
#
#
# Indices 1 2 3 4 5 6 
#
# 1 0.005174 0.000089 -0.002359 0.000000 -0.000712 0.000000
# 2 0.000089 0.010762 -0.003896 0.000000 0.001387 0.000000
# 3 -0.002359 -0.003896 0.015758 0.000000 -0.001540 0.000000
# 4 0.000000 0.000000 0.000000 -0.189988 0.000000 0.091954
# 5 -0.000712 0.001387 -0.001540 0.000000 0.016007 0.000000
# 6 0.000000 0.000000 0.000000 0.091954 0.000000 0.035739
#
#
# Mechanical properties :
#
#
# Convention : Reuss Voigt Hill
#
# Bulk Modulus (GPa) = 51.64768 59.02873 55.33820
# Shear Modulus (GPa) = -56.97215 36.11860 -10.42677
#
# Velocity S-wave (km/s) = -4.66617 3.71531 -1.99620
# Velocity P-wave (km/s) = 3.04837 6.40030 3.97940
#
# Compressibility (1/GPa) = 0.01936196
#
# Stress axis : x y z
#
# Youngs Moduli (GPa) = 193.26773 92.91722 63.46133
#
# Poissons Ratio (x) = -0.00828 0.14973
# Poissons Ratio (y) = -0.01723 0.24723
# Poissons Ratio (z) = 0.45600 0.36199
#
# Static dielectric constant tensor:
#      x y z
#    x 3.088830 0.000000 -0.213230 
#    y 0.000000 2.137360 0.000000 
#    z -0.213230 0.000000 1.957890 
# 
# From -- ./inp_files/173037.got.cif
#   From: 2010.05.17/outbox.cif.g08.bks.cpg/sg15_87_cif.got.tgz:173037.got - 2010.06.03 18:47:42.
