data_PCOD9258716
_publ_section_title
;
Structure prediction by ZEFSAII (Michael W. Deem and Ramdas Pophale) SiO2 
 PCOD9258716
Probable space group: C 2/C
;
_chemical_formula_sum "Si O2"
_cell_formula_units_Z 64
_cell_length_a 23.099597
_cell_length_b 9.841583
_cell_length_c 26.865932
_cell_angle_alpha 90.000000
_cell_angle_beta 147.933783
_cell_angle_gamma 90.000000
_cell_volume 3242.523885
_symmetry_space_group_name_H-M "C 2/C"
_symmetry_group_IT_number 15
_symmetry_cell_setting 'monoclinic'
loop_
_space_group_symop_operation_xyz
x,y,z
-x,y,1/2-z
-x,-y,-z
x,-y,1/2+z
1/2+x,1/2+y,z
1/2-x,1/2+y,1/2-z
1/2-x,1/2-y,-z
1/2+x,1/2-y,1/2+z
loop_
_atom_site_type_symbol
_atom_site_label
_atom_site_fract_x
_atom_site_fract_y
_atom_site_fract_z
Si Si1 0.221451 0.028109 0.260387
Si Si2 0.500024 0.470098 0.441047
Si Si3 0.430885 0.294134 0.245076
Si Si4 0.228353 0.287841 0.789792
Si Si5 0.121862 0.575099 0.037656
Si Si6 0.265011 0.919314 0.458167
Si Si7 0.966450 0.714331 0.991814
Si Si8 0.634387 0.619296 0.957559
O O1 0.094514 0.051057 0.156146
O O2 0.230826 0.865774 0.270173
O O3 0.284475 0.096540 0.260574
O O4 0.275259 0.085033 0.349720
O O5 0.500000 0.500000 0.500000
O O6 0.472767 0.307778 0.423864
O O7 0.608484 0.472176 0.486638
O O8 0.500000 0.228907 0.250000
O O9 0.359056 0.202838 0.229644
O O10 0.341820 0.392394 0.154180
O O11 0.520619 0.368623 0.344323
O O12 0.351832 0.290081 0.900405
O O13 0.166793 0.542788 0.015655
O O14 0.062016 0.433214 0.007956
O O15 0.038095 0.691432 0.994176
O O16 0.328802 0.774194 0.503035
O O17 0.224019 0.936769 0.484570
#
# Coordination Sequence:
#
# PCOD9258716 Si02
#       8
#     8   8   8   8   8   8   8   8
#     4  11  22  33  55  79 113 145 185 231 276 335
#     4  12  20  33  51  77 111 142 175 225 278 330
#     4  10  19  33  53  76 111 143 180 233 281 327
#     4  11  20  37  52  85 111 141 188 231 278 339
#     4  10  19  34  54  77 111 143 179 228 273 331
#     4  10  18  34  53  79 112 141 183 230 273 336
#     4  10  20  32  52  77 111 143 178 219 279 323
#     4  10  20  31  53  80 109 144 179 228 285 322
#
# _framework density 19.73771
#
# number of rings (size 3 to 8) (size 9 to 14) (size 15 to 20)
#    0.000    1.500    6.250    0.750    0.000    1.000 
#    0.000    0.000    0.000    0.750    0.000    2.625 
#    0.000    0.000    0.000    0.000    0.000    0.000 
#
# Total GULP energy -178186.703054 kJ/mol
# GULP energy per Si atom -5568.334470 kJ/mol
# Density = 1.969279 g / cm^3
# Si number density = 19.737710 Si / 1000 Ang^3
#
#
#
# Elastic Constant Matrix: (Units=GPa)
#
#
# Indices 1 2 3 4 5 6 
#
# 1 204.1326 29.4079 15.7876 0.0000 6.2638 0.0000
# 2 29.4079 12.3357 4.0379 0.0000 1.1713 0.0000
# 3 15.7876 4.0379 52.7377 0.0000 3.0621 0.0000
# 4 0.0000 0.0000 0.0000 19.3724 0.0000 -3.5304
# 5 6.2638 1.1713 3.0621 0.0000 26.3012 0.0000
# 6 0.0000 0.0000 0.0000 -3.5304 0.0000 34.4335
#
#
#
# Elastic Compliance Matrix: (Units=1/GPa)
#
#
# Indices 1 2 3 4 5 6 
#
# 1 0.007524 -0.017571 -0.000854 0.000000 -0.000910 0.000000
# 2 -0.017571 0.124417 -0.004216 0.000000 -0.000865 0.000000
# 3 -0.000854 -0.004216 0.019650 0.000000 -0.001897 0.000000
# 4 0.000000 0.000000 0.000000 0.052603 0.000000 0.005393
# 5 -0.000910 -0.000865 -0.001897 0.000000 0.038497 0.000000
# 6 0.000000 0.000000 0.000000 0.005393 0.000000 0.029594
#
#
# Mechanical properties :
#
#
# Convention : Reuss Voigt Hill
#
# Bulk Modulus (GPa) = 9.40656 40.85253 25.12955
# Shear Modulus (GPa) = 14.16415 30.68625 22.42520
#
# Velocity S-wave (km/s) = 2.68175 3.94725 3.37435
# Velocity P-wave (km/s) = 3.79014 6.44337 5.28593
#
# Compressibility (1/GPa) = 0.10630876
#
# Stress axis : x y z
#
# Youngs Moduli (GPa) = 132.90601 8.03752 50.88951
#
# Poissons Ratio (x) = 0.14123 0.04347
# Poissons Ratio (y) = 2.33531 0.21454
# Poissons Ratio (z) = 0.11353 0.03388
#
# Static dielectric constant tensor:
#      x y z
#    x 1.774430 0.000000 -0.005610 
#    y 0.000000 1.713000 0.000000 
#    z -0.005610 0.000000 1.795410 
# 
# From -- ./inp_files/300657.got.cif
#   From: 2010.05.17/outbox.cif.g08.bks.cpg/sg15_151_cif.got.tgz:300657.got - 2010.06.03 18:47:42.
