data_PCOD9258268
_publ_section_title
;
Structure prediction by ZEFSAII (Michael W. Deem and Ramdas Pophale) SiO2 
 PCOD9258268
Probable space group: C 2/C
;
_chemical_formula_sum "Si O2"
_cell_formula_units_Z 56
_cell_length_a 18.179982
_cell_length_b 9.449442
_cell_length_c 18.684510
_cell_angle_alpha 90.000000
_cell_angle_beta 133.997850
_cell_angle_gamma 90.000000
_cell_volume 2309.038385
_symmetry_space_group_name_H-M "C 2/C"
_symmetry_group_IT_number 15
_symmetry_cell_setting 'monoclinic'
loop_
_space_group_symop_operation_xyz
x,y,z
-x,y,1/2-z
-x,-y,-z
x,-y,1/2+z
1/2+x,1/2+y,z
1/2-x,1/2+y,1/2-z
1/2-x,1/2-y,-z
1/2+x,1/2-y,1/2+z
loop_
_atom_site_type_symbol
_atom_site_label
_atom_site_fract_x
_atom_site_fract_y
_atom_site_fract_z
Si Si1 0.201621 0.077166 0.053829
Si Si2 0.265717 0.418898 0.765800
Si Si3 0.323782 0.007613 0.507834
Si Si4 0.278497 0.764538 0.138595
Si Si5 0.598208 0.905817 0.084113
Si Si6 0.008543 0.720236 0.652952
Si Si7 0.491991 0.495843 0.407480
O O1 0.215746 0.906366 0.080483
O O2 0.229399 0.138261 0.150353
O O3 0.278765 0.087491 0.040379
O O4 0.084431 0.114440 0.955601
O O5 0.248323 0.298194 0.695286
O O6 0.168657 0.517977 0.690380
O O7 0.369098 0.505364 0.814452
O O8 0.248693 0.137097 0.433671
O O9 0.426016 0.095477 0.598448
O O10 0.342497 0.913003 0.450419
O O11 0.399440 0.794277 0.228505
O O12 0.553738 0.778520 0.100799
O O13 0.500000 0.000000 0.000000
O O14 0.973226 0.881659 0.625753
O O15 0.500000 0.500000 0.500000
#
# Coordination Sequence:
#
# PCOD9258268 Si02
#       7
#     8   8   8   8   8   8   8
#     4  11  19  35  54  79 110 136 171 232 273 318
#     4   9  19  35  50  75 104 143 183 207 257 333
#     4  10  21  33  51  83 113 132 171 233 284 312
#     4  10  19  32  52  77 106 139 175 215 269 331
#     4   9  18  34  50  73 107 142 173 210 265 329
#     4  10  18  33  53  76 105 145 178 213 270 332
#     4   9  19  32  52  74 104 139 181 214 260 319
#
# _framework density 24.252518999999999
#
# number of rings (size 3 to 8) (size 9 to 14) (size 15 to 20)
#    0.000    2.286    2.857    0.429    0.000    0.571 
#    2.571    2.143    0.000    7.714    0.000    0.000 
#   17.143    0.000    0.000    0.000    0.000    0.000 
#
# Total GULP energy -156101.594421 kJ/mol
# GULP energy per Si atom -5575.056944 kJ/mol
# Density = 2.419732 g / cm^3
# Si number density = 24.252519 Si / 1000 Ang^3
#
#
#
# Elastic Constant Matrix: (Units=GPa)
#
#
# Indices 1 2 3 4 5 6 
#
# 1 127.0960 -0.7639 22.3440 0.0000 -16.3227 0.0000
# 2 -0.7639 51.5701 18.2546 0.0000 1.6852 0.0000
# 3 22.3440 18.2546 114.3635 0.0000 25.0836 0.0000
# 4 0.0000 0.0000 0.0000 33.5962 0.0000 -4.8854
# 5 -16.3227 1.6852 25.0836 0.0000 51.1428 0.0000
# 6 0.0000 0.0000 0.0000 -4.8854 0.0000 27.5865
#
#
#
# Elastic Compliance Matrix: (Units=1/GPa)
#
#
# Indices 1 2 3 4 5 6 
#
# 1 0.008908 0.000993 -0.002818 0.000000 0.004193 0.000000
# 2 0.000993 0.020713 -0.003832 0.000000 0.001514 0.000000
# 3 -0.002818 -0.003832 0.011291 0.000000 -0.006311 0.000000
# 4 0.000000 0.000000 0.000000 0.030552 0.000000 0.005411
# 5 0.004193 0.001514 -0.006311 0.000000 0.023937 0.000000
# 6 0.000000 0.000000 0.000000 0.005411 0.000000 0.037208
#
#
# Mechanical properties :
#
#
# Convention : Reuss Voigt Hill
#
# Bulk Modulus (GPa) = 33.78903 41.41103 37.60003
# Shear Modulus (GPa) = 32.51210 39.34475 35.92842
#
# Velocity S-wave (km/s) = 3.66535 4.03214 3.85311
# Velocity P-wave (km/s) = 5.64583 6.22813 5.94411
#
# Compressibility (1/GPa) = 0.02959540
#
# Stress axis : x y z
#
# Youngs Moduli (GPa) = 112.25875 48.27936 88.56951
#
# Poissons Ratio (x) = -0.04792 0.24963
# Poissons Ratio (y) = -0.11143 0.33941
# Poissons Ratio (z) = 0.31640 0.18501
#
# Static dielectric constant tensor:
#      x y z
#    x 2.078230 0.000000 -0.002370 
#    y 0.000000 2.028190 0.000000 
#    z -0.002370 0.000000 1.928640 
# 
# From -- ./inp_files/161728.got.cif
#   From: 2010.05.17/outbox.cif.g08.bks.cpg/sg15_81_cif.got.tgz:161728.got - 2010.06.03 18:47:42.
