data_PCOD9258899
_publ_section_title
;
Structure prediction by ZEFSAII (Michael W. Deem and Ramdas Pophale) SiO2 
 PCOD9258899
Probable space group: C 2/C
;
_chemical_formula_sum "Si O2"
_cell_formula_units_Z 60
_cell_length_a 20.279574
_cell_length_b 17.569735
_cell_length_c 13.676670
_cell_angle_alpha 90.000000
_cell_angle_beta 145.975258
_cell_angle_gamma 90.000000
_cell_volume 2726.741513
_symmetry_space_group_name_H-M "C 2/C"
_symmetry_group_IT_number 15
_symmetry_cell_setting 'monoclinic'
loop_
_space_group_symop_operation_xyz
x,y,z
-x,y,1/2-z
-x,-y,-z
x,-y,1/2+z
1/2+x,1/2+y,z
1/2-x,1/2+y,1/2-z
1/2-x,1/2-y,-z
1/2+x,1/2-y,1/2+z
loop_
_atom_site_type_symbol
_atom_site_label
_atom_site_fract_x
_atom_site_fract_y
_atom_site_fract_z
Si Si1 0.382378 0.698362 0.577798
Si Si2 0.683892 0.547585 0.727193
Si Si3 0.757595 0.663670 0.549695
Si Si4 0.536353 0.464375 0.398732
Si Si5 0.334153 0.286672 0.241317
Si Si6 0.496524 0.811168 0.428336
Si Si7 0.615383 0.941798 0.453605
Si Si8 0.000000 0.194126 0.250000
O O1 0.500000 0.745098 0.750000
O O2 0.425118 0.622985 0.574520
O O3 0.332468 0.684567 0.625994
O O4 0.283682 0.737930 0.393613
O O5 0.645190 0.505807 0.581572
O O6 0.578331 0.529546 0.674123
O O7 0.675832 0.637804 0.707778
O O8 0.806144 0.511982 0.913715
O O9 0.750000 0.750000 0.500000
O O10 0.806498 0.609218 0.524541
O O11 0.621287 0.647723 0.402896
O O12 0.858650 0.664816 0.757843
O O13 0.500000 0.494968 0.250000
O O14 0.443916 0.233579 0.408185
O O15 0.571305 0.885101 0.485937
O O16 0.504152 0.750405 0.348649
O O17 0.500000 0.965155 0.250000
#
# Coordination Sequence:
#
# PCOD9258899 Si02
#       8
#     8   8   8   8   8   8   8   4
#     4  10  21  44  67  85 131 168 215 286 325 372
#     4  11  23  40  68  97 123 175 230 256 347 404
#     4   9  17  34  56  87 132 170 210 259 337 388
#     4  10  21  43  65  93 134 169 213 285 331 385
#     4  11  23  38  65  99 117 172 231 263 328 402
#     4  10  19  36  59  92 130 170 220 261 332 398
#     4  10  20  40  64  93 134 178 210 278 343 401
#     4  10  18  34  56  94 132 160 212 276 318 392
#
# _framework density 22.004286
#
# number of rings (size 3 to 8) (size 9 to 14) (size 15 to 20)
#    0.000    1.867    6.000    0.800    0.000    5.867 
#    4.800    0.000    0.000    0.800    0.000    0.000 
#    0.000    0.000    0.000    0.000    0.000    0.000 
#
# Total GULP energy -167458.327778 kJ/mol
# GULP energy per Si atom -5581.944259 kJ/mol
# Density = 2.195420 g / cm^3
# Si number density = 22.004286 Si / 1000 Ang^3
#
#
#
# Elastic Constant Matrix: (Units=GPa)
#
#
# Indices 1 2 3 4 5 6 
#
# 1 55.6500 6.0361 30.2629 0.0000 12.3202 0.0000
# 2 6.0361 66.4962 51.3363 0.0000 11.1073 0.0000
# 3 30.2629 51.3363 145.5673 0.0000 22.1182 0.0000
# 4 0.0000 0.0000 0.0000 38.4105 0.0000 6.4342
# 5 12.3202 11.1073 22.1182 0.0000 44.7684 0.0000
# 6 0.0000 0.0000 0.0000 6.4342 0.0000 24.0507
#
#
#
# Elastic Compliance Matrix: (Units=1/GPa)
#
#
# Indices 1 2 3 4 5 6 
#
# 1 0.021122 0.002305 -0.004578 0.000000 -0.004123 0.000000
# 2 0.002305 0.021030 -0.007575 0.000000 -0.002109 0.000000
# 3 -0.004578 -0.007575 0.010829 0.000000 -0.002211 0.000000
# 4 0.000000 0.000000 0.000000 0.027256 0.000000 -0.007292
# 5 -0.004123 -0.002109 -0.002211 0.000000 0.025087 0.000000
# 6 0.000000 0.000000 0.000000 -0.007292 0.000000 0.043530
#
#
# Mechanical properties :
#
#
# Convention : Reuss Voigt Hill
#
# Bulk Modulus (GPa) = 30.04339 49.22046 39.63193
# Shear Modulus (GPa) = 27.83298 33.45111 30.64204
#
# Velocity S-wave (km/s) = 3.56039 3.90322 3.73574
# Velocity P-wave (km/s) = 5.53036 6.53686 6.05456
#
# Compressibility (1/GPa) = 0.03328519
#
# Stress axis : x y z
#
# Youngs Moduli (GPa) = 47.34503 47.55178 92.34654
#
# Poissons Ratio (x) = -0.10963 0.42273
# Poissons Ratio (y) = -0.10915 0.69954
# Poissons Ratio (z) = 0.21673 0.36021
#
# Static dielectric constant tensor:
#      x y z
#    x 1.876330 0.000000 0.012340 
#    y 0.000000 1.816940 0.000000 
#    z 0.012340 0.000000 1.862500 
# 
# From -- ./inp_files/174119.got.cif
#   From: 2010.05.17/outbox.cif.g08.bks.cpg/sg15_88_cif.got.tgz:174119.got - 2010.06.03 18:47:42.
