data_PCOD9258538
_publ_section_title
;
Structure prediction by ZEFSAII (Michael W. Deem and Ramdas Pophale) SiO2 
 PCOD9258538
Probable space group: C 2/C
;
_chemical_formula_sum "Si O2"
_cell_formula_units_Z 40
_cell_length_a 13.452673
_cell_length_b 7.184523
_cell_length_c 17.073272
_cell_angle_alpha 90.000000
_cell_angle_beta 71.818513
_cell_angle_gamma 90.000000
_cell_volume 1567.762328
_symmetry_space_group_name_H-M "C 2/C"
_symmetry_group_IT_number 15
_symmetry_cell_setting 'monoclinic'
loop_
_space_group_symop_operation_xyz
x,y,z
-x,y,1/2-z
-x,-y,-z
x,-y,1/2+z
1/2+x,1/2+y,z
1/2-x,1/2+y,1/2-z
1/2-x,1/2-y,-z
1/2+x,1/2-y,1/2+z
loop_
_atom_site_type_symbol
_atom_site_label
_atom_site_fract_x
_atom_site_fract_y
_atom_site_fract_z
Si Si1 0.807727 0.949054 0.479989
Si Si2 0.692270 0.968169 0.366445
Si Si3 0.934112 0.885694 0.595852
Si Si4 0.953824 0.276912 0.675826
Si Si5 0.101622 0.570846 0.554131
O O1 0.750000 0.750000 0.500000
O O2 0.801489 0.984039 0.387467
O O3 0.905803 0.926384 0.511857
O O4 0.724307 0.080906 0.546385
O O5 0.658147 0.758471 0.354955
O O6 0.615133 0.025871 0.458625
O O7 0.654142 0.105847 0.308229
O O8 0.037937 0.759580 0.580989
O O9 0.935314 0.075105 0.643462
O O10 0.000000 0.256437 0.750000
O O11 0.042268 0.404771 0.611868
#
# Coordination Sequence:
#
# PCOD9258538 Si02
#       5
#     8   8   8   8   8
#     4   8  17  35  59  87 115 141 189 255 304 345
#     4   8  19  37  57  84 113 147 192 252 304 339
#     4  10  18  33  59  83 114 146 194 242 299 357
#     4  11  22  34  57  82 117 157 199 236 296 372
#     4   9  20  39  59  84 117 153 192 254 309 343
#
# _framework density 25.51407
#
# number of rings (size 3 to 8) (size 9 to 14) (size 15 to 20)
#    1.200    1.600    0.000    2.400    0.000    7.200 
#    0.000    4.000   17.600    0.000    0.000    0.000 
#    0.000    0.000    0.000    0.000    0.000    0.000 
#
# Total GULP energy -111636.648785 kJ/mol
# GULP energy per Si atom -5581.832439 kJ/mol
# Density = 2.545600 g / cm^3
# Si number density = 25.514070 Si / 1000 Ang^3
#
#
#
# Elastic Constant Matrix: (Units=GPa)
#
#
# Indices 1 2 3 4 5 6 
#
# 1 117.3393 37.6782 32.2520 0.0000 39.9896 0.0000
# 2 37.6782 218.4838 61.4313 0.0000 28.0973 0.0000
# 3 32.2520 61.4313 109.7142 0.0000 49.9894 0.0000
# 4 0.0000 0.0000 0.0000 17.0430 0.0000 16.1261
# 5 39.9896 28.0973 49.9894 0.0000 51.0982 0.0000
# 6 0.0000 0.0000 0.0000 16.1261 0.0000 28.9943
#
#
#
# Elastic Compliance Matrix: (Units=1/GPa)
#
#
# Indices 1 2 3 4 5 6 
#
# 1 0.012020 -0.001275 0.002069 0.000000 -0.010730 0.000000
# 2 -0.001275 0.005567 -0.003252 0.000000 0.001117 0.000000
# 3 0.002069 -0.003252 0.018494 0.000000 -0.017924 0.000000
# 4 0.000000 0.000000 0.000000 0.123855 0.000000 -0.068886
# 5 -0.010730 0.001117 -0.017924 0.000000 0.044888 0.000000
# 6 0.000000 0.000000 0.000000 -0.068886 0.000000 0.072803
#
#
# Mechanical properties :
#
#
# Convention : Reuss Voigt Hill
#
# Bulk Modulus (GPa) = 32.08546 78.69559 55.39053
# Shear Modulus (GPa) = 17.06894 40.37214 28.72054
#
# Velocity S-wave (km/s) = 2.58931 3.98219 3.35875
# Velocity P-wave (km/s) = 4.64137 7.21490 6.06618
#
# Compressibility (1/GPa) = 0.03116676
#
# Stress axis : x y z
#
# Youngs Moduli (GPa) = 83.19656 179.61622 54.07248
#
# Poissons Ratio (x) = 0.22897 -0.11190
# Poissons Ratio (y) = 0.10606 0.17583
# Poissons Ratio (z) = -0.17217 0.58407
#
# Static dielectric constant tensor:
#      x y z
#    x 2.442270 0.000000 0.000210 
#    y 0.000000 2.098630 0.000000 
#    z 0.000210 0.000000 2.001400 
# 
# From -- ./inp_files/208329.got.cif
#   From: 2010.05.17/outbox.cif.g08.bks.cpg/sg15_105_cif.got.tgz:208329.got - 2010.06.03 18:47:42.
