data_PCOD9258472
_publ_section_title
;
Structure prediction by ZEFSAII (Michael W. Deem and Ramdas Pophale) SiO2 
 PCOD9258472
Probable space group: C 2/C
;
_chemical_formula_sum "Si O2"
_cell_formula_units_Z 64
_cell_length_a 23.447316
_cell_length_b 8.208444
_cell_length_c 17.365246
_cell_angle_alpha 90.000000
_cell_angle_beta 106.691253
_cell_angle_gamma 90.000000
_cell_volume 3201.399217
_symmetry_space_group_name_H-M "C 2/C"
_symmetry_group_IT_number 15
_symmetry_cell_setting 'monoclinic'
loop_
_space_group_symop_operation_xyz
x,y,z
-x,y,1/2-z
-x,-y,-z
x,-y,1/2+z
1/2+x,1/2+y,z
1/2-x,1/2+y,1/2-z
1/2-x,1/2-y,-z
1/2+x,1/2-y,1/2+z
loop_
_atom_site_type_symbol
_atom_site_label
_atom_site_fract_x
_atom_site_fract_y
_atom_site_fract_z
Si Si1 0.398920 0.232287 0.405607
Si Si2 0.279338 0.838722 0.287233
Si Si3 0.387096 0.225909 0.096476
Si Si4 0.836909 0.372432 0.738168
Si Si5 0.211180 0.083899 0.998371
Si Si6 0.315091 0.976482 0.960710
Si Si7 0.635680 0.403956 0.622379
Si Si8 0.023144 0.817289 0.489910
O O1 0.384049 0.123068 0.326102
O O2 0.389834 0.417093 0.373047
O O3 0.463418 0.211417 0.468584
O O4 0.349417 0.183786 0.448447
O O5 0.212583 0.768773 0.264823
O O6 0.293077 0.931053 0.373983
O O7 0.326671 0.690791 0.299709
O O8 0.296484 0.965516 0.227370
O O9 0.373898 0.154198 0.174989
O O10 0.345906 0.387537 0.076620
O O11 0.449383 0.283525 0.084463
O O12 0.359990 0.092923 0.025895
O O13 0.257160 0.949409 0.990093
O O14 0.250000 0.250000 0.000000
O O15 0.183730 0.076650 0.071928
O O16 0.579423 0.298713 0.569094
O O17 0.000000 0.000000 0.500000
#
# Coordination Sequence:
#
# PCOD9258472 Si02
#       8
#     8   8   8   8   8   8   8   8
#     4  10  23  35  52  91 114 149 198 241 296 352
#     4  11  19  37  55  85 115 154 188 227 302 363
#     4  10  18  35  59  84 112 157 193 248 291 348
#     4  11  23  33  57  86 121 155 186 236 308 366
#     4   9  14  28  56  78 103 145 182 233 289 336
#     4  10  18  33  57  85 110 143 197 240 289 352
#     4  10  18  36  60  79 110 154 195 245 286 347
#     4   9  19  37  62  84 107 152 207 244 287 348
#
# _framework density 19.99126
#
# number of rings (size 3 to 8) (size 9 to 14) (size 15 to 20)
#    0.000    2.000    5.000    1.500    0.000    1.500 
#    0.000    1.250    5.500    0.000    0.000    0.000 
#    0.000    0.000    0.000    0.000    0.000    0.000 
#
# Total GULP energy -178137.463662 kJ/mol
# GULP energy per Si atom -5566.795739 kJ/mol
# Density = 1.994576 g / cm^3
# Si number density = 19.991260 Si / 1000 Ang^3
#
#
#
# Elastic Constant Matrix: (Units=GPa)
#
#
# Indices 1 2 3 4 5 6 
#
# 1 84.4950 17.8760 13.2434 0.0000 2.8140 0.0000
# 2 17.8760 45.6080 4.7474 0.0000 -2.2640 0.0000
# 3 13.2434 4.7474 44.7587 0.0000 -2.9289 0.0000
# 4 0.0000 0.0000 0.0000 21.3674 0.0000 -0.1307
# 5 2.8140 -2.2640 -2.9289 0.0000 32.4757 0.0000
# 6 0.0000 0.0000 0.0000 -0.1307 0.0000 30.8301
#
#
#
# Elastic Compliance Matrix: (Units=1/GPa)
#
#
# Indices 1 2 3 4 5 6 
#
# 1 0.013520 -0.005017 -0.003589 0.000000 -0.001845 0.000000
# 2 -0.005017 0.024091 -0.000938 0.000000 0.002030 0.000000
# 3 -0.003589 -0.000938 0.023659 0.000000 0.002379 0.000000
# 4 0.000000 0.000000 0.000000 0.046802 0.000000 0.000198
# 5 -0.001845 0.002030 0.002379 0.000000 0.031308 0.000000
# 6 0.000000 0.000000 0.000000 0.000198 0.000000 0.032437
#
#
# Mechanical properties :
#
#
# Convention : Reuss Voigt Hill
#
# Bulk Modulus (GPa) = 23.70679 27.39947 25.55313
# Shear Modulus (GPa) = 24.39428 26.20097 25.29762
#
# Velocity S-wave (km/s) = 3.49699 3.62418 3.56115
# Velocity P-wave (km/s) = 5.30939 5.59002 5.45151
#
# Compressibility (1/GPa) = 0.04218201
#
# Stress axis : x y z
#
# Youngs Moduli (GPa) = 73.96188 41.50945 42.26699
#
# Poissons Ratio (x) = 0.20827 0.15170
# Poissons Ratio (y) = 0.37109 0.03964
# Poissons Ratio (z) = 0.26545 0.03893
#
# Static dielectric constant tensor:
#      x y z
#    x 1.751980 0.000000 0.008290 
#    y 0.000000 1.792290 0.000000 
#    z 0.008290 0.000000 1.738230 
# 
# From -- ./inp_files/218294.got.cif
#   From: 2010.05.17/outbox.cif.g08.bks.cpg/sg15_110_cif.got.tgz:218294.got - 2010.06.03 18:47:42.
