data_PCOD9258232
_publ_section_title
;
Structure prediction by ZEFSAII (Michael W. Deem and Ramdas Pophale) SiO2 
 PCOD9258232
Probable space group: C 2/C
;
_chemical_formula_sum "Si O2"
_cell_formula_units_Z 48
_cell_length_a 16.698097
_cell_length_b 25.253722
_cell_length_c 8.629131
_cell_angle_alpha 90.000000
_cell_angle_beta 60.209758
_cell_angle_gamma 90.000000
_cell_volume 3157.941968
_symmetry_space_group_name_H-M "C 2/C"
_symmetry_group_IT_number 15
_symmetry_cell_setting 'monoclinic'
loop_
_space_group_symop_operation_xyz
x,y,z
-x,y,1/2-z
-x,-y,-z
x,-y,1/2+z
1/2+x,1/2+y,z
1/2-x,1/2+y,1/2-z
1/2-x,1/2-y,-z
1/2+x,1/2-y,1/2+z
loop_
_atom_site_type_symbol
_atom_site_label
_atom_site_fract_x
_atom_site_fract_y
_atom_site_fract_z
Si Si1 0.068379 0.341708 0.464628
Si Si2 0.132218 0.628609 0.226637
Si Si3 0.759713 0.667979 0.091906
Si Si4 0.656910 0.923985 0.168424
Si Si5 0.396287 0.750784 0.291698
Si Si6 0.106044 0.518386 0.399365
O O1 0.134173 0.357494 0.544257
O O2 0.081615 0.384377 0.314840
O O3 0.094657 0.284778 0.373962
O O4 0.963175 0.345684 0.619741
O O5 0.212460 0.648878 0.262846
O O6 0.120306 0.565962 0.263939
O O7 0.663203 0.698103 0.173823
O O8 0.767243 0.617415 0.969104
O O9 0.837456 0.710635 0.962294
O O10 0.669527 0.968876 0.287303
O O11 0.625415 0.956375 0.047829
O O12 0.500000 0.741857 0.250000
O O13 0.000000 0.500000 0.500000
#
# Coordination Sequence:
#
# PCOD9258232 Si02
#       6
#     8   8   8   8   8   8
#     4  10  19  29  45  65 101 129 160 195 231 277
#     4  10  19  30  43  70  99 130 160 192 233 286
#     4   9  20  32  49  70  96 127 164 198 239 283
#     4  10  20  30  42  67  96 131 157 193 224 289
#     4  10  18  33  52  69  91 129 163 202 243 282
#     4  11  19  25  43  64  96 133 159 179 234 287
#
# _framework density 15.199773
#
# number of rings (size 3 to 8) (size 9 to 14) (size 15 to 20)
#    0.000    2.000    3.333    1.500    4.667    0.667 
#    0.000    0.000    0.000    0.000    0.000    4.667 
#    0.000    0.000    0.000    0.333    0.000    0.000 
#
# Total GULP energy -133694.347445 kJ/mol
# GULP energy per Si atom -5570.597810 kJ/mol
# Density = 1.516518 g / cm^3
# Si number density = 15.199773 Si / 1000 Ang^3
#
#
#
# Elastic Constant Matrix: (Units=GPa)
#
#
# Indices 1 2 3 4 5 6 
#
# 1 65.7549 46.5288 37.5285 0.0000 2.5038 0.0000
# 2 46.5288 108.8406 45.6584 0.0000 0.8643 0.0000
# 3 37.5285 45.6584 59.6721 0.0000 10.2564 0.0000
# 4 0.0000 0.0000 0.0000 29.2484 0.0000 -2.4947
# 5 2.5038 0.8643 10.2564 0.0000 21.5285 0.0000
# 6 0.0000 0.0000 0.0000 -2.4947 0.0000 25.0908
#
#
#
# Elastic Compliance Matrix: (Units=1/GPa)
#
#
# Indices 1 2 3 4 5 6 
#
# 1 0.026602 -0.006114 -0.012594 0.000000 0.003151 0.000000
# 2 -0.006114 0.015404 -0.008666 0.000000 0.004221 0.000000
# 3 -0.012594 -0.008666 0.033763 0.000000 -0.014272 0.000000
# 4 0.000000 0.000000 0.000000 0.034482 0.000000 0.003428
# 5 0.003151 0.004221 -0.014272 0.000000 0.052714 0.000000
# 6 0.000000 0.000000 0.000000 0.003428 0.000000 0.040196
#
#
# Mechanical properties :
#
#
# Convention : Reuss Voigt Hill
#
# Bulk Modulus (GPa) = 47.57405 54.85545 51.21475
# Shear Modulus (GPa) = 18.87390 22.14366 20.50878
#
# Velocity S-wave (km/s) = 3.52763 3.82100 3.67724
# Velocity P-wave (km/s) = 6.92527 7.45887 7.19702
#
# Compressibility (1/GPa) = 0.02101986
#
# Stress axis : x y z
#
# Youngs Moduli (GPa) = 37.59089 64.92001 29.61833
#
# Poissons Ratio (x) = 0.39694 0.37301
# Poissons Ratio (y) = 0.22984 0.25668
# Poissons Ratio (z) = 0.47341 0.56262
#
# Static dielectric constant tensor:
#      x y z
#    x 1.496270 0.000000 0.037500 
#    y 0.000000 1.526590 0.000000 
#    z 0.037500 0.000000 1.533110 
# 
# From -- ./inp_files/41668.got.cif
#   From: 2010.05.17/outbox.cif.g08.bks.cpg/sg15_21_cif.got.tgz:41668.got - 2010.06.03 18:47:42.
