data_PCOD9258312
_publ_section_title
;
Structure prediction by ZEFSAII (Michael W. Deem and Ramdas Pophale) SiO2 
 PCOD9258312
Probable space group: C 2/C
;
_chemical_formula_sum "Si O2"
_cell_formula_units_Z 48
_cell_length_a 24.718366
_cell_length_b 9.656933
_cell_length_c 19.557155
_cell_angle_alpha 90.000000
_cell_angle_beta 22.710136
_cell_angle_gamma 90.000000
_cell_volume 1802.311503
_symmetry_space_group_name_H-M "C 2/C"
_symmetry_group_IT_number 15
_symmetry_cell_setting 'monoclinic'
loop_
_space_group_symop_operation_xyz
x,y,z
-x,y,1/2-z
-x,-y,-z
x,-y,1/2+z
1/2+x,1/2+y,z
1/2-x,1/2+y,1/2-z
1/2-x,1/2-y,-z
1/2+x,1/2-y,1/2+z
loop_
_atom_site_type_symbol
_atom_site_label
_atom_site_fract_x
_atom_site_fract_y
_atom_site_fract_z
Si Si1 0.454509 0.742296 0.459790
Si Si2 0.499789 0.937509 0.603646
Si Si3 0.798815 0.082198 0.740585
Si Si4 0.299940 0.581111 0.377047
Si Si5 0.310927 0.467979 0.588691
Si Si6 0.500000 0.006425 0.750000
Si Si7 0.000000 0.944771 0.250000
O O1 0.441291 0.903906 0.466213
O O2 0.409341 0.696842 0.588285
O O3 0.612551 0.706274 0.255493
O O4 0.361571 0.631159 0.524647
O O5 0.349956 0.941399 0.742632
O O6 0.477392 0.912280 0.710028
O O7 0.639934 0.863155 0.413713
O O8 0.827678 0.959788 0.651503
O O9 0.811993 0.034888 0.802961
O O10 0.137982 0.599088 0.582152
O O11 0.378212 0.528316 0.352905
O O12 0.411577 0.386626 0.418611
#
# Coordination Sequence:
#
# PCOD9258312 Si02
#       7
#     8   8   8   8   8   4   4
#     4   9  22  33  53  78 111 148 185 217 266 328
#     4  11  20  35  54  80 118 145 181 224 279 323
#     4   9  21  36  54  77 111 149 187 227 262 332
#     4  10  19  36  51  79 115 143 185 221 272 329
#     4   9  20  35  49  80 112 143 187 221 268 332
#     4  10  22  31  52  84 113 150 170 223 278 338
#     4  10  18  33  54  76 111 150 178 223 272 332
#
# _framework density 26.632463999999999
#
# number of rings (size 3 to 8) (size 9 to 14) (size 15 to 20)
#    1.000    1.333    1.667    1.000    4.667    3.333 
#    0.000    0.000    0.000    0.000    0.000    5.833 
#    0.000    0.667    0.000    0.000    0.000    0.000 
#
# Total GULP energy -133999.739395 kJ/mol
# GULP energy per Si atom -5583.322475 kJ/mol
# Density = 2.657185 g / cm^3
# Si number density = 26.632464 Si / 1000 Ang^3
#
#
#
# Elastic Constant Matrix: (Units=GPa)
#
#
# Indices 1 2 3 4 5 6 
#
# 1 134.9143 29.6253 58.4063 0.0002 0.0873 0.0000
# 2 29.6253 70.4786 28.9359 0.0008 3.5849 -0.0001
# 3 58.4063 28.9359 196.8358 0.0003 -2.1620 -0.0001
# 4 0.0002 0.0008 0.0003 12.1204 0.0000 8.0602
# 5 0.0873 3.5849 -2.1620 0.0000 52.6396 0.0000
# 6 0.0000 -0.0001 -0.0001 8.0602 0.0000 8.7900
#
#
#
# Elastic Compliance Matrix: (Units=1/GPa)
#
#
# Indices 1 2 3 4 5 6 
#
# 1 0.009018 -0.002870 -0.002253 0.000000 0.000088 0.000000
# 2 -0.002870 0.016080 -0.001525 -0.000003 -0.001153 0.000003
# 3 -0.002253 -0.001525 0.005977 0.000000 0.000353 0.000000
# 4 0.000000 -0.000003 0.000000 0.211444 0.000000 -0.193889
# 5 0.000088 -0.001153 0.000353 0.000000 0.019090 0.000000
# 6 0.000000 0.000003 0.000000 -0.193889 0.000000 0.291556
#
#
# Mechanical properties :
#
#
# Convention : Reuss Voigt Hill
#
# Bulk Modulus (GPa) = 56.24690 70.68485 63.46587
# Shear Modulus (GPa) = 8.73536 33.72743 21.23139
#
# Velocity S-wave (km/s) = 1.81303 3.56252 2.82654
# Velocity P-wave (km/s) = 5.05453 6.59701 5.87660
#
# Compressibility (1/GPa) = 0.01777876
#
# Stress axis : x y z
#
# Youngs Moduli (GPa) = 110.89458 62.18984 167.31069
#
# Poissons Ratio (x) = 0.17849 0.37693
# Poissons Ratio (y) = 0.31827 0.25513
# Poissons Ratio (z) = 0.24983 0.09483
#
# Static dielectric constant tensor:
#      x y z
#    x 2.105150 0.000000 0.014560 
#    y 0.000000 2.047600 0.000000 
#    z 0.014560 0.000000 2.121980 
# 
# From -- ./inp_files/257750.got.cif
#   From: 2010.05.17/outbox.cif.g08.bks.cpg/sg15_129_cif.got.tgz:257750.got - 2010.06.03 18:47:42.
