data_PCOD9258629
_publ_section_title
;
Structure prediction by ZEFSAII (Michael W. Deem and Ramdas Pophale) SiO2 
 PCOD9258629
Probable space group: C 2/C
;
_chemical_formula_sum "Si O2"
_cell_formula_units_Z 48
_cell_length_a 12.898175
_cell_length_b 12.484517
_cell_length_c 20.240662
_cell_angle_alpha 90.000000
_cell_angle_beta 146.826170
_cell_angle_gamma 90.000000
_cell_volume 1783.428528
_symmetry_space_group_name_H-M "C 2/C"
_symmetry_group_IT_number 15
_symmetry_cell_setting 'monoclinic'
loop_
_space_group_symop_operation_xyz
x,y,z
-x,y,1/2-z
-x,-y,-z
x,-y,1/2+z
1/2+x,1/2+y,z
1/2-x,1/2+y,1/2-z
1/2-x,1/2-y,-z
1/2+x,1/2-y,1/2+z
loop_
_atom_site_type_symbol
_atom_site_label
_atom_site_fract_x
_atom_site_fract_y
_atom_site_fract_z
Si Si1 0.244409 0.310180 0.845281
Si Si2 0.503087 0.771232 0.905384
Si Si3 0.661549 0.940568 0.286920
Si Si4 0.308802 0.370110 0.681112
Si Si5 0.373632 0.018041 0.539103
Si Si6 0.516518 0.542929 0.099472
O O1 0.091663 0.244827 0.717925
O O2 0.160135 0.430250 0.800482
O O3 0.432253 0.339648 0.902166
O O4 0.320340 0.277344 0.958184
O O5 0.318880 0.778592 0.854919
O O6 0.571505 0.894722 0.937386
O O7 0.500000 0.896625 0.250000
O O8 0.557186 0.920187 0.162251
O O9 0.888843 0.945087 0.391579
O O10 0.500000 0.329339 0.750000
O O11 0.193642 0.433555 0.564991
O O12 0.376517 0.451859 0.773613
O O13 0.202672 0.030329 0.500978
#
# Coordination Sequence:
#
# PCOD9258629 Si02
#       6
#     8   8   8   8   8   8
#     4   8  19  37  57  83 124 161 198 251 312 374
#     4  10  18  36  61  86 122 163 205 251 311 373
#     4   9  19  36  56  77 122 157 192 251 320 359
#     4   9  17  33  58  88 114 149 209 268 304 350
#     4  10  18  33  62  85 112 157 206 263 300 358
#     4   8  18  35  55  82 122 150 200 254 318 353
#
# _framework density 26.914451
#
# number of rings (size 3 to 8) (size 9 to 14) (size 15 to 20)
#    1.000    2.000    1.667    0.500    0.000    0.667 
#    0.000   20.000    0.000    0.000    0.000    0.000 
#    0.000    0.000    0.000    0.500    0.000    0.000 
#
# Total GULP energy -133691.474450 kJ/mol
# GULP energy per Si atom -5570.478102 kJ/mol
# Density = 2.685319 g / cm^3
# Si number density = 26.914451 Si / 1000 Ang^3
#
#
#
# Elastic Constant Matrix: (Units=GPa)
#
#
# Indices 1 2 3 4 5 6 
#
# 1 78.9872 2.6135 19.5680 0.0001 32.4270 0.0001
# 2 2.6135 66.3278 40.6152 0.0000 -17.7546 0.0000
# 3 19.5680 40.6152 240.3105 0.0002 -28.7363 0.0001
# 4 0.0001 0.0000 0.0002 22.8555 0.0001 -23.2013
# 5 32.4270 -17.7546 -28.7363 0.0001 53.3913 0.0000
# 6 0.0001 0.0000 0.0001 -23.2013 0.0000 -27.1213
#
#
#
# Elastic Compliance Matrix: (Units=1/GPa)
#
#
# Indices 1 2 3 4 5 6 
#
# 1 0.019240 -0.002839 -0.002776 0.000000 -0.014123 0.000000
# 2 -0.002839 0.018234 -0.002051 0.000000 0.006684 0.000000
# 3 -0.002776 -0.002051 0.005188 0.000000 0.003796 0.000000
# 4 0.000000 0.000000 0.000000 0.023417 0.000000 -0.020033
# 5 -0.014123 0.006684 0.003796 0.000000 0.031573 0.000000
# 6 0.000000 0.000000 0.000000 -0.020033 0.000000 -0.019734
#
#
# Mechanical properties :
#
#
# Convention : Reuss Voigt Hill
#
# Bulk Modulus (GPa) = 36.59043 56.80212 46.69627
# Shear Modulus (GPa) = 48.84743 31.34703 40.09723
#
# Velocity S-wave (km/s) = 4.26480 3.41646 3.86398
# Velocity P-wave (km/s) = 6.15435 6.05916 6.10694
#
# Compressibility (1/GPa) = 0.02732955
#
# Stress axis : x y z
#
# Youngs Moduli (GPa) = 51.97510 54.84372 192.75564
#
# Poissons Ratio (x) = 0.15570 0.53504
# Poissons Ratio (y) = 0.14756 0.39540
# Poissons Ratio (z) = 0.14427 0.11250
#
# Static dielectric constant tensor:
#      x y z
#    x 2.397160 0.000000 -0.005480 
#    y 0.000000 2.081700 0.000000 
#    z -0.005480 0.000000 2.046910 
# 
# From -- ./inp_files/244941.got.cif
#   From: 2010.05.17/outbox.cif.g08.bks.cpg/sg15_123_cif.got.tgz:244941.got - 2010.06.03 18:47:42.
