data_PCOD9258835
_publ_section_title
;
Structure prediction by ZEFSAII (Michael W. Deem and Ramdas Pophale) SiO2 
 PCOD9258835
Probable space group: C 2/C
;
_chemical_formula_sum "Si O2"
_cell_formula_units_Z 56
_cell_length_a 7.549891
_cell_length_b 11.434001
_cell_length_c 26.935555
_cell_angle_alpha 90.000000
_cell_angle_beta 76.375584
_cell_angle_gamma 90.000000
_cell_volume 2259.794048
_symmetry_space_group_name_H-M "C 2/C"
_symmetry_group_IT_number 15
_symmetry_cell_setting 'monoclinic'
loop_
_space_group_symop_operation_xyz
x,y,z
-x,y,1/2-z
-x,-y,-z
x,-y,1/2+z
1/2+x,1/2+y,z
1/2-x,1/2+y,1/2-z
1/2-x,1/2-y,-z
1/2+x,1/2-y,1/2+z
loop_
_atom_site_type_symbol
_atom_site_label
_atom_site_fract_x
_atom_site_fract_y
_atom_site_fract_z
Si Si1 0.863665 0.124139 0.459559
Si Si2 0.420135 0.130011 0.903056
Si Si3 0.000000 0.330557 0.750000
Si Si4 0.219282 0.106003 0.186070
Si Si5 0.000000 0.291703 0.250000
Si Si6 0.483437 0.124473 0.074593
Si Si7 0.734298 0.362045 0.192275
Si Si8 0.022698 0.122467 0.932473
O O1 0.929688 0.246668 0.431704
O O2 0.646724 0.125314 0.464854
O O3 0.925669 0.121543 0.512339
O O4 0.928324 0.002139 0.430000
O O5 0.598455 0.131814 0.857005
O O6 0.218063 0.129685 0.892078
O O7 0.418077 0.000596 0.929230
O O8 0.150544 0.392381 0.773877
O O9 0.107336 0.249853 0.703106
O O10 0.346308 0.122804 0.130386
O O11 0.072746 0.206499 0.202345
O O12 0.124891 0.980145 0.190356
O O13 0.831868 0.361000 0.239519
O O14 0.579190 0.252873 0.069960
#
# Coordination Sequence:
#
# PCOD9258835 Si02
#       8
#     8   8   4   8   4   8   8   8
#     4  10  22  39  58  84 117 151 189 234 284 338
#     4  10  21  37  58  84 114 149 191 235 280 335
#     4  10  22  38  56  80 114 146 182 230 280 336
#     4  10  21  36  55  81 110 144 185 230 278 331
#     4  10  18  34  56  76 106 146 182 222 280 332
#     4  10  21  37  58  84 114 149 191 235 280 335
#     4  10  21  36  55  81 110 144 185 230 278 331
#     4  10  22  39  58  84 117 151 189 234 284 338
#
# _framework density 24.781018
#
# number of rings (size 3 to 8) (size 9 to 14) (size 15 to 20)
#    0.000    2.000    0.000    4.286    0.000    8.000 
#    0.000   10.000    0.000    0.000    0.000    0.000 
#    0.000    0.000    0.000    0.000    0.000    0.000 
#
# Total GULP energy -156303.175673 kJ/mol
# GULP energy per Si atom -5582.256274 kJ/mol
# Density = 2.472462 g / cm^3
# Si number density = 24.781018 Si / 1000 Ang^3
#
#
#
# Elastic Constant Matrix: (Units=GPa)
#
#
# Indices 1 2 3 4 5 6 
#
# 1 42.4495 28.7037 -8.2274 0.0000 -1.8158 0.0000
# 2 28.7037 222.9565 19.2574 0.0000 -11.4259 0.0000
# 3 -8.2274 19.2574 48.0747 0.0000 -5.9559 0.0000
# 4 0.0000 0.0000 0.0000 11.0297 0.0000 1.2006
# 5 -1.8158 -11.4259 -5.9559 0.0000 31.7339 0.0000
# 6 0.0000 0.0000 0.0000 1.2006 0.0000 11.5605
#
#
#
# Elastic Compliance Matrix: (Units=1/GPa)
#
#
# Indices 1 2 3 4 5 6 
#
# 1 0.027615 -0.004049 0.006515 0.000000 0.001345 0.000000
# 2 -0.004049 0.005297 -0.002669 0.000000 0.001175 0.000000
# 3 0.006515 -0.002669 0.023458 0.000000 0.003814 0.000000
# 4 0.000000 0.000000 0.000000 0.091701 0.000000 -0.009524
# 5 0.001345 0.001175 0.003814 0.000000 0.032728 0.000000
# 6 0.000000 0.000000 0.000000 -0.009524 0.000000 0.087490
#
#
# Mechanical properties :
#
#
# Convention : Reuss Voigt Hill
#
# Bulk Modulus (GPa) = 17.86899 43.66089 30.76494
# Shear Modulus (GPa) = 17.40030 29.11461 23.25745
#
# Velocity S-wave (km/s) = 2.65271 3.43136 3.06685
# Velocity P-wave (km/s) = 4.07540 5.77546 4.99824
#
# Compressibility (1/GPa) = 0.05596288
#
# Stress axis : x y z
#
# Youngs Moduli (GPa) = 36.21159 188.77863 42.62996
#
# Poissons Ratio (x) = 0.76437 -0.27772
# Poissons Ratio (y) = 0.14662 0.11379
# Poissons Ratio (z) = -0.23590 0.50391
#
# Static dielectric constant tensor:
#      x y z
#    x 1.939820 0.000000 0.027490 
#    y 0.000000 2.008310 0.000000 
#    z 0.027490 0.000000 2.032580 
# 
# From -- ./inp_files/287988.got.cif
#   From: 2010.05.17/outbox.cif.g08.bks.cpg/sg15_144_cif.got.tgz:287988.got - 2010.06.03 18:47:42.
