data_PCOD9258986
_publ_section_title
;
Structure prediction by ZEFSAII (Michael W. Deem and Ramdas Pophale) SiO2 
 PCOD9258986
Probable space group: C 2/C
;
_chemical_formula_sum "Si O2"
_cell_formula_units_Z 40
_cell_length_a 11.089804
_cell_length_b 9.743113
_cell_length_c 16.735251
_cell_angle_alpha 90.000000
_cell_angle_beta 117.965975
_cell_angle_gamma 90.000000
_cell_volume 1597.076795
_symmetry_space_group_name_H-M "C 2/C"
_symmetry_group_IT_number 15
_symmetry_cell_setting 'monoclinic'
loop_
_space_group_symop_operation_xyz
x,y,z
-x,y,1/2-z
-x,-y,-z
x,-y,1/2+z
1/2+x,1/2+y,z
1/2-x,1/2+y,1/2-z
1/2-x,1/2-y,-z
1/2+x,1/2-y,1/2+z
loop_
_atom_site_type_symbol
_atom_site_label
_atom_site_fract_x
_atom_site_fract_y
_atom_site_fract_z
Si Si1 0.985753 0.546028 0.338499
Si Si2 0.605893 0.393246 0.876892
Si Si3 0.258990 0.878197 0.084353
Si Si4 0.826221 0.210437 0.606384
Si Si5 0.205642 0.903980 0.702069
O O1 0.824726 0.548264 0.299939
O O2 0.000000 0.503191 0.250000
O O3 0.105098 0.452212 0.413314
O O4 0.034614 0.702788 0.358566
O O5 0.690008 0.266471 0.866682
O O6 0.648545 0.550206 0.877243
O O7 0.444882 0.381972 0.812746
O O8 0.642562 0.365674 0.981950
O O9 0.201934 0.974089 0.135724
O O10 0.750000 0.250000 0.500000
O O11 0.753254 0.275137 0.661901
#
# Coordination Sequence:
#
# PCOD9258986 Si02
#       5
#     8   8   8   8   8
#     4   8  17  36  54  76 115 146 170 226 276 315
#     4  11  20  34  59  82 105 143 186 223 266 325
#     4   9  19  35  54  81 111 136 181 228 265 318
#     4  10  18  34  58  82 107 142 186 225 265 320
#     4  10  21  38  57  77 114 149 175 219 284 319
#
# _framework density 25.045759
#
# number of rings (size 3 to 8) (size 9 to 14) (size 15 to 20)
#    0.000    2.800    4.000    0.600    0.000    1.600 
#    0.000   17.000    0.000    0.000    0.000    0.000 
#    0.000    0.000    0.000    0.000    0.000    0.000 
#
# Total GULP energy -111779.479961 kJ/mol
# GULP energy per Si atom -5588.973998 kJ/mol
# Density = 2.498875 g / cm^3
# Si number density = 25.045759 Si / 1000 Ang^3
#
#
#
# Elastic Constant Matrix: (Units=GPa)
#
#
# Indices 1 2 3 4 5 6 
#
# 1 94.5312 28.3045 36.5521 0.0000 13.7464 0.0000
# 2 28.3045 167.1988 3.3201 0.0000 -2.7735 0.0000
# 3 36.5521 3.3201 86.3524 0.0000 27.1478 0.0000
# 4 0.0000 0.0000 0.0000 24.7545 0.0000 6.2259
# 5 13.7464 -2.7735 27.1478 0.0000 20.9788 0.0000
# 6 0.0000 0.0000 0.0000 6.2259 0.0000 27.6431
#
#
#
# Elastic Compliance Matrix: (Units=1/GPa)
#
#
# Indices 1 2 3 4 5 6 
#
# 1 0.013502 -0.002246 -0.004643 0.000000 -0.003136 0.000000
# 2 -0.002246 0.006401 -0.000041 0.000000 0.002371 0.000000
# 3 -0.004643 -0.000041 0.021229 0.000000 -0.024435 0.000000
# 4 0.000000 0.000000 0.000000 0.042822 0.000000 -0.009645
# 5 -0.003136 0.002371 -0.024435 0.000000 0.081656 0.000000
# 6 0.000000 0.000000 0.000000 -0.009645 0.000000 0.038348
#
#
# Mechanical properties :
#
#
# Convention : Reuss Voigt Hill
#
# Bulk Modulus (GPa) = 36.66556 53.82622 45.24589
# Shear Modulus (GPa) = 22.03529 33.33566 27.68548
#
# Velocity S-wave (km/s) = 2.96936 3.65223 3.32836
# Velocity P-wave (km/s) = 5.14075 6.27080 5.73368
#
# Compressibility (1/GPa) = 0.02727355
#
# Stress axis : x y z
#
# Youngs Moduli (GPa) = 74.06172 156.22109 47.10441
#
# Poissons Ratio (x) = 0.35080 0.21872
# Poissons Ratio (y) = 0.16631 0.00192
# Poissons Ratio (z) = 0.34389 0.00638
#
# Static dielectric constant tensor:
#      x y z
#    x 0.640950 0.000000 0.787000 
#    y 0.000000 1.973240 0.000000 
#    z 0.787000 0.000000 1.611050 
# 
# From -- ./inp_files/241896.got.cif
#   From: 2010.05.17/outbox.cif.g08.bks.cpg/sg15_121_cif.got.tgz:241896.got - 2010.06.03 18:47:42.
