data_PCOD9258330
_publ_section_title
;
Structure prediction by ZEFSAII (Michael W. Deem and Ramdas Pophale) SiO2 
 PCOD9258330
Probable space group: C 2/C
;
_chemical_formula_sum "Si O2"
_cell_formula_units_Z 60
_cell_length_a 9.859539
_cell_length_b 26.345792
_cell_length_c 27.096347
_cell_angle_alpha 90.000000
_cell_angle_beta 153.599209
_cell_angle_gamma 90.000000
_cell_volume 3129.640924
_symmetry_space_group_name_H-M "C 2/C"
_symmetry_group_IT_number 15
_symmetry_cell_setting 'monoclinic'
loop_
_space_group_symop_operation_xyz
x,y,z
-x,y,1/2-z
-x,-y,-z
x,-y,1/2+z
1/2+x,1/2+y,z
1/2-x,1/2+y,1/2-z
1/2-x,1/2-y,-z
1/2+x,1/2-y,1/2+z
loop_
_atom_site_type_symbol
_atom_site_label
_atom_site_fract_x
_atom_site_fract_y
_atom_site_fract_z
Si Si1 0.636441 0.850015 0.742548
Si Si2 0.558394 0.404785 0.508236
Si Si3 0.291030 0.409570 0.528694
Si Si4 0.500000 0.518666 0.750000
Si Si5 0.464276 0.673218 0.584773
Si Si6 0.190488 0.097662 0.888316
Si Si7 0.673567 0.213617 0.161539
Si Si8 0.162963 0.523618 0.476397
O O1 0.500000 0.833091 0.750000
O O2 0.388069 0.886573 0.635963
O O3 0.663450 0.802747 0.715056
O O4 0.943329 0.880555 0.855407
O O5 0.348935 0.406403 0.488578
O O6 0.443834 0.363817 0.430394
O O7 0.631462 0.456123 0.501838
O O8 0.286491 0.470089 0.537301
O O9 0.967312 0.388387 0.441978
O O10 0.494865 0.556546 0.794997
O O11 0.809451 0.486729 0.849226
O O12 0.483019 0.644053 0.642875
O O13 0.637075 0.726412 0.641771
O O14 0.108254 0.687155 0.458446
O O15 0.326989 0.067026 0.979237
O O16 0.000000 0.195067 0.250000
#
# Coordination Sequence:
#
# PCOD9258330 Si02
#       8
#     8   8   8   4   8   8   8   8
#     4   9  19  33  54  83 107 135 178 232 268 322
#     4   9  19  34  54  78 112 144 177 224 273 314
#     4  10  18  33  54  81 113 140 185 218 270 316
#     4  10  20  34  52  80 112 144 188 220 268 314
#     4   9  20  39  56  79 113 138 180 235 269 333
#     4  10  21  37  54  79 113 147 183 225 265 324
#     4  10  19  37  61  82 102 141 186 224 282 330
#     4  10  21  33  55  78 113 152 185 222 259 327
#
# _framework density 19.171527999999999
#
# number of rings (size 3 to 8) (size 9 to 14) (size 15 to 20)
#    0.000    2.400    0.000    2.800    3.733    0.000 
#    8.400    0.000    0.000    6.400    0.000    0.000 
#    0.000    0.000    0.000    0.000    0.000    0.000 
#
# Total GULP energy -167304.826009 kJ/mol
# GULP energy per Si atom -5576.827534 kJ/mol
# Density = 1.912789 g / cm^3
# Si number density = 19.171528 Si / 1000 Ang^3
#
#
#
# Elastic Constant Matrix: (Units=GPa)
#
#
# Indices 1 2 3 4 5 6 
#
# 1 64.7039 3.1463 6.2251 0.0369 -6.0332 0.0489
# 2 3.1463 42.9205 -3.7442 0.0144 -7.2115 0.0104
# 3 6.2251 -3.7442 39.3580 0.1347 -4.5128 0.1675
# 4 0.0369 0.0144 0.1347 15.6375 0.0139 7.1098
# 5 -6.0332 -7.2115 -4.5128 0.0139 19.4199 0.0142
# 6 0.0489 0.0104 0.1675 7.1098 0.0142 47.9774
#
#
#
# Elastic Compliance Matrix: (Units=1/GPa)
#
#
# Indices 1 2 3 4 5 6 
#
# 1 0.016088 -0.000647 -0.002117 -0.000020 0.004266 -0.000007
# 2 -0.000647 0.025358 0.003669 -0.000057 0.010068 -0.000012
# 3 -0.002117 0.003669 0.026890 -0.000207 0.006954 -0.000064
# 4 -0.000020 -0.000057 -0.000207 0.068570 -0.000117 -0.010161
# 5 0.004266 0.010068 0.006954 -0.000117 0.058174 -0.000031
# 6 -0.000007 -0.000012 -0.000064 -0.010161 -0.000031 0.022349
#
#
# Mechanical properties :
#
#
# Convention : Reuss Voigt Hill
#
# Bulk Modulus (GPa) = 14.25586 17.58187 15.91887
# Shear Modulus (GPa) = 20.92041 26.03064 23.47552
#
# Velocity S-wave (km/s) = 3.30695 3.68880 3.50308
# Velocity P-wave (km/s) = 4.69397 5.22817 4.96825
#
# Compressibility (1/GPa) = 0.07014658
#
# Stress axis : x y z
#
# Youngs Moduli (GPa) = 62.15837 39.43503 37.18855
#
# Poissons Ratio (x) = 0.02553 0.07872
# Poissons Ratio (y) = 0.04023 -0.13646
# Poissons Ratio (z) = 0.13158 -0.14470
#
# Static dielectric constant tensor:
#      x y z
#    x 1.698720 -0.000010 -0.006930 
#    y -0.000010 1.659300 -0.000010 
#    z -0.006930 -0.000010 1.667250 
# 
# From -- ./inp_files/290307.got.cif
#   From: 2010.05.17/outbox.cif.g08.bks.cpg/sg15_146_cif.got.tgz:290307.got - 2010.06.03 18:47:42.
