data_PCOD9258411
_publ_section_title
;
Structure prediction by ZEFSAII (Michael W. Deem and Ramdas Pophale) SiO2 
 PCOD9258411
Probable space group: C 2/C
;
_chemical_formula_sum "Si O2"
_cell_formula_units_Z 40
_cell_length_a 20.834957
_cell_length_b 11.810344
_cell_length_c 17.840353
_cell_angle_alpha 90.000000
_cell_angle_beta 20.483544
_cell_angle_gamma 90.000000
_cell_volume 1536.208386
_symmetry_space_group_name_H-M "C 2/C"
_symmetry_group_IT_number 15
_symmetry_cell_setting 'monoclinic'
loop_
_space_group_symop_operation_xyz
x,y,z
-x,y,1/2-z
-x,-y,-z
x,-y,1/2+z
1/2+x,1/2+y,z
1/2-x,1/2+y,1/2-z
1/2-x,1/2-y,-z
1/2+x,1/2-y,1/2+z
loop_
_atom_site_type_symbol
_atom_site_label
_atom_site_fract_x
_atom_site_fract_y
_atom_site_fract_z
Si Si1 0.367300 0.349896 0.546851
Si Si2 0.719171 0.892296 0.394601
Si Si3 0.814335 0.094354 0.545593
Si Si4 0.073009 0.616380 0.493820
Si Si5 0.774156 0.102915 0.416924
O O1 0.373533 0.228998 0.499250
O O2 0.567968 0.376230 0.361271
O O3 0.315678 0.457069 0.551903
O O4 0.211622 0.340448 0.780341
O O5 0.731815 0.967920 0.456092
O O6 0.614419 0.980937 0.455597
O O7 0.776282 0.129613 0.501479
O O8 0.022589 0.122990 0.337995
O O9 0.641163 0.136805 0.781866
O O10 0.134285 0.655766 0.510624
#
# Coordination Sequence:
#
# PCOD9258411 Si02
#       5
#     8   8   8   8   8
#     4  11  20  35  54  83 116 143 186 222 273 329
#     4   9  21  34  51  81 114 142 179 226 270 322
#     4  10  18  33  56  81 108 150 176 219 281 329
#     4  10  20  36  56  79 114 147 181 227 269 326
#     4   8  20  35  52  82 114 140 181 225 270 331
#
# _framework density 26.038133999999999
#
# number of rings (size 3 to 8) (size 9 to 14) (size 15 to 20)
#    1.200    1.200    0.000    3.000    0.000    0.800 
#    0.000    2.000    0.000    0.000    0.000   12.600 
#    0.000    0.000    0.000    0.000    0.000    0.000 
#
# Total GULP energy -111862.546637 kJ/mol
# GULP energy per Si atom -5593.127332 kJ/mol
# Density = 2.597887 g / cm^3
# Si number density = 26.038134 Si / 1000 Ang^3
#
#
#
# Elastic Constant Matrix: (Units=GPa)
#
#
# Indices 1 2 3 4 5 6 
#
# 1 63.9592 18.5985 7.8991 -0.0017 -1.7994 0.0008
# 2 18.5985 153.6386 12.9162 -0.0066 -13.9605 0.0039
# 3 7.8991 12.9162 134.1692 -0.0024 -33.2387 0.0017
# 4 -0.0017 -0.0066 -0.0024 16.8407 0.0009 -10.9962
# 5 -1.7994 -13.9605 -33.2387 0.0009 27.2391 -0.0006
# 6 0.0008 0.0039 0.0017 -10.9962 -0.0006 49.5602
#
#
#
# Elastic Compliance Matrix: (Units=1/GPa)
#
#
# Indices 1 2 3 4 5 6 
#
# 1 0.016314 -0.001999 -0.001082 0.000001 -0.001267 0.000000
# 2 -0.001999 0.007080 0.000433 0.000002 0.004025 0.000000
# 3 -0.001082 0.000433 0.010768 0.000001 0.013290 0.000000
# 4 0.000001 0.000002 0.000001 0.069440 0.000000 0.015407
# 5 -0.001267 0.004025 0.013290 0.000000 0.054908 0.000000
# 6 0.000000 0.000000 0.000000 0.015407 0.000000 0.023596
#
#
# Mechanical properties :
#
#
# Convention : Reuss Voigt Hill
#
# Bulk Modulus (GPa) = 34.64204 47.84386 41.24295
# Shear Modulus (GPa) = 25.37763 39.55156 32.46459
#
# Velocity S-wave (km/s) = 3.12530 3.90165 3.53485
# Velocity P-wave (km/s) = 5.13386 6.22186 5.70386
#
# Compressibility (1/GPa) = 0.02886666
#
# Stress axis : x y z
#
# Youngs Moduli (GPa) = 61.29616 141.24055 92.87058
#
# Poissons Ratio (x) = 0.28235 0.10048
# Poissons Ratio (y) = 0.12254 -0.04025
# Poissons Ratio (z) = 0.06632 -0.06121
#
# Static dielectric constant tensor:
#      x y z
#    x 2.009260 0.000000 0.000570 
#    y 0.000000 2.142520 0.000000 
#    z 0.000570 0.000000 1.983230 
# 
# From -- ./inp_files/206063.got.cif
#   From: 2010.05.17/outbox.cif.g08.bks.cpg/sg15_104_cif.got.tgz:206063.got - 2010.06.03 18:47:42.
