data_PCOD9258885
_publ_section_title
;
Structure prediction by ZEFSAII (Michael W. Deem and Ramdas Pophale) SiO2 
 PCOD9258885
Probable space group: C 2/C
;
_chemical_formula_sum "Si O2"
_cell_formula_units_Z 40
_cell_length_a 16.350551
_cell_length_b 13.218117
_cell_length_c 12.430391
_cell_angle_alpha 90.000000
_cell_angle_beta 146.877266
_cell_angle_gamma 90.000000
_cell_volume 1467.995536
_symmetry_space_group_name_H-M "C 2/C"
_symmetry_group_IT_number 15
_symmetry_cell_setting 'monoclinic'
loop_
_space_group_symop_operation_xyz
x,y,z
-x,y,1/2-z
-x,-y,-z
x,-y,1/2+z
1/2+x,1/2+y,z
1/2-x,1/2+y,1/2-z
1/2-x,1/2-y,-z
1/2+x,1/2-y,1/2+z
loop_
_atom_site_type_symbol
_atom_site_label
_atom_site_fract_x
_atom_site_fract_y
_atom_site_fract_z
Si Si1 0.000000 0.779809 0.250000
Si Si2 0.593159 0.895879 0.461049
Si Si3 0.606167 0.648419 0.279472
Si Si4 0.299395 0.552152 0.484493
Si Si5 0.033269 0.388867 0.953232
Si Si6 0.500000 0.500000 0.000000
O O1 0.058641 0.708723 0.409891
O O2 0.136014 0.855485 0.373845
O O3 0.500000 0.906717 0.250000
O O4 0.735650 0.822604 0.600010
O O5 0.487097 0.864085 0.443604
O O6 0.637965 0.013079 0.545836
O O7 0.500000 0.701877 0.250000
O O8 0.667609 0.549725 0.413582
O O9 0.506109 0.607176 0.073208
O O10 0.129317 0.572276 0.266704
O O11 0.394626 0.547564 0.480761
#
# Coordination Sequence:
#
# PCOD9258885 Si02
#       6
#     4   8   8   8   8   4
#     4  12  22  38  56  92 130 166 200 254 318 366
#     4  11  21  38  61  88 126 159 211 261 303 370
#     4  10  19  33  58  89 116 154 204 252 297 360
#     4  11  20  36  59  90 123 156 204 256 304 377
#     4  11  23  35  59  89 125 164 201 258 311 371
#     4  10  18  34  56  88 124 156 202 250 310 352
#
# _framework density 27.248041000000001
#
# number of rings (size 3 to 8) (size 9 to 14) (size 15 to 20)
#    0.000    1.200    8.000    0.600    0.000    0.000 
#    0.000    0.000    0.000    4.800    0.000    0.000 
#    0.000    0.000    0.000    0.000    0.000    0.000 
#
# Total GULP energy -111425.445141 kJ/mol
# GULP energy per Si atom -5571.272257 kJ/mol
# Density = 2.718602 g / cm^3
# Si number density = 27.248041 Si / 1000 Ang^3
#
#
#
# Elastic Constant Matrix: (Units=GPa)
#
#
# Indices 1 2 3 4 5 6 
#
# 1 160.0826 24.1704 9.0005 0.0000 -8.0960 0.0000
# 2 24.1704 89.1507 15.5051 0.0000 5.7631 0.0000
# 3 9.0005 15.5051 69.9461 0.0000 -6.4964 0.0000
# 4 0.0000 0.0000 0.0000 39.3325 0.0000 13.5103
# 5 -8.0960 5.7631 -6.4964 0.0000 40.4632 0.0000
# 6 0.0000 0.0000 0.0000 13.5103 0.0000 8.9840
#
#
#
# Elastic Compliance Matrix: (Units=1/GPa)
#
#
# Indices 1 2 3 4 5 6 
#
# 1 0.006620 -0.001842 -0.000301 0.000000 0.001539 0.000000
# 2 -0.001842 0.012359 -0.002741 0.000000 -0.002569 0.000000
# 3 -0.000301 -0.002741 0.015200 0.000000 0.002771 0.000000
# 4 0.000000 0.000000 0.000000 0.052589 0.000000 -0.079083
# 5 0.001539 -0.002569 0.002771 0.000000 0.025832 0.000000
# 6 0.000000 0.000000 0.000000 -0.079083 0.000000 0.230236
#
#
# Mechanical properties :
#
#
# Convention : Reuss Voigt Hill
#
# Bulk Modulus (GPa) = 40.96403 46.28128 43.62266
# Shear Modulus (GPa) = 13.86037 35.78949 24.82493
#
# Velocity S-wave (km/s) = 2.25783 3.62811 3.02167
# Velocity P-wave (km/s) = 4.67584 5.87988 5.31208
#
# Compressibility (1/GPa) = 0.02441166
#
# Stress axis : x y z
#
# Youngs Moduli (GPa) = 151.06693 80.91175 65.78770
#
# Poissons Ratio (x) = 0.14903 0.01978
# Poissons Ratio (y) = 0.27825 0.18034
# Poissons Ratio (z) = 0.04541 0.22180
#
# Static dielectric constant tensor:
#      x y z
#    x 2.197880 0.000000 0.091280 
#    y 0.000000 2.169330 0.000000 
#    z 0.091280 0.000000 2.027500 
# 
# From -- ./inp_files/105569.got.cif
#   From: 2010.05.17/outbox.cif.g08.bks.cpg/sg15_53_cif.got.tgz:105569.got - 2010.06.03 18:47:42.
