data_PCOD9258053
_publ_section_title
;
Structure prediction by ZEFSAII (Michael W. Deem and Ramdas Pophale) SiO2 
 PCOD9258053
Probable space group: C 2/C
;
_chemical_formula_sum "Si O2"
_cell_formula_units_Z 52
_cell_length_a 6.505826
_cell_length_b 23.039296
_cell_length_c 20.044308
_cell_angle_alpha 90.000000
_cell_angle_beta 51.536706
_cell_angle_gamma 90.000000
_cell_volume 2352.492523
_symmetry_space_group_name_H-M "C 2/C"
_symmetry_group_IT_number 15
_symmetry_cell_setting 'monoclinic'
loop_
_space_group_symop_operation_xyz
x,y,z
-x,y,1/2-z
-x,-y,-z
x,-y,1/2+z
1/2+x,1/2+y,z
1/2-x,1/2+y,1/2-z
1/2-x,1/2-y,-z
1/2+x,1/2-y,1/2+z
loop_
_atom_site_type_symbol
_atom_site_label
_atom_site_fract_x
_atom_site_fract_y
_atom_site_fract_z
Si Si1 0.889950 0.202758 0.052381
Si Si2 0.000388 0.983700 0.899584
Si Si3 0.000000 0.044474 0.250000
Si Si4 0.637033 0.683015 0.592663
Si Si5 0.225658 0.596249 0.655503
Si Si6 0.854378 0.618778 0.979673
Si Si7 0.465650 0.104591 0.332843
O O1 0.773196 0.262944 0.103085
O O2 0.658048 0.156354 0.101967
O O3 0.950109 0.208611 0.961767
O O4 0.136399 0.169794 0.036416
O O5 0.258011 0.947837 0.870284
O O6 0.000038 0.989144 0.819409
O O7 0.055963 0.048770 0.911266
O O8 0.760910 0.942967 0.971439
O O9 0.258936 0.083325 0.196297
O O10 0.378542 0.647082 0.664443
O O11 0.874296 0.636945 0.542152
O O12 0.110397 0.615749 0.607571
O O13 0.000000 0.572361 0.750000
O O14 0.500000 0.125145 0.250000
#
# Coordination Sequence:
#
# PCOD9258053 Si02
#       7
#     8   8   4   8   8   8   8
#     4   9  19  38  57  83 114 144 190 245 289 336
#     4  10  21  37  60  84 117 150 192 248 294 342
#     4  10  18  32  58  88 112 152 190 240 294 346
#     4  10  21  37  60  82 111 153 193 236 286 352
#     4  11  24  40  54  84 124 156 191 236 292 352
#     4  10  21  39  64  85 109 154 201 241 290 342
#     4   9  18  33  52  83 113 145 188 237 291 338
#
# _framework density 22.104213999999999
#
# number of rings (size 3 to 8) (size 9 to 14) (size 15 to 20)
#    0.000    2.154    0.000    3.231    0.000    3.692 
#    4.154    0.000    0.000    0.000    0.000    0.000 
#    0.000    0.000    0.000    0.000    0.000    0.000 
#
# Total GULP energy -145001.862331 kJ/mol
# GULP energy per Si atom -5576.994705 kJ/mol
# Density = 2.205390 g / cm^3
# Si number density = 22.104214 Si / 1000 Ang^3
#
#
#
# Elastic Constant Matrix: (Units=GPa)
#
#
# Indices 1 2 3 4 5 6 
#
# 1 73.1912 19.1666 15.9613 0.0000 -15.5719 0.0000
# 2 19.1666 49.7778 -1.2059 0.0000 31.5187 0.0000
# 3 15.9613 -1.2059 32.5150 0.0000 13.7200 0.0000
# 4 0.0000 0.0000 0.0000 16.3429 0.0000 -1.7623
# 5 -15.5719 31.5187 13.7200 0.0000 -11.1022 0.0000
# 6 0.0000 0.0000 0.0000 -1.7623 0.0000 41.1542
#
#
#
# Elastic Compliance Matrix: (Units=1/GPa)
#
#
# Indices 1 2 3 4 5 6 
#
# 1 0.011084 0.002262 -0.000990 0.000000 -0.010350 0.000000
# 2 0.002262 0.009514 -0.007109 0.000000 0.015054 0.000000
# 3 -0.000990 -0.007109 0.025573 0.000000 0.012808 0.000000
# 4 0.000000 0.000000 0.000000 0.061472 0.000000 0.002632
# 5 -0.010350 0.015054 0.012808 0.000000 -0.016990 0.000000
# 6 0.000000 0.000000 0.000000 0.002632 0.000000 0.024412
#
#
# Mechanical properties :
#
#
# Convention : Reuss Voigt Hill
#
# Bulk Modulus (GPa) = 28.98875 24.81422 26.90149
# Shear Modulus (GPa) = 36.16904 17.38312 26.77608
#
# Velocity S-wave (km/s) = 4.04950 2.80735 3.48423
# Velocity P-wave (km/s) = 5.91673 4.66462 5.32759
#
# Compressibility (1/GPa) = 0.03449614
#
# Stress axis : x y z
#
# Youngs Moduli (GPa) = 90.21637 105.10284 39.10407
#
# Poissons Ratio (x) = -0.23770 0.03871
# Poissons Ratio (y) = -0.20403 0.27800
# Poissons Ratio (z) = 0.08932 0.74721
#
# Static dielectric constant tensor:
#      x y z
#    x 1.885910 0.000000 0.027330 
#    y 0.000000 1.881640 0.000000 
#    z 0.027330 0.000000 1.855870 
# 
# From -- ./inp_files/228578.got.cif
#   From: 2010.05.17/outbox.cif.g08.bks.cpg/sg15_115_cif.got.tgz:228578.got - 2010.06.03 18:47:42.
