data_PCOD9258086
_publ_section_title
;
Structure prediction by ZEFSAII (Michael W. Deem and Ramdas Pophale) SiO2 
 PCOD9258086
Probable space group: C 2/C
;
_chemical_formula_sum "Si O2"
_cell_formula_units_Z 60
_cell_length_a 21.590665
_cell_length_b 14.828556
_cell_length_c 14.980116
_cell_angle_alpha 90.000000
_cell_angle_beta 40.197892
_cell_angle_gamma 90.000000
_cell_volume 3095.486585
_symmetry_space_group_name_H-M "C 2/C"
_symmetry_group_IT_number 15
_symmetry_cell_setting 'monoclinic'
loop_
_space_group_symop_operation_xyz
x,y,z
-x,y,1/2-z
-x,-y,-z
x,-y,1/2+z
1/2+x,1/2+y,z
1/2-x,1/2+y,1/2-z
1/2-x,1/2-y,-z
1/2+x,1/2-y,1/2+z
loop_
_atom_site_type_symbol
_atom_site_label
_atom_site_fract_x
_atom_site_fract_y
_atom_site_fract_z
Si Si1 0.078270 0.248643 0.539463
Si Si2 0.801897 0.657408 0.914748
Si Si3 0.500000 0.764857 0.250000
Si Si4 0.235138 0.464454 0.492445
Si Si5 0.384269 0.814834 0.802068
Si Si6 0.228147 0.182591 0.694176
Si Si7 0.419552 0.447591 0.414664
Si Si8 0.628178 0.360725 0.478095
O O1 0.102243 0.263269 0.618654
O O2 0.166601 0.288808 0.387830
O O3 0.067285 0.141847 0.541209
O O4 0.980256 0.303458 0.639097
O O5 0.782611 0.570583 0.999152
O O6 0.736366 0.632267 0.901053
O O7 0.915915 0.678371 0.792015
O O8 0.750000 0.750000 0.000000
O O9 0.440234 0.702678 0.385981
O O10 0.144162 0.415086 0.638125
O O11 0.260021 0.409138 0.375626
O O12 0.321018 0.446664 0.467161
O O13 0.302979 0.762401 0.838049
O O14 0.148659 0.174383 0.857151
O O15 0.500000 0.449478 0.250000
O O16 0.418078 0.540322 0.470299
#
# Coordination Sequence:
#
# PCOD9258086 Si02
#       8
#     8   8   4   8   8   8   8   8
#     4  10  18  32  59  82 122 151 183 226 291 358
#     4   9  21  40  60  80 105 158 198 230 273 335
#     4  10  20  44  62  72 108 166 202 224 274 346
#     4  10  19  36  61  83 120 150 194 234 284 357
#     4  10  18  33  57  89 116 153 180 228 299 347
#     4  11  20  36  54  93 120 140 184 248 294 336
#     4  11  17  35  59  81 109 163 190 226 289 350
#     4  10  23  37  60  82 117 149 196 244 282 333
#
# _framework density 19.38306
#
# number of rings (size 3 to 8) (size 9 to 14) (size 15 to 20)
#    0.000    1.867    4.667    0.800    0.000    3.200 
#    4.800    2.667    0.000    3.200    0.000    0.000 
#    0.000    0.000    0.000    0.000    0.000    0.000 
#
# Total GULP energy -167103.292777 kJ/mol
# GULP energy per Si atom -5570.109759 kJ/mol
# Density = 1.933894 g / cm^3
# Si number density = 19.383060 Si / 1000 Ang^3
#
#
#
# Elastic Constant Matrix: (Units=GPa)
#
#
# Indices 1 2 3 4 5 6 
#
# 1 27.7462 7.4925 17.8753 0.0000 -15.7267 0.0000
# 2 7.4925 112.3843 43.1351 0.0000 3.9855 0.0000
# 3 17.8753 43.1351 118.2637 0.0000 -9.1643 0.0000
# 4 0.0000 0.0000 0.0000 -14.6244 0.0000 -9.3345
# 5 -15.7267 3.9855 -9.1643 0.0000 32.4675 0.0000
# 6 0.0000 0.0000 0.0000 -9.3345 0.0000 16.4342
#
#
#
# Elastic Compliance Matrix: (Units=1/GPa)
#
#
# Indices 1 2 3 4 5 6 
#
# 1 0.054423 -0.002454 -0.005382 0.000000 0.025143 0.000000
# 2 -0.002454 0.010641 -0.003787 0.000000 -0.003564 0.000000
# 3 -0.005382 -0.003787 0.010719 0.000000 0.000883 0.000000
# 4 0.000000 0.000000 0.000000 -0.050185 0.000000 -0.028505
# 5 0.025143 -0.003564 0.000883 0.000000 0.043666 0.000000
# 6 0.000000 0.000000 0.000000 -0.028505 0.000000 0.044658
#
#
# Mechanical properties :
#
#
# Convention : Reuss Voigt Hill
#
# Bulk Modulus (GPa) = 19.03432 43.93333 31.48382
# Shear Modulus (GPa) = 32.32479 19.51488 25.91983
#
# Velocity S-wave (km/s) = 4.08816 3.17645 3.66080
# Velocity P-wave (km/s) = 5.66793 6.01400 5.84353
#
# Compressibility (1/GPa) = 0.05253669
#
# Stress axis : x y z
#
# Youngs Moduli (GPa) = 18.37473 93.97290 93.29455
#
# Poissons Ratio (x) = 0.23061 0.50215
# Poissons Ratio (y) = 0.04509 0.35326
# Poissons Ratio (z) = 0.09890 0.35583
#
# Static dielectric constant tensor:
#      x y z
#    x 1.733200 0.000000 -0.051900 
#    y 0.000000 1.689350 0.000000 
#    z -0.051900 0.000000 1.738240 
# 
# From -- ./inp_files/222714.got.cif
#   From: 2010.05.17/outbox.cif.g08.bks.cpg/sg15_112_cif.got.tgz:222714.got - 2010.06.03 18:47:42.
