data_PCOD9258340
_publ_section_title
;
Structure prediction by ZEFSAII (Michael W. Deem and Ramdas Pophale) SiO2 
 PCOD9258340
Probable space group: C 2/C
;
_chemical_formula_sum "Si O2"
_cell_formula_units_Z 56
_cell_length_a 25.846724
_cell_length_b 9.880143
_cell_length_c 11.147122
_cell_angle_alpha 90.000000
_cell_angle_beta 64.619402
_cell_angle_gamma 90.000000
_cell_volume 2571.877441
_symmetry_space_group_name_H-M "C 2/C"
_symmetry_group_IT_number 15
_symmetry_cell_setting 'monoclinic'
loop_
_space_group_symop_operation_xyz
x,y,z
-x,y,1/2-z
-x,-y,-z
x,-y,1/2+z
1/2+x,1/2+y,z
1/2-x,1/2+y,1/2-z
1/2-x,1/2-y,-z
1/2+x,1/2-y,1/2+z
loop_
_atom_site_type_symbol
_atom_site_label
_atom_site_fract_x
_atom_site_fract_y
_atom_site_fract_z
Si Si1 0.810820 0.996950 0.490451
Si Si2 0.329614 0.598239 0.232317
Si Si3 0.807083 0.587236 0.479133
Si Si4 0.297979 0.198508 0.079280
Si Si5 0.505523 0.106310 0.105173
Si Si6 0.384011 0.833981 0.702766
Si Si7 0.876240 0.359041 0.123949
O O1 0.842385 0.998533 0.330539
O O2 0.791071 0.154581 0.527394
O O3 0.838732 0.953483 0.587736
O O4 0.754421 0.908615 0.520576
O O5 0.261910 0.638460 0.310111
O O6 0.368079 0.730186 0.214137
O O7 0.821156 0.425789 0.474701
O O8 0.849802 0.676302 0.359217
O O9 0.817465 0.632650 0.604959
O O10 0.345326 0.221626 0.134818
O O11 0.500000 0.056189 0.250000
O O12 0.450549 0.203885 0.142946
O O13 0.569111 0.160866 0.017214
O O14 0.500000 0.000000 0.000000
O O15 0.383281 0.997420 0.680310
#
# Coordination Sequence:
#
# PCOD9258340 Si02
#       7
#     8   8   8   8   8   8   8
#     4  11  23  38  55  85 120 158 200 232 291 355
#     4  11  23  38  58  82 122 158 196 244 288 354
#     4  10  18  33  54  82 118 156 191 234 294 351
#     4  10  21  34  56  83 120 160 192 236 294 355
#     4  10  20  36  57  90 122 152 191 245 302 358
#     4  10  18  34  57  86 118 152 193 238 295 355
#     4  10  21  34  57  84 120 154 193 239 302 346
#
# _framework density 21.773976999999999
#
# number of rings (size 3 to 8) (size 9 to 14) (size 15 to 20)
#    0.000    1.714    2.857    3.429    4.000    1.714 
#    0.000    0.000    0.000    0.857    0.000    0.000 
#    0.000    0.000    0.000    0.000    0.000    0.000 
#
# Total GULP energy -156094.035276 kJ/mol
# GULP energy per Si atom -5574.786974 kJ/mol
# Density = 2.172442 g / cm^3
# Si number density = 21.773977 Si / 1000 Ang^3
#
#
#
# Elastic Constant Matrix: (Units=GPa)
#
#
# Indices 1 2 3 4 5 6 
#
# 1 67.3369 6.4207 31.6006 0.0000 13.3599 0.0000
# 2 6.4207 62.1168 9.6135 0.0000 -1.4251 0.0000
# 3 31.6006 9.6135 95.5869 0.0000 15.6259 0.0000
# 4 0.0000 0.0000 0.0000 27.2516 0.0000 7.9250
# 5 13.3599 -1.4251 15.6259 0.0000 33.0292 0.0000
# 6 0.0000 0.0000 0.0000 7.9250 0.0000 15.6368
#
#
#
# Elastic Compliance Matrix: (Units=1/GPa)
#
#
# Indices 1 2 3 4 5 6 
#
# 1 0.018376 -0.001222 -0.005125 0.000000 -0.005061 0.000000
# 2 -0.001222 0.016514 -0.001576 0.000000 0.001953 0.000000
# 3 -0.005125 -0.001576 0.012991 0.000000 -0.004141 0.000000
# 4 0.000000 0.000000 0.000000 0.043038 0.000000 -0.021813
# 5 -0.005061 0.001953 -0.004141 0.000000 0.034367 0.000000
# 6 0.000000 0.000000 0.000000 -0.021813 0.000000 0.075007
#
#
# Mechanical properties :
#
#
# Convention : Reuss Voigt Hill
#
# Bulk Modulus (GPa) = 31.21563 35.59002 33.40282
# Shear Modulus (GPa) = 22.04408 27.01058 24.52733
#
# Velocity S-wave (km/s) = 3.18528 3.52589 3.35991
# Velocity P-wave (km/s) = 5.28161 5.74078 5.51597
#
# Compressibility (1/GPa) = 0.03203524
#
# Stress axis : x y z
#
# Youngs Moduli (GPa) = 54.41739 60.55556 76.97390
#
# Poissons Ratio (x) = 0.07403 0.39448
# Poissons Ratio (y) = 0.06652 0.12130
# Poissons Ratio (z) = 0.27888 0.09543
#
# Static dielectric constant tensor:
#      x y z
#    x 1.823240 0.000000 0.016960 
#    y 0.000000 1.845420 0.000000 
#    z 0.016960 0.000000 1.897010 
# 
# From -- ./inp_files/121909.got.cif
#   From: 2010.05.17/outbox.cif.g08.bks.cpg/sg15_61_cif.got.tgz:121909.got - 2010.06.03 18:47:42.
