data_PCOD9258675
_publ_section_title
;
Structure prediction by ZEFSAII (Michael W. Deem and Ramdas Pophale) SiO2 
 PCOD9258675
Probable space group: C 2/C
;
_chemical_formula_sum "Si O2"
_cell_formula_units_Z 56
_cell_length_a 18.597377
_cell_length_b 27.378189
_cell_length_c 9.567520
_cell_angle_alpha 90.000000
_cell_angle_beta 138.737656
_cell_angle_gamma 90.000000
_cell_volume 3212.740983
_symmetry_space_group_name_H-M "C 2/C"
_symmetry_group_IT_number 15
_symmetry_cell_setting 'monoclinic'
loop_
_space_group_symop_operation_xyz
x,y,z
-x,y,1/2-z
-x,-y,-z
x,-y,1/2+z
1/2+x,1/2+y,z
1/2-x,1/2+y,1/2-z
1/2-x,1/2-y,-z
1/2+x,1/2-y,1/2+z
loop_
_atom_site_type_symbol
_atom_site_label
_atom_site_fract_x
_atom_site_fract_y
_atom_site_fract_z
Si Si1 0.802336 0.634089 0.073624
Si Si2 0.904796 0.462765 0.726526
Si Si3 0.148702 0.340909 0.161133
Si Si4 0.124970 0.790161 0.402256
Si Si5 0.568324 0.791008 0.587298
Si Si6 0.273655 0.745461 0.871205
Si Si7 0.939731 0.429975 0.300101
O O1 0.805930 0.575613 0.073785
O O2 0.877283 0.656239 0.305948
O O3 0.864011 0.647857 0.020326
O O4 0.691507 0.664535 0.933010
O O5 0.875004 0.519748 0.673298
O O6 0.000000 0.454474 0.750000
O O7 0.965670 0.449167 0.958717
O O8 0.262684 0.312589 0.333198
O O9 0.131231 0.388812 0.227778
O O10 0.058124 0.301864 0.078407
O O11 0.114495 0.745328 0.276174
O O12 0.190411 0.771658 0.636860
O O13 0.000000 0.803586 0.250000
O O14 0.611545 0.767983 0.508137
O O15 0.250000 0.750000 0.000000
O O16 0.000000 0.411124 0.250000
#
# Coordination Sequence:
#
# PCOD9258675 Si02
#       7
#     8   8   8   8   8   8   8
#     4  11  18  32  58  75  98 144 187 216 259 318
#     4  10  18  34  50  75 108 134 175 221 263 320
#     4  12  20  34  55  75 109 147 179 211 272 324
#     4  11  20  37  55  77 105 141 188 227 254 318
#     4  11  19  34  52  76 102 145 185 218 247 323
#     4  11  24  33  48  78 112 141 180 219 269 321
#     4  10  22  30  47  77 110 137 169 213 273 322
#
# _framework density 17.430599000000001
#
# number of rings (size 3 to 8) (size 9 to 14) (size 15 to 20)
#    0.000    1.143    7.143    1.286    2.000    0.000 
#    0.000    0.000    0.000    0.000    0.000    1.000 
#    4.286    0.000    0.000    0.000    0.000    0.000 
#
# Total GULP energy -155955.826115 kJ/mol
# GULP energy per Si atom -5569.850933 kJ/mol
# Density = 1.739093 g / cm^3
# Si number density = 17.430599 Si / 1000 Ang^3
#
#
#
# Elastic Constant Matrix: (Units=GPa)
#
#
# Indices 1 2 3 4 5 6 
#
# 1 119.3819 56.3604 28.9782 0.0000 -12.7270 0.0000
# 2 56.3604 132.6676 12.7091 0.0000 4.6309 0.0000
# 3 28.9782 12.7091 42.5103 0.0000 -10.5343 0.0000
# 4 0.0000 0.0000 0.0000 15.8879 0.0000 -2.2596
# 5 -12.7270 4.6309 -10.5343 0.0000 32.4118 0.0000
# 6 0.0000 0.0000 0.0000 -2.2596 0.0000 35.3740
#
#
#
# Elastic Compliance Matrix: (Units=1/GPa)
#
#
# Indices 1 2 3 4 5 6 
#
# 1 0.012570 -0.004870 -0.006218 0.000000 0.003611 0.000000
# 2 -0.004870 0.009771 -0.000458 0.000000 -0.003457 0.000000
# 3 -0.006218 -0.000458 0.029703 0.000000 0.007278 0.000000
# 4 0.000000 0.000000 0.000000 0.063518 0.000000 0.004057
# 5 0.003611 -0.003457 0.007278 0.000000 0.035130 0.000000
# 6 0.000000 0.000000 0.000000 0.004057 0.000000 0.028529
#
#
# Mechanical properties :
#
#
# Convention : Reuss Voigt Hill
#
# Bulk Modulus (GPa) = 34.54054 54.51724 44.52889
# Shear Modulus (GPa) = 23.58894 29.83555 26.71225
#
# Velocity S-wave (km/s) = 3.68272 4.14173 3.91895
# Velocity P-wave (km/s) = 6.15973 7.36319 6.78818
#
# Compressibility (1/GPa) = 0.02895148
#
# Stress axis : x y z
#
# Youngs Moduli (GPa) = 79.55414 102.34075 33.66707
#
# Poissons Ratio (x) = 0.49845 0.20934
# Poissons Ratio (y) = 0.38747 0.01542
# Poissons Ratio (z) = 0.49465 0.04687
#
# Static dielectric constant tensor:
#      x y z
#    x 1.628780 0.000000 -0.026250 
#    y 0.000000 1.657620 0.000000 
#    z -0.026250 0.000000 1.662540 
# 
# From -- ./inp_files/43109.got.cif
#   From: 2010.05.17/outbox.cif.g08.bks.cpg/sg15_22_cif.got.tgz:43109.got - 2010.06.03 18:47:42.
