data_PCOD9258682
_publ_section_title
;
Structure prediction by ZEFSAII (Michael W. Deem and Ramdas Pophale) SiO2 
 PCOD9258682
Probable space group: C 2/C
;
_chemical_formula_sum "Si O2"
_cell_formula_units_Z 44
_cell_length_a 12.583285
_cell_length_b 22.580746
_cell_length_c 14.221720
_cell_angle_alpha 90.000000
_cell_angle_beta 37.289810
_cell_angle_gamma 90.000000
_cell_volume 2448.202542
_symmetry_space_group_name_H-M "C 2/C"
_symmetry_group_IT_number 15
_symmetry_cell_setting 'monoclinic'
loop_
_space_group_symop_operation_xyz
x,y,z
-x,y,1/2-z
-x,-y,-z
x,-y,1/2+z
1/2+x,1/2+y,z
1/2-x,1/2+y,1/2-z
1/2-x,1/2-y,-z
1/2+x,1/2-y,1/2+z
loop_
_atom_site_type_symbol
_atom_site_label
_atom_site_fract_x
_atom_site_fract_y
_atom_site_fract_z
Si Si1 0.500000 0.020785 0.250000
Si Si2 0.319137 0.666846 0.589463
Si Si3 0.186189 0.381451 0.985836
Si Si4 0.680869 0.062481 0.775864
Si Si5 0.618422 0.719241 0.259197
Si Si6 0.793328 0.983003 0.397305
O O1 0.380619 0.982671 0.261701
O O2 0.344700 0.045526 0.429249
O O3 0.214422 0.646923 0.568638
O O4 0.336131 0.606412 0.635555
O O5 0.497267 0.695367 0.426847
O O6 0.218425 0.720446 0.710336
O O7 0.261854 0.334980 0.858915
O O8 0.280254 0.445614 0.920629
O O9 0.986830 0.394598 0.101066
O O10 0.718859 0.031008 0.846467
O O11 0.500000 0.731658 0.250000
O O12 0.000000 0.966083 0.250000
#
# Coordination Sequence:
#
# PCOD9258682 Si02
#       6
#     4   8   8   8   8   8
#     4  10  20  38  56  80 112 150 182 230 286 324
#     4  11  18  32  50  80 114 148 174 226 282 340
#     4  10  18  34  50  79 112 146 181 223 281 342
#     4  11  20  35  56  77 114 153 183 228 277 326
#     4  10  19  27  50  79 113 146 175 215 291 354
#     4  11  23  38  55  82 116 151 194 229 270 330
#
# _framework density 17.972370000000002
#
# number of rings (size 3 to 8) (size 9 to 14) (size 15 to 20)
#    0.000    1.455    3.636    8.182    0.000    0.727 
#    3.273    0.000    0.000    0.000    0.000    5.091 
#    0.000    0.000    0.000    0.000    0.000    0.000 
#
# Total GULP energy -122558.410314 kJ/mol
# GULP energy per Si atom -5570.836832 kJ/mol
# Density = 1.793146 g / cm^3
# Si number density = 17.972370 Si / 1000 Ang^3
#
#
#
# Elastic Constant Matrix: (Units=GPa)
#
#
# Indices 1 2 3 4 5 6 
#
# 1 55.8640 9.2188 35.2954 -0.0055 13.4334 0.0019
# 2 9.2188 32.8459 24.7322 -0.0030 3.0795 0.0008
# 3 35.2954 24.7322 104.6320 -0.0038 5.8823 0.0014
# 4 -0.0055 -0.0030 -0.0038 15.3612 0.0050 0.3761
# 5 13.4334 3.0795 5.8823 0.0050 15.2109 -0.0020
# 6 0.0019 0.0008 0.0014 0.3761 -0.0020 2.8235
#
#
#
# Elastic Compliance Matrix: (Units=1/GPa)
#
#
# Indices 1 2 3 4 5 6 
#
# 1 0.028456 0.000450 -0.008472 0.000016 -0.021946 -0.000033
# 2 0.000450 0.037309 -0.008713 0.000007 -0.004581 -0.000011
# 3 -0.008472 -0.008713 0.014265 -0.000002 0.003729 0.000004
# 4 0.000016 0.000007 -0.000002 0.065312 -0.000038 -0.008700
# 5 -0.021946 -0.004581 0.003729 -0.000038 0.084608 0.000079
# 6 -0.000033 -0.000011 0.000004 -0.008700 0.000079 0.355336
#
#
# Mechanical properties :
#
#
# Convention : Reuss Voigt Hill
#
# Bulk Modulus (GPa) = 21.47752 36.87051 29.17401
# Shear Modulus (GPa) = 7.88300 14.95216 11.41758
#
# Velocity S-wave (km/s) = 2.09659 2.88749 2.52322
# Velocity P-wave (km/s) = 4.22341 5.62818 4.97562
#
# Compressibility (1/GPa) = 0.04656031
#
# Stress axis : x y z
#
# Youngs Moduli (GPa) = 35.14199 26.80304 70.10214
#
# Poissons Ratio (x) = -0.01205 0.59388
# Poissons Ratio (y) = -0.01580 0.61080
# Poissons Ratio (z) = 0.29771 0.23354
#
# Static dielectric constant tensor:
#      x y z
#    x 1.574380 0.000000 -0.031910 
#    y 0.000000 1.616670 0.000000 
#    z -0.031910 0.000000 1.728470 
# 
# From -- ./inp_files/30949.got.cif
#   From: 2010.05.17/outbox.cif.g08.bks.cpg/sg15_16_cif.got.tgz:30949.got - 2010.06.03 18:47:42.
