data_PCOD9258742
_publ_section_title
;
Structure prediction by ZEFSAII (Michael W. Deem and Ramdas Pophale) SiO2 
 PCOD9258742
Probable space group: C 2/C
;
_chemical_formula_sum "Si O2"
_cell_formula_units_Z 52
_cell_length_a 25.976485
_cell_length_b 14.838615
_cell_length_c 5.927300
_cell_angle_alpha 90.000000
_cell_angle_beta 96.956258
_cell_angle_gamma 90.000000
_cell_volume 2267.889820
_symmetry_space_group_name_H-M "C 2/C"
_symmetry_group_IT_number 15
_symmetry_cell_setting 'monoclinic'
loop_
_space_group_symop_operation_xyz
x,y,z
-x,y,1/2-z
-x,-y,-z
x,-y,1/2+z
1/2+x,1/2+y,z
1/2-x,1/2+y,1/2-z
1/2-x,1/2-y,-z
1/2+x,1/2-y,1/2+z
loop_
_atom_site_type_symbol
_atom_site_label
_atom_site_fract_x
_atom_site_fract_y
_atom_site_fract_z
Si Si1 0.900579 0.713419 0.448391
Si Si2 0.315720 0.708585 0.618590
Si Si3 0.312007 0.508606 0.671761
Si Si4 0.849125 0.468993 0.009191
Si Si5 0.049035 0.583069 0.393946
Si Si6 0.500000 0.206396 0.750000
Si Si7 0.236519 0.822508 0.805284
O O1 0.866021 0.785618 0.298617
O O2 0.862053 0.638040 0.539365
O O3 0.927041 0.653915 0.267863
O O4 0.948848 0.752683 0.615416
O O5 0.291053 0.610932 0.661842
O O6 0.282357 0.797228 0.656654
O O7 0.317213 0.704779 0.348678
O O8 0.338254 0.502902 0.434535
O O9 0.270634 0.426371 0.637294
O O10 0.827359 0.495472 0.742873
O O11 0.905527 0.516342 0.018794
O O12 0.000000 0.536635 0.250000
O O13 0.026896 0.642950 0.581123
O O14 0.250000 0.750000 0.000000
#
# Coordination Sequence:
#
# PCOD9258742 Si02
#       7
#     8   8   8   8   8   4   8
#     4  10  21  34  52  84 121 164 209 260 312 379
#     4  10  22  39  62  94 130 166 211 264 319 384
#     4  10  20  39  66  96 124 164 213 256 320 387
#     4  10  19  33  48  73 110 156 211 258 304 366
#     4   9  19  31  51  74 112 163 221 258 311 375
#     4  10  18  34  54  78 116 168 210 258 316 374
#     4  10  20  40  66  90 123 162 211 265 318 381
#
# _framework density 22.928802999999998
#
# number of rings (size 3 to 8) (size 9 to 14) (size 15 to 20)
#    0.000    2.154    3.077    0.000    1.077    3.077 
#    0.000    9.231    0.000    0.000    0.000    4.308 
#    0.000    0.000    0.000    0.000    0.000    0.000 
#
# Total GULP energy -144736.373486 kJ/mol
# GULP energy per Si atom -5566.783596 kJ/mol
# Density = 2.287662 g / cm^3
# Si number density = 22.928803 Si / 1000 Ang^3
#
#
#
# Elastic Constant Matrix: (Units=GPa)
#
#
# Indices 1 2 3 4 5 6 
#
# 1 35.7779 31.4402 43.6664 0.0000 15.7411 0.0000
# 2 31.4402 120.1313 39.0950 0.0000 23.8898 0.0000
# 3 43.6664 39.0950 170.9448 0.0000 17.2787 0.0000
# 4 0.0000 0.0000 0.0000 29.4379 0.0000 8.3954
# 5 15.7411 23.8898 17.2787 0.0000 37.3169 0.0000
# 6 0.0000 0.0000 0.0000 8.3954 0.0000 18.1264
#
#
#
# Elastic Compliance Matrix: (Units=1/GPa)
#
#
# Indices 1 2 3 4 5 6 
#
# 1 0.053375 -0.008061 -0.010529 0.000000 -0.012479 0.000000
# 2 -0.008061 0.011216 -0.000130 0.000000 -0.003720 0.000000
# 3 -0.010529 -0.000130 0.008510 0.000000 0.000584 0.000000
# 4 0.000000 0.000000 0.000000 0.039140 0.000000 -0.018128
# 5 -0.012479 -0.003720 0.000584 0.000000 0.034172 0.000000
# 6 0.000000 0.000000 0.000000 -0.018128 0.000000 0.063564
#
#
# Mechanical properties :
#
#
# Convention : Reuss Voigt Hill
#
# Bulk Modulus (GPa) = 28.04205 61.69524 44.86865
# Shear Modulus (GPa) = 19.28236 31.15308 25.21772
#
# Velocity S-wave (km/s) = 2.90309 3.69004 3.31996
# Velocity P-wave (km/s) = 4.84704 6.71721 5.85725
#
# Compressibility (1/GPa) = 0.03566073
#
# Stress axis : x y z
#
# Youngs Moduli (GPa) = 18.73539 89.15904 117.50681
#
# Poissons Ratio (x) = 0.71869 1.23727
# Poissons Ratio (y) = 0.15102 0.01528
# Poissons Ratio (z) = 0.19727 0.01159
#
# Static dielectric constant tensor:
#      x y z
#    x 1.921760 0.000000 0.006850 
#    y 0.000000 1.832790 0.000000 
#    z 0.006850 0.000000 2.130790 
# 
# From -- ./inp_files/18248.got.cif
#   From: 2010.05.17/outbox.cif.g08.bks.cpg/sg15_10_cif.got.tgz:18248.got - 2010.06.03 18:47:42.
