data_PCOD9258593
_publ_section_title
;
Structure prediction by ZEFSAII (Michael W. Deem and Ramdas Pophale) SiO2 
 PCOD9258593
Probable space group: C 2/C
;
_chemical_formula_sum "Si O2"
_cell_formula_units_Z 48
_cell_length_a 11.114887
_cell_length_b 9.194541
_cell_length_c 22.859929
_cell_angle_alpha 90.000000
_cell_angle_beta 115.248037
_cell_angle_gamma 90.000000
_cell_volume 2113.022073
_symmetry_space_group_name_H-M "C 2/C"
_symmetry_group_IT_number 15
_symmetry_cell_setting 'monoclinic'
loop_
_space_group_symop_operation_xyz
x,y,z
-x,y,1/2-z
-x,-y,-z
x,-y,1/2+z
1/2+x,1/2+y,z
1/2-x,1/2+y,1/2-z
1/2-x,1/2-y,-z
1/2+x,1/2-y,1/2+z
loop_
_atom_site_type_symbol
_atom_site_label
_atom_site_fract_x
_atom_site_fract_y
_atom_site_fract_z
Si Si1 0.180083 0.617919 0.623577
Si Si2 0.364891 0.128095 0.019768
Si Si3 0.526834 0.393518 0.320094
Si Si4 0.794813 0.908978 0.443101
Si Si5 0.503042 0.379125 0.585033
Si Si6 0.361176 0.200789 0.363959
O O1 0.134417 0.583408 0.547615
O O2 0.328763 0.682452 0.651880
O O3 0.076333 0.736728 0.623529
O O4 0.182521 0.463515 0.656519
O O5 0.501754 0.195323 0.070047
O O6 0.326548 0.994951 0.053501
O O7 0.250000 0.250000 0.000000
O O8 0.500000 0.450610 0.250000
O O9 0.540749 0.517609 0.371598
O O10 0.407017 0.289704 0.316557
O O11 0.764708 0.789675 0.387381
O O12 0.882115 0.849500 0.515627
O O13 0.888150 0.029284 0.430087
#
# Coordination Sequence:
#
# PCOD9258593 Si02
#       6
#     8   8   8   8   8   8
#     4  12  23  38  62  92 123 153 196 249 300 357
#     4  12  18  35  61  92 126 156 185 239 309 362
#     4  11  25  45  62  80 117 166 208 246 293 352
#     4  10  18  33  60  89 125 155 184 232 301 365
#     4  10  19  36  60  89 117 154 194 240 293 351
#     4  11  24  38  60  95 123 154 197 247 307 357
#
# _framework density 22.716279
#
# number of rings (size 3 to 8) (size 9 to 14) (size 15 to 20)
#    0.000    1.000    6.667    1.500    0.000    3.333 
#    0.000    0.833    0.000    0.000    0.000    0.000 
#    0.000    0.000    0.000    0.000    0.000    0.000 
#
# Total GULP energy -134342.748972 kJ/mol
# GULP energy per Si atom -5597.614541 kJ/mol
# Density = 2.266458 g / cm^3
# Si number density = 22.716279 Si / 1000 Ang^3
#
#
#
# Elastic Constant Matrix: (Units=GPa)
#
#
# Indices 1 2 3 4 5 6 
#
# 1 48.3306 18.5953 10.2074 0.0000 -8.4086 0.0000
# 2 18.5953 107.4075 -7.1301 0.0000 -12.4388 0.0000
# 3 10.2074 -7.1301 55.2601 0.0000 -15.5714 0.0000
# 4 0.0000 0.0000 0.0000 8.3495 0.0000 -0.3051
# 5 -8.4086 -12.4388 -15.5714 0.0000 21.1241 0.0000
# 6 0.0000 0.0000 0.0000 -0.3051 0.0000 42.3806
#
#
#
# Elastic Compliance Matrix: (Units=1/GPa)
#
#
# Indices 1 2 3 4 5 6 
#
# 1 0.023708 -0.003817 -0.003592 0.000000 0.004542 0.000000
# 2 -0.003817 0.011251 0.004538 0.000000 0.008451 0.000000
# 3 -0.003592 0.004538 0.024859 0.000000 0.019567 0.000000
# 4 0.000000 0.000000 0.000000 0.119799 0.000000 0.000863
# 5 0.004542 0.008451 0.019567 0.000000 0.068547 0.000000
# 6 0.000000 0.000000 0.000000 0.000863 0.000000 0.023602
#
#
# Mechanical properties :
#
#
# Convention : Reuss Voigt Hill
#
# Bulk Modulus (GPa) = 18.49228 28.26037 23.37633
# Shear Modulus (GPa) = 16.91857 26.99256 21.95556
#
# Velocity S-wave (km/s) = 2.73202 3.45084 3.11225
# Velocity P-wave (km/s) = 4.25560 5.32403 4.81951
#
# Compressibility (1/GPa) = 0.05407661
#
# Stress axis : x y z
#
# Youngs Moduli (GPa) = 42.17939 88.87977 40.22700
#
# Poissons Ratio (x) = 0.33926 0.14449
# Poissons Ratio (y) = 0.16100 -0.18256
# Poissons Ratio (z) = 0.15151 -0.40335
#
# Static dielectric constant tensor:
#      x y z
#    x 1.880820 0.000000 -0.015980 
#    y 0.000000 1.898780 0.000000 
#    z -0.015980 0.000000 1.800540 
# 
# From -- ./inp_files/268102.got.cif
#   From: 2010.05.17/outbox.cif.g08.bks.cpg/sg15_135_cif.got.tgz:268102.got - 2010.06.03 18:47:42.
