data_PCOD9258091
_publ_section_title
;
Structure prediction by ZEFSAII (Michael W. Deem and Ramdas Pophale) SiO2 
 PCOD9258091
Probable space group: C 2/C
;
_chemical_formula_sum "Si O2"
_cell_formula_units_Z 56
_cell_length_a 11.240422
_cell_length_b 11.932419
_cell_length_c 17.692220
_cell_angle_alpha 90.000000
_cell_angle_beta 73.104564
_cell_angle_gamma 90.000000
_cell_volume 2270.551119
_symmetry_space_group_name_H-M "C 2/C"
_symmetry_group_IT_number 15
_symmetry_cell_setting 'monoclinic'
loop_
_space_group_symop_operation_xyz
x,y,z
-x,y,1/2-z
-x,-y,-z
x,-y,1/2+z
1/2+x,1/2+y,z
1/2-x,1/2+y,1/2-z
1/2-x,1/2-y,-z
1/2+x,1/2-y,1/2+z
loop_
_atom_site_type_symbol
_atom_site_label
_atom_site_fract_x
_atom_site_fract_y
_atom_site_fract_z
Si Si1 0.440184 0.017060 0.428776
Si Si2 0.689364 0.213712 0.592236
Si Si3 0.142127 0.951175 0.354975
Si Si4 0.844707 0.476844 0.205054
Si Si5 0.000000 0.157898 0.750000
Si Si6 0.173447 0.129199 0.463515
Si Si7 0.710444 0.329093 0.119843
Si Si8 0.500000 0.223885 0.750000
O O1 0.390171 0.895645 0.414376
O O2 0.544972 0.051243 0.348567
O O3 0.500000 0.000000 0.500000
O O4 0.318544 0.093416 0.447490
O O5 0.750000 0.250000 0.500000
O O6 0.803579 0.163991 0.620338
O O7 0.592222 0.279054 0.668031
O O8 0.255913 0.013206 0.289197
O O9 0.045425 0.921438 0.308901
O O10 0.106446 0.034552 0.428294
O O11 0.761480 0.441496 0.148501
O O12 0.905514 0.360792 0.224412
O O13 0.882070 0.223747 0.802047
O O14 0.177125 0.246037 0.419297
O O15 0.136442 0.148923 0.556160
#
# Coordination Sequence:
#
# PCOD9258091 Si02
#       8
#     8   8   8   8   4   8   8   4
#     4  10  18  32  59  87 109 142 189 237 292 342
#     4   9  18  33  56  88 121 152 193 247 299 353
#     4   9  20  38  59  82 120 155 198 237 298 352
#     4   9  17  35  58  82 113 148 181 243 291 341
#     4  10  22  40  62  80 114 168 190 238 292 360
#     4  10  21  37  58  88 115 148 190 248 287 347
#     4  10  21  37  59  83 119 150 193 237 293 342
#     4   8  16  32  56  78 116 154 182 230 300 342
#
# _framework density 24.663616999999999
#
# number of rings (size 3 to 8) (size 9 to 14) (size 15 to 20)
#    0.000    2.571    1.429    0.857    0.000    2.857 
#    2.571    3.571    0.000    0.000    0.000    0.000 
#    0.000    0.000    0.000    0.000    0.000    0.000 
#
# Total GULP energy -156174.285982 kJ/mol
# GULP energy per Si atom -5577.653071 kJ/mol
# Density = 2.460748 g / cm^3
# Si number density = 24.663617 Si / 1000 Ang^3
#
#
#
# Elastic Constant Matrix: (Units=GPa)
#
#
# Indices 1 2 3 4 5 6 
#
# 1 68.0320 8.9519 36.9443 0.0000 22.6906 0.0000
# 2 8.9519 29.5778 31.5309 0.0000 1.6440 0.0000
# 3 36.9443 31.5309 168.3266 0.0000 -22.6338 0.0000
# 4 0.0000 0.0000 0.0000 25.8246 0.0000 4.9450
# 5 22.6906 1.6440 -22.6338 0.0000 60.8922 0.0000
# 6 0.0000 0.0000 0.0000 4.9450 0.0000 7.0979
#
#
#
# Elastic Compliance Matrix: (Units=1/GPa)
#
#
# Indices 1 2 3 4 5 6 
#
# 1 0.021426 0.000726 -0.006226 0.000000 -0.010318 0.000000
# 2 0.000726 0.043365 -0.008922 0.000000 -0.004758 0.000000
# 3 -0.006226 -0.008922 0.009813 0.000000 0.006208 0.000000
# 4 0.000000 0.000000 0.000000 0.044684 0.000000 -0.031130
# 5 -0.010318 -0.004758 0.006208 0.000000 0.022703 0.000000
# 6 0.000000 0.000000 0.000000 -0.031130 0.000000 0.162575
#
#
# Mechanical properties :
#
#
# Convention : Reuss Voigt Hill
#
# Bulk Modulus (GPa) = 21.85319 46.75453 34.30386
# Shear Modulus (GPa) = 14.34046 31.33022 22.83534
#
# Velocity S-wave (km/s) = 2.41393 3.56800 3.04611
# Velocity P-wave (km/s) = 4.08033 5.99768 5.12939
#
# Compressibility (1/GPa) = 0.04575990
#
# Stress axis : x y z
#
# Youngs Moduli (GPa) = 46.67323 23.05986 101.90149
#
# Poissons Ratio (x) = -0.01674 0.63442
# Poissons Ratio (y) = -0.03388 0.90919
# Poissons Ratio (z) = 0.29058 0.20575
#
# Static dielectric constant tensor:
#      x y z
#    x 1.993430 0.000000 -0.046820 
#    y 0.000000 1.942690 0.000000 
#    z -0.046820 0.000000 2.058390 
# 
# From -- ./inp_files/197792.got.cif
#   From: 2010.05.17/outbox.cif.g08.bks.cpg/sg15_99_cif.got.tgz:197792.got - 2010.06.03 18:47:42.
