data_PCOD9258539
_publ_section_title
;
Structure prediction by ZEFSAII (Michael W. Deem and Ramdas Pophale) SiO2 
 PCOD9258539
Probable space group: C 2/C
;
_chemical_formula_sum "Si O2"
_cell_formula_units_Z 48
_cell_length_a 11.658294
_cell_length_b 15.146325
_cell_length_c 25.304951
_cell_angle_alpha 90.000000
_cell_angle_beta 28.651456
_cell_angle_gamma 90.000000
_cell_volume 2142.488096
_symmetry_space_group_name_H-M "C 2/C"
_symmetry_group_IT_number 15
_symmetry_cell_setting 'monoclinic'
loop_
_space_group_symop_operation_xyz
x,y,z
-x,y,1/2-z
-x,-y,-z
x,-y,1/2+z
1/2+x,1/2+y,z
1/2-x,1/2+y,1/2-z
1/2-x,1/2-y,-z
1/2+x,1/2-y,1/2+z
loop_
_atom_site_type_symbol
_atom_site_label
_atom_site_fract_x
_atom_site_fract_y
_atom_site_fract_z
Si Si1 0.751937 0.925080 0.356449
Si Si2 0.100815 0.010624 0.883785
Si Si3 0.866926 0.862218 0.032242
Si Si4 0.839790 0.634337 0.711336
Si Si5 0.775841 0.274961 0.654158
Si Si6 0.378974 0.929697 0.975253
O O1 0.756871 0.853168 0.308386
O O2 0.734440 0.897922 0.423611
O O3 0.000000 0.977983 0.250000
O O4 0.523974 0.982622 0.432199
O O5 0.066909 0.908677 0.914776
O O6 0.187892 0.064731 0.899767
O O7 0.261078 0.039246 0.768694
O O8 0.833733 0.047279 0.978311
O O9 0.623858 0.853173 0.097656
O O10 0.896751 0.772368 0.053849
O O11 0.735011 0.702674 0.795492
O O12 0.500000 0.295838 0.750000
O O13 0.926397 0.355935 0.615646
#
# Coordination Sequence:
#
# PCOD9258539 Si02
#       6
#     8   8   8   8   8   8
#     4  11  22  38  56  83 118 153 191 236 288 352
#     4  10  18  33  59  85 108 151 190 239 275 351
#     4   9  19  35  57  84 116 146 193 234 294 339
#     4  10  19  37  59  81 112 154 190 238 297 343
#     4   9  20  39  60  85 116 154 191 243 299 349
#     4  11  22  36  61  86 114 151 198 237 288 352
#
# _framework density 22.403856999999999
#
# number of rings (size 3 to 8) (size 9 to 14) (size 15 to 20)
#    0.000    2.000    3.333    2.000    0.000    2.667 
#    0.000    5.000    0.000    0.000    0.000    0.000 
#    0.000    0.000    0.000    0.000    0.000    0.000 
#
# Total GULP energy -133830.720577 kJ/mol
# GULP energy per Si atom -5576.280024 kJ/mol
# Density = 2.235287 g / cm^3
# Si number density = 22.403857 Si / 1000 Ang^3
#
#
#
# Elastic Constant Matrix: (Units=GPa)
#
#
# Indices 1 2 3 4 5 6 
#
# 1 102.5777 3.2312 3.2661 -0.0051 -0.2348 -0.0011
# 2 3.2312 42.5413 -5.3226 0.0088 -4.5235 -0.0035
# 3 3.2661 -5.3226 27.6982 0.0002 1.2463 0.0003
# 4 -0.0051 0.0088 0.0002 12.1303 0.0119 -9.5646
# 5 -0.2348 -4.5235 1.2463 0.0119 34.8069 -0.0026
# 6 -0.0011 -0.0035 0.0003 -9.5646 -0.0026 15.2862
#
#
#
# Elastic Compliance Matrix: (Units=1/GPa)
#
#
# Indices 1 2 3 4 5 6 
#
# 1 0.009820 -0.000913 -0.001333 0.000010 -0.000005 0.000007
# 2 -0.000913 0.024481 0.004677 -0.000033 0.003008 -0.000014
# 3 -0.001333 0.004677 0.037192 -0.000007 -0.000733 -0.000004
# 4 0.000010 -0.000033 -0.000007 0.162714 -0.000052 0.101810
# 5 -0.000005 0.003008 -0.000733 -0.000052 0.029147 -0.000027
# 6 0.000007 -0.000014 -0.000004 0.101810 -0.000027 0.129121
#
#
# Mechanical properties :
#
#
# Convention : Reuss Voigt Hill
#
# Bulk Modulus (GPa) = 13.09694 19.46298 16.27996
# Shear Modulus (GPa) = 12.10462 23.88752 17.99607
#
# Velocity S-wave (km/s) = 2.32694 3.26885 2.83725
# Velocity P-wave (km/s) = 3.61636 4.79097 4.24449
#
# Compressibility (1/GPa) = 0.07635370
#
# Stress axis : x y z
#
# Youngs Moduli (GPa) = 101.83386 40.84818 26.88724
#
# Poissons Ratio (x) = 0.03730 0.03585
# Poissons Ratio (y) = 0.09299 -0.12574
# Poissons Ratio (z) = 0.13577 -0.19103
#
# Static dielectric constant tensor:
#      x y z
#    x 1.810070 0.000000 0.030510 
#    y 0.000000 1.872000 0.000000 
#    z 0.030510 0.000000 1.874980 
# 
# From -- ./inp_files/87388.got.cif
#   From: 2010.05.17/outbox.cif.g08.bks.cpg/sg15_44_cif.got.tgz:87388.got - 2010.06.03 18:47:42.
