data_PCOD9258133
_publ_section_title
;
Structure prediction by ZEFSAII (Michael W. Deem and Ramdas Pophale) SiO2 
 PCOD9258133
Probable space group: C 2/C
;
_chemical_formula_sum "Si O2"
_cell_formula_units_Z 52
_cell_length_a 12.808444
_cell_length_b 13.453325
_cell_length_c 14.796868
_cell_angle_alpha 90.000000
_cell_angle_beta 110.392790
_cell_angle_gamma 90.000000
_cell_volume 2389.936707
_symmetry_space_group_name_H-M "C 2/C"
_symmetry_group_IT_number 15
_symmetry_cell_setting 'monoclinic'
loop_
_space_group_symop_operation_xyz
x,y,z
-x,y,1/2-z
-x,-y,-z
x,-y,1/2+z
1/2+x,1/2+y,z
1/2-x,1/2+y,1/2-z
1/2-x,1/2-y,-z
1/2+x,1/2-y,1/2+z
loop_
_atom_site_type_symbol
_atom_site_label
_atom_site_fract_x
_atom_site_fract_y
_atom_site_fract_z
Si Si1 0.234762 0.559492 0.350000
Si Si2 0.195229 0.086921 0.474613
Si Si3 0.500000 0.951518 0.250000
Si Si4 0.891182 0.275908 0.952874
Si Si5 0.939930 0.409661 0.429237
Si Si6 0.124347 0.255755 0.763166
Si Si7 0.813233 0.967564 0.191324
O O1 0.278239 0.505445 0.452077
O O2 0.111178 0.515187 0.296034
O O3 0.215022 0.677420 0.342924
O O4 0.304293 0.521992 0.284696
O O5 0.125545 0.168716 0.507855
O O6 0.306862 0.146803 0.477015
O O7 0.138676 0.042017 0.368616
O O8 0.482481 0.894639 0.338956
O O9 0.858231 0.273807 0.838214
O O10 0.017012 0.314616 0.002971
O O11 0.811991 0.439775 0.380906
O O12 0.000000 0.500000 0.500000
O O13 0.131424 0.139192 0.783868
O O14 0.000000 0.288287 0.750000
#
# Coordination Sequence:
#
# PCOD9258133 Si02
#       7
#     8   8   4   8   8   8   8
#     4  11  20  39  64  96 129 166 216 272 329 384
#     4  11  22  39  68  93 132 171 220 269 324 397
#     4  10  18  32  60  94 122 162 204 276 312 360
#     4  11  22  41  67  96 127 180 219 261 338 391
#     4  11  20  37  64  97 129 160 221 270 319 378
#     4  12  26  43  66  96 135 174 217 274 340 393
#     4  11  24  42  65 100 131 168 224 276 326 392
#
# _framework density 21.757898999999998
#
# number of rings (size 3 to 8) (size 9 to 14) (size 15 to 20)
#    0.000    0.923    6.923    0.923    2.154    0.615 
#    0.000    2.308    0.000    0.000    0.000    0.000 
#    0.000    0.000    0.000    0.000    0.000    0.000 
#
# Total GULP energy -145295.990271 kJ/mol
# GULP energy per Si atom -5588.307318 kJ/mol
# Density = 2.170838 g / cm^3
# Si number density = 21.757899 Si / 1000 Ang^3
#
#
#
# Elastic Constant Matrix: (Units=GPa)
#
#
# Indices 1 2 3 4 5 6 
#
# 1 27.7327 20.2322 15.2647 0.0000 -8.9909 0.0000
# 2 20.2322 88.9206 17.2341 0.0000 -27.6196 0.0000
# 3 15.2647 17.2341 90.1004 0.0000 -30.8940 0.0000
# 4 0.0000 0.0000 0.0000 31.8256 0.0000 10.2715
# 5 -8.9909 -27.6196 -30.8940 0.0000 24.6928 0.0000
# 6 0.0000 0.0000 0.0000 10.2715 0.0000 19.7995
#
#
#
# Elastic Compliance Matrix: (Units=1/GPa)
#
#
# Indices 1 2 3 4 5 6 
#
# 1 0.046297 -0.010225 -0.007057 0.000000 -0.003409 0.000000
# 2 -0.010225 0.021417 0.008009 0.000000 0.030253 0.000000
# 3 -0.007057 0.008009 0.022684 0.000000 0.034770 0.000000
# 4 0.000000 0.000000 0.000000 0.037740 0.000000 -0.019579
# 5 -0.003409 0.030253 0.034770 0.000000 0.116598 0.000000
# 6 0.000000 0.000000 0.000000 -0.019579 0.000000 0.060663
#
#
# Mechanical properties :
#
#
# Convention : Reuss Voigt Hill
#
# Bulk Modulus (GPa) = 13.91723 34.69064 24.30394
# Shear Modulus (GPa) = 14.37210 25.53177 19.95193
#
# Velocity S-wave (km/s) = 2.57290 3.42928 3.03148
# Velocity P-wave (km/s) = 3.90342 5.62659 4.84227
#
# Compressibility (1/GPa) = 0.07185339
#
# Stress axis : x y z
#
# Youngs Moduli (GPa) = 21.59957 46.69171 44.08303
#
# Poissons Ratio (x) = 0.47743 0.31107
# Poissons Ratio (y) = 0.22086 -0.35306
# Poissons Ratio (z) = 0.15242 -0.37395
#
# Static dielectric constant tensor:
#      x y z
#    x 1.826010 0.000000 -0.020180 
#    y 0.000000 1.795760 0.000000 
#    z -0.020180 0.000000 1.800560 
# 
# From -- ./inp_files/152684.got.cif
#   From: 2010.05.17/outbox.cif.g08.bks.cpg/sg15_77_cif.got.tgz:152684.got - 2010.06.03 18:47:42.
