data_PCOD9258561
_publ_section_title
;
Structure prediction by ZEFSAII (Michael W. Deem and Ramdas Pophale) SiO2 
 PCOD9258561
Probable space group: C 2/C
;
_chemical_formula_sum "Si O2"
_cell_formula_units_Z 56
_cell_length_a 9.856244
_cell_length_b 16.289909
_cell_length_c 17.821984
_cell_angle_alpha 90.000000
_cell_angle_beta 106.136901
_cell_angle_gamma 90.000000
_cell_volume 2748.709829
_symmetry_space_group_name_H-M "C 2/C"
_symmetry_group_IT_number 15
_symmetry_cell_setting 'monoclinic'
loop_
_space_group_symop_operation_xyz
x,y,z
-x,y,1/2-z
-x,-y,-z
x,-y,1/2+z
1/2+x,1/2+y,z
1/2-x,1/2+y,1/2-z
1/2-x,1/2-y,-z
1/2+x,1/2-y,1/2+z
loop_
_atom_site_type_symbol
_atom_site_label
_atom_site_fract_x
_atom_site_fract_y
_atom_site_fract_z
Si Si1 0.318902 0.583645 0.045088
Si Si2 0.898758 0.321205 0.168043
Si Si3 0.905273 0.149199 0.899534
Si Si4 0.447428 0.488132 0.825972
Si Si5 0.872440 0.558274 0.005990
Si Si6 0.048153 0.700116 0.993852
Si Si7 0.123155 0.516601 0.323845
O O1 0.464226 0.579137 0.112781
O O2 0.189863 0.647890 0.040914
O O3 0.350344 0.596086 0.962326
O O4 0.259883 0.491626 0.043740
O O5 0.733459 0.313176 0.161498
O O6 0.916797 0.420799 0.164434
O O7 0.000000 0.291810 0.250000
O O8 0.924738 0.282079 0.090002
O O9 0.975955 0.082139 0.857787
O O10 0.975681 0.224155 0.954402
O O11 0.500000 0.479183 0.750000
O O12 0.278131 0.478941 0.810368
O O13 0.871586 0.561894 0.095723
O O14 0.910007 0.644466 0.976887
O O15 0.000000 0.500000 0.000000
O O16 0.000000 0.547551 0.250000
#
# Coordination Sequence:
#
# PCOD9258561 Si02
#       7
#     8   8   8   8   8   8   8
#     4  10  19  37  63  86 119 154 213 249 294 366
#     4   9  16  30  57  87 115 152 207 249 290 358
#     4  10  20  39  58  86 124 164 194 255 310 366
#     4  11  24  38  64  91 122 164 207 263 313 354
#     4  10  18  33  59  90 112 158 204 247 294 360
#     4  10  20  35  61  92 120 163 200 250 306 372
#     4  10  20  35  58  90 121 153 206 259 299 357
#
# _framework density 20.373194000000002
#
# number of rings (size 3 to 8) (size 9 to 14) (size 15 to 20)
#    0.000    2.000    5.714    2.143    4.000    1.143 
#    0.000    4.286    0.000    0.000    0.000    0.000 
#    0.000    0.000    0.000    0.000    0.000    0.000 
#
# Total GULP energy -155976.607000 kJ/mol
# GULP energy per Si atom -5570.593107 kJ/mol
# Density = 2.032682 g / cm^3
# Si number density = 20.373194 Si / 1000 Ang^3
#
#
#
# Elastic Constant Matrix: (Units=GPa)
#
#
# Indices 1 2 3 4 5 6 
#
# 1 78.7786 16.7209 45.4051 0.0000 5.7909 0.0000
# 2 16.7209 42.9630 12.4400 0.0000 12.3726 0.0000
# 3 45.4051 12.4400 82.3900 0.0000 5.7940 0.0000
# 4 0.0000 0.0000 0.0000 17.3351 0.0000 6.3579
# 5 5.7909 12.3726 5.7940 0.0000 28.1237 0.0000
# 6 0.0000 0.0000 0.0000 6.3579 0.0000 16.9887
#
#
#
# Elastic Compliance Matrix: (Units=1/GPa)
#
#
# Indices 1 2 3 4 5 6 
#
# 1 0.019461 -0.004709 -0.010023 0.000000 0.000129 0.000000
# 2 -0.004709 0.028676 -0.000929 0.000000 -0.011455 0.000000
# 3 -0.010023 -0.000929 0.017886 0.000000 -0.001212 0.000000
# 4 0.000000 0.000000 0.000000 0.066864 0.000000 -0.025023
# 5 0.000129 -0.011455 -0.001212 0.000000 0.040820 0.000000
# 6 0.000000 0.000000 0.000000 -0.025023 0.000000 0.068227
#
#
# Mechanical properties :
#
#
# Convention : Reuss Voigt Hill
#
# Bulk Modulus (GPa) = 28.81724 39.25152 34.03438
# Shear Modulus (GPa) = 17.55472 21.12721 19.34097
#
# Velocity S-wave (km/s) = 2.93859 3.22376 3.08447
# Velocity P-wave (km/s) = 5.06844 5.75890 5.42467
#
# Compressibility (1/GPa) = 0.03470145
#
# Stress axis : x y z
#
# Youngs Moduli (GPa) = 51.38601 34.87195 55.90812
#
# Poissons Ratio (x) = 0.16421 0.56036
# Poissons Ratio (y) = 0.24198 0.05195
# Poissons Ratio (z) = 0.51503 0.03240
#
# Static dielectric constant tensor:
#      x y z
#    x 1.760640 0.000000 0.038270 
#    y 0.000000 1.792250 0.000000 
#    z 0.038270 0.000000 1.724220 
# 
# From -- ./inp_files/145734.got.cif
#   From: 2010.05.17/outbox.cif.g08.bks.cpg/sg15_73_cif.got.tgz:145734.got - 2010.06.03 18:47:42.
