data_PCOD9258928
_publ_section_title
;
Structure prediction by ZEFSAII (Michael W. Deem and Ramdas Pophale) SiO2 
 PCOD9258928
Probable space group: C 2/C
;
_chemical_formula_sum "Si O2"
_cell_formula_units_Z 48
_cell_length_a 22.767374
_cell_length_b 8.866620
_cell_length_c 14.560893
_cell_angle_alpha 90.000000
_cell_angle_beta 146.674683
_cell_angle_gamma 90.000000
_cell_volume 1614.884409
_symmetry_space_group_name_H-M "C 2/C"
_symmetry_group_IT_number 15
_symmetry_cell_setting 'monoclinic'
loop_
_space_group_symop_operation_xyz
x,y,z
-x,y,1/2-z
-x,-y,-z
x,-y,1/2+z
1/2+x,1/2+y,z
1/2-x,1/2+y,1/2-z
1/2-x,1/2-y,-z
1/2+x,1/2-y,1/2+z
loop_
_atom_site_type_symbol
_atom_site_label
_atom_site_fract_x
_atom_site_fract_y
_atom_site_fract_z
Si Si1 0.181266 0.997002 0.801725
Si Si2 0.555055 0.331478 0.423196
Si Si3 0.708168 0.813942 0.346673
Si Si4 0.566562 0.005540 0.930972
Si Si5 0.590687 0.665987 0.528170
Si Si6 0.253783 0.388171 0.935329
O O1 0.140949 0.829431 0.722617
O O2 0.127570 0.137244 0.680534
O O3 0.173137 0.013203 0.899928
O O4 0.306647 0.997627 0.933572
O O5 0.500000 0.320866 0.250000
O O6 0.534803 0.503300 0.433060
O O7 0.682759 0.341273 0.570606
O O8 0.541130 0.159127 0.441058
O O9 0.750000 0.750000 0.500000
O O10 0.806487 0.834216 0.405171
O O11 0.664825 0.985105 0.298940
O O12 0.500000 0.016493 0.750000
O O13 0.547261 0.165902 0.955696
O O14 0.250000 0.250000 0.000000
#
# Coordination Sequence:
#
# PCOD9258928 Si02
#       6
#     8   8   8   8   8   8
#     4  10  20  35  57  91 114 149 205 252 300 341
#     4  10  21  38  60  84 116 157 200 238 300 368
#     4   8  18  33  53  82 118 153 194 244 292 353
#     4  10  21  36  57  84 120 158 198 241 296 365
#     4  10  21  35  60  88 119 153 201 252 299 349
#     4  10  18  34  57  83 115 156 198 243 292 367
#
# _framework density 29.723488
#
# number of rings (size 3 to 8) (size 9 to 14) (size 15 to 20)
#    0.000    2.333    1.667    0.500    4.667    0.000 
#    0.000    0.833    0.000    4.000    0.000    0.000 
#    0.000    0.000    0.000    0.000    0.000    0.000 
#
# Total GULP energy -133985.215133 kJ/mol
# GULP energy per Si atom -5582.717297 kJ/mol
# Density = 2.965584 g / cm^3
# Si number density = 29.723488 Si / 1000 Ang^3
#
#
#
# Elastic Constant Matrix: (Units=GPa)
#
#
# Indices 1 2 3 4 5 6 
#
# 1 112.9196 57.3661 9.1130 0.0000 -4.3132 0.0000
# 2 57.3661 382.7129 71.2711 0.0000 13.3899 0.0000
# 3 9.1130 71.2711 76.7930 0.0000 -7.9393 0.0000
# 4 0.0000 0.0000 0.0000 69.7340 0.0000 -3.3516
# 5 -4.3132 13.3899 -7.9393 0.0000 46.6250 0.0000
# 6 0.0000 0.0000 0.0000 -3.3516 0.0000 59.0198
#
#
#
# Elastic Compliance Matrix: (Units=1/GPa)
#
#
# Indices 1 2 3 4 5 6 
#
# 1 0.009680 -0.001589 0.000475 0.000000 0.001433 0.000000
# 2 -0.001589 0.003517 -0.003252 0.000000 -0.001711 0.000000
# 3 0.000475 -0.003252 0.016373 0.000000 0.003766 0.000000
# 4 0.000000 0.000000 0.000000 0.014379 0.000000 0.000817
# 5 0.001433 -0.001711 0.003766 0.000000 0.022713 0.000000
# 6 0.000000 0.000000 0.000000 0.000817 0.000000 0.016990
#
#
# Mechanical properties :
#
#
# Convention : Reuss Voigt Hill
#
# Bulk Modulus (GPa) = 47.99417 94.21398 71.10408
# Shear Modulus (GPa) = 50.33692 64.05413 57.19552
#
# Velocity S-wave (km/s) = 4.11969 4.64723 4.39139
# Velocity P-wave (km/s) = 6.22985 7.78212 7.04884
#
# Compressibility (1/GPa) = 0.02083586
#
# Stress axis : x y z
#
# Youngs Moduli (GPa) = 103.30836 284.36307 61.07542
#
# Poissons Ratio (x) = 0.45198 -0.02899
# Poissons Ratio (y) = 0.16420 0.19862
# Poissons Ratio (z) = -0.04903 0.92475
#
# Static dielectric constant tensor:
#      x y z
#    x 2.337310 0.000000 0.110650 
#    y 0.000000 2.530330 0.000000 
#    z 0.110650 0.000000 2.542200 
# 
# From -- ./inp_files/224688.got.cif
#   From: 2010.05.17/outbox.cif.g08.bks.cpg/sg15_113_cif.got.tgz:224688.got - 2010.06.03 18:47:42.
