data_PCOD9258238
_publ_section_title
;
Structure prediction by ZEFSAII (Michael W. Deem and Ramdas Pophale) SiO2 
 PCOD9258238
Probable space group: C 2/C
;
_chemical_formula_sum "Si O2"
_cell_formula_units_Z 48
_cell_length_a 18.908564
_cell_length_b 23.720546
_cell_length_c 5.301382
_cell_angle_alpha 90.000000
_cell_angle_beta 117.513827
_cell_angle_gamma 90.000000
_cell_volume 2108.854794
_symmetry_space_group_name_H-M "C 2/C"
_symmetry_group_IT_number 15
_symmetry_cell_setting 'monoclinic'
loop_
_space_group_symop_operation_xyz
x,y,z
-x,y,1/2-z
-x,-y,-z
x,-y,1/2+z
1/2+x,1/2+y,z
1/2-x,1/2+y,1/2-z
1/2-x,1/2-y,-z
1/2+x,1/2-y,1/2+z
loop_
_atom_site_type_symbol
_atom_site_label
_atom_site_fract_x
_atom_site_fract_y
_atom_site_fract_z
Si Si1 0.294120 0.370788 0.503463
Si Si2 0.085329 0.293199 0.842573
Si Si3 0.660451 0.250251 0.958608
Si Si4 0.728859 0.081875 0.393469
Si Si5 0.625291 0.489614 0.853200
Si Si6 0.950305 0.420405 0.906669
O O1 0.352082 0.317391 0.586563
O O2 0.243394 0.377357 0.677095
O O3 0.346273 0.426363 0.596081
O O4 0.240627 0.380183 0.164311
O O5 0.139403 0.265674 0.711531
O O6 0.066346 0.355132 0.700520
O O7 0.000000 0.263515 0.750000
O O8 0.118964 0.289409 0.182090
O O9 0.750000 0.250000 0.000000
O O10 0.640102 0.056224 0.226120
O O11 0.796153 0.032141 0.511089
O O12 0.579784 0.499787 0.527983
O O13 0.000000 0.444820 0.750000
O O14 0.000000 0.422773 0.250000
#
# Coordination Sequence:
#
# PCOD9258238 Si02
#       6
#     8   8   8   8   8   8
#     4  10  19  32  52  77 104 134 169 223 284 320
#     4  11  23  39  54  77 117 159 188 224 286 345
#     4  12  22  35  57  86 112 141 192 242 277 328
#     4  10  18  33  52  75 106 137 174 226 283 329
#     4   8  16  29  49  70  99 133 163 206 279 337
#     4  11  21  34  52  73 101 147 195 222 259 326
#
# _framework density 22.761167
#
# number of rings (size 3 to 8) (size 9 to 14) (size 15 to 20)
#    0.000    1.667    0.000    7.000    0.000    0.000 
#    0.000    0.000    0.000   27.000    0.000    0.000 
#    0.000  120.000    0.000    0.000    0.000    0.000 
#
# Total GULP energy -133796.317648 kJ/mol
# GULP energy per Si atom -5574.846569 kJ/mol
# Density = 2.270936 g / cm^3
# Si number density = 22.761167 Si / 1000 Ang^3
#
#
#
# Elastic Constant Matrix: (Units=GPa)
#
#
# Indices 1 2 3 4 5 6 
#
# 1 108.5409 7.7474 27.5698 0.0000 -13.9601 0.0000
# 2 7.7474 87.4034 12.3036 0.0000 -11.1897 0.0000
# 3 27.5698 12.3036 144.5416 0.0000 -33.2984 0.0000
# 4 0.0000 0.0000 0.0000 4.8707 0.0000 -16.3257
# 5 -13.9601 -11.1897 -33.2984 0.0000 49.0045 0.0000
# 6 0.0000 0.0000 0.0000 -16.3257 0.0000 -10.0883
#
#
#
# Elastic Compliance Matrix: (Units=1/GPa)
#
#
# Indices 1 2 3 4 5 6 
#
# 1 0.009832 -0.000449 -0.001441 0.000000 0.001719 0.000000
# 2 -0.000449 0.011831 -0.000390 0.000000 0.002309 0.000000
# 3 -0.001441 -0.000390 0.008431 0.000000 0.005229 0.000000
# 4 0.000000 0.000000 0.000000 0.031959 0.000000 -0.051718
# 5 0.001719 0.002309 0.005229 0.000000 0.024977 0.000000
# 6 0.000000 0.000000 0.000000 -0.051718 0.000000 -0.015430
#
#
# Mechanical properties :
#
#
# Convention : Reuss Voigt Hill
#
# Bulk Modulus (GPa) = 39.15994 48.41416 43.78705
# Shear Modulus (GPa) = 59.05201 28.28173 43.66687
#
# Velocity S-wave (km/s) = 5.09907 3.52880 4.38480
# Velocity P-wave (km/s) = 7.20482 6.15791 6.70184
#
# Compressibility (1/GPa) = 0.02553630
#
# Stress axis : x y z
#
# Youngs Moduli (GPa) = 101.70540 84.52071 118.60719
#
# Poissons Ratio (x) = 0.03791 0.17093
# Poissons Ratio (y) = 0.04562 0.04621
# Poissons Ratio (z) = 0.14657 0.03293
#
# Static dielectric constant tensor:
#      x y z
#    x 1.904830 0.000000 -0.117740 
#    y 0.000000 1.989570 0.000000 
#    z -0.117740 0.000000 1.732320 
# 
# From -- ./inp_files/11364.got.cif
#   From: 2010.05.17/outbox.cif.g08.bks.cpg/sg15_6_cif.got.tgz:11364.got - 2010.06.03 18:47:42.
