data_PCOD9258906
_publ_section_title
;
Structure prediction by ZEFSAII (Michael W. Deem and Ramdas Pophale) SiO2 
 PCOD9258906
Probable space group: C 2/C
;
_chemical_formula_sum "Si O2"
_cell_formula_units_Z 60
_cell_length_a 22.977860
_cell_length_b 15.308503
_cell_length_c 8.914113
_cell_angle_alpha 90.000000
_cell_angle_beta 77.921495
_cell_angle_gamma 90.000000
_cell_volume 3066.181947
_symmetry_space_group_name_H-M "C 2/C"
_symmetry_group_IT_number 15
_symmetry_cell_setting 'monoclinic'
loop_
_space_group_symop_operation_xyz
x,y,z
-x,y,1/2-z
-x,-y,-z
x,-y,1/2+z
1/2+x,1/2+y,z
1/2-x,1/2+y,1/2-z
1/2-x,1/2-y,-z
1/2+x,1/2-y,1/2+z
loop_
_atom_site_type_symbol
_atom_site_label
_atom_site_fract_x
_atom_site_fract_y
_atom_site_fract_z
Si Si1 0.831022 0.684422 0.757545
Si Si2 0.194938 0.550063 0.461676
Si Si3 0.041683 0.040493 0.107330
Si Si4 0.418543 0.930098 0.057438
Si Si5 0.700573 0.632027 0.280093
Si Si6 0.000000 0.469488 0.750000
Si Si7 0.768469 0.119337 0.915918
Si Si8 0.377734 0.543255 0.695124
O O1 0.891091 0.658050 0.639010
O O2 0.824722 0.786050 0.798803
O O3 0.779235 0.660296 0.668312
O O4 0.823135 0.618234 0.900536
O O5 0.136071 0.499212 0.436542
O O6 0.236213 0.600274 0.319846
O O7 0.239785 0.472796 0.488487
O O8 0.000000 0.091543 0.250000
O O9 0.073766 0.970633 0.199299
O O10 0.094108 0.078124 0.974789
O O11 0.000000 0.000000 0.000000
O O12 0.461801 0.971423 0.157667
O O13 0.454129 0.918639 0.882783
O O14 0.711856 0.664585 0.442760
O O15 0.653732 0.551836 0.310994
O O16 0.826136 0.103052 0.785396
#
# Coordination Sequence:
#
# PCOD9258906 Si02
#       8
#     8   8   8   8   8   4   8   8
#     4  11  22  36  54  85 122 145 174 232 292 339
#     4  10  20  36  57  86 111 148 186 232 273 347
#     4   9  18  32  56  79  98 133 187 240 264 301
#     4  10  20  37  63  83 114 143 203 240 275 326
#     4  11  22  34  55  85 120 147 175 222 299 345
#     4  10  20  36  64  88  98 156 208 240 266 320
#     4  10  20  34  56  81 110 148 185 220 273 345
#     4  10  18  34  57  79 107 138 190 227 264 337
#
# _framework density 19.56831
#
# number of rings (size 3 to 8) (size 9 to 14) (size 15 to 20)
#    0.000    1.867    2.667    3.200    3.733    0.000 
#    0.000    0.000    5.867    0.000    0.000    0.000 
#    0.000    0.000    0.000    0.000    0.000    0.000 
#
# Total GULP energy -167165.592908 kJ/mol
# GULP energy per Si atom -5572.186430 kJ/mol
# Density = 1.952377 g / cm^3
# Si number density = 19.568310 Si / 1000 Ang^3
#
#
#
# Elastic Constant Matrix: (Units=GPa)
#
#
# Indices 1 2 3 4 5 6 
#
# 1 86.2355 11.0805 42.9960 0.0000 -15.6490 0.0000
# 2 11.0805 37.9642 19.8134 0.0000 -12.4047 0.0000
# 3 42.9960 19.8134 132.3252 0.0000 -26.1363 0.0000
# 4 0.0000 0.0000 0.0000 10.2466 0.0000 5.8018
# 5 -15.6490 -12.4047 -26.1363 0.0000 47.1722 0.0000
# 6 0.0000 0.0000 0.0000 5.8018 0.0000 13.0300
#
#
#
# Elastic Compliance Matrix: (Units=1/GPa)
#
#
# Indices 1 2 3 4 5 6 
#
# 1 0.014137 -0.001358 -0.003969 0.000000 0.002134 0.000000
# 2 -0.001358 0.030177 -0.002918 0.000000 0.005868 0.000000
# 3 -0.003969 -0.002918 0.009962 0.000000 0.003436 0.000000
# 4 0.000000 0.000000 0.000000 0.130493 0.000000 -0.058104
# 5 0.002134 0.005868 0.003436 0.000000 0.025354 0.000000
# 6 0.000000 0.000000 0.000000 -0.058104 0.000000 0.102618
#
#
# Mechanical properties :
#
#
# Convention : Reuss Voigt Hill
#
# Bulk Modulus (GPa) = 26.46406 44.92275 35.69341
# Shear Modulus (GPa) = 14.62733 26.26541 20.44637
#
# Velocity S-wave (km/s) = 2.73701 3.66764 3.23595
# Velocity P-wave (km/s) = 4.85197 6.39860 5.67819
#
# Compressibility (1/GPa) = 0.03778710
#
# Stress axis : x y z
#
# Youngs Moduli (GPa) = 70.73886 33.13746 100.37923
#
# Poissons Ratio (x) = 0.04499 0.39836
# Poissons Ratio (y) = 0.09603 0.29294
# Poissons Ratio (z) = 0.28073 0.09671
#
# Static dielectric constant tensor:
#      x y z
#    x 1.724680 0.000000 -0.026120 
#    y 0.000000 1.699600 0.000000 
#    z -0.026120 0.000000 1.715850 
# 
# From -- ./inp_files/61526.got.cif
#   From: 2010.05.17/outbox.cif.g08.bks.cpg/sg15_31_cif.got.tgz:61526.got - 2010.06.03 18:47:42.
