data_PCOD9258916
_publ_section_title
;
Structure prediction by ZEFSAII (Michael W. Deem and Ramdas Pophale) SiO2 
 PCOD9258916
Probable space group: C 2/C
;
_chemical_formula_sum "Si O2"
_cell_formula_units_Z 48
_cell_length_a 8.033140
_cell_length_b 13.490514
_cell_length_c 20.689403
_cell_angle_alpha 90.000000
_cell_angle_beta 128.920949
_cell_angle_gamma 90.000000
_cell_volume 1744.411423
_symmetry_space_group_name_H-M "C 2/C"
_symmetry_group_IT_number 15
_symmetry_cell_setting 'monoclinic'
loop_
_space_group_symop_operation_xyz
x,y,z
-x,y,1/2-z
-x,-y,-z
x,-y,1/2+z
1/2+x,1/2+y,z
1/2-x,1/2+y,1/2-z
1/2-x,1/2-y,-z
1/2+x,1/2-y,1/2+z
loop_
_atom_site_type_symbol
_atom_site_label
_atom_site_fract_x
_atom_site_fract_y
_atom_site_fract_z
Si Si1 0.172088 0.260346 0.130011
Si Si2 0.137977 0.231949 0.694011
Si Si3 0.870442 0.533928 0.032204
Si Si4 0.501390 0.437382 0.879804
Si Si5 0.886737 0.706600 0.441545
Si Si6 0.129089 0.528745 0.216514
O O1 0.190849 0.297578 0.208918
O O2 0.396544 0.295185 0.155175
O O3 0.163368 0.139573 0.127965
O O4 0.968833 0.281134 0.034878
O O5 0.170208 0.211033 0.625867
O O6 0.150038 0.352800 0.706188
O O7 0.907360 0.651075 0.039546
O O8 0.997881 0.489788 0.123469
O O9 0.630132 0.500926 0.962869
O O10 0.000000 0.500000 0.000000
O O11 0.679741 0.364844 0.892273
O O12 0.372875 0.498725 0.794808
O O13 0.000000 0.507687 0.250000
#
# Coordination Sequence:
#
# PCOD9258916 Si02
#       6
#     8   8   8   8   8   8
#     4  10  18  34  57  81 112 148 194 240 279 349
#     4   9  18  34  54  81 111 150 193 228 290 356
#     4   9  21  36  55  84 115 146 190 236 296 351
#     4  10  20  37  59  83 113 149 198 242 288 349
#     4  10  20  34  56  84 114 150 191 241 294 352
#     4  10  18  36  58  80 107 149 197 238 282 357
#
# _framework density 27.516445999999998
#
# number of rings (size 3 to 8) (size 9 to 14) (size 15 to 20)
#    0.000    2.333    3.333    1.000    0.000   11.333 
#    0.000    6.667    7.333    0.000    0.000    0.000 
#    0.000    0.000    0.000    0.000    0.000    0.000 
#
# Total GULP energy -134019.800122 kJ/mol
# GULP energy per Si atom -5584.158338 kJ/mol
# Density = 2.745382 g / cm^3
# Si number density = 27.516446 Si / 1000 Ang^3
#
#
#
# Elastic Constant Matrix: (Units=GPa)
#
#
# Indices 1 2 3 4 5 6 
#
# 1 80.3905 9.6920 80.7598 0.0000 -1.0392 0.0000
# 2 9.6920 45.9598 33.1276 0.0000 5.1156 0.0000
# 3 80.7598 33.1276 354.0944 0.0000 -13.4341 0.0000
# 4 0.0000 0.0000 0.0000 45.9989 0.0000 7.3640
# 5 -1.0392 5.1156 -13.4341 0.0000 52.1894 0.0000
# 6 0.0000 0.0000 0.0000 7.3640 0.0000 22.3195
#
#
#
# Elastic Compliance Matrix: (Units=1/GPa)
#
#
# Indices 1 2 3 4 5 6 
#
# 1 0.016179 -0.000726 -0.003643 0.000000 -0.000544 0.000000
# 2 -0.000726 0.023800 -0.002171 0.000000 -0.002906 0.000000
# 3 -0.003643 -0.002171 0.003902 0.000000 0.001145 0.000000
# 4 0.000000 0.000000 0.000000 0.022952 0.000000 -0.007573
# 5 -0.000544 -0.002906 0.001145 0.000000 0.019730 0.000000
# 6 0.000000 0.000000 0.000000 -0.007573 0.000000 0.047302
#
#
# Mechanical properties :
#
#
# Convention : Reuss Voigt Hill
#
# Bulk Modulus (GPa) = 32.46648 80.84483 56.65566
# Shear Modulus (GPa) = 31.80437 47.89259 39.84848
#
# Velocity S-wave (km/s) = 3.40344 4.17647 3.80961
# Velocity P-wave (km/s) = 5.22198 7.25958 6.32339
#
# Compressibility (1/GPa) = 0.03080100
#
# Stress axis : x y z
#
# Youngs Moduli (GPa) = 61.80736 42.01726 256.31038
#
# Poissons Ratio (x) = 0.03048 0.93370
# Poissons Ratio (y) = 0.04484 0.55655
# Poissons Ratio (z) = 0.22516 0.09124
#
# Static dielectric constant tensor:
#      x y z
#    x 2.174990 0.000000 -0.040970 
#    y 0.000000 2.365020 0.000000 
#    z -0.040970 0.000000 2.270890 
# 
# From -- ./inp_files/136171.got.cif
#   From: 2010.05.17/outbox.cif.g08.bks.cpg/sg15_69_cif.got.tgz:136171.got - 2010.06.03 18:47:42.
