data_PCOD9258327
_publ_section_title
;
Structure prediction by ZEFSAII (Michael W. Deem and Ramdas Pophale) SiO2 
 PCOD9258327
Probable space group: C 2/C
;
_chemical_formula_sum "Si O2"
_cell_formula_units_Z 56
_cell_length_a 20.548176
_cell_length_b 15.864772
_cell_length_c 19.915540
_cell_angle_alpha 90.000000
_cell_angle_beta 158.508647
_cell_angle_gamma 90.000000
_cell_volume 2378.527645
_symmetry_space_group_name_H-M "C 2/C"
_symmetry_group_IT_number 15
_symmetry_cell_setting 'monoclinic'
loop_
_space_group_symop_operation_xyz
x,y,z
-x,y,1/2-z
-x,-y,-z
x,-y,1/2+z
1/2+x,1/2+y,z
1/2-x,1/2+y,1/2-z
1/2-x,1/2-y,-z
1/2+x,1/2-y,1/2+z
loop_
_atom_site_type_symbol
_atom_site_label
_atom_site_fract_x
_atom_site_fract_y
_atom_site_fract_z
Si Si1 0.743051 0.991440 0.541223
Si Si2 0.358740 0.375759 0.762649
Si Si3 0.669407 0.168981 0.457545
Si Si4 0.831747 0.537388 0.681582
Si Si5 0.996030 0.727008 0.426714
Si Si6 0.040471 0.306460 0.120185
Si Si7 0.351508 0.391754 0.908444
O O1 0.794266 0.088400 0.581232
O O2 0.869909 0.942005 0.713537
O O3 0.728183 0.952386 0.452886
O O4 0.540475 0.991421 0.377421
O O5 0.460835 0.287784 0.851939
O O6 0.386302 0.413818 0.863575
O O7 0.155372 0.344222 0.564906
O O8 0.500000 0.143199 0.250000
O O9 0.750000 0.250000 0.500000
O O10 0.606749 0.195006 0.470399
O O11 0.834679 0.626270 0.723376
O O12 0.714180 0.469026 0.609043
O O13 0.081045 0.704631 0.580517
O O14 0.990125 0.829162 0.416696
O O15 0.814688 0.673957 0.249817
#
# Coordination Sequence:
#
# PCOD9258327 Si02
#       7
#     8   8   8   8   8   8   8
#     4  10  19  33  54  81 111 140 188 224 269 327
#     4   9  20  35  58  82 108 144 184 232 276 325
#     4  12  22  35  57  83 115 149 179 222 272 328
#     4  10  18  33  54  81 106 142 186 228 264 327
#     4  10  19  33  53  79 110 141 182 222 269 331
#     4   9  20  34  58  79 106 141 187 227 277 317
#     4  10  19  34  57  81 110 143 185 227 274 325
#
# _framework density 23.543977000000002
#
# number of rings (size 3 to 8) (size 9 to 14) (size 15 to 20)
#    0.000    2.000    2.857    1.714    2.000    2.286 
#    0.000    0.000    9.429    3.429    0.000    0.000 
#    0.000    0.000    0.000    0.000    0.000    0.000 
#
# Total GULP energy -156605.590586 kJ/mol
# GULP energy per Si atom -5593.056807 kJ/mol
# Density = 2.349039 g / cm^3
# Si number density = 23.543977 Si / 1000 Ang^3
#
#
#
# Elastic Constant Matrix: (Units=GPa)
#
#
# Indices 1 2 3 4 5 6 
#
# 1 71.7056 57.4269 39.6430 0.0241 -5.1126 0.0058
# 2 57.4269 133.4176 55.3804 0.0690 -17.8233 0.0389
# 3 39.6430 55.3804 65.2980 0.0465 -16.0902 0.0288
# 4 0.0241 0.0690 0.0465 31.7299 0.0174 -10.1394
# 5 -5.1126 -17.8233 -16.0902 0.0174 35.5899 0.0056
# 6 0.0058 0.0389 0.0288 -10.1394 0.0056 42.1490
#
#
#
# Elastic Compliance Matrix: (Units=1/GPa)
#
#
# Indices 1 2 3 4 5 6 
#
# 1 0.024994 -0.007106 -0.010286 0.000019 -0.004618 0.000015
# 2 -0.007106 0.013662 -0.006571 -0.000020 0.002851 -0.000012
# 3 -0.010286 -0.006571 0.029211 -0.000032 0.008438 -0.000021
# 4 0.000019 -0.000020 -0.000032 0.034141 -0.000040 0.008213
# 5 -0.004618 0.002851 0.008438 -0.000040 0.032677 -0.000022
# 6 0.000015 -0.000012 -0.000021 0.008213 -0.000022 0.025701
#
#
# Mechanical properties :
#
#
# Convention : Reuss Voigt Hill
#
# Bulk Modulus (GPa) = 50.14300 63.92465 57.03382
# Shear Modulus (GPa) = 23.26053 29.75848 26.50951
#
# Velocity S-wave (km/s) = 3.14659 3.55907 3.35917
# Velocity P-wave (km/s) = 5.87752 6.64074 6.27075
#
# Compressibility (1/GPa) = 0.01994296
#
# Stress axis : x y z
#
# Youngs Moduli (GPa) = 40.01007 73.19596 34.23386
#
# Poissons Ratio (x) = 0.52010 0.35211
# Poissons Ratio (y) = 0.28429 0.22494
# Poissons Ratio (z) = 0.41153 0.48095
#
# Static dielectric constant tensor:
#      x y z
#    x 1.888310 -0.000010 0.061070 
#    y -0.000010 1.924280 -0.000020 
#    z 0.061070 -0.000020 1.981420 
# 
# From -- ./inp_files/215787.got.cif
#   From: 2010.05.17/outbox.cif.g08.bks.cpg/sg15_108_cif.got.tgz:215787.got - 2010.06.03 18:47:42.
