data_PCOD9258430
_publ_section_title
;
Structure prediction by ZEFSAII (Michael W. Deem and Ramdas Pophale) SiO2 
 PCOD9258430
Probable space group: C 2/C
;
_chemical_formula_sum "Si O2"
_cell_formula_units_Z 52
_cell_length_a 12.300178
_cell_length_b 14.541745
_cell_length_c 12.103321
_cell_angle_alpha 90.000000
_cell_angle_beta 80.110337
_cell_angle_gamma 90.000000
_cell_volume 2132.703938
_symmetry_space_group_name_H-M "C 2/C"
_symmetry_group_IT_number 15
_symmetry_cell_setting 'monoclinic'
loop_
_space_group_symop_operation_xyz
x,y,z
-x,y,1/2-z
-x,-y,-z
x,-y,1/2+z
1/2+x,1/2+y,z
1/2-x,1/2+y,1/2-z
1/2-x,1/2-y,-z
1/2+x,1/2-y,1/2+z
loop_
_atom_site_type_symbol
_atom_site_label
_atom_site_fract_x
_atom_site_fract_y
_atom_site_fract_z
Si Si1 0.937996 0.366093 0.572515
Si Si2 0.460776 0.669704 0.615120
Si Si3 0.189114 0.970587 0.245541
Si Si4 0.589984 0.574510 0.441765
Si Si5 0.679666 0.356201 0.585341
Si Si6 0.431363 0.926468 0.155595
Si Si7 0.500000 0.309453 0.750000
O O1 0.960265 0.276682 0.640927
O O2 0.811504 0.354271 0.554524
O O3 0.950015 0.464745 0.628749
O O4 0.022315 0.369640 0.455392
O O5 0.405450 0.602900 0.713228
O O6 0.582255 0.642063 0.546965
O O7 0.376239 0.657309 0.524108
O O8 0.302061 0.920425 0.198912
O O9 0.193396 0.026595 0.363583
O O10 0.164756 0.044461 0.152272
O O11 0.500000 0.500000 0.500000
O O12 0.541264 0.631374 0.347601
O O13 0.619113 0.281445 0.676497
O O14 0.500000 0.897292 0.250000
#
# Coordination Sequence:
#
# PCOD9258430 Si02
#       7
#     8   8   8   8   8   8   4
#     4  10  21  36  56  82 112 149 184 236 271 329
#     4  10  18  33  56  85 116 135 184 236 276 328
#     4   9  18  34  54  81 110 150 179 225 278 338
#     4   8  15  28  48  70 105 136 162 215 274 312
#     4   9  17  31  52  81 113 144 178 225 282 320
#     4  10  21  39  56  76 112 156 189 219 282 334
#     4   8  14  26  44  74  98 132 166 208 256 324
#
# _framework density 24.382193000000001
#
# number of rings (size 3 to 8) (size 9 to 14) (size 15 to 20)
#    0.000    2.769    0.000    1.385    0.000    0.000 
#   19.385    0.000   25.385    0.923    0.000    0.000 
#    0.000    0.000    0.000    0.000    0.000    0.000 
#
# Total GULP energy -144862.068256 kJ/mol
# GULP energy per Si atom -5571.618010 kJ/mol
# Density = 2.432670 g / cm^3
# Si number density = 24.382193 Si / 1000 Ang^3
#
#
#
# Elastic Constant Matrix: (Units=GPa)
#
#
# Indices 1 2 3 4 5 6 
#
# 1 83.6841 10.0318 69.2387 0.0000 -24.1165 0.0000
# 2 10.0318 109.4279 27.9883 0.0000 -6.0790 0.0000
# 3 69.2387 27.9883 159.3074 0.0000 -17.7401 0.0000
# 4 0.0000 0.0000 0.0000 3.7994 0.0000 -5.1261
# 5 -24.1165 -6.0790 -17.7401 0.0000 48.8100 0.0000
# 6 0.0000 0.0000 0.0000 -5.1261 0.0000 16.5872
#
#
#
# Elastic Compliance Matrix: (Units=1/GPa)
#
#
# Indices 1 2 3 4 5 6 
#
# 1 0.020943 0.000636 -0.008393 0.000000 0.007377 0.000000
# 2 0.000636 0.009605 -0.001872 0.000000 0.000830 0.000000
# 3 -0.008393 -0.001872 0.010178 0.000000 -0.000681 0.000000
# 4 0.000000 0.000000 0.000000 0.451414 0.000000 0.139505
# 5 0.007377 0.000830 -0.000681 0.000000 0.023988 0.000000
# 6 0.000000 0.000000 0.000000 0.139505 0.000000 0.103400
#
#
# Mechanical properties :
#
#
# Convention : Reuss Voigt Hill
#
# Bulk Modulus (GPa) = 46.57618 62.99300 54.78459
# Shear Modulus (GPa) = 7.74063 30.18337 18.96200
#
# Velocity S-wave (km/s) = 1.78370 3.52224 2.79175
# Velocity P-wave (km/s) = 4.83592 6.51408 5.73670
#
# Compressibility (1/GPa) = 0.02147020
#
# Stress axis : x y z
#
# Youngs Moduli (GPa) = 47.74794 104.11329 98.25214
#
# Poissons Ratio (x) = -0.06626 0.82461
# Poissons Ratio (y) = -0.03039 0.18389
# Poissons Ratio (z) = 0.40074 0.19486
#
# Static dielectric constant tensor:
#      x y z
#    x 1.975260 0.000000 -0.002420 
#    y 0.000000 2.138750 0.000000 
#    z -0.002420 0.000000 2.017140 
# 
# From -- ./inp_files/153338.got.cif
#   From: 2010.05.17/outbox.cif.g08.bks.cpg/sg15_77_cif.got.tgz:153338.got - 2010.06.03 18:47:42.
