data_PCOD9258636
_publ_section_title
;
Structure prediction by ZEFSAII (Michael W. Deem and Ramdas Pophale) SiO2 
 PCOD9258636
Probable space group: C 2/C
;
_chemical_formula_sum "Si O2"
_cell_formula_units_Z 56
_cell_length_a 22.855019
_cell_length_b 15.580906
_cell_length_c 15.764340
_cell_angle_alpha 90.000000
_cell_angle_beta 29.072978
_cell_angle_gamma 90.000000
_cell_volume 2727.832839
_symmetry_space_group_name_H-M "C 2/C"
_symmetry_group_IT_number 15
_symmetry_cell_setting 'monoclinic'
loop_
_space_group_symop_operation_xyz
x,y,z
-x,y,1/2-z
-x,-y,-z
x,-y,1/2+z
1/2+x,1/2+y,z
1/2-x,1/2+y,1/2-z
1/2-x,1/2-y,-z
1/2+x,1/2-y,1/2+z
loop_
_atom_site_type_symbol
_atom_site_label
_atom_site_fract_x
_atom_site_fract_y
_atom_site_fract_z
Si Si1 0.443702 0.964705 0.227238
Si Si2 0.685636 0.106998 0.350599
Si Si3 0.638322 0.313538 0.737215
Si Si4 0.102515 0.771199 0.355879
Si Si5 0.287234 0.640457 0.525074
Si Si6 0.997673 0.653181 0.150674
Si Si7 0.747698 0.590423 0.745244
O O1 0.500000 0.966060 0.250000
O O2 0.315401 0.922196 0.381124
O O3 0.431015 0.063282 0.215700
O O4 0.544388 0.911298 0.048772
O O5 0.774327 0.127980 0.316420
O O6 0.681891 0.193704 0.297947
O O7 0.730526 0.010901 0.271164
O O8 0.615171 0.351631 0.672790
O O9 0.719586 0.230342 0.620533
O O10 0.518389 0.285945 0.936842
O O11 0.165736 0.864220 0.277631
O O12 0.065051 0.734177 0.312562
O O13 0.312798 0.616723 0.589215
O O14 0.000000 0.661981 0.250000
O O15 0.124300 0.634395 0.941833
#
# Coordination Sequence:
#
# PCOD9258636 Si02
#       7
#     8   8   8   8   8   8   8
#     4  10  18  33  62  91 121 161 202 263 306 359
#     4  11  21  39  60  89 128 165 209 256 311 374
#     4  11  23  35  61  93 132 163 202 251 317 387
#     4  12  22  41  63  90 127 168 207 264 321 365
#     4  11  20  37  58  98 130 162 207 247 316 389
#     4  10  22  40  63  91 117 161 225 265 307 369
#     4  11  24  40  62  93 125 169 213 259 317 372
#
# _framework density 20.529116999999999
#
# number of rings (size 3 to 8) (size 9 to 14) (size 15 to 20)
#    0.000    1.143    5.714    0.857    0.000    4.000 
#    0.000    0.000    0.000    0.000    0.000    0.000 
#    0.000    0.000    0.000    0.000    0.000    0.000 
#
# Total GULP energy -155982.307742 kJ/mol
# GULP energy per Si atom -5570.796705 kJ/mol
# Density = 2.048239 g / cm^3
# Si number density = 20.529117 Si / 1000 Ang^3
#
#
#
# Elastic Constant Matrix: (Units=GPa)
#
#
# Indices 1 2 3 4 5 6 
#
# 1 78.5730 37.2731 -4.9467 0.0000 32.2066 0.0000
# 2 37.2731 83.7731 -24.3941 0.0000 35.0177 0.0000
# 3 -4.9467 -24.3941 133.3489 0.0000 -60.8567 0.0000
# 4 0.0000 0.0000 0.0000 21.2636 0.0000 -3.8891
# 5 32.2066 35.0177 -60.8567 0.0000 73.1663 0.0000
# 6 0.0000 0.0000 0.0000 -3.8891 0.0000 32.3564
#
#
#
# Elastic Compliance Matrix: (Units=1/GPa)
#
#
# Indices 1 2 3 4 5 6 
#
# 1 0.019133 -0.005908 -0.004713 0.000000 -0.009515 0.000000
# 2 -0.005908 0.016807 0.000598 0.000000 -0.004946 0.000000
# 3 -0.004713 0.000598 0.013297 0.000000 0.012849 0.000000
# 4 0.000000 0.000000 0.000000 0.048086 0.000000 0.005780
# 5 -0.009515 -0.004946 0.012849 0.000000 0.030910 0.000000
# 6 0.000000 0.000000 0.000000 0.005780 0.000000 0.031600
#
#
# Mechanical properties :
#
#
# Convention : Reuss Voigt Hill
#
# Bulk Modulus (GPa) = 34.25620 34.61773 34.43697
# Shear Modulus (GPa) = 26.36991 44.54145 35.45568
#
# Velocity S-wave (km/s) = 3.58790 4.66303 4.16034
# Velocity P-wave (km/s) = 5.82124 6.77430 6.31577
#
# Compressibility (1/GPa) = 0.02919180
#
# Stress axis : x y z
#
# Youngs Moduli (GPa) = 52.26594 59.49810 75.20214
#
# Poissons Ratio (x) = 0.35152 0.35445
# Poissons Ratio (y) = 0.30879 -0.04500
# Poissons Ratio (z) = 0.24634 -0.03560
#
# Static dielectric constant tensor:
#      x y z
#    x 1.755340 0.000000 0.041900 
#    y 0.000000 1.783980 0.000000 
#    z 0.041900 0.000000 1.747990 
# 
# From -- ./inp_files/173798.got.cif
#   From: 2010.05.17/outbox.cif.g08.bks.cpg/sg15_87_cif.got.tgz:173798.got - 2010.06.03 18:47:42.
