data_PCOD9258328
_publ_section_title
;
Structure prediction by ZEFSAII (Michael W. Deem and Ramdas Pophale) SiO2 
 PCOD9258328
Probable space group: C 2/C
;
_chemical_formula_sum "Si O2"
_cell_formula_units_Z 52
_cell_length_a 25.511507
_cell_length_b 17.059548
_cell_length_c 8.356510
_cell_angle_alpha 90.000000
_cell_angle_beta 130.922248
_cell_angle_gamma 90.000000
_cell_volume 2748.020996
_symmetry_space_group_name_H-M "C 2/C"
_symmetry_group_IT_number 15
_symmetry_cell_setting 'monoclinic'
loop_
_space_group_symop_operation_xyz
x,y,z
-x,y,1/2-z
-x,-y,-z
x,-y,1/2+z
1/2+x,1/2+y,z
1/2-x,1/2+y,1/2-z
1/2-x,1/2-y,-z
1/2+x,1/2-y,1/2+z
loop_
_atom_site_type_symbol
_atom_site_label
_atom_site_fract_x
_atom_site_fract_y
_atom_site_fract_z
Si Si1 0.351507 0.913883 0.969911
Si Si2 0.264170 0.610074 0.674445
Si Si3 0.101817 0.356777 0.866872
Si Si4 0.466979 0.123419 0.925236
Si Si5 0.500000 0.738700 0.250000
Si Si6 0.763809 0.471216 0.079926
Si Si7 0.367077 0.744690 0.826458
O O1 0.424784 0.926138 0.208363
O O2 0.296328 0.919291 0.004108
O O3 0.325389 0.981300 0.797329
O O4 0.353467 0.828539 0.889425
O O5 0.180407 0.615226 0.508259
O O6 0.281209 0.540427 0.587110
O O7 0.278740 0.581158 0.882273
O O8 0.300595 0.689918 0.699867
O O9 0.107869 0.270080 0.800395
O O10 0.043766 0.399775 0.639926
O O11 0.076189 0.362942 0.997946
O O12 0.477813 0.204606 0.852081
O O13 0.570271 0.700918 0.455427
#
# Coordination Sequence:
#
# PCOD9258328 Si02
#       7
#     8   8   8   8   4   8   8
#     4  10  19  36  51  76 106 152 175 228 256 324
#     4  11  21  38  54  81 107 151 178 233 266 331
#     4  10  18  33  54  81 107 143 184 227 256 317
#     4   9  18  33  53  75 115 142 179 225 261 310
#     4   8  18  36  54  84 108 136 176 240 274 310
#     4  10  22  35  51  75 122 138 183 222 281 307
#     4  10  20  35  63  77 108 139 191 223 274 319
#
# _framework density 18.922709000000001
#
# number of rings (size 3 to 8) (size 9 to 14) (size 15 to 20)
#    0.000    2.154    3.077    0.462    0.000    0.615 
#    0.000    4.615    0.000    0.923    0.000    0.000 
#    0.000    0.000    0.000    0.000    0.000    0.000 
#
# Total GULP energy -144768.222428 kJ/mol
# GULP energy per Si atom -5568.008555 kJ/mol
# Density = 1.887964 g / cm^3
# Si number density = 18.922709 Si / 1000 Ang^3
#
#
#
# Elastic Constant Matrix: (Units=GPa)
#
#
# Indices 1 2 3 4 5 6 
#
# 1 59.0653 28.2636 22.4037 0.0000 -11.7303 0.0000
# 2 28.2636 49.8566 10.6632 0.0000 2.1776 0.0000
# 3 22.4037 10.6632 43.6796 0.0000 -14.4171 0.0000
# 4 0.0000 0.0000 0.0000 12.9561 0.0000 -3.0402
# 5 -11.7303 2.1776 -14.4171 0.0000 27.7718 0.0000
# 6 0.0000 0.0000 0.0000 -3.0402 0.0000 14.5242
#
#
#
# Elastic Compliance Matrix: (Units=1/GPa)
#
#
# Indices 1 2 3 4 5 6 
#
# 1 0.029128 -0.015165 -0.008187 0.000000 0.009242 0.000000
# 2 -0.015165 0.029709 -0.002845 0.000000 -0.010212 0.000000
# 3 -0.008187 -0.002845 0.032245 0.000000 0.013504 0.000000
# 4 0.000000 0.000000 0.000000 0.081171 0.000000 0.016991
# 5 0.009242 -0.010212 0.013504 0.000000 0.047722 0.000000
# 6 0.000000 0.000000 0.000000 0.016991 0.000000 0.072407
#
#
# Mechanical properties :
#
#
# Convention : Reuss Voigt Hill
#
# Bulk Modulus (GPa) = 25.84828 30.58474 28.21651
# Shear Modulus (GPa) = 13.97921 17.13515 15.55718
#
# Velocity S-wave (km/s) = 2.72095 3.01247 2.87041
# Velocity P-wave (km/s) = 4.85397 5.31959 5.09211
#
# Compressibility (1/GPa) = 0.03868729
#
# Stress axis : x y z
#
# Youngs Moduli (GPa) = 34.33098 33.65969 31.01237
#
# Poissons Ratio (x) = 0.51046 0.25391
# Poissons Ratio (y) = 0.52064 0.08823
# Poissons Ratio (z) = 0.28108 0.09576
#
# Static dielectric constant tensor:
#      x y z
#    x 1.676500 0.000000 -0.005630 
#    y 0.000000 1.633970 0.000000 
#    z -0.005630 0.000000 1.770010 
# 
# From -- ./inp_files/66312.got.cif
#   From: 2010.05.17/outbox.cif.g08.bks.cpg/sg15_34_cif.got.tgz:66312.got - 2010.06.03 18:47:42.
