data_PCOD9258417
_publ_section_title
;
Structure prediction by ZEFSAII (Michael W. Deem and Ramdas Pophale) SiO2 
 PCOD9258417
Probable space group: C 2/C
;
_chemical_formula_sum "Si O2"
_cell_formula_units_Z 56
_cell_length_a 22.250689
_cell_length_b 19.323703
_cell_length_c 9.551697
_cell_angle_alpha 90.000000
_cell_angle_beta 50.500548
_cell_angle_gamma 90.000000
_cell_volume 3169.011639
_symmetry_space_group_name_H-M "C 2/C"
_symmetry_group_IT_number 15
_symmetry_cell_setting 'monoclinic'
loop_
_space_group_symop_operation_xyz
x,y,z
-x,y,1/2-z
-x,-y,-z
x,-y,1/2+z
1/2+x,1/2+y,z
1/2-x,1/2+y,1/2-z
1/2-x,1/2-y,-z
1/2+x,1/2-y,1/2+z
loop_
_atom_site_type_symbol
_atom_site_label
_atom_site_fract_x
_atom_site_fract_y
_atom_site_fract_z
Si Si1 0.417023 0.476030 0.574663
Si Si2 0.810039 0.775558 0.205586
Si Si3 0.296298 0.338074 0.514181
Si Si4 0.813717 0.004727 0.978212
Si Si5 0.880137 0.819616 0.659181
Si Si6 0.417149 0.207951 0.819784
Si Si7 0.765305 0.640699 0.927366
O O1 0.500000 0.500000 0.500000
O O2 0.345892 0.503610 0.773836
O O3 0.391318 0.499612 0.458814
O O4 0.419807 0.393965 0.595578
O O5 0.777892 0.707456 0.332232
O O6 0.823166 0.827124 0.315384
O O7 0.749119 0.812358 0.189184
O O8 0.880422 0.752673 0.001884
O O9 0.281338 0.419302 0.562613
O O10 0.360251 0.307904 0.526657
O O11 0.757507 0.938479 0.074989
O O12 0.925050 0.761043 0.677485
O O13 0.798597 0.832259 0.864609
O O14 0.500000 0.180128 0.750000
O O15 0.350146 0.154468 0.867838
#
# Coordination Sequence:
#
# PCOD9258417 Si02
#       7
#     8   8   8   8   8   8   8
#     4  10  20  33  48  78 115 143 169 212 266 330
#     4  10  19  34  58  78 107 135 176 225 272 324
#     4  10  18  33  56  83 104 135 176 222 271 322
#     4  10  21  32  53  78 106 146 178 213 263 322
#     4   9  18  34  54  75 106 142 179 218 260 327
#     4  11  21  35  55  79 105 144 187 234 269 312
#     4  10  18  36  55  76 106 143 192 223 253 323
#
# _framework density 17.671123999999999
#
# number of rings (size 3 to 8) (size 9 to 14) (size 15 to 20)
#    0.000    2.000    2.857    2.143    0.000    4.571 
#    0.000    2.143    0.000    0.857    0.000    0.000 
#    0.000    0.000    0.000    0.000    0.000    0.000 
#
# Total GULP energy -155934.594050 kJ/mol
# GULP energy per Si atom -5569.092645 kJ/mol
# Density = 1.763090 g / cm^3
# Si number density = 17.671124 Si / 1000 Ang^3
#
#
#
# Elastic Constant Matrix: (Units=GPa)
#
#
# Indices 1 2 3 4 5 6 
#
# 1 110.5718 42.2984 24.0445 0.0000 1.5680 0.0000
# 2 42.2984 83.9865 4.5828 0.0000 -0.6749 0.0000
# 3 24.0445 4.5828 39.1058 0.0000 19.9469 0.0000
# 4 0.0000 0.0000 0.0000 18.5309 0.0000 3.4029
# 5 1.5680 -0.6749 19.9469 0.0000 28.9828 0.0000
# 6 0.0000 0.0000 0.0000 3.4029 0.0000 20.3304
#
#
#
# Elastic Compliance Matrix: (Units=1/GPa)
#
#
# Indices 1 2 3 4 5 6 
#
# 1 0.013791 -0.006278 -0.011231 0.000000 0.006838 0.000000
# 2 -0.006278 0.014911 0.002715 0.000000 -0.001182 0.000000
# 3 -0.011231 0.002715 0.049028 0.000000 -0.033072 0.000000
# 4 0.000000 0.000000 0.000000 0.055675 0.000000 -0.009319
# 5 0.006838 -0.001182 -0.033072 0.000000 0.056867 0.000000
# 6 0.000000 0.000000 0.000000 -0.009319 0.000000 0.050747
#
#
# Mechanical properties :
#
#
# Convention : Reuss Voigt Hill
#
# Bulk Modulus (GPa) = 20.77158 41.72392 31.24775
# Shear Modulus (GPa) = 17.44263 24.41805 20.93034
#
# Velocity S-wave (km/s) = 3.14518 3.72130 3.44530
# Velocity P-wave (km/s) = 4.99695 6.49051 5.79207
#
# Compressibility (1/GPa) = 0.04814270
#
# Stress axis : x y z
#
# Youngs Moduli (GPa) = 72.51242 67.06608 20.39634
#
# Poissons Ratio (x) = 0.42102 0.22908
# Poissons Ratio (y) = 0.45521 -0.05539
# Poissons Ratio (z) = 0.81441 -0.18212
#
# Static dielectric constant tensor:
#      x y z
#    x 1.622120 0.000000 0.019960 
#    y 0.000000 1.634060 0.000000 
#    z 0.019960 0.000000 1.610750 
# 
# From -- ./inp_files/49795.got.cif
#   From: 2010.05.17/outbox.cif.g08.bks.cpg/sg15_25_cif.got.tgz:49795.got - 2010.06.03 18:47:42.
