data_PCOD9258571
_publ_section_title
;
Structure prediction by ZEFSAII (Michael W. Deem and Ramdas Pophale) SiO2 
 PCOD9258571
Probable space group: C 2/C
;
_chemical_formula_sum "Si O2"
_cell_formula_units_Z 56
_cell_length_a 13.099848
_cell_length_b 21.092272
_cell_length_c 10.029637
_cell_angle_alpha 90.000000
_cell_angle_beta 110.222558
_cell_angle_gamma 90.000000
_cell_volume 2600.416625
_symmetry_space_group_name_H-M "C 2/C"
_symmetry_group_IT_number 15
_symmetry_cell_setting 'monoclinic'
loop_
_space_group_symop_operation_xyz
x,y,z
-x,y,1/2-z
-x,-y,-z
x,-y,1/2+z
1/2+x,1/2+y,z
1/2-x,1/2+y,1/2-z
1/2-x,1/2-y,-z
1/2+x,1/2-y,1/2+z
loop_
_atom_site_type_symbol
_atom_site_label
_atom_site_fract_x
_atom_site_fract_y
_atom_site_fract_z
Si Si1 0.000000 0.616072 0.750000
Si Si2 0.975551 0.722689 0.946518
Si Si3 0.101044 0.629209 0.369937
Si Si4 0.770726 0.433860 0.094388
Si Si5 0.727186 0.547397 0.883434
Si Si6 0.359830 0.311925 0.403283
Si Si7 0.500000 0.618941 0.750000
Si Si8 0.760593 0.224080 0.353675
O O1 0.043668 0.664388 0.659469
O O2 0.099941 0.577194 0.855040
O O3 0.887680 0.777606 0.883205
O O4 0.956605 0.688700 0.080527
O O5 0.091375 0.755927 0.985219
O O6 0.175539 0.588929 0.505025
O O7 0.189638 0.660958 0.311488
O O8 0.000000 0.595498 0.250000
O O9 0.748763 0.458583 0.235239
O O10 0.705495 0.367696 0.055653
O O11 0.730394 0.482183 0.965240
O O12 0.607954 0.579809 0.841068
O O13 0.457643 0.340307 0.356427
O O14 0.284319 0.278249 0.261468
O O15 0.750000 0.250000 0.500000
#
# Coordination Sequence:
#
# PCOD9258571 Si02
#       8
#     4   8   8   8   8   8   4   8
#     4  12  24  44  63  89 138 176 210 276 340 412
#     4  11  21  38  63  93 131 172 207 271 343 404
#     4  11  20  36  64 103 127 163 230 282 329 396
#     4  11  26  46  67  94 135 179 235 276 335 398
#     4  11  25  45  68  98 129 184 230 282 331 396
#     4  11  20  39  64  99 130 170 210 276 343 398
#     4  10  20  42  71  95 132 170 230 284 328 388
#     4  10  18  33  59  94 127 161 210 266 333 388
#
# _framework density 21.535011999999998
#
# number of rings (size 3 to 8) (size 9 to 14) (size 15 to 20)
#    0.000    1.143    4.286    5.143    1.000    4.571 
#    0.000    2.143    0.000    0.000    0.000    0.000 
#    0.000    0.000    0.000    0.000    0.000    0.000 
#
# Total GULP energy -156350.177028 kJ/mol
# GULP energy per Si atom -5583.934894 kJ/mol
# Density = 2.148600 g / cm^3
# Si number density = 21.535012 Si / 1000 Ang^3
#
#
#
# Elastic Constant Matrix: (Units=GPa)
#
#
# Indices 1 2 3 4 5 6 
#
# 1 47.2005 -4.8908 14.0683 0.0000 20.6009 0.0000
# 2 -4.8908 57.7455 20.0754 0.0000 6.9196 0.0000
# 3 14.0683 20.0754 64.7010 0.0000 29.8084 0.0000
# 4 0.0000 0.0000 0.0000 39.9221 0.0000 5.4075
# 5 20.6009 6.9196 29.8084 0.0000 30.7316 0.0000
# 6 0.0000 0.0000 0.0000 5.4075 0.0000 18.0906
#
#
#
# Elastic Compliance Matrix: (Units=1/GPa)
#
#
# Indices 1 2 3 4 5 6 
#
# 1 0.031881 0.004559 0.003566 0.000000 -0.025857 0.000000
# 2 0.004559 0.020184 -0.006784 0.000000 -0.001021 0.000000
# 3 0.003566 -0.006784 0.031065 0.000000 -0.030994 0.000000
# 4 0.000000 0.000000 0.000000 0.026106 0.000000 -0.007803
# 5 -0.025857 -0.001021 -0.030994 0.000000 0.080166 0.000000
# 6 0.000000 0.000000 0.000000 -0.007803 0.000000 0.057610
#
#
# Mechanical properties :
#
#
# Convention : Reuss Voigt Hill
#
# Bulk Modulus (GPa) = 11.65341 25.35030 18.50185
# Shear Modulus (GPa) = 18.31952 27.10848 22.71400
#
# Velocity S-wave (km/s) = 2.91981 3.55182 3.25121
# Velocity P-wave (km/s) = 4.09759 5.34956 4.76487
#
# Compressibility (1/GPa) = 0.08581181
#
# Stress axis : x y z
#
# Youngs Moduli (GPa) = 31.36659 49.54373 32.19102
#
# Poissons Ratio (x) = -0.22587 -0.11479
# Poissons Ratio (y) = -0.14300 0.21837
# Poissons Ratio (z) = -0.11185 0.33609
#
# Static dielectric constant tensor:
#      x y z
#    x 1.847200 0.000000 0.010440 
#    y 0.000000 1.814710 0.000000 
#    z 0.010440 0.000000 1.900070 
# 
# From -- ./inp_files/98859.got.cif
#   From: 2010.05.17/outbox.cif.g08.bks.cpg/sg15_50_cif.got.tgz:98859.got - 2010.06.03 18:47:42.
