data_PCOD9258245
_publ_section_title
;
Structure prediction by ZEFSAII (Michael W. Deem and Ramdas Pophale) SiO2 
 PCOD9258245
Probable space group: C 2/C
;
_chemical_formula_sum "Si O2"
_cell_formula_units_Z 60
_cell_length_a 11.847389
_cell_length_b 18.926313
_cell_length_c 14.890077
_cell_angle_alpha 90.000000
_cell_angle_beta 66.332838
_cell_angle_gamma 90.000000
_cell_volume 3057.949159
_symmetry_space_group_name_H-M "C 2/C"
_symmetry_group_IT_number 15
_symmetry_cell_setting 'monoclinic'
loop_
_space_group_symop_operation_xyz
x,y,z
-x,y,1/2-z
-x,-y,-z
x,-y,1/2+z
1/2+x,1/2+y,z
1/2-x,1/2+y,1/2-z
1/2-x,1/2-y,-z
1/2+x,1/2-y,1/2+z
loop_
_atom_site_type_symbol
_atom_site_label
_atom_site_fract_x
_atom_site_fract_y
_atom_site_fract_z
Si Si1 0.500000 0.320559 0.750000
Si Si2 0.742465 0.889227 0.532739
Si Si3 0.499296 0.680045 0.897311
Si Si4 0.094413 0.965416 0.339039
Si Si5 0.271318 0.405103 0.740698
Si Si6 0.481554 0.840115 0.653729
Si Si7 0.859313 0.804751 0.959201
Si Si8 0.345314 0.534215 0.467231
O O1 0.390121 0.365096 0.740402
O O2 0.442183 0.278781 0.850443
O O3 0.856706 0.844066 0.455934
O O4 0.764069 0.891239 0.634700
O O5 0.605311 0.860394 0.560927
O O6 0.752151 0.968912 0.491591
O O7 0.568501 0.615722 0.824383
O O8 0.521848 0.755435 0.845949
O O9 0.559813 0.688718 0.976780
O O10 0.121813 0.964055 0.437119
O O11 0.200269 0.011291 0.258672
O O12 0.966652 0.008936 0.374753
O O13 0.148903 0.375701 0.827625
O O14 0.500000 0.864987 0.750000
O O15 0.750000 0.750000 0.000000
O O16 0.815008 0.885350 0.953415
#
# Coordination Sequence:
#
# PCOD9258245 Si02
#       8
#     4   8   8   8   8   8   8   8
#     4  12  20  34  56  82 112 144 194 232 274 334
#     4   9  17  34  60  76 104 143 186 225 277 339
#     4  10  18  35  55  82 109 146 187 225 279 340
#     4   8  14  29  54  75  98 133 183 230 263 321
#     4  10  18  33  52  80 108 138 184 230 276 329
#     4  10  21  33  54  83 112 142 182 233 283 334
#     4  11  21  33  56  83 114 151 187 236 278 331
#     4   8  14  30  54  77  95 136 188 220 264 332
#
# _framework density 19.620992999999999
#
# number of rings (size 3 to 8) (size 9 to 14) (size 15 to 20)
#    0.000    2.400    2.667    2.800    0.000    0.000 
#    1.200    0.000   13.200    3.200    0.000    0.000 
#    0.000    0.000    0.000    0.000    0.000    0.000 
#
# Total GULP energy -167183.147136 kJ/mol
# GULP energy per Si atom -5572.771571 kJ/mol
# Density = 1.957633 g / cm^3
# Si number density = 19.620993 Si / 1000 Ang^3
#
#
#
# Elastic Constant Matrix: (Units=GPa)
#
#
# Indices 1 2 3 4 5 6 
#
# 1 89.9410 48.7553 37.1846 0.0000 -31.1855 0.0000
# 2 48.7553 128.3729 26.8246 0.0000 -40.1139 0.0000
# 3 37.1846 26.8246 53.7445 0.0000 -14.0054 0.0000
# 4 0.0000 0.0000 0.0000 23.7101 0.0000 -7.0248
# 5 -31.1855 -40.1139 -14.0054 0.0000 35.7114 0.0000
# 6 0.0000 0.0000 0.0000 -7.0248 0.0000 24.7326
#
#
#
# Elastic Compliance Matrix: (Units=1/GPa)
#
#
# Indices 1 2 3 4 5 6 
#
# 1 0.020403 -0.002018 -0.010088 0.000000 0.011594 0.000000
# 2 -0.002018 0.012581 -0.001849 0.000000 0.011645 0.000000
# 3 -0.010088 -0.001849 0.026367 0.000000 -0.000545 0.000000
# 4 0.000000 0.000000 0.000000 0.046051 0.000000 0.013080
# 5 0.011594 0.011645 -0.000545 0.000000 0.050994 0.000000
# 6 0.000000 0.000000 0.000000 0.013080 0.000000 0.044148
#
#
# Mechanical properties :
#
#
# Convention : Reuss Voigt Hill
#
# Bulk Modulus (GPa) = 31.80459 55.28748 43.54603
# Shear Modulus (GPa) = 20.92632 27.45042 24.18837
#
# Velocity S-wave (km/s) = 3.26932 3.74442 3.51491
# Velocity P-wave (km/s) = 5.52231 6.85078 6.22210
#
# Compressibility (1/GPa) = 0.03144201
#
# Stress axis : x y z
#
# Youngs Moduli (GPa) = 49.01221 79.48237 37.92663
#
# Poissons Ratio (x) = 0.16041 0.38260
# Poissons Ratio (y) = 0.09891 0.07011
# Poissons Ratio (z) = 0.49443 0.14693
#
# Static dielectric constant tensor:
#      x y z
#    x 1.722410 0.000000 0.034490 
#    y 0.000000 1.700370 0.000000 
#    z 0.034490 0.000000 1.735490 
# 
# From -- ./inp_files/147097.got.cif
#   From: 2010.05.17/outbox.cif.g08.bks.cpg/sg15_74_cif.got.tgz:147097.got - 2010.06.03 18:47:42.
