data_PCOD9258725
_publ_section_title
;
Structure prediction by ZEFSAII (Michael W. Deem and Ramdas Pophale) SiO2 
 PCOD9258725
Probable space group: C 2/C
;
_chemical_formula_sum "Si O2"
_cell_formula_units_Z 56
_cell_length_a 18.987684
_cell_length_b 8.688958
_cell_length_c 28.715286
_cell_angle_alpha 90.000000
_cell_angle_beta 39.976565
_cell_angle_gamma 90.000000
_cell_volume 3043.747011
_symmetry_space_group_name_H-M "C 2/C"
_symmetry_group_IT_number 15
_symmetry_cell_setting 'monoclinic'
loop_
_space_group_symop_operation_xyz
x,y,z
-x,y,1/2-z
-x,-y,-z
x,-y,1/2+z
1/2+x,1/2+y,z
1/2-x,1/2+y,1/2-z
1/2-x,1/2-y,-z
1/2+x,1/2-y,1/2+z
loop_
_atom_site_type_symbol
_atom_site_label
_atom_site_fract_x
_atom_site_fract_y
_atom_site_fract_z
Si Si1 0.126094 0.985389 0.948531
Si Si2 0.130488 0.117351 0.188876
Si Si3 0.269306 0.285063 0.357631
Si Si4 0.441625 0.919616 0.825528
Si Si5 0.650125 0.850085 0.776866
Si Si6 0.243225 0.661058 0.699830
Si Si7 0.727421 0.832994 0.059760
O O1 0.163357 0.806126 0.930752
O O2 0.196928 0.069733 0.872184
O O3 0.165483 0.078891 0.974150
O O4 0.000000 0.000000 0.000000
O O5 0.154999 0.224511 0.221355
O O6 0.179114 0.209760 0.120524
O O7 0.000000 0.085753 0.250000
O O8 0.204812 0.964371 0.154199
O O9 0.366507 0.206783 0.338560
O O10 0.279052 0.233553 0.299083
O O11 0.500000 0.996143 0.750000
O O12 0.529348 0.849063 0.816112
O O13 0.366055 0.036323 0.891952
O O14 0.672067 0.760922 0.813107
O O15 0.687094 0.028056 0.759039
O O16 0.750000 0.750000 0.000000
#
# Coordination Sequence:
#
# PCOD9258725 Si02
#       7
#     8   8   8   8   8   8   8
#     4   9  20  43  58  73 117 165 187 227 298 338
#     4  11  20  37  60  85 112 146 187 235 297 336
#     4   9  19  35  59  83 113 142 187 235 275 341
#     4   9  17  36  60  77 110 153 177 227 292 334
#     4  10  18  34  53  85 111 137 187 235 280 329
#     4  10  21  34  56  83 116 145 185 236 279 346
#     4  10  21  39  55  84 111 146 198 236 275 355
#
# _framework density 18.398375000000001
#
# number of rings (size 3 to 8) (size 9 to 14) (size 15 to 20)
#    0.000    2.286    0.000    6.000    0.000    0.000 
#   20.571    2.857    0.000    0.000    0.000    0.000 
#    0.000    0.000    0.000    0.000    0.000    0.000 
#
# Total GULP energy -156022.411912 kJ/mol
# GULP energy per Si atom -5572.228997 kJ/mol
# Density = 1.835650 g / cm^3
# Si number density = 18.398375 Si / 1000 Ang^3
#
#
#
# Elastic Constant Matrix: (Units=GPa)
#
#
# Indices 1 2 3 4 5 6 
#
# 1 75.3533 4.9544 2.3864 -0.0001 -5.1862 0.0012
# 2 4.9544 82.6467 -4.4625 -0.0002 2.5859 0.0019
# 3 2.3864 -4.4625 15.1403 0.0000 -6.7869 0.0002
# 4 -0.0001 -0.0002 0.0000 7.2462 0.0000 -2.0424
# 5 -5.1862 2.5859 -6.7869 0.0000 35.5081 -0.0002
# 6 0.0012 0.0019 0.0002 -2.0424 -0.0002 19.3288
#
#
#
# Elastic Compliance Matrix: (Units=1/GPa)
#
#
# Indices 1 2 3 4 5 6 
#
# 1 0.013504 -0.000952 -0.001634 0.000000 0.001729 -0.000001
# 2 -0.000952 0.012364 0.003640 0.000000 -0.000344 -0.000001
# 3 -0.001634 0.003640 0.073446 0.000000 0.013534 -0.000001
# 4 0.000000 0.000000 0.000000 0.142240 0.000000 0.015030
# 5 0.001729 -0.000344 0.013534 0.000000 0.031027 0.000000
# 6 -0.000001 -0.000001 -0.000001 0.015030 0.000000 0.053324
#
#
# Mechanical properties :
#
#
# Convention : Reuss Voigt Hill
#
# Bulk Modulus (GPa) = 9.85964 19.87744 14.86854
# Shear Modulus (GPa) = 13.98190 23.76740 18.87465
#
# Velocity S-wave (km/s) = 2.75972 3.59809 3.20642
# Velocity P-wave (km/s) = 3.94022 5.29991 4.66982
#
# Compressibility (1/GPa) = 0.10142358
#
# Stress axis : x y z
#
# Youngs Moduli (GPa) = 74.05119 80.87954 13.61538
#
# Poissons Ratio (x) = 0.07699 0.02225
# Poissons Ratio (y) = 0.07049 -0.04956
# Poissons Ratio (z) = 0.12099 -0.29442
#
# Static dielectric constant tensor:
#      x y z
#    x 1.638330 0.000000 -0.010320 
#    y 0.000000 1.666680 0.000000 
#    z -0.010320 0.000000 1.630880 
# 
# From -- ./inp_files/276609.got.cif
#   From: 2010.05.17/outbox.cif.g08.bks.cpg/sg15_139_cif.got.tgz:276609.got - 2010.06.03 18:47:42.
