data_PCOD9258684
_publ_section_title
;
Structure prediction by ZEFSAII (Michael W. Deem and Ramdas Pophale) SiO2 
 PCOD9258684
Probable space group: C 2/C
;
_chemical_formula_sum "Si O2"
_cell_formula_units_Z 60
_cell_length_a 10.447275
_cell_length_b 25.876628
_cell_length_c 16.907663
_cell_angle_alpha 90.000000
_cell_angle_beta 31.383032
_cell_angle_gamma 90.000000
_cell_volume 2380.286692
_symmetry_space_group_name_H-M "C 2/C"
_symmetry_group_IT_number 15
_symmetry_cell_setting 'monoclinic'
loop_
_space_group_symop_operation_xyz
x,y,z
-x,y,1/2-z
-x,-y,-z
x,-y,1/2+z
1/2+x,1/2+y,z
1/2-x,1/2+y,1/2-z
1/2-x,1/2-y,-z
1/2+x,1/2-y,1/2+z
loop_
_atom_site_type_symbol
_atom_site_label
_atom_site_fract_x
_atom_site_fract_y
_atom_site_fract_z
Si Si1 0.821549 0.658161 0.438859
Si Si2 0.500000 0.311559 0.250000
Si Si3 0.047295 0.942658 0.639389
Si Si4 0.970718 0.568747 0.099957
Si Si5 0.390982 0.945923 0.139847
Si Si6 0.719450 0.430136 0.390186
Si Si7 0.748548 0.241548 0.244205
Si Si8 0.914700 0.186455 0.530873
O O1 0.631390 0.658976 0.610955
O O2 0.673721 0.674329 0.439655
O O3 0.925339 0.600453 0.382414
O O4 0.025734 0.700094 0.356947
O O5 0.697203 0.277576 0.194654
O O6 0.329988 0.924695 0.494509
O O7 0.054687 0.959805 0.542228
O O8 0.000000 0.971957 0.750000
O O9 0.803200 0.907782 0.770103
O O10 0.922939 0.507761 0.132252
O O11 0.145082 0.570806 0.931169
O O12 0.190483 0.930785 0.310364
O O13 0.703762 0.369307 0.418629
O O14 0.000000 0.449543 0.250000
O O15 0.005317 0.213598 0.092175
O O16 0.729622 0.276254 0.332648
#
# Coordination Sequence:
#
# PCOD9258684 Si02
#       8
#     8   4   8   8   8   8   8   8
#     4  11  21  33  58  89 123 156 202 238 298 368
#     4  10  18  34  50  82 122 158 180 234 306 352
#     4   9  19  40  61  80 115 160 196 244 309 349
#     4  10  21  37  60  91 120 158 207 246 289 363
#     4   9  21  39  58  86 123 160 201 252 303 349
#     4  10  22  41  62  85 115 158 208 248 300 360
#     4  11  19  37  55  85 124 156 187 241 307 365
#     4  11  22  36  61  88 120 160 199 246 304 366
#
# _framework density 25.207046999999999
#
# number of rings (size 3 to 8) (size 9 to 14) (size 15 to 20)
#    0.000    1.867    2.667    1.600    3.733    1.600 
#    3.600    7.333    0.000    2.400    0.000    0.000 
#    0.000    0.000    0.000    0.000    0.000    0.000 
#
# Total GULP energy -167180.734043 kJ/mol
# GULP energy per Si atom -5572.691135 kJ/mol
# Density = 2.514967 g / cm^3
# Si number density = 25.207047 Si / 1000 Ang^3
#
#
#
# Elastic Constant Matrix: (Units=GPa)
#
#
# Indices 1 2 3 4 5 6 
#
# 1 44.7192 32.1445 45.2746 -0.0016 23.9886 -0.0019
# 2 32.1445 79.6959 27.3143 -0.0014 7.7964 -0.0015
# 3 45.2746 27.3143 157.5696 -0.0070 53.4596 -0.0071
# 4 -0.0016 -0.0014 -0.0070 20.8789 0.0038 -9.7555
# 5 23.9886 7.7964 53.4596 0.0038 40.6017 0.0045
# 6 -0.0019 -0.0015 -0.0071 -9.7555 0.0045 18.8111
#
#
#
# Elastic Compliance Matrix: (Units=1/GPa)
#
#
# Indices 1 2 3 4 5 6 
#
# 1 0.049651 -0.016488 -0.004572 0.000010 -0.020149 0.000012
# 2 -0.016488 0.018833 -0.001094 -0.000004 0.007566 -0.000004
# 3 -0.004572 -0.001094 0.012402 0.000013 -0.013419 0.000014
# 4 0.000010 -0.000004 0.000013 0.063213 -0.000032 0.032783
# 5 -0.020149 0.007566 -0.013419 -0.000032 0.052750 -0.000035
# 6 0.000012 -0.000004 0.000014 0.032783 -0.000035 0.070161
#
#
# Mechanical properties :
#
#
# Convention : Reuss Voigt Hill
#
# Bulk Modulus (GPa) = 27.33879 54.60572 40.97225
# Shear Modulus (GPa) = 15.45549 27.87508 21.66529
#
# Velocity S-wave (km/s) = 2.47886 3.32903 2.93489
# Velocity P-wave (km/s) = 4.36603 6.04041 5.27014
#
# Compressibility (1/GPa) = 0.03657807
#
# Stress axis : x y z
#
# Youngs Moduli (GPa) = 20.14077 53.09907 80.63011
#
# Poissons Ratio (x) = 0.87549 0.36863
# Poissons Ratio (y) = 0.33208 0.08820
# Poissons Ratio (z) = 0.09208 0.05809
#
# Static dielectric constant tensor:
#      x y z
#    x 2.144120 0.000000 -0.011420 
#    y 0.000000 2.020840 0.000000 
#    z -0.011420 0.000000 2.039920 
# 
# From -- ./inp_files/201255.got.cif
#   From: 2010.05.17/outbox.cif.g08.bks.cpg/sg15_101_cif.got.tgz:201255.got - 2010.06.03 18:47:42.
