data_PCOD9258518
_publ_section_title
;
Structure prediction by ZEFSAII (Michael W. Deem and Ramdas Pophale) SiO2 
 PCOD9258518
Probable space group: C 2/C
;
_chemical_formula_sum "Si O2"
_cell_formula_units_Z 64
_cell_length_a 19.771175
_cell_length_b 23.571208
_cell_length_c 8.530503
_cell_angle_alpha 90.000000
_cell_angle_beta 114.284220
_cell_angle_gamma 90.000000
_cell_volume 3623.710817
_symmetry_space_group_name_H-M "C 2/C"
_symmetry_group_IT_number 15
_symmetry_cell_setting 'monoclinic'
loop_
_space_group_symop_operation_xyz
x,y,z
-x,y,1/2-z
-x,-y,-z
x,-y,1/2+z
1/2+x,1/2+y,z
1/2-x,1/2+y,1/2-z
1/2-x,1/2-y,-z
1/2+x,1/2-y,1/2+z
loop_
_atom_site_type_symbol
_atom_site_label
_atom_site_fract_x
_atom_site_fract_y
_atom_site_fract_z
Si Si1 0.893535 0.721232 0.762002
Si Si2 0.192977 0.750162 0.299431
Si Si3 0.628029 0.431234 0.541213
Si Si4 0.757211 0.643365 0.673279
Si Si5 0.836484 0.949075 0.286968
Si Si6 0.956142 0.245898 0.977875
Si Si7 0.020434 0.888205 0.951027
Si Si8 0.209688 0.169472 0.283240
O O1 0.841057 0.666970 0.739523
O O2 0.918938 0.732187 0.606185
O O3 0.843742 0.776388 0.750224
O O4 0.964919 0.722630 0.943066
O O5 0.250000 0.750000 0.500000
O O6 0.212369 0.807732 0.224289
O O7 0.103534 0.747792 0.219406
O O8 0.216798 0.695747 0.221039
O O9 0.641775 0.441594 0.372436
O O10 0.659400 0.485462 0.663194
O O11 0.542676 0.418762 0.505453
O O12 0.672048 0.375750 0.636302
O O13 0.738845 0.584151 0.739658
O O14 0.725653 0.643327 0.467336
O O15 0.901153 0.917271 0.444410
O O16 0.974105 0.178837 0.009101
O O17 0.000000 0.894605 0.750000
#
# Coordination Sequence:
#
# PCOD9258518 Si02
#       8
#     8   8   8   8   8   8   8   8
#     4  10  18  33  58  87 114 152 200 243 288 363
#     4  11  21  34  54  84 119 152 197 240 300 359
#     4  12  25  40  56  84 114 160 207 248 295 351
#     4  11  20  37  56  82 114 156 201 248 296 349
#     4  12  25  40  57  78 118 159 209 252 295 350
#     4  11  18  34  57  87 119 156 194 237 299 355
#     4  12  21  37  59  84 118 160 200 241 287 355
#     4  11  19  35  55  81 113 152 193 246 295 352
#
# _framework density 17.661452000000001
#
# number of rings (size 3 to 8) (size 9 to 14) (size 15 to 20)
#    0.000    0.750    6.250    4.500    0.000    0.000 
#    0.000    2.500    0.000    0.000    0.000    0.875 
#    0.000    0.000    0.000    0.250    0.000    0.000 
#
# Total GULP energy -178697.167494 kJ/mol
# GULP energy per Si atom -5584.286484 kJ/mol
# Density = 1.762125 g / cm^3
# Si number density = 17.661452 Si / 1000 Ang^3
#
#
#
# Elastic Constant Matrix: (Units=GPa)
#
#
# Indices 1 2 3 4 5 6 
#
# 1 73.1131 33.4553 20.9089 0.0000 7.3458 0.0000
# 2 33.4553 54.4269 -2.9449 0.0000 -3.1340 0.0000
# 3 20.9089 -2.9449 94.9675 0.0000 0.2563 0.0000
# 4 0.0000 0.0000 0.0000 0.7690 0.0000 7.0855
# 5 7.3458 -3.1340 0.2563 0.0000 31.2693 0.0000
# 6 0.0000 0.0000 0.0000 7.0855 0.0000 17.9692
#
#
#
# Elastic Compliance Matrix: (Units=1/GPa)
#
#
# Indices 1 2 3 4 5 6 
#
# 1 0.022547 -0.014538 -0.005397 0.000000 -0.006710 0.000000
# 2 -0.014538 0.027884 0.004049 0.000000 0.006177 0.000000
# 3 -0.005397 0.004049 0.011839 0.000000 0.001577 0.000000
# 4 0.000000 0.000000 0.000000 -0.493860 0.000000 0.194736
# 5 -0.006710 0.006177 0.001577 0.000000 0.034163 0.000000
# 6 0.000000 0.000000 0.000000 0.194736 0.000000 -0.021136
#
#
# Mechanical properties :
#
#
# Convention : Reuss Voigt Hill
#
# Bulk Modulus (GPa) = 32.78794 36.14955 34.46875
# Shear Modulus (GPa) = -13.27579 21.40739 4.06580
#
# Velocity S-wave (km/s) = -2.74466 3.48530 1.51891
# Velocity P-wave (km/s) = 2.92589 6.05878 4.75761
#
# Compressibility (1/GPa) = 0.03049901
#
# Stress axis : x y z
#
# Youngs Moduli (GPa) = 44.35149 35.86273 84.46347
#
# Poissons Ratio (x) = 0.52136 0.45584
# Poissons Ratio (y) = 0.64477 -0.34197
# Poissons Ratio (z) = 0.23936 -0.14520
#
# Static dielectric constant tensor:
#      x y z
#    x 1.661130 0.000000 -0.001580 
#    y 0.000000 1.578150 0.000000 
#    z -0.001580 0.000000 1.645630 
# 
# From -- ./inp_files/57889.got.cif
#   From: 2010.05.17/outbox.cif.g08.bks.cpg/sg15_29_cif.got.tgz:57889.got - 2010.06.03 18:47:42.
