data_PCOD9258523
_publ_section_title
;
Structure prediction by ZEFSAII (Michael W. Deem and Ramdas Pophale) SiO2 
 PCOD9258523
Probable space group: C 2/C
;
_chemical_formula_sum "Si O2"
_cell_formula_units_Z 44
_cell_length_a 11.432610
_cell_length_b 12.422722
_cell_length_c 27.659711
_cell_angle_alpha 90.000000
_cell_angle_beta 141.337252
_cell_angle_gamma 90.000000
_cell_volume 2454.176021
_symmetry_space_group_name_H-M "C 2/C"
_symmetry_group_IT_number 15
_symmetry_cell_setting 'monoclinic'
loop_
_space_group_symop_operation_xyz
x,y,z
-x,y,1/2-z
-x,-y,-z
x,-y,1/2+z
1/2+x,1/2+y,z
1/2-x,1/2+y,1/2-z
1/2-x,1/2-y,-z
1/2+x,1/2-y,1/2+z
loop_
_atom_site_type_symbol
_atom_site_label
_atom_site_fract_x
_atom_site_fract_y
_atom_site_fract_z
Si Si1 0.688235 0.466195 0.907803
Si Si2 0.411658 0.469563 0.393738
Si Si3 0.057154 0.276163 0.369404
Si Si4 0.500000 0.890864 0.250000
Si Si5 0.074254 0.611695 0.577719
Si Si6 0.487023 0.670849 0.009010
O O1 0.541214 0.538751 0.888905
O O2 0.580077 0.352067 0.869740
O O3 0.767483 0.524609 0.885303
O O4 0.874289 0.444081 0.000490
O O5 0.437671 0.583926 0.428860
O O6 0.483710 0.381093 0.455229
O O7 0.193341 0.455696 0.312951
O O8 0.269033 0.311005 0.450888
O O9 0.001493 0.322614 0.299643
O O10 0.934746 0.331141 0.372548
O O11 0.086404 0.714425 0.545637
#
# Coordination Sequence:
#
# PCOD9258523 Si02
#       6
#     8   8   8   4   8   8
#     4  10  19  33  61  84 113 141 190 238 295 335
#     4  10  18  35  54  84 105 154 185 233 285 350
#     4  10  18  39  54  81 114 155 181 240 288 355
#     4  10  24  36  56  72 114 156 192 214 304 348
#     4  10  18  33  58  90 105 145 186 242 290 344
#     4   9  17  32  62  79 112 141 190 238 291 325
#
# _framework density 17.928623999999999
#
# number of rings (size 3 to 8) (size 9 to 14) (size 15 to 20)
#    0.000    2.182    3.636    1.091    0.000    0.727 
#    3.273    1.818    0.000    0.000    0.000    0.000 
#    0.000    0.000    0.000    0.000    0.000    0.000 
#
# Total GULP energy -122483.879227 kJ/mol
# GULP energy per Si atom -5567.449056 kJ/mol
# Density = 1.788782 g / cm^3
# Si number density = 17.928624 Si / 1000 Ang^3
#
#
#
# Elastic Constant Matrix: (Units=GPa)
#
#
# Indices 1 2 3 4 5 6 
#
# 1 117.7930 57.4334 32.3008 0.0000 -9.9123 0.0000
# 2 57.4334 83.6471 31.7038 0.0000 -7.4924 0.0000
# 3 32.3008 31.7038 67.9962 0.0000 -5.3911 0.0000
# 4 0.0000 0.0000 0.0000 3.4399 0.0000 0.0483
# 5 -9.9123 -7.4924 -5.3911 0.0000 12.9557 0.0000
# 6 0.0000 0.0000 0.0000 0.0483 0.0000 28.4306
#
#
#
# Elastic Compliance Matrix: (Units=1/GPa)
#
#
# Indices 1 2 3 4 5 6 
#
# 1 0.013357 -0.007878 -0.002299 0.000000 0.004707 0.000000
# 2 -0.007878 0.019598 -0.005144 0.000000 0.003165 0.000000
# 3 -0.002299 -0.005144 0.018430 0.000000 0.002935 0.000000
# 4 0.000000 0.000000 0.000000 0.290714 0.000000 -0.000494
# 5 0.004707 0.003165 0.002935 0.000000 0.083839 0.000000
# 6 0.000000 0.000000 0.000000 -0.000494 0.000000 0.035174
#
#
# Mechanical properties :
#
#
# Convention : Reuss Voigt Hill
#
# Bulk Modulus (GPa) = 48.21026 56.92357 52.56692
# Shear Modulus (GPa) = 10.02671 18.83180 14.42926
#
# Velocity S-wave (km/s) = 2.36743 3.24447 2.84001
# Velocity P-wave (km/s) = 5.86698 6.77159 6.33545
#
# Compressibility (1/GPa) = 0.02074247
#
# Stress axis : x y z
#
# Youngs Moduli (GPa) = 74.86579 51.02655 54.25987
#
# Poissons Ratio (x) = 0.40201 0.12472
# Poissons Ratio (y) = 0.58983 0.27911
# Poissons Ratio (z) = 0.17209 0.26248
#
# Static dielectric constant tensor:
#      x y z
#    x 1.642550 0.000000 -0.032540 
#    y 0.000000 1.654960 0.000000 
#    z -0.032540 0.000000 1.614140 
# 
# From -- ./inp_files/195630.got.cif
#   From: 2010.05.17/outbox.cif.g08.bks.cpg/sg15_98_cif.got.tgz:195630.got - 2010.06.03 18:47:42.
