data_PCOD9258830
_publ_section_title
;
Structure prediction by ZEFSAII (Michael W. Deem and Ramdas Pophale) SiO2 
 PCOD9258830
Probable space group: C 2/C
;
_chemical_formula_sum "Si O2"
_cell_formula_units_Z 48
_cell_length_a 14.304787
_cell_length_b 19.345010
_cell_length_c 8.435910
_cell_angle_alpha 90.000000
_cell_angle_beta 114.872061
_cell_angle_gamma 90.000000
_cell_volume 2117.916788
_symmetry_space_group_name_H-M "C 2/C"
_symmetry_group_IT_number 15
_symmetry_cell_setting 'monoclinic'
loop_
_space_group_symop_operation_xyz
x,y,z
-x,y,1/2-z
-x,-y,-z
x,-y,1/2+z
1/2+x,1/2+y,z
1/2-x,1/2+y,1/2-z
1/2-x,1/2-y,-z
1/2+x,1/2-y,1/2+z
loop_
_atom_site_type_symbol
_atom_site_label
_atom_site_fract_x
_atom_site_fract_y
_atom_site_fract_z
Si Si1 0.957874 0.099662 0.065394
Si Si2 0.374206 0.249717 0.582584
Si Si3 0.162422 0.283755 0.776232
Si Si4 0.342551 0.179601 0.880516
Si Si5 0.775173 0.953620 0.215007
Si Si6 0.317392 0.591355 0.391495
O O1 0.912591 0.171857 0.096766
O O2 0.000000 0.058722 0.250000
O O3 0.062598 0.107858 0.043073
O O4 0.868823 0.066132 0.898925
O O5 0.250000 0.250000 0.500000
O O6 0.400315 0.214408 0.432190
O O7 0.397989 0.214221 0.768570
O O8 0.224965 0.211082 0.816573
O O9 0.252909 0.339619 0.824942
O O10 0.113720 0.300592 0.913567
O O11 0.321449 0.098638 0.828593
O O12 0.767242 0.035285 0.237158
O O13 0.803059 0.939135 0.054794
#
# Coordination Sequence:
#
# PCOD9258830 Si02
#       6
#     8   8   8   8   8   8
#     4  12  22  35  51  77 111 150 189 222 277 336
#     4  10  18  34  56  71  99 143 188 243 267 313
#     4   9  18  35  54  75 102 142 187 241 271 320
#     4   9  18  33  57  76  96 147 195 232 272 312
#     4  11  22  38  52  78 117 159 189 221 274 347
#     4  11  24  34  54  80 116 153 186 228 280 338
#
# _framework density 22.663781
#
# number of rings (size 3 to 8) (size 9 to 14) (size 15 to 20)
#    0.000    1.667    3.333    4.000    2.333    0.000 
#    3.000    0.000    0.000    0.000    0.000    0.000 
#    0.000    5.333    8.000    0.000    0.000    0.333 
#
# Total GULP energy -134019.966204 kJ/mol
# GULP energy per Si atom -5584.165259 kJ/mol
# Density = 2.261220 g / cm^3
# Si number density = 22.663781 Si / 1000 Ang^3
#
#
#
# Elastic Constant Matrix: (Units=GPa)
#
#
# Indices 1 2 3 4 5 6 
#
# 1 40.6835 18.5932 27.3373 0.0000 -14.0943 0.0000
# 2 18.5932 77.5922 -7.0653 0.0000 -6.7069 0.0000
# 3 27.3373 -7.0653 157.0235 0.0000 -4.4435 0.0000
# 4 0.0000 0.0000 0.0000 35.5476 0.0000 -6.6230
# 5 -14.0943 -6.7069 -4.4435 0.0000 37.8132 0.0000
# 6 0.0000 0.0000 0.0000 -6.6230 0.0000 19.2666
#
#
#
# Elastic Compliance Matrix: (Units=1/GPa)
#
#
# Indices 1 2 3 4 5 6 
#
# 1 0.036709 -0.008395 -0.006445 0.000000 0.011437 0.000000
# 2 -0.008395 0.015076 0.002134 0.000000 -0.000204 0.000000
# 3 -0.006445 0.002134 0.007554 0.000000 -0.001136 0.000000
# 4 0.000000 0.000000 0.000000 0.030056 0.000000 0.010332
# 5 0.011437 -0.000204 -0.001136 0.000000 0.030539 0.000000
# 6 0.000000 0.000000 0.000000 0.010332 0.000000 0.055455
#
#
# Mechanical properties :
#
#
# Convention : Reuss Voigt Hill
#
# Bulk Modulus (GPa) = 29.47389 39.22550 34.34969
# Shear Modulus (GPa) = 23.57252 34.28776 28.93014
#
# Velocity S-wave (km/s) = 3.22855 3.89381 3.57668
# Velocity P-wave (km/s) = 5.18952 6.12868 5.67855
#
# Compressibility (1/GPa) = 0.03392834
#
# Stress axis : x y z
#
# Youngs Moduli (GPa) = 27.24091 66.32974 132.37283
#
# Poissons Ratio (x) = 0.55683 0.85316
# Poissons Ratio (y) = 0.22868 -0.28250
# Poissons Ratio (z) = 0.17557 -0.14155
#
# Static dielectric constant tensor:
#      x y z
#    x 1.844550 0.000000 -0.026470 
#    y 0.000000 1.872690 0.000000 
#    z -0.026470 0.000000 1.943030 
# 
# From -- ./inp_files/48088.got.cif
#   From: 2010.05.17/outbox.cif.g08.bks.cpg/sg15_25_cif.got.tgz:48088.got - 2010.06.03 18:47:42.
