data_PCOD9258771
_publ_section_title
;
Structure prediction by ZEFSAII (Michael W. Deem and Ramdas Pophale) SiO2 
 PCOD9258771
Probable space group: C 2/C
;
_chemical_formula_sum "Si O2"
_cell_formula_units_Z 36
_cell_length_a 23.704699
_cell_length_b 16.086815
_cell_length_c 15.459434
_cell_angle_alpha 90.000000
_cell_angle_beta 17.611384
_cell_angle_gamma 90.000000
_cell_volume 1783.645610
_symmetry_space_group_name_H-M "C 2/C"
_symmetry_group_IT_number 15
_symmetry_cell_setting 'monoclinic'
loop_
_space_group_symop_operation_xyz
x,y,z
-x,y,1/2-z
-x,-y,-z
x,-y,1/2+z
1/2+x,1/2+y,z
1/2-x,1/2+y,1/2-z
1/2-x,1/2-y,-z
1/2+x,1/2-y,1/2+z
loop_
_atom_site_type_symbol
_atom_site_label
_atom_site_fract_x
_atom_site_fract_y
_atom_site_fract_z
Si Si1 0.712505 0.507030 0.587728
Si Si2 0.000000 0.890781 0.250000
Si Si3 0.676905 0.776592 0.704198
Si Si4 0.918323 0.110455 0.556026
Si Si5 0.556017 0.936370 0.493395
O O1 0.602251 0.552807 0.670894
O O2 0.646790 0.555066 0.768070
O O3 0.930063 0.524734 0.254520
O O4 0.626787 0.414927 0.722590
O O5 0.840363 0.827307 0.514563
O O6 0.750000 0.750000 0.500000
O O7 0.611596 0.702175 0.861431
O O8 0.520690 0.844904 0.914700
O O9 0.771988 0.078785 0.697470
O O10 0.500000 0.000000 0.500000
#
# Coordination Sequence:
#
# PCOD9258771 Si02
#       5
#     8   4   8   8   8
#     4  10  22  36  59  87 119 158 200 245 305 358
#     4  10  18  34  54  84 118 150 200 246 298 362
#     4  11  20  34  60  90 117 153 203 253 297 348
#     4  11  21  37  60  90 122 154 202 258 295 358
#     4  11  23  40  62  89 123 164 200 250 311 363
#
# _framework density 20.183382000000002
#
# number of rings (size 3 to 8) (size 9 to 14) (size 15 to 20)
#    0.000    1.333    4.444    4.667    0.000    0.000 
#    0.000    1.111    0.000    0.000    0.000    0.000 
#    0.000    0.000    0.000    0.000    0.000    0.000 
#
# Total GULP energy -100281.413131 kJ/mol
# GULP energy per Si atom -5571.189618 kJ/mol
# Density = 2.013744 g / cm^3
# Si number density = 20.183382 Si / 1000 Ang^3
#
#
#
# Elastic Constant Matrix: (Units=GPa)
#
#
# Indices 1 2 3 4 5 6 
#
# 1 57.3099 18.6528 -16.1790 -0.0008 -2.1615 0.0003
# 2 18.6528 116.2874 28.6940 -0.0003 13.8015 0.0006
# 3 -16.1790 28.6940 50.2552 -0.0003 -4.3749 0.0010
# 4 -0.0008 -0.0003 -0.0003 39.6593 0.0008 9.6393
# 5 -2.1615 13.8015 -4.3749 0.0008 16.8692 -0.0002
# 6 0.0003 0.0006 0.0010 9.6393 -0.0002 23.7560
#
#
#
# Elastic Compliance Matrix: (Units=1/GPa)
#
#
# Indices 1 2 3 4 5 6 
#
# 1 0.025286 -0.009482 0.014847 0.000000 0.014848 -0.000001
# 2 -0.009482 0.015490 -0.013408 0.000000 -0.017365 0.000000
# 3 0.014847 -0.013408 0.034227 0.000000 0.021749 -0.000001
# 4 0.000000 0.000000 0.000000 0.027974 -0.000001 -0.011351
# 5 0.014848 -0.017365 0.021749 -0.000001 0.081030 0.000001
# 6 -0.000001 0.000000 -0.000001 -0.011351 0.000001 0.046700
#
#
# Mechanical properties :
#
#
# Convention : Reuss Voigt Hill
#
# Bulk Modulus (GPa) = 16.97302 31.79868 24.38585
# Shear Modulus (GPa) = 18.76653 28.90255 23.83454
#
# Velocity S-wave (km/s) = 3.05257 3.78828 3.44015
# Velocity P-wave (km/s) = 4.56639 5.90964 5.28090
#
# Compressibility (1/GPa) = 0.05891702
#
# Stress axis : x y z
#
# Youngs Moduli (GPa) = 39.54701 64.55893 29.21662
#
# Poissons Ratio (x) = 0.61213 -0.43377
# Poissons Ratio (y) = 0.37497 0.39174
# Poissons Ratio (z) = -0.58715 0.86562
#
# Static dielectric constant tensor:
#      x y z
#    x 1.837150 0.000010 0.038920 
#    y 0.000010 1.792600 0.000040 
#    z 0.038920 0.000040 1.915760 
# 
# From -- ./inp_files/84495.got.cif
#   From: 2010.05.17/outbox.cif.g08.bks.cpg/sg15_43_cif.got.tgz:84495.got - 2010.06.03 18:47:42.
