data_PCOD9258640
_publ_section_title
;
Structure prediction by ZEFSAII (Michael W. Deem and Ramdas Pophale) SiO2 
 PCOD9258640
Probable space group: C 2/C
;
_chemical_formula_sum "Si O2"
_cell_formula_units_Z 60
_cell_length_a 13.983407
_cell_length_b 16.791866
_cell_length_c 15.488837
_cell_angle_alpha 90.000000
_cell_angle_beta 115.214391
_cell_angle_gamma 90.000000
_cell_volume 3290.371975
_symmetry_space_group_name_H-M "C 2/C"
_symmetry_group_IT_number 15
_symmetry_cell_setting 'monoclinic'
loop_
_space_group_symop_operation_xyz
x,y,z
-x,y,1/2-z
-x,-y,-z
x,-y,1/2+z
1/2+x,1/2+y,z
1/2-x,1/2+y,1/2-z
1/2-x,1/2-y,-z
1/2+x,1/2-y,1/2+z
loop_
_atom_site_type_symbol
_atom_site_label
_atom_site_fract_x
_atom_site_fract_y
_atom_site_fract_z
Si Si1 0.235597 0.996183 0.430108
Si Si2 0.619760 0.709435 0.642567
Si Si3 0.405516 0.869204 0.953639
Si Si4 0.894801 0.948539 0.458947
Si Si5 0.500000 0.791376 0.750000
Si Si6 0.489368 0.911992 0.336288
Si Si7 0.406895 0.919303 0.603853
Si Si8 0.742605 0.570356 0.753849
O O1 0.320773 0.061421 0.432059
O O2 0.159020 0.038565 0.468993
O O3 0.299954 0.928932 0.508560
O O4 0.192650 0.958932 0.324745
O O5 0.646054 0.788653 0.600338
O O6 0.578891 0.642067 0.559983
O O7 0.539508 0.737163 0.686502
O O8 0.714800 0.662893 0.725866
O O9 0.497424 0.895125 0.923024
O O10 0.463718 0.862100 0.067471
O O11 0.811136 0.972044 0.350115
O O12 0.000000 0.000000 0.500000
O O13 0.410689 0.853220 0.680243
O O14 0.500000 0.867816 0.250000
O O15 0.368655 0.937030 0.306613
O O16 0.561252 0.991723 0.354437
#
# Coordination Sequence:
#
# PCOD9258640 Si02
#       8
#     8   8   8   8   4   8   8   8
#     4  11  20  37  67  93 115 163 200 261 299 362
#     4   9  24  39  57  85 122 164 197 246 305 359
#     4  10  19  37  60  91 129 143 187 256 323 361
#     4  10  25  41  60  82 118 169 216 245 284 357
#     4  10  20  36  62  84 126 162 176 256 312 358
#     4  11  18  33  61  93 122 151 188 253 304 369
#     4  10  18  33  62  98 121 137 196 246 328 361
#     4  10  21  39  62  87 120 160 210 242 303 363
#
# _framework density 18.235021
#
# number of rings (size 3 to 8) (size 9 to 14) (size 15 to 20)
#    0.800    1.067    3.333    2.400    1.867    1.067 
#    0.000    3.333    0.000    0.000    0.000    0.000 
#    0.000    0.000    0.000    0.000    0.000    0.000 
#
# Total GULP energy -167013.632599 kJ/mol
# GULP energy per Si atom -5567.121087 kJ/mol
# Density = 1.819352 g / cm^3
# Si number density = 18.235021 Si / 1000 Ang^3
#
#
#
# Elastic Constant Matrix: (Units=GPa)
#
#
# Indices 1 2 3 4 5 6 
#
# 1 53.2305 20.7278 20.6585 0.0000 -13.6427 0.0000
# 2 20.7278 67.8540 35.5656 0.0000 -8.2673 0.0000
# 3 20.6585 35.5656 111.4001 0.0000 -18.1392 0.0000
# 4 0.0000 0.0000 0.0000 34.9521 0.0000 -3.3217
# 5 -13.6427 -8.2673 -18.1392 0.0000 29.0858 0.0000
# 6 0.0000 0.0000 0.0000 -3.3217 0.0000 14.4910
#
#
#
# Elastic Compliance Matrix: (Units=1/GPa)
#
#
# Indices 1 2 3 4 5 6 
#
# 1 0.023652 -0.005531 -0.001191 0.000000 0.008779 0.000000
# 2 -0.005531 0.019067 -0.005122 0.000000 -0.000369 0.000000
# 3 -0.001191 -0.005122 0.011692 0.000000 0.005277 0.000000
# 4 0.000000 0.000000 0.000000 0.029248 0.000000 0.006704
# 5 0.008779 -0.000369 0.005277 0.000000 0.041685 0.000000
# 6 0.000000 0.000000 0.000000 0.006704 0.000000 0.070545
#
#
# Mechanical properties :
#
#
# Convention : Reuss Voigt Hill
#
# Bulk Modulus (GPa) = 32.54831 42.93203 37.74017
# Shear Modulus (GPa) = 21.75636 26.07462 23.91549
#
# Velocity S-wave (km/s) = 3.45789 3.78553 3.62541
# Velocity P-wave (km/s) = 5.81642 6.53466 6.18597
#
# Compressibility (1/GPa) = 0.03072356
#
# Stress axis : x y z
#
# Youngs Moduli (GPa) = 42.27905 52.44730 85.52946
#
# Poissons Ratio (x) = 0.29011 0.10184
# Poissons Ratio (y) = 0.23387 0.43805
# Poissons Ratio (z) = 0.05034 0.26861
#
# Static dielectric constant tensor:
#      x y z
#    x 1.641110 0.000000 -0.016570 
#    y 0.000000 1.632510 0.000000 
#    z -0.016570 0.000000 1.689210 
# 
# From -- ./inp_files/154909.got.cif
#   From: 2010.05.17/outbox.cif.g08.bks.cpg/sg15_78_cif.got.tgz:154909.got - 2010.06.03 18:47:42.
