data_PCOD9258900
_publ_section_title
;
Structure prediction by ZEFSAII (Michael W. Deem and Ramdas Pophale) SiO2 
 PCOD9258900
Probable space group: C 2/C
;
_chemical_formula_sum "Si O2"
_cell_formula_units_Z 56
_cell_length_a 7.546809
_cell_length_b 17.550073
_cell_length_c 18.657836
_cell_angle_alpha 90.000000
_cell_angle_beta 88.141208
_cell_angle_gamma 90.000000
_cell_volume 2469.874992
_symmetry_space_group_name_H-M "C 2/C"
_symmetry_group_IT_number 15
_symmetry_cell_setting 'monoclinic'
loop_
_space_group_symop_operation_xyz
x,y,z
-x,y,1/2-z
-x,-y,-z
x,-y,1/2+z
1/2+x,1/2+y,z
1/2-x,1/2+y,1/2-z
1/2-x,1/2-y,-z
1/2+x,1/2-y,1/2+z
loop_
_atom_site_type_symbol
_atom_site_label
_atom_site_fract_x
_atom_site_fract_y
_atom_site_fract_z
Si Si1 0.984949 0.676763 0.458166
Si Si2 0.997549 0.844571 0.063860
Si Si3 0.157498 0.557179 0.705745
Si Si4 0.952238 0.520223 0.419460
Si Si5 0.094682 0.305567 0.116055
Si Si6 0.394153 0.363051 0.905181
Si Si7 0.832146 0.021889 0.844231
O O1 0.916833 0.759968 0.437704
O O2 0.887126 0.606949 0.423218
O O3 0.990431 0.672433 0.544592
O O4 0.187061 0.656115 0.429462
O O5 0.800037 0.820550 0.091730
O O6 0.083258 0.908948 0.111770
O O7 0.983867 0.872159 0.981942
O O8 0.077209 0.638502 0.682911
O O9 0.309676 0.550062 0.762428
O O10 0.000000 0.513829 0.750000
O O11 0.192369 0.521900 0.627236
O O12 0.136323 0.495816 0.379354
O O13 0.000000 0.500000 0.500000
O O14 0.051753 0.217410 0.130651
O O15 0.416983 0.438413 0.857285
#
# Coordination Sequence:
#
# PCOD9258900 Si02
#       7
#     8   8   8   8   8   8   8
#     4   8  15  30  55  82  94 126 185 214 253 311
#     4   9  17  31  55  81 104 129 169 226 269 316
#     4  10  21  34  52  72 103 140 178 212 265 320
#     4  10  18  34  57  71  97 143 182 220 254 316
#     4   9  16  32  56  74 101 140 171 209 267 327
#     4   8  16  31  54  77 102 138 169 207 262 325
#     4  10  20  33  50  81 108 132 175 225 270 311
#
# _framework density 22.673214000000002
#
# number of rings (size 3 to 8) (size 9 to 14) (size 15 to 20)
#    0.000    2.857    1.429    2.143    0.000    0.571 
#    2.571    0.714    3.143    0.000    0.000    0.000 
#    0.000    0.000    0.000    0.000    0.000    0.000 
#
# Total GULP energy -155916.169803 kJ/mol
# GULP energy per Si atom -5568.434636 kJ/mol
# Density = 2.262161 g / cm^3
# Si number density = 22.673214 Si / 1000 Ang^3
#
#
#
# Elastic Constant Matrix: (Units=GPa)
#
#
# Indices 1 2 3 4 5 6 
#
# 1 48.9408 -0.0655 0.5699 0.0000 4.1127 0.0000
# 2 -0.0655 219.1466 114.8688 0.0000 31.2972 0.0000
# 3 0.5699 114.8688 165.2964 0.0000 21.6156 0.0000
# 4 0.0000 0.0000 0.0000 31.6373 0.0000 -0.1363
# 5 4.1127 31.2972 21.6156 0.0000 21.8611 0.0000
# 6 0.0000 0.0000 0.0000 -0.1363 0.0000 19.1766
#
#
#
# Elastic Compliance Matrix: (Units=1/GPa)
#
#
# Indices 1 2 3 4 5 6 
#
# 1 0.020851 0.000651 0.000127 0.000000 -0.004980 0.000000
# 2 0.000651 0.007995 -0.004646 0.000000 -0.006974 0.000000
# 3 0.000127 -0.004646 0.009660 0.000000 -0.002924 0.000000
# 4 0.000000 0.000000 0.000000 0.031609 0.000000 0.000225
# 5 -0.004980 -0.006974 -0.002924 0.000000 0.059556 0.000000
# 6 0.000000 0.000000 0.000000 0.000225 0.000000 0.052148
#
#
# Mechanical properties :
#
#
# Convention : Reuss Voigt Hill
#
# Bulk Modulus (GPa) = 32.49961 73.79225 53.14593
# Shear Modulus (GPa) = 25.02354 35.73571 30.37963
#
# Velocity S-wave (km/s) = 3.32574 3.97434 3.66442
# Velocity P-wave (km/s) = 5.39560 7.32647 6.43388
#
# Compressibility (1/GPa) = 0.03076960
#
# Stress axis : x y z
#
# Youngs Moduli (GPa) = 47.95996 125.08537 103.51681
#
# Poissons Ratio (x) = -0.08141 -0.01315
# Poissons Ratio (y) = -0.03122 0.48093
# Poissons Ratio (z) = -0.00609 0.58113
#
# Static dielectric constant tensor:
#      x y z
#    x 2.021560 0.000000 -0.012670 
#    y 0.000000 1.975770 0.000000 
#    z -0.012670 0.000000 1.899930 
# 
# From -- ./inp_files/199286.got.cif
#   From: 2010.05.17/outbox.cif.g08.bks.cpg/sg15_100_cif.got.tgz:199286.got - 2010.06.03 18:47:42.
