data_PCOD9258254
_publ_section_title
;
Structure prediction by ZEFSAII (Michael W. Deem and Ramdas Pophale) SiO2 
 PCOD9258254
Probable space group: C 2/C
;
_chemical_formula_sum "Si O2"
_cell_formula_units_Z 60
_cell_length_a 20.251788
_cell_length_b 9.509970
_cell_length_c 14.465633
_cell_angle_alpha 90.000000
_cell_angle_beta 88.751662
_cell_angle_gamma 90.000000
_cell_volume 2785.331393
_symmetry_space_group_name_H-M "C 2/C"
_symmetry_group_IT_number 15
_symmetry_cell_setting 'monoclinic'
loop_
_space_group_symop_operation_xyz
x,y,z
-x,y,1/2-z
-x,-y,-z
x,-y,1/2+z
1/2+x,1/2+y,z
1/2-x,1/2+y,1/2-z
1/2-x,1/2-y,-z
1/2+x,1/2-y,1/2+z
loop_
_atom_site_type_symbol
_atom_site_label
_atom_site_fract_x
_atom_site_fract_y
_atom_site_fract_z
Si Si1 0.222860 0.138698 0.262032
Si Si2 0.374572 0.152489 0.233685
Si Si3 0.155179 0.914184 0.383346
Si Si4 0.943715 0.835905 0.563494
Si Si5 0.847455 0.615417 0.624367
Si Si6 0.078938 0.134705 0.633015
Si Si7 0.787905 0.977301 0.928772
Si Si8 0.500000 0.589263 0.250000
O O1 0.300336 0.150680 0.276874
O O2 0.182845 0.262764 0.310161
O O3 0.211383 0.134975 0.153460
O O4 0.198412 0.989896 0.303058
O O5 0.372345 0.268723 0.152561
O O6 0.419630 0.218502 0.312161
O O7 0.383022 0.002074 0.185786
O O8 0.198365 0.906679 0.474098
O O9 0.098788 0.026073 0.410168
O O10 0.897895 0.697923 0.558035
O O11 0.966908 0.860710 0.457314
O O12 0.984482 0.821334 0.657865
O O13 0.783877 0.549576 0.575096
O O14 0.151971 0.086408 0.595432
O O15 0.055465 0.016779 0.707142
#
# Coordination Sequence:
#
# PCOD9258254 Si02
#       8
#     8   8   8   8   8   8   8   4
#     4  10  18  33  52  85 124 168 193 234 299 361
#     4  11  19  36  55  85 128 159 200 243 301 362
#     4  10  20  35  57  85 118 161 205 245 292 364
#     4  10  23  39  63  90 116 158 211 253 313 352
#     4  10  21  35  58  92 132 162 187 253 315 368
#     4  11  21  38  64  93 112 161 210 257 296 361
#     4  10  20  35  59  89 125 157 203 243 303 367
#     4  12  22  44  68  86 120 158 220 266 278 362
#
# _framework density 21.541423000000002
#
# number of rings (size 3 to 8) (size 9 to 14) (size 15 to 20)
#    0.000    1.600    4.000    2.000    1.867    3.733 
#    2.400    0.667    0.000    1.600    0.000    0.000 
#    0.000    0.000    0.000    0.000    0.000    0.000 
#
# Total GULP energy -167436.952534 kJ/mol
# GULP energy per Si atom -5581.231751 kJ/mol
# Density = 2.149239 g / cm^3
# Si number density = 21.541423 Si / 1000 Ang^3
#
#
#
# Elastic Constant Matrix: (Units=GPa)
#
#
# Indices 1 2 3 4 5 6 
#
# 1 33.3198 -1.6105 11.2402 0.0000 0.6284 0.0000
# 2 -1.6105 47.1879 7.1600 0.0000 -8.0853 0.0000
# 3 11.2402 7.1600 147.9951 0.0000 21.2919 0.0000
# 4 0.0000 0.0000 0.0000 22.1601 0.0000 1.2034
# 5 0.6284 -8.0853 21.2919 0.0000 23.8756 0.0000
# 6 0.0000 0.0000 0.0000 1.2034 0.0000 18.6041
#
#
#
# Elastic Compliance Matrix: (Units=1/GPa)
#
#
# Indices 1 2 3 4 5 6 
#
# 1 0.030995 0.001872 -0.002774 0.000000 0.002292 0.000000
# 2 0.001872 0.023451 -0.002767 0.000000 0.010360 0.000000
# 3 -0.002774 -0.002767 0.008289 0.000000 -0.008256 0.000000
# 4 0.000000 0.000000 0.000000 0.045285 0.000000 -0.002929
# 5 0.002292 0.010360 -0.008256 0.000000 0.052695 0.000000
# 6 0.000000 0.000000 0.000000 -0.002929 0.000000 0.053941
#
#
# Mechanical properties :
#
#
# Convention : Reuss Voigt Hill
#
# Bulk Modulus (GPa) = 18.05201 29.12025 23.58613
# Shear Modulus (GPa) = 20.79336 27.04218 23.91777
#
# Velocity S-wave (km/s) = 3.11026 3.54695 3.33575
# Velocity P-wave (km/s) = 4.61482 5.50655 5.08029
#
# Compressibility (1/GPa) = 0.05539550
#
# Stress axis : x y z
#
# Youngs Moduli (GPa) = 32.26294 42.64265 120.63571
#
# Poissons Ratio (x) = -0.07981 0.33470
# Poissons Ratio (y) = -0.06038 0.33382
# Poissons Ratio (z) = 0.08951 0.11800
#
# Static dielectric constant tensor:
#      x y z
#    x 1.850400 0.000000 0.044150 
#    y 0.000000 1.760500 0.000000 
#    z 0.044150 0.000000 1.835830 
# 
# From -- ./inp_files/171920.got.cif
#   From: 2010.05.17/outbox.cif.g08.bks.cpg/sg15_86_cif.got.tgz:171920.got - 2010.06.03 18:47:42.
