data_PCOD9258404
_publ_section_title
;
Structure prediction by ZEFSAII (Michael W. Deem and Ramdas Pophale) SiO2 
 PCOD9258404
Probable space group: C 2/C
;
_chemical_formula_sum "Si O2"
_cell_formula_units_Z 48
_cell_length_a 8.906504
_cell_length_b 16.649714
_cell_length_c 18.925090
_cell_angle_alpha 90.000000
_cell_angle_beta 59.700019
_cell_angle_gamma 90.000000
_cell_volume 2423.047283
_symmetry_space_group_name_H-M "C 2/C"
_symmetry_group_IT_number 15
_symmetry_cell_setting 'monoclinic'
loop_
_space_group_symop_operation_xyz
x,y,z
-x,y,1/2-z
-x,-y,-z
x,-y,1/2+z
1/2+x,1/2+y,z
1/2-x,1/2+y,1/2-z
1/2-x,1/2-y,-z
1/2+x,1/2-y,1/2+z
loop_
_atom_site_type_symbol
_atom_site_label
_atom_site_fract_x
_atom_site_fract_y
_atom_site_fract_z
Si Si1 0.185025 0.555655 0.164106
Si Si2 0.590749 0.885084 0.151843
Si Si3 0.817383 0.725537 0.081910
Si Si4 0.618686 0.201284 0.897797
Si Si5 0.941516 0.283021 0.845317
Si Si6 0.476153 0.352123 0.671561
O O1 0.192549 0.468898 0.127019
O O2 0.161234 0.632923 0.119549
O O3 0.350370 0.577364 0.173921
O O4 0.000000 0.552921 0.250000
O O5 0.500000 0.874612 0.250000
O O6 0.717369 0.810427 0.106068
O O7 0.438847 0.878802 0.129104
O O8 0.675215 0.656918 0.097929
O O9 0.898174 0.716131 0.140237
O O10 0.974227 0.721995 0.989956
O O11 0.807591 0.209875 0.887310
O O12 0.611002 0.270899 0.839154
O O13 0.000000 0.279097 0.750000
O O14 0.500000 0.351271 0.750000
#
# Coordination Sequence:
#
# PCOD9258404 Si02
#       6
#     8   8   8   8   8   8
#     4   9  19  34  53  78 106 139 183 232 278 323
#     4  10  19  35  55  78 107 141 180 229 274 318
#     4  11  20  34  55  83 110 140 184 231 271 331
#     4  10  20  34  54  82 110 143 182 225 276 332
#     4  10  19  36  57  77 104 145 184 222 274 339
#     4  10  18  33  56  78 103 146 190 221 266 335
#
# _framework density 19.809766
#
# number of rings (size 3 to 8) (size 9 to 14) (size 15 to 20)
#    0.000    2.000    0.000    8.500    0.000    0.000 
#    0.000   14.167    0.000    2.000    0.000    0.000 
#    0.000    0.000    0.000    0.000    0.000    0.000 
#
# Total GULP energy -133732.240817 kJ/mol
# GULP energy per Si atom -5572.176701 kJ/mol
# Density = 1.976468 g / cm^3
# Si number density = 19.809766 Si / 1000 Ang^3
#
#
#
# Elastic Constant Matrix: (Units=GPa)
#
#
# Indices 1 2 3 4 5 6 
#
# 1 133.3441 37.0778 19.9678 0.0000 -4.2395 0.0000
# 2 37.0778 73.3623 16.2605 0.0000 -1.5558 0.0000
# 3 19.9678 16.2605 69.0931 0.0000 -7.8821 0.0000
# 4 0.0000 0.0000 0.0000 -2.1101 0.0000 -0.7672
# 5 -4.2395 -1.5558 -7.8821 0.0000 31.0780 0.0000
# 6 0.0000 0.0000 0.0000 -0.7672 0.0000 31.6333
#
#
#
# Elastic Compliance Matrix: (Units=1/GPa)
#
#
# Indices 1 2 3 4 5 6 
#
# 1 0.008901 -0.004147 -0.001526 0.000000 0.000620 0.000000
# 2 -0.004147 0.016314 -0.002690 0.000000 -0.000431 0.000000
# 3 -0.001526 -0.002690 0.015970 0.000000 0.003708 0.000000
# 4 0.000000 0.000000 0.000000 -0.469779 0.000000 -0.011394
# 5 0.000620 -0.000431 0.003708 0.000000 0.033180 0.000000
# 6 0.000000 0.000000 0.000000 -0.011394 0.000000 0.031336
#
#
# Mechanical properties :
#
#
# Convention : Reuss Voigt Hill
#
# Bulk Modulus (GPa) = 40.88429 46.93462 43.90946
# Shear Modulus (GPa) = -14.74060 25.61981 5.43961
#
# Velocity S-wave (km/s) = -2.73079 3.60014 1.65888
# Velocity P-wave (km/s) = 3.27724 6.40511 5.08752
#
# Compressibility (1/GPa) = 0.02445927
#
# Stress axis : x y z
#
# Youngs Moduli (GPa) = 112.35045 61.29671 62.61671
#
# Poissons Ratio (x) = 0.25421 0.09553
# Poissons Ratio (y) = 0.46594 0.16844
# Poissons Ratio (z) = 0.17140 0.16489
#
# Static dielectric constant tensor:
#      x y z
#    x 1.778690 0.000000 -0.008990 
#    y 0.000000 1.728770 0.000000 
#    z -0.008990 0.000000 1.726540 
# 
# From -- ./inp_files/134865.got.cif
#   From: 2010.05.17/outbox.cif.g08.bks.cpg/sg15_68_cif.got.tgz:134865.got - 2010.06.03 18:47:42.
