data_PCOD9258867
_publ_section_title
;
Structure prediction by ZEFSAII (Michael W. Deem and Ramdas Pophale) SiO2 
 PCOD9258867
Probable space group: C 2/C
;
_chemical_formula_sum "Si O2"
_cell_formula_units_Z 56
_cell_length_a 16.007711
_cell_length_b 15.747000
_cell_length_c 13.369992
_cell_angle_alpha 90.000000
_cell_angle_beta 55.714012
_cell_angle_gamma 90.000000
_cell_volume 2784.597106
_symmetry_space_group_name_H-M "C 2/C"
_symmetry_group_IT_number 15
_symmetry_cell_setting 'monoclinic'
loop_
_space_group_symop_operation_xyz
x,y,z
-x,y,1/2-z
-x,-y,-z
x,-y,1/2+z
1/2+x,1/2+y,z
1/2-x,1/2+y,1/2-z
1/2-x,1/2-y,-z
1/2+x,1/2-y,1/2+z
loop_
_atom_site_type_symbol
_atom_site_label
_atom_site_fract_x
_atom_site_fract_y
_atom_site_fract_z
Si Si1 0.560255 0.694929 0.813339
Si Si2 0.697569 0.614076 0.343342
Si Si3 0.766969 0.547367 0.512024
Si Si4 0.715545 0.784948 0.415061
Si Si5 0.579545 0.492984 0.281197
Si Si6 0.036241 0.452433 0.123392
Si Si7 0.929961 0.619411 0.113636
O O1 0.500000 0.699967 0.750000
O O2 0.680271 0.699398 0.713783
O O3 0.542959 0.596439 0.856338
O O4 0.537240 0.784484 0.881605
O O5 0.721915 0.575279 0.436191
O O6 0.661501 0.710047 0.392179
O O7 0.615823 0.560600 0.337845
O O8 0.807116 0.615755 0.212730
O O9 0.828091 0.624146 0.525868
O O10 0.678451 0.525573 0.647474
O O11 0.846513 0.474355 0.441854
O O12 0.750000 0.750000 0.500000
O O13 0.500000 0.520912 0.250000
O O14 0.000000 0.409972 0.250000
O O15 0.973199 0.540810 0.150968
O O16 0.032972 0.400914 0.023109
#
# Coordination Sequence:
#
# PCOD9258867 Si02
#       7
#     8   8   8   8   8   8   8
#     4   9  18  32  53  81 115 146 187 241 289 336
#     4  10  18  34  56  84 118 156 197 240 291 341
#     4  10  19  34  56  85 122 149 189 247 290 348
#     4   8  17  29  49  83 111 146 183 234 290 328
#     4  10  21  37  57  85 118 155 200 244 285 341
#     4  11  20  32  54  90 120 151 184 234 304 364
#     4  10  20  31  54  87 117 154 186 238 299 356
#
# _framework density 20.11063
#
# number of rings (size 3 to 8) (size 9 to 14) (size 15 to 20)
#    0.000    2.286    2.857    0.429    4.000    0.571 
#    0.000    0.000    0.000    0.857    7.429    1.000 
#    0.000    0.000    0.000    0.000    0.000    0.000 
#
# Total GULP energy -156036.713516 kJ/mol
# GULP energy per Si atom -5572.739768 kJ/mol
# Density = 2.006486 g / cm^3
# Si number density = 20.110630 Si / 1000 Ang^3
#
#
#
# Elastic Constant Matrix: (Units=GPa)
#
#
# Indices 1 2 3 4 5 6 
#
# 1 75.1130 63.9256 11.0868 0.0000 17.5087 0.0000
# 2 63.9256 105.4800 36.9842 0.0000 18.7643 0.0000
# 3 11.0868 36.9842 87.4338 0.0000 16.0291 0.0000
# 4 0.0000 0.0000 0.0000 12.2717 0.0000 5.2315
# 5 17.5087 18.7643 16.0291 0.0000 30.0987 0.0000
# 6 0.0000 0.0000 0.0000 5.2315 0.0000 33.8499
#
#
#
# Elastic Compliance Matrix: (Units=1/GPa)
#
#
# Indices 1 2 3 4 5 6 
#
# 1 0.030861 -0.019129 0.005855 0.000000 -0.009144 0.000000
# 2 -0.019129 0.023685 -0.007675 0.000000 0.000449 0.000000
# 3 0.005855 -0.007675 0.015170 0.000000 -0.006699 0.000000
# 4 0.000000 0.000000 0.000000 0.087236 0.000000 -0.013482
# 5 -0.009144 0.000449 -0.006699 0.000000 0.041831 0.000000
# 6 0.000000 0.000000 0.000000 -0.013482 0.000000 0.031626
#
#
# Mechanical properties :
#
#
# Convention : Reuss Voigt Hill
#
# Bulk Modulus (GPa) = 35.95093 54.66890 45.30991
# Shear Modulus (GPa) = 17.75704 25.64608 21.70156
#
# Velocity S-wave (km/s) = 2.97470 3.57494 3.28854
# Velocity P-wave (km/s) = 5.45104 6.65457 6.08265
#
# Compressibility (1/GPa) = 0.02781569
#
# Stress axis : x y z
#
# Youngs Moduli (GPa) = 32.40385 42.22125 65.92107
#
# Poissons Ratio (x) = 0.80765 -0.38595
# Poissons Ratio (y) = 0.61985 0.50597
# Poissons Ratio (z) = -0.18972 0.32406
#
# Static dielectric constant tensor:
#      x y z
#    x 1.708710 0.000000 -0.039220 
#    y 0.000000 1.756050 0.000000 
#    z -0.039220 0.000000 1.731700 
# 
# From -- ./inp_files/98664.got.cif
#   From: 2010.05.17/outbox.cif.g08.bks.cpg/sg15_50_cif.got.tgz:98664.got - 2010.06.03 18:47:42.
