data_PCOD9258179
_publ_section_title
;
Structure prediction by ZEFSAII (Michael W. Deem and Ramdas Pophale) SiO2 
 PCOD9258179
Probable space group: C 2/C
;
_chemical_formula_sum "Si O2"
_cell_formula_units_Z 56
_cell_length_a 11.730335
_cell_length_b 26.879853
_cell_length_c 9.188306
_cell_angle_alpha 90.000000
_cell_angle_beta 73.907382
_cell_angle_gamma 90.000000
_cell_volume 2783.636182
_symmetry_space_group_name_H-M "C 2/C"
_symmetry_group_IT_number 15
_symmetry_cell_setting 'monoclinic'
loop_
_space_group_symop_operation_xyz
x,y,z
-x,y,1/2-z
-x,-y,-z
x,-y,1/2+z
1/2+x,1/2+y,z
1/2-x,1/2+y,1/2-z
1/2-x,1/2-y,-z
1/2+x,1/2-y,1/2+z
loop_
_atom_site_type_symbol
_atom_site_label
_atom_site_fract_x
_atom_site_fract_y
_atom_site_fract_z
Si Si1 0.915205 0.706392 0.914109
Si Si2 0.300654 0.054149 0.601246
Si Si3 0.377736 0.362913 0.364943
Si Si4 0.275354 0.534227 0.552438
Si Si5 0.476191 0.612510 0.429090
Si Si6 0.346616 0.295416 0.123028
Si Si7 0.455434 0.907789 0.433686
O O1 0.788104 0.707875 0.879734
O O2 0.944100 0.651194 0.963022
O O3 0.000000 0.719552 0.750000
O O4 0.913459 0.746507 0.043755
O O5 0.239327 0.107713 0.635321
O O6 0.272180 0.030290 0.767018
O O7 0.439328 0.063249 0.520021
O O8 0.230673 0.020241 0.512834
O O9 0.500000 0.384125 0.250000
O O10 0.404028 0.373669 0.524078
O O11 0.363951 0.310231 0.286531
O O12 0.401002 0.562713 0.495799
O O13 0.172740 0.566661 0.507821
O O14 0.500000 0.612229 0.250000
O O15 0.395037 0.657956 0.512927
O O16 0.500000 0.911405 0.250000
#
# Coordination Sequence:
#
# PCOD9258179 Si02
#       7
#     8   8   8   8   8   8   8
#     4  10  18  32  67  98 125 161 215 247 314 385
#     4  11  22  37  62  88 123 164 207 256 315 364
#     4  10  20  39  59  83 126 160 197 255 315 358
#     4  11  22  38  59  90 118 169 209 255 311 371
#     4  11  23  39  61  86 123 162 209 258 314 370
#     4  10  19  37  62  96 124 161 205 257 313 379
#     4   9  18  37  60  90 126 160 204 258 310 372
#
# _framework density 20.117571999999999
#
# number of rings (size 3 to 8) (size 9 to 14) (size 15 to 20)
#    0.000    1.714    4.286    2.571    2.000    1.143 
#    0.000    0.000    0.000   50.571    0.000    0.000 
#    0.000    0.000    0.000    0.000    0.000    0.000 
#
# Total GULP energy -155981.635363 kJ/mol
# GULP energy per Si atom -5570.772692 kJ/mol
# Density = 2.007178 g / cm^3
# Si number density = 20.117572 Si / 1000 Ang^3
#
#
#
# Elastic Constant Matrix: (Units=GPa)
#
#
# Indices 1 2 3 4 5 6 
#
# 1 43.8929 2.5037 7.3925 0.0000 6.0095 0.0000
# 2 2.5037 64.8756 15.5394 0.0000 2.8438 0.0000
# 3 7.3925 15.5394 60.2228 0.0000 15.3513 0.0000
# 4 0.0000 0.0000 0.0000 4.7073 0.0000 -0.1038
# 5 6.0095 2.8438 15.3513 0.0000 23.5391 0.0000
# 6 0.0000 0.0000 0.0000 -0.1038 0.0000 24.6232
#
#
#
# Elastic Compliance Matrix: (Units=1/GPa)
#
#
# Indices 1 2 3 4 5 6 
#
# 1 0.023749 -0.000325 -0.001554 0.000000 -0.005010 0.000000
# 2 -0.000325 0.016451 -0.004461 0.000000 0.001005 0.000000
# 3 -0.001554 -0.004461 0.021239 0.000000 -0.012916 0.000000
# 4 0.000000 0.000000 0.000000 0.212454 0.000000 0.000896
# 5 -0.005010 0.001005 -0.012916 0.000000 0.052063 0.000000
# 6 0.000000 0.000000 0.000000 0.000896 0.000000 0.040616
#
#
# Mechanical properties :
#
#
# Convention : Reuss Voigt Hill
#
# Bulk Modulus (GPa) = 20.50899 24.42917 22.46908
# Shear Modulus (GPa) = 12.64204 20.14432 16.39318
#
# Velocity S-wave (km/s) = 2.50953 3.16781 2.85769
# Velocity P-wave (km/s) = 4.31436 5.05466 4.69911
#
# Compressibility (1/GPa) = 0.04875910
#
# Stress axis : x y z
#
# Youngs Moduli (GPa) = 42.10708 60.78597 47.08267
#
# Poissons Ratio (x) = 0.01973 0.07318
# Poissons Ratio (y) = 0.01367 0.21005
# Poissons Ratio (z) = 0.06545 0.27118
#
# Static dielectric constant tensor:
#      x y z
#    x 1.781450 0.000000 0.048510 
#    y 0.000000 1.718310 0.000000 
#    z 0.048510 0.000000 1.730210 
# 
# From -- ./inp_files/34184.got.cif
#   From: 2010.05.17/outbox.cif.g08.bks.cpg/sg15_18_cif.got.tgz:34184.got - 2010.06.03 18:47:42.
