data_PCOD9258735
_publ_section_title
;
Structure prediction by ZEFSAII (Michael W. Deem and Ramdas Pophale) SiO2 
 PCOD9258735
Probable space group: C 2/C
;
_chemical_formula_sum "Si O2"
_cell_formula_units_Z 56
_cell_length_a 23.004492
_cell_length_b 18.707591
_cell_length_c 21.323580
_cell_angle_alpha 90.000000
_cell_angle_beta 160.607174
_cell_angle_gamma 90.000000
_cell_volume 3047.088021
_symmetry_space_group_name_H-M "C 2/C"
_symmetry_group_IT_number 15
_symmetry_cell_setting 'monoclinic'
loop_
_space_group_symop_operation_xyz
x,y,z
-x,y,1/2-z
-x,-y,-z
x,-y,1/2+z
1/2+x,1/2+y,z
1/2-x,1/2+y,1/2-z
1/2-x,1/2-y,-z
1/2+x,1/2-y,1/2+z
loop_
_atom_site_type_symbol
_atom_site_label
_atom_site_fract_x
_atom_site_fract_y
_atom_site_fract_z
Si Si1 0.321125 0.526978 0.230601
Si Si2 0.183886 0.174681 0.905807
Si Si3 0.394058 0.046279 0.088952
Si Si4 0.509363 0.080639 0.983070
Si Si5 0.993335 0.804425 0.089926
Si Si6 0.604644 0.145235 0.207772
Si Si7 0.878564 0.898351 0.390879
O O1 0.348245 0.460909 0.307404
O O2 0.488293 0.574953 0.419770
O O3 0.269673 0.492694 0.111478
O O4 0.147113 0.573402 0.067807
O O5 0.000000 0.159614 0.750000
O O6 0.144429 0.173608 0.791866
O O7 0.250000 0.250000 0.000000
O O8 0.319125 0.112170 0.053336
O O9 0.500000 0.002743 0.250000
O O10 0.515371 0.082292 0.157772
O O11 0.314552 0.110941 0.776335
O O12 0.597879 0.123874 0.128695
O O13 0.500000 0.000000 0.000000
O O14 0.996143 0.718914 0.101072
O O15 0.044102 0.833415 0.072524
O O16 0.809154 0.836873 0.926516
#
# Coordination Sequence:
#
# PCOD9258735 Si02
#       7
#     8   8   8   8   8   8   8
#     4  10  20  36  55  76 101 134 185 222 278 316
#     4  12  23  37  47  67 103 149 194 221 256 303
#     4  12  23  37  51  74 105 146 185 224 263 316
#     4  10  18  34  54  77 100 136 172 225 274 320
#     4  12  22  34  51  77 105 146 182 228 268 314
#     4  12  22  34  53  77 108 142 183 223 271 321
#     4  10  19  35  56  76 101 133 179 228 275 316
#
# _framework density 18.378202999999999
#
# number of rings (size 3 to 8) (size 9 to 14) (size 15 to 20)
#    0.000    0.857    5.714    5.571    0.000    0.000 
#    2.571    0.000    0.000    0.000    0.000    0.000 
#    0.000    1.143    0.000    0.000    0.000    0.000 
#
# Total GULP energy -156038.841192 kJ/mol
# GULP energy per Si atom -5572.815757 kJ/mol
# Density = 1.833637 g / cm^3
# Si number density = 18.378203 Si / 1000 Ang^3
#
#
#
# Elastic Constant Matrix: (Units=GPa)
#
#
# Indices 1 2 3 4 5 6 
#
# 1 40.6089 10.9553 33.6329 -0.0159 6.3004 -0.0058
# 2 10.9553 15.5719 29.3196 -0.0299 -8.9546 -0.0148
# 3 33.6329 29.3196 130.0732 -0.0279 -5.8207 -0.0149
# 4 -0.0159 -0.0299 -0.0279 25.4483 -0.0179 -1.1857
# 5 6.3004 -8.9546 -5.8207 -0.0179 38.5508 -0.0061
# 6 -0.0058 -0.0148 -0.0149 -1.1857 -0.0061 24.9667
#
#
#
# Elastic Compliance Matrix: (Units=1/GPa)
#
#
# Indices 1 2 3 4 5 6 
#
# 1 0.036968 -0.024514 -0.004589 -0.000020 -0.012429 -0.000013
# 2 -0.024514 0.150709 -0.026063 0.000162 0.035078 0.000084
# 3 -0.004589 -0.026063 0.014611 -0.000020 -0.003098 -0.000009
# 4 -0.000020 0.000162 -0.000020 0.039383 0.000056 0.001870
# 5 -0.012429 0.035078 -0.003098 0.000056 0.035651 0.000027
# 6 -0.000013 0.000084 -0.000009 0.001870 0.000027 0.040142
#
#
# Mechanical properties :
#
#
# Convention : Reuss Voigt Hill
#
# Bulk Modulus (GPa) = 10.87490 37.11884 23.99687
# Shear Modulus (GPa) = 10.90640 25.28290 18.09465
#
# Velocity S-wave (km/s) = 2.43871 3.71307 3.14119
# Velocity P-wave (km/s) = 3.72288 6.21478 5.12267
#
# Compressibility (1/GPa) = 0.09195488
#
# Stress axis : x y z
#
# Youngs Moduli (GPa) = 27.05070 6.63532 68.44297
#
# Poissons Ratio (x) = 0.16266 0.31410
# Poissons Ratio (y) = 0.66313 1.78380
# Poissons Ratio (z) = 0.12414 0.17293
#
# Static dielectric constant tensor:
#      x y z
#    x 1.678130 0.000050 0.015340 
#    y 0.000050 1.697500 -0.000090 
#    z 0.015340 -0.000090 1.643380 
# 
# From -- ./inp_files/255934.got.cif
#   From: 2010.05.17/outbox.cif.g08.bks.cpg/sg15_128_cif.got.tgz:255934.got - 2010.06.03 18:47:42.
