data_PCOD9258685
_publ_section_title
;
Structure prediction by ZEFSAII (Michael W. Deem and Ramdas Pophale) SiO2 
 PCOD9258685
Probable space group: C 2/C
;
_chemical_formula_sum "Si O2"
_cell_formula_units_Z 60
_cell_length_a 10.307775
_cell_length_b 28.450871
_cell_length_c 9.846318
_cell_angle_alpha 90.000000
_cell_angle_beta 123.444364
_cell_angle_gamma 90.000000
_cell_volume 2409.460307
_symmetry_space_group_name_H-M "C 2/C"
_symmetry_group_IT_number 15
_symmetry_cell_setting 'monoclinic'
loop_
_space_group_symop_operation_xyz
x,y,z
-x,y,1/2-z
-x,-y,-z
x,-y,1/2+z
1/2+x,1/2+y,z
1/2-x,1/2+y,1/2-z
1/2-x,1/2-y,-z
1/2+x,1/2-y,1/2+z
loop_
_atom_site_type_symbol
_atom_site_label
_atom_site_fract_x
_atom_site_fract_y
_atom_site_fract_z
Si Si1 0.411702 0.207321 0.019569
Si Si2 0.000000 0.944742 0.750000
Si Si3 0.349796 0.688545 0.439828
Si Si4 0.814747 0.442456 0.278467
Si Si5 0.468146 0.588271 0.527298
Si Si6 0.270074 0.010946 0.008287
Si Si7 0.657904 0.162268 0.779271
Si Si8 0.752421 0.299163 0.915109
O O1 0.326838 0.186382 0.101939
O O2 0.580260 0.192594 0.062089
O O3 0.416282 0.263217 0.037670
O O4 0.300152 0.192656 0.827617
O O5 0.019650 0.915334 0.626929
O O6 0.849719 0.977321 0.641052
O O7 0.433107 0.641903 0.540164
O O8 0.356197 0.695716 0.279619
O O9 0.628408 0.431692 0.181011
O O10 0.873274 0.464341 0.452764
O O11 0.877749 0.390596 0.286987
O O12 0.834402 0.478378 0.165421
O O13 0.330287 0.553082 0.486207
O O14 0.500000 0.183598 0.750000
O O15 0.769509 0.163949 0.974153
O O16 0.750000 0.250000 0.000000
#
# Coordination Sequence:
#
# PCOD9258685 Si02
#       8
#     8   4   8   8   8   8   8   8
#     4  10  23  44  59  87 132 164 198 261 313 359
#     4  10  18  34  50  84 128 152 184 250 314 360
#     4  11  24  38  64  93 123 162 210 249 306 381
#     4  11  22  37  64  88 125 164 204 259 317 379
#     4  11  22  33  59  93 124 157 203 250 314 379
#     4  11  19  38  57  88 126 159 192 252 330 366
#     4  10  23  43  61  86 122 164 209 257 314 360
#     4  11  23  40  64  87 120 166 209 256 307 357
#
# _framework density 24.901843
#
# number of rings (size 3 to 8) (size 9 to 14) (size 15 to 20)
#    0.000    1.333    4.000    2.000    5.600    0.000 
#    0.000    2.000    0.000    1.600    0.000    0.000 
#    0.000    0.000    0.000    0.000    0.000    0.000 
#
# Total GULP energy -167764.207293 kJ/mol
# GULP energy per Si atom -5592.140243 kJ/mol
# Density = 2.484517 g / cm^3
# Si number density = 24.901843 Si / 1000 Ang^3
#
#
#
# Elastic Constant Matrix: (Units=GPa)
#
#
# Indices 1 2 3 4 5 6 
#
# 1 64.4143 35.9623 32.7971 0.0000 -7.7833 0.0000
# 2 35.9623 146.8598 36.2404 0.0000 -18.0861 0.0000
# 3 32.7971 36.2404 103.0100 0.0000 -36.4433 0.0000
# 4 0.0000 0.0000 0.0000 15.3146 0.0000 -3.7184
# 5 -7.7833 -18.0861 -36.4433 0.0000 30.4914 0.0000
# 6 0.0000 0.0000 0.0000 -3.7184 0.0000 38.2047
#
#
#
# Elastic Compliance Matrix: (Units=1/GPa)
#
#
# Indices 1 2 3 4 5 6 
#
# 1 0.020742 -0.004001 -0.007213 0.000000 -0.005699 0.000000
# 2 -0.004001 0.008317 -0.000465 0.000000 0.003357 0.000000
# 3 -0.007213 -0.000465 0.019785 0.000000 0.021530 0.000000
# 4 0.000000 0.000000 0.000000 0.066877 0.000000 0.006509
# 5 -0.005699 0.003357 0.021530 0.000000 0.059065 0.000000
# 6 0.000000 0.000000 0.000000 0.006509 0.000000 0.026808
#
#
# Mechanical properties :
#
#
# Convention : Reuss Voigt Hill
#
# Bulk Modulus (GPa) = 39.23593 58.25374 48.74484
# Shear Modulus (GPa) = 21.41817 30.75442 26.08630
#
# Velocity S-wave (km/s) = 2.93593 3.51811 3.24012
# Velocity P-wave (km/s) = 5.22335 6.32036 5.79786
#
# Compressibility (1/GPa) = 0.02548684
#
# Stress axis : x y z
#
# Youngs Moduli (GPa) = 48.21109 120.23498 50.54452
#
# Poissons Ratio (x) = 0.48109 0.36456
# Poissons Ratio (y) = 0.19290 0.02348
# Poissons Ratio (z) = 0.34773 0.05586
#
# Static dielectric constant tensor:
#      x y z
#    x 2.060690 0.000000 0.066600 
#    y 0.000000 1.935780 0.000000 
#    z 0.066600 0.000000 2.091950 
# 
# From -- ./inp_files/35726.got.cif
#   From: 2010.05.17/outbox.cif.g08.bks.cpg/sg15_18_cif.got.tgz:35726.got - 2010.06.03 18:47:42.
