data_PCOD9258070
_publ_section_title
;
Structure prediction by ZEFSAII (Michael W. Deem and Ramdas Pophale) SiO2 
 PCOD9258070
Probable space group: C 2/C
;
_chemical_formula_sum "Si O2"
_cell_formula_units_Z 56
_cell_length_a 9.755551
_cell_length_b 21.160957
_cell_length_c 29.158772
_cell_angle_alpha 90.000000
_cell_angle_beta 149.738860
_cell_angle_gamma 90.000000
_cell_volume 3033.449903
_symmetry_space_group_name_H-M "C 2/C"
_symmetry_group_IT_number 15
_symmetry_cell_setting 'monoclinic'
loop_
_space_group_symop_operation_xyz
x,y,z
-x,y,1/2-z
-x,-y,-z
x,-y,1/2+z
1/2+x,1/2+y,z
1/2-x,1/2+y,1/2-z
1/2-x,1/2-y,-z
1/2+x,1/2-y,1/2+z
loop_
_atom_site_type_symbol
_atom_site_label
_atom_site_fract_x
_atom_site_fract_y
_atom_site_fract_z
Si Si1 0.953733 0.858434 0.869599
Si Si2 0.329826 0.315291 0.124781
Si Si3 0.500000 0.236083 0.250000
Si Si4 0.311799 0.346241 0.355699
Si Si5 0.203939 0.747274 0.071850
Si Si6 0.500000 0.043266 0.250000
Si Si7 0.274621 0.540195 0.907897
Si Si8 0.582431 0.867876 0.424421
O O1 0.757251 0.806554 0.835509
O O2 0.741356 0.913899 0.797803
O O3 0.115597 0.816866 0.878695
O O4 0.172293 0.881579 0.969484
O O5 0.543909 0.275801 0.216876
O O6 0.493194 0.347618 0.131521
O O7 0.179592 0.357695 0.119630
O O8 0.088938 0.273160 0.032924
O O9 0.322250 0.279970 0.386272
O O10 0.400734 0.400802 0.416544
O O11 0.000000 0.356864 0.250000
O O12 0.337068 0.801869 0.077786
O O13 0.374552 0.002258 0.172860
O O14 0.074031 0.575761 0.885539
O O15 0.500000 0.500000 0.000000
#
# Coordination Sequence:
#
# PCOD9258070 Si02
#       8
#     8   8   4   8   8   4   8   8
#     4  10  18  32  58  91 113 152 200 239 295 364
#     4  11  21  34  58  92 120 159 192 241 317 362
#     4  11  18  28  54  90 124 144 185 238 294 373
#     4  11  24  38  60  88 121 156 198 256 307 360
#     4  10  19  38  56  90 124 151 188 244 305 372
#     4  11  22  36  64  92 116 166 207 252 298 363
#     4  11  23  42  60  84 118 162 214 250 296 352
#     4  10  19  37  61  85 118 158 199 247 289 367
#
# _framework density 18.460829
#
# number of rings (size 3 to 8) (size 9 to 14) (size 15 to 20)
#    0.000    1.429    5.000    2.143    2.000    0.000 
#    0.000    2.143    0.000    0.000    3.714    0.000 
#    0.000    0.000    0.000    0.000    0.000    0.000 
#
# Total GULP energy -156103.311533 kJ/mol
# GULP energy per Si atom -5575.118269 kJ/mol
# Density = 1.841881 g / cm^3
# Si number density = 18.460829 Si / 1000 Ang^3
#
#
#
# Elastic Constant Matrix: (Units=GPa)
#
#
# Indices 1 2 3 4 5 6 
#
# 1 126.1065 45.7905 31.2527 -0.0004 6.8129 0.0001
# 2 45.7905 89.8406 40.7069 0.0007 -6.4032 0.0017
# 3 31.2527 40.7069 89.0371 0.0033 -2.8491 0.0042
# 4 -0.0004 0.0007 0.0033 13.8904 0.0007 -13.0463
# 5 6.8129 -6.4032 -2.8491 0.0007 26.8991 0.0017
# 6 0.0001 0.0017 0.0042 -13.0463 0.0017 26.4570
#
#
#
# Elastic Compliance Matrix: (Units=1/GPa)
#
#
# Indices 1 2 3 4 5 6 
#
# 1 0.010270 -0.004822 -0.001525 0.000003 -0.003911 0.000002
# 2 -0.004822 0.016497 -0.005704 0.000000 0.004544 -0.000001
# 3 -0.001525 -0.005704 0.014392 -0.000009 0.000553 -0.000007
# 4 0.000003 0.000000 -0.000009 0.134101 -0.000010 0.066127
# 5 -0.003911 0.004544 0.000553 -0.000010 0.039307 -0.000008
# 6 0.000002 -0.000001 -0.000007 0.066127 -0.000008 0.070405
#
#
# Mechanical properties :
#
#
# Convention : Reuss Voigt Hill
#
# Bulk Modulus (GPa) = 58.63066 60.05382 59.34224
# Shear Modulus (GPa) = 15.88506 25.93158 20.90832
#
# Velocity S-wave (km/s) = 2.93657 3.75197 3.36903
# Velocity P-wave (km/s) = 6.58227 7.16734 6.88103
#
# Compressibility (1/GPa) = 0.01705592
#
# Stress axis : x y z
#
# Youngs Moduli (GPa) = 97.37060 60.61682 69.48133
#
# Poissons Ratio (x) = 0.29230 0.10599
# Poissons Ratio (y) = 0.46953 0.39634
# Poissons Ratio (z) = 0.14853 0.34578
#
# Static dielectric constant tensor:
#      x y z
#    x 1.630220 0.000000 0.003290 
#    y 0.000000 1.663030 0.000000 
#    z 0.003290 0.000000 1.650280 
# 
# From -- ./inp_files/192055.got.cif
#   From: 2010.05.17/outbox.cif.g08.bks.cpg/sg15_97_cif.got.tgz:192055.got - 2010.06.03 18:47:42.
