data_PCOD9258750
_publ_section_title
;
Structure prediction by ZEFSAII (Michael W. Deem and Ramdas Pophale) SiO2 
 PCOD9258750
Probable space group: C 2/C
;
_chemical_formula_sum "Si O2"
_cell_formula_units_Z 40
_cell_length_a 16.968061
_cell_length_b 14.052842
_cell_length_c 8.116738
_cell_angle_alpha 90.000000
_cell_angle_beta 55.951466
_cell_angle_gamma 90.000000
_cell_volume 1603.628461
_symmetry_space_group_name_H-M "C 2/C"
_symmetry_group_IT_number 15
_symmetry_cell_setting 'monoclinic'
loop_
_space_group_symop_operation_xyz
x,y,z
-x,y,1/2-z
-x,-y,-z
x,-y,1/2+z
1/2+x,1/2+y,z
1/2-x,1/2+y,1/2-z
1/2-x,1/2-y,-z
1/2+x,1/2-y,1/2+z
loop_
_atom_site_type_symbol
_atom_site_label
_atom_site_fract_x
_atom_site_fract_y
_atom_site_fract_z
Si Si1 0.746797 0.863273 0.190752
Si Si2 0.889565 0.368628 0.849194
Si Si3 0.590059 0.662838 0.552295
Si Si4 0.270665 0.866612 0.671700
Si Si5 0.034223 0.899112 0.527795
O O1 0.676252 0.900198 0.417776
O O2 0.749460 0.747534 0.187913
O O3 0.723862 0.895226 0.027922
O O4 0.853791 0.888945 0.116739
O O5 0.879754 0.253483 0.880030
O O6 0.853659 0.389518 0.705750
O O7 0.000000 0.393574 0.750000
O O8 0.500000 0.616411 0.750000
O O9 0.676817 0.601356 0.385199
O O10 0.528520 0.690769 0.465100
O O11 0.000000 0.900164 0.750000
O O12 0.000000 0.000000 0.500000
#
# Coordination Sequence:
#
# PCOD9258750 Si02
#       5
#     8   8   8   8   8
#     4  10  20  36  55  83 118 156 203 248 297 358
#     4  10  20  34  56  87 118 154 192 251 311 349
#     4  10  18  34  54  80 120 158 196 242 301 365
#     4  10  19  33  57  82 117 159 197 252 301 354
#     4  12  24  38  56  85 123 165 203 239 300 373
#
# _framework density 24.943432000000001
#
# number of rings (size 3 to 8) (size 9 to 14) (size 15 to 20)
#    0.000    1.600    2.000    6.600    0.000    0.800 
#    0.000    0.000    0.000    0.000    0.000    5.600 
#    0.000    0.000    0.000    0.000    0.000    0.000 
#
# Total GULP energy -111469.085665 kJ/mol
# GULP energy per Si atom -5573.454283 kJ/mol
# Density = 2.488666 g / cm^3
# Si number density = 24.943432 Si / 1000 Ang^3
#
#
#
# Elastic Constant Matrix: (Units=GPa)
#
#
# Indices 1 2 3 4 5 6 
#
# 1 200.4774 7.5751 75.4886 0.0000 -2.2904 0.0000
# 2 7.5751 53.8572 -2.6144 0.0000 11.2262 0.0000
# 3 75.4886 -2.6144 131.5071 0.0000 -10.9344 0.0000
# 4 0.0000 0.0000 0.0000 26.2203 0.0000 10.8997
# 5 -2.2904 11.2262 -10.9344 0.0000 57.3921 0.0000
# 6 0.0000 0.0000 0.0000 10.8997 0.0000 26.3939
#
#
#
# Elastic Compliance Matrix: (Units=1/GPa)
#
#
# Indices 1 2 3 4 5 6 
#
# 1 0.006430 -0.001033 -0.003732 0.000000 -0.000252 0.000000
# 2 -0.001033 0.019523 0.000671 0.000000 -0.003732 0.000000
# 3 -0.003732 0.000671 0.009893 0.000000 0.001605 0.000000
# 4 0.000000 0.000000 0.000000 0.046042 0.000000 -0.019014
# 5 -0.000252 -0.003732 0.001605 0.000000 0.018450 0.000000
# 6 0.000000 0.000000 0.000000 -0.019014 0.000000 0.045740
#
#
# Mechanical properties :
#
#
# Convention : Reuss Voigt Hill
#
# Bulk Modulus (GPa) = 36.15660 60.74892 48.45276
# Shear Modulus (GPa) = 30.58358 42.36073 36.47216
#
# Velocity S-wave (km/s) = 3.50539 4.12548 3.82801
# Velocity P-wave (km/s) = 5.55973 6.86297 6.24544
#
# Compressibility (1/GPa) = 0.02765746
#
# Stress axis : x y z
#
# Youngs Moduli (GPa) = 155.53033 51.22044 101.07797
#
# Poissons Ratio (x) = 0.05291 0.37725
# Poissons Ratio (y) = 0.16065 -0.06779
# Poissons Ratio (z) = 0.58049 -0.03435
#
# Static dielectric constant tensor:
#      x y z
#    x 2.261450 0.000000 0.136020 
#    y 0.000000 2.136540 0.000000 
#    z 0.136020 0.000000 2.195550 
# 
# From -- ./inp_files/38952.got.cif
#   From: 2010.05.17/outbox.cif.g08.bks.cpg/sg15_20_cif.got.tgz:38952.got - 2010.06.03 18:47:42.
