data_PCOD9258940
_publ_section_title
;
Structure prediction by ZEFSAII (Michael W. Deem and Ramdas Pophale) SiO2 
 PCOD9258940
Probable space group: C 2/C
;
_chemical_formula_sum "Si O2"
_cell_formula_units_Z 48
_cell_length_a 19.801304
_cell_length_b 8.048555
_cell_length_c 13.714987
_cell_angle_alpha 90.000000
_cell_angle_beta 53.761365
_cell_angle_gamma 90.000000
_cell_volume 1762.969502
_symmetry_space_group_name_H-M "C 2/C"
_symmetry_group_IT_number 15
_symmetry_cell_setting 'monoclinic'
loop_
_space_group_symop_operation_xyz
x,y,z
-x,y,1/2-z
-x,-y,-z
x,-y,1/2+z
1/2+x,1/2+y,z
1/2-x,1/2+y,1/2-z
1/2-x,1/2-y,-z
1/2+x,1/2-y,1/2+z
loop_
_atom_site_type_symbol
_atom_site_label
_atom_site_fract_x
_atom_site_fract_y
_atom_site_fract_z
Si Si1 0.542050 0.680959 0.957282
Si Si2 0.080991 0.479369 0.226624
Si Si3 0.757335 0.938795 0.526168
Si Si4 0.628252 0.140760 0.875216
Si Si5 0.920390 0.129401 0.352792
Si Si6 0.201714 0.995006 0.777972
O O1 0.458800 0.792512 0.002692
O O2 0.572420 0.705369 0.043956
O O3 0.500000 0.500000 0.000000
O O4 0.628395 0.633432 0.826495
O O5 0.163045 0.503901 0.094534
O O6 0.096370 0.501741 0.327498
O O7 0.071576 0.282021 0.226996
O O8 0.000000 0.562087 0.250000
O O9 0.750000 0.750000 0.500000
O O10 0.834243 0.033218 0.411328
O O11 0.777126 0.978033 0.623653
O O12 0.712018 0.053080 0.846907
O O13 0.669550 0.306673 0.791393
O O14 0.000000 0.019071 0.250000
#
# Coordination Sequence:
#
# PCOD9258940 Si02
#       6
#     8   8   8   8   8   8
#     4   9  17  34  56  79 115 147 183 237 284 339
#     4  10  19  35  62  87 111 149 193 242 275 343
#     4  10  22  37  54  84 120 151 186 240 293 342
#     4  10  18  37  58  83 116 147 193 234 285 342
#     4  10  18  34  57  87 105 151 201 227 287 338
#     4   9  21  35  59  83 115 154 188 237 288 337
#
# _framework density 27.226790999999999
#
# number of rings (size 3 to 8) (size 9 to 14) (size 15 to 20)
#    0.000    2.333    3.333    0.500    0.000    2.000 
#    0.000    0.833   14.667    0.000    0.000    0.000 
#    0.000    0.000    0.000    0.000    0.000    0.000 
#
# Total GULP energy -133814.117869 kJ/mol
# GULP energy per Si atom -5575.588245 kJ/mol
# Density = 2.716482 g / cm^3
# Si number density = 27.226791 Si / 1000 Ang^3
#
#
#
# Elastic Constant Matrix: (Units=GPa)
#
#
# Indices 1 2 3 4 5 6 
#
# 1 123.8427 12.6887 60.4766 0.0000 -61.8181 0.0000
# 2 12.6887 70.2436 16.8918 0.0001 -30.8973 0.0000
# 3 60.4766 16.8918 128.7429 0.0000 -52.2402 0.0000
# 4 0.0000 0.0001 0.0000 2.3711 0.0000 0.3338
# 5 -61.8181 -30.8973 -52.2402 0.0000 69.4757 0.0000
# 6 0.0000 0.0000 0.0000 0.3338 0.0000 31.2400
#
#
#
# Elastic Compliance Matrix: (Units=1/GPa)
#
#
# Indices 1 2 3 4 5 6 
#
# 1 0.015811 0.003896 -0.002197 0.000000 0.014149 0.000000
# 2 0.003896 0.018800 0.000723 -0.000001 0.012371 0.000000
# 3 -0.002197 0.000723 0.011573 0.000000 0.007068 0.000000
# 4 0.000000 -0.000001 0.000000 0.422377 0.000000 -0.004513
# 5 0.014149 0.012371 0.007068 0.000000 0.037799 0.000000
# 6 0.000000 0.000000 0.000000 -0.004513 0.000000 0.032058
#
#
# Mechanical properties :
#
#
# Convention : Reuss Voigt Hill
#
# Bulk Modulus (GPa) = 19.59732 55.88259 37.73996
# Shear Modulus (GPa) = 9.08126 36.13551 22.60839
#
# Velocity S-wave (km/s) = 1.82829 3.64703 2.88475
# Velocity P-wave (km/s) = 3.41618 6.18901 4.99871
#
# Compressibility (1/GPa) = 0.05102738
#
# Stress axis : x y z
#
# Youngs Moduli (GPa) = 63.24606 53.19148 86.40925
#
# Poissons Ratio (x) = -0.20722 0.18986
# Poissons Ratio (y) = -0.24639 -0.06248
# Poissons Ratio (z) = 0.13896 -0.03846
#
# Static dielectric constant tensor:
#      x y z
#    x 2.136970 0.000000 0.519640 
#    y 0.000000 2.792050 0.000000 
#    z 0.519640 0.000000 1.782690 
# 
# From -- ./inp_files/213716.got.cif
#   From: 2010.05.17/outbox.cif.g08.bks.cpg/sg15_107_cif.got.tgz:213716.got - 2010.06.03 18:47:42.
