data_PCOD9258425
_publ_section_title
;
Structure prediction by ZEFSAII (Michael W. Deem and Ramdas Pophale) SiO2 
 PCOD9258425
Probable space group: C 2/C
;
_chemical_formula_sum "Si O2"
_cell_formula_units_Z 52
_cell_length_a 7.388703
_cell_length_b 16.069069
_cell_length_c 28.704513
_cell_angle_alpha 90.000000
_cell_angle_beta 48.967959
_cell_angle_gamma 90.000000
_cell_volume 2570.855882
_symmetry_space_group_name_H-M "C 2/C"
_symmetry_group_IT_number 15
_symmetry_cell_setting 'monoclinic'
loop_
_space_group_symop_operation_xyz
x,y,z
-x,y,1/2-z
-x,-y,-z
x,-y,1/2+z
1/2+x,1/2+y,z
1/2-x,1/2+y,1/2-z
1/2-x,1/2-y,-z
1/2+x,1/2-y,1/2+z
loop_
_atom_site_type_symbol
_atom_site_label
_atom_site_fract_x
_atom_site_fract_y
_atom_site_fract_z
Si Si1 0.569549 0.826090 0.290164
Si Si2 0.000000 0.279147 0.750000
Si Si3 0.745584 0.280988 0.882329
Si Si4 0.043836 0.400664 0.386859
Si Si5 0.998791 0.548748 0.451538
Si Si6 0.494014 0.367964 0.497511
Si Si7 0.883540 0.273095 0.595292
O O1 0.500000 0.849241 0.250000
O O2 0.820543 0.778632 0.250597
O O3 0.578249 0.900128 0.325742
O O4 0.368733 0.764410 0.345644
O O5 0.159162 0.319985 0.682311
O O6 0.654758 0.186621 0.886904
O O7 0.547865 0.334782 0.943089
O O8 0.954025 0.278783 0.885995
O O9 0.133741 0.485012 0.394401
O O10 0.761765 0.401626 0.446793
O O11 0.726287 0.573444 0.481328
O O12 0.000000 0.500000 0.500000
O O13 0.129021 0.637664 0.427168
O O14 0.497766 0.290264 0.461249
#
# Coordination Sequence:
#
# PCOD9258425 Si02
#       7
#     8   4   8   8   8   8   8
#     4  10  20  39  63  85 116 153 207 244 285 348
#     4  10  20  32  60  90 106 154 196 244 286 340
#     4  10  18  33  56  84 115 145 204 234 288 349
#     4  10  21  34  58  88 117 152 194 242 306 353
#     4  11  21  35  56  87 127 152 188 244 314 355
#     4  10  20  35  57  86 115 154 195 243 287 355
#     4  10  20  36  62  86 114 155 197 245 294 345
#
# _framework density 20.226727
#
# number of rings (size 3 to 8) (size 9 to 14) (size 15 to 20)
#    0.000    1.846    1.538    4.615    0.000    2.462 
#    0.000    0.000   13.538    0.000    0.000    0.000 
#    0.000    0.000    0.000    0.000    0.000    0.000 
#
# Total GULP energy -145008.896139 kJ/mol
# GULP energy per Si atom -5577.265236 kJ/mol
# Density = 2.018069 g / cm^3
# Si number density = 20.226727 Si / 1000 Ang^3
#
#
#
# Elastic Constant Matrix: (Units=GPa)
#
#
# Indices 1 2 3 4 5 6 
#
# 1 65.9015 14.1729 17.7384 0.0008 19.9125 -0.0004
# 2 14.1729 93.9961 30.1262 0.0010 25.3188 -0.0007
# 3 17.7384 30.1262 125.9426 0.0020 33.8446 -0.0012
# 4 0.0008 0.0010 0.0020 16.0591 -0.0010 6.7570
# 5 19.9125 25.3188 33.8446 -0.0010 46.2779 0.0004
# 6 -0.0004 -0.0007 -0.0012 6.7570 0.0004 21.4005
#
#
#
# Elastic Compliance Matrix: (Units=1/GPa)
#
#
# Indices 1 2 3 4 5 6 
#
# 1 0.017505 -0.000647 -0.000475 -0.000002 -0.006831 0.000001
# 2 -0.000647 0.012712 -0.001438 -0.000001 -0.005625 0.000001
# 3 -0.000475 -0.001438 0.010062 -0.000002 -0.006368 0.000001
# 4 -0.000002 -0.000001 -0.000002 0.071810 0.000005 -0.022673
# 5 -0.006831 -0.005625 -0.006368 0.000005 0.032282 -0.000003
# 6 0.000001 0.000001 0.000001 -0.022673 -0.000003 0.053887
#
#
# Mechanical properties :
#
#
# Convention : Reuss Voigt Hill
#
# Bulk Modulus (GPa) = 28.44262 45.54612 36.99437
# Shear Modulus (GPa) = 23.24515 31.66769 27.45642
#
# Velocity S-wave (km/s) = 3.39371 3.96110 3.68833
# Velocity P-wave (km/s) = 5.42667 6.59448 6.03887
#
# Compressibility (1/GPa) = 0.03515850
#
# Stress axis : x y z
#
# Youngs Moduli (GPa) = 57.12606 78.66380 99.38166
#
# Poissons Ratio (x) = 0.05092 0.04722
# Poissons Ratio (y) = 0.03698 0.14293
# Poissons Ratio (z) = 0.02714 0.11313
#
# Static dielectric constant tensor:
#      x y z
#    x 1.771120 0.000000 -0.016840 
#    y 0.000000 1.729280 0.000000 
#    z -0.016840 0.000000 1.749750 
# 
# From -- ./inp_files/307724.got.cif
#   From: 2010.05.17/outbox.cif.g08.bks.cpg/sg15_154_cif.got.tgz:307724.got - 2010.06.03 18:47:42.
