data_PCOD9258354
_publ_section_title
;
Structure prediction by ZEFSAII (Michael W. Deem and Ramdas Pophale) SiO2 
 PCOD9258354
Probable space group: C 2/C
;
_chemical_formula_sum "Si O2"
_cell_formula_units_Z 52
_cell_length_a 13.917719
_cell_length_b 9.707716
_cell_length_c 20.059731
_cell_angle_alpha 90.000000
_cell_angle_beta 124.584850
_cell_angle_gamma 90.000000
_cell_volume 2231.316714
_symmetry_space_group_name_H-M "C 2/C"
_symmetry_group_IT_number 15
_symmetry_cell_setting 'monoclinic'
loop_
_space_group_symop_operation_xyz
x,y,z
-x,y,1/2-z
-x,-y,-z
x,-y,1/2+z
1/2+x,1/2+y,z
1/2-x,1/2+y,1/2-z
1/2-x,1/2-y,-z
1/2+x,1/2-y,1/2+z
loop_
_atom_site_type_symbol
_atom_site_label
_atom_site_fract_x
_atom_site_fract_y
_atom_site_fract_z
Si Si1 0.572919 0.147000 0.144495
Si Si2 0.423306 0.602482 0.562543
Si Si3 0.452949 0.814748 0.465432
Si Si4 0.693060 0.355253 0.355747
Si Si5 0.336553 0.346891 0.703729
Si Si6 0.446567 0.707996 0.118073
Si Si7 0.500000 0.867743 0.750000
O O1 0.526578 0.304878 0.136037
O O2 0.709476 0.155808 0.185720
O O3 0.527829 0.061611 0.190424
O O4 0.507056 0.107942 0.050391
O O5 0.422258 0.664074 0.487922
O O6 0.313188 0.637753 0.566156
O O7 0.438867 0.442275 0.580437
O O8 0.327671 0.858689 0.389046
O O9 0.544109 0.805712 0.441575
O O10 0.637272 0.494047 0.304515
O O11 0.616897 0.224375 0.305161
O O12 0.433556 0.292148 0.792338
O O13 0.347991 0.272799 0.635881
#
# Coordination Sequence:
#
# PCOD9258354 Si02
#       7
#     8   8   8   8   8   8   4
#     4   9  20  32  52  78 107 133 172 215 261 309
#     4   8  18  33  51  77 101 128 174 218 247 302
#     4  10  20  32  56  79 107 133 174 219 262 301
#     4  10  18  33  55  75 103 139 172 209 256 312
#     4  10  20  34  52  76 102 140 178 207 259 317
#     4  10  19  34  55  74 101 138 179 217 253 303
#     4  10  18  34  56  76 104 136 176 220 256 300
#
# _framework density 23.304625000000001
#
# number of rings (size 3 to 8) (size 9 to 14) (size 15 to 20)
#    0.923    1.538    0.000    4.615    0.000    1.231 
#    0.000    0.000    0.000    5.538    0.000    0.000 
#    0.000    0.000    0.000    0.000    0.000    0.000 
#
# Total GULP energy -144963.161838 kJ/mol
# GULP energy per Si atom -5575.506225 kJ/mol
# Density = 2.325158 g / cm^3
# Si number density = 23.304625 Si / 1000 Ang^3
#
#
#
# Elastic Constant Matrix: (Units=GPa)
#
#
# Indices 1 2 3 4 5 6 
#
# 1 123.7667 5.4669 27.5550 0.0000 -20.8983 0.0000
# 2 5.4669 39.8492 9.6648 0.0000 -10.4364 0.0000
# 3 27.5550 9.6648 80.5304 0.0000 -23.9550 0.0000
# 4 0.0000 0.0000 0.0000 -0.4370 0.0000 -30.6153
# 5 -20.8983 -10.4364 -23.9550 0.0000 52.3608 0.0000
# 6 0.0000 0.0000 0.0000 -30.6153 0.0000 -21.8714
#
#
#
# Elastic Compliance Matrix: (Units=1/GPa)
#
#
# Indices 1 2 3 4 5 6 
#
# 1 0.009028 -0.000009 -0.002334 0.000000 0.002533 0.000000
# 2 -0.000009 0.026720 -0.001876 0.000000 0.004464 0.000000
# 3 -0.002334 -0.001876 0.015109 0.000000 0.005607 0.000000
# 4 0.000000 0.000000 0.000000 0.023575 0.000000 -0.033000
# 5 0.002533 0.004464 0.005607 0.000000 0.023564 0.000000
# 6 0.000000 0.000000 0.000000 -0.033000 0.000000 0.000471
#
#
# Mechanical properties :
#
#
# Convention : Reuss Voigt Hill
#
# Bulk Modulus (GPa) = 23.57443 36.61331 30.09387
# Shear Modulus (GPa) = 41.30696 19.44111 30.37403
#
# Velocity S-wave (km/s) = 4.21465 2.89141 3.61411
# Velocity P-wave (km/s) = 5.81568 5.18574 5.50972
#
# Compressibility (1/GPa) = 0.04241884
#
# Stress axis : x y z
#
# Youngs Moduli (GPa) = 110.77167 37.42530 66.18399
#
# Poissons Ratio (x) = 0.00033 0.15449
# Poissons Ratio (y) = 0.00098 0.12415
# Poissons Ratio (z) = 0.25857 0.07021
#
# Static dielectric constant tensor:
#      x y z
#    x 1.900060 0.000000 -0.068650 
#    y 0.000000 1.955410 0.000000 
#    z -0.068650 0.000000 1.891740 
# 
# From -- ./inp_files/238443.got.cif
#   From: 2010.05.17/outbox.cif.g08.bks.cpg/sg15_120_cif.got.tgz:238443.got - 2010.06.03 18:47:42.
