data_PCOD9258465
_publ_section_title
;
Structure prediction by ZEFSAII (Michael W. Deem and Ramdas Pophale) SiO2 
 PCOD9258465
Probable space group: C 2/C
;
_chemical_formula_sum "Si O2"
_cell_formula_units_Z 64
_cell_length_a 21.361797
_cell_length_b 18.848529
_cell_length_c 7.587557
_cell_angle_alpha 90.000000
_cell_angle_beta 102.188545
_cell_angle_gamma 90.000000
_cell_volume 2986.175811
_symmetry_space_group_name_H-M "C 2/C"
_symmetry_group_IT_number 15
_symmetry_cell_setting 'monoclinic'
loop_
_space_group_symop_operation_xyz
x,y,z
-x,y,1/2-z
-x,-y,-z
x,-y,1/2+z
1/2+x,1/2+y,z
1/2-x,1/2+y,1/2-z
1/2-x,1/2-y,-z
1/2+x,1/2-y,1/2+z
loop_
_atom_site_type_symbol
_atom_site_label
_atom_site_fract_x
_atom_site_fract_y
_atom_site_fract_z
Si Si1 0.194930 0.590222 0.363799
Si Si2 0.879988 0.506273 0.460133
Si Si3 0.789144 0.736906 0.264064
Si Si4 0.432676 0.893478 0.291571
Si Si5 0.349677 0.764129 0.182071
Si Si6 0.830556 0.104225 0.823562
Si Si7 0.426260 0.622958 0.164804
Si Si8 0.808727 0.044097 0.178823
O O1 0.138045 0.559366 0.207480
O O2 0.181148 0.544468 0.530806
O O3 0.193869 0.675441 0.364540
O O4 0.258231 0.568566 0.293525
O O5 0.935423 0.448773 0.453862
O O6 0.897818 0.558149 0.626506
O O7 0.713146 0.737909 0.253229
O O8 0.823157 0.716441 0.470641
O O9 0.810403 0.818385 0.244330
O O10 0.500000 0.870925 0.250000
O O11 0.386302 0.827982 0.296372
O O12 0.400838 0.701898 0.186200
O O13 0.818705 0.040304 0.684200
O O14 0.902128 0.106882 0.949936
O O15 0.791898 0.081334 0.980651
O O16 0.500000 0.614037 0.250000
O O17 0.379960 0.574170 0.256107
#
# Coordination Sequence:
#
# PCOD9258465 Si02
#       8
#     8   8   8   8   8   8   8   8
#     4  11  19  37  58  85 120 144 190 242 289 343
#     4  10  24  34  60  87 113 151 191 234 292 333
#     4  10  18  35  57  84 113 148 188 234 294 345
#     4  11  22  39  57  84 117 154 191 232 275 345
#     4  10  18  33  57  83 105 147 193 235 278 339
#     4   9  21  33  57  81 111 148 195 227 293 334
#     4   9  19  34  54  81 107 148 194 228 275 347
#     4  10  19  34  54  85 109 147 181 248 279 335
#
# _framework density 21.432092999999998
#
# number of rings (size 3 to 8) (size 9 to 14) (size 15 to 20)
#    0.750    1.250    2.500    2.250    3.500    0.500 
#    0.000    1.875    0.000    0.000    0.000    0.000 
#    0.000    0.000    0.000    0.000    0.000    0.000 
#
# Total GULP energy -178442.630938 kJ/mol
# GULP energy per Si atom -5576.332217 kJ/mol
# Density = 2.138331 g / cm^3
# Si number density = 21.432093 Si / 1000 Ang^3
#
#
#
# Elastic Constant Matrix: (Units=GPa)
#
#
# Indices 1 2 3 4 5 6 
#
# 1 73.4563 11.7610 -1.7459 0.0000 1.9805 0.0000
# 2 11.7610 138.2001 19.2832 0.0000 2.7159 0.0000
# 3 -1.7459 19.2832 36.0066 0.0000 0.4031 0.0000
# 4 0.0000 0.0000 0.0000 20.8316 0.0000 -4.8598
# 5 1.9805 2.7159 0.4031 0.0000 17.1940 0.0000
# 6 0.0000 0.0000 0.0000 -4.8598 0.0000 25.1542
#
#
#
# Elastic Compliance Matrix: (Units=1/GPa)
#
#
# Indices 1 2 3 4 5 6 
#
# 1 0.013902 -0.001352 0.001414 0.000000 -0.001421 0.000000
# 2 -0.001352 0.007974 -0.004325 0.000000 -0.001002 0.000000
# 3 0.001414 -0.004325 0.030160 0.000000 -0.000187 0.000000
# 4 0.000000 0.000000 0.000000 0.050270 0.000000 0.009712
# 5 -0.001421 -0.001002 -0.000187 0.000000 0.058486 0.000000
# 6 0.000000 0.000000 0.000000 0.009712 0.000000 0.041631
#
#
# Mechanical properties :
#
#
# Convention : Reuss Voigt Hill
#
# Bulk Modulus (GPa) = 22.98347 34.02885 28.50616
# Shear Modulus (GPa) = 22.17768 27.19361 24.68565
#
# Velocity S-wave (km/s) = 3.22030 3.56592 3.39751
# Velocity P-wave (km/s) = 4.95724 5.73292 5.35914
#
# Compressibility (1/GPa) = 0.04350954
#
# Stress axis : x y z
#
# Youngs Moduli (GPa) = 71.93203 125.40544 33.15705
#
# Poissons Ratio (x) = 0.16961 -0.04689
# Poissons Ratio (y) = 0.09729 0.14340
# Poissons Ratio (z) = -0.10173 0.54236
#
# Static dielectric constant tensor:
#      x y z
#    x 1.780920 0.000000 -0.025160 
#    y 0.000000 1.792210 0.000000 
#    z -0.025160 0.000000 1.870190 
# 
# From -- ./inp_files/56639.got.cif
#   From: 2010.05.17/outbox.cif.g08.bks.cpg/sg15_29_cif.got.tgz:56639.got - 2010.06.03 18:47:42.
