data_PCOD9258907
_publ_section_title
;
Structure prediction by ZEFSAII (Michael W. Deem and Ramdas Pophale) SiO2 
 PCOD9258907
Probable space group: C 2/C
;
_chemical_formula_sum "Si O2"
_cell_formula_units_Z 32
_cell_length_a 19.020208
_cell_length_b 7.223860
_cell_length_c 13.678629
_cell_angle_alpha 90.000000
_cell_angle_beta 132.382002
_cell_angle_gamma 90.000000
_cell_volume 1388.276334
_symmetry_space_group_name_H-M "C 2/C"
_symmetry_group_IT_number 15
_symmetry_cell_setting 'monoclinic'
loop_
_space_group_symop_operation_xyz
x,y,z
-x,y,1/2-z
-x,-y,-z
x,-y,1/2+z
1/2+x,1/2+y,z
1/2-x,1/2+y,1/2-z
1/2-x,1/2-y,-z
1/2+x,1/2-y,1/2+z
loop_
_atom_site_type_symbol
_atom_site_label
_atom_site_fract_x
_atom_site_fract_y
_atom_site_fract_z
Si Si1 0.415262 0.043899 0.234944
Si Si2 0.356641 0.286040 0.564046
Si Si3 0.290838 0.361680 0.915277
Si Si4 0.349877 0.981759 0.878138
O O1 0.500000 0.125365 0.250000
O O2 0.424494 0.040240 0.359796
O O3 0.311884 0.142565 0.123768
O O4 0.409591 0.827495 0.197934
O O5 0.250000 0.250000 0.500000
O O6 0.360188 0.500515 0.538979
O O7 0.368851 0.173241 0.475760
O O8 0.338470 0.173071 0.925242
O O9 0.250412 0.454355 0.775581
#
# Coordination Sequence:
#
# PCOD9258907 Si02
#       4
#     8   8   8   8
#     4   9  20  35  53  82 117 141 176 238 277 311
#     4  10  19  34  57  82 107 144 187 223 268 326
#     4   9  17  33  57  78 103 144 186 219 262 324
#     4  10  18  34  57  79 108 143 185 224 264 327
#
# _framework density 23.050166000000001
#
# number of rings (size 3 to 8) (size 9 to 14) (size 15 to 20)
#    1.500    1.000    2.500    0.000    0.000    5.000 
#    0.000    1.250    0.000   31.500    0.000    0.000 
#    0.000    0.000    0.000    0.000    0.000    0.000 
#
# Total GULP energy -89101.152528 kJ/mol
# GULP energy per Si atom -5568.822033 kJ/mol
# Density = 2.299770 g / cm^3
# Si number density = 23.050166 Si / 1000 Ang^3
#
#
#
# Elastic Constant Matrix: (Units=GPa)
#
#
# Indices 1 2 3 4 5 6 
#
# 1 169.3348 58.2191 31.4092 0.0000 -44.9466 0.0000
# 2 58.2191 121.6711 11.4813 0.0000 -16.5592 0.0000
# 3 31.4092 11.4813 63.9328 0.0000 -31.8122 0.0000
# 4 0.0000 0.0000 0.0000 40.2737 0.0000 -10.0047
# 5 -44.9466 -16.5592 -31.8122 0.0000 38.0709 0.0000
# 6 0.0000 0.0000 0.0000 -10.0047 0.0000 14.4305
#
#
#
# Elastic Compliance Matrix: (Units=1/GPa)
#
#
# Indices 1 2 3 4 5 6 
#
# 1 0.009762 -0.003269 0.001401 0.000000 0.011274 0.000000
# 2 -0.003269 0.009842 0.000083 0.000000 0.000491 0.000000
# 3 0.001401 0.000083 0.027009 0.000000 0.024259 0.000000
# 4 0.000000 0.000000 0.000000 0.029996 0.000000 0.020797
# 5 0.011274 0.000491 0.024259 0.000000 0.060060 0.000000
# 6 0.000000 0.000000 0.000000 0.020797 0.000000 0.083716
#
#
# Mechanical properties :
#
#
# Convention : Reuss Voigt Hill
#
# Bulk Modulus (GPa) = 23.23307 61.90645 42.56976
# Shear Modulus (GPa) = 20.98157 35.47695 28.22926
#
# Velocity S-wave (km/s) = 3.02032 3.92742 3.50335
# Velocity P-wave (km/s) = 4.71851 6.89070 5.90534
#
# Compressibility (1/GPa) = 0.04304209
#
# Stress axis : x y z
#
# Youngs Moduli (GPa) = 102.43941 101.60534 37.02435
#
# Poissons Ratio (x) = 0.33214 -0.05186
# Poissons Ratio (y) = 0.33486 -0.00306
# Poissons Ratio (z) = -0.14350 -0.00839
#
# Static dielectric constant tensor:
#      x y z
#    x 1.850550 0.000000 0.036480 
#    y 0.000000 1.849790 0.000000 
#    z 0.036480 0.000000 1.960130 
# 
# From -- ./inp_files/102382.got.cif
#   From: 2010.05.17/outbox.cif.g08.bks.cpg/sg15_52_cif.got.tgz:102382.got - 2010.06.03 18:47:42.
