data_PCOD9258879
_publ_section_title
;
Structure prediction by ZEFSAII (Michael W. Deem and Ramdas Pophale) SiO2 
 PCOD9258879
Probable space group: C 2/C
;
_chemical_formula_sum "Si O2"
_cell_formula_units_Z 52
_cell_length_a 17.356937
_cell_length_b 19.043599
_cell_length_c 7.936039
_cell_angle_alpha 90.000000
_cell_angle_beta 73.186121
_cell_angle_gamma 90.000000
_cell_volume 2511.025001
_symmetry_space_group_name_H-M "C 2/C"
_symmetry_group_IT_number 15
_symmetry_cell_setting 'monoclinic'
loop_
_space_group_symop_operation_xyz
x,y,z
-x,y,1/2-z
-x,-y,-z
x,-y,1/2+z
1/2+x,1/2+y,z
1/2-x,1/2+y,1/2-z
1/2-x,1/2-y,-z
1/2+x,1/2-y,1/2+z
loop_
_atom_site_type_symbol
_atom_site_label
_atom_site_fract_x
_atom_site_fract_y
_atom_site_fract_z
Si Si1 0.500000 0.509935 0.250000
Si Si2 0.094663 0.565461 0.147828
Si Si3 0.620373 0.203714 0.948155
Si Si4 0.746836 0.683625 0.876096
Si Si5 0.129574 0.410209 0.998043
Si Si6 0.920495 0.896103 0.086679
Si Si7 0.500000 0.282154 0.250000
Si Si8 0.500000 0.816149 0.250000
O O1 0.430909 0.456963 0.222669
O O2 0.457149 0.561657 0.407649
O O3 0.140540 0.586598 0.290366
O O4 0.000000 0.566872 0.250000
O O5 0.112679 0.621051 0.991125
O O6 0.116401 0.488477 0.072214
O O7 0.710932 0.211415 0.823446
O O8 0.564388 0.223965 0.823449
O O9 0.577783 0.238730 0.137236
O O10 0.664068 0.642600 0.891571
O O11 0.750000 0.750000 0.000000
O O12 0.801577 0.626593 0.937829
O O13 0.050632 0.364320 0.090259
O O14 0.976508 0.832544 0.112042
#
# Coordination Sequence:
#
# PCOD9258879 Si02
#       8
#     4   8   8   8   8   8   4   4
#     4   9  22  49  82  99 127 186 244 308 325 410
#     4  12  21  38  63  97 130 176 226 271 315 409
#     4  11  24  39  66  97 139 182 216 278 336 422
#     4  11  28  44  63 103 143 180 218 293 361 411
#     4  11  22  37  60  92 131 180 224 270 331 396
#     4  10  24  46  73 105 133 174 244 290 359 403
#     4  11  24  41  72 107 131 186 224 282 345 434
#     4  10  18  34  56  86 126 176 224 254 306 400
#
# _framework density 20.708673999999998
#
# number of rings (size 3 to 8) (size 9 to 14) (size 15 to 20)
#    0.000    1.231    3.077    2.308    8.615    3.077 
#    0.000    0.000    0.000    0.000    0.000    0.000 
#    0.000    0.000    0.000    0.000    0.000    0.000 
#
# Total GULP energy -145042.311862 kJ/mol
# GULP energy per Si atom -5578.550456 kJ/mol
# Density = 2.066154 g / cm^3
# Si number density = 20.708674 Si / 1000 Ang^3
#
#
#
# Elastic Constant Matrix: (Units=GPa)
#
#
# Indices 1 2 3 4 5 6 
#
# 1 93.8768 32.6092 27.0729 0.0000 -8.2255 0.0000
# 2 32.6092 97.7600 43.7505 0.0000 -21.3333 0.0000
# 3 27.0729 43.7505 85.8759 0.0000 -4.9511 0.0000
# 4 0.0000 0.0000 0.0000 40.7205 0.0000 10.6445
# 5 -8.2255 -21.3333 -4.9511 0.0000 26.6639 0.0000
# 6 0.0000 0.0000 0.0000 10.6445 0.0000 24.9416
#
#
#
# Elastic Compliance Matrix: (Units=1/GPa)
#
#
# Indices 1 2 3 4 5 6 
#
# 1 0.012427 -0.002816 -0.002418 0.000000 0.001131 0.000000
# 2 -0.002816 0.016753 -0.006999 0.000000 0.011235 0.000000
# 3 -0.002418 -0.006999 0.015776 0.000000 -0.003416 0.000000
# 4 0.000000 0.000000 0.000000 0.027641 0.000000 -0.011797
# 5 0.001131 0.011235 -0.003416 0.000000 0.046207 0.000000
# 6 0.000000 0.000000 0.000000 -0.011797 0.000000 0.045128
#
#
# Mechanical properties :
#
#
# Convention : Reuss Voigt Hill
#
# Bulk Modulus (GPa) = 48.80680 53.81978 51.31329
# Shear Modulus (GPa) = 25.61105 30.07053 27.84079
#
# Velocity S-wave (km/s) = 3.52053 3.81474 3.67059
# Velocity P-wave (km/s) = 6.33601 6.74155 6.54192
#
# Compressibility (1/GPa) = 0.02048895
#
# Stress axis : x y z
#
# Youngs Moduli (GPa) = 80.47066 59.69218 63.38847
#
# Poissons Ratio (x) = 0.16811 0.15325
# Poissons Ratio (y) = 0.22663 0.44367
# Poissons Ratio (z) = 0.19455 0.41780
#
# Static dielectric constant tensor:
#      x y z
#    x 1.795990 0.000000 0.020540 
#    y 0.000000 1.717670 0.000000 
#    z 0.020540 0.000000 1.784580 
# 
# From -- ./inp_files/48970.got.cif
#   From: 2010.05.17/outbox.cif.g08.bks.cpg/sg15_25_cif.got.tgz:48970.got - 2010.06.03 18:47:42.
