data_PCOD9258298
_publ_section_title
;
Structure prediction by ZEFSAII (Michael W. Deem and Ramdas Pophale) SiO2 
 PCOD9258298
Probable space group: C 2/C
;
_chemical_formula_sum "Si O2"
_cell_formula_units_Z 44
_cell_length_a 13.819598
_cell_length_b 26.797755
_cell_length_c 7.278206
_cell_angle_alpha 90.000000
_cell_angle_beta 137.745213
_cell_angle_gamma 90.000000
_cell_volume 1812.443072
_symmetry_space_group_name_H-M "C 2/C"
_symmetry_group_IT_number 15
_symmetry_cell_setting 'monoclinic'
loop_
_space_group_symop_operation_xyz
x,y,z
-x,y,1/2-z
-x,-y,-z
x,-y,1/2+z
1/2+x,1/2+y,z
1/2-x,1/2+y,1/2-z
1/2-x,1/2-y,-z
1/2+x,1/2-y,1/2+z
loop_
_atom_site_type_symbol
_atom_site_label
_atom_site_fract_x
_atom_site_fract_y
_atom_site_fract_z
Si Si1 0.630901 0.569450 0.233600
Si Si2 0.000000 0.501994 0.750000
Si Si3 0.000000 0.840000 0.750000
Si Si4 0.962253 0.685827 0.474418
Si Si5 0.108069 0.426576 0.679930
Si Si6 0.000000 0.009619 0.750000
Si Si7 0.242481 0.767119 0.201929
O O1 0.594651 0.623622 0.257054
O O2 0.761726 0.570517 0.279015
O O3 0.630504 0.529349 0.397754
O O4 0.506504 0.546524 0.930753
O O5 0.124742 0.460520 0.884324
O O6 0.010330 0.541604 0.598264
O O7 0.888533 0.806747 0.478061
O O8 0.098790 0.709419 0.558165
O O9 0.000000 0.682055 0.750000
O O10 0.932374 0.630651 0.358166
O O11 0.819018 0.720485 0.268299
O O12 0.250000 0.750000 0.000000
#
# Coordination Sequence:
#
# PCOD9258298 Si02
#       7
#     8   4   4   8   8   4   8
#     4  10  20  35  58  80 118 152 198 240 294 348
#     4  10  24  37  56  88 116 157 198 236 290 356
#     4  11  20  31  58  90 112 149 188 243 298 352
#     4  10  19  33  59  84 119 148 196 243 299 339
#     4  11  21  39  59  86 120 158 195 243 294 349
#     4   9  20  38  52  86 112 160 196 245 286 354
#     4  10  18  33  53  88 115 147 193 247 286 347
#
# _framework density 24.276623000000001
#
# number of rings (size 3 to 8) (size 9 to 14) (size 15 to 20)
#    0.000    1.818    3.636    3.273    0.000    0.000 
#    9.818    0.000    0.000    2.182    0.000    0.000 
#    0.000    0.000    0.000    0.000    0.000    0.000 
#
# Total GULP energy -122643.316570 kJ/mol
# GULP energy per Si atom -5574.696208 kJ/mol
# Density = 2.422137 g / cm^3
# Si number density = 24.276623 Si / 1000 Ang^3
#
#
#
# Elastic Constant Matrix: (Units=GPa)
#
#
# Indices 1 2 3 4 5 6 
#
# 1 155.1428 67.1983 25.1178 0.0000 21.9050 0.0000
# 2 67.1983 200.2374 29.5891 0.0000 16.7735 0.0000
# 3 25.1178 29.5891 42.5263 0.0000 8.0000 0.0000
# 4 0.0000 0.0000 0.0000 20.1556 0.0000 5.0219
# 5 21.9050 16.7735 8.0000 0.0000 41.5752 0.0000
# 6 0.0000 0.0000 0.0000 5.0219 0.0000 49.1845
#
#
#
# Elastic Compliance Matrix: (Units=1/GPa)
#
#
# Indices 1 2 3 4 5 6 
#
# 1 0.008230 -0.002094 -0.002850 0.000000 -0.002943 0.000000
# 2 -0.002094 0.006198 -0.002918 0.000000 -0.000836 0.000000
# 3 -0.002850 -0.002918 0.027729 0.000000 -0.002657 0.000000
# 4 0.000000 0.000000 0.000000 0.050909 0.000000 -0.005198
# 5 -0.002943 -0.000836 -0.002657 0.000000 0.026452 0.000000
# 6 0.000000 0.000000 0.000000 -0.005198 0.000000 0.020862
#
#
# Mechanical properties :
#
#
# Convention : Reuss Voigt Hill
#
# Bulk Modulus (GPa) = 37.83440 71.30186 54.56813
# Shear Modulus (GPa) = 30.31863 40.58316 35.45089
#
# Velocity S-wave (km/s) = 3.53779 4.09307 3.82552
# Velocity P-wave (km/s) = 5.68388 7.19528 6.48377
#
# Compressibility (1/GPa) = 0.02643097
#
# Stress axis : x y z
#
# Youngs Moduli (GPa) = 121.51177 161.33933 36.06381
#
# Poissons Ratio (x) = 0.33787 0.10279
# Poissons Ratio (y) = 0.25446 0.10525
# Poissons Ratio (z) = 0.34632 0.47086
#
# Static dielectric constant tensor:
#      x y z
#    x 2.135970 0.000000 -0.094990 
#    y 0.000000 1.886490 0.000000 
#    z -0.094990 0.000000 2.001270 
# 
# From -- ./inp_files/34525.got.cif
#   From: 2010.05.17/outbox.cif.g08.bks.cpg/sg15_18_cif.got.tgz:34525.got - 2010.06.03 18:47:42.
