data_PCOD9258638
_publ_section_title
;
Structure prediction by ZEFSAII (Michael W. Deem and Ramdas Pophale) SiO2 
 PCOD9258638
Probable space group: C 2/C
;
_chemical_formula_sum "Si O2"
_cell_formula_units_Z 52
_cell_length_a 11.394793
_cell_length_b 16.946503
_cell_length_c 19.678550
_cell_angle_alpha 90.000000
_cell_angle_beta 42.018704
_cell_angle_gamma 90.000000
_cell_volume 2543.594791
_symmetry_space_group_name_H-M "C 2/C"
_symmetry_group_IT_number 15
_symmetry_cell_setting 'monoclinic'
loop_
_space_group_symop_operation_xyz
x,y,z
-x,y,1/2-z
-x,-y,-z
x,-y,1/2+z
1/2+x,1/2+y,z
1/2-x,1/2+y,1/2-z
1/2-x,1/2-y,-z
1/2+x,1/2-y,1/2+z
loop_
_atom_site_type_symbol
_atom_site_label
_atom_site_fract_x
_atom_site_fract_y
_atom_site_fract_z
Si Si1 0.000000 0.356574 0.750000
Si Si2 0.405808 0.273880 0.195623
Si Si3 0.357437 0.413060 0.365986
Si Si4 0.554349 0.712467 0.973506
Si Si5 0.193499 0.934775 0.956000
Si Si6 0.422084 0.138619 0.611706
Si Si7 0.155446 0.592542 0.628915
O O1 0.879793 0.299522 0.755988
O O2 0.888475 0.405242 0.852163
O O3 0.574405 0.323201 0.149460
O O4 0.438699 0.250143 0.104599
O O5 0.242409 0.333665 0.270602
O O6 0.500000 0.446293 0.250000
O O7 0.347474 0.445758 0.446380
O O8 0.171633 0.409214 0.408458
O O9 0.741746 0.674571 0.909710
O O10 0.424794 0.636935 0.021366
O O11 0.500511 0.780448 0.048282
O O12 0.203605 0.022444 0.920671
O O13 0.561947 0.091141 0.595647
O O14 0.000000 0.586779 0.750000
#
# Coordination Sequence:
#
# PCOD9258638 Si02
#       7
#     4   8   8   8   8   8   8
#     4  12  18  34  62 102 116 142 202 264 310 348
#     4  10  18  33  62  93 115 143 200 259 307 339
#     4   9  19  38  62  90 116 155 200 256 310 351
#     4  11  22  40  63  86 117 163 209 250 295 365
#     4  11  23  38  64  89 122 158 204 255 308 368
#     4  11  20  38  62  86 118 155 202 251 300 362
#     4  12  25  40  57  87 126 169 195 241 316 382
#
# _framework density 20.443508000000001
#
# number of rings (size 3 to 8) (size 9 to 14) (size 15 to 20)
#    0.000    1.231    6.154    1.846    0.000    3.077 
#    0.000    0.000    3.385    0.000    0.000    0.000 
#    0.000    0.000    0.000    0.000    0.000    0.000 
#
# Total GULP energy -144953.954607 kJ/mol
# GULP energy per Si atom -5575.152100 kJ/mol
# Density = 2.039698 g / cm^3
# Si number density = 20.443508 Si / 1000 Ang^3
#
#
#
# Elastic Constant Matrix: (Units=GPa)
#
#
# Indices 1 2 3 4 5 6 
#
# 1 52.1199 -0.0939 7.5113 -0.0001 3.9952 0.0000
# 2 -0.0939 44.1021 16.2200 -0.0003 -1.9225 0.0001
# 3 7.5113 16.2200 88.2443 -0.0010 8.0578 0.0003
# 4 -0.0001 -0.0003 -0.0010 16.9418 0.0003 -11.2262
# 5 3.9952 -1.9225 8.0578 0.0003 13.9753 0.0000
# 6 0.0000 0.0001 0.0003 -11.2262 0.0000 20.9211
#
#
#
# Elastic Compliance Matrix: (Units=1/GPa)
#
#
# Indices 1 2 3 4 5 6 
#
# 1 0.019746 0.000306 -0.001293 0.000000 -0.004857 0.000000
# 2 0.000306 0.024852 -0.005170 0.000000 0.006312 0.000000
# 3 -0.001293 -0.005170 0.013114 0.000001 -0.007903 0.000000
# 4 0.000000 0.000000 0.000001 0.091593 -0.000003 0.049149
# 5 -0.004857 0.006312 -0.007903 -0.000003 0.078368 -0.000001
# 6 0.000000 0.000000 0.000000 0.049149 -0.000001 0.074172
#
#
# Mechanical properties :
#
#
# Convention : Reuss Voigt Hill
#
# Bulk Modulus (GPa) = 22.02822 25.74900 23.88861
# Shear Modulus (GPa) = 15.18405 21.08957 18.13681
#
# Velocity S-wave (km/s) = 2.72827 3.21534 2.98177
# Velocity P-wave (km/s) = 4.55227 5.13878 4.85439
#
# Compressibility (1/GPa) = 0.04539632
#
# Stress axis : x y z
#
# Youngs Moduli (GPa) = 50.64373 40.23806 76.25282
#
# Poissons Ratio (x) = -0.01231 0.09863
# Poissons Ratio (y) = -0.01550 0.39426
# Poissons Ratio (z) = 0.06551 0.20805
#
# Static dielectric constant tensor:
#      x y z
#    x 1.754010 0.000000 -0.008630 
#    y 0.000000 1.711090 0.000000 
#    z -0.008630 0.000000 1.745430 
# 
# From -- ./inp_files/144313.got.cif
#   From: 2010.05.17/outbox.cif.g08.bks.cpg/sg15_73_cif.got.tgz:144313.got - 2010.06.03 18:47:42.
