data_PCOD9258850
_publ_section_title
;
Structure prediction by ZEFSAII (Michael W. Deem and Ramdas Pophale) SiO2 
 PCOD9258850
Probable space group: C 2/C
;
_chemical_formula_sum "Si O2"
_cell_formula_units_Z 64
_cell_length_a 12.032498
_cell_length_b 11.347785
_cell_length_c 19.705547
_cell_angle_alpha 90.000000
_cell_angle_beta 79.536801
_cell_angle_gamma 90.000000
_cell_volume 2645.898144
_symmetry_space_group_name_H-M "C 2/C"
_symmetry_group_IT_number 15
_symmetry_cell_setting 'monoclinic'
loop_
_space_group_symop_operation_xyz
x,y,z
-x,y,1/2-z
-x,-y,-z
x,-y,1/2+z
1/2+x,1/2+y,z
1/2-x,1/2+y,1/2-z
1/2-x,1/2-y,-z
1/2+x,1/2-y,1/2+z
loop_
_atom_site_type_symbol
_atom_site_label
_atom_site_fract_x
_atom_site_fract_y
_atom_site_fract_z
Si Si1 0.943214 0.368289 0.644709
Si Si2 0.690753 0.049587 0.005009
Si Si3 0.100492 0.086310 0.011039
Si Si4 0.523197 0.845243 0.021620
Si Si5 0.310075 0.192796 0.360615
Si Si6 0.076758 0.935142 0.178251
Si Si7 0.143215 0.885606 0.356522
Si Si8 0.751412 0.051787 0.254001
O O1 0.954246 0.359271 0.562189
O O2 0.882504 0.244369 0.665773
O O3 0.861040 0.458493 0.689311
O O4 0.067124 0.368909 0.661889
O O5 0.945851 0.787016 0.959326
O O6 0.609981 0.122120 0.961910
O O7 0.728452 0.136359 0.062858
O O8 0.605419 0.946072 0.041414
O O9 0.166184 0.116597 0.933259
O O10 0.199547 0.015318 0.038608
O O11 0.000000 0.000000 0.000000
O O12 0.344370 0.329648 0.357081
O O13 0.241448 0.157992 0.301288
O O14 0.000000 0.889587 0.250000
O O15 0.974614 0.959803 0.138301
O O16 0.147227 0.040746 0.203071
O O17 0.234998 0.943016 0.298905
#
# Coordination Sequence:
#
# PCOD9258850 Si02
#       8
#     8   8   8   8   8   8   8   8
#     4   9  19  34  58  81 106 152 190 236 286 353
#     4  10  20  39  63  87 115 159 200 257 290 362
#     4  11  22  38  62  87 120 161 194 253 312 357
#     4   9  21  40  62  87 119 155 211 244 302 369
#     4  10  18  34  56  80 112 146 193 234 286 345
#     4   9  19  33  54  80 111 151 189 233 285 358
#     4   9  19  37  53  80 111 147 196 227 286 361
#     4  11  17  29  57  81 107 139 190 237 282 345
#
# _framework density 24.188383000000002
#
# number of rings (size 3 to 8) (size 9 to 14) (size 15 to 20)
#    0.000    2.250    1.250    3.750    0.000    1.500 
#    0.000    3.750    0.000   12.000    0.000    0.000 
#    0.000    0.000    0.000    0.000    0.000    0.000 
#
# Total GULP energy -178491.535050 kJ/mol
# GULP energy per Si atom -5577.860470 kJ/mol
# Density = 2.413333 g / cm^3
# Si number density = 24.188383 Si / 1000 Ang^3
#
#
#
# Elastic Constant Matrix: (Units=GPa)
#
#
# Indices 1 2 3 4 5 6 
#
# 1 103.1708 56.1349 5.2999 0.0000 4.1964 0.0000
# 2 56.1349 108.4834 15.9669 0.0000 0.9161 0.0000
# 3 5.2999 15.9669 63.9237 0.0000 15.9765 0.0000
# 4 0.0000 0.0000 0.0000 31.1063 0.0000 -4.8540
# 5 4.1964 0.9161 15.9765 0.0000 33.5311 0.0000
# 6 0.0000 0.0000 0.0000 -4.8540 0.0000 44.2009
#
#
#
# Elastic Compliance Matrix: (Units=1/GPa)
#
#
# Indices 1 2 3 4 5 6 
#
# 1 0.013643 -0.007217 0.001191 0.000000 -0.002078 0.000000
# 2 -0.007217 0.013417 -0.003277 0.000000 0.002098 0.000000
# 3 0.001191 -0.003277 0.018592 0.000000 -0.008918 0.000000
# 4 0.000000 0.000000 0.000000 0.032708 0.000000 0.003592
# 5 -0.002078 0.002098 -0.008918 0.000000 0.034275 0.000000
# 6 0.000000 0.000000 0.000000 0.003592 0.000000 0.023018
#
#
# Mechanical properties :
#
#
# Convention : Reuss Voigt Hill
#
# Bulk Modulus (GPa) = 36.97542 47.82014 42.39778
# Shear Modulus (GPa) = 30.62284 34.97942 32.80113
#
# Velocity S-wave (km/s) = 3.56197 3.80692 3.68648
# Velocity P-wave (km/s) = 5.67772 6.25590 5.97381
#
# Compressibility (1/GPa) = 0.02704499
#
# Stress axis : x y z
#
# Youngs Moduli (GPa) = 73.29837 74.53104 53.78525
#
# Poissons Ratio (x) = 0.53791 -0.06405
# Poissons Ratio (y) = 0.52901 0.17628
# Poissons Ratio (z) = -0.08729 0.24427
#
# Static dielectric constant tensor:
#      x y z
#    x 1.984730 0.000000 0.013320 
#    y 0.000000 1.985500 0.000000 
#    z 0.013320 0.000000 2.053190 
# 
# From -- ./inp_files/292025.got.cif
#   From: 2010.05.17/outbox.cif.g08.bks.cpg/sg15_147_cif.got.tgz:292025.got - 2010.06.03 18:47:42.
