data_PCOD9258836
_publ_section_title
;
Structure prediction by ZEFSAII (Michael W. Deem and Ramdas Pophale) SiO2 
 PCOD9258836
Probable space group: C 2/C
;
_chemical_formula_sum "Si O2"
_cell_formula_units_Z 52
_cell_length_a 15.537635
_cell_length_b 8.751725
_cell_length_c 19.792667
_cell_angle_alpha 90.000000
_cell_angle_beta 106.850697
_cell_angle_gamma 90.000000
_cell_volume 2575.867944
_symmetry_space_group_name_H-M "C 2/C"
_symmetry_group_IT_number 15
_symmetry_cell_setting 'monoclinic'
loop_
_space_group_symop_operation_xyz
x,y,z
-x,y,1/2-z
-x,-y,-z
x,-y,1/2+z
1/2+x,1/2+y,z
1/2-x,1/2+y,1/2-z
1/2-x,1/2-y,-z
1/2+x,1/2-y,1/2+z
loop_
_atom_site_type_symbol
_atom_site_label
_atom_site_fract_x
_atom_site_fract_y
_atom_site_fract_z
Si Si1 0.141833 0.207299 0.108253
Si Si2 0.833141 0.197895 0.672665
Si Si3 0.500000 0.118016 0.250000
Si Si4 0.466032 0.111655 0.620359
Si Si5 0.425469 0.596572 0.174863
Si Si6 0.466891 0.434233 0.420723
Si Si7 0.406616 0.176624 0.047323
O O1 0.232372 0.254688 0.165878
O O2 0.054103 0.295514 0.117010
O O3 0.126448 0.024045 0.109780
O O4 0.142611 0.261934 0.030443
O O5 0.912257 0.275058 0.734345
O O6 0.854307 0.264314 0.601996
O O7 0.846882 0.015901 0.680127
O O8 0.507998 0.008801 0.316051
O O9 0.401712 0.239739 0.638445
O O10 0.420043 0.005253 0.553677
O O11 0.500000 0.619638 0.250000
O O12 0.472601 0.500061 0.125970
O O13 0.500000 0.500000 0.500000
O O14 0.493888 0.257020 0.428940
#
# Coordination Sequence:
#
# PCOD9258836 Si02
#       7
#     8   8   4   8   8   8   8
#     4  10  19  35  55  87 108 138 187 237 274 328
#     4  10  20  35  56  79 107 145 187 228 279 336
#     4  10  20  38  50  72 104 150 182 220 280 342
#     4  10  20  35  54  78 108 144 184 229 282 339
#     4  10  18  34  56  76 107 154 188 222 284 352
#     4   8  17  33  56  81 108 145 186 226 280 336
#     4   9  18  35  59  79 112 146 178 224 286 347
#
# _framework density 20.187370999999999
#
# number of rings (size 3 to 8) (size 9 to 14) (size 15 to 20)
#    0.000    2.462    1.538    0.923    0.000    0.000 
#    5.538    3.846    0.000    0.000    0.000    0.000 
#    0.000    0.000    0.000    0.000    0.000    0.000 
#
# Total GULP energy -144819.522573 kJ/mol
# GULP energy per Si atom -5569.981637 kJ/mol
# Density = 2.014142 g / cm^3
# Si number density = 20.187371 Si / 1000 Ang^3
#
#
#
# Elastic Constant Matrix: (Units=GPa)
#
#
# Indices 1 2 3 4 5 6 
#
# 1 39.5086 22.1090 -13.0770 0.0000 22.5176 0.0000
# 2 22.1090 118.6906 -1.2636 0.0000 20.5626 0.0000
# 3 -13.0770 -1.2636 30.8909 0.0000 -1.5803 0.0000
# 4 0.0000 0.0000 0.0000 24.4877 0.0000 -8.8667
# 5 22.5176 20.5626 -1.5803 0.0000 27.7654 0.0000
# 6 0.0000 0.0000 0.0000 -8.8667 0.0000 15.2058
#
#
#
# Elastic Compliance Matrix: (Units=1/GPa)
#
#
# Indices 1 2 3 4 5 6 
#
# 1 0.060797 -0.003171 0.023273 0.000000 -0.045632 0.000000
# 2 -0.003171 0.009831 -0.001185 0.000000 -0.004776 0.000000
# 3 0.023273 -0.001185 0.041375 0.000000 -0.015642 0.000000
# 4 0.000000 0.000000 0.000000 0.051767 0.000000 0.030186
# 5 -0.045632 -0.004776 -0.015642 0.000000 0.075670 0.000000
# 6 0.000000 0.000000 0.000000 0.030186 0.000000 0.083366
#
#
# Mechanical properties :
#
#
# Convention : Reuss Voigt Hill
#
# Bulk Modulus (GPa) = 6.67398 22.73631 14.70514
# Shear Modulus (GPa) = 14.92902 25.57990 20.25446
#
# Velocity S-wave (km/s) = 2.72237 3.56353 3.17096
# Velocity P-wave (km/s) = 3.63248 5.31213 4.55048
#
# Compressibility (1/GPa) = 0.14983574
#
# Stress axis : x y z
#
# Youngs Moduli (GPa) = 16.44831 101.72085 24.16898
#
# Poissons Ratio (x) = 0.32260 -0.56248
# Poissons Ratio (y) = 0.05216 0.02863
# Poissons Ratio (z) = -0.38280 0.12051
#
# Static dielectric constant tensor:
#      x y z
#    x 1.738270 0.000000 -0.017240 
#    y 0.000000 1.786280 0.000000 
#    z -0.017240 0.000000 1.736110 
# 
# From -- ./inp_files/242394.got.cif
#   From: 2010.05.17/outbox.cif.g08.bks.cpg/sg15_122_cif.got.tgz:242394.got - 2010.06.03 18:47:42.
