data_PCOD9258429
_publ_section_title
;
Structure prediction by ZEFSAII (Michael W. Deem and Ramdas Pophale) SiO2 
 PCOD9258429
Probable space group: C 2/C
;
_chemical_formula_sum "Si O2"
_cell_formula_units_Z 56
_cell_length_a 15.568986
_cell_length_b 10.478568
_cell_length_c 32.653975
_cell_angle_alpha 90.000000
_cell_angle_beta 33.978638
_cell_angle_gamma 90.000000
_cell_volume 2977.280938
_symmetry_space_group_name_H-M "C 2/C"
_symmetry_group_IT_number 15
_symmetry_cell_setting 'monoclinic'
loop_
_space_group_symop_operation_xyz
x,y,z
-x,y,1/2-z
-x,-y,-z
x,-y,1/2+z
1/2+x,1/2+y,z
1/2-x,1/2+y,1/2-z
1/2-x,1/2-y,-z
1/2+x,1/2-y,1/2+z
loop_
_atom_site_type_symbol
_atom_site_label
_atom_site_fract_x
_atom_site_fract_y
_atom_site_fract_z
Si Si1 0.179066 0.036041 0.387410
Si Si2 0.036546 0.247265 0.945078
Si Si3 0.792150 0.344017 0.927120
Si Si4 0.577024 0.754253 0.018510
Si Si5 0.181101 0.525050 0.752811
Si Si6 0.874050 0.723827 0.179908
Si Si7 0.877915 0.599516 0.919325
O O1 0.264324 0.091592 0.393513
O O2 0.048225 0.140310 0.428144
O O3 0.095286 0.899985 0.428326
O O4 0.294427 0.010694 0.304289
O O5 0.116356 0.298011 0.872801
O O6 0.062349 0.311104 0.978769
O O7 0.855692 0.241798 0.007405
O O8 0.795021 0.463504 0.956896
O O9 0.955134 0.276881 0.868334
O O10 0.554614 0.850881 0.064721
O O11 0.748412 0.697091 0.955373
O O12 0.211142 0.395370 0.765903
O O13 0.295428 0.640488 0.717489
O O14 0.013514 0.574091 0.833185
#
# Coordination Sequence:
#
# PCOD9258429 Si02
#       7
#     8   8   8   8   8   8   8
#     4  10  18  34  60  83 117 142 196 250 279 337
#     4  10  18  35  57  88 113 144 193 250 286 334
#     4  10  18  35  57  90 106 147 196 248 288 338
#     4  10  18  33  56  85 113 151 190 237 286 344
#     4  10  22  38  55  89 117 158 190 242 296 344
#     4  10  22  36  58  84 122 153 194 242 293 350
#     4  10  19  31  54  84 114 143 194 232 283 346
#
# _framework density 18.809107000000001
#
# number of rings (size 3 to 8) (size 9 to 14) (size 15 to 20)
#    0.000    2.000    2.857    2.143    0.000    2.286 
#    0.000    2.857    0.000    3.429   26.000    0.000 
#    0.000    0.000    0.000    0.000    0.000    0.000 
#
# Total GULP energy -156192.228411 kJ/mol
# GULP energy per Si atom -5578.293872 kJ/mol
# Density = 1.876630 g / cm^3
# Si number density = 18.809107 Si / 1000 Ang^3
#
#
#
# Elastic Constant Matrix: (Units=GPa)
#
#
# Indices 1 2 3 4 5 6 
#
# 1 91.1983 31.6139 43.5516 0.0000 7.1339 0.0000
# 2 31.6139 50.5411 22.6555 0.0000 13.0939 0.0000
# 3 43.5516 22.6555 76.4718 0.0000 25.3563 0.0000
# 4 0.0000 0.0000 0.0000 24.0869 0.0000 2.3378
# 5 7.1339 13.0939 25.3563 0.0000 22.9059 0.0000
# 6 0.0000 0.0000 0.0000 2.3378 0.0000 33.2190
#
#
#
# Elastic Compliance Matrix: (Units=1/GPa)
#
#
# Indices 1 2 3 4 5 6 
#
# 1 0.019381 -0.010009 -0.012589 0.000000 0.013621 0.000000
# 2 -0.010009 0.029161 0.002456 0.000000 -0.016271 0.000000
# 3 -0.012589 0.002456 0.029519 0.000000 -0.030160 0.000000
# 4 0.000000 0.000000 0.000000 0.041802 0.000000 -0.002942
# 5 0.013621 -0.016271 -0.030160 0.000000 0.082103 0.000000
# 6 0.000000 0.000000 0.000000 -0.002942 0.000000 0.030310
#
#
# Mechanical properties :
#
#
# Convention : Reuss Voigt Hill
#
# Bulk Modulus (GPa) = 26.47057 45.98370 36.22714
# Shear Modulus (GPa) = 17.53452 24.06837 20.80144
#
# Velocity S-wave (km/s) = 3.05657 3.58105 3.32915
# Velocity P-wave (km/s) = 5.15370 6.44974 5.83780
#
# Compressibility (1/GPa) = 0.03777780
#
# Stress axis : x y z
#
# Youngs Moduli (GPa) = 51.59703 34.29251 33.87635
#
# Poissons Ratio (x) = 0.34322 0.42647
# Poissons Ratio (y) = 0.51642 -0.08320
# Poissons Ratio (z) = 0.64955 -0.08422
#
# Static dielectric constant tensor:
#      x y z
#    x 1.660210 0.000000 0.008620 
#    y 0.000000 1.665800 0.000000 
#    z 0.008620 0.000000 1.678050 
# 
# From -- ./inp_files/313734.got.cif
#   From: 2010.05.17/outbox.cif.g08.bks.cpg/sg15_157_cif.got.tgz:313734.got - 2010.06.03 18:47:42.
