data_PCOD9258934
_publ_section_title
;
Structure prediction by ZEFSAII (Michael W. Deem and Ramdas Pophale) SiO2 
 PCOD9258934
Probable space group: C 2/C
;
_chemical_formula_sum "Si O2"
_cell_formula_units_Z 64
_cell_length_a 25.099870
_cell_length_b 17.857750
_cell_length_c 15.268726
_cell_angle_alpha 90.000000
_cell_angle_beta 151.670782
_cell_angle_gamma 90.000000
_cell_volume 3247.665019
_symmetry_space_group_name_H-M "C 2/C"
_symmetry_group_IT_number 15
_symmetry_cell_setting 'monoclinic'
loop_
_space_group_symop_operation_xyz
x,y,z
-x,y,1/2-z
-x,-y,-z
x,-y,1/2+z
1/2+x,1/2+y,z
1/2-x,1/2+y,1/2-z
1/2-x,1/2-y,-z
1/2+x,1/2-y,1/2+z
loop_
_atom_site_type_symbol
_atom_site_label
_atom_site_fract_x
_atom_site_fract_y
_atom_site_fract_z
Si Si1 0.795290 0.289502 0.935240
Si Si2 0.254903 0.837918 0.599875
Si Si3 0.818604 0.993544 0.487835
Si Si4 0.180443 0.356053 0.347330
Si Si5 0.049307 0.274759 0.496398
Si Si6 0.506674 0.484915 0.405086
Si Si7 0.417633 0.785881 0.698083
Si Si8 0.052749 0.818789 0.518637
O O1 0.760390 0.210210 0.926953
O O2 0.686039 0.314444 0.721801
O O3 0.811402 0.349456 0.035809
O O4 0.904320 0.276517 0.034432
O O5 0.227673 0.922271 0.583780
O O6 0.318904 0.833617 0.598796
O O7 0.146090 0.784963 0.437593
O O8 0.343755 0.800224 0.793081
O O9 0.888719 0.981878 0.499246
O O10 0.900863 0.991544 0.692113
O O11 0.723090 0.932585 0.367431
O O12 0.053805 0.331985 0.141544
O O13 0.001850 0.195458 0.463913
O O14 0.500000 0.500000 0.500000
O O15 0.517082 0.394645 0.420100
O O16 0.500000 0.826143 0.750000
O O17 0.500060 0.750171 0.889388
#
# Coordination Sequence:
#
# PCOD9258934 Si02
#       8
#     8   8   8   8   8   8   8   8
#     4  10  20  39  61  84 114 156 208 257 297 348
#     4  10  21  35  58  88 116 160 192 239 306 353
#     4  11  23  41  58  87 132 157 196 255 309 368
#     4  10  23  39  57  87 118 160 203 248 306 362
#     4  10  21  37  62  86 115 159 206 253 294 357
#     4  11  23  38  60  90 118 162 197 248 313 361
#     4  10  18  34  57  84 119 152 193 240 288 354
#     4  10  20  35  59  89 115 146 205 247 301 356
#
# _framework density 19.706465999999999
#
# number of rings (size 3 to 8) (size 9 to 14) (size 15 to 20)
#    0.000    1.750    1.250    3.375    1.750    0.500 
#    4.500    2.500    0.000    0.000    0.000    0.000 
#    0.000    0.000    0.000    0.000    0.000    0.000 
#
# Total GULP energy -178514.563218 kJ/mol
# GULP energy per Si atom -5578.580101 kJ/mol
# Density = 1.966161 g / cm^3
# Si number density = 19.706466 Si / 1000 Ang^3
#
#
#
# Elastic Constant Matrix: (Units=GPa)
#
#
# Indices 1 2 3 4 5 6 
#
# 1 144.9881 17.3944 23.2346 0.0000 17.6709 0.0000
# 2 17.3944 30.0161 3.3726 0.0000 6.9408 0.0000
# 3 23.2346 3.3726 85.4661 0.0000 -1.6098 0.0000
# 4 0.0000 0.0000 0.0000 23.6469 0.0000 -0.3318
# 5 17.6709 6.9408 -1.6098 0.0000 29.1413 0.0000
# 6 0.0000 0.0000 0.0000 -0.3318 0.0000 22.8361
#
#
#
# Elastic Compliance Matrix: (Units=1/GPa)
#
#
# Indices 1 2 3 4 5 6 
#
# 1 0.008183 -0.003518 -0.002166 0.000000 -0.004244 0.000000
# 2 -0.003518 0.036976 -0.000629 0.000000 -0.006709 0.000000
# 3 -0.002166 -0.000629 0.012355 0.000000 0.002146 0.000000
# 4 0.000000 0.000000 0.000000 0.042297 0.000000 0.000614
# 5 -0.004244 -0.006709 0.002146 0.000000 0.038606 0.000000
# 6 0.000000 0.000000 0.000000 0.000614 0.000000 0.043799
#
#
# Mechanical properties :
#
#
# Convention : Reuss Voigt Hill
#
# Bulk Modulus (GPa) = 22.27735 38.71930 30.49832
# Shear Modulus (GPa) = 23.83174 29.55612 26.69393
#
# Velocity S-wave (km/s) = 3.48132 3.87695 3.68445
# Velocity P-wave (km/s) = 5.24296 6.30331 5.79743
#
# Compressibility (1/GPa) = 0.04488865
#
# Stress axis : x y z
#
# Youngs Moduli (GPa) = 122.19734 27.04467 80.94152
#
# Poissons Ratio (x) = 0.09513 0.17531
# Poissons Ratio (y) = 0.42984 0.05093
# Poissons Ratio (z) = 0.26466 0.01702
#
# Static dielectric constant tensor:
#      x y z
#    x 1.806410 0.000000 -0.044820 
#    y 0.000000 1.651780 0.000000 
#    z -0.044820 0.000000 1.702300 
# 
# From -- ./inp_files/174247.got.cif
#   From: 2010.05.17/outbox.cif.g08.bks.cpg/sg15_88_cif.got.tgz:174247.got - 2010.06.03 18:47:42.
