data_PCOD9258712
_publ_section_title
;
Structure prediction by ZEFSAII (Michael W. Deem and Ramdas Pophale) SiO2 
 PCOD9258712
Probable space group: C 2/C
;
_chemical_formula_sum "Si O2"
_cell_formula_units_Z 64
_cell_length_a 17.138547
_cell_length_b 20.982037
_cell_length_c 19.820946
_cell_angle_alpha 90.000000
_cell_angle_beta 148.853488
_cell_angle_gamma 90.000000
_cell_volume 3686.619169
_symmetry_space_group_name_H-M "C 2/C"
_symmetry_group_IT_number 15
_symmetry_cell_setting 'monoclinic'
loop_
_space_group_symop_operation_xyz
x,y,z
-x,y,1/2-z
-x,-y,-z
x,-y,1/2+z
1/2+x,1/2+y,z
1/2-x,1/2+y,1/2-z
1/2-x,1/2-y,-z
1/2+x,1/2-y,1/2+z
loop_
_atom_site_type_symbol
_atom_site_label
_atom_site_fract_x
_atom_site_fract_y
_atom_site_fract_z
Si Si1 0.586564 0.658669 0.512628
Si Si2 0.548520 0.087721 0.498712
Si Si3 0.761801 0.476801 0.840847
Si Si4 0.568977 0.032865 0.228470
Si Si5 0.435708 0.880371 0.277332
Si Si6 0.618480 0.556182 0.090592
Si Si7 0.419652 0.809904 0.987739
Si Si8 0.410240 0.633276 0.247728
O O1 0.758916 0.637451 0.650219
O O2 0.473085 0.621686 0.478573
O O3 0.569901 0.734151 0.503970
O O4 0.527107 0.636045 0.395501
O O5 0.427774 0.054651 0.460896
O O6 0.502039 0.071147 0.387554
O O7 0.522309 0.159592 0.503864
O O8 0.706631 0.051456 0.627778
O O9 0.697388 0.456137 0.721089
O O10 0.654687 0.438542 0.812457
O O11 0.500000 0.047774 0.250000
O O12 0.746491 0.048638 0.361578
O O13 0.549317 0.956848 0.201069
O O14 0.500000 0.866260 0.250000
O O15 0.522799 0.840328 0.399048
O O16 0.500000 0.500000 0.000000
O O17 0.242396 0.828047 0.848055
O O18 0.500000 0.658009 0.250000
#
# Coordination Sequence:
#
# PCOD9258712 Si02
#       8
#     8   8   8   8   8   8   8   8
#     4  11  23  34  52  81 108 146 187 221 268 323
#     4   9  17  33  55  73  99 133 186 225 263 316
#     4   8  16  30  51  73  94 136 178 215 256 305
#     4  10  20  35  58  83 103 134 182 233 283 323
#     4  11  22  34  52  82 115 147 184 224 261 319
#     4  10  18  34  53  75 106 135 173 229 276 308
#     4  11  22  36  53  75 110 153 189 212 260 339
#     4  10  20  34  50  75 114 150 179 216 265 318
#
# _framework density 17.360078999999999
#
# number of rings (size 3 to 8) (size 9 to 14) (size 15 to 20)
#    0.000    2.000    1.250    5.250    0.000    4.000 
#    0.000    0.000    0.000    0.750    0.000    0.875 
#    0.000    0.000    0.000    0.000    0.000    0.000 
#
# Total GULP energy -178242.927631 kJ/mol
# GULP energy per Si atom -5570.091488 kJ/mol
# Density = 1.732057 g / cm^3
# Si number density = 17.360079 Si / 1000 Ang^3
#
#
#
# Elastic Constant Matrix: (Units=GPa)
#
#
# Indices 1 2 3 4 5 6 
#
# 1 92.0500 37.9932 20.1752 -0.0020 1.7885 -0.0006
# 2 37.9932 65.0364 3.8021 -0.0021 0.1564 -0.0006
# 3 20.1752 3.8021 60.3937 -0.0037 1.8152 -0.0018
# 4 -0.0020 -0.0021 -0.0037 14.9405 -0.0020 2.8746
# 5 1.7885 0.1564 1.8152 -0.0020 23.1925 -0.0007
# 6 -0.0006 -0.0006 -0.0018 2.8746 -0.0007 7.0337
#
#
#
# Elastic Compliance Matrix: (Units=1/GPa)
#
#
# Indices 1 2 3 4 5 6 
#
# 1 0.015518 -0.008794 -0.004607 0.000000 -0.000777 -0.000001
# 2 -0.008794 0.020417 0.001640 0.000002 0.000412 0.000001
# 3 -0.004607 0.001640 0.018026 0.000003 -0.001067 0.000003
# 4 0.000000 0.000002 0.000003 0.072644 0.000005 -0.029689
# 5 -0.000777 0.000412 -0.001067 0.000005 0.043258 0.000002
# 6 -0.000001 0.000001 0.000003 -0.029689 0.000002 0.154305
#
#
# Mechanical properties :
#
#
# Convention : Reuss Voigt Hill
#
# Bulk Modulus (GPa) = 32.85340 37.93566 35.39453
# Shear Modulus (GPa) = 13.97286 19.40066 16.68676
#
# Velocity S-wave (km/s) = 2.84013 3.34660 3.10371
# Velocity P-wave (km/s) = 5.45168 6.06899 5.76860
#
# Compressibility (1/GPa) = 0.03043825
#
# Stress axis : x y z
#
# Youngs Moduli (GPa) = 64.43987 48.97965 55.47583
#
# Poissons Ratio (x) = 0.43074 0.25558
# Poissons Ratio (y) = 0.56671 -0.09099
# Poissons Ratio (z) = 0.29688 -0.08033
#
# Static dielectric constant tensor:
#      x y z
#    x 1.619570 0.000000 -0.045740 
#    y 0.000000 1.651600 0.000000 
#    z -0.045740 0.000000 1.750070 
# 
# From -- ./inp_files/249646.got.cif
#   From: 2010.05.17/outbox.cif.g08.bks.cpg/sg15_125_cif.got.tgz:249646.got - 2010.06.03 18:47:42.
