data_PCOD9258650
_publ_section_title
;
Structure prediction by ZEFSAII (Michael W. Deem and Ramdas Pophale) SiO2 
 PCOD9258650
Probable space group: C 2/C
;
_chemical_formula_sum "Si O2"
_cell_formula_units_Z 40
_cell_length_a 8.385916
_cell_length_b 9.742980
_cell_length_c 20.921808
_cell_angle_alpha 90.000000
_cell_angle_beta 123.649139
_cell_angle_gamma 90.000000
_cell_volume 1422.976643
_symmetry_space_group_name_H-M "C 2/C"
_symmetry_group_IT_number 15
_symmetry_cell_setting 'monoclinic'
loop_
_space_group_symop_operation_xyz
x,y,z
-x,y,1/2-z
-x,-y,-z
x,-y,1/2+z
1/2+x,1/2+y,z
1/2-x,1/2+y,1/2-z
1/2-x,1/2-y,-z
1/2+x,1/2-y,1/2+z
loop_
_atom_site_type_symbol
_atom_site_label
_atom_site_fract_x
_atom_site_fract_y
_atom_site_fract_z
Si Si1 0.287351 0.296933 0.836144
Si Si2 0.310497 0.519732 0.745768
Si Si3 0.226995 0.130468 0.441807
Si Si4 0.707481 0.194033 0.831458
Si Si5 0.729388 0.466446 0.552658
O O1 0.203268 0.391940 0.758085
O O2 0.278338 0.135620 0.821149
O O3 0.501424 0.356530 0.878521
O O4 0.232919 0.331968 0.896996
O O5 0.500000 0.477721 0.750000
O O6 0.349046 0.621999 0.813699
O O7 0.250000 0.250000 0.500000
O O8 0.300976 0.176147 0.388649
O O9 0.182013 0.418205 0.381364
O O10 0.289531 0.994028 0.492892
O O11 0.500000 0.204012 0.750000
O O12 0.500000 0.500000 0.500000
#
# Coordination Sequence:
#
# PCOD9258650 Si02
#       5
#     8   8   8   8   8
#     4  10  21  40  65  95 134 177 225 273 345 396
#     4  11  25  40  63 102 140 172 219 290 337 398
#     4   9  17  34  66  97 124 176 230 274 332 410
#     4  10  18  33  63  96 123 171 231 271 327 398
#     4   8  17  33  58  94 125 170 219 270 333 401
#
# _framework density 28.110088999999999
#
# number of rings (size 3 to 8) (size 9 to 14) (size 15 to 20)
#    0.000    2.400    2.000    0.000    2.800    3.200 
#    0.000    0.000    0.000   45.600    0.000    0.000 
#    0.000    0.000    0.000    0.000    0.000    0.000 
#
# Total GULP energy -111450.471811 kJ/mol
# GULP energy per Si atom -5572.523591 kJ/mol
# Density = 2.804611 g / cm^3
# Si number density = 28.110089 Si / 1000 Ang^3
#
#
#
# Elastic Constant Matrix: (Units=GPa)
#
#
# Indices 1 2 3 4 5 6 
#
# 1 69.4180 10.8189 36.0010 0.0000 -4.0699 0.0000
# 2 10.8189 142.3188 47.2864 0.0000 16.8691 0.0000
# 3 36.0010 47.2864 165.2504 0.0000 -2.1632 0.0000
# 4 0.0000 0.0000 0.0000 42.7561 0.0000 3.4199
# 5 -4.0699 16.8691 -2.1632 0.0000 33.9843 0.0000
# 6 0.0000 0.0000 0.0000 3.4199 0.0000 17.1601
#
#
#
# Elastic Compliance Matrix: (Units=1/GPa)
#
#
# Indices 1 2 3 4 5 6 
#
# 1 0.016354 -0.000324 -0.003445 0.000000 0.001900 0.000000
# 2 -0.000324 0.008355 -0.002377 0.000000 -0.004337 0.000000
# 3 -0.003445 -0.002377 0.007499 0.000000 0.001245 0.000000
# 4 0.000000 0.000000 0.000000 0.023767 0.000000 -0.004737
# 5 0.001900 -0.004337 0.001245 0.000000 0.031885 0.000000
# 6 0.000000 0.000000 0.000000 -0.004737 0.000000 0.059219
#
#
# Mechanical properties :
#
#
# Convention : Reuss Voigt Hill
#
# Bulk Modulus (GPa) = 50.21230 62.79999 56.50614
# Shear Modulus (GPa) = 30.11880 37.63882 33.87881
#
# Velocity S-wave (km/s) = 3.27687 3.66318 3.47539
# Velocity P-wave (km/s) = 5.67615 6.34673 6.02078
#
# Compressibility (1/GPa) = 0.01991544
#
# Stress axis : x y z
#
# Youngs Moduli (GPa) = 61.14664 119.68907 133.35983
#
# Poissons Ratio (x) = 0.03874 0.45948
# Poissons Ratio (y) = 0.01979 0.31700
# Poissons Ratio (z) = 0.21067 0.28451
#
# Static dielectric constant tensor:
#      x y z
#    x 2.296810 0.000000 -0.002440 
#    y 0.000000 2.362360 0.000000 
#    z -0.002440 0.000000 2.332880 
# 
# From -- ./inp_files/230020.got.cif
#   From: 2010.05.17/outbox.cif.g08.bks.cpg/sg15_116_cif.got.tgz:230020.got - 2010.06.03 18:47:42.
