data_PCOD9258094
_publ_section_title
;
Structure prediction by ZEFSAII (Michael W. Deem and Ramdas Pophale) SiO2 
 PCOD9258094
Probable space group: C 2/C
;
_chemical_formula_sum "Si O2"
_cell_formula_units_Z 52
_cell_length_a 14.389927
_cell_length_b 11.913601
_cell_length_c 14.136465
_cell_angle_alpha 90.000000
_cell_angle_beta 117.011290
_cell_angle_gamma 90.000000
_cell_volume 2159.134684
_symmetry_space_group_name_H-M "C 2/C"
_symmetry_group_IT_number 15
_symmetry_cell_setting 'monoclinic'
loop_
_space_group_symop_operation_xyz
x,y,z
-x,y,1/2-z
-x,-y,-z
x,-y,1/2+z
1/2+x,1/2+y,z
1/2-x,1/2+y,1/2-z
1/2-x,1/2-y,-z
1/2+x,1/2-y,1/2+z
loop_
_atom_site_type_symbol
_atom_site_label
_atom_site_fract_x
_atom_site_fract_y
_atom_site_fract_z
Si Si1 0.074112 0.688919 0.155085
Si Si2 0.000000 0.865379 0.250000
Si Si3 0.899426 0.222944 0.285521
Si Si4 0.411495 0.097299 0.961752
Si Si5 0.725210 0.337461 0.112948
Si Si6 0.764023 0.520926 0.283080
Si Si7 0.059198 0.044169 0.429999
O O1 0.079984 0.781604 0.237532
O O2 0.141399 0.738886 0.098201
O O3 0.130137 0.574749 0.211100
O O4 0.954616 0.669109 0.069397
O O5 0.051493 0.943015 0.352979
O O6 0.907356 0.316231 0.371846
O O7 0.843933 0.291415 0.172610
O O8 0.815391 0.123003 0.256463
O O9 0.002034 0.148366 0.351160
O O10 0.302618 0.031847 0.900020
O O11 0.500000 0.000000 0.000000
O O12 0.721182 0.424060 0.197965
O O13 0.674067 0.409353 0.006327
O O14 0.000000 0.000000 0.500000
#
# Coordination Sequence:
#
# PCOD9258094 Si02
#       7
#     8   4   8   8   8   8   8
#     4  10  19  35  56  89 123 159 207 255 312 356
#     4  12  24  36  64  94 122 162 212 262 310 378
#     4  10  18  32  59  87 118 158 205 247 298 371
#     4   9  17  31  55  87 113 154 202 244 299 363
#     4  10  19  35  61  86 117 160 206 249 307 370
#     4   9  18  30  56  88 119 153 204 245 303 373
#     4  12  21  39  62  88 122 163 205 254 317 371
#
# _framework density 24.083722999999999
#
# number of rings (size 3 to 8) (size 9 to 14) (size 15 to 20)
#    0.000    1.846    4.615    0.000    0.000    0.000 
#    0.000    1.538    3.385    8.308    0.000    0.000 
#    0.000    0.000    0.000    0.000    0.000    0.000 
#
# Total GULP energy -144805.878814 kJ/mol
# GULP energy per Si atom -5569.456877 kJ/mol
# Density = 2.402891 g / cm^3
# Si number density = 24.083723 Si / 1000 Ang^3
#
#
#
# Elastic Constant Matrix: (Units=GPa)
#
#
# Indices 1 2 3 4 5 6 
#
# 1 43.8413 31.1281 51.4653 0.0000 8.0099 0.0000
# 2 31.1281 131.9577 54.2944 0.0000 6.1277 0.0000
# 3 51.4653 54.2944 155.3988 0.0000 33.3817 0.0000
# 4 0.0000 0.0000 0.0000 57.1246 0.0000 19.1148
# 5 8.0099 6.1277 33.3817 0.0000 34.0850 0.0000
# 6 0.0000 0.0000 0.0000 19.1148 0.0000 25.3913
#
#
#
# Elastic Compliance Matrix: (Units=1/GPa)
#
#
# Indices 1 2 3 4 5 6 
#
# 1 0.039919 -0.004469 -0.012432 0.000000 0.003598 0.000000
# 2 -0.004469 0.009441 -0.002127 0.000000 0.001436 0.000000
# 3 -0.012432 -0.002127 0.013406 0.000000 -0.009826 0.000000
# 4 0.000000 0.000000 0.000000 0.023400 0.000000 -0.017616
# 5 0.003598 0.001436 -0.009826 0.000000 0.037858 0.000000
# 6 0.000000 0.000000 0.000000 -0.017616 0.000000 0.052645
#
#
# Mechanical properties :
#
#
# Convention : Reuss Voigt Hill
#
# Bulk Modulus (GPa) = 40.46857 67.21924 53.84390
# Shear Modulus (GPa) = 22.42547 36.27420 29.34983
#
# Velocity S-wave (km/s) = 3.05478 3.88515 3.49472
# Velocity P-wave (km/s) = 5.41128 6.93521 6.22009
#
# Compressibility (1/GPa) = 0.02471054
#
# Stress axis : x y z
#
# Youngs Moduli (GPa) = 25.05079 105.92331 74.59236
#
# Poissons Ratio (x) = 0.47332 0.92734
# Poissons Ratio (y) = 0.11194 0.15866
# Poissons Ratio (z) = 0.31143 0.22531
#
# Static dielectric constant tensor:
#      x y z
#    x 2.203380 0.000000 -0.048910 
#    y 0.000000 1.944700 0.000000 
#    z -0.048910 0.000000 1.983580 
# 
# From -- ./inp_files/167710.got.cif
#   From: 2010.05.17/outbox.cif.g08.bks.cpg/sg15_84_cif.got.tgz:167710.got - 2010.06.03 18:47:42.
