data_PCOD9258628
_publ_section_title
;
Structure prediction by ZEFSAII (Michael W. Deem and Ramdas Pophale) SiO2 
 PCOD9258628
Probable space group: C 2/C
;
_chemical_formula_sum "Si O2"
_cell_formula_units_Z 64
_cell_length_a 14.171318
_cell_length_b 14.921319
_cell_length_c 27.799776
_cell_angle_alpha 90.000000
_cell_angle_beta 35.754932
_cell_angle_gamma 90.000000
_cell_volume 3434.860887
_symmetry_space_group_name_H-M "C 2/C"
_symmetry_group_IT_number 15
_symmetry_cell_setting 'monoclinic'
loop_
_space_group_symop_operation_xyz
x,y,z
-x,y,1/2-z
-x,-y,-z
x,-y,1/2+z
1/2+x,1/2+y,z
1/2-x,1/2+y,1/2-z
1/2-x,1/2-y,-z
1/2+x,1/2-y,1/2+z
loop_
_atom_site_type_symbol
_atom_site_label
_atom_site_fract_x
_atom_site_fract_y
_atom_site_fract_z
Si Si1 0.817531 0.028816 0.895256
Si Si2 0.566060 0.057973 0.078345
Si Si3 0.543623 0.965647 0.285315
Si Si4 0.487989 0.750810 0.198800
Si Si5 0.628427 0.897119 0.386531
Si Si6 0.846942 0.911107 0.207794
Si Si7 0.309039 0.171687 0.062180
Si Si8 0.365190 0.229474 0.148338
O O1 0.743266 0.092751 0.885052
O O2 0.006857 0.039642 0.825919
O O3 0.760293 0.929396 0.904142
O O4 0.730991 0.053733 0.981063
O O5 0.492756 0.156388 0.112343
O O6 0.568267 0.012688 0.129291
O O7 0.445110 0.995006 0.096799
O O8 0.500000 0.995258 0.250000
O O9 0.521049 0.858263 0.297282
O O10 0.729648 0.975978 0.225459
O O11 0.500000 0.722539 0.250000
O O12 0.653645 0.722753 0.105132
O O13 0.314789 0.711676 0.255748
O O14 0.733193 0.870853 0.297131
O O15 0.472438 0.837260 0.463682
O O16 0.904228 0.829791 0.149917
O O17 0.351673 0.216491 0.096059
#
# Coordination Sequence:
#
# PCOD9258628 Si02
#       8
#     8   8   8   8   8   8   8   8
#     4  11  20  35  56  92 112 149 187 236 295 338
#     4  10  19  34  60  78 114 149 193 228 285 344
#     4   9  19  39  55  75 111 158 186 234 288 332
#     4   8  17  29  55  81 102 139 189 224 273 328
#     4  10  19  36  54  87 121 150 172 241 298 337
#     4  10  23  34  58  83 118 147 193 233 289 344
#     4  10  18  33  62  85 112 144 189 234 284 338
#     4  10  18  35  52  85 111 148 185 226 277 344
#
# _framework density 18.632487000000001
#
# number of rings (size 3 to 8) (size 9 to 14) (size 15 to 20)
#    0.000    2.250    2.500    1.875    3.500    1.500 
#    0.000   11.875    0.000    0.000    0.000    0.000 
#    0.000    0.000    0.000    0.000    0.000    0.000 
#
# Total GULP energy -178266.224057 kJ/mol
# GULP energy per Si atom -5570.819502 kJ/mol
# Density = 1.859008 g / cm^3
# Si number density = 18.632487 Si / 1000 Ang^3
#
#
#
# Elastic Constant Matrix: (Units=GPa)
#
#
# Indices 1 2 3 4 5 6 
#
# 1 80.1882 -8.2586 42.5991 -0.0001 5.7301 0.0001
# 2 -8.2586 9.9803 5.3320 0.0000 7.6052 0.0000
# 3 42.5991 5.3320 81.9389 0.0001 7.0731 -0.0002
# 4 -0.0001 0.0000 0.0001 21.1318 0.0000 3.5519
# 5 5.7301 7.6052 7.0731 0.0000 24.2712 0.0000
# 6 0.0001 0.0000 -0.0002 3.5519 0.0000 14.4504
#
#
#
# Elastic Compliance Matrix: (Units=1/GPa)
#
#
# Indices 1 2 3 4 5 6 
#
# 1 0.025185 0.039249 -0.014436 0.000000 -0.014037 0.000000
# 2 0.039249 0.194933 -0.027715 0.000000 -0.062270 -0.000001
# 3 -0.014436 -0.027715 0.020997 0.000000 0.005973 0.000000
# 4 0.000000 0.000000 0.000000 0.049361 0.000000 -0.012133
# 5 -0.014037 -0.062270 0.005973 0.000000 0.062286 0.000000
# 6 0.000000 -0.000001 0.000000 -0.012133 0.000000 0.072184
#
#
# Mechanical properties :
#
#
# Convention : Reuss Voigt Hill
#
# Bulk Modulus (GPa) = 4.24969 27.93917 16.09443
# Shear Modulus (GPa) = 9.81960 20.79968 15.30964
#
# Velocity S-wave (km/s) = 2.29817 3.34475 2.86958
# Velocity P-wave (km/s) = 3.05415 5.47210 4.43124
#
# Compressibility (1/GPa) = 0.23531153
#
# Stress axis : x y z
#
# Youngs Moduli (GPa) = 39.70663 5.12998 47.62597
#
# Poissons Ratio (x) = -0.20135 0.68751
# Poissons Ratio (y) = -1.55844 1.31994
# Poissons Ratio (z) = 0.57319 0.14218
#
# Static dielectric constant tensor:
#      x y z
#    x 1.670100 0.000000 -0.017130 
#    y 0.000000 1.642480 0.000000 
#    z -0.017130 0.000000 1.670920 
# 
# From -- ./inp_files/314265.got.cif
#   From: 2010.05.17/outbox.cif.g08.bks.cpg/sg15_158_cif.got.tgz:314265.got - 2010.06.03 18:47:42.
