data_PCOD9258683
_publ_section_title
;
Structure prediction by ZEFSAII (Michael W. Deem and Ramdas Pophale) SiO2 
 PCOD9258683
Probable space group: C 2/C
;
_chemical_formula_sum "Si O2"
_cell_formula_units_Z 60
_cell_length_a 11.314522
_cell_length_b 24.042970
_cell_length_c 14.765661
_cell_angle_alpha 90.000000
_cell_angle_beta 126.114908
_cell_angle_gamma 90.000000
_cell_volume 3244.895525
_symmetry_space_group_name_H-M "C 2/C"
_symmetry_group_IT_number 15
_symmetry_cell_setting 'monoclinic'
loop_
_space_group_symop_operation_xyz
x,y,z
-x,y,1/2-z
-x,-y,-z
x,-y,1/2+z
1/2+x,1/2+y,z
1/2-x,1/2+y,1/2-z
1/2-x,1/2-y,-z
1/2+x,1/2-y,1/2+z
loop_
_atom_site_type_symbol
_atom_site_label
_atom_site_fract_x
_atom_site_fract_y
_atom_site_fract_z
Si Si1 0.500000 0.979263 0.750000
Si Si2 0.329647 0.513408 0.395254
Si Si3 0.399822 0.674525 0.796278
Si Si4 0.338226 0.488519 0.690396
Si Si5 0.413063 0.090967 0.390388
Si Si6 0.781994 0.602556 0.905906
Si Si7 0.343340 0.360548 0.967326
Si Si8 0.360708 0.198965 0.254857
O O1 0.338115 0.005900 0.651002
O O2 0.538950 0.942246 0.679237
O O3 0.500000 0.500000 0.500000
O O4 0.327359 0.495629 0.290188
O O5 0.325506 0.579895 0.411292
O O6 0.500000 0.672650 0.750000
O O7 0.269077 0.635041 0.705777
O O8 0.357975 0.738493 0.790141
O O9 0.495007 0.651537 0.922199
O O10 0.500000 0.466863 0.750000
O O11 0.219800 0.441167 0.623410
O O12 0.308602 0.545237 0.622910
O O13 0.548827 0.089121 0.518911
O O14 0.374911 0.152563 0.338820
O O15 0.753169 0.637727 0.984211
O O16 0.279356 0.315132 0.870378
O O17 0.500000 0.193540 0.250000
#
# Coordination Sequence:
#
# PCOD9258683 Si02
#       8
#     4   8   8   8   8   8   8   8
#     4  10  18  34  50  80 100 142 190 216 274 330
#     4  11  20  34  57  75 108 152 183 224 276 328
#     4   9  22  28  50  84 112 142 167 217 275 334
#     4  11  23  35  50  79 109 140 189 224 265 320
#     4  11  19  34  54  76 105 148 176 224 271 321
#     4  11  19  35  51  78 114 139 173 222 273 321
#     4  11  19  35  54  75 113 147 175 215 276 330
#     4  11  18  33  52  79 108 141 182 209 268 338
#
# _framework density 18.490579
#
# number of rings (size 3 to 8) (size 9 to 14) (size 15 to 20)
#    0.000    1.333    6.000    3.200    1.867    1.600 
#    0.000    0.000    0.000    0.000    0.000    3.733 
#    0.000    0.000    0.000    0.000    0.000    0.000 
#
# Total GULP energy -167075.590134 kJ/mol
# GULP energy per Si atom -5569.186338 kJ/mol
# Density = 1.844849 g / cm^3
# Si number density = 18.490579 Si / 1000 Ang^3
#
#
#
# Elastic Constant Matrix: (Units=GPa)
#
#
# Indices 1 2 3 4 5 6 
#
# 1 64.0064 10.4410 17.0884 0.0000 31.0156 0.0000
# 2 10.4410 37.9658 7.8642 0.0000 13.2773 0.0000
# 3 17.0884 7.8642 87.6778 0.0000 37.8474 0.0000
# 4 0.0000 0.0000 0.0000 23.7929 0.0000 8.4821
# 5 31.0156 13.2773 37.8474 0.0000 38.2231 0.0000
# 6 0.0000 0.0000 0.0000 8.4821 0.0000 13.5066
#
#
#
# Elastic Compliance Matrix: (Units=1/GPa)
#
#
# Indices 1 2 3 4 5 6 
#
# 1 0.028533 0.001536 0.007904 0.000000 -0.031512 0.000000
# 2 0.001536 0.030573 0.003634 0.000000 -0.015465 0.000000
# 3 0.007904 0.003634 0.022446 0.000000 -0.029902 0.000000
# 4 0.000000 0.000000 0.000000 0.054153 0.000000 -0.034008
# 5 -0.031512 -0.015465 -0.029902 0.000000 0.086712 0.000000
# 6 0.000000 0.000000 0.000000 -0.034008 0.000000 0.095395
#
#
# Mechanical properties :
#
#
# Convention : Reuss Voigt Hill
#
# Bulk Modulus (GPa) = 9.28503 28.93748 19.11126
# Shear Modulus (GPa) = 15.26422 25.38826 20.32624
#
# Velocity S-wave (km/s) = 2.87629 3.70947 3.31913
# Velocity P-wave (km/s) = 4.00788 5.83359 5.00469
#
# Compressibility (1/GPa) = 0.10770022
#
# Stress axis : x y z
#
# Youngs Moduli (GPa) = 35.04762 32.70913 44.55040
#
# Poissons Ratio (x) = -0.05025 -0.35212
# Poissons Ratio (y) = -0.05385 -0.16189
# Poissons Ratio (z) = -0.27702 -0.11886
#
# Static dielectric constant tensor:
#      x y z
#    x 1.680610 0.000000 0.057920 
#    y 0.000000 1.638700 0.000000 
#    z 0.057920 0.000000 1.696170 
# 
# From -- ./inp_files/148401.got.cif
#   From: 2010.05.17/outbox.cif.g08.bks.cpg/sg15_75_cif.got.tgz:148401.got - 2010.06.03 18:47:42.
