data_PCOD9258182
_publ_section_title
;
Structure prediction by ZEFSAII (Michael W. Deem and Ramdas Pophale) SiO2 
 PCOD9258182
Probable space group: C 2/C
;
_chemical_formula_sum "Si O2"
_cell_formula_units_Z 56
_cell_length_a 32.253207
_cell_length_b 14.444280
_cell_length_c 12.465829
_cell_angle_alpha 90.000000
_cell_angle_beta 142.944887
_cell_angle_gamma 90.000000
_cell_volume 3499.506546
_symmetry_space_group_name_H-M "C 2/C"
_symmetry_group_IT_number 15
_symmetry_cell_setting 'monoclinic'
loop_
_space_group_symop_operation_xyz
x,y,z
-x,y,1/2-z
-x,-y,-z
x,-y,1/2+z
1/2+x,1/2+y,z
1/2-x,1/2+y,1/2-z
1/2-x,1/2-y,-z
1/2+x,1/2-y,1/2+z
loop_
_atom_site_type_symbol
_atom_site_label
_atom_site_fract_x
_atom_site_fract_y
_atom_site_fract_z
Si Si1 0.336661 0.769235 0.563371
Si Si2 0.356819 0.133992 0.422716
Si Si3 0.904372 0.569313 0.747569
Si Si4 0.248927 0.605136 0.002055
Si Si5 0.750271 0.756189 0.318831
Si Si6 0.949658 0.363049 0.910275
Si Si7 0.255151 0.598308 0.474498
O O1 0.311530 0.776886 0.389929
O O2 0.414500 0.793691 0.753646
O O3 0.314465 0.668096 0.559737
O O4 0.290499 0.843752 0.534661
O O5 0.387793 0.078675 0.586816
O O6 0.316571 0.223172 0.386946
O O7 0.414794 0.155134 0.454309
O O8 0.296003 0.081877 0.232358
O O9 0.834065 0.596317 0.661308
O O10 0.925880 0.465752 0.824118
O O11 0.968508 0.634293 0.910203
O O12 0.267064 0.658760 0.930989
O O13 0.276783 0.500984 0.063113
O O14 0.268624 0.670105 0.142677
#
# Coordination Sequence:
#
# PCOD9258182 Si02
#       7
#     8   8   8   8   8   8   8
#     4   9  17  30  44  70  95 134 168 204 245 302
#     4   9  17  32  44  68  93 132 168 202 242 300
#     4  10  19  29  46  69 102 137 162 195 248 299
#     4  10  18  33  45  74  98 131 166 215 257 312
#     4   9  20  29  49  67  98 129 171 213 267 293
#     4  10  19  30  45  70 101 135 170 194 233 321
#     4   9  17  29  50  67  98 130 168 210 256 291
#
# _framework density 16.002255999999999
#
# number of rings (size 3 to 8) (size 9 to 14) (size 15 to 20)
#    0.000    2.571    2.857    1.286    2.000    1.143 
#    0.000    0.714    0.000    0.000    0.000    9.000 
#    0.000   27.429    0.000    0.429    0.000    0.000 
#
# Total GULP energy -155935.986130 kJ/mol
# GULP energy per Si atom -5569.142362 kJ/mol
# Density = 1.596583 g / cm^3
# Si number density = 16.002256 Si / 1000 Ang^3
#
#
#
# Elastic Constant Matrix: (Units=GPa)
#
#
# Indices 1 2 3 4 5 6 
#
# 1 45.1401 16.4757 30.6318 0.0000 -10.1098 0.0000
# 2 16.4757 75.2710 26.2023 0.0000 -10.7712 0.0000
# 3 30.6318 26.2023 84.8702 0.0000 -13.1482 0.0000
# 4 0.0000 0.0000 0.0000 21.3968 0.0000 1.9906
# 5 -10.1098 -10.7712 -13.1482 0.0000 18.5415 0.0000
# 6 0.0000 0.0000 0.0000 1.9906 0.0000 16.4114
#
#
#
# Elastic Compliance Matrix: (Units=1/GPa)
#
#
# Indices 1 2 3 4 5 6 
#
# 1 0.031272 -0.002347 -0.009135 0.000000 0.009209 0.000000
# 2 -0.002347 0.015692 -0.003127 0.000000 0.005618 0.000000
# 3 -0.009135 -0.003127 0.016842 0.000000 0.005146 0.000000
# 4 0.000000 0.000000 0.000000 0.047269 0.000000 -0.005734
# 5 0.009209 0.005618 0.005146 0.000000 0.065867 0.000000
# 6 0.000000 0.000000 0.000000 -0.005734 0.000000 0.061629
#
#
# Mechanical properties :
#
#
# Convention : Reuss Voigt Hill
#
# Bulk Modulus (GPa) = 28.91259 39.10009 34.00634
# Shear Modulus (GPa) = 17.90068 20.06805 18.98437
#
# Velocity S-wave (km/s) = 3.34823 3.54514 3.44809
# Velocity P-wave (km/s) = 5.74931 6.42219 6.09504
#
# Compressibility (1/GPa) = 0.03458701
#
# Stress axis : x y z
#
# Youngs Moduli (GPa) = 31.97779 63.72844 59.37361
#
# Poissons Ratio (x) = 0.14957 0.54240
# Poissons Ratio (y) = 0.07505 0.18566
# Poissons Ratio (z) = 0.29213 0.19928
#
# Static dielectric constant tensor:
#      x y z
#    x 1.550210 0.000000 -0.014500 
#    y 0.000000 1.542260 0.000000 
#    z -0.014500 0.000000 1.549980 
# 
# From -- ./inp_files/126754.got.cif
#   From: 2010.05.17/outbox.cif.g08.bks.cpg/sg15_64_cif.got.tgz:126754.got - 2010.06.03 18:47:42.
