data_PCOD9258249
_publ_section_title
;
Structure prediction by ZEFSAII (Michael W. Deem and Ramdas Pophale) SiO2 
 PCOD9258249
Probable space group: C 2/C
;
_chemical_formula_sum "Si O2"
_cell_formula_units_Z 64
_cell_length_a 14.748715
_cell_length_b 18.200943
_cell_length_c 11.864037
_cell_angle_alpha 90.000000
_cell_angle_beta 90.847021
_cell_angle_gamma 90.000000
_cell_volume 3184.440269
_symmetry_space_group_name_H-M "C 2/C"
_symmetry_group_IT_number 15
_symmetry_cell_setting 'monoclinic'
loop_
_space_group_symop_operation_xyz
x,y,z
-x,y,1/2-z
-x,-y,-z
x,-y,1/2+z
1/2+x,1/2+y,z
1/2-x,1/2+y,1/2-z
1/2-x,1/2-y,-z
1/2+x,1/2-y,1/2+z
loop_
_atom_site_type_symbol
_atom_site_label
_atom_site_fract_x
_atom_site_fract_y
_atom_site_fract_z
Si Si1 0.136709 0.259968 0.245309
Si Si2 0.452578 0.251219 0.972427
Si Si3 0.190309 0.685114 0.356578
Si Si4 0.252541 0.630833 0.879216
Si Si5 0.974642 0.087663 0.383546
Si Si6 0.335696 0.386391 0.611000
Si Si7 0.584402 0.738454 0.671962
Si Si8 0.717475 0.535793 0.167526
O O1 0.058122 0.279160 0.154567
O O2 0.220704 0.234125 0.165990
O O3 0.169603 0.325480 0.324014
O O4 0.129434 0.187960 0.325284
O O5 0.444436 0.337732 0.945098
O O6 0.373168 0.218562 0.048598
O O7 0.542911 0.241829 0.049429
O O8 0.133334 0.694955 0.239038
O O9 0.222112 0.602195 0.381602
O O10 0.342866 0.673071 0.836230
O O11 0.247900 0.545862 0.846523
O O12 0.265521 0.635103 0.013649
O O13 0.884880 0.039217 0.383021
O O14 0.000000 0.092416 0.250000
O O15 0.074248 0.073810 0.435763
O O16 0.292428 0.439112 0.702865
O O17 0.500000 0.715646 0.750000
#
# Coordination Sequence:
#
# PCOD9258249 Si02
#       8
#     8   8   8   8   8   8   8   8
#     4  10  20  34  57  81 108 146 198 235 262 324
#     4  11  17  33  60  83 105 143 189 237 273 315
#     4   9  19  35  53  81 113 148 185 227 281 325
#     4  11  22  36  55  84 113 149 187 226 276 340
#     4  10  18  33  52  83 111 144 182 217 281 335
#     4  10  20  38  54  78 119 152 182 225 281 328
#     4   9  20  34  54  86 109 140 186 236 274 323
#     4  10  22  36  52  81 119 153 177 222 286 345
#
# _framework density 20.097722000000001
#
# number of rings (size 3 to 8) (size 9 to 14) (size 15 to 20)
#    0.000    2.000    5.000    0.750    0.000    3.000 
#    4.500    0.000    0.000    0.750    9.750    0.000 
#    0.000    0.000    0.000    0.000    0.000    0.000 
#
# Total GULP energy -178324.475962 kJ/mol
# GULP energy per Si atom -5572.639874 kJ/mol
# Density = 2.005198 g / cm^3
# Si number density = 20.097722 Si / 1000 Ang^3
#
#
#
# Elastic Constant Matrix: (Units=GPa)
#
#
# Indices 1 2 3 4 5 6 
#
# 1 26.9350 17.6197 39.6134 0.0000 10.3621 0.0000
# 2 17.6197 92.6430 44.2951 0.0000 9.5308 0.0000
# 3 39.6134 44.2951 125.3309 0.0000 33.3905 0.0000
# 4 0.0000 0.0000 0.0000 20.3910 0.0000 12.6479
# 5 10.3621 9.5308 33.3905 0.0000 47.6445 0.0000
# 6 0.0000 0.0000 0.0000 12.6479 0.0000 10.0073
#
#
#
# Elastic Compliance Matrix: (Units=1/GPa)
#
#
# Indices 1 2 3 4 5 6 
#
# 1 0.070205 -0.003296 -0.021066 0.000000 0.000154 0.000000
# 2 -0.003296 0.013166 -0.003813 0.000000 0.000755 0.000000
# 3 -0.021066 -0.003813 0.017904 0.000000 -0.007203 0.000000
# 4 0.000000 0.000000 0.000000 0.226972 0.000000 -0.286861
# 5 0.000154 0.000755 -0.007203 0.000000 0.025852 0.000000
# 6 0.000000 0.000000 0.000000 -0.286861 0.000000 0.462479
#
#
# Mechanical properties :
#
#
# Convention : Reuss Voigt Hill
#
# Bulk Modulus (GPa) = 22.25894 49.77393 36.01644
# Shear Modulus (GPa) = 5.63125 25.16728 15.39926
#
# Velocity S-wave (km/s) = 1.67571 3.54255 2.77107
# Velocity P-wave (km/s) = 3.85272 6.44613 5.31018
#
# Compressibility (1/GPa) = 0.04492577
#
# Stress axis : x y z
#
# Youngs Moduli (GPa) = 14.24405 75.95183 55.85409
#
# Poissons Ratio (x) = 0.25032 1.17662
# Poissons Ratio (y) = 0.04695 0.21296
# Poissons Ratio (z) = 0.30006 0.28958
#
# Static dielectric constant tensor:
#      x y z
#    x 1.798480 0.000000 0.012260 
#    y 0.000000 1.677220 0.000000 
#    z 0.012260 0.000000 1.776440 
# 
# From -- ./inp_files/105723.got.cif
#   From: 2010.05.17/outbox.cif.g08.bks.cpg/sg15_53_cif.got.tgz:105723.got - 2010.06.03 18:47:42.
