data_PCOD9258869
_publ_section_title
;
Structure prediction by ZEFSAII (Michael W. Deem and Ramdas Pophale) SiO2 
 PCOD9258869
Probable space group: C 2/C
;
_chemical_formula_sum "Si O2"
_cell_formula_units_Z 40
_cell_length_a 7.339944
_cell_length_b 12.472049
_cell_length_c 20.125687
_cell_angle_alpha 90.000000
_cell_angle_beta 86.383863
_cell_angle_gamma 90.000000
_cell_volume 1838.720545
_symmetry_space_group_name_H-M "C 2/C"
_symmetry_group_IT_number 15
_symmetry_cell_setting 'monoclinic'
loop_
_space_group_symop_operation_xyz
x,y,z
-x,y,1/2-z
-x,-y,-z
x,-y,1/2+z
1/2+x,1/2+y,z
1/2-x,1/2+y,1/2-z
1/2-x,1/2-y,-z
1/2+x,1/2-y,1/2+z
loop_
_atom_site_type_symbol
_atom_site_label
_atom_site_fract_x
_atom_site_fract_y
_atom_site_fract_z
Si Si1 0.474327 0.738053 0.455291
Si Si2 0.470257 0.535035 0.113375
Si Si3 0.894595 0.589914 0.320247
Si Si4 0.374850 0.696874 0.901007
Si Si5 0.629343 0.037105 0.555473
O O1 0.412704 0.634877 0.414575
O O2 0.535153 0.718465 0.529269
O O3 0.659329 0.784825 0.416784
O O4 0.339477 0.837365 0.451630
O O5 0.326238 0.568452 0.174622
O O6 0.569506 0.422868 0.122105
O O7 0.929744 0.708118 0.349408
O O8 0.957116 0.502212 0.373273
O O9 0.000000 0.576060 0.250000
O O10 0.825205 0.020468 0.055071
O O11 0.500000 0.000000 0.500000
#
# Coordination Sequence:
#
# PCOD9258869 Si02
#       5
#     8   8   8   8   8
#     4  10  18  34  56  85 114 138 173 238 281 325
#     4   9  21  35  54  84 112 138 187 223 278 333
#     4   9  20  39  54  74 113 151 183 229 277 330
#     4  10  18  36  57  81 113 143 180 226 284 327
#     4  10  18  36  56  80 112 146 181 227 282 324
#
# _framework density 21.754256999999999
#
# number of rings (size 3 to 8) (size 9 to 14) (size 15 to 20)
#    1.200    1.200    2.000    1.800    0.000    0.800 
#   10.800    0.000    0.000    1.200    0.000    0.000 
#    0.000    0.000    0.000    0.000    0.000    0.000 
#
# Total GULP energy -111591.764983 kJ/mol
# GULP energy per Si atom -5579.588249 kJ/mol
# Density = 2.170474 g / cm^3
# Si number density = 21.754257 Si / 1000 Ang^3
#
#
#
# Elastic Constant Matrix: (Units=GPa)
#
#
# Indices 1 2 3 4 5 6 
#
# 1 42.0821 5.2656 5.4372 0.0000 -13.3178 0.0000
# 2 5.2656 159.5230 33.0857 0.0000 -11.6871 0.0000
# 3 5.4372 33.0857 111.1540 0.0000 -24.8487 0.0000
# 4 0.0000 0.0000 0.0000 23.7295 0.0000 -4.1102
# 5 -13.3178 -11.6871 -24.8487 0.0000 16.1087 0.0000
# 6 0.0000 0.0000 0.0000 -4.1102 0.0000 39.3861
#
#
#
# Elastic Compliance Matrix: (Units=1/GPa)
#
#
# Indices 1 2 3 4 5 6 
#
# 1 0.035808 0.000308 0.007364 0.000000 0.041187 0.000000
# 2 0.000308 0.006763 -0.001334 0.000000 0.003103 0.000000
# 3 0.007364 -0.001334 0.015535 0.000000 0.029084 0.000000
# 4 0.000000 0.000000 0.000000 0.042917 0.000000 0.004479
# 5 0.041187 0.003103 0.029084 0.000000 0.143244 0.000000
# 6 0.000000 0.000000 0.000000 0.004479 0.000000 0.025857
#
#
# Mechanical properties :
#
#
# Convention : Reuss Voigt Hill
#
# Bulk Modulus (GPa) = 14.12805 44.48178 29.30492
# Shear Modulus (GPa) = 17.79093 33.77624 25.78358
#
# Velocity S-wave (km/s) = 2.86285 3.94461 3.44644
# Velocity P-wave (km/s) = 4.17568 6.42171 5.41640
#
# Compressibility (1/GPa) = 0.07078116
#
# Stress axis : x y z
#
# Youngs Moduli (GPa) = 27.92711 147.87244 64.36942
#
# Poissons Ratio (x) = -0.04557 -0.47402
# Poissons Ratio (y) = -0.00861 0.08589
# Poissons Ratio (z) = -0.20566 0.19732
#
# Static dielectric constant tensor:
#      x y z
#    x 1.622230 0.000000 -0.188860 
#    y 0.000000 1.800810 0.000000 
#    z -0.188860 0.000000 1.709300 
# 
# From -- ./inp_files/262749.got.cif
#   From: 2010.05.17/outbox.cif.g08.bks.cpg/sg15_132_cif.got.tgz:262749.got - 2010.06.03 18:47:42.
