data_PCOD9258495
_publ_section_title
;
Structure prediction by ZEFSAII (Michael W. Deem and Ramdas Pophale) SiO2 
 PCOD9258495
Probable space group: C 2/C
;
_chemical_formula_sum "Si O2"
_cell_formula_units_Z 40
_cell_length_a 17.513599
_cell_length_b 6.848227
_cell_length_c 25.355110
_cell_angle_alpha 90.000000
_cell_angle_beta 150.106004
_cell_angle_gamma 90.000000
_cell_volume 1515.634130
_symmetry_space_group_name_H-M "C 2/C"
_symmetry_group_IT_number 15
_symmetry_cell_setting 'monoclinic'
loop_
_space_group_symop_operation_xyz
x,y,z
-x,y,1/2-z
-x,-y,-z
x,-y,1/2+z
1/2+x,1/2+y,z
1/2-x,1/2+y,1/2-z
1/2-x,1/2-y,-z
1/2+x,1/2-y,1/2+z
loop_
_atom_site_type_symbol
_atom_site_label
_atom_site_fract_x
_atom_site_fract_y
_atom_site_fract_z
Si Si1 0.879545 0.964842 0.488320
Si Si2 0.635678 0.847892 0.147767
Si Si3 0.522080 0.201057 0.127686
Si Si4 0.613008 0.484997 0.890818
Si Si5 0.214997 0.855620 0.840524
O O1 0.820118 0.925073 0.512620
O O2 0.763686 0.868954 0.378024
O O3 0.033911 0.838004 0.572839
O O4 0.931765 0.187983 0.526347
O O5 0.539143 0.973000 0.131987
O O6 0.670234 0.009660 0.123791
O O7 0.803008 0.780294 0.266784
O O8 0.437302 0.288621 0.128430
O O9 0.703521 0.449098 0.892009
O O10 0.450395 0.377969 0.784809
#
# Coordination Sequence:
#
# PCOD9258495 Si02
#       5
#     8   8   8   8   8
#     4  10  20  34  58  77 106 142 173 215 264 309
#     4  11  18  35  55  80 104 139 177 215 261 308
#     4   9  19  33  56  75 107 138 173 213 263 306
#     4   8  19  36  55  76 107 144 170 214 266 310
#     4  10  18  33  58  78 105 141 177 212 264 310
#
# _framework density 26.391594000000001
#
# number of rings (size 3 to 8) (size 9 to 14) (size 15 to 20)
#    1.200    1.200    2.000    1.200    0.000    0.800 
#    0.000    1.000    4.400    2.400    0.000    0.000 
#    0.000    0.000    0.000    0.000    0.000    0.000 
#
# Total GULP energy -111834.509241 kJ/mol
# GULP energy per Si atom -5591.725462 kJ/mol
# Density = 2.633153 g / cm^3
# Si number density = 26.391594 Si / 1000 Ang^3
#
#
#
# Elastic Constant Matrix: (Units=GPa)
#
#
# Indices 1 2 3 4 5 6 
#
# 1 89.5951 21.5928 -2.4951 0.0000 -15.6951 0.0001
# 2 21.5928 88.7149 30.2955 0.0000 7.4936 0.0004
# 3 -2.4951 30.2955 96.5154 0.0000 5.3289 0.0000
# 4 0.0000 0.0000 0.0000 33.2707 0.0000 1.3242
# 5 -15.6951 7.4936 5.3289 0.0000 29.8878 0.0000
# 6 0.0001 0.0004 0.0000 1.3242 0.0000 28.7050
#
#
#
# Elastic Compliance Matrix: (Units=1/GPa)
#
#
# Indices 1 2 3 4 5 6 
#
# 1 0.013687 -0.004460 0.001308 0.000000 0.008072 0.000000
# 2 -0.004460 0.014264 -0.004308 0.000000 -0.005150 0.000000
# 3 0.001308 -0.004308 0.011765 0.000000 -0.000331 0.000000
# 4 0.000000 0.000000 0.000000 0.030112 0.000000 -0.001389
# 5 0.008072 -0.005150 -0.000331 0.000000 0.039048 0.000000
# 6 0.000000 0.000000 0.000000 -0.001389 0.000000 0.034901
#
#
# Mechanical properties :
#
#
# Convention : Reuss Voigt Hill
#
# Bulk Modulus (GPa) = 40.32926 41.51241 40.92083
# Shear Modulus (GPa) = 29.94693 33.40152 31.67422
#
# Velocity S-wave (km/s) = 3.37221 3.56140 3.46810
# Velocity P-wave (km/s) = 5.52057 5.71621 5.61924
#
# Compressibility (1/GPa) = 0.02479590
#
# Stress axis : x y z
#
# Youngs Moduli (GPa) = 73.06370 70.10742 84.99462
#
# Poissons Ratio (x) = 0.31267 -0.11118
# Poissons Ratio (y) = 0.32585 0.36618
# Poissons Ratio (z) = -0.09557 0.30204
#
# Static dielectric constant tensor:
#      x y z
#    x 2.099030 0.000000 -0.049900 
#    y 0.000000 2.009480 0.000000 
#    z -0.049900 0.000000 2.050780 
# 
# From -- ./inp_files/317203.got.cif
#   From: 2010.05.17/outbox.cif.g08.bks.cpg/sg15_159_cif.got.tgz:317203.got - 2010.06.03 18:47:42.
