data_PCOD9258745
_publ_section_title
;
Structure prediction by ZEFSAII (Michael W. Deem and Ramdas Pophale) SiO2 
 PCOD9258745
Probable space group: C 2/C
;
_chemical_formula_sum "Si O2"
_cell_formula_units_Z 44
_cell_length_a 13.086220
_cell_length_b 28.000291
_cell_length_c 5.398463
_cell_angle_alpha 90.000000
_cell_angle_beta 100.050439
_cell_angle_gamma 90.000000
_cell_volume 1947.739013
_symmetry_space_group_name_H-M "C 2/C"
_symmetry_group_IT_number 15
_symmetry_cell_setting 'monoclinic'
loop_
_space_group_symop_operation_xyz
x,y,z
-x,y,1/2-z
-x,-y,-z
x,-y,1/2+z
1/2+x,1/2+y,z
1/2-x,1/2+y,1/2-z
1/2-x,1/2-y,-z
1/2+x,1/2-y,1/2+z
loop_
_atom_site_type_symbol
_atom_site_label
_atom_site_fract_x
_atom_site_fract_y
_atom_site_fract_z
Si Si1 0.795003 0.450629 0.214490
Si Si2 0.909545 0.834644 0.406598
Si Si3 0.620549 0.057797 0.249393
Si Si4 0.062658 0.939492 0.015083
Si Si5 0.280230 0.778697 0.265621
Si Si6 0.000000 0.746969 0.750000
O O1 0.857209 0.500718 0.263044
O O2 0.812239 0.425942 0.486328
O O3 0.675240 0.462269 0.109501
O O4 0.842205 0.422973 0.999700
O O5 0.908861 0.884554 0.549177
O O6 0.793869 0.824607 0.263599
O O7 0.000000 0.842738 0.250000
O O8 0.947727 0.785345 0.544063
O O9 0.500000 0.066228 0.250000
O O10 0.000000 0.940432 0.250000
O O11 0.000000 0.958643 0.750000
O O12 0.250000 0.750000 0.500000
O O13 0.404678 0.783499 0.315403
O O14 0.250000 0.750000 0.000000
#
# Coordination Sequence:
#
# PCOD9258745 Si02
#       6
#     8   8   8   8   8   4
#     4  10  19  34  55  85 108 143 182 231 269 321
#     4  10  19  34  55  78 106 146 184 218 273 333
#     4  10  19  36  61  83 107 139 191 230 273 327
#     4  11  23  37  54  78 115 151 187 220 272 337
#     4  10  20  31  54  80 104 132 175 231 267 316
#     4  10  18  34  54  80 106 132 186 218 282 308
#
# _framework density 22.590297
#
# number of rings (size 3 to 8) (size 9 to 14) (size 15 to 20)
#    0.000    1.818    2.727    3.818    0.000    0.000 
#    0.000   10.909    6.000    0.000    0.000    0.000 
#    0.000    0.000    0.000    0.000    0.000    0.000 
#
# Total GULP energy -122633.486851 kJ/mol
# GULP energy per Si atom -5574.249402 kJ/mol
# Density = 2.253888 g / cm^3
# Si number density = 22.590297 Si / 1000 Ang^3
#
#
#
# Elastic Constant Matrix: (Units=GPa)
#
#
# Indices 1 2 3 4 5 6 
#
# 1 144.9693 24.0908 2.9321 0.0000 2.8558 0.0000
# 2 24.0908 54.3348 0.7186 0.0000 12.2580 0.0000
# 3 2.9321 0.7186 119.4344 0.0000 -4.7523 0.0000
# 4 0.0000 0.0000 0.0000 3456.9867 0.0000-1172.0988
# 5 2.8558 12.2580 -4.7523 0.0000 37.6863 0.0000
# 6 0.0000 0.0000 0.0000-1172.0988 0.0000 414.0426
#
#
#
# Elastic Compliance Matrix: (Units=1/GPa)
#
#
# Indices 1 2 3 4 5 6 
#
# 1 0.007460 -0.003425 -0.000141 0.000000 0.000531 0.000000
# 2 -0.003425 0.021452 -0.000314 0.000000 -0.006758 0.000000
# 3 -0.000141 -0.000314 0.008425 0.000000 0.001175 0.000000
# 4 0.000000 0.000000 0.000000 0.007198 0.000000 0.020376
# 5 0.000531 -0.006758 0.001175 0.000000 0.028841 0.000000
# 6 0.000000 0.000000 0.000000 0.020376 0.000000 0.060097
#
#
# Mechanical properties :
#
#
# Convention : Reuss Voigt Hill
#
# Bulk Modulus (GPa) = 33.81219 41.58016 37.69617
# Shear Modulus (GPa) = 33.09263 801.14291 417.11777
#
# Velocity S-wave (km/s) = 3.83156 18.85233 13.60314
# Velocity P-wave (km/s) = 5.88001 22.18843 16.23116
#
# Compressibility (1/GPa) = 0.02957514
#
# Stress axis : x y z
#
# Youngs Moduli (GPa) = 134.05486 46.61610 118.69554
#
# Poissons Ratio (x) = 0.15968 0.01678
# Poissons Ratio (y) = 0.45919 0.03725
# Poissons Ratio (z) = 0.01895 0.01463
#
# Static dielectric constant tensor:
#      x y z
#    x 1.811370 0.000000 0.010370 
#    y 0.000000 1.871600 0.000000 
#    z 0.010370 0.000000 1.933030 
# 
# From -- ./inp_files/5862.got.cif
#   From: 2010.05.17/outbox.cif.g08.bks.cpg/sg15_3_cif.got.tgz:5862.got - 2010.06.03 18:47:42.
