data_PCOD9258570
_publ_section_title
;
Structure prediction by ZEFSAII (Michael W. Deem and Ramdas Pophale) SiO2 
 PCOD9258570
Probable space group: C 2/C
;
_chemical_formula_sum "Si O2"
_cell_formula_units_Z 48
_cell_length_a 21.988926
_cell_length_b 9.493564
_cell_length_c 19.199333
_cell_angle_alpha 90.000000
_cell_angle_beta 142.496144
_cell_angle_gamma 90.000000
_cell_volume 2440.083326
_symmetry_space_group_name_H-M "C 2/C"
_symmetry_group_IT_number 15
_symmetry_cell_setting 'monoclinic'
loop_
_space_group_symop_operation_xyz
x,y,z
-x,y,1/2-z
-x,-y,-z
x,-y,1/2+z
1/2+x,1/2+y,z
1/2-x,1/2+y,1/2-z
1/2-x,1/2-y,-z
1/2+x,1/2-y,1/2+z
loop_
_atom_site_type_symbol
_atom_site_label
_atom_site_fract_x
_atom_site_fract_y
_atom_site_fract_z
Si Si1 0.615282 0.166075 0.858623
Si Si2 0.479620 0.612090 0.040805
Si Si3 0.089404 0.611300 0.583456
Si Si4 0.786551 0.478663 0.918595
Si Si5 0.918531 0.021974 0.221885
Si Si6 0.245860 0.329265 0.341195
O O1 0.500000 0.119375 0.750000
O O2 0.609812 0.336920 0.848369
O O3 0.686797 0.132038 0.858457
O O4 0.658282 0.100095 0.967779
O O5 0.361089 0.626780 0.944375
O O6 0.500000 0.500000 0.000000
O O7 0.531870 0.750734 0.057507
O O8 0.530448 0.571809 0.160096
O O9 0.144068 0.587184 0.559239
O O10 0.180740 0.600587 0.721163
O O11 0.000000 0.500000 0.500000
O O12 0.685442 0.550241 0.854310
O O13 0.750655 0.342790 0.839826
O O14 0.000000 0.941479 0.250000
#
# Coordination Sequence:
#
# PCOD9258570 Si02
#       6
#     8   8   8   8   8   8
#     4  10  18  33  59  92 124 156 216 272 317 368
#     4  12  24  40  62  94 128 173 216 260 329 394
#     4  12  24  40  60  95 135 166 213 270 327 387
#     4  11  20  35  61  93 126 166 211 274 329 370
#     4  10  19  36  60  92 124 161 222 268 309 378
#     4  11  21  37  60  89 125 166 207 266 321 378
#
# _framework density 19.67146
#
# number of rings (size 3 to 8) (size 9 to 14) (size 15 to 20)
#    0.000    1.000    5.000    7.000    0.000    0.000 
#    0.000    0.000    0.000    7.000    0.000    0.000 
#    0.000    0.000    0.000    0.000    0.000    0.000 
#
# Total GULP energy -133842.278489 kJ/mol
# GULP energy per Si atom -5576.761604 kJ/mol
# Density = 1.962669 g / cm^3
# Si number density = 19.671460 Si / 1000 Ang^3
#
#
#
# Elastic Constant Matrix: (Units=GPa)
#
#
# Indices 1 2 3 4 5 6 
#
# 1 188.8866 23.9392 56.9054 0.0000 33.3392 0.0000
# 2 23.9392 11.7595 20.7300 0.0000 -5.6699 0.0000
# 3 56.9054 20.7300 118.3020 0.0000 22.9493 0.0000
# 4 0.0000 0.0000 0.0000 14.2483 0.0000 -0.8937
# 5 33.3392 -5.6699 22.9493 0.0000 51.3646 0.0000
# 6 0.0000 0.0000 0.0000 -0.8937 0.0000 16.1166
#
#
#
# Elastic Compliance Matrix: (Units=1/GPa)
#
#
# Indices 1 2 3 4 5 6 
#
# 1 0.010573 -0.032062 0.002792 0.000000 -0.011649 0.000000
# 2 -0.032062 0.260498 -0.043620 0.000000 0.069055 0.000000
# 3 0.002792 -0.043620 0.017561 0.000000 -0.014474 0.000000
# 4 0.000000 0.000000 0.000000 0.070429 0.000000 0.003906
# 5 -0.011649 0.069055 -0.014474 0.000000 0.041119 0.000000
# 6 0.000000 0.000000 0.000000 0.003906 0.000000 0.062264
#
#
# Mechanical properties :
#
#
# Convention : Reuss Voigt Hill
#
# Bulk Modulus (GPa) = 7.00029 58.01082 32.50555
# Shear Modulus (GPa) = 7.62380 30.83746 19.23063
#
# Velocity S-wave (km/s) = 1.97078 3.96362 3.13004
# Velocity P-wave (km/s) = 2.95719 7.10640 5.44270
#
# Compressibility (1/GPa) = 0.14285118
#
# Stress axis : x y z
#
# Youngs Moduli (GPa) = 94.58485 3.83881 56.94422
#
# Poissons Ratio (x) = 0.12308 -0.15901
# Poissons Ratio (y) = 3.03259 2.48393
# Poissons Ratio (z) = -0.26413 0.16745
#
# Static dielectric constant tensor:
#      x y z
#    x 1.729440 0.000000 0.015880 
#    y 0.000000 1.649800 0.000000 
#    z 0.015880 0.000000 1.718020 
# 
# From -- ./inp_files/214881.got.cif
#   From: 2010.05.17/outbox.cif.g08.bks.cpg/sg15_108_cif.got.tgz:214881.got - 2010.06.03 18:47:42.
