data_PCOD9258723
_publ_section_title
;
Structure prediction by ZEFSAII (Michael W. Deem and Ramdas Pophale) SiO2 
 PCOD9258723
Probable space group: C 2/C
;
_chemical_formula_sum "Si O2"
_cell_formula_units_Z 56
_cell_length_a 32.828689
_cell_length_b 9.592806
_cell_length_c 23.406008
_cell_angle_alpha 90.000000
_cell_angle_beta 25.428481
_cell_angle_gamma 90.000000
_cell_volume 3164.991340
_symmetry_space_group_name_H-M "C 2/C"
_symmetry_group_IT_number 15
_symmetry_cell_setting 'monoclinic'
loop_
_space_group_symop_operation_xyz
x,y,z
-x,y,1/2-z
-x,-y,-z
x,-y,1/2+z
1/2+x,1/2+y,z
1/2-x,1/2+y,1/2-z
1/2-x,1/2-y,-z
1/2+x,1/2-y,1/2+z
loop_
_atom_site_type_symbol
_atom_site_label
_atom_site_fract_x
_atom_site_fract_y
_atom_site_fract_z
Si Si1 0.028476 0.026556 0.148787
Si Si2 0.993103 0.273379 0.405490
Si Si3 0.735715 0.535749 0.342270
Si Si4 0.441032 0.041194 0.132028
Si Si5 0.272705 0.256419 0.208524
Si Si6 0.378626 0.401076 0.668052
Si Si7 0.036550 0.133936 0.875810
O O1 0.974347 0.921431 0.174406
O O2 0.000000 0.010995 0.250000
O O3 0.005118 0.180348 0.153551
O O4 0.140102 0.999039 0.996963
O O5 0.885103 0.267588 0.564445
O O6 0.025152 0.432702 0.362907
O O7 0.061456 0.198149 0.365133
O O8 0.830177 0.522982 0.259651
O O9 0.745420 0.419012 0.279852
O O10 0.734075 0.687326 0.315135
O O11 0.458180 0.201382 0.125351
O O12 0.500000 0.000000 0.000000
O O13 0.218498 0.172866 0.226547
O O14 0.379402 0.550905 0.697959
O O15 0.442207 0.413719 0.530173
#
# Coordination Sequence:
#
# PCOD9258723 Si02
#       7
#     8   8   8   8   8   8   8
#     4  10  23  43  59  76 113 167 205 224 263 347
#     4  10  21  36  58  85 119 147 187 242 294 341
#     4  11  22  33  57  87 120 148 185 237 293 354
#     4  12  20  34  55  92 124 140 173 247 315 343
#     4  11  20  31  53  88 118 147 178 235 304 345
#     4  10  18  34  53  84 120 147 180 230 298 354
#     4  10  20  33  57  81 115 153 185 236 286 341
#
# _framework density 17.693572
#
# number of rings (size 3 to 8) (size 9 to 14) (size 15 to 20)
#    0.000    1.429    5.714    0.000    4.000    0.000 
#    0.000    2.143    0.000    0.000    0.000    0.000 
#    0.000    0.000    0.000    0.000    0.000    0.000 
#
# Total GULP energy -156303.158596 kJ/mol
# GULP energy per Si atom -5582.255664 kJ/mol
# Density = 1.765330 g / cm^3
# Si number density = 17.693572 Si / 1000 Ang^3
#
#
#
# Elastic Constant Matrix: (Units=GPa)
#
#
# Indices 1 2 3 4 5 6 
#
# 1 90.0474 42.4564 46.5838 -0.0009 3.4019 0.0005
# 2 42.4564 137.9702 33.3982 -0.0010 6.7934 0.0002
# 3 46.5838 33.3982 56.7739 -0.0012 3.8537 0.0011
# 4 -0.0009 -0.0010 -0.0012 15.9139 0.0005 -6.7831
# 5 3.4019 6.7934 3.8537 0.0005 37.5775 -0.0003
# 6 0.0005 0.0002 0.0011 -6.7831 -0.0003 23.1198
#
#
#
# Elastic Compliance Matrix: (Units=1/GPa)
#
#
# Indices 1 2 3 4 5 6 
#
# 1 0.020037 -0.002556 -0.014950 0.000000 0.000181 0.000000
# 2 -0.002556 0.008817 -0.003018 0.000000 -0.001053 0.000000
# 3 -0.014950 -0.003018 0.031748 0.000001 -0.001357 -0.000001
# 4 0.000000 0.000000 0.000001 0.071819 -0.000001 0.021071
# 5 0.000181 -0.001053 -0.001357 -0.000001 0.026925 0.000000
# 6 0.000000 0.000000 -0.000001 0.021071 0.000000 0.049435
#
#
# Mechanical properties :
#
#
# Convention : Reuss Voigt Hill
#
# Bulk Modulus (GPa) = 51.13878 58.85203 54.99540
# Shear Modulus (GPa) = 19.50488 26.14579 22.82533
#
# Velocity S-wave (km/s) = 3.32380 3.84826 3.59560
# Velocity P-wave (km/s) = 6.61025 7.28557 6.95611
#
# Compressibility (1/GPa) = 0.01955463
#
# Stress axis : x y z
#
# Youngs Moduli (GPa) = 49.90669 113.41870 31.49842
#
# Poissons Ratio (x) = 0.28990 0.47089
# Poissons Ratio (y) = 0.12756 0.09506
# Poissons Ratio (z) = 0.74609 0.34229
#
# Static dielectric constant tensor:
#      x y z
#    x 1.634070 0.000000 -0.035770 
#    y 0.000000 1.654340 0.000000 
#    z -0.035770 0.000000 1.574450 
# 
# From -- ./inp_files/258973.got.cif
#   From: 2010.05.17/outbox.cif.g08.bks.cpg/sg15_130_cif.got.tgz:258973.got - 2010.06.03 18:47:42.
