data_PCOD9258505
_publ_section_title
;
Structure prediction by ZEFSAII (Michael W. Deem and Ramdas Pophale) SiO2 
 PCOD9258505
Probable space group: C 2/C
;
_chemical_formula_sum "Si O2"
_cell_formula_units_Z 52
_cell_length_a 9.198530
_cell_length_b 27.455812
_cell_length_c 10.408934
_cell_angle_alpha 90.000000
_cell_angle_beta 85.031820
_cell_angle_gamma 90.000000
_cell_volume 2618.932085
_symmetry_space_group_name_H-M "C 2/C"
_symmetry_group_IT_number 15
_symmetry_cell_setting 'monoclinic'
loop_
_space_group_symop_operation_xyz
x,y,z
-x,y,1/2-z
-x,-y,-z
x,-y,1/2+z
1/2+x,1/2+y,z
1/2-x,1/2+y,1/2-z
1/2-x,1/2-y,-z
1/2+x,1/2-y,1/2+z
loop_
_atom_site_type_symbol
_atom_site_label
_atom_site_fract_x
_atom_site_fract_y
_atom_site_fract_z
Si Si1 0.883144 0.903088 0.874697
Si Si2 0.362698 0.385534 0.449487
Si Si3 0.698932 0.290540 0.900298
Si Si4 0.122943 0.667628 0.331027
Si Si5 0.500000 0.678632 0.750000
Si Si6 0.079844 0.246076 0.984496
Si Si7 0.900780 0.011671 0.883539
O O1 0.746446 0.867753 0.873537
O O2 0.000000 0.895338 0.750000
O O3 0.829476 0.958995 0.865096
O O4 0.977207 0.893761 0.996630
O O5 0.288838 0.345913 0.547494
O O6 0.377102 0.356896 0.315188
O O7 0.308906 0.440294 0.427409
O O8 0.791979 0.292491 0.764308
O O9 0.750000 0.250000 0.000000
O O10 0.527826 0.276463 0.900792
O O11 0.042190 0.698725 0.446692
O O12 0.000000 0.644238 0.250000
O O13 0.549244 0.711107 0.865480
O O14 0.250000 0.250000 0.000000
O O15 0.000000 0.022776 0.750000
O O16 0.000000 0.000000 0.000000
#
# Coordination Sequence:
#
# PCOD9258505 Si02
#       7
#     8   8   8   8   4   8   8
#     4  10  20  34  57  89 110 145 198 245 295 356
#     4  10  18  33  58  83 118 146 184 248 301 341
#     4  11  21  37  56  85 118 154 200 239 291 363
#     4  12  21  37  56  80 119 160 196 245 298 356
#     4  10  18  34  50  86 116 146 188 232 294 358
#     4  11  23  36  56  83 116 157 197 241 299 355
#     4   9  18  33  56  90 118 144 189 251 308 354
#
# _framework density 19.855422000000001
#
# number of rings (size 3 to 8) (size 9 to 14) (size 15 to 20)
#    0.000    1.538    4.615    2.769    0.000    0.000 
#    0.000    0.000    0.000    0.923    4.000    0.000 
#    0.000    0.000    0.000    0.000    0.000    0.000 
#
# Total GULP energy -144877.278245 kJ/mol
# GULP energy per Si atom -5572.203009 kJ/mol
# Density = 1.981023 g / cm^3
# Si number density = 19.855422 Si / 1000 Ang^3
#
#
#
# Elastic Constant Matrix: (Units=GPa)
#
#
# Indices 1 2 3 4 5 6 
#
# 1 68.7188 20.1715 9.0280 0.0000 2.3843 0.0000
# 2 20.1715 144.0154 11.3993 0.0000 -4.4825 0.0000
# 3 9.0280 11.3993 65.2579 0.0000 -3.5239 0.0000
# 4 0.0000 0.0000 0.0000 23.8910 0.0000 0.7916
# 5 2.3843 -4.4825 -3.5239 0.0000 28.9317 0.0000
# 6 0.0000 0.0000 0.0000 0.7916 0.0000 22.4185
#
#
#
# Elastic Compliance Matrix: (Units=1/GPa)
#
#
# Indices 1 2 3 4 5 6 
#
# 1 0.015471 -0.002075 -0.001876 0.000000 -0.001825 0.000000
# 2 -0.002075 0.007345 -0.000931 0.000000 0.001196 0.000000
# 3 -0.001876 -0.000931 0.015851 0.000000 0.001941 0.000000
# 4 0.000000 0.000000 0.000000 0.041906 0.000000 -0.001480
# 5 -0.001825 0.001196 0.001941 0.000000 0.035136 0.000000
# 6 0.000000 0.000000 0.000000 -0.001480 0.000000 0.044658
#
#
# Mechanical properties :
#
#
# Convention : Reuss Voigt Hill
#
# Bulk Modulus (GPa) = 34.60063 39.90999 37.25531
# Shear Modulus (GPa) = 27.81372 30.87445 29.34409
#
# Velocity S-wave (km/s) = 3.74680 3.94758 3.84850
# Velocity P-wave (km/s) = 6.01516 6.39701 6.20902
#
# Compressibility (1/GPa) = 0.02890121
#
# Stress axis : x y z
#
# Youngs Moduli (GPa) = 64.63687 136.14126 63.08784
#
# Poissons Ratio (x) = 0.28253 0.11838
# Poissons Ratio (y) = 0.13414 0.05876
# Poissons Ratio (z) = 0.12128 0.12681
#
# Static dielectric constant tensor:
#      x y z
#    x 1.114680 0.000000 -0.110950 
#    y 0.000000 1.773750 0.000000 
#    z -0.110950 0.000000 1.766940 
# 
# From -- ./inp_files/81841.got.cif
#   From: 2010.05.17/outbox.cif.g08.bks.cpg/sg15_41_cif.got.tgz:81841.got - 2010.06.03 18:47:42.
