data_PCOD9258535
_publ_section_title
;
Structure prediction by ZEFSAII (Michael W. Deem and Ramdas Pophale) SiO2 
 PCOD9258535
Probable space group: C 2/C
;
_chemical_formula_sum "Si O2"
_cell_formula_units_Z 60
_cell_length_a 19.966473
_cell_length_b 11.661853
_cell_length_c 13.794769
_cell_angle_alpha 90.000000
_cell_angle_beta 73.092467
_cell_angle_gamma 90.000000
_cell_volume 3073.217734
_symmetry_space_group_name_H-M "C 2/C"
_symmetry_group_IT_number 15
_symmetry_cell_setting 'monoclinic'
loop_
_space_group_symop_operation_xyz
x,y,z
-x,y,1/2-z
-x,-y,-z
x,-y,1/2+z
1/2+x,1/2+y,z
1/2-x,1/2+y,1/2-z
1/2-x,1/2-y,-z
1/2+x,1/2-y,1/2+z
loop_
_atom_site_type_symbol
_atom_site_label
_atom_site_fract_x
_atom_site_fract_y
_atom_site_fract_z
Si Si1 0.377586 0.178778 0.580896
Si Si2 0.831136 0.085846 0.094362
Si Si3 0.103748 0.533717 0.760044
Si Si4 0.000000 0.225099 0.750000
Si Si5 0.284056 0.140444 0.201605
Si Si6 0.455178 0.066381 0.386901
Si Si7 0.237488 0.046198 0.583379
Si Si8 0.132866 0.129180 0.795149
O O1 0.385002 0.311244 0.551382
O O2 0.433703 0.097823 0.503283
O O3 0.303804 0.130185 0.571805
O O4 0.384579 0.154295 0.692577
O O5 0.780270 0.143840 0.196343
O O6 0.862975 0.973044 0.129285
O O7 0.789223 0.054377 0.014852
O O8 0.165503 0.453735 0.770737
O O9 0.095721 0.521768 0.648083
O O10 0.032211 0.480253 0.833118
O O11 0.048389 0.311663 0.667189
O O12 0.054036 0.157379 0.794800
O O13 0.326761 0.258618 0.180513
O O14 0.259765 0.080558 0.111796
O O15 0.177068 0.088912 0.682338
#
# Coordination Sequence:
#
# PCOD9258535 Si02
#       8
#     8   8   8   4   8   8   8   8
#     4  11  20  34  56  85 114 140 192 238 281 339
#     4  11  23  35  58  88 114 154 183 233 289 340
#     4   9  19  33  55  84 109 143 187 236 282 327
#     4  10  20  36  60  78 112 160 190 224 272 352
#     4  10  19  37  58  84 112 146 188 240 280 328
#     4  10  18  33  59  82 105 149 196 231 287 322
#     4  10  22  35  59  86 111 146 193 238 287 333
#     4  11  21  40  60  81 119 151 193 230 284 342
#
# _framework density 19.523510000000002
#
# number of rings (size 3 to 8) (size 9 to 14) (size 15 to 20)
#    0.000    1.867    4.000    2.400    0.000    0.533 
#    0.000    4.000    2.933    0.000    0.000    0.000 
#    0.000    0.000    0.000    0.000    0.000    0.000 
#
# Total GULP energy -167262.422824 kJ/mol
# GULP energy per Si atom -5575.414094 kJ/mol
# Density = 1.947907 g / cm^3
# Si number density = 19.523510 Si / 1000 Ang^3
#
#
#
# Elastic Constant Matrix: (Units=GPa)
#
#
# Indices 1 2 3 4 5 6 
#
# 1 -137.6180 -30.1134 -196.3507 0.0000 -164.3063 0.0000
# 2 -30.1134 82.9216 -27.5112 0.0000 -32.8114 0.0000
# 3 -196.3507 -27.5112 -153.2171 0.0000 -170.7978 0.0000
# 4 0.0000 0.0000 0.0000 15.3359 0.0000 9.5063
# 5 -164.3063 -32.8114 -170.7978 0.0000 -147.5756 0.0000
# 6 0.0000 0.0000 0.0000 9.5063 0.0000 18.4925
#
#
#
# Elastic Compliance Matrix: (Units=1/GPa)
#
#
# Indices 1 2 3 4 5 6 
#
# 1 0.022859 -0.002051 0.003665 0.000000 -0.029236 0.000000
# 2 -0.002051 0.011580 -0.003011 0.000000 0.003194 0.000000
# 3 0.003665 -0.003011 0.023713 0.000000 -0.030855 0.000000
# 4 0.000000 0.000000 0.000000 0.095702 0.000000 -0.049197
# 5 -0.029236 0.003194 -0.030855 0.000000 0.060775 0.000000
# 6 0.000000 0.000000 0.000000 -0.049197 0.000000 0.079366
#
#
# Mechanical properties :
#
#
# Convention : Reuss Voigt Hill
#
# Bulk Modulus (GPa) = 18.06457 -79.54045 -30.73794
# Shear Modulus (GPa) = 15.86093 -19.67865 -1.90886
#
# Velocity S-wave (km/s) = 2.85336 -3.17826 -0.98987
# Velocity P-wave (km/s) = 4.48646 7.36870 4.13336
#
# Compressibility (1/GPa) = 0.05535698
#
# Stress axis : x y z
#
# Youngs Moduli (GPa) = 43.74735 86.35924 42.17160
#
# Poissons Ratio (x) = 0.17714 -0.15457
# Poissons Ratio (y) = 0.08974 0.12698
# Poissons Ratio (z) = -0.16035 0.26002
#
# Static dielectric constant tensor:
#      x y z
#    x 1.694320 0.000000 -0.015220 
#    y 0.000000 1.706130 0.000000 
#    z -0.015220 0.000000 1.753290 
# 
# From -- ./inp_files/167239.got.cif
#   From: 2010.05.17/outbox.cif.g08.bks.cpg/sg15_84_cif.got.tgz:167239.got - 2010.06.03 18:47:42.
