data_PCOD9258858
_publ_section_title
;
Structure prediction by ZEFSAII (Michael W. Deem and Ramdas Pophale) SiO2 
 PCOD9258858
Probable space group: C 2/C
;
_chemical_formula_sum "Si O2"
_cell_formula_units_Z 64
_cell_length_a 16.821098
_cell_length_b 9.922972
_cell_length_c 26.976927
_cell_angle_alpha 90.000000
_cell_angle_beta 141.846394
_cell_angle_gamma 90.000000
_cell_volume 2781.741100
_symmetry_space_group_name_H-M "C 2/C"
_symmetry_group_IT_number 15
_symmetry_cell_setting 'monoclinic'
loop_
_space_group_symop_operation_xyz
x,y,z
-x,y,1/2-z
-x,-y,-z
x,-y,1/2+z
1/2+x,1/2+y,z
1/2-x,1/2+y,1/2-z
1/2-x,1/2-y,-z
1/2+x,1/2-y,1/2+z
loop_
_atom_site_type_symbol
_atom_site_label
_atom_site_fract_x
_atom_site_fract_y
_atom_site_fract_z
Si Si1 0.493377 0.703597 0.621168
Si Si2 0.366175 0.183988 0.152823
Si Si3 0.142750 0.616777 0.120209
Si Si4 0.893721 0.779680 0.793951
Si Si5 0.815110 0.684878 0.467729
Si Si6 0.254110 0.182172 0.813999
Si Si7 0.915136 0.613153 0.660158
Si Si8 0.387066 0.432366 0.567618
O O1 0.391280 0.744412 0.613182
O O2 0.533161 0.817519 0.601126
O O3 0.622422 0.671961 0.716895
O O4 0.432382 0.571314 0.566257
O O5 0.500000 0.182598 0.250000
O O6 0.271226 0.257899 0.144003
O O7 0.343607 0.028621 0.127909
O O8 0.272882 0.700386 0.198572
O O9 0.120023 0.632414 0.050212
O O10 0.177794 0.462514 0.149252
O O11 0.835972 0.783874 0.820524
O O12 0.974236 0.640905 0.826470
O O13 0.997846 0.897516 0.837229
O O14 0.752468 0.573629 0.473973
O O15 0.889866 0.800950 0.533965
O O16 0.688730 0.770578 0.391866
O O17 0.000000 0.626925 0.750000
#
# Coordination Sequence:
#
# PCOD9258858 Si02
#       8
#     8   8   8   8   8   8   8   8
#     4  10  20  34  55  81 115 149 184 239 284 335
#     4   9  19  33  53  81 113 145 184 238 287 332
#     4  11  20  34  57  86 110 146 194 233 280 342
#     4  10  20  34  57  83 113 147 184 237 284 334
#     4  10  22  36  58  84 111 153 192 230 282 352
#     4  10  20  34  55  86 111 147 191 237 285 337
#     4  10  18  34  56  83 111 143 184 235 284 332
#     4  10  21  39  55  80 119 151 187 232 290 340
#
# _framework density 23.007175
#
# number of rings (size 3 to 8) (size 9 to 14) (size 15 to 20)
#    0.000    2.000    2.500    1.500    0.000    2.500 
#    0.000    1.250    0.000    0.000    0.000    0.000 
#    0.000    0.000    0.000    0.000    0.000    0.000 
#
# Total GULP energy -178505.098357 kJ/mol
# GULP energy per Si atom -5578.284324 kJ/mol
# Density = 2.295481 g / cm^3
# Si number density = 23.007175 Si / 1000 Ang^3
#
#
#
# Elastic Constant Matrix: (Units=GPa)
#
#
# Indices 1 2 3 4 5 6 
#
# 1 114.0838 21.6599 6.9774 0.0000 -14.6517 0.0000
# 2 21.6599 73.7923 -6.0351 0.0000 3.3901 0.0000
# 3 6.9774 -6.0351 35.1516 0.0000 -0.7726 0.0000
# 4 0.0000 0.0000 0.0000 8.1056 0.0000 -5.4813
# 5 -14.6517 3.3901 -0.7726 0.0000 28.4977 0.0000
# 6 0.0000 0.0000 0.0000 -5.4813 0.0000 32.6243
#
#
#
# Elastic Compliance Matrix: (Units=1/GPa)
#
#
# Indices 1 2 3 4 5 6 
#
# 1 0.010308 -0.003491 -0.002521 0.000000 0.005647 0.000000
# 2 -0.003491 0.014998 0.003191 0.000000 -0.003493 0.000000
# 3 -0.002521 0.003191 0.029477 0.000000 -0.000877 0.000000
# 4 0.000000 0.000000 0.000000 0.139186 0.000000 0.023385
# 5 0.005647 -0.003493 -0.000877 0.000000 0.038385 0.000000
# 6 0.000000 0.000000 0.000000 0.023385 0.000000 0.034581
#
#
# Mechanical properties :
#
#
# Convention : Reuss Voigt Hill
#
# Bulk Modulus (GPa) = 20.35001 29.80357 25.07679
# Shear Modulus (GPa) = 17.30357 27.20720 22.25539
#
# Velocity S-wave (km/s) = 2.74541 3.44256 3.11356
# Velocity P-wave (km/s) = 4.34902 5.36505 4.88353
#
# Compressibility (1/GPa) = 0.04914003
#
# Stress axis : x y z
#
# Youngs Moduli (GPa) = 97.01476 66.67666 33.92444
#
# Poissons Ratio (x) = 0.23278 0.08553
# Poissons Ratio (y) = 0.33870 -0.10826
# Poissons Ratio (z) = 0.24461 -0.21278
#
# Static dielectric constant tensor:
#      x y z
#    x 1.863320 0.000000 -0.003060 
#    y 0.000000 1.881210 0.000000 
#    z -0.003060 0.000000 1.934180 
# 
# From -- ./inp_files/315755.got.cif
#   From: 2010.05.17/outbox.cif.g08.bks.cpg/sg15_158_cif.got.tgz:315755.got - 2010.06.03 18:47:42.
