data_PCOD9258846
_publ_section_title
;
Structure prediction by ZEFSAII (Michael W. Deem and Ramdas Pophale) SiO2 
 PCOD9258846
Probable space group: C 2/C
;
_chemical_formula_sum "Si O2"
_cell_formula_units_Z 36
_cell_length_a 17.854867
_cell_length_b 7.568289
_cell_length_c 15.045392
_cell_angle_alpha 90.000000
_cell_angle_beta 51.285883
_cell_angle_gamma 90.000000
_cell_volume 1586.376500
_symmetry_space_group_name_H-M "C 2/C"
_symmetry_group_IT_number 15
_symmetry_cell_setting 'monoclinic'
loop_
_space_group_symop_operation_xyz
x,y,z
-x,y,1/2-z
-x,-y,-z
x,-y,1/2+z
1/2+x,1/2+y,z
1/2-x,1/2+y,1/2-z
1/2-x,1/2-y,-z
1/2+x,1/2-y,1/2+z
loop_
_atom_site_type_symbol
_atom_site_label
_atom_site_fract_x
_atom_site_fract_y
_atom_site_fract_z
Si Si1 0.638739 0.860569 0.395900
Si Si2 0.040631 0.832624 0.415715
Si Si3 0.195177 0.562462 0.037833
Si Si4 0.500000 0.223286 0.250000
Si Si5 0.270497 0.466222 0.153386
O O1 0.527321 0.822702 0.497670
O O2 0.681769 0.977048 0.444450
O O3 0.688404 0.665322 0.365815
O O4 0.670876 0.940906 0.279260
O O5 0.151567 0.838790 0.359407
O O6 0.025394 0.835047 0.320306
O O7 0.000000 0.000000 0.500000
O O8 0.252859 0.438180 0.061975
O O9 0.091032 0.604815 0.156158
O O10 0.250000 0.750000 0.000000
#
# Coordination Sequence:
#
# PCOD9258846 Si02
#       5
#     8   8   8   4   8
#     4   9  19  34  54  81 110 143 185 226 271 325
#     4   9  18  31  53  82 109 142 184 226 270 325
#     4   9  18  33  55  80 108 146 185 219 269 334
#     4  10  18  34  56  80 108 146 186 222 266 332
#     4  10  18  34  57  82 109 146 185 227 270 325
#
# _framework density 22.693224000000001
#
# number of rings (size 3 to 8) (size 9 to 14) (size 15 to 20)
#    0.000    2.667    0.000    4.000    0.000    0.000 
#    0.000   11.111    0.000   10.667    0.000    0.000 
#    0.000    0.000    0.000    0.000    0.000    0.000 
#
# Total GULP energy -100442.616503 kJ/mol
# GULP energy per Si atom -5580.145361 kJ/mol
# Density = 2.264157 g / cm^3
# Si number density = 22.693224 Si / 1000 Ang^3
#
#
#
# Elastic Constant Matrix: (Units=GPa)
#
#
# Indices 1 2 3 4 5 6 
#
# 1 135.8932 36.3820 45.0206 0.0000 23.6867 0.0000
# 2 36.3820 61.4159 17.6101 0.0000 20.5007 0.0000
# 3 45.0206 17.6101 101.1257 0.0000 5.0008 0.0000
# 4 0.0000 0.0000 0.0000 32.9268 0.0000 8.4189
# 5 23.6867 20.5007 5.0008 0.0000 48.6257 0.0000
# 6 0.0000 0.0000 0.0000 8.4189 0.0000 15.5329
#
#
#
# Elastic Compliance Matrix: (Units=1/GPa)
#
#
# Indices 1 2 3 4 5 6 
#
# 1 0.010150 -0.003996 -0.003680 0.000000 -0.002881 0.000000
# 2 -0.003996 0.021420 -0.001609 0.000000 -0.006919 0.000000
# 3 -0.003680 -0.001609 0.011745 0.000000 0.001263 0.000000
# 4 0.000000 0.000000 0.000000 0.035256 0.000000 -0.019109
# 5 -0.002881 -0.006919 0.001263 0.000000 0.024756 0.000000
# 6 0.000000 0.000000 0.000000 -0.019109 0.000000 0.074737
#
#
# Mechanical properties :
#
#
# Convention : Reuss Voigt Hill
#
# Bulk Modulus (GPa) = 40.41253 55.16224 47.78738
# Shear Modulus (GPa) = 24.40418 32.71191 28.55805
#
# Velocity S-wave (km/s) = 3.28288 3.80081 3.55130
# Velocity P-wave (km/s) = 5.67597 6.60470 6.15787
#
# Compressibility (1/GPa) = 0.02474480
#
# Stress axis : x y z
#
# Youngs Moduli (GPa) = 98.52261 46.68452 85.14316
#
# Poissons Ratio (x) = 0.18654 0.31336
# Poissons Ratio (y) = 0.39366 0.13701
# Poissons Ratio (z) = 0.36260 0.07512
#
# Static dielectric constant tensor:
#      x y z
#    x 1.872450 0.000000 -0.036750 
#    y 0.000000 1.856070 0.000000 
#    z -0.036750 0.000000 1.841570 
# 
# From -- ./inp_files/103520.got.cif
#   From: 2010.05.17/outbox.cif.g08.bks.cpg/sg15_52_cif.got.tgz:103520.got - 2010.06.03 18:47:42.
