data_PCOD9258838
_publ_section_title
;
Structure prediction by ZEFSAII (Michael W. Deem and Ramdas Pophale) SiO2 
 PCOD9258838
Probable space group: C 2/C
;
_chemical_formula_sum "Si O2"
_cell_formula_units_Z 44
_cell_length_a 21.158796
_cell_length_b 24.265122
_cell_length_c 12.963910
_cell_angle_alpha 90.000000
_cell_angle_beta 157.787008
_cell_angle_gamma 90.000000
_cell_volume 2516.283147
_symmetry_space_group_name_H-M "C 2/C"
_symmetry_group_IT_number 15
_symmetry_cell_setting 'monoclinic'
loop_
_space_group_symop_operation_xyz
x,y,z
-x,y,1/2-z
-x,-y,-z
x,-y,1/2+z
1/2+x,1/2+y,z
1/2-x,1/2+y,1/2-z
1/2-x,1/2-y,-z
1/2+x,1/2-y,1/2+z
loop_
_atom_site_type_symbol
_atom_site_label
_atom_site_fract_x
_atom_site_fract_y
_atom_site_fract_z
Si Si1 0.550499 0.756591 0.207221
Si Si2 0.341274 0.022748 0.697112
Si Si3 0.866981 0.857097 0.397752
Si Si4 0.051789 0.363816 0.079250
Si Si5 0.659551 0.085108 0.416657
Si Si6 0.000000 0.058154 0.250000
O O1 0.500000 0.764220 0.250000
O O2 0.750000 0.750000 0.500000
O O3 0.505702 0.809418 0.071121
O O4 0.457619 0.701350 0.028694
O O5 0.389002 0.086869 0.755063
O O6 0.170196 0.024006 0.503900
O O7 0.307896 0.979449 0.555851
O O8 0.500000 0.000000 0.000000
O O9 0.708714 0.853080 0.238256
O O10 0.988809 0.901583 0.634886
O O11 0.801997 0.881838 0.192133
O O12 0.900339 0.386091 0.779537
O O13 0.500000 0.087062 0.250000
#
# Coordination Sequence:
#
# PCOD9258838 Si02
#       6
#     8   8   8   8   8   4
#     4  12  21  36  58  82 110 148 194 237 281 337
#     4   9  18  35  55  80 112 148 187 234 287 337
#     4  10  19  36  56  80 111 150 195 227 291 350
#     4   9  19  36  57  83 112 147 189 240 286 340
#     4   9  19  35  58  81 112 153 188 233 290 347
#     4  10  18  34  56  78 110 154 192 234 276 348
#
# _framework density 17.486108999999999
#
# number of rings (size 3 to 8) (size 9 to 14) (size 15 to 20)
#    0.000    2.182    2.727    2.182    0.000    2.182 
#    0.000    3.636    0.000    0.000    0.000    0.000 
#    0.000    0.000    0.000    0.000    0.000    0.000 
#
# Total GULP energy -122547.760117 kJ/mol
# GULP energy per Si atom -5570.352733 kJ/mol
# Density = 1.744631 g / cm^3
# Si number density = 17.486109 Si / 1000 Ang^3
#
#
#
# Elastic Constant Matrix: (Units=GPa)
#
#
# Indices 1 2 3 4 5 6 
#
# 1 60.2419 50.6186 35.2226 0.0000 -14.2227 0.0000
# 2 50.6186 135.1213 63.1037 0.0000 -15.3347 0.0000
# 3 35.2226 63.1037 98.9460 0.0000 -6.8141 0.0000
# 4 0.0000 0.0000 0.0000 34.4209 0.0000 -3.5085
# 5 -14.2227 -15.3347 -6.8141 0.0000 26.1292 0.0000
# 6 0.0000 0.0000 0.0000 -3.5085 0.0000 39.4787
#
#
#
# Elastic Compliance Matrix: (Units=1/GPa)
#
#
# Indices 1 2 3 4 5 6 
#
# 1 0.027502 -0.007047 -0.004633 0.000000 0.009626 0.000000
# 2 -0.007047 0.012896 -0.005559 0.000000 0.002283 0.000000
# 3 -0.004633 -0.005559 0.015175 0.000000 -0.001827 0.000000
# 4 0.000000 0.000000 0.000000 0.029318 0.000000 0.002605
# 5 0.009626 0.002283 -0.001827 0.000000 0.044375 0.000000
# 6 0.000000 0.000000 0.000000 0.002605 0.000000 0.025562
#
#
# Mechanical properties :
#
#
# Convention : Reuss Voigt Hill
#
# Bulk Modulus (GPa) = 47.40208 65.79988 56.60098
# Shear Modulus (GPa) = 25.46656 29.69672 27.58164
#
# Velocity S-wave (km/s) = 3.82041 4.12552 3.97589
# Velocity P-wave (km/s) = 6.82847 7.77205 7.31548
#
# Compressibility (1/GPa) = 0.02109612
#
# Stress axis : x y z
#
# Youngs Moduli (GPa) = 36.36056 77.54621 65.89727
#
# Poissons Ratio (x) = 0.54643 0.30532
# Poissons Ratio (y) = 0.25621 0.36630
# Poissons Ratio (z) = 0.16847 0.43105
#
# Static dielectric constant tensor:
#      x y z
#    x 1.595760 0.000000 -0.007050 
#    y 0.000000 1.609210 0.000000 
#    z -0.007050 0.000000 1.620340 
# 
# From -- ./inp_files/169646.got.cif
#   From: 2010.05.17/outbox.cif.g08.bks.cpg/sg15_85_cif.got.tgz:169646.got - 2010.06.03 18:47:42.
