data_PCOD9258230
_publ_section_title
;
Structure prediction by ZEFSAII (Michael W. Deem and Ramdas Pophale) SiO2 
 PCOD9258230
Probable space group: C 2/C
;
_chemical_formula_sum "Si O2"
_cell_formula_units_Z 56
_cell_length_a 8.509131
_cell_length_b 27.231520
_cell_length_c 19.045473
_cell_angle_alpha 90.000000
_cell_angle_beta 141.828275
_cell_angle_gamma 90.000000
_cell_volume 2727.418245
_symmetry_space_group_name_H-M "C 2/C"
_symmetry_group_IT_number 15
_symmetry_cell_setting 'monoclinic'
loop_
_space_group_symop_operation_xyz
x,y,z
-x,y,1/2-z
-x,-y,-z
x,-y,1/2+z
1/2+x,1/2+y,z
1/2-x,1/2+y,1/2-z
1/2-x,1/2-y,-z
1/2+x,1/2-y,1/2+z
loop_
_atom_site_type_symbol
_atom_site_label
_atom_site_fract_x
_atom_site_fract_y
_atom_site_fract_z
Si Si1 0.000000 0.911896 0.250000
Si Si2 0.573857 0.758906 0.040266
Si Si3 0.500000 0.902656 0.250000
Si Si4 0.425445 0.163016 0.842749
Si Si5 0.303500 0.332056 0.840516
Si Si6 0.703334 0.560095 0.124524
Si Si7 0.015517 0.959458 0.404710
Si Si8 0.141092 0.251478 0.684007
O O1 0.772645 0.875107 0.191923
O O2 0.085936 0.943651 0.349285
O O3 0.489099 0.799434 0.066492
O O4 0.544761 0.702261 0.052122
O O5 0.878877 0.760522 0.134081
O O6 0.436163 0.766899 0.919790
O O7 0.414157 0.870675 0.152763
O O8 0.738302 0.935460 0.314398
O O9 0.289447 0.201007 0.741996
O O10 0.384495 0.388005 0.873296
O O11 0.299888 0.296381 0.772154
O O12 0.000000 0.334816 0.750000
O O13 0.529307 0.516994 0.095678
O O14 0.000000 0.552314 0.250000
O O15 0.676098 0.559667 0.029281
#
# Coordination Sequence:
#
# PCOD9258230 Si02
#       8
#     4   8   4   8   8   8   8   8
#     4  10  20  34  60  86 108 148 198 244 286 330
#     4   9  16  27  50  81 109 143 188 231 280 325
#     4  10  22  36  58  80 116 152 186 238 292 344
#     4  10  18  33  51  81 111 144 191 235 283 336
#     4   8  16  27  47  79 108 141 183 226 278 327
#     4  10  20  38  62  84 113 153 196 236 290 350
#     4  10  22  39  62  86 115 147 198 242 287 345
#     4   9  16  28  49  80 112 141 184 240 271 332
#
# _framework density 20.532238
#
# number of rings (size 3 to 8) (size 9 to 14) (size 15 to 20)
#    0.000    2.571    2.143    0.857    4.000    2.286 
#    0.000    1.429    6.286    0.857    0.000    0.000 
#    0.000    0.000    0.000    0.000    0.000    0.000 
#
# Total GULP energy -155967.245864 kJ/mol
# GULP energy per Si atom -5570.258781 kJ/mol
# Density = 2.048551 g / cm^3
# Si number density = 20.532238 Si / 1000 Ang^3
#
#
#
# Elastic Constant Matrix: (Units=GPa)
#
#
# Indices 1 2 3 4 5 6 
#
# 1 49.7008 22.1771 6.7189 -0.0001 -16.0724 0.0000
# 2 22.1771 131.6988 8.6655 0.0000 -18.0502 0.0003
# 3 6.7189 8.6655 77.1175 -0.0002 -16.3348 0.0005
# 4 -0.0001 0.0000 -0.0002 6.1545 -0.0001 10.1828
# 5 -16.0724 -18.0502 -16.3348 -0.0001 23.7987 0.0003
# 6 0.0000 0.0003 0.0005 10.1828 0.0003 -26.2872
#
#
#
# Elastic Compliance Matrix: (Units=1/GPa)
#
#
# Indices 1 2 3 4 5 6 
#
# 1 0.026484 -0.002191 0.001609 0.000000 0.017329 0.000000
# 2 -0.002191 0.008670 0.000347 0.000000 0.005334 0.000000
# 3 0.001609 0.000347 0.015298 0.000000 0.011850 0.000000
# 4 0.000000 0.000000 0.000000 0.099020 0.000000 0.038357
# 5 0.017329 0.005334 0.011850 0.000000 0.065902 0.000001
# 6 0.000000 0.000000 0.000000 0.038357 0.000001 -0.023183
#
#
# Mechanical properties :
#
#
# Convention : Reuss Voigt Hill
#
# Bulk Modulus (GPa) = 20.00669 37.07112 28.53891
# Shear Modulus (GPa) = 23.88668 15.46358 19.67513
#
# Velocity S-wave (km/s) = 3.41453 2.74731 3.09893
# Velocity P-wave (km/s) = 5.03096 5.30640 5.17051
#
# Compressibility (1/GPa) = 0.04998327
#
# Stress axis : x y z
#
# Youngs Moduli (GPa) = 37.75830 115.33660 65.36759
#
# Poissons Ratio (x) = 0.25265 -0.10520
# Poissons Ratio (y) = 0.08271 -0.02265
# Poissons Ratio (z) = -0.06077 -0.03997
#
# Static dielectric constant tensor:
#      x y z
#    x 1.790660 0.000000 0.003160 
#    y 0.000000 1.723320 0.000000 
#    z 0.003160 0.000000 1.780450 
# 
# From -- ./inp_files/193624.got.cif
#   From: 2010.05.17/outbox.cif.g08.bks.cpg/sg15_97_cif.got.tgz:193624.got - 2010.06.03 18:47:42.
