data_PCOD9258280
_publ_section_title
;
Structure prediction by ZEFSAII (Michael W. Deem and Ramdas Pophale) SiO2 
 PCOD9258280
Probable space group: C 2/C
;
_chemical_formula_sum "Si O2"
_cell_formula_units_Z 64
_cell_length_a 19.777752
_cell_length_b 14.022636
_cell_length_c 25.363285
_cell_angle_alpha 90.000000
_cell_angle_beta 149.434083
_cell_angle_gamma 90.000000
_cell_volume 3577.075228
_symmetry_space_group_name_H-M "C 2/C"
_symmetry_group_IT_number 15
_symmetry_cell_setting 'monoclinic'
loop_
_space_group_symop_operation_xyz
x,y,z
-x,y,1/2-z
-x,-y,-z
x,-y,1/2+z
1/2+x,1/2+y,z
1/2-x,1/2+y,1/2-z
1/2-x,1/2-y,-z
1/2+x,1/2-y,1/2+z
loop_
_atom_site_type_symbol
_atom_site_label
_atom_site_fract_x
_atom_site_fract_y
_atom_site_fract_z
Si Si1 0.228748 0.075764 0.549324
Si Si2 0.374084 0.240968 0.483463
Si Si3 0.793990 0.393506 0.839305
Si Si4 0.823459 0.774759 0.830275
Si Si5 0.667460 0.068535 0.699276
Si Si6 0.052280 0.655428 0.870365
Si Si7 0.649684 0.538422 0.093038
Si Si8 0.495840 0.626434 0.309083
O O1 0.215721 0.166572 0.580330
O O2 0.373021 0.087918 0.620335
O O3 0.114953 0.088539 0.427479
O O4 0.201383 0.988658 0.569699
O O5 0.368972 0.165490 0.434049
O O6 0.524316 0.278694 0.588177
O O7 0.336439 0.189652 0.512434
O O8 0.773683 0.322923 0.776726
O O9 0.864131 0.487576 0.864846
O O10 0.644708 0.409775 0.761514
O O11 0.791174 0.662679 0.806012
O O12 0.829918 0.848428 0.883127
O O13 0.553469 0.101551 0.663722
O O14 0.774156 0.018396 0.809181
O O15 0.999232 0.756707 0.812905
O O16 0.500000 0.500000 0.000000
O O17 0.500000 0.599077 0.250000
#
# Coordination Sequence:
#
# PCOD9258280 Si02
#       8
#     8   8   8   8   8   8   8   8
#     4  11  19  33  52  81 116 141 180 227 286 346
#     4  10  18  33  53  80 115 150 179 228 288 339
#     4  11  19  34  55  80 112 152 186 230 282 335
#     4  10  20  35  50  83 114 146 195 227 283 331
#     4  10  22  36  53  82 118 145 190 231 277 342
#     4  10  21  32  49  82 116 145 174 224 295 339
#     4  11  21  35  57  82 115 153 194 231 279 344
#     4  11  20  33  53  82 112 142 180 226 286 350
#
# _framework density 17.891711000000001
#
# number of rings (size 3 to 8) (size 9 to 14) (size 15 to 20)
#    0.000    1.500    5.000    4.500    1.750    2.000 
#    0.000    0.000    0.000    0.000    6.500    2.625 
#    0.000    0.125    0.000    0.000    0.000    0.000 
#
# Total GULP energy -178221.242018 kJ/mol
# GULP energy per Si atom -5569.413813 kJ/mol
# Density = 1.785099 g / cm^3
# Si number density = 17.891711 Si / 1000 Ang^3
#
#
#
# Elastic Constant Matrix: (Units=GPa)
#
#
# Indices 1 2 3 4 5 6 
#
# 1 78.4170 39.6540 10.3347 -0.0003 -9.2569 0.0000
# 2 39.6540 97.7587 16.2756 -0.0011 -10.7739 -0.0001
# 3 10.3347 16.2756 39.1170 -0.0015 -10.3331 -0.0001
# 4 -0.0003 -0.0011 -0.0015 21.0261 -0.0005 -8.2904
# 5 -9.2569 -10.7739 -10.3331 -0.0005 27.2657 0.0000
# 6 0.0000 -0.0001 -0.0001 -8.2904 0.0000 38.6084
#
#
#
# Elastic Compliance Matrix: (Units=1/GPa)
#
#
# Indices 1 2 3 4 5 6 
#
# 1 0.016318 -0.006147 -0.001035 0.000000 0.002719 0.000000
# 2 -0.006147 0.013517 -0.003490 0.000000 0.001932 0.000000
# 3 -0.001035 -0.003490 0.029818 0.000002 0.009570 0.000001
# 4 0.000000 0.000000 0.000002 0.051959 0.000002 0.011157
# 5 0.002719 0.001932 0.009570 0.000002 0.041989 0.000000
# 6 0.000000 0.000000 0.000001 0.011157 0.000000 0.028297
#
#
# Mechanical properties :
#
#
# Convention : Reuss Voigt Hill
#
# Bulk Modulus (GPa) = 26.10403 38.64680 32.37541
# Shear Modulus (GPa) = 23.14689 27.31526 25.23107
#
# Velocity S-wave (km/s) = 3.60074 3.91154 3.75935
# Velocity P-wave (km/s) = 5.64878 6.48440 6.08096
#
# Compressibility (1/GPa) = 0.03830826
#
# Stress axis : x y z
#
# Youngs Moduli (GPa) = 61.28108 73.98313 33.53708
#
# Poissons Ratio (x) = 0.45479 0.03472
# Poissons Ratio (y) = 0.37671 0.11703
# Poissons Ratio (z) = 0.06345 0.25817
#
# Static dielectric constant tensor:
#      x y z
#    x 1.640830 0.000000 -0.020000 
#    y 0.000000 1.634740 0.000000 
#    z -0.020000 0.000000 1.693270 
# 
# From -- ./inp_files/300867.got.cif
#   From: 2010.05.17/outbox.cif.g08.bks.cpg/sg15_151_cif.got.tgz:300867.got - 2010.06.03 18:47:42.
