data_PCOD9258726
_publ_section_title
;
Structure prediction by ZEFSAII (Michael W. Deem and Ramdas Pophale) SiO2 
 PCOD9258726
Probable space group: C 2/C
;
_chemical_formula_sum "Si O2"
_cell_formula_units_Z 60
_cell_length_a 8.967262
_cell_length_b 20.259797
_cell_length_c 26.167414
_cell_angle_alpha 90.000000
_cell_angle_beta 146.939618
_cell_angle_gamma 90.000000
_cell_volume 2593.393891
_symmetry_space_group_name_H-M "C 2/C"
_symmetry_group_IT_number 15
_symmetry_cell_setting 'monoclinic'
loop_
_space_group_symop_operation_xyz
x,y,z
-x,y,1/2-z
-x,-y,-z
x,-y,1/2+z
1/2+x,1/2+y,z
1/2-x,1/2+y,1/2-z
1/2-x,1/2-y,-z
1/2+x,1/2-y,1/2+z
loop_
_atom_site_type_symbol
_atom_site_label
_atom_site_fract_x
_atom_site_fract_y
_atom_site_fract_z
Si Si1 0.913141 0.404598 0.116156
Si Si2 0.373642 0.666947 0.094466
Si Si3 0.217044 0.475416 0.521434
Si Si4 0.621456 0.434463 0.506090
Si Si5 0.000000 0.393873 0.250000
Si Si6 0.365409 0.213507 0.877193
Si Si7 0.025718 0.335379 0.591860
Si Si8 0.510119 0.301436 0.369581
O O1 0.940050 0.452905 0.075708
O O2 0.595078 0.383061 0.032978
O O3 0.981844 0.432996 0.191481
O O4 0.079530 0.339963 0.150756
O O5 0.611999 0.714482 0.142240
O O6 0.285346 0.664683 0.128551
O O7 0.385451 0.589547 0.083934
O O8 0.116470 0.698112 0.989050
O O9 0.397078 0.537758 0.556994
O O10 0.000000 0.500000 0.500000
O O11 0.500000 0.500000 0.500000
O O12 0.919748 0.400557 0.591687
O O13 0.742114 0.345835 0.185249
O O14 0.110613 0.196876 0.839957
O O15 0.766224 0.321200 0.479707
O O16 0.055025 0.274477 0.637648
#
# Coordination Sequence:
#
# PCOD9258726 Si02
#       8
#     8   8   8   8   4   8   8   8
#     4  10  22  35  56  83 121 157 197 248 310 372
#     4   9  17  29  53  81 122 148 184 247 305 354
#     4  10  19  34  54  90 123 153 197 255 306 357
#     4  10  20  32  54  86 121 153 198 247 302 354
#     4  12  22  40  56  88 118 164 200 252 322 392
#     4   9  19  33  50  83 113 150 191 245 306 353
#     4  10  18  34  53  88 114 155 192 250 305 352
#     4  10  22  32  58  82 121 152 197 246 313 373
#
# _framework density 23.135708000000001
#
# number of rings (size 3 to 8) (size 9 to 14) (size 15 to 20)
#    0.000    2.133    2.667    0.800    9.333    0.533 
#    0.000    0.000    0.000    0.000   13.867    0.000 
#    0.000    0.000    0.000    0.000    0.000    0.000 
#
# Total GULP energy -167060.534477 kJ/mol
# GULP energy per Si atom -5568.684483 kJ/mol
# Density = 2.308305 g / cm^3
# Si number density = 23.135708 Si / 1000 Ang^3
#
#
#
# Elastic Constant Matrix: (Units=GPa)
#
#
# Indices 1 2 3 4 5 6 
#
# 1 184.6959 49.1662 29.6350 -0.0008 -7.5132 -0.0006
# 2 49.1662 122.2060 1.2724 -0.0007 2.6530 -0.0004
# 3 29.6350 1.2724 29.2803 -0.0030 -2.1747 -0.0007
# 4 -0.0008 -0.0007 -0.0030 12.3002 -0.0008 -2.7782
# 5 -7.5132 2.6530 -2.1747 -0.0008 35.2625 -0.0006
# 6 -0.0006 -0.0004 -0.0007 -2.7782 -0.0006 42.9391
#
#
#
# Elastic Compliance Matrix: (Units=1/GPa)
#
#
# Indices 1 2 3 4 5 6 
#
# 1 0.007420 -0.002939 -0.007282 -0.000001 0.001353 0.000000
# 2 -0.002939 0.009365 0.002480 0.000001 -0.001178 0.000000
# 3 -0.007282 0.002480 0.041476 0.000010 0.000820 0.000001
# 4 -0.000001 0.000001 0.000010 0.082505 0.000002 0.005338
# 5 0.001353 -0.001178 0.000820 0.000002 0.028786 0.000001
# 6 0.000000 0.000000 0.000001 0.005338 0.000001 0.023634
#
#
# Mechanical properties :
#
#
# Convention : Reuss Voigt Hill
#
# Bulk Modulus (GPa) = 23.37563 55.14771 39.26167
# Shear Modulus (GPa) = 22.42884 35.17427 28.80156
#
# Velocity S-wave (km/s) = 3.11697 3.90339 3.53214
# Velocity P-wave (km/s) = 4.80413 6.64858 5.80014
#
# Compressibility (1/GPa) = 0.04277960
#
# Stress axis : x y z
#
# Youngs Moduli (GPa) = 134.77051 106.78057 24.11052
#
# Poissons Ratio (x) = 0.31381 0.17557
# Poissons Ratio (y) = 0.39606 -0.05979
# Poissons Ratio (z) = 0.98136 -0.26481
#
# Static dielectric constant tensor:
#      x y z
#    x 1.887310 0.000000 0.018210 
#    y 0.000000 1.984250 0.000000 
#    z 0.018210 0.000000 2.077470 
# 
# From -- ./inp_files/290130.got.cif
#   From: 2010.05.17/outbox.cif.g08.bks.cpg/sg15_146_cif.got.tgz:290130.got - 2010.06.03 18:47:42.
