data_PCOD9258191
_publ_section_title
;
Structure prediction by ZEFSAII (Michael W. Deem and Ramdas Pophale) SiO2 
 PCOD9258191
Probable space group: C 2/C
;
_chemical_formula_sum "Si O2"
_cell_formula_units_Z 64
_cell_length_a 18.027606
_cell_length_b 20.513511
_cell_length_c 9.245195
_cell_angle_alpha 90.000000
_cell_angle_beta 100.866467
_cell_angle_gamma 90.000000
_cell_volume 3357.656231
_symmetry_space_group_name_H-M "C 2/C"
_symmetry_group_IT_number 15
_symmetry_cell_setting 'monoclinic'
loop_
_space_group_symop_operation_xyz
x,y,z
-x,y,1/2-z
-x,-y,-z
x,-y,1/2+z
1/2+x,1/2+y,z
1/2-x,1/2+y,1/2-z
1/2-x,1/2-y,-z
1/2+x,1/2-y,1/2+z
loop_
_atom_site_type_symbol
_atom_site_label
_atom_site_fract_x
_atom_site_fract_y
_atom_site_fract_z
Si Si1 0.126679 0.863071 0.469835
Si Si2 0.488244 0.613919 0.077492
Si Si3 0.264114 0.986660 0.786193
Si Si4 0.567372 0.709468 0.681717
Si Si5 0.698825 0.089943 0.468884
Si Si6 0.779053 0.786333 0.371674
Si Si7 0.826848 0.069197 0.980880
Si Si8 0.677967 0.225542 0.563974
O O1 0.094855 0.849530 0.297880
O O2 0.211192 0.890616 0.495216
O O3 0.127864 0.790462 0.542138
O O4 0.067820 0.906431 0.536328
O O5 0.500000 0.627323 0.250000
O O6 0.416924 0.566487 0.031778
O O7 0.465248 0.677961 0.975740
O O8 0.309558 0.037938 0.903844
O O9 0.208014 0.024732 0.657396
O O10 0.312265 0.942073 0.692992
O O11 0.214383 0.946792 0.883203
O O12 0.500000 0.741999 0.750000
O O13 0.645678 0.745392 0.673359
O O14 0.654167 0.156826 0.485245
O O15 0.750000 0.750000 0.500000
O O16 0.804692 0.857697 0.428692
O O17 0.711444 0.789339 0.232992
O O18 0.750000 0.250000 0.500000
#
# Coordination Sequence:
#
# PCOD9258191 Si02
#       8
#     8   8   8   8   8   8   8   8
#     4  10  19  33  53  70  99 140 182 224 278 328
#     4  10  20  32  49  70  99 136 181 226 272 312
#     4  10  20  33  52  67 102 146 186 224 257 308
#     4   9  18  33  47  68 102 139 167 207 269 333
#     4  10  18  33  48  70  97 132 179 217 267 308
#     4  11  21  32  53  81 105 131 183 237 281 326
#     4  10  21  37  49  74 106 146 187 229 272 306
#     4  10  19  32  53  74 101 132 179 220 285 339
#
# _framework density 19.060914
#
# number of rings (size 3 to 8) (size 9 to 14) (size 15 to 20)
#    0.000    2.000    3.750    1.500    7.000    0.000 
#    0.000    6.875    0.000    0.000    0.000    0.000 
#    0.000    0.000    0.000  148.500    0.000    0.000 
#
# Total GULP energy -178357.767090 kJ/mol
# GULP energy per Si atom -5573.680222 kJ/mol
# Density = 1.901753 g / cm^3
# Si number density = 19.060914 Si / 1000 Ang^3
#
#
#
# Elastic Constant Matrix: (Units=GPa)
#
#
# Indices 1 2 3 4 5 6 
#
# 1 30.9132 9.6503 18.2893 0.0000 -6.6858 0.0000
# 2 9.6503 81.6289 32.6949 0.0000 -6.0184 0.0000
# 3 18.2893 32.6949 124.2966 0.0000 -20.4518 0.0000
# 4 0.0000 0.0000 0.0000 25.5095 0.0000 -3.7204
# 5 -6.6858 -6.0184 -20.4518 0.0000 23.6541 0.0000
# 6 0.0000 0.0000 0.0000 -3.7204 0.0000 16.8420
#
#
#
# Elastic Compliance Matrix: (Units=1/GPa)
#
#
# Indices 1 2 3 4 5 6 
#
# 1 0.036697 -0.002374 -0.003693 0.000000 0.006575 0.000000
# 2 -0.002374 0.013851 -0.003293 0.000000 0.000006 0.000000
# 3 -0.003693 -0.003293 0.010662 0.000000 0.007337 0.000000
# 4 0.000000 0.000000 0.000000 0.040506 0.000000 0.008948
# 5 0.006575 0.000006 0.007337 0.000000 0.050480 0.000000
# 6 0.000000 0.000000 0.000000 0.008948 0.000000 0.061352
#
#
# Mechanical properties :
#
#
# Convention : Reuss Voigt Hill
#
# Bulk Modulus (GPa) = 23.53578 39.78975 31.66276
# Shear Modulus (GPa) = 20.28966 24.94807 22.61886
#
# Velocity S-wave (km/s) = 3.26615 3.62174 3.44853
# Velocity P-wave (km/s) = 5.15734 6.19756 5.70122
#
# Compressibility (1/GPa) = 0.04248850
#
# Stress axis : x y z
#
# Youngs Moduli (GPa) = 27.25029 72.19894 93.79013
#
# Poissons Ratio (x) = 0.17142 0.34639
# Poissons Ratio (y) = 0.06470 0.30885
# Poissons Ratio (z) = 0.10064 0.23775
#
# Static dielectric constant tensor:
#      x y z
#    x 1.820550 0.000000 0.024020 
#    y 0.000000 1.749930 0.000000 
#    z 0.024020 0.000000 1.698120 
# 
# From -- ./inp_files/57543.got.cif
#   From: 2010.05.17/outbox.cif.g08.bks.cpg/sg15_29_cif.got.tgz:57543.got - 2010.06.03 18:47:42.
