data_PCOD9258358
_publ_section_title
;
Structure prediction by ZEFSAII (Michael W. Deem and Ramdas Pophale) SiO2 
 PCOD9258358
Probable space group: C 2/C
;
_chemical_formula_sum "Si O2"
_cell_formula_units_Z 32
_cell_length_a 11.153533
_cell_length_b 15.784057
_cell_length_c 14.624119
_cell_angle_alpha 90.000000
_cell_angle_beta 29.663765
_cell_angle_gamma 90.000000
_cell_volume 1274.167028
_symmetry_space_group_name_H-M "C 2/C"
_symmetry_group_IT_number 15
_symmetry_cell_setting 'monoclinic'
loop_
_space_group_symop_operation_xyz
x,y,z
-x,y,1/2-z
-x,-y,-z
x,-y,1/2+z
1/2+x,1/2+y,z
1/2-x,1/2+y,1/2-z
1/2-x,1/2-y,-z
1/2+x,1/2-y,1/2+z
loop_
_atom_site_type_symbol
_atom_site_label
_atom_site_fract_x
_atom_site_fract_y
_atom_site_fract_z
Si Si1 0.176282 0.151389 0.547710
Si Si2 0.270329 0.823574 0.613124
Si Si3 0.499181 0.360397 0.538898
Si Si4 0.742927 0.472838 0.523572
O O1 0.250000 0.250000 0.500000
O O2 0.000000 0.148483 0.750000
O O3 0.052038 0.130221 0.533286
O O4 0.342553 0.067276 0.449657
O O5 0.389350 0.733323 0.525493
O O6 0.394971 0.899208 0.473395
O O7 0.000000 0.813261 0.750000
O O8 0.236036 0.851865 0.740045
O O9 0.661265 0.431844 0.481085
O O10 0.500000 0.478170 0.750000
#
# Coordination Sequence:
#
# PCOD9258358 Si02
#       4
#     8   8   8   8
#     4  11  22  36  50  72 103 137 170 203 240 293
#     4   9  17  32  55  80  99 123 164 211 249 293
#     4  10  18  33  55  76  99 132 165 202 249 295
#     4   8  17  33  54  74  97 130 168 200 245 305
#
# _framework density 25.114449
#
# number of rings (size 3 to 8) (size 9 to 14) (size 15 to 20)
#    0.000    3.000    0.000    5.250    0.000    0.000 
#    0.000    5.000    0.000    0.000    0.000    1.750 
#    0.000    0.000    0.000    0.000    0.000    0.000 
#
# Total GULP energy -89312.098001 kJ/mol
# GULP energy per Si atom -5582.006125 kJ/mol
# Density = 2.505729 g / cm^3
# Si number density = 25.114449 Si / 1000 Ang^3
#
#
#
# Elastic Constant Matrix: (Units=GPa)
#
#
# Indices 1 2 3 4 5 6 
#
# 1 137.8652 64.9905 67.9108 0.0044 46.7602 -0.0083
# 2 64.9905 257.4604 34.8297 -0.0628 1.5569 -0.0132
# 3 67.9108 34.8297 69.9089 -0.0180 42.8375 -0.0164
# 4 0.0044 -0.0628 -0.0180 68.7245 0.0084 56.9336
# 5 46.7602 1.5569 42.8375 0.0084 43.0167 0.0316
# 6 -0.0083 -0.0132 -0.0164 56.9336 0.0316 85.7332
#
#
#
# Elastic Compliance Matrix: (Units=1/GPa)
#
#
# Indices 1 2 3 4 5 6 
#
# 1 0.015644 -0.002687 -0.008973 -0.000015 -0.007973 0.000012
# 2 -0.002687 0.005075 -0.004093 0.000012 0.006813 -0.000010
# 3 -0.008973 -0.004093 0.048725 -0.000009 -0.038620 0.000028
# 4 -0.000015 0.000012 -0.000009 0.032346 0.000034 -0.021480
# 5 -0.007973 0.006813 -0.038620 0.000034 0.070126 -0.000056
# 6 0.000012 -0.000010 0.000028 -0.021480 -0.000056 0.025929
#
#
# Mechanical properties :
#
#
# Convention : Reuss Voigt Hill
#
# Bulk Modulus (GPa) = 26.35887 88.96629 57.66258
# Shear Modulus (GPa) = 20.66153 59.32843 39.99498
#
# Velocity S-wave (km/s) = 2.87138 4.86565 3.99495
# Velocity P-wave (km/s) = 4.63803 8.18946 6.65502
#
# Compressibility (1/GPa) = 0.03793789
#
# Stress axis : x y z
#
# Youngs Moduli (GPa) = 63.92096 197.04931 20.52349
#
# Poissons Ratio (x) = 0.52947 0.18416
# Poissons Ratio (y) = 0.17175 0.08400
# Poissons Ratio (z) = 0.57356 0.80652
#
# Static dielectric constant tensor:
#      x y z
#    x 2.009880 0.000000 -0.009540 
#    y 0.000000 2.061340 -0.000010 
#    z -0.009540 -0.000010 2.035350 
# 
# From -- ./inp_files/37159.got.cif
#   From: 2010.05.17/outbox.cif.g08.bks.cpg/sg15_19_cif.got.tgz:37159.got - 2010.06.03 18:47:42.
