data_PCOD9258194
_publ_section_title
;
Structure prediction by ZEFSAII (Michael W. Deem and Ramdas Pophale) SiO2 
 PCOD9258194
Probable space group: C 2/C
;
_chemical_formula_sum "Si O2"
_cell_formula_units_Z 56
_cell_length_a 18.561489
_cell_length_b 21.368575
_cell_length_c 17.623521
_cell_angle_alpha 90.000000
_cell_angle_beta 154.567299
_cell_angle_gamma 90.000000
_cell_volume 3001.886734
_symmetry_space_group_name_H-M "C 2/C"
_symmetry_group_IT_number 15
_symmetry_cell_setting 'monoclinic'
loop_
_space_group_symop_operation_xyz
x,y,z
-x,y,1/2-z
-x,-y,-z
x,-y,1/2+z
1/2+x,1/2+y,z
1/2-x,1/2+y,1/2-z
1/2-x,1/2-y,-z
1/2+x,1/2-y,1/2+z
loop_
_atom_site_type_symbol
_atom_site_label
_atom_site_fract_x
_atom_site_fract_y
_atom_site_fract_z
Si Si1 0.300641 0.677763 0.557310
Si Si2 0.565930 0.039152 0.492855
Si Si3 0.623073 0.824501 0.044863
Si Si4 0.737851 0.422689 0.608791
Si Si5 0.884579 0.752719 0.389157
Si Si6 0.848409 0.854108 0.811635
Si Si7 0.059990 0.989168 0.645183
O O1 0.500000 0.673137 0.750000
O O2 0.250000 0.750000 0.500000
O O3 0.216955 0.660406 0.557268
O O4 0.243674 0.630054 0.437821
O O5 0.566780 0.109827 0.522022
O O6 0.415592 0.041359 0.288284
O O7 0.500000 0.000000 0.500000
O O8 0.758157 0.018809 0.661619
O O9 0.473555 0.774892 0.897467
O O10 0.734679 0.793068 0.214484
O O11 0.689291 0.384638 0.640558
O O12 0.587899 0.472992 0.452044
O O13 0.810614 0.690898 0.360169
O O14 0.003770 0.802655 0.542729
O O15 0.906897 0.914139 0.818132
O O16 0.000000 0.000000 0.500000
#
# Coordination Sequence:
#
# PCOD9258194 Si02
#       7
#     8   8   8   8   8   8   8
#     4  12  25  38  54  76 116 160 201 243 280 332
#     4  12  21  35  56  76 100 141 196 246 287 338
#     4  11  21  34  49  73 105 145 186 229 276 322
#     4  11  23  36  53  79 101 151 209 237 286 335
#     4  10  19  31  51  74 104 143 187 225 278 342
#     4  10  18  33  48  75 103 136 185 234 288 334
#     4  10  19  35  54  73 100 139 189 249 289 334
#
# _framework density 18.654934999999998
#
# number of rings (size 3 to 8) (size 9 to 14) (size 15 to 20)
#    0.000    1.143    4.286    6.000    2.000    0.000 
#    0.000    0.000    0.000    0.000    0.000    0.000 
#    0.000    0.000    0.000   34.714    0.000    2.286 
#
# Total GULP energy -155880.818814 kJ/mol
# GULP energy per Si atom -5567.172101 kJ/mol
# Density = 1.861248 g / cm^3
# Si number density = 18.654935 Si / 1000 Ang^3
#
#
#
# Elastic Constant Matrix: (Units=GPa)
#
#
# Indices 1 2 3 4 5 6 
#
# 1 20.2806 33.9756 17.2403 -0.0001 7.0648 -0.0001
# 2 33.9756 145.0962 53.0907 -0.0001 15.7669 -0.0001
# 3 17.2403 53.0907 109.3652 -0.0005 28.2141 -0.0004
# 4 -0.0001 -0.0001 -0.0005 44.7206 -0.0002 10.2329
# 5 7.0648 15.7669 28.2141 -0.0002 22.6695 -0.0001
# 6 -0.0001 -0.0001 -0.0004 10.2329 -0.0001 40.5564
#
#
#
# Elastic Compliance Matrix: (Units=1/GPa)
#
#
# Indices 1 2 3 4 5 6 
#
# 1 0.085031 -0.018039 -0.001543 0.000000 -0.012033 0.000000
# 2 -0.018039 0.012227 -0.003459 0.000000 0.001423 0.000000
# 3 -0.001543 -0.003459 0.015203 0.000000 -0.016034 0.000000
# 4 0.000000 0.000000 0.000000 0.023731 0.000000 -0.005988
# 5 -0.012033 0.001423 -0.016034 0.000000 0.066829 0.000000
# 6 0.000000 0.000000 0.000000 -0.005988 0.000000 0.026168
#
#
# Mechanical properties :
#
#
# Convention : Reuss Voigt Hill
#
# Bulk Modulus (GPa) = 15.06498 53.70614 34.38556
# Shear Modulus (GPa) = 16.81256 32.95165 24.88211
#
# Velocity S-wave (km/s) = 3.00532 4.20739 3.65610
# Velocity P-wave (km/s) = 4.48729 7.24255 6.02455
#
# Compressibility (1/GPa) = 0.06637912
#
# Stress axis : x y z
#
# Youngs Moduli (GPa) = 11.76036 81.78675 65.77833
#
# Poissons Ratio (x) = 1.47532 0.10152
# Poissons Ratio (y) = 0.21214 0.22752
# Poissons Ratio (z) = 0.01815 0.28289
#
# Static dielectric constant tensor:
#      x y z
#    x 1.672950 0.000000 0.079420 
#    y 0.000000 1.694240 0.000000 
#    z 0.079420 0.000000 1.726850 
# 
# From -- ./inp_files/255937.got.cif
#   From: 2010.05.17/outbox.cif.g08.bks.cpg/sg15_128_cif.got.tgz:255937.got - 2010.06.03 18:47:42.
