data_PCOD9258025
_publ_section_title
;
Structure prediction by ZEFSAII (Michael W. Deem and Ramdas Pophale) SiO2 
 PCOD9258025
Probable space group: C 2/C
;
_chemical_formula_sum "Si O2"
_cell_formula_units_Z 44
_cell_length_a 31.296303
_cell_length_b 10.622555
_cell_length_c 16.211149
_cell_angle_alpha 90.000000
_cell_angle_beta 153.086495
_cell_angle_gamma 90.000000
_cell_volume 2439.458614
_symmetry_space_group_name_H-M "C 2/C"
_symmetry_group_IT_number 15
_symmetry_cell_setting 'monoclinic'
loop_
_space_group_symop_operation_xyz
x,y,z
-x,y,1/2-z
-x,-y,-z
x,-y,1/2+z
1/2+x,1/2+y,z
1/2-x,1/2+y,1/2-z
1/2-x,1/2-y,-z
1/2+x,1/2-y,1/2+z
loop_
_atom_site_type_symbol
_atom_site_label
_atom_site_fract_x
_atom_site_fract_y
_atom_site_fract_z
Si Si1 0.506363 0.701107 0.556559
Si Si2 0.634600 0.670156 0.468653
Si Si3 0.063816 0.467068 0.690127
Si Si4 0.473782 0.438033 0.576116
Si Si5 0.310772 0.167899 0.667197
Si Si6 0.500000 0.902046 0.250000
O O1 0.567568 0.816049 0.697183
O O2 0.491172 0.584187 0.590579
O O3 0.546424 0.637095 0.542593
O O4 0.405228 0.760348 0.357584
O O5 0.609545 0.585546 0.503544
O O6 0.567184 0.622201 0.278243
O O7 0.741640 0.654665 0.625841
O O8 0.591349 0.808776 0.414206
O O9 0.158620 0.542297 0.829488
O O10 0.018692 0.519937 0.697767
O O11 0.000000 0.500000 0.500000
O O12 0.250000 0.250000 0.500000
#
# Coordination Sequence:
#
# PCOD9258025 Si02
#       6
#     8   8   8   8   8   4
#     4  10  20  37  55  78 112 144 182 228 282 325
#     4  10  18  34  57  78 101 147 190 213 268 351
#     4  10  20  35  56  84 113 146 182 234 278 331
#     4   9  19  36  58  73 106 156 181 215 281 345
#     4  11  18  35  57  81 107 141 183 230 276 325
#     4  10  18  32  58  82 108 152 190 218 284 338
#
# _framework density 18.036788999999999
#
# number of rings (size 3 to 8) (size 9 to 14) (size 15 to 20)
#    0.000    2.182    3.636    3.273    0.000    1.455 
#    9.818    0.909    0.000    0.000    0.000    0.000 
#    0.000    0.000    0.000    0.000    0.000    0.000 
#
# Total GULP energy -122532.433663 kJ/mol
# GULP energy per Si atom -5569.656076 kJ/mol
# Density = 1.799574 g / cm^3
# Si number density = 18.036789 Si / 1000 Ang^3
#
#
#
# Elastic Constant Matrix: (Units=GPa)
#
#
# Indices 1 2 3 4 5 6 
#
# 1 142.0874 65.9743 13.2190 0.0000 3.1148 0.0000
# 2 65.9743 153.7310 18.4974 0.0000 -0.9267 0.0000
# 3 13.2190 18.4974 24.3611 0.0000 8.0782 0.0000
# 4 0.0000 0.0000 0.0000 22.6073 0.0000 -6.3154
# 5 3.1148 -0.9267 8.0782 0.0000 27.9104 0.0000
# 6 0.0000 0.0000 0.0000 -6.3154 0.0000 26.8433
#
#
#
# Elastic Compliance Matrix: (Units=1/GPa)
#
#
# Indices 1 2 3 4 5 6 
#
# 1 0.008895 -0.003590 -0.001916 0.000000 -0.000557 0.000000
# 2 -0.003590 0.008711 -0.005414 0.000000 0.002257 0.000000
# 3 -0.001916 -0.005414 0.051092 0.000000 -0.014754 0.000000
# 4 0.000000 0.000000 0.000000 0.047345 0.000000 0.011139
# 5 -0.000557 0.002257 -0.014754 0.000000 0.040236 0.000000
# 6 0.000000 0.000000 0.000000 0.011139 0.000000 0.039874
#
#
# Mechanical properties :
#
#
# Convention : Reuss Voigt Hill
#
# Bulk Modulus (GPa) = 21.34140 57.28453 39.31296
# Shear Modulus (GPa) = 21.40284 30.30479 25.85382
#
# Velocity S-wave (km/s) = 3.44847 4.10343 3.79013
# Velocity P-wave (km/s) = 5.26439 7.36747 6.40287
#
# Compressibility (1/GPa) = 0.04685729
#
# Stress axis : x y z
#
# Youngs Moduli (GPa) = 112.41673 114.80071 19.57247
#
# Poissons Ratio (x) = 0.41218 0.03750
# Poissons Ratio (y) = 0.40362 0.10597
# Poissons Ratio (z) = 0.21538 0.62156
#
# Static dielectric constant tensor:
#      x y z
#    x 1.715280 0.000000 0.026380 
#    y 0.000000 1.650400 0.000000 
#    z 0.026380 0.000000 1.638020 
# 
# From -- ./inp_files/181610.got.cif
#   From: 2010.05.17/outbox.cif.g08.bks.cpg/sg15_91_cif.got.tgz:181610.got - 2010.06.03 18:47:42.
