data_PCOD9258317
_publ_section_title
;
Structure prediction by ZEFSAII (Michael W. Deem and Ramdas Pophale) SiO2 
 PCOD9258317
Probable space group: C 2/C
;
_chemical_formula_sum "Si O2"
_cell_formula_units_Z 40
_cell_length_a 11.785866
_cell_length_b 19.698022
_cell_length_c 12.678243
_cell_angle_alpha 90.000000
_cell_angle_beta 145.401720
_cell_angle_gamma 90.000000
_cell_volume 1671.295084
_symmetry_space_group_name_H-M "C 2/C"
_symmetry_group_IT_number 15
_symmetry_cell_setting 'monoclinic'
loop_
_space_group_symop_operation_xyz
x,y,z
-x,y,1/2-z
-x,-y,-z
x,-y,1/2+z
1/2+x,1/2+y,z
1/2-x,1/2+y,1/2-z
1/2-x,1/2-y,-z
1/2+x,1/2-y,1/2+z
loop_
_atom_site_type_symbol
_atom_site_label
_atom_site_fract_x
_atom_site_fract_y
_atom_site_fract_z
Si Si1 0.918968 0.449235 0.573523
Si Si2 0.589284 0.348313 0.994346
Si Si3 0.241517 0.421177 0.642177
Si Si4 0.859067 0.832312 0.231633
Si Si5 0.473170 0.200711 0.876554
O O1 0.818315 0.523146 0.489262
O O2 0.750551 0.397643 0.402123
O O3 0.000000 0.432320 0.750000
O O4 0.110583 0.444812 0.642816
O O5 0.471181 0.408150 0.847568
O O6 0.536762 0.276401 0.900434
O O7 0.529207 0.350650 0.073230
O O8 0.827998 0.341658 0.188242
O O9 0.153457 0.347633 0.545200
O O10 0.674010 0.788695 0.134368
O O11 0.000000 0.801888 0.250000
#
# Coordination Sequence:
#
# PCOD9258317 Si02
#       5
#     8   8   8   8   8
#     4  10  21  36  54  77 109 144 178 222 263 313
#     4  10  18  33  54  78 105 134 182 213 264 324
#     4  10  19  37  57  77 106 141 178 222 268 313
#     4   9  19  32  47  78 110 142 171 215 259 318
#     4   9  19  32  53  81 100 142 175 216 266 317
#
# _framework density 23.933536
#
# number of rings (size 3 to 8) (size 9 to 14) (size 15 to 20)
#    1.200    1.200    2.000    1.200    0.000    1.600 
#    3.600    2.000    0.000    1.200    0.000    0.000 
#    0.000    0.000    0.000    0.000    0.000    0.000 
#
# Total GULP energy -111624.570279 kJ/mol
# GULP energy per Si atom -5581.228514 kJ/mol
# Density = 2.387906 g / cm^3
# Si number density = 23.933536 Si / 1000 Ang^3
#
#
#
# Elastic Constant Matrix: (Units=GPa)
#
#
# Indices 1 2 3 4 5 6 
#
# 1 104.9539 12.9772 29.3148 0.0000 -8.6923 0.0000
# 2 12.9772 66.5268 42.8389 0.0000 3.6973 0.0000
# 3 29.3148 42.8389 132.1017 0.0000 -1.9787 0.0000
# 4 0.0000 0.0000 0.0000 30.2567 0.0000 -29.0563
# 5 -8.6923 3.6973 -1.9787 0.0000 38.7656 0.0000
# 6 0.0000 0.0000 0.0000 -29.0563 0.0000 100.0129
#
#
#
# Elastic Compliance Matrix: (Units=1/GPa)
#
#
# Indices 1 2 3 4 5 6 
#
# 1 0.010382 -0.000875 -0.001986 0.000000 0.002310 0.000000
# 2 -0.000875 0.019250 -0.006083 0.000000 -0.002343 0.000000
# 3 -0.001986 -0.006083 0.009993 0.000000 0.000645 0.000000
# 4 0.000000 0.000000 0.000000 0.045840 0.000000 0.013318
# 5 0.002310 -0.002343 0.000645 0.000000 0.026570 0.000000
# 6 0.000000 0.000000 0.000000 0.013318 0.000000 0.013868
#
#
# Mechanical properties :
#
#
# Convention : Reuss Voigt Hill
#
# Bulk Modulus (GPa) = 46.00470 52.64936 49.32703
# Shear Modulus (GPa) = 33.10463 48.37047 40.73755
#
# Velocity S-wave (km/s) = 3.72316 4.50047 4.13014
# Velocity P-wave (km/s) = 6.14379 7.00368 6.58778
#
# Compressibility (1/GPa) = 0.02173691
#
# Stress axis : x y z
#
# Youngs Moduli (GPa) = 96.31975 51.94883 100.07055
#
# Poissons Ratio (x) = 0.04546 0.19869
# Poissons Ratio (y) = 0.08428 0.60876
# Poissons Ratio (z) = 0.19125 0.31602
#
# Static dielectric constant tensor:
#      x y z
#    x 2.029020 0.000000 -0.038280 
#    y 0.000000 1.833760 0.000000 
#    z -0.038280 0.000000 1.889930 
# 
# From -- ./inp_files/39929.got.cif
#   From: 2010.05.17/outbox.cif.g08.bks.cpg/sg15_20_cif.got.tgz:39929.got - 2010.06.03 18:47:42.
