data_PCOD9258937
_publ_section_title
;
Structure prediction by ZEFSAII (Michael W. Deem and Ramdas Pophale) SiO2 
 PCOD9258937
Probable space group: C 2/C
;
_chemical_formula_sum "Si O2"
_cell_formula_units_Z 64
_cell_length_a 15.888902
_cell_length_b 13.822167
_cell_length_c 25.511036
_cell_angle_alpha 90.000000
_cell_angle_beta 148.359856
_cell_angle_gamma 90.000000
_cell_volume 2939.083643
_symmetry_space_group_name_H-M "C 2/C"
_symmetry_group_IT_number 15
_symmetry_cell_setting 'monoclinic'
loop_
_space_group_symop_operation_xyz
x,y,z
-x,y,1/2-z
-x,-y,-z
x,-y,1/2+z
1/2+x,1/2+y,z
1/2-x,1/2+y,1/2-z
1/2-x,1/2-y,-z
1/2+x,1/2-y,1/2+z
loop_
_atom_site_type_symbol
_atom_site_label
_atom_site_fract_x
_atom_site_fract_y
_atom_site_fract_z
Si Si1 0.194818 0.351608 0.075353
Si Si2 0.677256 0.496120 0.202127
Si Si3 0.837860 0.956935 0.683792
Si Si4 0.273947 0.709950 0.734685
Si Si5 0.310293 0.846860 0.975201
Si Si6 0.467099 0.038008 0.100088
Si Si7 0.022571 0.837314 0.903419
Si Si8 0.582614 0.186360 0.348627
O O1 0.318841 0.441745 0.142898
O O2 0.186697 0.324997 0.133296
O O3 0.275032 0.260631 0.089157
O O4 0.055950 0.399011 0.965534
O O5 0.662878 0.522049 0.256163
O O6 0.681338 0.380605 0.204819
O O7 0.534294 0.560356 0.102525
O O8 0.853998 0.533361 0.281800
O O9 0.702526 0.887841 0.589843
O O10 0.000000 0.911252 0.750000
O O11 0.146498 0.780806 0.694801
O O12 0.440252 0.758891 0.804883
O O13 0.376368 0.738989 0.009165
O O14 0.416291 0.927818 0.061526
O O15 0.141816 0.849180 0.917490
O O16 0.363825 0.095218 0.088440
O O17 0.500000 0.157468 0.250000
#
# Coordination Sequence:
#
# PCOD9258937 Si02
#       8
#     8   8   8   8   8   8   8   8
#     4   9  20  32  55  87 114 142 182 247 298 325
#     4  11  21  34  59  85 113 145 191 242 289 330
#     4  10  18  34  57  86 115 139 188 245 293 331
#     4  10  20  35  58  84 113 145 192 237 288 339
#     4  10  23  36  58  83 119 155 188 229 289 343
#     4  11  21  35  57  87 113 147 189 237 285 344
#     4  11  21  38  55  82 117 156 185 229 288 343
#     4  10  20  37  59  82 112 153 187 229 283 341
#
# _framework density 21.775493999999998
#
# number of rings (size 3 to 8) (size 9 to 14) (size 15 to 20)
#    0.000    1.750    3.750    2.250    3.500    1.500 
#    0.000    0.000    5.500    4.500    0.000    0.000 
#    0.000    0.000    0.000    0.000    0.000    0.000 
#
# Total GULP energy -178301.531769 kJ/mol
# GULP energy per Si atom -5571.922868 kJ/mol
# Density = 2.172593 g / cm^3
# Si number density = 21.775494 Si / 1000 Ang^3
#
#
#
# Elastic Constant Matrix: (Units=GPa)
#
#
# Indices 1 2 3 4 5 6 
#
# 1 51.5594 22.0144 6.5848 0.0000 19.9178 0.0000
# 2 22.0144 73.6416 6.0797 0.0000 2.3520 0.0000
# 3 6.5848 6.0797 22.6929 -0.0001 6.8406 0.0000
# 4 0.0000 0.0000 -0.0001 20.2795 0.0000 9.5012
# 5 19.9178 2.3520 6.8406 0.0000 25.8317 0.0000
# 6 0.0000 0.0000 0.0000 9.5012 0.0000 25.4867
#
#
#
# Elastic Compliance Matrix: (Units=1/GPa)
#
#
# Indices 1 2 3 4 5 6 
#
# 1 0.032635 -0.009001 0.000304 0.000000 -0.024424 0.000000
# 2 -0.009001 0.016371 -0.003713 0.000000 0.006433 0.000000
# 3 0.000304 -0.003713 0.048841 0.000000 -0.012830 0.000000
# 4 0.000000 0.000000 0.000000 0.059746 0.000000 -0.022273
# 5 -0.024424 0.006433 -0.012830 0.000000 0.060357 0.000000
# 6 0.000000 0.000000 0.000000 -0.022273 0.000000 0.047539
#
#
# Mechanical properties :
#
#
# Convention : Reuss Voigt Hill
#
# Bulk Modulus (GPa) = 13.69362 24.13907 18.91635
# Shear Modulus (GPa) = 15.89065 21.86724 18.87895
#
# Velocity S-wave (km/s) = 2.70432 3.17237 2.94765
# Velocity P-wave (km/s) = 4.00666 4.95258 4.50452
#
# Compressibility (1/GPa) = 0.07302671
#
# Stress axis : x y z
#
# Youngs Moduli (GPa) = 30.64235 61.08324 20.47467
#
# Poissons Ratio (x) = 0.54980 -0.00623
# Poissons Ratio (y) = 0.27581 0.07603
# Poissons Ratio (z) = -0.00933 0.22683
#
# Static dielectric constant tensor:
#      x y z
#    x 1.788340 0.000000 0.014580 
#    y 0.000000 1.836010 0.000000 
#    z 0.014580 0.000000 1.877260 
# 
# From -- ./inp_files/296435.got.cif
#   From: 2010.05.17/outbox.cif.g08.bks.cpg/sg15_149_cif.got.tgz:296435.got - 2010.06.03 18:47:42.
