data_PCOD9258817
_publ_section_title
;
Structure prediction by ZEFSAII (Michael W. Deem and Ramdas Pophale) SiO2 
 PCOD9258817
Probable space group: C 2/C
;
_chemical_formula_sum "Si O2"
_cell_formula_units_Z 44
_cell_length_a 13.287990
_cell_length_b 25.051023
_cell_length_c 11.499600
_cell_angle_alpha 90.000000
_cell_angle_beta 143.289353
_cell_angle_gamma 90.000000
_cell_volume 2288.255981
_symmetry_space_group_name_H-M "C 2/C"
_symmetry_group_IT_number 15
_symmetry_cell_setting 'monoclinic'
loop_
_space_group_symop_operation_xyz
x,y,z
-x,y,1/2-z
-x,-y,-z
x,-y,1/2+z
1/2+x,1/2+y,z
1/2-x,1/2+y,1/2-z
1/2-x,1/2-y,-z
1/2+x,1/2-y,1/2+z
loop_
_atom_site_type_symbol
_atom_site_label
_atom_site_fract_x
_atom_site_fract_y
_atom_site_fract_z
Si Si1 0.645973 0.215375 0.809476
Si Si2 0.314428 0.103281 0.078660
Si Si3 0.024439 0.195308 0.507729
Si Si4 0.860793 0.021659 0.722790
Si Si5 0.878816 0.080174 0.375238
Si Si6 0.000000 0.818489 0.250000
O O1 0.500000 0.186509 0.750000
O O2 0.554447 0.256207 0.637209
O O3 0.750000 0.250000 0.000000
O O4 0.786104 0.185347 0.863275
O O5 0.500000 0.126748 0.250000
O O6 0.263536 0.081568 0.157912
O O7 0.295821 0.054842 0.970573
O O8 0.166318 0.144654 0.911048
O O9 0.920670 0.141278 0.385629
O O10 0.014196 0.208431 0.636326
O O11 0.000000 0.021668 0.750000
O O12 0.827485 0.961237 0.728887
O O13 0.951827 0.054676 0.910384
#
# Coordination Sequence:
#
# PCOD9258817 Si02
#       6
#     8   8   8   8   8   4
#     4   9  20  38  58  81 111 154 193 240 303 346
#     4  10  18  34  55  83 119 155 184 236 287 350
#     4  10  19  38  61  82 118 153 192 250 295 356
#     4   9  16  32  55  81 112 152 188 227 283 344
#     4   9  18  33  57  80 110 155 189 227 290 341
#     4  10  20  40  58  90 118 158 194 232 318 346
#
# _framework density 19.228617
#
# number of rings (size 3 to 8) (size 9 to 14) (size 15 to 20)
#    0.000    2.545    4.545    0.000    0.000    3.636 
#   13.091    0.000    0.000    7.636    0.000    0.000 
#    0.000    0.000    0.000    0.000    0.000    0.000 
#
# Total GULP energy -122523.573133 kJ/mol
# GULP energy per Si atom -5569.253324 kJ/mol
# Density = 1.918485 g / cm^3
# Si number density = 19.228617 Si / 1000 Ang^3
#
#
#
# Elastic Constant Matrix: (Units=GPa)
#
#
# Indices 1 2 3 4 5 6 
#
# 1 87.7286 20.4316 43.9150 0.0000 -0.8003 0.0000
# 2 20.4316 30.9797 8.1127 0.0000 -3.7384 0.0000
# 3 43.9150 8.1127 74.3042 0.0000 11.6810 0.0000
# 4 0.0000 0.0000 0.0000 -1.5407 0.0000 -12.1944
# 5 -0.8003 -3.7384 11.6810 0.0000 33.6891 0.0000
# 6 0.0000 0.0000 0.0000 -12.1944 0.0000 23.5752
#
#
#
# Elastic Compliance Matrix: (Units=1/GPa)
#
#
# Indices 1 2 3 4 5 6 
#
# 1 0.018935 -0.009320 -0.010663 0.000000 0.003113 0.000000
# 2 -0.009320 0.038712 0.000678 0.000000 0.003839 0.000000
# 3 -0.010663 0.000678 0.020851 0.000000 -0.007408 0.000000
# 4 0.000000 0.000000 0.000000 -0.127416 0.000000 -0.065907
# 5 0.003113 0.003839 -0.007408 0.000000 0.032752 0.000000
# 6 0.000000 0.000000 0.000000 -0.065907 0.000000 0.008327
#
#
# Mechanical properties :
#
#
# Convention : Reuss Voigt Hill
#
# Bulk Modulus (GPa) = 25.07020 37.54790 31.30905
# Shear Modulus (GPa) = 113.46654 19.18161 66.32407
#
# Velocity S-wave (km/s) = 7.69008 3.16184 5.87939
# Velocity P-wave (km/s) = 9.58728 5.73577 7.89985
#
# Compressibility (1/GPa) = 0.03988799
#
# Stress axis : x y z
#
# Youngs Moduli (GPa) = 52.81104 25.83192 47.96026
#
# Poissons Ratio (x) = 0.24076 0.51139
# Poissons Ratio (y) = 0.49221 -0.03253
# Poissons Ratio (z) = 0.56312 -0.01752
#
# Static dielectric constant tensor:
#      x y z
#    x 1.705930 0.000000 -0.006800 
#    y 0.000000 1.670730 0.000000 
#    z -0.006800 0.000000 1.700280 
# 
# From -- ./inp_files/92154.got.cif
#   From: 2010.05.17/outbox.cif.g08.bks.cpg/sg15_47_cif.got.tgz:92154.got - 2010.06.03 18:47:42.
