data_PCOD9258509
_publ_section_title
;
Structure prediction by ZEFSAII (Michael W. Deem and Ramdas Pophale) SiO2 
 PCOD9258509
Probable space group: C 2/C
;
_chemical_formula_sum "Si O2"
_cell_formula_units_Z 64
_cell_length_a 10.641653
_cell_length_b 17.745799
_cell_length_c 21.981423
_cell_angle_alpha 90.000000
_cell_angle_beta 127.723766
_cell_angle_gamma 90.000000
_cell_volume 3283.374046
_symmetry_space_group_name_H-M "C 2/C"
_symmetry_group_IT_number 15
_symmetry_cell_setting 'monoclinic'
loop_
_space_group_symop_operation_xyz
x,y,z
-x,y,1/2-z
-x,-y,-z
x,-y,1/2+z
1/2+x,1/2+y,z
1/2-x,1/2+y,1/2-z
1/2-x,1/2-y,-z
1/2+x,1/2-y,1/2+z
loop_
_atom_site_type_symbol
_atom_site_label
_atom_site_fract_x
_atom_site_fract_y
_atom_site_fract_z
Si Si1 0.871685 0.423128 0.525943
Si Si2 0.943100 0.793550 0.892766
Si Si3 0.286491 0.999781 0.382642
Si Si4 0.364772 0.341057 0.662791
Si Si5 0.981375 0.787938 0.155268
Si Si6 0.025016 0.734984 0.046017
Si Si7 0.252969 0.153469 0.810806
Si Si8 0.618494 0.125578 0.335596
O O1 0.761390 0.464342 0.443067
O O2 0.836707 0.416762 0.587978
O O3 0.036172 0.468400 0.569715
O O4 0.915373 0.339638 0.514116
O O5 0.898986 0.710810 0.853092
O O6 0.780424 0.841449 0.853919
O O7 0.061750 0.833500 0.882315
O O8 0.019144 0.775901 0.980284
O O9 0.277394 0.933712 0.330449
O O10 0.176711 0.071505 0.337938
O O11 0.500000 0.315742 0.750000
O O12 0.201429 0.293198 0.616477
O O13 0.849735 0.820167 0.160964
O O14 0.982448 0.698939 0.171862
O O15 0.954700 0.790558 0.076086
O O16 0.143369 0.828387 0.221079
O O17 0.500000 0.088932 0.250000
#
# Coordination Sequence:
#
# PCOD9258509 Si02
#       8
#     8   8   8   8   8   8   8   8
#     4   9  20  36  59  83 114 154 198 239 292 355
#     4  11  21  36  61  89 111 154 190 255 304 346
#     4  10  21  37  57  83 112 158 200 241 286 369
#     4  11  25  39  59  83 121 160 198 240 303 371
#     4   9  18  31  55  89 115 139 191 250 287 333
#     4  10  20  37  60  87 116 152 196 243 297 358
#     4  10  18  33  58  85 114 145 193 245 292 338
#     4  10  19  34  59  88 120 148 196 250 296 348
#
# _framework density 19.492144
#
# number of rings (size 3 to 8) (size 9 to 14) (size 15 to 20)
#    0.000    2.000    3.750    1.125    7.000    1.500 
#    0.000    0.625    2.750    0.750    0.000    0.000 
#    0.000    0.000    0.000    0.000    0.000    0.000 
#
# Total GULP energy -178421.724702 kJ/mol
# GULP energy per Si atom -5575.678897 kJ/mol
# Density = 1.944778 g / cm^3
# Si number density = 19.492144 Si / 1000 Ang^3
#
#
#
# Elastic Constant Matrix: (Units=GPa)
#
#
# Indices 1 2 3 4 5 6 
#
# 1 48.4117 3.4664 -7.6420 0.0000 1.1003 0.0000
# 2 3.4664 46.8593 -2.2045 0.0000 3.3497 0.0000
# 3 -7.6420 -2.2045 36.5387 0.0000 18.0098 0.0000
# 4 0.0000 0.0000 0.0000 8.5843 0.0000 -9.3316
# 5 1.1003 3.3497 18.0098 0.0000 23.9042 0.0000
# 6 0.0000 0.0000 0.0000 -9.3316 0.0000 13.3146
#
#
#
# Elastic Compliance Matrix: (Units=1/GPa)
#
#
# Indices 1 2 3 4 5 6 
#
# 1 0.022132 -0.000764 0.008005 0.000000 -0.006942 0.000000
# 2 -0.000764 0.022045 0.004256 0.000000 -0.006260 0.000000
# 3 0.008005 0.004256 0.047363 0.000000 -0.036649 0.000000
# 4 0.000000 0.000000 0.000000 0.489214 0.000000 0.342870
# 5 -0.006942 -0.006260 -0.036649 0.000000 0.070643 0.000000
# 6 0.000000 0.000000 0.000000 0.342870 0.000000 0.315409
#
#
# Mechanical properties :
#
#
# Convention : Reuss Voigt Hill
#
# Bulk Modulus (GPa) = 8.73112 13.22773 10.97943
# Shear Modulus (GPa) = 5.09169 18.37325 11.73247
#
# Velocity S-wave (km/s) = 1.61798 3.07351 2.45604
# Velocity P-wave (km/s) = 2.82480 4.40411 3.69971
#
# Compressibility (1/GPa) = 0.11453283
#
# Stress axis : x y z
#
# Youngs Moduli (GPa) = 45.18298 45.36222 21.11336
#
# Poissons Ratio (x) = 0.03467 -0.16901
# Poissons Ratio (y) = 0.03454 -0.08986
# Poissons Ratio (z) = -0.36168 -0.19306
#
# Static dielectric constant tensor:
#      x y z
#    x 1.672650 0.000000 -0.001980 
#    y 0.000000 1.690220 0.000000 
#    z -0.001980 0.000000 1.745970 
# 
# From -- ./inp_files/239844.got.cif
#   From: 2010.05.17/outbox.cif.g08.bks.cpg/sg15_120_cif.got.tgz:239844.got - 2010.06.03 18:47:42.
