data_PCOD9258902
_publ_section_title
;
Structure prediction by ZEFSAII (Michael W. Deem and Ramdas Pophale) SiO2 
 PCOD9258902
Probable space group: C 2/C
;
_chemical_formula_sum "Si O2"
_cell_formula_units_Z 56
_cell_length_a 7.861986
_cell_length_b 16.245445
_cell_length_c 24.678153
_cell_angle_alpha 90.000000
_cell_angle_beta 63.606756
_cell_angle_gamma 90.000000
_cell_volume 2823.385786
_symmetry_space_group_name_H-M "C 2/C"
_symmetry_group_IT_number 15
_symmetry_cell_setting 'monoclinic'
loop_
_space_group_symop_operation_xyz
x,y,z
-x,y,1/2-z
-x,-y,-z
x,-y,1/2+z
1/2+x,1/2+y,z
1/2-x,1/2+y,1/2-z
1/2-x,1/2-y,-z
1/2+x,1/2-y,1/2+z
loop_
_atom_site_type_symbol
_atom_site_label
_atom_site_fract_x
_atom_site_fract_y
_atom_site_fract_z
Si Si1 0.333114 0.111571 0.566756
Si Si2 0.961387 0.724699 0.819038
Si Si3 0.993483 0.216774 0.000002
Si Si4 0.717309 0.068427 0.046115
Si Si5 0.067942 0.694077 0.379761
Si Si6 0.305402 0.099913 0.923910
Si Si7 0.365060 0.707274 0.818039
O O1 0.427840 0.200244 0.538113
O O2 0.275264 0.065492 0.520563
O O3 0.508682 0.068799 0.570974
O O4 0.177035 0.133851 0.633517
O O5 0.795661 0.793415 0.849021
O O6 0.868547 0.643467 0.859763
O O7 0.000000 0.714478 0.750000
O O8 0.160680 0.736521 0.822799
O O9 0.987604 0.243508 0.937586
O O10 0.194576 0.169624 0.973761
O O11 0.851240 0.146588 0.038865
O O12 0.512878 0.104855 0.093697
O O13 0.797973 0.987477 0.064138
O O14 0.979565 0.723970 0.335661
O O15 0.500000 0.680751 0.750000
#
# Coordination Sequence:
#
# PCOD9258902 Si02
#       7
#     8   8   8   8   8   8   8
#     4  10  19  35  54  81 109 149 187 224 280 331
#     4  10  21  36  58  81 108 149 195 231 274 333
#     4  10  18  34  57  78 112 144 187 225 270 334
#     4  11  19  35  55  82 119 143 174 236 293 331
#     4  10  19  36  57  82 110 145 187 235 273 326
#     4  10  22  32  54  86 115 144 182 232 287 333
#     4  11  19  33  59  85 102 142 195 236 266 327
#
# _framework density 19.834340999999998
#
# number of rings (size 3 to 8) (size 9 to 14) (size 15 to 20)
#    0.000    1.714    4.286    2.143    0.000    1.143 
#    0.000    0.714    0.000    3.429    0.000    0.000 
#    0.000    0.000    0.000    0.000    0.000    0.000 
#
# Total GULP energy -155941.780092 kJ/mol
# GULP energy per Si atom -5569.349289 kJ/mol
# Density = 1.978920 g / cm^3
# Si number density = 19.834341 Si / 1000 Ang^3
#
#
#
# Elastic Constant Matrix: (Units=GPa)
#
#
# Indices 1 2 3 4 5 6 
#
# 1 75.1771 6.7808 23.2318 0.0000 -10.2481 0.0000
# 2 6.7808 78.3836 30.7987 0.0000 -8.1099 0.0000
# 3 23.2318 30.7987 125.9233 0.0000 -12.9035 0.0000
# 4 0.0000 0.0000 0.0000 13.9028 0.0000 3.1803
# 5 -10.2481 -8.1099 -12.9035 0.0000 28.4688 0.0000
# 6 0.0000 0.0000 0.0000 3.1803 0.0000 11.5843
#
#
#
# Elastic Compliance Matrix: (Units=1/GPa)
#
#
# Indices 1 2 3 4 5 6 
#
# 1 0.014575 0.000070 -0.002272 0.000000 0.004237 0.000000
# 2 0.000070 0.014297 -0.003240 0.000000 0.002629 0.000000
# 3 -0.002272 -0.003240 0.009412 0.000000 0.002525 0.000000
# 4 0.000000 0.000000 0.000000 0.076748 0.000000 -0.021070
# 5 0.004237 0.002629 0.002525 0.000000 0.038545 0.000000
# 6 0.000000 0.000000 0.000000 -0.021070 0.000000 0.092109
#
#
# Mechanical properties :
#
#
# Convention : Reuss Voigt Hill
#
# Bulk Modulus (GPa) = 36.49662 44.56740 40.53201
# Shear Modulus (GPa) = 18.81802 25.36934 22.09368
#
# Velocity S-wave (km/s) = 3.08354 3.58028 3.34115
# Velocity P-wave (km/s) = 5.57837 6.29363 5.94677
#
# Compressibility (1/GPa) = 0.02739980
#
# Stress axis : x y z
#
# Youngs Moduli (GPa) = 68.60923 69.94506 106.24990
#
# Poissons Ratio (x) = -0.00491 0.24140
# Poissons Ratio (y) = -0.00482 0.34428
# Poissons Ratio (z) = 0.15588 0.22664
#
# Static dielectric constant tensor:
#      x y z
#    x 1.818450 0.000000 -0.029460 
#    y 0.000000 1.733030 0.000000 
#    z -0.029460 0.000000 1.704920 
# 
# From -- ./inp_files/232121.got.cif
#   From: 2010.05.17/outbox.cif.g08.bks.cpg/sg15_117_cif.got.tgz:232121.got - 2010.06.03 18:47:42.
