data_PCOD9258984
_publ_section_title
;
Structure prediction by ZEFSAII (Michael W. Deem and Ramdas Pophale) SiO2 
 PCOD9258984
Probable space group: C 2/C
;
_chemical_formula_sum "Si O2"
_cell_formula_units_Z 48
_cell_length_a 10.002589
_cell_length_b 19.164047
_cell_length_c 20.948694
_cell_angle_alpha 90.000000
_cell_angle_beta 39.393528
_cell_angle_gamma 90.000000
_cell_volume 2548.509468
_symmetry_space_group_name_H-M "C 2/C"
_symmetry_group_IT_number 15
_symmetry_cell_setting 'monoclinic'
loop_
_space_group_symop_operation_xyz
x,y,z
-x,y,1/2-z
-x,-y,-z
x,-y,1/2+z
1/2+x,1/2+y,z
1/2-x,1/2+y,1/2-z
1/2-x,1/2-y,-z
1/2+x,1/2-y,1/2+z
loop_
_atom_site_type_symbol
_atom_site_label
_atom_site_fract_x
_atom_site_fract_y
_atom_site_fract_z
Si Si1 0.878107 0.712325 0.532942
Si Si2 0.398228 0.084143 0.976887
Si Si3 0.000000 0.734213 0.250000
Si Si4 0.294916 0.311152 0.034945
Si Si5 0.244753 0.981650 0.662322
Si Si6 0.138359 0.332798 0.824463
Si Si7 0.500000 0.235153 0.750000
O O1 0.651741 0.719376 0.649231
O O2 0.998871 0.650801 0.526098
O O3 0.997024 0.785209 0.505356
O O4 0.925595 0.689856 0.442203
O O5 0.222333 0.115745 0.994933
O O6 0.591313 0.040764 0.876231
O O7 0.297766 0.037629 0.069338
O O8 0.880214 0.686061 0.242767
O O9 0.105692 0.308954 0.155365
O O10 0.250000 0.250000 0.000000
O O11 0.294594 0.911663 0.684308
O O12 0.000000 0.001251 0.750000
O O13 0.320264 0.284508 0.787294
#
# Coordination Sequence:
#
# PCOD9258984 Si02
#       7
#     8   8   4   8   8   8   4
#     4   9  20  33  53  81 111 140 178 228 274 328
#     4   9  19  35  53  83 109 139 186 230 266 316
#     4  12  22  32  56  82 116 148 170 232 288 318
#     4   9  17  32  55  81 110 137 180 226 273 323
#     4  10  20  33  57  79 108 148 187 226 259 322
#     4  10  20  35  53  81 113 143 187 218 271 326
#     4  10  18  34  58  82 104 148 182 226 270 330
#
# _framework density 18.834538999999999
#
# number of rings (size 3 to 8) (size 9 to 14) (size 15 to 20)
#    0.000    2.333    0.833    3.500    3.500    0.000 
#    0.000    0.833    0.000    1.000    0.000    0.000 
#    0.000    0.000    0.000    0.000    0.000    0.000 
#
# Total GULP energy -133711.059588 kJ/mol
# GULP energy per Si atom -5571.294149 kJ/mol
# Density = 1.879167 g / cm^3
# Si number density = 18.834539 Si / 1000 Ang^3
#
#
#
# Elastic Constant Matrix: (Units=GPa)
#
#
# Indices 1 2 3 4 5 6 
#
# 1 54.2037 8.9477 1.9532 -0.0009 11.3684 0.0036
# 2 8.9477 38.1181 -2.2914 -0.0025 -3.5909 0.0045
# 3 1.9532 -2.2914 83.1188 -0.0097 -3.4231 0.0117
# 4 -0.0009 -0.0025 -0.0097 15.4186 0.0023 -4.6815
# 5 11.3684 -3.5909 -3.4231 0.0023 27.6329 -0.0030
# 6 0.0036 0.0045 0.0117 -4.6815 -0.0030 16.5331
#
#
#
# Elastic Compliance Matrix: (Units=1/GPa)
#
#
# Indices 1 2 3 4 5 6 
#
# 1 0.021536 -0.006041 -0.001075 0.000000 -0.009778 -0.000004
# 2 -0.006041 0.028318 0.001183 0.000002 0.006312 -0.000005
# 3 -0.001075 0.001183 0.012176 0.000005 0.002104 -0.000007
# 4 0.000000 0.000002 0.000005 0.070957 -0.000003 0.020092
# 5 -0.009778 0.006312 0.002104 -0.000003 0.041292 0.000006
# 6 -0.000004 -0.000005 -0.000007 0.020092 0.000006 0.066174
#
#
# Mechanical properties :
#
#
# Convention : Reuss Voigt Hill
#
# Bulk Modulus (GPa) = 19.93552 21.40663 20.67108
# Shear Modulus (GPa) = 18.58454 23.03900 20.81177
#
# Velocity S-wave (km/s) = 3.14463 3.50127 3.32773
# Velocity P-wave (km/s) = 4.87775 5.26645 5.07582
#
# Compressibility (1/GPa) = 0.05016171
#
# Stress axis : x y z
#
# Youngs Moduli (GPa) = 46.43449 35.31321 82.13211
#
# Poissons Ratio (x) = 0.21333 0.08832
# Poissons Ratio (y) = 0.28051 -0.09713
# Poissons Ratio (z) = 0.04993 -0.04176
#
# Static dielectric constant tensor:
#      x y z
#    x 1.697650 0.000000 -0.005490 
#    y 0.000000 1.640840 0.000010 
#    z -0.005490 0.000010 1.714050 
# 
# From -- ./inp_files/136209.got.cif
#   From: 2010.05.17/outbox.cif.g08.bks.cpg/sg15_69_cif.got.tgz:136209.got - 2010.06.03 18:47:42.
