data_PCOD9258421
_publ_section_title
;
Structure prediction by ZEFSAII (Michael W. Deem and Ramdas Pophale) SiO2 
 PCOD9258421
Probable space group: C 2/C
;
_chemical_formula_sum "Si O2"
_cell_formula_units_Z 52
_cell_length_a 23.150749
_cell_length_b 8.826896
_cell_length_c 14.450710
_cell_angle_alpha 90.000000
_cell_angle_beta 37.858684
_cell_angle_gamma 90.000000
_cell_volume 1812.298412
_symmetry_space_group_name_H-M "C 2/C"
_symmetry_group_IT_number 15
_symmetry_cell_setting 'monoclinic'
loop_
_space_group_symop_operation_xyz
x,y,z
-x,y,1/2-z
-x,-y,-z
x,-y,1/2+z
1/2+x,1/2+y,z
1/2-x,1/2+y,1/2-z
1/2-x,1/2-y,-z
1/2+x,1/2-y,1/2+z
loop_
_atom_site_type_symbol
_atom_site_label
_atom_site_fract_x
_atom_site_fract_y
_atom_site_fract_z
Si Si1 0.905551 0.865890 0.727170
Si Si2 0.500000 0.082918 0.750000
Si Si3 0.553816 0.187785 0.056343
Si Si4 0.331684 0.432702 0.473223
Si Si5 0.583483 0.335088 0.403374
Si Si6 0.232824 0.601307 0.766724
Si Si7 0.292946 0.079503 0.012004
O O1 0.010033 0.800386 0.578920
O O2 0.905491 0.987972 0.639645
O O3 0.095162 0.969984 0.679930
O O4 0.796675 0.808623 0.866973
O O5 0.517413 0.967514 0.643805
O O6 0.395973 0.149364 0.863458
O O7 0.611627 0.288310 0.058331
O O8 0.629261 0.165513 0.877774
O O9 0.462500 0.263151 0.128302
O O10 0.289617 0.519278 0.614762
O O11 0.242237 0.446446 0.514564
O O12 0.688335 0.281956 0.294292
O O13 0.206820 0.499303 0.888306
#
# Coordination Sequence:
#
# PCOD9258421 Si02
#       7
#     8   4   8   8   8   8   8
#     4   8  17  32  58  83 105 144 187 233 278 332
#     4  10  20  32  54  88 116 148 184 238 292 342
#     4  11  22  32  58  85 116 150 189 233 293 331
#     4  10  20  37  60  80 115 155 185 238 289 327
#     4  10  18  33  56  83 117 141 189 240 277 332
#     4  10  22  37  55  88 119 144 194 240 276 341
#     4   8  19  35  54  81 118 142 187 236 276 339
#
# _framework density 28.692847
#
# number of rings (size 3 to 8) (size 9 to 14) (size 15 to 20)
#    0.923    1.538    0.000    3.692    2.154    3.077 
#    0.000    3.846    3.385    0.000    0.000    0.000 
#    0.000    0.000    0.000    0.000    0.000    0.000 
#
# Total GULP energy -145243.596540 kJ/mol
# GULP energy per Si atom -5586.292175 kJ/mol
# Density = 2.862754 g / cm^3
# Si number density = 28.692847 Si / 1000 Ang^3
#
#
#
# Elastic Constant Matrix: (Units=GPa)
#
#
# Indices 1 2 3 4 5 6 
#
# 1 86.4662 23.1505 46.0906 -0.0001 -0.8746 0.0000
# 2 23.1505 78.0453 30.5863 -0.0007 -12.3443 0.0002
# 3 46.0906 30.5863 243.3131 -0.0009 -21.1835 0.0003
# 4 -0.0001 -0.0007 -0.0009 29.6487 0.0001 -18.4891
# 5 -0.8746 -12.3443 -21.1835 0.0001 68.6293 -0.0001
# 6 0.0000 0.0002 0.0003 -18.4891 -0.0001 38.1697
#
#
#
# Elastic Compliance Matrix: (Units=1/GPa)
#
#
# Indices 1 2 3 4 5 6 
#
# 1 0.013656 -0.003341 -0.002265 0.000000 -0.001126 0.000000
# 2 -0.003341 0.014554 -0.000999 0.000000 0.002267 0.000000
# 3 -0.002265 -0.000999 0.004775 0.000000 0.001265 0.000000
# 4 0.000000 0.000000 0.000000 0.048326 0.000000 0.023409
# 5 -0.001126 0.002267 0.001265 0.000000 0.015355 0.000000
# 6 0.000000 0.000000 0.000000 0.023409 0.000000 0.037538
#
#
# Mechanical properties :
#
#
# Convention : Reuss Voigt Hill
#
# Bulk Modulus (GPa) = 50.57114 67.49770 59.03442
# Shear Modulus (GPa) = 32.46635 47.82269 40.14452
#
# Velocity S-wave (km/s) = 3.36745 4.08697 3.74453
# Velocity P-wave (km/s) = 5.72563 6.77099 6.27014
#
# Compressibility (1/GPa) = 0.01977413
#
# Stress axis : x y z
#
# Youngs Moduli (GPa) = 73.22990 68.70803 209.43627
#
# Poissons Ratio (x) = 0.22956 0.47433
# Poissons Ratio (y) = 0.24467 0.20929
# Poissons Ratio (z) = 0.16585 0.06866
#
# Static dielectric constant tensor:
#      x y z
#    x 2.467250 0.000000 -0.099040 
#    y 0.000000 2.405300 0.000000 
#    z -0.099040 0.000000 2.234720 
# 
# From -- ./inp_files/219498.got.cif
#   From: 2010.05.17/outbox.cif.g08.bks.cpg/sg15_110_cif.got.tgz:219498.got - 2010.06.03 18:47:42.
