data_PCOD9258946
_publ_section_title
;
Structure prediction by ZEFSAII (Michael W. Deem and Ramdas Pophale) SiO2 
 PCOD9258946
Probable space group: C 2/C
;
_chemical_formula_sum "Si O2"
_cell_formula_units_Z 64
_cell_length_a 21.979087
_cell_length_b 10.386011
_cell_length_c 29.026077
_cell_angle_alpha 90.000000
_cell_angle_beta 153.770176
_cell_angle_gamma 90.000000
_cell_volume 2928.480601
_symmetry_space_group_name_H-M "C 2/C"
_symmetry_group_IT_number 15
_symmetry_cell_setting 'monoclinic'
loop_
_space_group_symop_operation_xyz
x,y,z
-x,y,1/2-z
-x,-y,-z
x,-y,1/2+z
1/2+x,1/2+y,z
1/2-x,1/2+y,1/2-z
1/2-x,1/2-y,-z
1/2+x,1/2-y,1/2+z
loop_
_atom_site_type_symbol
_atom_site_label
_atom_site_fract_x
_atom_site_fract_y
_atom_site_fract_z
Si Si1 0.083470 0.698116 0.697927
Si Si2 0.116722 0.361663 0.954912
Si Si3 0.593158 0.077978 0.004960
Si Si4 0.868515 0.920141 0.066934
Si Si5 0.919696 0.934223 0.741799
Si Si6 0.576719 0.949000 0.753522
Si Si7 0.617130 0.527505 0.020418
Si Si8 0.594841 0.705392 0.576595
O O1 0.047389 0.831926 0.696464
O O2 0.067781 0.594569 0.728491
O O3 0.247381 0.706195 0.797886
O O4 0.987335 0.654479 0.590412
O O5 0.072284 0.430521 0.971966
O O6 0.158771 0.213974 0.978348
O O7 0.994845 0.371017 0.835460
O O8 0.245886 0.438640 0.020039
O O9 0.758782 0.077551 0.122160
O O10 0.554538 0.157217 0.025572
O O11 0.865992 0.012040 0.021118
O O12 0.012159 0.934756 0.191829
O O13 0.000000 0.903433 0.750000
O O14 0.500000 0.932787 0.750000
O O15 0.736428 0.917030 0.864594
O O16 0.589175 0.399639 0.031182
O O17 0.501747 0.635778 0.951539
#
# Coordination Sequence:
#
# PCOD9258946 Si02
#       8
#     8   8   8   8   8   8   8   8
#     4   9  20  35  59  87 126 163 205 264 319 382
#     4  10  22  37  57  85 123 161 205 259 319 386
#     4  10  20  40  61  89 131 164 209 272 323 379
#     4  11  22  37  57  86 121 165 207 256 317 393
#     4  11  21  34  57  95 127 166 207 256 330 392
#     4  10  18  34  57  88 117 155 202 255 320 385
#     4  10  20  38  62  87 116 162 212 259 320 386
#     4   9  20  39  63  87 118 164 216 263 314 386
#
# _framework density 21.854337999999998
#
# number of rings (size 3 to 8) (size 9 to 14) (size 15 to 20)
#    0.000    2.000    2.500    1.125    0.000    2.000 
#    2.250    0.625    8.250    0.000    0.000    0.000 
#    0.000    0.000    0.000    0.000    0.000    0.000 
#
# Total GULP energy -178216.943773 kJ/mol
# GULP energy per Si atom -5569.279493 kJ/mol
# Density = 2.180460 g / cm^3
# Si number density = 21.854338 Si / 1000 Ang^3
#
#
#
# Elastic Constant Matrix: (Units=GPa)
#
#
# Indices 1 2 3 4 5 6 
#
# 1 102.1860 11.5897 25.7430 -0.0024 3.5978 -0.0003
# 2 11.5897 48.9143 19.3537 -0.0085 2.0574 -0.0011
# 3 25.7430 19.3537 109.2521 -0.0214 -16.6272 -0.0022
# 4 -0.0024 -0.0085 -0.0214 -165.2037 -0.0003 -27.4102
# 5 3.5978 2.0574 -16.6272 -0.0003 12.7459 -0.0001
# 6 -0.0003 -0.0011 -0.0022 -27.4102 -0.0001 13.5386
#
#
#
# Elastic Compliance Matrix: (Units=1/GPa)
#
#
# Indices 1 2 3 4 5 6 
#
# 1 0.011070 -0.000861 -0.003631 0.000000 -0.007723 0.000000
# 2 -0.000861 0.023304 -0.005566 0.000000 -0.010779 0.000000
# 3 -0.003631 -0.005566 0.014084 -0.000001 0.020296 -0.000001
# 4 0.000000 0.000000 -0.000001 -0.004531 -0.000002 -0.009174
# 5 -0.007723 -0.010779 0.020296 -0.000002 0.108852 -0.000001
# 6 0.000000 0.000000 -0.000001 -0.009174 -0.000001 0.055290
#
#
# Mechanical properties :
#
#
# Convention : Reuss Voigt Hill
#
# Bulk Modulus (GPa) = 35.28472 41.52499 38.40486
# Shear Modulus (GPa) = 21.04092 -14.20610 3.41741
#
# Velocity S-wave (km/s) = 3.10624 -2.55235 1.25185
# Velocity P-wave (km/s) = 5.38938 3.21809 4.43855
#
# Compressibility (1/GPa) = 0.02834088
#
# Stress axis : x y z
#
# Youngs Moduli (GPa) = 90.33023 42.91195 71.00496
#
# Poissons Ratio (x) = 0.03696 0.25784
# Poissons Ratio (y) = 0.07781 0.39519
# Poissons Ratio (z) = 0.32802 0.23883
#
# Static dielectric constant tensor:
#      x y z
#    x 1.807790 0.000000 -0.013560 
#    y 0.000000 1.913200 0.000000 
#    z -0.013560 0.000000 1.797800 
# 
# From -- ./inp_files/300852.got.cif
#   From: 2010.05.17/outbox.cif.g08.bks.cpg/sg15_151_cif.got.tgz:300852.got - 2010.06.03 18:47:42.
