data_PCOD9258917
_publ_section_title
;
Structure prediction by ZEFSAII (Michael W. Deem and Ramdas Pophale) SiO2 
 PCOD9258917
Probable space group: C 2/C
;
_chemical_formula_sum "Si O2"
_cell_formula_units_Z 56
_cell_length_a 15.744242
_cell_length_b 24.415522
_cell_length_c 12.060981
_cell_angle_alpha 90.000000
_cell_angle_beta 36.571380
_cell_angle_gamma 90.000000
_cell_volume 2762.410640
_symmetry_space_group_name_H-M "C 2/C"
_symmetry_group_IT_number 15
_symmetry_cell_setting 'monoclinic'
loop_
_space_group_symop_operation_xyz
x,y,z
-x,y,1/2-z
-x,-y,-z
x,-y,1/2+z
1/2+x,1/2+y,z
1/2-x,1/2+y,1/2-z
1/2-x,1/2-y,-z
1/2+x,1/2-y,1/2+z
loop_
_atom_site_type_symbol
_atom_site_label
_atom_site_fract_x
_atom_site_fract_y
_atom_site_fract_z
Si Si1 0.421796 0.777286 0.587849
Si Si2 0.963151 0.394419 0.656987
Si Si3 0.022949 0.834453 0.354891
Si Si4 0.747704 0.387622 0.264888
Si Si5 0.799089 0.723853 0.832114
Si Si6 0.013422 0.964975 0.614650
Si Si7 0.165374 0.068169 0.388361
O O1 0.427527 0.832583 0.652569
O O2 0.471863 0.727833 0.612980
O O3 0.273287 0.760758 0.687998
O O4 0.532854 0.777802 0.368543
O O5 0.824374 0.429725 0.768450
O O6 0.000000 0.396941 0.750000
O O7 0.100362 0.408753 0.437024
O O8 0.172476 0.860103 0.237335
O O9 0.000000 0.839036 0.250000
O O10 0.901290 0.871183 0.539440
O O11 0.753673 0.338923 0.350761
O O12 0.641937 0.433973 0.418501
O O13 0.750000 0.750000 0.000000
O O14 0.000000 0.941757 0.750000
O O15 0.867928 0.955253 0.699389
O O16 0.063468 0.027931 0.565993
#
# Coordination Sequence:
#
# PCOD9258917 Si02
#       7
#     8   8   8   8   8   8   8
#     4  10  21  34  53  84 114 151 199 234 283 356
#     4  11  22  38  58  87 127 158 187 243 307 359
#     4  10  18  34  57  81 112 151 195 239 280 334
#     4   9  22  36  54  87 116 148 197 242 293 359
#     4  10  20  35  53  76 113 154 194 242 292 346
#     4  10  22  43  65  86 113 149 199 255 293 339
#     4  10  22  38  63  88 112 153 203 238 289 360
#
# _framework density 20.272148999999999
#
# number of rings (size 3 to 8) (size 9 to 14) (size 15 to 20)
#    0.000    2.000    0.000    3.000    0.000    7.429 
#    0.000    7.857    0.000    0.000    0.000    0.000 
#    0.000    0.000    0.000    0.000    0.000    0.000 
#
# Total GULP energy -156153.098579 kJ/mol
# GULP energy per Si atom -5576.896378 kJ/mol
# Density = 2.022601 g / cm^3
# Si number density = 20.272149 Si / 1000 Ang^3
#
#
#
# Elastic Constant Matrix: (Units=GPa)
#
#
# Indices 1 2 3 4 5 6 
#
# 1 135.2001 32.4144 62.0044 0.0001 -0.6132 0.0002
# 2 32.4144 69.3756 21.8687 0.0000 3.3489 0.0000
# 3 62.0044 21.8687 62.6491 0.0002 -1.1467 0.0001
# 4 0.0001 0.0000 0.0002 15.2710 -0.0001 5.2058
# 5 -0.6132 3.3489 -1.1467 -0.0001 36.2597 -0.0001
# 6 0.0002 0.0000 0.0001 5.2058 -0.0001 -15.4752
#
#
#
# Elastic Compliance Matrix: (Units=1/GPa)
#
#
# Indices 1 2 3 4 5 6 
#
# 1 0.013898 -0.002428 -0.012906 0.000000 0.000051 0.000000
# 2 -0.002428 0.016723 -0.003466 0.000000 -0.001695 0.000000
# 3 -0.012906 -0.003466 0.029964 0.000000 0.001049 0.000000
# 4 0.000000 0.000000 0.000000 0.058747 0.000000 0.019762
# 5 0.000051 -0.001695 0.001049 0.000000 0.027769 0.000000
# 6 0.000000 0.000000 0.000000 0.019762 0.000000 -0.057972
#
#
# Mechanical properties :
#
#
# Convention : Reuss Voigt Hill
#
# Bulk Modulus (GPa) = 43.50566 55.53330 49.51948
# Shear Modulus (GPa) = 37.20490 17.27359 27.23925
#
# Velocity S-wave (km/s) = 4.28865 2.92222 3.66960
# Velocity P-wave (km/s) = 6.78460 6.23211 6.51421
#
# Compressibility (1/GPa) = 0.02298552
#
# Stress axis : x y z
#
# Youngs Moduli (GPa) = 71.95437 59.79843 33.37285
#
# Poissons Ratio (x) = 0.14516 0.43072
# Poissons Ratio (y) = 0.17467 0.11567
# Poissons Ratio (z) = 0.92867 0.20725
#
# Static dielectric constant tensor:
#      x y z
#    x 1.723160 0.000000 -0.003100 
#    y 0.000000 1.736890 0.000000 
#    z -0.003100 0.000000 1.788010 
# 
# From -- ./inp_files/101082.got.cif
#   From: 2010.05.17/outbox.cif.g08.bks.cpg/sg15_51_cif.got.tgz:101082.got - 2010.06.03 18:47:42.
