data_PCOD9258768
_publ_section_title
;
Structure prediction by ZEFSAII (Michael W. Deem and Ramdas Pophale) SiO2 
 PCOD9258768
Probable space group: C 2/C
;
_chemical_formula_sum "Si O2"
_cell_formula_units_Z 60
_cell_length_a 19.843807
_cell_length_b 8.290292
_cell_length_c 17.302643
_cell_angle_alpha 90.000000
_cell_angle_beta 83.459952
_cell_angle_gamma 90.000000
_cell_volume 2827.950846
_symmetry_space_group_name_H-M "C 2/C"
_symmetry_group_IT_number 15
_symmetry_cell_setting 'monoclinic'
loop_
_space_group_symop_operation_xyz
x,y,z
-x,y,1/2-z
-x,-y,-z
x,-y,1/2+z
1/2+x,1/2+y,z
1/2-x,1/2+y,1/2-z
1/2-x,1/2-y,-z
1/2+x,1/2-y,1/2+z
loop_
_atom_site_type_symbol
_atom_site_label
_atom_site_fract_x
_atom_site_fract_y
_atom_site_fract_z
Si Si1 0.842843 0.523242 0.603638
Si Si2 0.754662 0.785126 0.282827
Si Si3 0.060876 0.789143 0.391936
Si Si4 0.871343 0.416205 0.856039
Si Si5 0.676030 0.504322 0.847379
Si Si6 0.000000 0.372847 0.750000
Si Si7 0.768527 0.575542 0.965416
Si Si8 0.046286 0.662071 0.000356
O O1 0.790981 0.567666 0.677850
O O2 0.882623 0.352512 0.601360
O O3 0.795294 0.522396 0.534681
O O4 0.902741 0.653407 0.578604
O O5 0.817637 0.711560 0.325836
O O6 0.699167 0.643923 0.292645
O O7 0.787596 0.843982 0.199590
O O8 0.098454 0.953030 0.367383
O O9 0.022328 0.732026 0.320254
O O10 0.010099 0.794048 0.471173
O O11 0.828309 0.567287 0.893553
O O12 0.907401 0.349245 0.928688
O O13 0.931294 0.460040 0.788213
O O14 0.706604 0.492626 0.929190
O O15 0.750000 0.750000 0.000000
O O16 0.000000 0.500000 0.000000
#
# Coordination Sequence:
#
# PCOD9258768 Si02
#       8
#     8   8   8   8   8   4   8   8
#     4  10  20  37  60  87 121 149 201 248 294 352
#     4  11  23  37  59  90 120 154 192 252 303 359
#     4  10  18  35  60  84 112 156 197 243 287 351
#     4   9  19  32  54  85 113 151 197 235 297 349
#     4  11  22  36  57  87 120 153 193 239 306 354
#     4  10  18  34  54  84 112 150 204 240 282 356
#     4  10  20  34  57  87 120 149 188 244 302 350
#     4   8  17  32  55  85 110 152 199 240 279 348
#
# _framework density 21.216778000000001
#
# number of rings (size 3 to 8) (size 9 to 14) (size 15 to 20)
#    0.000    2.133    2.667    0.800    1.867    4.800 
#    0.000    0.667    0.000    0.800    0.000    0.000 
#    0.000    0.000    0.000    0.000    0.000    0.000 
#
# Total GULP energy -167047.245685 kJ/mol
# GULP energy per Si atom -5568.241523 kJ/mol
# Density = 2.116849 g / cm^3
# Si number density = 21.216778 Si / 1000 Ang^3
#
#
#
# Elastic Constant Matrix: (Units=GPa)
#
#
# Indices 1 2 3 4 5 6 
#
# 1 88.9394 5.9171 20.7421 0.0000 -14.1854 0.0000
# 2 5.9171 35.4075 -14.5160 0.0000 0.3130 0.0000
# 3 20.7421 -14.5160 30.7847 0.0000 -5.1616 0.0000
# 4 0.0000 0.0000 0.0000 22.4075 0.0000 -6.9687
# 5 -14.1854 0.3130 -5.1616 0.0000 47.7837 0.0000
# 6 0.0000 0.0000 0.0000 -6.9687 0.0000 25.9388
#
#
#
# Elastic Compliance Matrix: (Units=1/GPa)
#
#
# Indices 1 2 3 4 5 6 
#
# 1 0.015531 -0.008300 -0.013847 0.000000 0.003169 0.000000
# 2 -0.008300 0.039564 0.024231 0.000000 -0.000106 0.000000
# 3 -0.013847 0.024231 0.053492 0.000000 0.001509 0.000000
# 4 0.000000 0.000000 0.000000 0.048697 0.000000 0.013083
# 5 0.003169 -0.000106 0.001509 0.000000 0.022032 0.000000
# 6 0.000000 0.000000 0.000000 0.013083 0.000000 0.042067
#
#
# Mechanical properties :
#
#
# Convention : Reuss Voigt Hill
#
# Bulk Modulus (GPa) = 8.86881 19.93533 14.40207
# Shear Modulus (GPa) = 19.62329 28.75856 24.19092
#
# Velocity S-wave (km/s) = 3.04451 3.68566 3.38032
# Velocity P-wave (km/s) = 4.06791 5.24676 4.69448
#
# Compressibility (1/GPa) = 0.11275469
#
# Stress axis : x y z
#
# Youngs Moduli (GPa) = 64.38937 25.27522 18.69450
#
# Poissons Ratio (x) = 0.20979 0.25885
# Poissons Ratio (y) = 0.53444 -0.45298
# Poissons Ratio (z) = 0.89157 -0.61243
#
# Static dielectric constant tensor:
#      x y z
#    x 1.817470 0.000000 -0.022790 
#    y 0.000000 1.821930 0.000000 
#    z -0.022790 0.000000 1.781570 
# 
# From -- ./inp_files/213872.got.cif
#   From: 2010.05.17/outbox.cif.g08.bks.cpg/sg15_107_cif.got.tgz:213872.got - 2010.06.03 18:47:42.
