data_PCOD9258949
_publ_section_title
;
Structure prediction by ZEFSAII (Michael W. Deem and Ramdas Pophale) SiO2 
 PCOD9258949
Probable space group: C 2/C
;
_chemical_formula_sum "Si O2"
_cell_formula_units_Z 56
_cell_length_a 10.658748
_cell_length_b 31.529895
_cell_length_c 9.518943
_cell_angle_alpha 90.000000
_cell_angle_beta 65.495851
_cell_angle_gamma 90.000000
_cell_volume 2910.891516
_symmetry_space_group_name_H-M "C 2/C"
_symmetry_group_IT_number 15
_symmetry_cell_setting 'monoclinic'
loop_
_space_group_symop_operation_xyz
x,y,z
-x,y,1/2-z
-x,-y,-z
x,-y,1/2+z
1/2+x,1/2+y,z
1/2-x,1/2+y,1/2-z
1/2-x,1/2-y,-z
1/2+x,1/2-y,1/2+z
loop_
_atom_site_type_symbol
_atom_site_label
_atom_site_fract_x
_atom_site_fract_y
_atom_site_fract_z
Si Si1 0.317394 0.081122 0.448774
Si Si2 0.259008 0.171292 0.983061
Si Si3 0.493463 0.224362 0.529520
Si Si4 0.250482 0.160168 0.654717
Si Si5 0.105433 0.487770 0.071329
Si Si6 0.000000 0.778057 0.250000
Si Si7 0.000000 0.788430 0.750000
Si Si8 0.639395 0.092358 0.387506
O O1 0.240167 0.114003 0.587017
O O2 0.477178 0.087980 0.423033
O O3 0.293003 0.093246 0.297900
O O4 0.300990 0.029804 0.455583
O O5 0.248354 0.158516 0.825168
O O6 0.368534 0.208885 0.956723
O O7 0.323217 0.133650 0.044182
O O8 0.112658 0.184562 0.114376
O O9 0.392081 0.184858 0.551335
O O10 0.527068 0.248200 0.370473
O O11 0.428059 0.258659 0.666084
O O12 0.128894 0.191242 0.662867
O O13 0.000000 0.479484 0.250000
O O14 0.177961 0.446502 0.973694
O O15 0.000000 0.500000 0.000000
#
# Coordination Sequence:
#
# PCOD9258949 Si02
#       8
#     8   8   8   8   8   4   4   8
#     4  10  21  37  57  91 127 157 196 248 303 361
#     4  12  25  40  64  91 120 162 206 255 307 362
#     4  12  24  43  65  87 118 158 212 263 303 357
#     4  12  25  41  62  91 123 160 206 255 308 363
#     4  10  18  34  57  88 129 160 194 245 305 362
#     4  12  28  42  58  89 122 169 206 246 316 358
#     4  12  24  44  60  83 126 161 208 252 300 368
#     4  10  22  35  59  91 124 161 196 244 307 358
#
# _framework density 19.238092000000002
#
# number of rings (size 3 to 8) (size 9 to 14) (size 15 to 20)
#    0.000    0.857    7.143    1.714    8.000    0.000 
#    0.000    0.000    0.000    0.857    0.000    4.000 
#    0.000    0.000    0.000    0.000    0.000    0.000 
#
# Total GULP energy -156173.967368 kJ/mol
# GULP energy per Si atom -5577.641692 kJ/mol
# Density = 1.919431 g / cm^3
# Si number density = 19.238092 Si / 1000 Ang^3
#
#
#
# Elastic Constant Matrix: (Units=GPa)
#
#
# Indices 1 2 3 4 5 6 
#
# 1 34.1569 21.0043 19.2636 0.0000 -5.0590 0.0000
# 2 21.0043 115.2520 66.8552 0.0000 7.6637 0.0000
# 3 19.2636 66.8552 129.2452 0.0000 17.8516 0.0000
# 4 0.0000 0.0000 0.0000 30.8858 0.0000 8.7718
# 5 -5.0590 7.6637 17.8516 0.0000 29.9609 0.0000
# 6 0.0000 0.0000 0.0000 8.7718 0.0000 0.6016
#
#
#
# Elastic Compliance Matrix: (Units=1/GPa)
#
#
# Indices 1 2 3 4 5 6 
#
# 1 0.036070 -0.004744 -0.004283 0.000000 0.009856 0.000000
# 2 -0.004744 0.013034 -0.005954 0.000000 -0.000588 0.000000
# 3 -0.004283 -0.005954 0.012362 0.000000 -0.006566 0.000000
# 4 0.000000 0.000000 0.000000 -0.010307 0.000000 0.150293
# 5 0.009856 -0.000588 -0.006566 0.000000 0.039104 0.000000
# 6 0.000000 0.000000 0.000000 0.150293 0.000000 -0.529187
#
#
# Mechanical properties :
#
#
# Convention : Reuss Voigt Hill
#
# Bulk Modulus (GPa) = 31.74297 54.76671 43.25484
# Shear Modulus (GPa) = -12.54832 23.72505 5.58837
#
# Velocity S-wave (km/s) = -2.55672 3.51555 1.70621
# Velocity P-wave (km/s) = 2.79645 6.70883 5.13948
#
# Compressibility (1/GPa) = 0.03150303
#
# Stress axis : x y z
#
# Youngs Moduli (GPa) = 27.72418 76.72198 80.89058
#
# Poissons Ratio (x) = 0.36399 0.34648
# Poissons Ratio (y) = 0.13153 0.48162
# Poissons Ratio (z) = 0.11875 0.45680
#
# Static dielectric constant tensor:
#      x y z
#    x 1.651900 0.000000 -0.008240 
#    y 0.000000 1.764870 0.000000 
#    z -0.008240 0.000000 1.672650 
# 
# From -- ./inp_files/35632.got.cif
#   From: 2010.05.17/outbox.cif.g08.bks.cpg/sg15_18_cif.got.tgz:35632.got - 2010.06.03 18:47:42.
