data_PCOD9258475
_publ_section_title
;
Structure prediction by ZEFSAII (Michael W. Deem and Ramdas Pophale) SiO2 
 PCOD9258475
Probable space group: C 2/C
;
_chemical_formula_sum "Si O2"
_cell_formula_units_Z 56
_cell_length_a 21.425617
_cell_length_b 9.489561
_cell_length_c 10.462788
_cell_angle_alpha 90.000000
_cell_angle_beta 63.341659
_cell_angle_gamma 90.000000
_cell_volume 1901.155306
_symmetry_space_group_name_H-M "C 2/C"
_symmetry_group_IT_number 15
_symmetry_cell_setting 'monoclinic'
loop_
_space_group_symop_operation_xyz
x,y,z
-x,y,1/2-z
-x,-y,-z
x,-y,1/2+z
1/2+x,1/2+y,z
1/2-x,1/2+y,1/2-z
1/2-x,1/2-y,-z
1/2+x,1/2-y,1/2+z
loop_
_atom_site_type_symbol
_atom_site_label
_atom_site_fract_x
_atom_site_fract_y
_atom_site_fract_z
Si Si1 0.027697 0.854506 0.412117
Si Si2 0.340973 0.823994 0.600385
Si Si3 0.082098 0.461396 0.668304
Si Si4 0.750455 0.075495 0.731686
Si Si5 0.438957 0.779421 0.192955
Si Si6 0.819743 0.232435 0.016914
Si Si7 0.134824 0.005388 0.158380
O O1 0.093134 0.763708 0.406061
O O2 0.063168 0.921115 0.253992
O O3 0.965232 0.758576 0.526773
O O4 0.000000 0.000000 0.500000
O O5 0.377460 0.930398 0.465800
O O6 0.289689 0.693004 0.605239
O O7 0.292397 0.926210 0.735922
O O8 0.084369 0.559763 0.790279
O O9 0.124226 0.320780 0.613750
O O10 0.000000 0.420911 0.750000
O O11 0.806499 0.036846 0.792126
O O12 0.693393 0.184491 0.842711
O O13 0.500000 0.777726 0.250000
O O14 0.385861 0.665027 0.297500
O O15 0.839139 0.067046 0.997535
O O16 0.750000 0.250000 0.000000
#
# Coordination Sequence:
#
# PCOD9258475 Si02
#       7
#     8   8   8   8   8   8   8
#     4   9  17  33  59  83 119 154 190 248 297 357
#     4  10  18  36  58  87 119 157 200 246 298 359
#     4  10  19  34  61  86 118 149 201 256 299 351
#     4   9  20  35  57  81 120 160 198 246 293 357
#     4  10  18  33  57  87 112 151 196 245 300 353
#     4   9  19  38  55  78 115 162 196 242 303 364
#     4   9  19  35  55  80 118 155 196 240 295 360
#
# _framework density 29.455774999999999
#
# number of rings (size 3 to 8) (size 9 to 14) (size 15 to 20)
#    0.000    2.571    2.857    0.000    0.000    1.714 
#    0.000   11.429   12.571    0.000    0.000    0.000 
#    0.000    0.000    0.000    0.000    0.000    0.000 
#
# Total GULP energy -156179.792226 kJ/mol
# GULP energy per Si atom -5577.849722 kJ/mol
# Density = 2.938873 g / cm^3
# Si number density = 29.455775 Si / 1000 Ang^3
#
#
#
# Elastic Constant Matrix: (Units=GPa)
#
#
# Indices 1 2 3 4 5 6 
#
# 1 117.8630 47.9537 36.3640 0.0000 -25.6728 0.0000
# 2 47.9537 212.5381 50.7613 0.0000 -36.6761 0.0000
# 3 36.3640 50.7613 123.8629 0.0000 -47.3284 0.0000
# 4 0.0000 0.0000 0.0000 86.3484 0.0000 -22.3768
# 5 -25.6728 -36.6761 -47.3284 0.0000 42.9493 0.0000
# 6 0.0000 0.0000 0.0000 -22.3768 0.0000 46.3503
#
#
#
# Elastic Compliance Matrix: (Units=1/GPa)
#
#
# Indices 1 2 3 4 5 6 
#
# 1 0.010187 -0.001409 -0.000944 0.000000 0.003846 0.000000
# 2 -0.001409 0.005759 -0.000672 0.000000 0.003335 0.000000
# 3 -0.000944 -0.000672 0.014148 0.000000 0.014453 0.000000
# 4 0.000000 0.000000 0.000000 0.013237 0.000000 0.006391
# 5 0.003846 0.003335 0.014453 0.000000 0.044356 0.000000
# 6 0.000000 0.000000 0.000000 0.006391 0.000000 0.024660
#
#
# Mechanical properties :
#
#
# Convention : Reuss Voigt Hill
#
# Bulk Modulus (GPa) = 41.59062 80.49132 61.04097
# Shear Modulus (GPa) = 39.55307 56.40861 47.98084
#
# Velocity S-wave (km/s) = 3.66839 4.38085 4.04036
# Velocity P-wave (km/s) = 5.66508 7.27837 6.52180
#
# Compressibility (1/GPa) = 0.02404388
#
# Stress axis : x y z
#
# Youngs Moduli (GPa) = 98.16789 173.64102 70.67891
#
# Poissons Ratio (x) = 0.24472 0.06669
# Poissons Ratio (y) = 0.13835 0.04751
# Poissons Ratio (z) = 0.09263 0.11672
#
# Static dielectric constant tensor:
#      x y z
#    x 2.527890 0.000000 -0.021740 
#    y 0.000000 2.232420 0.000000 
#    z -0.021740 0.000000 2.466810 
# 
# From -- ./inp_files/224402.got.cif
#   From: 2010.05.17/outbox.cif.g08.bks.cpg/sg15_113_cif.got.tgz:224402.got - 2010.06.03 18:47:42.
