data_PCOD9258288
_publ_section_title
;
Structure prediction by ZEFSAII (Michael W. Deem and Ramdas Pophale) SiO2 
 PCOD9258288
Probable space group: C 2/C
;
_chemical_formula_sum "Si O2"
_cell_formula_units_Z 44
_cell_length_a 25.393945
_cell_length_b 16.560765
_cell_length_c 13.891812
_cell_angle_alpha 90.000000
_cell_angle_beta 156.593521
_cell_angle_gamma 90.000000
_cell_volume 2320.786532
_symmetry_space_group_name_H-M "C 2/C"
_symmetry_group_IT_number 15
_symmetry_cell_setting 'monoclinic'
loop_
_space_group_symop_operation_xyz
x,y,z
-x,y,1/2-z
-x,-y,-z
x,-y,1/2+z
1/2+x,1/2+y,z
1/2-x,1/2+y,1/2-z
1/2-x,1/2-y,-z
1/2+x,1/2-y,1/2+z
loop_
_atom_site_type_symbol
_atom_site_label
_atom_site_fract_x
_atom_site_fract_y
_atom_site_fract_z
Si Si1 0.972222 0.602548 0.015443
Si Si2 0.986304 0.997718 0.362623
Si Si3 0.308875 0.970758 0.097096
Si Si4 0.341616 0.216835 0.070099
Si Si5 0.000000 0.150686 0.750000
Si Si6 0.734539 0.943809 0.170370
O O1 0.892154 0.603452 0.781081
O O2 0.875137 0.559619 0.930318
O O3 0.103630 0.548050 0.222885
O O4 0.024767 0.683576 0.153627
O O5 0.001059 0.908959 0.342610
O O6 0.000000 0.000000 0.500000
O O7 0.114866 0.045839 0.540987
O O8 0.835957 0.027382 0.097995
O O9 0.294760 0.986088 0.958601
O O10 0.376900 0.289612 0.058216
O O11 0.250000 0.250000 0.000000
O O12 0.280012 0.140515 0.911580
#
# Coordination Sequence:
#
# PCOD9258288 Si02
#       6
#     8   8   8   8   4   8
#     4  10  18  33  53  82 116 152 189 241 290 350
#     4  10  21  35  57  91 121 152 201 255 291 356
#     4   9  18  32  54  83 112 152 195 237 290 340
#     4  11  21  35  56  85 118 149 197 247 300 351
#     4  12  20  36  60  90 118 152 202 246 300 350
#     4  10  19  36  55  84 120 153 190 241 294 352
#
# _framework density 18.95909
#
# number of rings (size 3 to 8) (size 9 to 14) (size 15 to 20)
#    0.000    1.818    1.818    6.000    0.000    1.455 
#    0.000    0.000    0.000    9.818    0.000    0.000 
#    0.000    0.000    0.000    0.000    0.000    0.000 
#
# Total GULP energy -122512.778353 kJ/mol
# GULP energy per Si atom -5568.762652 kJ/mol
# Density = 1.891594 g / cm^3
# Si number density = 18.959090 Si / 1000 Ang^3
#
#
#
# Elastic Constant Matrix: (Units=GPa)
#
#
# Indices 1 2 3 4 5 6 
#
# 1 87.3602 12.9575 27.2617 0.0000 11.6371 0.0000
# 2 12.9575 58.5348 24.1298 0.0000 0.2133 0.0000
# 3 27.2617 24.1298 120.9458 0.0000 19.3329 0.0000
# 4 0.0000 0.0000 0.0000 18.2233 0.0000 4.1947
# 5 11.6371 0.2133 19.3329 0.0000 25.9269 0.0000
# 6 0.0000 0.0000 0.0000 4.1947 0.0000 34.4655
#
#
#
# Elastic Compliance Matrix: (Units=1/GPa)
#
#
# Indices 1 2 3 4 5 6 
#
# 1 0.012907 -0.002108 -0.001777 0.000000 -0.004451 0.000000
# 2 -0.002108 0.019163 -0.003944 0.000000 0.003730 0.000000
# 3 -0.001777 -0.003944 0.010585 0.000000 -0.007062 0.000000
# 4 0.000000 0.000000 0.000000 0.056457 0.000000 -0.006871
# 5 -0.004451 0.003730 -0.007062 0.000000 0.045803 0.000000
# 6 0.000000 0.000000 0.000000 -0.006871 0.000000 0.029851
#
#
# Mechanical properties :
#
#
# Convention : Reuss Voigt Hill
#
# Bulk Modulus (GPa) = 37.04374 43.94875 40.49625
# Shear Modulus (GPa) = 25.07238 29.22258 27.14748
#
# Velocity S-wave (km/s) = 3.64049 3.93026 3.78815
# Velocity P-wave (km/s) = 6.10345 6.62020 6.36707
#
# Compressibility (1/GPa) = 0.02699512
#
# Stress axis : x y z
#
# Youngs Moduli (GPa) = 77.47715 52.18434 94.47721
#
# Poissons Ratio (x) = 0.11002 0.16791
# Poissons Ratio (y) = 0.16334 0.37263
# Poissons Ratio (z) = 0.13770 0.20582
#
# Static dielectric constant tensor:
#      x y z
#    x 1.695190 0.000000 -0.011000 
#    y 0.000000 1.642890 0.000000 
#    z -0.011000 0.000000 1.722790 
# 
# From -- ./inp_files/178820.got.cif
#   From: 2010.05.17/outbox.cif.g08.bks.cpg/sg15_90_cif.got.tgz:178820.got - 2010.06.03 18:47:42.
