data_PCOD9258371
_publ_section_title
;
Structure prediction by ZEFSAII (Michael W. Deem and Ramdas Pophale) SiO2 
 PCOD9258371
Probable space group: C 2/C
;
_chemical_formula_sum "Si O2"
_cell_formula_units_Z 64
_cell_length_a 11.521186
_cell_length_b 15.532910
_cell_length_c 21.819300
_cell_angle_alpha 90.000000
_cell_angle_beta 53.988226
_cell_angle_gamma 90.000000
_cell_volume 3158.519900
_symmetry_space_group_name_H-M "C 2/C"
_symmetry_group_IT_number 15
_symmetry_cell_setting 'monoclinic'
loop_
_space_group_symop_operation_xyz
x,y,z
-x,y,1/2-z
-x,-y,-z
x,-y,1/2+z
1/2+x,1/2+y,z
1/2-x,1/2+y,1/2-z
1/2-x,1/2-y,-z
1/2+x,1/2-y,1/2+z
loop_
_atom_site_type_symbol
_atom_site_label
_atom_site_fract_x
_atom_site_fract_y
_atom_site_fract_z
Si Si1 0.932591 0.327748 0.933105
Si Si2 0.340588 0.720979 0.211447
Si Si3 0.813991 0.234286 0.080175
Si Si4 0.328772 0.322312 0.145101
Si Si5 0.894995 0.894641 0.873962
Si Si6 0.431854 0.591178 0.500749
Si Si7 0.186404 0.426425 0.830743
Si Si8 0.090656 0.944704 0.273830
O O1 0.821587 0.305612 0.913620
O O2 0.057540 0.255459 0.894227
O O3 0.017525 0.415434 0.892879
O O4 0.859019 0.314311 0.022342
O O5 0.295963 0.753858 0.157819
O O6 0.307636 0.787119 0.275972
O O7 0.504583 0.689434 0.160838
O O8 0.243295 0.636995 0.258922
O O9 0.937838 0.160651 0.041015
O O10 0.318069 0.369628 0.083825
O O11 0.398148 0.391210 0.168874
O O12 0.761875 0.892688 0.869840
O O13 0.865468 0.913367 0.953829
O O14 0.994459 0.971648 0.818184
O O15 0.500000 0.500000 0.500000
O O16 0.255652 0.519083 0.795612
O O17 0.000000 0.896125 0.250000
#
# Coordination Sequence:
#
# PCOD9258371 Si02
#       8
#     8   8   8   8   8   8   8   8
#     4   9  19  35  52  78 103 138 177 220 266 314
#     4   9  18  31  50  77 105 134 173 219 261 305
#     4   9  19  34  54  77 105 136 178 223 267 307
#     4  10  19  29  51  82 104 131 177 220 258 311
#     4   9  17  34  53  75 101 142 174 211 260 315
#     4  10  18  33  55  80 105 137 178 217 261 316
#     4   9  18  33  53  74 105 136 178 210 261 324
#     4   9  17  28  48  77 103 132 169 217 262 310
#
# _framework density 20.262654999999999
#
# number of rings (size 3 to 8) (size 9 to 14) (size 15 to 20)
#    0.000    2.750    1.250    1.125    1.750    1.500 
#    0.000   11.250    0.000   10.500    0.000    0.000 
#    0.000    0.000    0.000    0.000    0.000    0.000 
#
# Total GULP energy -178355.485818 kJ/mol
# GULP energy per Si atom -5573.608932 kJ/mol
# Density = 2.021654 g / cm^3
# Si number density = 20.262655 Si / 1000 Ang^3
#
#
#
# Elastic Constant Matrix: (Units=GPa)
#
#
# Indices 1 2 3 4 5 6 
#
# 1 46.7226 -3.4951 26.7762 0.0000 18.1791 0.0000
# 2 -3.4951 29.5886 10.6006 0.0000 4.1501 0.0000
# 3 26.7762 10.6006 97.4343 0.0000 35.6657 0.0000
# 4 0.0000 0.0000 0.0000 9.4398 0.0000 14.2890
# 5 18.1791 4.1501 35.6657 0.0000 34.3112 0.0000
# 6 0.0000 0.0000 0.0000 14.2890 0.0000 7.9934
#
#
#
# Elastic Compliance Matrix: (Units=1/GPa)
#
#
# Indices 1 2 3 4 5 6 
#
# 1 0.028927 0.006628 -0.004466 0.000000 -0.011485 0.000000
# 2 0.006628 0.036691 -0.004687 0.000000 -0.003078 0.000000
# 3 -0.004466 -0.004687 0.017638 0.000000 -0.015401 0.000000
# 4 0.000000 0.000000 0.000000 -0.062099 0.000000 0.111009
# 5 -0.011485 -0.003078 -0.015401 0.000000 0.051612 0.000000
# 6 0.000000 0.000000 0.000000 0.111009 0.000000 -0.073337
#
#
# Mechanical properties :
#
#
# Convention : Reuss Voigt Hill
#
# Bulk Modulus (GPa) = 12.78674 26.83434 19.81054
# Shear Modulus (GPa) = 163.66362 19.67312 91.66837
#
# Velocity S-wave (km/s) = 8.99702 3.11932 6.73337
# Velocity P-wave (km/s) = 10.68891 5.12304 8.38147
#
# Compressibility (1/GPa) = 0.07820602
#
# Stress axis : x y z
#
# Youngs Moduli (GPa) = 34.56955 27.25501 56.69481
#
# Poissons Ratio (x) = -0.18065 0.25323
# Poissons Ratio (y) = -0.22913 0.26571
# Poissons Ratio (z) = 0.15440 0.12773
#
# Static dielectric constant tensor:
#      x y z
#    x 1.701540 0.000000 -0.005180 
#    y 0.000000 1.751730 0.000000 
#    z -0.005180 0.000000 1.790110 
# 
# From -- ./inp_files/239806.got.cif
#   From: 2010.05.17/outbox.cif.g08.bks.cpg/sg15_120_cif.got.tgz:239806.got - 2010.06.03 18:47:42.
