data_PCOD9258263
_publ_section_title
;
Structure prediction by ZEFSAII (Michael W. Deem and Ramdas Pophale) SiO2 
 PCOD9258263
Probable space group: C 2/C
;
_chemical_formula_sum "Si O2"
_cell_formula_units_Z 52
_cell_length_a 19.842740
_cell_length_b 29.347944
_cell_length_c 5.431860
_cell_angle_alpha 90.000000
_cell_angle_beta 89.398529
_cell_angle_gamma 90.000000
_cell_volume 3163.034736
_symmetry_space_group_name_H-M "C 2/C"
_symmetry_group_IT_number 15
_symmetry_cell_setting 'monoclinic'
loop_
_space_group_symop_operation_xyz
x,y,z
-x,y,1/2-z
-x,-y,-z
x,-y,1/2+z
1/2+x,1/2+y,z
1/2-x,1/2+y,1/2-z
1/2-x,1/2-y,-z
1/2+x,1/2-y,1/2+z
loop_
_atom_site_type_symbol
_atom_site_label
_atom_site_fract_x
_atom_site_fract_y
_atom_site_fract_z
Si Si1 0.534046 0.234800 0.497234
Si Si2 0.278629 0.302150 0.502623
Si Si3 0.500000 0.054468 0.750000
Si Si4 0.144851 0.524568 0.882927
Si Si5 0.321333 0.722698 0.500946
Si Si6 0.155978 0.628147 0.983239
Si Si7 0.928588 0.364848 0.509925
O O1 0.500000 0.253219 0.250000
O O2 0.613685 0.245118 0.493107
O O3 0.526348 0.180162 0.491219
O O4 0.500000 0.251705 0.750000
O O5 0.250000 0.250000 0.500000
O O6 0.319279 0.306652 0.248534
O O7 0.218163 0.337841 0.510514
O O8 0.321735 0.305198 0.748465
O O9 0.437089 0.028256 0.634368
O O10 0.530779 0.088872 0.544088
O O11 0.164546 0.492465 0.110179
O O12 0.171712 0.574843 0.944165
O O13 0.250000 0.750000 0.500000
O O14 0.111639 0.632244 0.232995
O O15 0.118157 0.640740 0.730629
#
# Coordination Sequence:
#
# PCOD9258263 Si02
#       7
#     8   8   4   8   8   8   8
#     4  12  23  35  51  76 109 139 174 220 278 313
#     4  10  18  33  53  75  93 123 163 213 262 306
#     4  10  22  34  50  66  92 130 182 226 276 316
#     4  11  23  37  50  67  94 132 175 224 277 316
#     4  10  20  34  52  71  99 135 172 211 259 317
#     4  11  22  35  55  72  96 126 176 225 271 312
#     4  11  21  34  46  72  97 129 169 228 277 312
#
# _framework density 16.439907000000002
#
# number of rings (size 3 to 8) (size 9 to 14) (size 15 to 20)
#    0.000    1.231    0.769    8.769    2.154    2.462 
#    0.000    0.000    0.000    0.000    0.000    0.000 
#    0.000    0.000    0.000    0.000    0.000   53.846 
#
# Total GULP energy -145141.236537 kJ/mol
# GULP energy per Si atom -5582.355251 kJ/mol
# Density = 1.640249 g / cm^3
# Si number density = 16.439907 Si / 1000 Ang^3
#
#
#
# Elastic Constant Matrix: (Units=GPa)
#
#
# Indices 1 2 3 4 5 6 
#
# 1 52.8257 17.4648 31.1470 0.0000 -2.7305 0.0000
# 2 17.4648 53.2647 26.5778 0.0000 0.1041 0.0000
# 3 31.1470 26.5778 171.8353 0.0000 -8.6824 0.0000
# 4 0.0000 0.0000 0.0000 16.8334 0.0000 0.7335
# 5 -2.7305 0.1041 -8.6824 0.0000 26.5323 0.0000
# 6 0.0000 0.0000 0.0000 0.7335 0.0000 24.2700
#
#
#
# Elastic Compliance Matrix: (Units=1/GPa)
#
#
# Indices 1 2 3 4 5 6 
#
# 1 0.022812 -0.005909 -0.003153 0.000000 0.001339 0.000000
# 2 -0.005909 0.021908 -0.002392 0.000000 -0.001477 0.000000
# 3 -0.003153 -0.002392 0.006859 0.000000 0.001929 0.000000
# 4 0.000000 0.000000 0.000000 0.059484 0.000000 -0.001798
# 5 0.001339 -0.001477 0.001929 0.000000 0.038465 0.000000
# 6 0.000000 0.000000 0.000000 -0.001798 0.000000 0.041257
#
#
# Mechanical properties :
#
#
# Convention : Reuss Voigt Hill
#
# Bulk Modulus (GPa) = 34.87962 47.58942 41.23452
# Shear Modulus (GPa) = 22.39632 27.04288 24.71960
#
# Velocity S-wave (km/s) = 3.69496 4.06020 3.88188
# Velocity P-wave (km/s) = 6.28221 7.14078 6.72521
#
# Compressibility (1/GPa) = 0.02867004
#
# Stress axis : x y z
#
# Youngs Moduli (GPa) = 43.83606 45.64517 145.80299
#
# Poissons Ratio (x) = 0.26972 0.45977
# Poissons Ratio (y) = 0.25903 0.34877
# Poissons Ratio (z) = 0.13823 0.10919
#
# Static dielectric constant tensor:
#      x y z
#    x 1.551230 0.000000 -0.006300 
#    y 0.000000 1.534530 0.000000 
#    z -0.006300 0.000000 1.614630 
# 
# From -- ./inp_files/11861.got.cif
#   From: 2010.05.17/outbox.cif.g08.bks.cpg/sg15_6_cif.got.tgz:11861.got - 2010.06.03 18:47:42.
