data_PCOD9258027
_publ_section_title
;
Structure prediction by ZEFSAII (Michael W. Deem and Ramdas Pophale) SiO2 
 PCOD9258027
Probable space group: C 2/C
;
_chemical_formula_sum "Si O2"
_cell_formula_units_Z 52
_cell_length_a 21.631508
_cell_length_b 7.646134
_cell_length_c 14.094312
_cell_angle_alpha 90.000000
_cell_angle_beta 91.295300
_cell_angle_gamma 90.000000
_cell_volume 2330.566995
_symmetry_space_group_name_H-M "C 2/C"
_symmetry_group_IT_number 15
_symmetry_cell_setting 'monoclinic'
loop_
_space_group_symop_operation_xyz
x,y,z
-x,y,1/2-z
-x,-y,-z
x,-y,1/2+z
1/2+x,1/2+y,z
1/2-x,1/2+y,1/2-z
1/2-x,1/2-y,-z
1/2+x,1/2-y,1/2+z
loop_
_atom_site_type_symbol
_atom_site_label
_atom_site_fract_x
_atom_site_fract_y
_atom_site_fract_z
Si Si1 0.500000 0.543133 0.750000
Si Si2 0.431088 0.007200 0.106732
Si Si3 0.934468 0.398385 0.395748
Si Si4 0.600035 0.397058 0.906637
Si Si5 0.162264 0.525236 0.236693
Si Si6 0.301513 0.380172 0.736979
Si Si7 0.599106 0.497030 0.624236
O O1 0.546380 0.456920 0.831204
O O2 0.551985 0.620456 0.680756
O O3 0.501735 0.977632 0.139836
O O4 0.407257 0.811546 0.084294
O O5 0.384074 0.084546 0.181570
O O6 0.434890 0.111196 0.009103
O O7 0.877509 0.516759 0.360338
O O8 0.926419 0.200844 0.358760
O O9 0.664590 0.444619 0.857502
O O10 0.597019 0.469735 0.012727
O O11 0.228041 0.615419 0.234405
O O12 0.178841 0.321504 0.254228
O O13 0.333497 0.488015 0.824507
#
# Coordination Sequence:
#
# PCOD9258027 Si02
#       7
#     4   8   8   8   8   8   8
#     4  10  18  32  58  82 110 148 178 222 284 326
#     4  10  21  36  59  86 112 149 188 227 290 333
#     4  10  21  36  59  86 112 149 188 227 290 333
#     4  10  20  36  60  85 115 145 188 234 277 336
#     4  10  21  40  59  79 116 152 189 237 269 340
#     4   9  22  37  58  83 110 158 191 223 286 329
#     4  10  20  36  60  85 115 145 188 234 277 336
#
# _framework density 22.312168
#
# number of rings (size 3 to 8) (size 9 to 14) (size 15 to 20)
#    0.000    2.154    1.538    1.846    0.000    3.692 
#    0.000    7.692    0.000    0.000    0.000    0.000 
#    0.000    0.000    0.000    0.000    0.000    0.000 
#
# Total GULP energy -145101.301930 kJ/mol
# GULP energy per Si atom -5580.819305 kJ/mol
# Density = 2.226138 g / cm^3
# Si number density = 22.312168 Si / 1000 Ang^3
#
#
#
# Elastic Constant Matrix: (Units=GPa)
#
#
# Indices 1 2 3 4 5 6 
#
# 1 167.3268 26.0343 58.6347 0.0000 -5.9549 0.0000
# 2 26.0343 40.5887 20.3476 0.0000 1.3703 0.0000
# 3 58.6347 20.3476 142.3205 0.0000 -3.9001 0.0000
# 4 0.0000 0.0000 0.0000 22.3212 0.0000 8.1677
# 5 -5.9549 1.3703 -3.9001 0.0000 21.3536 0.0000
# 6 0.0000 0.0000 0.0000 8.1677 0.0000 23.4327
#
#
#
# Elastic Compliance Matrix: (Units=1/GPa)
#
#
# Indices 1 2 3 4 5 6 
#
# 1 0.007485 -0.003602 -0.002518 0.000000 0.001859 0.000000
# 2 -0.003602 0.028396 -0.002667 0.000000 -0.003314 0.000000
# 3 -0.002518 -0.002667 0.008473 0.000000 0.001016 0.000000
# 4 0.000000 0.000000 0.000000 0.051350 0.000000 -0.017898
# 5 0.001859 -0.003314 0.001016 0.000000 0.047747 0.000000
# 6 0.000000 0.000000 0.000000 -0.017898 0.000000 0.048914
#
#
# Mechanical properties :
#
#
# Convention : Reuss Voigt Hill
#
# Bulk Modulus (GPa) = 37.33900 62.25215 49.79558
# Shear Modulus (GPa) = 22.84510 29.76946 26.30728
#
# Velocity S-wave (km/s) = 3.20329 3.65667 3.43746
# Velocity P-wave (km/s) = 5.51839 6.76679 6.17422
#
# Compressibility (1/GPa) = 0.02678165
#
# Stress axis : x y z
#
# Youngs Moduli (GPa) = 133.59706 35.21581 118.02324
#
# Poissons Ratio (x) = 0.12683 0.29718
# Poissons Ratio (y) = 0.48116 0.31475
# Poissons Ratio (z) = 0.33639 0.09391
#
# Static dielectric constant tensor:
#      x y z
#    x 1.826220 0.000000 -0.007140 
#    y 0.000000 1.872810 0.000000 
#    z -0.007140 0.000000 1.794990 
# 
# From -- ./inp_files/166292.got.cif
#   From: 2010.05.17/outbox.cif.g08.bks.cpg/sg15_84_cif.got.tgz:166292.got - 2010.06.03 18:47:42.
