data_PCOD9258956
_publ_section_title
;
Structure prediction by ZEFSAII (Michael W. Deem and Ramdas Pophale) SiO2 
 PCOD9258956
Probable space group: C 2/C
;
_chemical_formula_sum "Si O2"
_cell_formula_units_Z 56
_cell_length_a 21.209560
_cell_length_b 8.023487
_cell_length_c 18.178069
_cell_angle_alpha 90.000000
_cell_angle_beta 126.395702
_cell_angle_gamma 90.000000
_cell_volume 2490.033313
_symmetry_space_group_name_H-M "C 2/C"
_symmetry_group_IT_number 15
_symmetry_cell_setting 'monoclinic'
loop_
_space_group_symop_operation_xyz
x,y,z
-x,y,1/2-z
-x,-y,-z
x,-y,1/2+z
1/2+x,1/2+y,z
1/2-x,1/2+y,1/2-z
1/2-x,1/2-y,-z
1/2+x,1/2-y,1/2+z
loop_
_atom_site_type_symbol
_atom_site_label
_atom_site_fract_x
_atom_site_fract_y
_atom_site_fract_z
Si Si1 0.848989 0.664157 0.725430
Si Si2 0.429870 0.489175 0.260434
Si Si3 0.695010 0.995188 0.502250
Si Si4 0.312639 0.629606 0.971891
Si Si5 0.797672 0.484104 0.820984
Si Si6 0.363807 0.392706 0.356332
Si Si7 0.093620 0.340477 0.818823
O O1 0.763075 0.679271 0.630261
O O2 0.844023 0.624971 0.808061
O O3 0.881595 0.496205 0.712950
O O4 0.895002 0.827804 0.737247
O O5 0.500000 0.497740 0.250000
O O6 0.435161 0.434475 0.350337
O O7 0.378503 0.335458 0.193907
O O8 0.661489 0.803838 0.473770
O O9 0.774046 0.987539 0.507058
O O10 0.705178 0.024236 0.595151
O O11 0.633429 0.121073 0.424068
O O12 0.371325 0.568492 0.948992
O O13 0.709962 0.499895 0.726708
O O14 0.839058 0.304400 0.835347
O O15 0.000000 0.337657 0.750000
#
# Coordination Sequence:
#
# PCOD9258956 Si02
#       7
#     8   8   8   8   8   8   8
#     4  10  19  38  61  87 118 160 202 247 312 361
#     4  11  22  36  61  85 115 163 214 247 286 364
#     4   9  17  34  57  93 125 151 201 246 309 362
#     4   8  17  32  61  89 123 154 190 255 315 362
#     4  10  19  34  64  91 123 157 197 250 315 366
#     4  10  18  34  57  91 121 157 199 244 305 369
#     4  10  21  38  61  84 116 161 209 247 295 359
#
# _framework density 22.489657999999999
#
# number of rings (size 3 to 8) (size 9 to 14) (size 15 to 20)
#    0.000    2.286    1.429    3.000    0.000    0.000 
#    0.000    3.571   22.000    3.429    0.000    0.000 
#    0.000    0.000    0.000    0.000    0.000    0.000 
#
# Total GULP energy -156136.531430 kJ/mol
# GULP energy per Si atom -5576.304694 kJ/mol
# Density = 2.243847 g / cm^3
# Si number density = 22.489658 Si / 1000 Ang^3
#
#
#
# Elastic Constant Matrix: (Units=GPa)
#
#
# Indices 1 2 3 4 5 6 
#
# 1 120.4334 55.5615 39.6695 0.0000 -45.8788 0.0000
# 2 55.5615 133.5428 40.1552 0.0002 -10.5007 -0.0002
# 3 39.6695 40.1552 83.2418 0.0000 -45.4173 0.0000
# 4 0.0000 0.0002 0.0000 -824.2929 0.0000 813.3504
# 5 -45.8788 -10.5007 -45.4173 0.0000 40.9645 0.0000
# 6 0.0000 -0.0002 0.0000 813.3504 0.0000 -754.4482
#
#
#
# Elastic Compliance Matrix: (Units=1/GPa)
#
#
# Indices 1 2 3 4 5 6 
#
# 1 0.026136 -0.013177 0.020322 0.000000 0.048424 0.000000
# 2 -0.013177 0.016066 -0.018415 0.000000 -0.031056 0.000000
# 3 0.020322 -0.018415 0.053290 0.000000 0.077122 0.000000
# 4 0.000000 0.000000 0.000000 0.019026 0.000000 0.020512
# 5 0.048424 -0.031056 0.077122 0.000000 0.156188 0.000000
# 6 0.000000 0.000000 0.000000 0.020512 0.000000 0.020788
#
#
# Mechanical properties :
#
#
# Convention : Reuss Voigt Hill
#
# Bulk Modulus (GPa) = 13.70770 67.55449 40.63109
# Shear Modulus (GPa) = 14.77756 -294.09988 -139.66116
#
# Velocity S-wave (km/s) = 2.56614 -11.44793 -7.88892
# Velocity P-wave (km/s) = 3.85856 12.02651 8.05445
#
# Compressibility (1/GPa) = 0.07295172
#
# Stress axis : x y z
#
# Youngs Moduli (GPa) = 38.26196 62.24431 18.76527
#
# Poissons Ratio (x) = 0.82018 -0.38134
# Poissons Ratio (y) = 0.50417 0.34556
# Poissons Ratio (z) = -0.77755 1.14621
#
# Static dielectric constant tensor:
#      x y z
#    x 1.987080 0.000000 -0.033330 
#    y 0.000000 1.885900 0.000000 
#    z -0.033330 0.000000 1.875290 
# 
# From -- ./inp_files/218316.got.cif
#   From: 2010.05.17/outbox.cif.g08.bks.cpg/sg15_110_cif.got.tgz:218316.got - 2010.06.03 18:47:42.
