data_PCOD9258703
_publ_section_title
;
Structure prediction by ZEFSAII (Michael W. Deem and Ramdas Pophale) SiO2 
 PCOD9258703
Probable space group: C 2/C
;
_chemical_formula_sum "Si O2"
_cell_formula_units_Z 64
_cell_length_a 20.028783
_cell_length_b 11.082492
_cell_length_c 22.737276
_cell_angle_alpha 90.000000
_cell_angle_beta 46.196668
_cell_angle_gamma 90.000000
_cell_volume 3642.496534
_symmetry_space_group_name_H-M "C 2/C"
_symmetry_group_IT_number 15
_symmetry_cell_setting 'monoclinic'
loop_
_space_group_symop_operation_xyz
x,y,z
-x,y,1/2-z
-x,-y,-z
x,-y,1/2+z
1/2+x,1/2+y,z
1/2-x,1/2+y,1/2-z
1/2-x,1/2-y,-z
1/2+x,1/2-y,1/2+z
loop_
_atom_site_type_symbol
_atom_site_label
_atom_site_fract_x
_atom_site_fract_y
_atom_site_fract_z
Si Si1 0.340464 0.284636 0.134685
Si Si2 0.150377 0.173210 0.201409
Si Si3 0.473141 0.175509 0.636619
Si Si4 0.716253 0.484703 0.241752
Si Si5 0.348893 0.687808 0.436103
Si Si6 0.572375 0.035017 0.404633
Si Si7 0.106181 0.129941 0.394113
Si Si8 0.411625 0.525163 0.494247
O O1 0.251318 0.226518 0.156732
O O2 0.309253 0.359479 0.211341
O O3 0.381292 0.377880 0.062479
O O4 0.412302 0.178688 0.105708
O O5 0.080507 0.264393 0.276315
O O6 0.131398 0.167934 0.144357
O O7 0.151513 0.040456 0.230286
O O8 0.577148 0.221309 0.579762
O O9 0.463580 0.033963 0.631714
O O10 0.425423 0.240253 0.609100
O O11 0.821296 0.487662 0.155181
O O12 0.698156 0.583872 0.305114
O O13 0.250000 0.750000 0.500000
O O14 0.360016 0.565169 0.466904
O O15 0.500000 0.000000 0.500000
O O16 0.021492 0.045871 0.420886
O O17 0.109283 0.101504 0.461286
#
# Coordination Sequence:
#
# PCOD9258703 Si02
#       8
#     8   8   8   8   8   8   8   8
#     4  10  18  34  52  80 113 143 183 227 279 333
#     4  10  19  33  50  78 111 143 183 221 277 332
#     4  10  20  34  49  77 111 142 183 224 277 323
#     4   9  19  33  53  74 111 142 182 227 270 332
#     4  11  20  30  50  78 115 146 173 223 274 334
#     4  11  21  31  52  82 113 142 176 230 284 324
#     4   8  16  30  51  74 105 135 178 225 266 321
#     4   9  16  30  51  79 110 136 176 226 276 321
#
# _framework density 17.570367000000001
#
# number of rings (size 3 to 8) (size 9 to 14) (size 15 to 20)
#    0.000    2.250    2.500    1.875    1.750    0.000 
#    0.000    0.000    0.000    0.000    0.000   29.750 
#    0.000    1.125    0.000    0.000    0.000    0.000 
#
# Total GULP energy -178164.293861 kJ/mol
# GULP energy per Si atom -5567.634183 kJ/mol
# Density = 1.753038 g / cm^3
# Si number density = 17.570367 Si / 1000 Ang^3
#
#
#
# Elastic Constant Matrix: (Units=GPa)
#
#
# Indices 1 2 3 4 5 6 
#
# 1 69.8913 32.2366 31.2153 0.0000 7.2176 0.0000
# 2 32.2366 68.7936 28.5680 0.0000 9.2827 0.0000
# 3 31.2153 28.5680 105.6904 0.0000 -0.4561 0.0000
# 4 0.0000 0.0000 0.0000 26.5882 0.0000 -1.9808
# 5 7.2176 9.2827 -0.4561 0.0000 35.6481 0.0000
# 6 0.0000 0.0000 0.0000 -1.9808 0.0000 22.0615
#
#
#
# Elastic Compliance Matrix: (Units=1/GPa)
#
#
# Indices 1 2 3 4 5 6 
#
# 1 0.019608 -0.007315 -0.003823 0.000000 -0.002114 0.000000
# 2 -0.007315 0.019797 -0.003207 0.000000 -0.003715 0.000000
# 3 -0.003823 -0.003207 0.011465 0.000000 0.001756 0.000000
# 4 0.000000 0.000000 0.000000 0.037864 0.000000 0.003400
# 5 -0.002114 -0.003715 0.001756 0.000000 0.029470 0.000000
# 6 0.000000 0.000000 0.000000 0.003400 0.000000 0.045633
#
#
# Mechanical properties :
#
#
# Convention : Reuss Voigt Hill
#
# Bulk Modulus (GPa) = 45.08536 47.60169 46.34352
# Shear Modulus (GPa) = 25.01002 27.01658 26.01330
#
# Velocity S-wave (km/s) = 3.77692 3.92551 3.85193
# Velocity P-wave (km/s) = 6.68848 6.90630 6.79826
#
# Compressibility (1/GPa) = 0.02218015
#
# Stress axis : x y z
#
# Youngs Moduli (GPa) = 51.00021 50.51239 87.22202
#
# Poissons Ratio (x) = 0.36952 0.33344
# Poissons Ratio (y) = 0.37309 0.27969
# Poissons Ratio (z) = 0.19497 0.16197
#
# Static dielectric constant tensor:
#      x y z
#    x 1.595130 0.000000 -0.014090 
#    y 0.000000 1.663810 0.000000 
#    z -0.014090 0.000000 1.681990 
# 
# From -- ./inp_files/248595.got.cif
#   From: 2010.05.17/outbox.cif.g08.bks.cpg/sg15_125_cif.got.tgz:248595.got - 2010.06.03 18:47:42.
