data_PCOD9258187
_publ_section_title
;
Structure prediction by ZEFSAII (Michael W. Deem and Ramdas Pophale) SiO2 
 PCOD9258187
Probable space group: C 2/C
;
_chemical_formula_sum "Si O2"
_cell_formula_units_Z 64
_cell_length_a 27.060999
_cell_length_b 11.388250
_cell_length_c 21.369827
_cell_angle_alpha 90.000000
_cell_angle_beta 27.524420
_cell_angle_gamma 90.000000
_cell_volume 3043.426469
_symmetry_space_group_name_H-M "C 2/C"
_symmetry_group_IT_number 15
_symmetry_cell_setting 'monoclinic'
loop_
_space_group_symop_operation_xyz
x,y,z
-x,y,1/2-z
-x,-y,-z
x,-y,1/2+z
1/2+x,1/2+y,z
1/2-x,1/2+y,1/2-z
1/2-x,1/2-y,-z
1/2+x,1/2-y,1/2+z
loop_
_atom_site_type_symbol
_atom_site_label
_atom_site_fract_x
_atom_site_fract_y
_atom_site_fract_z
Si Si1 0.633719 0.197615 0.902487
Si Si2 0.144484 0.134574 0.269613
Si Si3 0.912924 0.277084 0.280483
Si Si4 0.413433 0.155190 0.100553
Si Si5 0.812748 0.116386 0.497488
Si Si6 0.185847 0.084258 0.413642
Si Si7 0.358445 0.421568 0.152223
Si Si8 0.873509 0.336827 0.501327
O O1 0.661177 0.280281 0.811009
O O2 0.628561 0.290710 0.965406
O O3 0.733675 0.113216 0.801064
O O4 0.526729 0.127547 0.004954
O O5 0.076745 0.204409 0.295722
O O6 0.099954 0.012471 0.343069
O O7 0.261023 0.104933 0.109505
O O8 0.885646 0.176624 0.362066
O O9 0.808312 0.357430 0.389065
O O10 0.022253 0.351086 0.158598
O O11 0.310970 0.108389 0.254132
O O12 0.415272 0.297773 0.095998
O O13 0.399576 0.127735 0.042774
O O14 0.838608 0.201390 0.527572
O O15 0.825034 0.984164 0.508402
O O16 0.140960 0.994707 0.412173
#
# Coordination Sequence:
#
# PCOD9258187 Si02
#       8
#     8   8   8   8   8   8   8   8
#     4  10  20  32  48  78 110 139 177 218 273 333
#     4  10  19  32  52  76 108 137 172 220 276 325
#     4  10  21  34  54  77 103 143 181 220 263 329
#     4  11  20  31  52  78 109 145 179 217 274 330
#     4  10  21  37  52  74 111 144 178 221 271 321
#     4  10  20  34  51  76 110 148 171 226 275 324
#     4  10  18  33  47  75 109 138 170 223 277 318
#     4  11  18  32  51  77 109 137 175 223 266 322
#
# _framework density 21.028928000000001
#
# number of rings (size 3 to 8) (size 9 to 14) (size 15 to 20)
#    0.000    1.750    6.250    1.125    0.000    4.500 
#    0.000    0.000    0.000    3.000    0.000    1.750 
#    0.000    0.000    0.000    0.000    0.000    0.000 
#
# Total GULP energy -178443.324516 kJ/mol
# GULP energy per Si atom -5576.353891 kJ/mol
# Density = 2.098107 g / cm^3
# Si number density = 21.028928 Si / 1000 Ang^3
#
#
#
# Elastic Constant Matrix: (Units=GPa)
#
#
# Indices 1 2 3 4 5 6 
#
# 1 52.0062 12.3292 25.6639 0.0000 -4.9744 0.0000
# 2 12.3292 55.6139 0.4827 -0.0001 13.6039 0.0001
# 3 25.6639 0.4827 92.4824 0.0000 -21.7176 0.0000
# 4 0.0000 -0.0001 0.0000 15.6545 0.0000 4.3804
# 5 -4.9744 13.6039 -21.7176 0.0000 39.6702 0.0000
# 6 0.0000 0.0001 0.0000 4.3804 0.0000 29.4648
#
#
#
# Elastic Compliance Matrix: (Units=1/GPa)
#
#
# Indices 1 2 3 4 5 6 
#
# 1 0.023760 -0.005578 -0.006214 0.000000 0.001490 0.000000
# 2 -0.005578 0.021242 -0.000502 0.000000 -0.008259 0.000000
# 3 -0.006214 -0.000502 0.014226 0.000000 0.007181 0.000000
# 4 0.000000 0.000000 0.000000 0.066652 0.000000 -0.009909
# 5 0.001490 -0.008259 0.007181 0.000000 0.032158 0.000000
# 6 0.000000 0.000000 0.000000 -0.009909 0.000000 0.035412
#
#
# Mechanical properties :
#
#
# Convention : Reuss Voigt Hill
#
# Bulk Modulus (GPa) = 28.86911 30.78381 29.82646
# Shear Modulus (GPa) = 21.77822 27.73302 24.75562
#
# Velocity S-wave (km/s) = 3.22161 3.63547 3.43478
# Velocity P-wave (km/s) = 5.25324 5.68267 5.47217
#
# Compressibility (1/GPa) = 0.03463910
#
# Stress axis : x y z
#
# Youngs Moduli (GPa) = 42.08748 47.07575 70.29200
#
# Poissons Ratio (x) = 0.26259 0.43682
# Poissons Ratio (y) = 0.23476 0.03532
# Poissons Ratio (z) = 0.26155 0.02365
#
# Static dielectric constant tensor:
#      x y z
#    x 1.810170 0.000000 -0.026480 
#    y 0.000000 1.777790 0.000000 
#    z -0.026480 0.000000 1.855120 
# 
# From -- ./inp_files/257497.got.cif
#   From: 2010.05.17/outbox.cif.g08.bks.cpg/sg15_129_cif.got.tgz:257497.got - 2010.06.03 18:47:42.
