data_PCOD9258933
_publ_section_title
;
Structure prediction by ZEFSAII (Michael W. Deem and Ramdas Pophale) SiO2 
 PCOD9258933
Probable space group: C 2/C
;
_chemical_formula_sum "Si O2"
_cell_formula_units_Z 56
_cell_length_a 13.856252
_cell_length_b 7.809136
_cell_length_c 24.922051
_cell_angle_alpha 90.000000
_cell_angle_beta 117.895686
_cell_angle_gamma 90.000000
_cell_volume 2383.345256
_symmetry_space_group_name_H-M "C 2/C"
_symmetry_group_IT_number 15
_symmetry_cell_setting 'monoclinic'
loop_
_space_group_symop_operation_xyz
x,y,z
-x,y,1/2-z
-x,-y,-z
x,-y,1/2+z
1/2+x,1/2+y,z
1/2-x,1/2+y,1/2-z
1/2-x,1/2-y,-z
1/2+x,1/2-y,1/2+z
loop_
_atom_site_type_symbol
_atom_site_label
_atom_site_fract_x
_atom_site_fract_y
_atom_site_fract_z
Si Si1 0.070069 0.918166 0.218574
Si Si2 0.412056 0.964096 0.044445
Si Si3 0.619774 0.023745 0.267411
Si Si4 0.438870 0.708200 0.894698
Si Si5 0.644557 0.847528 0.070897
Si Si6 0.266525 0.514993 0.912410
Si Si7 0.282600 0.012773 0.309267
O O1 0.107141 0.725447 0.247112
O O2 0.024490 0.906725 0.146583
O O3 0.000000 0.979870 0.250000
O O4 0.174041 0.038321 0.247877
O O5 0.468296 0.150469 0.070981
O O6 0.322071 0.921290 0.066350
O O7 0.519746 0.845889 0.062324
O O8 0.355388 0.000778 0.972676
O O9 0.500000 0.964485 0.250000
O O10 0.700727 0.000409 0.338547
O O11 0.644390 0.931736 0.217888
O O12 0.380226 0.614054 0.928839
O O13 0.337475 0.816934 0.845007
O O14 0.689988 0.672135 0.059196
O O15 0.723318 0.895855 0.140356
#
# Coordination Sequence:
#
# PCOD9258933 Si02
#       7
#     8   8   8   8   8   8   8
#     4  10  18  34  57  84 118 159 194 248 309 365
#     4  10  23  45  62  90 125 163 210 257 303 362
#     4  10  19  33  59  85 117 156 200 247 304 365
#     4  10  23  38  60  94 121 155 213 259 298 374
#     4  10  22  41  66  87 123 168 209 247 308 377
#     4  12  21  40  65  92 120 164 205 253 314 357
#     4  10  19  37  57  87 124 158 197 252 308 371
#
# _framework density 23.496385
#
# number of rings (size 3 to 8) (size 9 to 14) (size 15 to 20)
#    0.000    1.714    2.857    3.857    0.000    0.571 
#    2.571    7.143    0.000    0.000    0.000    0.000 
#    0.000    0.000    0.000    0.000    0.000    0.000 
#
# Total GULP energy -156078.879882 kJ/mol
# GULP energy per Si atom -5574.245710 kJ/mol
# Density = 2.344291 g / cm^3
# Si number density = 23.496385 Si / 1000 Ang^3
#
#
#
# Elastic Constant Matrix: (Units=GPa)
#
#
# Indices 1 2 3 4 5 6 
#
# 1 72.3293 3.5778 0.0524 0.0000 -30.0397 0.0000
# 2 3.5778 23.9867 -2.8106 0.0000 -0.3021 0.0000
# 3 0.0524 -2.8106 71.8914 0.0000 -11.8338 0.0000
# 4 0.0000 0.0000 0.0000 28.4202 0.0000 8.7722
# 5 -30.0397 -0.3021 -11.8338 0.0000 34.3923 0.0000
# 6 0.0000 0.0000 0.0000 8.7722 0.0000 28.2679
#
#
#
# Elastic Compliance Matrix: (Units=1/GPa)
#
#
# Indices 1 2 3 4 5 6 
#
# 1 0.022631 -0.002724 0.003315 0.000000 0.020884 0.000000
# 2 -0.002724 0.042241 0.001402 0.000000 -0.001526 0.000000
# 3 0.003315 0.001402 0.015308 0.000000 0.008175 0.000000
# 4 0.000000 0.000000 0.000000 0.038914 0.000000 -0.012076
# 5 0.020884 -0.001526 0.008175 0.000000 0.050116 0.000000
# 6 0.000000 0.000000 0.000000 -0.012076 0.000000 0.039123
#
#
# Mechanical properties :
#
#
# Convention : Reuss Voigt Hill
#
# Bulk Modulus (GPa) = 11.88134 18.87184 15.37659
# Shear Modulus (GPa) = 21.51431 29.37528 25.44479
#
# Velocity S-wave (km/s) = 3.02924 3.53966 3.29435
# Velocity P-wave (km/s) = 4.15965 4.97542 4.58571
#
# Compressibility (1/GPa) = 0.08416561
#
# Stress axis : x y z
#
# Youngs Moduli (GPa) = 44.18637 23.67360 65.32589
#
# Poissons Ratio (x) = 0.06449 -0.21653
# Poissons Ratio (y) = 0.12037 -0.09160
# Poissons Ratio (z) = -0.14646 -0.03320
#
# Static dielectric constant tensor:
#      x y z
#    x 1.677040 0.000000 0.085980 
#    y 0.000000 1.948870 0.000000 
#    z 0.085980 0.000000 1.887740 
# 
# From -- ./inp_files/291608.got.cif
#   From: 2010.05.17/outbox.cif.g08.bks.cpg/sg15_146_cif.got.tgz:291608.got - 2010.06.03 18:47:42.
