data_PCOD9258302
_publ_section_title
;
Structure prediction by ZEFSAII (Michael W. Deem and Ramdas Pophale) SiO2 
 PCOD9258302
Probable space group: C 2/C
;
_chemical_formula_sum "Si O2"
_cell_formula_units_Z 56
_cell_length_a 31.909503
_cell_length_b 13.210928
_cell_length_c 28.366169
_cell_angle_alpha 90.000000
_cell_angle_beta 162.519125
_cell_angle_gamma 90.000000
_cell_volume 3591.995780
_symmetry_space_group_name_H-M "C 2/C"
_symmetry_group_IT_number 15
_symmetry_cell_setting 'monoclinic'
loop_
_space_group_symop_operation_xyz
x,y,z
-x,y,1/2-z
-x,-y,-z
x,-y,1/2+z
1/2+x,1/2+y,z
1/2-x,1/2+y,1/2-z
1/2-x,1/2-y,-z
1/2+x,1/2-y,1/2+z
loop_
_atom_site_type_symbol
_atom_site_label
_atom_site_fract_x
_atom_site_fract_y
_atom_site_fract_z
Si Si1 0.089343 0.893421 0.710596
Si Si2 0.392154 0.709862 0.175132
Si Si3 0.688846 0.046575 0.120121
Si Si4 0.213768 0.345566 0.742519
Si Si5 0.270058 0.452784 0.353086
Si Si6 0.069772 0.667776 0.696141
Si Si7 0.384852 0.148740 0.903453
O O1 0.121631 0.880054 0.800993
O O2 0.194676 0.962728 0.794793
O O3 0.105171 0.776306 0.710305
O O4 0.931640 0.925552 0.531342
O O5 0.500000 0.684490 0.250000
O O6 0.447400 0.801038 0.267898
O O7 0.250000 0.750000 0.000000
O O8 0.750646 0.098685 0.233012
O O9 0.620877 0.943104 0.065335
O O10 0.570743 0.120900 0.974065
O O11 0.249582 0.428442 0.820846
O O12 0.301574 0.243092 0.835634
O O13 0.046306 0.328347 0.564575
O O14 0.191889 0.410166 0.315240
O O15 0.194558 0.393696 0.228443
#
# Coordination Sequence:
#
# PCOD9258302 Si02
#       7
#     8   8   8   8   8   8   8
#     4  10  22  29  56  77 102 145 170 210 252 339
#     4  10  20  34  50  80 112 136 166 217 271 322
#     4  11  20  36  49  76 103 142 190 207 261 308
#     4  11  23  35  52  71 108 140 181 234 250 294
#     4  11  20  36  49  76 103 142 190 208 264 304
#     4  10  18  33  54  71 104 145 168 207 256 332
#     4  11  23  35  52  71 108 140 181 233 250 297
#
# _framework density 15.590218999999999
#
# number of rings (size 3 to 8) (size 9 to 14) (size 15 to 20)
#    0.857    0.571    2.857    5.143    4.000    1.143 
#    0.000    0.000    0.000    0.000    0.000    0.000 
#    0.000   22.857    0.000    0.000    0.000    0.000 
#
# Total GULP energy -156005.793150 kJ/mol
# GULP energy per Si atom -5571.635470 kJ/mol
# Density = 1.555473 g / cm^3
# Si number density = 15.590219 Si / 1000 Ang^3
#
#
#
# Elastic Constant Matrix: (Units=GPa)
#
#
# Indices 1 2 3 4 5 6 
#
# 1 78.7994 5.4029 14.6831 -0.0004 9.5641 -0.0002
# 2 5.4029 50.0588 -1.5942 -0.0008 -9.5507 -0.0008
# 3 14.6831 -1.5942 41.6894 -0.0031 5.0093 -0.0019
# 4 -0.0004 -0.0008 -0.0031 19.8105 -0.0019 4.4163
# 5 9.5641 -9.5507 5.0093 -0.0019 22.4360 -0.0009
# 6 -0.0002 -0.0008 -0.0019 4.4163 -0.0009 23.3108
#
#
#
# Elastic Compliance Matrix: (Units=1/GPa)
#
#
# Indices 1 2 3 4 5 6 
#
# 1 0.014502 -0.002935 -0.004446 -0.000001 -0.006439 0.000000
# 2 -0.002935 0.022340 0.000611 0.000002 0.010624 0.000001
# 3 -0.004446 0.000611 0.026015 0.000003 -0.003653 0.000001
# 4 -0.000001 0.000002 0.000003 0.052704 0.000005 -0.009985
# 5 -0.006439 0.010624 -0.003653 0.000005 0.052654 0.000001
# 6 0.000000 0.000001 0.000001 -0.009985 0.000001 0.044790
#
#
# Mechanical properties :
#
#
# Convention : Reuss Voigt Hill
#
# Bulk Modulus (GPa) = 20.27702 23.05901 21.66802
# Shear Modulus (GPa) = 20.57752 23.24853 21.91303
#
# Velocity S-wave (km/s) = 3.63698 3.86583 3.75315
# Velocity P-wave (km/s) = 5.53817 5.89483 5.71928
#
# Compressibility (1/GPa) = 0.04931691
#
# Stress axis : x y z
#
# Youngs Moduli (GPa) = 68.95782 44.76318 38.43920
#
# Poissons Ratio (x) = 0.13139 0.17090
# Poissons Ratio (y) = 0.20240 -0.02350
# Poissons Ratio (z) = 0.30659 -0.02737
#
# Static dielectric constant tensor:
#      x y z
#    x 1.547690 0.000000 0.015350 
#    y 0.000000 1.516570 0.000000 
#    z 0.015350 0.000000 1.560390 
# 
# From -- ./inp_files/304284.got.cif
#   From: 2010.05.17/outbox.cif.g08.bks.cpg/sg15_153_cif.got.tgz:304284.got - 2010.06.03 18:47:42.
