data_PCOD9258672
_publ_section_title
;
Structure prediction by ZEFSAII (Michael W. Deem and Ramdas Pophale) SiO2 
 PCOD9258672
Probable space group: C 2/C
;
_chemical_formula_sum "Si O2"
_cell_formula_units_Z 40
_cell_length_a 17.550793
_cell_length_b 19.058700
_cell_length_c 5.138699
_cell_angle_alpha 90.000000
_cell_angle_beta 65.876989
_cell_angle_gamma 90.000000
_cell_volume 1568.761872
_symmetry_space_group_name_H-M "C 2/C"
_symmetry_group_IT_number 15
_symmetry_cell_setting 'monoclinic'
loop_
_space_group_symop_operation_xyz
x,y,z
-x,y,1/2-z
-x,-y,-z
x,-y,1/2+z
1/2+x,1/2+y,z
1/2-x,1/2+y,1/2-z
1/2-x,1/2-y,-z
1/2+x,1/2-y,1/2+z
loop_
_atom_site_type_symbol
_atom_site_label
_atom_site_fract_x
_atom_site_fract_y
_atom_site_fract_z
Si Si1 0.720329 0.098039 0.302608
Si Si2 0.538015 0.922638 0.946746
Si Si3 0.166770 0.251664 0.787459
Si Si4 0.500000 0.392016 0.750000
Si Si5 0.175545 0.904841 0.366768
Si Si6 0.500000 0.292713 0.250000
O O1 0.635931 0.065058 0.312510
O O2 0.682117 0.176051 0.416445
O O3 0.759311 0.067705 0.511178
O O4 0.788872 0.094887 0.975912
O O5 0.500000 0.886469 0.750000
O O6 0.500000 0.884997 0.250000
O O7 0.500000 0.000000 0.000000
O O8 0.250000 0.250000 0.500000
O O9 0.165637 0.178761 0.943138
O O10 0.083084 0.248658 0.728138
O O11 0.583255 0.433989 0.549606
O O12 0.481028 0.343230 0.523805
#
# Coordination Sequence:
#
# PCOD9258672 Si02
#       6
#     8   8   8   4   8   4
#     4  11  21  34  55  78 109 145 194 232 290 343
#     4  10  22  41  60  81 113 144 185 246 298 343
#     4   9  19  33  48  71 112 147 193 239 274 325
#     4  10  18  34  50  70 110 149 189 228 270 320
#     4  10  20  34  51  78 110 152 187 233 278 334
#     4  10  20  30  46  70  98 155 199 224 284 318
#
# _framework density 25.497817000000001
#
# number of rings (size 3 to 8) (size 9 to 14) (size 15 to 20)
#    0.000    2.000    0.000    5.400    1.400    4.800 
#    7.200    0.000    0.000    0.000    0.000    0.000 
#    0.000   64.000    0.000    0.000    0.000    0.000 
#
# Total GULP energy -111731.111876 kJ/mol
# GULP energy per Si atom -5586.555594 kJ/mol
# Density = 2.543978 g / cm^3
# Si number density = 25.497817 Si / 1000 Ang^3
#
#
#
# Elastic Constant Matrix: (Units=GPa)
#
#
# Indices 1 2 3 4 5 6 
#
# 1 185.6552 0.0695 36.2799 0.0000 -9.6410 0.0000
# 2 0.0695 56.1996 -19.1531 0.0000 -3.1163 0.0000
# 3 36.2799 -19.1531 145.6374 0.0000 5.8982 0.0000
# 4 0.0000 0.0000 0.0000 -8.8163 0.0000 -10.6707
# 5 -9.6410 -3.1163 5.8982 0.0000 61.3948 0.0000
# 6 0.0000 0.0000 0.0000 -10.6707 0.0000 25.3816
#
#
#
# Elastic Compliance Matrix: (Units=1/GPa)
#
#
# Indices 1 2 3 4 5 6 
#
# 1 0.005739 -0.000473 -0.001533 0.000000 0.001025 0.000000
# 2 -0.000473 0.018699 0.002551 0.000000 0.000630 0.000000
# 3 -0.001533 0.002551 0.007618 0.000000 -0.000843 0.000000
# 4 0.000000 0.000000 0.000000 -0.075174 0.000000 -0.031604
# 5 0.001025 0.000630 -0.000843 0.000000 0.016562 0.000000
# 6 0.000000 0.000000 0.000000 -0.031604 0.000000 0.026112
#
#
# Mechanical properties :
#
#
# Convention : Reuss Voigt Hill
#
# Bulk Modulus (GPa) = 30.16920 46.87609 38.52265
# Shear Modulus (GPa) = 525.52627 40.27839 282.90233
#
# Velocity S-wave (km/s) = 14.37198 3.97883 10.54478
# Velocity P-wave (km/s) = 16.94883 6.28748 12.78271
#
# Compressibility (1/GPa) = 0.03314639
#
# Stress axis : x y z
#
# Youngs Moduli (GPa) = 174.23527 53.47947 131.26723
#
# Poissons Ratio (x) = 0.02529 0.20129
# Poissons Ratio (y) = 0.08239 -0.33492
# Poissons Ratio (z) = 0.26718 -0.13645
#
# Static dielectric constant tensor:
#      x y z
#    x 2.136930 0.000000 0.001590 
#    y 0.000000 2.050900 0.000000 
#    z 0.001590 0.000000 1.981930 
# 
# From -- ./inp_files/7528.got.cif
#   From: 2010.05.17/outbox.cif.g08.bks.cpg/sg15_4_cif.got.tgz:7528.got - 2010.06.03 18:47:42.
