data_PCOD9258002
_publ_section_title
;
Structure prediction by ZEFSAII (Michael W. Deem and Ramdas Pophale) SiO2 
 PCOD9258002
Probable space group: C 2/C
;
_chemical_formula_sum "Si O2"
_cell_formula_units_Z 48
_cell_length_a 9.021486
_cell_length_b 23.692245
_cell_length_c 11.815406
_cell_angle_alpha 90.000000
_cell_angle_beta 85.459185
_cell_angle_gamma 90.000000
_cell_volume 2517.489293
_symmetry_space_group_name_H-M "C 2/C"
_symmetry_group_IT_number 15
_symmetry_cell_setting 'monoclinic'
loop_
_space_group_symop_operation_xyz
x,y,z
-x,y,1/2-z
-x,-y,-z
x,-y,1/2+z
1/2+x,1/2+y,z
1/2-x,1/2+y,1/2-z
1/2-x,1/2-y,-z
1/2+x,1/2-y,1/2+z
loop_
_atom_site_type_symbol
_atom_site_label
_atom_site_fract_x
_atom_site_fract_y
_atom_site_fract_z
Si Si1 0.500000 0.985942 0.750000
Si Si2 0.986968 0.121377 0.874070
Si Si3 0.000000 0.157727 0.250000
Si Si4 0.761784 0.532802 0.625684
Si Si5 0.043444 0.394582 0.555031
Si Si6 0.294613 0.693189 0.062445
Si Si7 0.790358 0.095015 0.448237
O O1 0.533509 0.944653 0.645507
O O2 0.351316 0.020476 0.734656
O O3 0.892638 0.064789 0.857125
O O4 0.000000 0.149109 0.750000
O O5 0.892609 0.159109 0.965603
O O6 0.133461 0.106924 0.936065
O O7 0.892922 0.193542 0.171872
O O8 0.895049 0.119618 0.340012
O O9 0.873650 0.574677 0.553260
O O10 0.733508 0.472082 0.569334
O O11 0.146627 0.343988 0.591782
O O12 0.873482 0.377553 0.543552
O O13 0.250000 0.750000 0.000000
#
# Coordination Sequence:
#
# PCOD9258002 Si02
#       7
#     4   8   4   8   8   8   8
#     4  10  18  32  57  86 115 154 194 224 288 352
#     4  10  23  37  55  88 122 154 194 244 295 352
#     4  10  22  40  65  90 115 156 194 244 298 354
#     4  10  21  32  56  84 122 159 188 236 282 356
#     4  10  21  37  58  88 115 153 201 241 279 351
#     4  10  22  46  62  85 117 150 205 252 296 346
#     4  10  20  38  59  88 121 157 196 232 294 360
#
# _framework density 19.066616
#
# number of rings (size 3 to 8) (size 9 to 14) (size 15 to 20)
#    0.000    2.000    0.000    4.500    5.833    0.000 
#    7.500    1.667    0.000    0.000    0.000    0.000 
#    0.000    0.000    0.000    0.000    0.000    0.000 
#
# Total GULP energy -133776.434977 kJ/mol
# GULP energy per Si atom -5574.018124 kJ/mol
# Density = 1.902322 g / cm^3
# Si number density = 19.066616 Si / 1000 Ang^3
#
#
#
# Elastic Constant Matrix: (Units=GPa)
#
#
# Indices 1 2 3 4 5 6 
#
# 1 152.6856 38.3654 64.1307 0.0000 31.8404 0.0000
# 2 38.3654 63.8316 15.0294 0.0000 23.9036 0.0000
# 3 64.1307 15.0294 106.0438 0.0000 27.8033 0.0000
# 4 0.0000 0.0000 0.0000 17.9287 0.0000 7.3757
# 5 31.8404 23.9036 27.8033 0.0000 42.7203 0.0000
# 6 0.0000 0.0000 0.0000 7.3757 0.0000 9.8491
#
#
#
# Elastic Compliance Matrix: (Units=1/GPa)
#
#
# Indices 1 2 3 4 5 6 
#
# 1 0.010106 -0.004168 -0.005013 0.000000 -0.001937 0.000000
# 2 -0.004168 0.021540 0.002187 0.000000 -0.010368 0.000000
# 3 -0.005013 0.002187 0.013858 0.000000 -0.006506 0.000000
# 4 0.000000 0.000000 0.000000 0.080610 0.000000 -0.060366
# 5 -0.001937 -0.010368 -0.006506 0.000000 0.034888 0.000000
# 6 0.000000 0.000000 0.000000 -0.060366 0.000000 0.146738
#
#
# Mechanical properties :
#
#
# Convention : Reuss Voigt Hill
#
# Bulk Modulus (GPa) = 31.73234 61.95687 46.84460
# Shear Modulus (GPa) = 15.04963 27.76866 21.40914
#
# Velocity S-wave (km/s) = 2.81253 3.82042 3.35455
# Velocity P-wave (km/s) = 5.21786 7.21293 6.29494
#
# Compressibility (1/GPa) = 0.03151360
#
# Stress axis : x y z
#
# Youngs Moduli (GPa) = 98.94633 46.42622 72.16211
#
# Poissons Ratio (x) = 0.19353 0.36176
# Poissons Ratio (y) = 0.41246 -0.15779
# Poissons Ratio (z) = 0.49604 -0.10152
#
# Static dielectric constant tensor:
#      x y z
#    x 1.697380 0.000000 0.024670 
#    y 0.000000 1.642950 0.000000 
#    z 0.024670 0.000000 1.635020 
# 
# From -- ./inp_files/79300.got.cif
#   From: 2010.05.17/outbox.cif.g08.bks.cpg/sg15_40_cif.got.tgz:79300.got - 2010.06.03 18:47:42.
