data_PCOD9258797
_publ_section_title
;
Structure prediction by ZEFSAII (Michael W. Deem and Ramdas Pophale) SiO2 
 PCOD9258797
Probable space group: C 2/C
;
_chemical_formula_sum "Si O2"
_cell_formula_units_Z 56
_cell_length_a 15.129792
_cell_length_b 28.038834
_cell_length_c 8.205647
_cell_angle_alpha 90.000000
_cell_angle_beta 53.641637
_cell_angle_gamma 90.000000
_cell_volume 2803.346774
_symmetry_space_group_name_H-M "C 2/C"
_symmetry_group_IT_number 15
_symmetry_cell_setting 'monoclinic'
loop_
_space_group_symop_operation_xyz
x,y,z
-x,y,1/2-z
-x,-y,-z
x,-y,1/2+z
1/2+x,1/2+y,z
1/2-x,1/2+y,1/2-z
1/2-x,1/2-y,-z
1/2+x,1/2-y,1/2+z
loop_
_atom_site_type_symbol
_atom_site_label
_atom_site_fract_x
_atom_site_fract_y
_atom_site_fract_z
Si Si1 0.876826 0.985094 0.897625
Si Si2 0.226410 0.711537 0.290822
Si Si3 0.125026 0.620289 0.561155
Si Si4 0.818705 0.887615 0.115233
Si Si5 0.869589 0.153258 0.908067
Si Si6 0.286867 0.564881 0.182148
Si Si7 0.385636 0.290761 0.925072
O O1 0.850973 0.961585 0.754423
O O2 0.000000 0.004656 0.750000
O O3 0.864150 0.940725 0.037025
O O4 0.791674 0.026848 0.032330
O O5 0.144482 0.669805 0.442137
O O6 0.312170 0.713768 0.345654
O O7 0.165256 0.762069 0.367420
O O8 0.293806 0.696212 0.057985
O O9 0.205996 0.617480 0.631749
O O10 0.171303 0.580687 0.384759
O O11 0.000000 0.614527 0.750000
O O12 0.818032 0.871376 0.303518
O O13 0.894671 0.846252 0.956426
O O14 0.000000 0.163866 0.750000
O O15 0.852428 0.112480 0.063780
O O16 0.500000 0.268783 0.750000
#
# Coordination Sequence:
#
# PCOD9258797 Si02
#       7
#     8   8   8   8   8   8   8
#     4  11  19  33  53  80 110 140 173 219 270 320
#     4   9  20  33  54  80 104 138 182 216 262 322
#     4   9  19  39  58  76 103 140 181 227 263 306
#     4  10  21  33  54  81 108 140 181 215 265 326
#     4  11  20  35  53  80 116 143 168 218 270 317
#     4  10  21  33  53  79 106 139 180 215 265 324
#     4  10  18  34  55  78 105 141 179 220 263 313
#
# _framework density 19.976123999999999
#
# number of rings (size 3 to 8) (size 9 to 14) (size 15 to 20)
#    0.000    2.000    0.000    5.143    0.000    0.571 
#    0.000    5.714    0.000    0.000    0.000    0.000 
#    0.000    0.000    0.000    0.000    0.000    0.000 
#
# Total GULP energy -156130.811367 kJ/mol
# GULP energy per Si atom -5576.100406 kJ/mol
# Density = 1.993066 g / cm^3
# Si number density = 19.976124 Si / 1000 Ang^3
#
#
#
# Elastic Constant Matrix: (Units=GPa)
#
#
# Indices 1 2 3 4 5 6 
#
# 1 33.9652 12.3185 43.8008 0.0000 -1.0421 0.0000
# 2 12.3185 81.3641 40.1277 0.0000 -16.5886 0.0000
# 3 43.8008 40.1277 138.6802 0.0000 -23.4714 0.0000
# 4 0.0000 0.0000 0.0000 72.0263 0.0000 -31.1609
# 5 -1.0421 -16.5886 -23.4714 0.0000 33.1418 0.0000
# 6 0.0000 0.0000 0.0000 -31.1609 0.0000 54.0125
#
#
#
# Elastic Compliance Matrix: (Units=1/GPa)
#
#
# Indices 1 2 3 4 5 6 
#
# 1 0.053500 -0.001436 -0.018541 0.000000 -0.012168 0.000000
# 2 -0.001436 0.015085 -0.003001 0.000000 0.005380 0.000000
# 3 -0.018541 -0.003001 0.015432 0.000000 0.008844 0.000000
# 4 0.000000 0.000000 0.000000 0.018502 0.000000 0.010674
# 5 -0.012168 0.005380 0.008844 0.000000 0.038747 0.000000
# 6 0.000000 0.000000 0.000000 0.010674 0.000000 0.024672
#
#
# Mechanical properties :
#
#
# Convention : Reuss Voigt Hill
#
# Bulk Modulus (GPa) = 26.27410 49.61148 37.94279
# Shear Modulus (GPa) = 22.26370 42.35362 32.30866
#
# Velocity S-wave (km/s) = 3.34206 4.60957 4.02601
# Velocity P-wave (km/s) = 5.29847 7.29522 6.37550
#
# Compressibility (1/GPa) = 0.03806030
#
# Stress axis : x y z
#
# Youngs Moduli (GPa) = 18.69165 66.29255 64.80049
#
# Poissons Ratio (x) = 0.09522 1.20148
# Poissons Ratio (y) = 0.02685 0.19444
# Poissons Ratio (z) = 0.34657 0.19891
#
# Static dielectric constant tensor:
#      x y z
#    x 1.701980 0.000000 0.046080 
#    y 0.000000 1.754550 0.000000 
#    z 0.046080 0.000000 1.755180 
# 
# From -- ./inp_files/35801.got.cif
#   From: 2010.05.17/outbox.cif.g08.bks.cpg/sg15_18_cif.got.tgz:35801.got - 2010.06.03 18:47:42.
