data_PCOD9258920
_publ_section_title
;
Structure prediction by ZEFSAII (Michael W. Deem and Ramdas Pophale) SiO2 
 PCOD9258920
Probable space group: C 2/C
;
_chemical_formula_sum "Si O2"
_cell_formula_units_Z 56
_cell_length_a 17.905688
_cell_length_b 14.487238
_cell_length_c 14.185212
_cell_angle_alpha 90.000000
_cell_angle_beta 119.802977
_cell_angle_gamma 90.000000
_cell_volume 3193.021706
_symmetry_space_group_name_H-M "C 2/C"
_symmetry_group_IT_number 15
_symmetry_cell_setting 'monoclinic'
loop_
_space_group_symop_operation_xyz
x,y,z
-x,y,1/2-z
-x,-y,-z
x,-y,1/2+z
1/2+x,1/2+y,z
1/2-x,1/2+y,1/2-z
1/2-x,1/2-y,-z
1/2+x,1/2-y,1/2+z
loop_
_atom_site_type_symbol
_atom_site_label
_atom_site_fract_x
_atom_site_fract_y
_atom_site_fract_z
Si Si1 0.647890 0.192142 0.253661
Si Si2 0.496214 0.734591 0.544951
Si Si3 0.186650 0.070662 0.180182
Si Si4 0.305917 0.402113 0.177205
Si Si5 0.829152 0.680729 0.023194
Si Si6 0.016270 0.146500 0.153699
Si Si7 0.426112 0.552419 0.578180
O O1 0.564370 0.198337 0.136162
O O2 0.724491 0.125606 0.270090
O O3 0.681256 0.298193 0.277688
O O4 0.627501 0.163428 0.348698
O O5 0.399901 0.772089 0.501806
O O6 0.515113 0.714940 0.447800
O O7 0.493030 0.633969 0.594257
O O8 0.116504 0.128979 0.194958
O O9 0.196583 0.974660 0.240715
O O10 0.144203 0.055889 0.050243
O O11 0.380855 0.425586 0.148929
O O12 0.217815 0.401226 0.060868
O O13 0.750000 0.750000 0.000000
O O14 0.000000 0.176583 0.250000
O O15 0.970822 0.046795 0.110270
#
# Coordination Sequence:
#
# PCOD9258920 Si02
#       7
#     8   8   8   8   8   8   8
#     4  11  21  35  56  87 115 151 189 235 282 340
#     4  11  21  34  56  82 115 147 190 234 284 336
#     4  11  22  36  56  84 120 150 184 232 295 338
#     4  11  19  35  59  84 119 143 185 240 290 332
#     4  10  18  34  57  82 109 141 187 238 277 325
#     4  11  21  33  54  83 117 149 180 230 294 354
#     4  11  19  34  55  89 114 138 182 242 303 337
#
# _framework density 17.538246000000001
#
# number of rings (size 3 to 8) (size 9 to 14) (size 15 to 20)
#    0.000    1.143    5.714    6.429    0.000    0.000 
#    0.000    1.429    3.143    0.000    0.000    0.000 
#    0.000    0.000    0.000    0.000    0.000    0.000 
#
# Total GULP energy -156310.675589 kJ/mol
# GULP energy per Si atom -5582.524128 kJ/mol
# Density = 1.749833 g / cm^3
# Si number density = 17.538246 Si / 1000 Ang^3
#
#
#
# Elastic Constant Matrix: (Units=GPa)
#
#
# Indices 1 2 3 4 5 6 
#
# 1 85.3275 25.0696 39.3880 0.0000 -8.8898 0.0000
# 2 25.0696 33.9424 22.4986 0.0000 -3.7606 0.0000
# 3 39.3880 22.4986 86.7419 0.0000 0.0399 0.0000
# 4 0.0000 0.0000 0.0000 30.9704 0.0000 6.8967
# 5 -8.8898 -3.7606 0.0399 0.0000 29.0229 0.0000
# 6 0.0000 0.0000 0.0000 6.8967 0.0000 28.1367
#
#
#
# Elastic Compliance Matrix: (Units=1/GPa)
#
#
# Indices 1 2 3 4 5 6 
#
# 1 0.017266 -0.008563 -0.005621 0.000000 0.004187 0.000000
# 2 -0.008563 0.040456 -0.006606 0.000000 0.002628 0.000000
# 3 -0.005621 -0.006606 0.015796 0.000000 -0.002600 0.000000
# 4 0.000000 0.000000 0.000000 0.034153 0.000000 -0.008371
# 5 0.004187 0.002628 -0.002600 0.000000 0.036082 0.000000
# 6 0.000000 0.000000 0.000000 -0.008371 0.000000 0.037593
#
#
# Mechanical properties :
#
#
# Convention : Reuss Voigt Hill
#
# Bulk Modulus (GPa) = 31.31120 42.21381 36.76250
# Shear Modulus (GPa) = 21.40657 25.56305 23.48481
#
# Velocity S-wave (km/s) = 3.49745 3.82194 3.66329
# Velocity P-wave (km/s) = 5.84820 6.60289 6.23697
#
# Compressibility (1/GPa) = 0.03193745
#
# Stress axis : x y z
#
# Youngs Moduli (GPa) = 57.91584 24.71804 63.30843
#
# Poissons Ratio (x) = 0.21166 0.35588
# Poissons Ratio (y) = 0.49593 0.41823
# Poissons Ratio (z) = 0.32556 0.16329
#
# Static dielectric constant tensor:
#      x y z
#    x 1.598910 0.000000 0.016680 
#    y 0.000000 1.583410 0.000000 
#    z 0.016680 0.000000 1.673050 
# 
# From -- ./inp_files/162015.got.cif
#   From: 2010.05.17/outbox.cif.g08.bks.cpg/sg15_82_cif.got.tgz:162015.got - 2010.06.03 18:47:42.
