data_PCOD9258127
_publ_section_title
;
Structure prediction by ZEFSAII (Michael W. Deem and Ramdas Pophale) SiO2 
 PCOD9258127
Probable space group: C 2/C
;
_chemical_formula_sum "Si O2"
_cell_formula_units_Z 60
_cell_length_a 19.501940
_cell_length_b 8.063117
_cell_length_c 17.461594
_cell_angle_alpha 90.000000
_cell_angle_beta 123.199226
_cell_angle_gamma 90.000000
_cell_volume 2297.585348
_symmetry_space_group_name_H-M "C 2/C"
_symmetry_group_IT_number 15
_symmetry_cell_setting 'monoclinic'
loop_
_space_group_symop_operation_xyz
x,y,z
-x,y,1/2-z
-x,-y,-z
x,-y,1/2+z
1/2+x,1/2+y,z
1/2-x,1/2+y,1/2-z
1/2-x,1/2-y,-z
1/2+x,1/2-y,1/2+z
loop_
_atom_site_type_symbol
_atom_site_label
_atom_site_fract_x
_atom_site_fract_y
_atom_site_fract_z
Si Si1 0.647940 0.107763 0.449314
Si Si2 0.744712 0.216844 0.769427
Si Si3 0.567057 0.236325 0.947519
Si Si4 0.354740 0.476995 0.240682
Si Si5 0.877261 0.502380 0.226320
Si Si6 0.426414 0.221884 0.385515
Si Si7 0.500000 0.738326 0.250000
Si Si8 0.660046 0.531979 0.944310
O O1 0.629339 0.129539 0.346895
O O2 0.631409 0.295580 0.466557
O O3 0.743104 0.057014 0.509887
O O4 0.599264 0.952513 0.454663
O O5 0.676725 0.356717 0.737551
O O6 0.776304 0.148469 0.706914
O O7 0.830389 0.286400 0.854079
O O8 0.708304 0.060151 0.792704
O O9 0.508443 0.307957 0.844540
O O10 0.639777 0.371840 0.982288
O O11 0.526660 0.235522 0.006918
O O12 0.425045 0.383141 0.331066
O O13 0.374716 0.498386 0.163788
O O14 0.932033 0.570894 0.329358
O O15 0.919542 0.351763 0.209447
#
# Coordination Sequence:
#
# PCOD9258127 Si02
#       8
#     8   8   8   8   8   8   4   8
#     4  10  21  35  62  94 128 162 199 254 327 381
#     4  10  18  32  60  92 129 151 195 263 333 376
#     4  11  23  42  60  90 121 172 216 260 308 368
#     4  10  19  31  55  95 120 163 185 249 334 378
#     4  11  20  42  61  90 128 163 215 255 306 388
#     4  10  20  36  63  92 122 152 203 270 326 363
#     4  10  26  42  66  82 122 186 224 248 302 368
#     4  11  21  36  63  93 135 157 203 258 325 397
#
# _framework density 26.114373000000001
#
# number of rings (size 3 to 8) (size 9 to 14) (size 15 to 20)
#    0.800    0.800    2.667    3.600    0.000    1.600 
#    0.000    2.667    0.000    3.200    0.000    0.000 
#    0.000    0.000    0.000    0.000    0.000    0.000 
#
# Total GULP energy -167318.026574 kJ/mol
# GULP energy per Si atom -5577.267552 kJ/mol
# Density = 2.605494 g / cm^3
# Si number density = 26.114373 Si / 1000 Ang^3
#
#
#
# Elastic Constant Matrix: (Units=GPa)
#
#
# Indices 1 2 3 4 5 6 
#
# 1 45.2833 21.2111 -2.5684 0.0000 -17.9830 0.0000
# 2 21.2111 140.5068 8.8075 0.0000 -18.6878 0.0000
# 3 -2.5684 8.8075 134.0327 0.0000 -23.5532 0.0000
# 4 0.0000 0.0000 0.0000 20.7886 0.0000 -18.7729
# 5 -17.9830 -18.6878 -23.5532 0.0000 29.4087 0.0000
# 6 0.0000 0.0000 0.0000 -18.7729 0.0000 9.3711
#
#
#
# Elastic Compliance Matrix: (Units=1/GPa)
#
#
# Indices 1 2 3 4 5 6 
#
# 1 0.032080 -0.002219 0.004608 0.000000 0.021897 0.000000
# 2 -0.002219 0.007948 0.000098 0.000000 0.003772 0.000000
# 3 0.004608 0.000098 0.009367 0.000000 0.010382 0.000000
# 4 0.000000 0.000000 0.000000 -0.059458 0.000000 -0.119110
# 5 0.021897 0.003772 0.010382 0.000000 0.058105 0.000000
# 6 0.000000 0.000000 0.000000 -0.119110 0.000000 -0.131899
#
#
# Mechanical properties :
#
#
# Convention : Reuss Voigt Hill
#
# Bulk Modulus (GPa) = 18.39286 41.63590 30.01438
# Shear Modulus (GPa) = -70.71292 31.40520 -19.65386
#
# Velocity S-wave (km/s) = -5.20931 3.47162 -2.74634
# Velocity P-wave (km/s) = 5.39668 5.66108 1.20907
#
# Compressibility (1/GPa) = 0.05436892
#
# Stress axis : x y z
#
# Youngs Moduli (GPa) = 31.17223 125.82362 106.75544
#
# Poissons Ratio (x) = 0.27925 -0.49198
# Poissons Ratio (y) = 0.06918 -0.01046
# Poissons Ratio (z) = -0.14366 -0.01233
#
# Static dielectric constant tensor:
#      x y z
#    x 2.008460 0.000000 0.052940 
#    y 0.000000 2.121610 0.000000 
#    z 0.052940 0.000000 2.158210 
# 
# From -- ./inp_files/213986.got.cif
#   From: 2010.05.17/outbox.cif.g08.bks.cpg/sg15_107_cif.got.tgz:213986.got - 2010.06.03 18:47:42.
