data_PCOD9258978
_publ_section_title
;
Structure prediction by ZEFSAII (Michael W. Deem and Ramdas Pophale) SiO2 
 PCOD9258978
Probable space group: C 2/C
;
_chemical_formula_sum "Si O2"
_cell_formula_units_Z 52
_cell_length_a 16.323558
_cell_length_b 7.594660
_cell_length_c 30.598113
_cell_angle_alpha 90.000000
_cell_angle_beta 145.314901
_cell_angle_gamma 90.000000
_cell_volume 2158.639935
_symmetry_space_group_name_H-M "C 2/C"
_symmetry_group_IT_number 15
_symmetry_cell_setting 'monoclinic'
loop_
_space_group_symop_operation_xyz
x,y,z
-x,y,1/2-z
-x,-y,-z
x,-y,1/2+z
1/2+x,1/2+y,z
1/2-x,1/2+y,1/2-z
1/2-x,1/2-y,-z
1/2+x,1/2-y,1/2+z
loop_
_atom_site_type_symbol
_atom_site_label
_atom_site_fract_x
_atom_site_fract_y
_atom_site_fract_z
Si Si1 0.940231 0.864314 0.788508
Si Si2 0.000000 0.858219 0.250000
Si Si3 0.730053 0.476214 0.028926
Si Si4 0.700485 0.248415 0.586338
Si Si5 0.179232 0.231792 0.175874
Si Si6 0.426878 0.996729 0.307397
Si Si7 0.737655 0.084661 0.053352
O O1 0.904717 0.887236 0.824501
O O2 0.885302 0.665598 0.756447
O O3 0.111851 0.864614 0.858616
O O4 0.902785 0.015581 0.738526
O O5 0.876635 0.754028 0.169756
O O6 0.659714 0.609227 0.032038
O O7 0.676610 0.275052 0.013080
O O8 0.902589 0.491962 0.112788
O O9 0.720084 0.514389 0.973116
O O10 0.645506 0.290383 0.610548
O O11 0.660390 0.055505 0.550202
O O12 0.136208 0.425195 0.174148
O O13 0.343207 0.169329 0.256696
#
# Coordination Sequence:
#
# PCOD9258978 Si02
#       7
#     8   4   8   8   8   8   8
#     4   8  19  34  57  81 109 152 179 227 284 333
#     4  10  18  34  58  80 112 146 188 226 282 328
#     4  10  20  39  62  83 107 154 198 230 269 341
#     4  11  21  33  59  88 109 147 193 235 274 338
#     4  10  20  36  53  84 120 140 181 232 291 333
#     4   9  20  36  56  82 115 150 182 227 287 339
#     4   9  20  40  62  78 116 148 194 235 276 324
#
# _framework density 24.089243
#
# number of rings (size 3 to 8) (size 9 to 14) (size 15 to 20)
#    0.923    1.538    0.000    2.308    0.000    4.923 
#    0.000    2.308    0.000    0.000    0.000    0.000 
#    0.000    0.000    0.000    0.000    0.000    0.000 
#
# Total GULP energy -144910.860232 kJ/mol
# GULP energy per Si atom -5573.494624 kJ/mol
# Density = 2.403442 g / cm^3
# Si number density = 24.089243 Si / 1000 Ang^3
#
#
#
# Elastic Constant Matrix: (Units=GPa)
#
#
# Indices 1 2 3 4 5 6 
#
# 1 112.7833 37.5061 23.2430 0.0000 -22.5460 0.0001
# 2 37.5061 58.2120 15.2637 0.0000 -21.5896 0.0001
# 3 23.2430 15.2637 41.5419 0.0000 -17.1676 0.0000
# 4 0.0000 0.0000 0.0000 32.2578 0.0000 -16.0419
# 5 -22.5460 -21.5896 -17.1676 0.0000 46.0502 0.0000
# 6 0.0001 0.0001 0.0000 -16.0419 0.0000 28.5099
#
#
#
# Elastic Compliance Matrix: (Units=1/GPa)
#
#
# Indices 1 2 3 4 5 6 
#
# 1 0.012014 -0.006158 -0.003808 0.000000 0.001575 0.000000
# 2 -0.006158 0.024611 -0.002453 0.000000 0.007609 0.000000
# 3 -0.003808 -0.002453 0.030568 0.000000 0.008381 0.000000
# 4 0.000000 0.000000 0.000000 0.043045 0.000000 0.024221
# 5 0.001575 0.007609 0.008381 0.000000 0.029179 0.000000
# 6 0.000000 0.000000 0.000000 0.024221 0.000000 0.048704
#
#
# Mechanical properties :
#
#
# Convention : Reuss Voigt Hill
#
# Bulk Modulus (GPa) = 23.61008 40.50698 32.05853
# Shear Modulus (GPa) = 22.01886 30.46521 26.24204
#
# Velocity S-wave (km/s) = 3.02661 3.56009 3.30414
# Velocity P-wave (km/s) = 4.69427 5.80955 5.28144
#
# Compressibility (1/GPa) = 0.04235478
#
# Stress axis : x y z
#
# Youngs Moduli (GPa) = 83.23537 40.63162 32.71416
#
# Poissons Ratio (x) = 0.25020 0.12459
# Poissons Ratio (y) = 0.51255 0.08025
# Poissons Ratio (z) = 0.31699 0.09967
#
# Static dielectric constant tensor:
#      x y z
#    x 2.005190 0.000000 0.012440 
#    y 0.000000 1.976080 0.000000 
#    z 0.012440 0.000000 1.919280 
# 
# From -- ./inp_files/315252.got.cif
#   From: 2010.05.17/outbox.cif.g08.bks.cpg/sg15_158_cif.got.tgz:315252.got - 2010.06.03 18:47:42.
