data_PCOD9258331
_publ_section_title
;
Structure prediction by ZEFSAII (Michael W. Deem and Ramdas Pophale) SiO2 
 PCOD9258331
Probable space group: C 2/C
;
_chemical_formula_sum "Si O2"
_cell_formula_units_Z 60
_cell_length_a 9.115794
_cell_length_b 10.816180
_cell_length_c 22.007687
_cell_angle_alpha 90.000000
_cell_angle_beta 93.433658
_cell_angle_gamma 90.000000
_cell_volume 2166.020040
_symmetry_space_group_name_H-M "C 2/C"
_symmetry_group_IT_number 15
_symmetry_cell_setting 'monoclinic'
loop_
_space_group_symop_operation_xyz
x,y,z
-x,y,1/2-z
-x,-y,-z
x,-y,1/2+z
1/2+x,1/2+y,z
1/2-x,1/2+y,1/2-z
1/2-x,1/2-y,-z
1/2+x,1/2-y,1/2+z
loop_
_atom_site_type_symbol
_atom_site_label
_atom_site_fract_x
_atom_site_fract_y
_atom_site_fract_z
Si Si1 0.776065 0.079151 0.774132
Si Si2 0.552838 0.670873 0.613451
Si Si3 0.076789 0.197064 0.311921
Si Si4 0.930082 0.624755 0.187207
Si Si5 0.121313 0.738592 0.933071
Si Si6 0.000000 0.000000 0.500000
Si Si7 0.774576 0.469366 0.986059
Si Si8 0.699967 0.020003 0.648594
O O1 0.714633 0.944500 0.793329
O O2 0.775227 0.104510 0.701704
O O3 0.909097 0.101525 0.823042
O O4 0.659382 0.182686 0.790422
O O5 0.450246 0.784978 0.630731
O O6 0.711561 0.715306 0.589168
O O7 0.480258 0.583157 0.563081
O O8 0.009505 0.244780 0.374579
O O9 0.193702 0.098183 0.338698
O O10 0.000000 0.145446 0.250000
O O11 0.000000 0.683377 0.250000
O O12 0.042702 0.515080 0.172149
O O13 0.131208 0.871719 0.968214
O O14 0.110093 0.623379 0.979304
O O15 0.175049 0.951502 0.527720
O O16 0.819600 0.528334 0.924038
#
# Coordination Sequence:
#
# PCOD9258331 Si02
#       8
#     8   8   8   8   8   4   8   8
#     4  10  21  35  60  84 119 153 195 253 309 361
#     4  10  19  39  55  83 114 156 196 252 298 370
#     4  10  18  33  54  81 113 149 194 244 298 357
#     4  10  19  35  59  86 113 160 200 240 314 373
#     4   8  16  31  56  70 102 152 188 231 279 347
#     4  10  22  32  56  86 116 154 202 246 318 360
#     4   9  16  32  52  81 106 146 199 232 288 367
#     4  10  19  34  57  86 114 154 199 247 300 368
#
# _framework density 27.700574
#
# number of rings (size 3 to 8) (size 9 to 14) (size 15 to 20)
#    0.000    2.400    4.000    1.200    0.000    3.200 
#    0.000    0.667    0.000   12.800    0.000    0.000 
#    0.000    0.000    0.000    0.000    0.000    0.000 
#
# Total GULP energy -167067.421922 kJ/mol
# GULP energy per Si atom -5568.914064 kJ/mol
# Density = 2.763753 g / cm^3
# Si number density = 27.700574 Si / 1000 Ang^3
#
#
#
# Elastic Constant Matrix: (Units=GPa)
#
#
# Indices 1 2 3 4 5 6 
#
# 1 86.7217 22.5125 33.5916 0.0000 -8.0296 0.0000
# 2 22.5125 62.4278 15.0024 0.0000 0.6260 0.0000
# 3 33.5916 15.0024 123.0245 0.0000 -4.1361 0.0000
# 4 0.0000 0.0000 0.0000 48.6789 0.0000 -2.2083
# 5 -8.0296 0.6260 -4.1361 0.0000 42.6417 0.0000
# 6 0.0000 0.0000 0.0000 -2.2083 0.0000 31.4799
#
#
#
# Elastic Compliance Matrix: (Units=1/GPa)
#
#
# Indices 1 2 3 4 5 6 
#
# 1 0.014141 -0.004342 -0.003250 0.000000 0.002411 0.000000
# 2 -0.004342 0.017844 -0.001030 0.000000 -0.001180 0.000000
# 3 -0.003250 -0.001030 0.009151 0.000000 0.000291 0.000000
# 4 0.000000 0.000000 0.000000 0.020608 0.000000 0.001446
# 5 0.002411 -0.001180 0.000291 0.000000 0.023951 0.000000
# 6 0.000000 0.000000 0.000000 0.001446 0.000000 0.031868
#
#
# Mechanical properties :
#
#
# Convention : Reuss Voigt Hill
#
# Bulk Modulus (GPa) = 41.85818 46.04297 43.95058
# Shear Modulus (GPa) = 35.02090 37.96460 36.49275
#
# Velocity S-wave (km/s) = 3.55951 3.70609 3.63354
# Velocity P-wave (km/s) = 5.66014 5.91365 5.78828
#
# Compressibility (1/GPa) = 0.02389019
#
# Stress axis : x y z
#
# Youngs Moduli (GPa) = 70.71769 56.04185 109.27320
#
# Poissons Ratio (x) = 0.24336 0.35519
# Poissons Ratio (y) = 0.30709 0.11255
# Poissons Ratio (z) = 0.22987 0.05772
#
# Static dielectric constant tensor:
#      x y z
#    x 2.620840 0.000000 -0.114370 
#    y 0.000000 2.523150 0.000000 
#    z -0.114370 0.000000 2.299740 
# 
# From -- ./inp_files/269574.got.cif
#   From: 2010.05.17/outbox.cif.g08.bks.cpg/sg15_135_cif.got.tgz:269574.got - 2010.06.03 18:47:42.
