data_PCOD9258257
_publ_section_title
;
Structure prediction by ZEFSAII (Michael W. Deem and Ramdas Pophale) SiO2 
 PCOD9258257
Probable space group: C 2/C
;
_chemical_formula_sum "Si O2"
_cell_formula_units_Z 56
_cell_length_a 8.537208
_cell_length_b 16.402345
_cell_length_c 22.635412
_cell_angle_alpha 90.000000
_cell_angle_beta 106.212926
_cell_angle_gamma 90.000000
_cell_volume 3043.587593
_symmetry_space_group_name_H-M "C 2/C"
_symmetry_group_IT_number 15
_symmetry_cell_setting 'monoclinic'
loop_
_space_group_symop_operation_xyz
x,y,z
-x,y,1/2-z
-x,-y,-z
x,-y,1/2+z
1/2+x,1/2+y,z
1/2-x,1/2+y,1/2-z
1/2-x,1/2-y,-z
1/2+x,1/2-y,1/2+z
loop_
_atom_site_type_symbol
_atom_site_label
_atom_site_fract_x
_atom_site_fract_y
_atom_site_fract_z
Si Si1 0.129373 0.856763 0.911215
Si Si2 0.452712 0.796800 0.900228
Si Si3 0.904165 0.822865 0.179161
Si Si4 0.547746 0.807912 0.110134
Si Si5 0.111465 0.418819 0.002814
Si Si6 0.302440 0.643543 0.945826
Si Si7 0.046308 0.038058 0.912441
O O1 0.270588 0.835144 0.878963
O O2 0.993068 0.787308 0.899510
O O3 0.056355 0.945173 0.894160
O O4 0.214813 0.855419 0.985305
O O5 0.532235 0.755734 0.851308
O O6 0.420214 0.719086 0.940348
O O7 0.563521 0.867539 0.940051
O O8 0.708190 0.819380 0.166237
O O9 0.941486 0.901049 0.141843
O O10 0.000000 0.827912 0.250000
O O11 0.587854 0.854042 0.053435
O O12 0.369166 0.844592 0.105503
O O13 0.298052 0.444913 0.029332
O O14 0.000000 0.500000 0.000000
O O15 0.387725 0.562518 0.932272
#
# Coordination Sequence:
#
# PCOD9258257 Si02
#       7
#     8   8   8   8   8   8   8
#     4  11  18  35  54  95 120 144 174 232 299 370
#     4  10  19  34  57  81 117 148 191 226 292 345
#     4  10  24  43  57  74 107 156 211 247 272 330
#     4  10  20  35  58  79 117 151 185 236 293 345
#     4  11  18  32  54  92 117 150 180 231 293 364
#     4  10  18  33  52  89 126 144 173 224 294 373
#     4  10  22  32  58  85 120 151 181 229 297 345
#
# _framework density 18.399339000000001
#
# number of rings (size 3 to 8) (size 9 to 14) (size 15 to 20)
#    0.000    1.714    4.286    1.286    2.000    1.714 
#    0.000    7.857    0.000    0.000    0.000    0.000 
#    0.000    0.000    0.000    0.000    0.000    0.000 
#
# Total GULP energy -156127.604646 kJ/mol
# GULP energy per Si atom -5575.985880 kJ/mol
# Density = 1.835746 g / cm^3
# Si number density = 18.399339 Si / 1000 Ang^3
#
#
#
# Elastic Constant Matrix: (Units=GPa)
#
#
# Indices 1 2 3 4 5 6 
#
# 1 82.4215 41.2916 43.7995 0.0000 20.5913 0.0000
# 2 41.2916 137.6192 39.5939 0.0000 8.1975 0.0000
# 3 43.7995 39.5939 100.1471 0.0000 23.3402 0.0000
# 4 0.0000 0.0000 0.0000 10.8567 0.0000 0.3885
# 5 20.5913 8.1975 23.3402 0.0000 21.8712 0.0000
# 6 0.0000 0.0000 0.0000 0.3885 0.0000 32.9536
#
#
#
# Elastic Compliance Matrix: (Units=1/GPa)
#
#
# Indices 1 2 3 4 5 6 
#
# 1 0.019331 -0.003905 -0.004007 0.000000 -0.012461 0.000000
# 2 -0.003905 0.008992 -0.002554 0.000000 0.003032 0.000000
# 3 -0.004007 -0.002554 0.015500 0.000000 -0.011812 0.000000
# 4 0.000000 0.000000 0.000000 0.092148 0.000000 -0.001086
# 5 -0.012461 0.003032 -0.011812 0.000000 0.068923 0.000000
# 6 0.000000 0.000000 0.000000 -0.001086 0.000000 0.030358
#
#
# Mechanical properties :
#
#
# Convention : Reuss Voigt Hill
#
# Bulk Modulus (GPa) = 43.68210 63.28421 53.48315
# Shear Modulus (GPa) = 18.95266 26.16982 22.56124
#
# Velocity S-wave (km/s) = 3.21296 3.77546 3.50551
# Velocity P-wave (km/s) = 6.12836 7.31266 6.74655
#
# Compressibility (1/GPa) = 0.02289267
#
# Stress axis : x y z
#
# Youngs Moduli (GPa) = 51.72927 111.20597 64.51571
#
# Poissons Ratio (x) = 0.43429 0.25849
# Poissons Ratio (y) = 0.20202 0.16476
# Poissons Ratio (z) = 0.20726 0.28399
#
# Static dielectric constant tensor:
#      x y z
#    x 1.695820 0.000000 0.015300 
#    y 0.000000 1.659070 0.000000 
#    z 0.015300 0.000000 1.604100 
# 
# From -- ./inp_files/264785.got.cif
#   From: 2010.05.17/outbox.cif.g08.bks.cpg/sg15_133_cif.got.tgz:264785.got - 2010.06.03 18:47:42.
