data_PCOD9258416
_publ_section_title
;
Structure prediction by ZEFSAII (Michael W. Deem and Ramdas Pophale) SiO2 
 PCOD9258416
Probable space group: C 2/C
;
_chemical_formula_sum "Si O2"
_cell_formula_units_Z 56
_cell_length_a 15.196547
_cell_length_b 17.234145
_cell_length_c 12.586407
_cell_angle_alpha 90.000000
_cell_angle_beta 119.436669
_cell_angle_gamma 90.000000
_cell_volume 2870.810005
_symmetry_space_group_name_H-M "C 2/C"
_symmetry_group_IT_number 15
_symmetry_cell_setting 'monoclinic'
loop_
_space_group_symop_operation_xyz
x,y,z
-x,y,1/2-z
-x,-y,-z
x,-y,1/2+z
1/2+x,1/2+y,z
1/2-x,1/2+y,1/2-z
1/2-x,1/2-y,-z
1/2+x,1/2-y,1/2+z
loop_
_atom_site_type_symbol
_atom_site_label
_atom_site_fract_x
_atom_site_fract_y
_atom_site_fract_z
Si Si1 0.281934 0.703563 0.913324
Si Si2 0.477149 0.915494 0.616661
Si Si3 0.361629 0.974886 0.366041
Si Si4 0.031402 0.076436 0.888584
Si Si5 0.008745 0.245211 0.565335
Si Si6 0.429316 0.816066 0.309810
Si Si7 0.167997 0.967378 0.097166
O O1 0.373499 0.735008 0.895384
O O2 0.183484 0.705752 0.784044
O O3 0.303759 0.612194 0.947870
O O4 0.250000 0.750000 0.000000
O O5 0.500000 0.941193 0.750000
O O6 0.376218 0.949339 0.498824
O O7 0.480771 0.822828 0.611850
O O8 0.573405 0.947667 0.608613
O O9 0.423231 0.904670 0.346094
O O10 0.256749 0.982105 0.237939
O O11 0.000000 0.056528 0.750000
O O12 0.035538 0.169185 0.905573
O O13 0.934189 0.051296 0.899504
O O14 0.131710 0.034596 0.994458
O O15 0.964016 0.259162 0.422194
O O16 0.500000 0.810093 0.250000
#
# Coordination Sequence:
#
# PCOD9258416 Si02
#       7
#     8   8   8   8   8   8   8
#     4  10  19  36  56  85 114 148 191 245 294 344
#     4  10  20  36  58  87 115 155 192 238 297 358
#     4   9  20  36  56  84 119 147 193 247 292 354
#     4  10  21  41  59  81 117 161 197 245 288 350
#     4  10  21  36  56  86 119 152 199 238 289 357
#     4  10  18  33  56  82 116 154 188 246 300 341
#     4   9  21  40  57  84 116 151 201 241 293 353
#
# _framework density 19.506689999999999
#
# number of rings (size 3 to 8) (size 9 to 14) (size 15 to 20)
#    0.000    2.286    1.429    0.857    0.000    2.286 
#   10.286    0.000    0.000    8.571    0.000    0.000 
#    0.000    0.000    0.000    0.000    0.000    0.000 
#
# Total GULP energy -155931.649295 kJ/mol
# GULP energy per Si atom -5568.987475 kJ/mol
# Density = 1.946229 g / cm^3
# Si number density = 19.506690 Si / 1000 Ang^3
#
#
#
# Elastic Constant Matrix: (Units=GPa)
#
#
# Indices 1 2 3 4 5 6 
#
# 1 42.6461 17.1350 35.5347 0.0000 20.7077 0.0000
# 2 17.1350 68.3029 55.6611 0.0000 18.0080 0.0000
# 3 35.5347 55.6611 154.3552 0.0000 16.1613 0.0000
# 4 0.0000 0.0000 0.0000 45.1764 0.0000 12.9049
# 5 20.7077 18.0080 16.1613 0.0000 36.6956 0.0000
# 6 0.0000 0.0000 0.0000 12.9049 0.0000 7.0938
#
#
#
# Elastic Compliance Matrix: (Units=1/GPa)
#
#
# Indices 1 2 3 4 5 6 
#
# 1 0.038220 0.001381 -0.007305 0.000000 -0.019029 0.000000
# 2 0.001381 0.022781 -0.007633 0.000000 -0.008597 0.000000
# 3 -0.007305 -0.007633 0.010576 0.000000 0.003210 0.000000
# 4 0.000000 0.000000 0.000000 0.046082 0.000000 -0.083832
# 5 -0.019029 -0.008597 0.003210 0.000000 0.040795 0.000000
# 6 0.000000 0.000000 0.000000 -0.083832 0.000000 0.293471
#
#
# Mechanical properties :
#
#
# Convention : Reuss Voigt Hill
#
# Bulk Modulus (GPa) = 22.48929 53.55176 38.02053
# Shear Modulus (GPa) = 10.12434 28.25807 19.19120
#
# Velocity S-wave (km/s) = 2.28067 3.81022 3.14000
# Velocity P-wave (km/s) = 4.29992 6.84614 5.71660
#
# Compressibility (1/GPa) = 0.04446560
#
# Stress axis : x y z
#
# Youngs Moduli (GPa) = 26.16421 43.89657 94.54932
#
# Poissons Ratio (x) = -0.06063 0.69064
# Poissons Ratio (y) = -0.03614 0.72167
# Poissons Ratio (z) = 0.19112 0.33505
#
# Static dielectric constant tensor:
#      x y z
#    x 1.654060 0.000000 0.021180 
#    y 0.000000 1.831540 0.000000 
#    z 0.021180 0.000000 1.638370 
# 
# From -- ./inp_files/98847.got.cif
#   From: 2010.05.17/outbox.cif.g08.bks.cpg/sg15_50_cif.got.tgz:98847.got - 2010.06.03 18:47:42.
