data_PCOD9258892
_publ_section_title
;
Structure prediction by ZEFSAII (Michael W. Deem and Ramdas Pophale) SiO2 
 PCOD9258892
Probable space group: C 2/C
;
_chemical_formula_sum "Si O2"
_cell_formula_units_Z 44
_cell_length_a 13.111442
_cell_length_b 18.109777
_cell_length_c 9.330705
_cell_angle_alpha 90.000000
_cell_angle_beta 112.943973
_cell_angle_gamma 90.000000
_cell_volume 2040.253456
_symmetry_space_group_name_H-M "C 2/C"
_symmetry_group_IT_number 15
_symmetry_cell_setting 'monoclinic'
loop_
_space_group_symop_operation_xyz
x,y,z
-x,y,1/2-z
-x,-y,-z
x,-y,1/2+z
1/2+x,1/2+y,z
1/2-x,1/2+y,1/2-z
1/2-x,1/2-y,-z
1/2+x,1/2-y,1/2+z
loop_
_atom_site_type_symbol
_atom_site_label
_atom_site_fract_x
_atom_site_fract_y
_atom_site_fract_z
Si Si1 0.540406 0.151292 0.008323
Si Si2 0.855242 0.750843 0.661884
Si Si3 0.813296 0.685582 0.948810
Si Si4 0.238805 0.467571 0.950146
Si Si5 0.286229 0.403979 0.690681
Si Si6 0.500000 0.030243 0.750000
O O1 0.556868 0.215308 0.898882
O O2 0.443483 0.176829 0.059916
O O3 0.497158 0.081322 0.890928
O O4 0.660812 0.130611 0.135166
O O5 0.750000 0.750000 0.500000
O O6 0.820144 0.704811 0.783693
O O7 0.867757 0.835639 0.714182
O O8 0.750000 0.750000 0.000000
O O9 0.761359 0.605806 0.952669
O O10 0.307406 0.448425 0.846650
O O11 0.112788 0.485167 0.829814
O O12 0.279982 0.539334 0.056419
#
# Coordination Sequence:
#
# PCOD9258892 Si02
#       6
#     8   8   8   8   8   4
#     4  10  20  37  62  83 120 156 196 230 296 356
#     4  10  21  39  56  82 115 159 196 229 291 354
#     4  12  22  37  57  87 115 151 196 244 287 341
#     4  11  22  34  57  86 125 149 189 236 302 348
#     4  10  22  37  57  89 118 158 189 241 290 351
#     4  10  18  34  56  90 114 152 178 228 306 366
#
# _framework density 21.565946
#
# number of rings (size 3 to 8) (size 9 to 14) (size 15 to 20)
#    0.000    1.455    3.636    2.182    5.091    2.909 
#    0.000    0.000    0.000    1.091    0.000    0.000 
#    0.000    0.000    0.000    0.000    0.000    0.000 
#
# Total GULP energy -122873.608430 kJ/mol
# GULP energy per Si atom -5585.164020 kJ/mol
# Density = 2.151686 g / cm^3
# Si number density = 21.565946 Si / 1000 Ang^3
#
#
#
# Elastic Constant Matrix: (Units=GPa)
#
#
# Indices 1 2 3 4 5 6 
#
# 1 47.5452 24.2389 11.6185 0.0000 -17.7077 0.0000
# 2 24.2389 133.6245 20.6971 0.0000 -14.8790 0.0000
# 3 11.6185 20.6971 64.1520 0.0000 -13.3224 0.0000
# 4 0.0000 0.0000 0.0000 30.1032 0.0000 -11.9660
# 5 -17.7077 -14.8790 -13.3224 0.0000 22.7241 0.0000
# 6 0.0000 0.0000 0.0000 -11.9660 0.0000 38.0550
#
#
#
# Elastic Compliance Matrix: (Units=1/GPa)
#
#
# Indices 1 2 3 4 5 6 
#
# 1 0.030811 -0.003144 -0.000008 0.000000 0.021946 0.000000
# 2 -0.003144 0.008562 -0.001751 0.000000 0.002130 0.000000
# 3 -0.000008 -0.001751 0.018121 0.000000 0.009471 0.000000
# 4 0.000000 0.000000 0.000000 0.037964 0.000000 0.011937
# 5 0.021946 0.002130 0.009471 0.000000 0.068055 0.000000
# 6 0.000000 0.000000 0.000000 0.011937 0.000000 0.030031
#
#
# Mechanical properties :
#
#
# Convention : Reuss Voigt Hill
#
# Bulk Modulus (GPa) = 20.96945 39.82564 30.39755
# Shear Modulus (GPa) = 22.80531 30.76091 26.78311
#
# Velocity S-wave (km/s) = 3.25540 3.78082 3.52791
# Velocity P-wave (km/s) = 4.88618 6.12915 5.54262
#
# Compressibility (1/GPa) = 0.04768842
#
# Stress axis : x y z
#
# Youngs Moduli (GPa) = 32.45589 116.79087 55.18418
#
# Poissons Ratio (x) = 0.36719 0.00046
# Poissons Ratio (y) = 0.10204 0.09661
# Poissons Ratio (z) = 0.00027 0.20446
#
# Static dielectric constant tensor:
#      x y z
#    x 1.857430 0.000000 0.027620 
#    y 0.000000 1.874870 0.000000 
#    z 0.027620 0.000000 1.833970 
# 
# From -- ./inp_files/39275.got.cif
#   From: 2010.05.17/outbox.cif.g08.bks.cpg/sg15_20_cif.got.tgz:39275.got - 2010.06.03 18:47:42.
