data_PCOD9258039
_publ_section_title
;
Structure prediction by ZEFSAII (Michael W. Deem and Ramdas Pophale) SiO2 
 PCOD9258039
Probable space group: C 2/C
;
_chemical_formula_sum "Si O2"
_cell_formula_units_Z 60
_cell_length_a 19.038446
_cell_length_b 13.658869
_cell_length_c 21.310047
_cell_angle_alpha 90.000000
_cell_angle_beta 147.516316
_cell_angle_gamma 90.000000
_cell_volume 2976.137410
_symmetry_space_group_name_H-M "C 2/C"
_symmetry_group_IT_number 15
_symmetry_cell_setting 'monoclinic'
loop_
_space_group_symop_operation_xyz
x,y,z
-x,y,1/2-z
-x,-y,-z
x,-y,1/2+z
1/2+x,1/2+y,z
1/2-x,1/2+y,1/2-z
1/2-x,1/2-y,-z
1/2+x,1/2-y,1/2+z
loop_
_atom_site_type_symbol
_atom_site_label
_atom_site_fract_x
_atom_site_fract_y
_atom_site_fract_z
Si Si1 0.000000 0.090282 0.750000
Si Si2 0.633819 0.037770 0.311709
Si Si3 0.839869 0.122771 0.005214
Si Si4 0.773489 0.244587 0.592726
Si Si5 0.908300 0.033982 0.288493
Si Si6 0.836870 0.602750 0.894793
Si Si7 0.244610 0.827714 0.921907
Si Si8 0.998864 0.440867 0.094865
O O1 0.117965 0.160885 0.824681
O O2 0.992527 0.022785 0.683740
O O3 0.500000 0.033575 0.250000
O O4 0.681321 0.149812 0.349406
O O5 0.744046 0.968902 0.424437
O O6 0.594988 0.995178 0.214952
O O7 0.771439 0.216682 0.921706
O O8 0.839018 0.159518 0.077455
O O9 0.985180 0.093754 0.090780
O O10 0.750000 0.250000 0.500000
O O11 0.674070 0.197143 0.568057
O O12 0.825945 0.111057 0.185448
O O13 0.800418 0.952746 0.227563
O O14 0.918390 0.620049 0.893279
O O15 0.917391 0.523787 0.996369
O O16 0.387431 0.874906 0.042841
#
# Coordination Sequence:
#
# PCOD9258039 Si02
#       8
#     4   8   8   8   8   8   8   8
#     4  10  18  32  58  84 116 156 192 258 316 368
#     4  12  23  38  63 100 132 162 209 286 326 382
#     4  11  22  35  59  93 122 160 205 269 323 364
#     4  11  22  36  63  97 127 163 211 267 332 384
#     4  10  19  37  59  88 116 160 214 254 316 387
#     4   9  22  42  67  85 124 178 209 260 316 409
#     4  10  21  35  62  85 121 165 210 261 307 386
#     4  10  21  44  62  90 125 169 220 252 326 394
#
# _framework density 20.160357999999999
#
# number of rings (size 3 to 8) (size 9 to 14) (size 15 to 20)
#    0.000    1.600    3.333    1.600    3.733    0.000 
#    2.400    2.000    0.000    0.000    0.000    0.000 
#    0.000    0.000    0.000    0.000    0.000    0.000 
#
# Total GULP energy -167144.729508 kJ/mol
# GULP energy per Si atom -5571.490984 kJ/mol
# Density = 2.011447 g / cm^3
# Si number density = 20.160358 Si / 1000 Ang^3
#
#
#
# Elastic Constant Matrix: (Units=GPa)
#
#
# Indices 1 2 3 4 5 6 
#
# 1 64.2130 17.0386 19.5063 0.0000 -3.2170 0.0000
# 2 17.0386 100.1495 39.1174 0.0000 4.5425 0.0000
# 3 19.5063 39.1174 74.3360 0.0000 14.1081 0.0000
# 4 0.0000 0.0000 0.0000 29.1293 0.0000 2.0249
# 5 -3.2170 4.5425 14.1081 0.0000 15.2773 0.0000
# 6 0.0000 0.0000 0.0000 2.0249 0.0000 26.2173
#
#
#
# Elastic Compliance Matrix: (Units=1/GPa)
#
#
# Indices 1 2 3 4 5 6 
#
# 1 0.018197 -0.001197 -0.005990 0.000000 0.009719 0.000000
# 2 -0.001197 0.012752 -0.006825 0.000000 0.002259 0.000000
# 3 -0.005990 -0.006825 0.022395 0.000000 -0.019913 0.000000
# 4 0.000000 0.000000 0.000000 0.034515 0.000000 -0.002666
# 5 0.009719 0.002259 -0.019913 0.000000 0.085220 0.000000
# 6 0.000000 0.000000 0.000000 -0.002666 0.000000 0.038349
#
#
# Mechanical properties :
#
#
# Convention : Reuss Voigt Hill
#
# Bulk Modulus (GPa) = 39.49378 43.33587 41.41483
# Shear Modulus (GPa) = 20.17006 24.99388 22.58197
#
# Velocity S-wave (km/s) = 3.16647 3.52483 3.35045
# Velocity P-wave (km/s) = 5.74465 6.17318 5.96277
#
# Compressibility (1/GPa) = 0.02532044
#
# Stress axis : x y z
#
# Youngs Moduli (GPa) = 54.95326 78.41861 44.65310
#
# Poissons Ratio (x) = 0.09389 0.26746
# Poissons Ratio (y) = 0.06579 0.30476
# Poissons Ratio (z) = 0.32915 0.53521
#
# Static dielectric constant tensor:
#      x y z
#    x 1.754370 0.000000 -0.037900 
#    y 0.000000 1.779020 0.000000 
#    z -0.037900 0.000000 1.725400 
# 
# From -- ./inp_files/280098.got.cif
#   From: 2010.05.17/outbox.cif.g08.bks.cpg/sg15_141_cif.got.tgz:280098.got - 2010.06.03 18:47:42.
