data_PCOD9258018
_publ_section_title
;
Structure prediction by ZEFSAII (Michael W. Deem and Ramdas Pophale) SiO2 
 PCOD9258018
Probable space group: C 2/C
;
_chemical_formula_sum "Si O2"
_cell_formula_units_Z 44
_cell_length_a 19.351325
_cell_length_b 12.199456
_cell_length_c 26.656575
_cell_angle_alpha 90.000000
_cell_angle_beta 20.486604
_cell_angle_gamma 90.000000
_cell_volume 2202.465617
_symmetry_space_group_name_H-M "C 2/C"
_symmetry_group_IT_number 15
_symmetry_cell_setting 'monoclinic'
loop_
_space_group_symop_operation_xyz
x,y,z
-x,y,1/2-z
-x,-y,-z
x,-y,1/2+z
1/2+x,1/2+y,z
1/2-x,1/2+y,1/2-z
1/2-x,1/2-y,-z
1/2+x,1/2-y,1/2+z
loop_
_atom_site_type_symbol
_atom_site_label
_atom_site_fract_x
_atom_site_fract_y
_atom_site_fract_z
Si Si1 0.375668 0.023954 0.535501
Si Si2 0.277471 0.314397 0.914141
Si Si3 0.146418 0.093811 0.026727
Si Si4 0.935201 0.353308 0.901890
Si Si5 0.000000 0.551046 0.250000
Si Si6 0.012597 0.881001 0.328823
O O1 0.496482 0.067493 0.405243
O O2 0.206027 0.112960 0.663411
O O3 0.500000 0.000000 0.500000
O O4 0.273613 0.911066 0.588615
O O5 0.500000 0.275244 0.750000
O O6 0.280672 0.369360 0.967207
O O7 0.126300 0.212507 0.014920
O O8 0.985869 0.998831 0.144228
O O9 0.313457 0.027125 0.883936
O O10 0.013152 0.380693 0.792804
O O11 0.998513 0.229195 0.870848
O O12 0.697257 0.371705 0.057800
#
# Coordination Sequence:
#
# PCOD9258018 Si02
#       6
#     8   8   8   8   4   8
#     4  12  24  42  59  88 128 168 198 239 312 384
#     4  11  19  37  60  88 118 151 207 246 294 354
#     4  10  20  32  61  93 113 143 194 264 299 341
#     4  10  22  37  66  93 118 155 209 263 305 350
#     4  10  18  32  58 102 116 138 194 272 304 338
#     4  10  21  39  64  90 120 152 214 265 298 346
#
# _framework density 19.977611
#
# number of rings (size 3 to 8) (size 9 to 14) (size 15 to 20)
#    0.000    1.455    6.364    0.545    7.636    0.000 
#    3.273    0.000    0.000    5.455    0.000    0.000 
#    0.000    0.000    0.000    0.000    0.000    0.000 
#
# Total GULP energy -122541.994957 kJ/mol
# GULP energy per Si atom -5570.090680 kJ/mol
# Density = 1.993214 g / cm^3
# Si number density = 19.977611 Si / 1000 Ang^3
#
#
#
# Elastic Constant Matrix: (Units=GPa)
#
#
# Indices 1 2 3 4 5 6 
#
# 1 74.1319 22.0924 28.1235 0.0230 19.4129 0.0128
# 2 22.0924 129.9555 15.1298 0.0092 5.2085 0.0033
# 3 28.1235 15.1298 66.1955 0.0040 20.4159 0.0087
# 4 0.0230 0.0092 0.0040 16.0963 0.0010 1.5798
# 5 19.4129 5.2085 20.4159 0.0010 14.3760 -0.0048
# 6 0.0128 0.0033 0.0087 1.5798 -0.0048 4.7615
#
#
#
# Elastic Compliance Matrix: (Units=1/GPa)
#
#
# Indices 1 2 3 4 5 6 
#
# 1 0.021672 -0.002561 0.000209 -0.000020 -0.028634 -0.000079
# 2 -0.002561 0.008210 -0.001668 -0.000002 0.002853 0.000008
# 3 0.000209 -0.001668 0.027224 0.000005 -0.038340 -0.000089
# 4 -0.000020 -0.000002 0.000005 0.064218 0.000009 -0.021307
# 5 -0.028634 0.002853 -0.038340 0.000009 0.161642 0.000304
# 6 -0.000079 0.000008 -0.000089 -0.021307 0.000304 0.217087
#
#
# Mechanical properties :
#
#
# Convention : Reuss Voigt Hill
#
# Bulk Modulus (GPa) = 20.38076 44.55271 32.46673
# Shear Modulus (GPa) = 9.53383 20.70923 15.12153
#
# Velocity S-wave (km/s) = 2.18692 3.22315 2.75421
# Velocity P-wave (km/s) = 4.07440 6.01676 5.13820
#
# Compressibility (1/GPa) = 0.04906589
#
# Stress axis : x y z
#
# Youngs Moduli (GPa) = 46.14296 121.79972 36.73238
#
# Poissons Ratio (x) = 0.31192 -0.00769
# Poissons Ratio (y) = 0.11817 0.06129
# Poissons Ratio (z) = -0.00966 0.20322
#
# Static dielectric constant tensor:
#      x y z
#    x 1.705060 0.000000 0.029940 
#    y 0.000000 1.753870 0.000010 
#    z 0.029940 0.000010 1.777960 
# 
# From -- ./inp_files/300800.got.cif
#   From: 2010.05.17/outbox.cif.g08.bks.cpg/sg15_151_cif.got.tgz:300800.got - 2010.06.03 18:47:42.
