data_PCOD9258962
_publ_section_title
;
Structure prediction by ZEFSAII (Michael W. Deem and Ramdas Pophale) SiO2 
 PCOD9258962
Probable space group: C 2/C
;
_chemical_formula_sum "Si O2"
_cell_formula_units_Z 52
_cell_length_a 25.153247
_cell_length_b 8.267366
_cell_length_c 26.168643
_cell_angle_alpha 90.000000
_cell_angle_beta 152.522834
_cell_angle_gamma 90.000000
_cell_volume 2510.818843
_symmetry_space_group_name_H-M "C 2/C"
_symmetry_group_IT_number 15
_symmetry_cell_setting 'monoclinic'
loop_
_space_group_symop_operation_xyz
x,y,z
-x,y,1/2-z
-x,-y,-z
x,-y,1/2+z
1/2+x,1/2+y,z
1/2-x,1/2+y,1/2-z
1/2-x,1/2-y,-z
1/2+x,1/2-y,1/2+z
loop_
_atom_site_type_symbol
_atom_site_label
_atom_site_fract_x
_atom_site_fract_y
_atom_site_fract_z
Si Si1 0.500000 0.869068 0.250000
Si Si2 0.666862 0.486093 0.101472
Si Si3 0.345692 0.003693 0.340043
Si Si4 0.887917 0.544784 0.555245
Si Si5 0.962847 0.206341 0.384415
Si Si6 0.681333 0.288998 0.828359
Si Si7 0.569231 0.833626 0.995159
O O1 0.581936 0.961984 0.359765
O O2 0.415193 0.770031 0.214362
O O3 0.725781 0.509676 0.207436
O O4 0.752797 0.370524 0.140426
O O5 0.636287 0.666752 0.057786
O O6 0.544803 0.397541 0.990068
O O7 0.398186 0.836230 0.363617
O O8 0.361671 0.973479 0.413798
O O9 0.435898 0.144554 0.400255
O O10 0.959857 0.686984 0.588315
O O11 0.760772 0.594711 0.429906
O O12 0.928139 0.383883 0.561341
O O13 0.874680 0.125678 0.269387
#
# Coordination Sequence:
#
# PCOD9258962 Si02
#       7
#     4   8   8   8   8   8   8
#     4  10  18  34  58  76  98 140 182 224 274 324
#     4  10  20  35  57  81 109 147 179 215 269 317
#     4   9  20  36  52  79 115 145 179 219 254 310
#     4   9  18  33  53  76 105 138 176 224 270 315
#     4   8  17  33  53  80 109 138 176 217 259 314
#     4   9  18  34  56  81 106 134 179 228 268 317
#     4  10  21  35  53  78 111 146 179 217 267 316
#
# _framework density 20.710376
#
# number of rings (size 3 to 8) (size 9 to 14) (size 15 to 20)
#    0.000    2.769    0.000    1.385    0.000    8.000 
#    0.000    0.769    0.000    9.231    0.000    0.000 
#    0.000    0.000    0.000    0.000    0.000    0.000 
#
# Total GULP energy -144837.057616 kJ/mol
# GULP energy per Si atom -5570.656062 kJ/mol
# Density = 2.066324 g / cm^3
# Si number density = 20.710376 Si / 1000 Ang^3
#
#
#
# Elastic Constant Matrix: (Units=GPa)
#
#
# Indices 1 2 3 4 5 6 
#
# 1 71.9730 9.3687 36.0436 0.0000 -20.1911 0.0000
# 2 9.3687 48.2343 35.7595 0.0000 -4.7063 -0.0001
# 3 36.0436 35.7595 166.9196 0.0000 -26.5926 0.0000
# 4 0.0000 0.0000 0.0000 24.5698 0.0000 2.2433
# 5 -20.1911 -4.7063 -26.5926 0.0000 40.3398 0.0000
# 6 0.0000 -0.0001 0.0000 2.2433 0.0000 14.2294
#
#
#
# Elastic Compliance Matrix: (Units=1/GPa)
#
#
# Indices 1 2 3 4 5 6 
#
# 1 0.017151 -0.000864 -0.002421 0.000000 0.006888 0.000000
# 2 -0.000864 0.024707 -0.005269 0.000000 -0.001024 0.000000
# 3 -0.002421 -0.005269 0.008214 0.000000 0.003588 0.000000
# 4 0.000000 0.000000 0.000000 0.041295 0.000000 -0.006510
# 5 0.006888 -0.001024 0.003588 0.000000 0.030483 0.000000
# 6 0.000000 0.000000 0.000000 -0.006510 0.000000 0.071304
#
#
# Mechanical properties :
#
#
# Convention : Reuss Voigt Hill
#
# Bulk Modulus (GPa) = 30.33746 49.94119 40.13932
# Shear Modulus (GPa) = 22.59878 29.55815 26.07846
#
# Velocity S-wave (km/s) = 3.30689 3.78195 3.55237
# Velocity P-wave (km/s) = 5.40933 6.57551 6.02072
#
# Compressibility (1/GPa) = 0.03296255
#
# Stress axis : x y z
#
# Youngs Moduli (GPa) = 58.30447 40.47479 121.73953
#
# Poissons Ratio (x) = 0.03499 0.29474
# Poissons Ratio (y) = 0.05040 0.64150
# Poissons Ratio (z) = 0.14116 0.21328
#
# Static dielectric constant tensor:
#      x y z
#    x 1.756660 0.000000 0.035690 
#    y 0.000000 1.737040 0.000000 
#    z 0.035690 0.000000 1.861290 
# 
# From -- ./inp_files/303044.got.cif
#   From: 2010.05.17/outbox.cif.g08.bks.cpg/sg15_152_cif.got.tgz:303044.got - 2010.06.03 18:47:42.
