data_PCOD9258204
_publ_section_title
;
Structure prediction by ZEFSAII (Michael W. Deem and Ramdas Pophale) SiO2 
 PCOD9258204
Probable space group: C 2/C
;
_chemical_formula_sum "Si O2"
_cell_formula_units_Z 40
_cell_length_a 17.243244
_cell_length_b 13.863356
_cell_length_c 15.847559
_cell_angle_alpha 90.000000
_cell_angle_beta 33.099628
_cell_angle_gamma 90.000000
_cell_volume 2068.803000
_symmetry_space_group_name_H-M "C 2/C"
_symmetry_group_IT_number 15
_symmetry_cell_setting 'monoclinic'
loop_
_space_group_symop_operation_xyz
x,y,z
-x,y,1/2-z
-x,-y,-z
x,-y,1/2+z
1/2+x,1/2+y,z
1/2-x,1/2+y,1/2-z
1/2-x,1/2-y,-z
1/2+x,1/2-y,1/2+z
loop_
_atom_site_type_symbol
_atom_site_label
_atom_site_fract_x
_atom_site_fract_y
_atom_site_fract_z
Si Si1 0.050725 0.953454 0.543925
Si Si2 0.582041 0.629555 0.755379
Si Si3 0.188624 0.449298 0.749749
Si Si4 0.620895 0.093351 0.957989
Si Si5 0.570859 0.705290 0.439688
O O1 0.004274 0.843802 0.572699
O O2 0.970395 0.018853 0.684186
O O3 0.216439 0.979709 0.394388
O O4 0.000000 0.000000 0.500000
O O5 0.500000 0.670333 0.750000
O O6 0.751639 0.626833 0.598010
O O7 0.528770 0.683822 0.888095
O O8 0.170481 0.502459 0.856738
O O9 0.282643 0.352990 0.676579
O O10 0.030546 0.428288 0.862605
O O11 0.596275 0.181573 0.915223
#
# Coordination Sequence:
#
# PCOD9258204 Si02
#       5
#     8   8   8   8   8
#     4   8  15  34  47  66  98 131 172 200 248 291
#     4  10  19  33  49  71 109 141 161 197 260 318
#     4   9  18  30  49  74 102 121 175 222 238 292
#     4  11  18  29  51  80  99 130 175 212 247 289
#     4  10  18  33  50  72 105 135 171 205 248 301
#
# _framework density 19.334851
#
# number of rings (size 3 to 8) (size 9 to 14) (size 15 to 20)
#    0.000    2.800    6.000    1.200    0.000    0.800 
#    0.000    4.000    0.000    0.000    0.000   22.400 
#    0.000    0.000    0.000    0.000    0.000    0.000 
#
# Total GULP energy -111347.138788 kJ/mol
# GULP energy per Si atom -5567.356939 kJ/mol
# Density = 1.929084 g / cm^3
# Si number density = 19.334851 Si / 1000 Ang^3
#
#
#
# Elastic Constant Matrix: (Units=GPa)
#
#
# Indices 1 2 3 4 5 6 
#
# 1 21.9848 9.2335 21.8560 0.0000 -15.5395 0.0000
# 2 9.2335 52.1812 19.9139 0.0000 -6.6259 0.0000
# 3 21.8560 19.9139 111.8264 0.0000 -50.5468 0.0000
# 4 0.0000 0.0000 0.0000 14.5054 0.0000 -6.6935
# 5 -15.5395 -6.6259 -50.5468 0.0000 31.2130 0.0000
# 6 0.0000 0.0000 0.0000 -6.6935 0.0000 7.7805
#
#
#
# Elastic Compliance Matrix: (Units=1/GPa)
#
#
# Indices 1 2 3 4 5 6 
#
# 1 0.077662 -0.011252 0.012022 0.000000 0.055744 0.000000
# 2 -0.011252 0.022481 -0.008131 0.000000 -0.013997 0.000000
# 3 0.012022 -0.008131 0.037185 0.000000 0.064477 0.000000
# 4 0.000000 0.000000 0.000000 0.114325 0.000000 0.098354
# 5 0.055744 -0.013997 0.064477 0.000000 0.161234 0.000000
# 6 0.000000 0.000000 0.000000 0.098354 0.000000 0.213141
#
#
# Mechanical properties :
#
#
# Convention : Reuss Voigt Hill
#
# Bulk Modulus (GPa) = 8.15624 31.99992 20.07808
# Shear Modulus (GPa) = 7.33548 19.69905 13.51727
#
# Velocity S-wave (km/s) = 1.94991 3.19538 2.64694
# Velocity P-wave (km/s) = 3.04912 5.49548 4.44395
#
# Compressibility (1/GPa) = 0.12260551
#
# Stress axis : x y z
#
# Youngs Moduli (GPa) = 12.87636 44.48252 26.89249
#
# Poissons Ratio (x) = 0.50052 -0.32330
# Poissons Ratio (y) = 0.14488 0.21866
# Poissons Ratio (z) = -0.15480 0.36169
#
# Static dielectric constant tensor:
#      x y z
#    x 1.681940 0.000000 -0.046580 
#    y 0.000000 1.756980 0.000000 
#    z -0.046580 0.000000 1.731060 
# 
# From -- ./inp_files/162982.got.cif
#   From: 2010.05.17/outbox.cif.g08.bks.cpg/sg15_82_cif.got.tgz:162982.got - 2010.06.03 18:47:42.
