data_PCOD9258965
_publ_section_title
;
Structure prediction by ZEFSAII (Michael W. Deem and Ramdas Pophale) SiO2 
 PCOD9258965
Probable space group: C 2/C
;
_chemical_formula_sum "Si O2"
_cell_formula_units_Z 44
_cell_length_a 10.189223
_cell_length_b 23.333816
_cell_length_c 11.801966
_cell_angle_alpha 90.000000
_cell_angle_beta 121.440426
_cell_angle_gamma 90.000000
_cell_volume 2393.995763
_symmetry_space_group_name_H-M "C 2/C"
_symmetry_group_IT_number 15
_symmetry_cell_setting 'monoclinic'
loop_
_space_group_symop_operation_xyz
x,y,z
-x,y,1/2-z
-x,-y,-z
x,-y,1/2+z
1/2+x,1/2+y,z
1/2-x,1/2+y,1/2-z
1/2-x,1/2-y,-z
1/2+x,1/2-y,1/2+z
loop_
_atom_site_type_symbol
_atom_site_label
_atom_site_fract_x
_atom_site_fract_y
_atom_site_fract_z
Si Si1 0.393815 0.208951 0.816077
Si Si2 0.399197 0.584514 0.971005
Si Si3 0.294439 0.536135 0.489808
Si Si4 0.152937 0.418404 0.156990
Si Si5 0.500000 0.999109 0.250000
Si Si6 0.865079 0.215113 0.970703
O O1 0.500000 0.206208 0.750000
O O2 0.402294 0.146744 0.877219
O O3 0.220543 0.218640 0.690155
O O4 0.469788 0.255622 0.933058
O O5 0.359466 0.529055 0.029038
O O6 0.281123 0.580989 0.813089
O O7 0.568422 0.574529 0.997124
O O8 0.377062 0.648121 0.009444
O O9 0.227643 0.558343 0.577165
O O10 0.153477 0.534738 0.338061
O O11 0.020478 0.458786 0.149041
O O12 0.750000 0.250000 0.000000
#
# Coordination Sequence:
#
# PCOD9258965 Si02
#       6
#     8   8   8   8   4   8
#     4   9  17  33  54  81 107 140 186 224 268 324
#     4   9  20  37  55  79 115 138 189 229 269 337
#     4  10  20  35  55  81 108 151 177 227 282 326
#     4  10  18  34  58  77 108 151 183 217 281 337
#     4  10  20  34  50  84 116 138 190 228 264 342
#     4   9  18  34  56  79 108 144 181 229 270 318
#
# _framework density 18.379314000000001
#
# number of rings (size 3 to 8) (size 9 to 14) (size 15 to 20)
#    0.000    2.545    0.909    1.091    2.545    0.000 
#    3.273   15.455    0.000    0.000    0.000    0.000 
#    0.000    0.000    0.000    0.000    0.000    0.000 
#
# Total GULP energy -122551.614879 kJ/mol
# GULP energy per Si atom -5570.527949 kJ/mol
# Density = 1.833748 g / cm^3
# Si number density = 18.379314 Si / 1000 Ang^3
#
#
#
# Elastic Constant Matrix: (Units=GPa)
#
#
# Indices 1 2 3 4 5 6 
#
# 1 64.9730 27.3450 10.0492 0.0000 1.2169 0.0000
# 2 27.3450 106.9643 32.3580 0.0000 -1.9304 0.0000
# 3 10.0492 32.3580 26.9804 0.0000 3.8408 0.0000
# 4 0.0000 0.0000 0.0000 15.8131 0.0000 5.6260
# 5 1.2169 -1.9304 3.8408 0.0000 29.4826 0.0000
# 6 0.0000 0.0000 0.0000 5.6260 0.0000 20.8484
#
#
#
# Elastic Compliance Matrix: (Units=1/GPa)
#
#
# Indices 1 2 3 4 5 6 
#
# 1 0.017318 -0.003959 -0.001593 0.000000 -0.000767 0.000000
# 2 -0.003959 0.015902 -0.018104 0.000000 0.003563 0.000000
# 3 -0.001593 -0.018104 0.060654 0.000000 -0.009021 0.000000
# 4 0.000000 0.000000 0.000000 0.069955 0.000000 -0.018878
# 5 -0.000767 0.003563 -0.009021 0.000000 0.035359 0.000000
# 6 0.000000 0.000000 0.000000 -0.018878 0.000000 0.053059
#
#
# Mechanical properties :
#
#
# Convention : Reuss Voigt Hill
#
# Bulk Modulus (GPa) = 21.47691 37.60246 29.53969
# Shear Modulus (GPa) = 15.86899 21.83985 18.85442
#
# Velocity S-wave (km/s) = 2.94158 3.45089 3.20636
# Velocity P-wave (km/s) = 4.82161 6.03173 5.46030
#
# Compressibility (1/GPa) = 0.04656162
#
# Stress axis : x y z
#
# Youngs Moduli (GPa) = 57.74316 62.88474 16.48698
#
# Poissons Ratio (x) = 0.24898 0.02626
# Poissons Ratio (y) = 0.22862 0.29848
# Poissons Ratio (z) = 0.09197 1.13847
#
# Static dielectric constant tensor:
#      x y z
#    x 1.295900 0.000000 -0.078390 
#    y 0.000000 1.650140 0.000000 
#    z -0.078390 0.000000 1.615480 
# 
# From -- ./inp_files/78133.got.cif
#   From: 2010.05.17/outbox.cif.g08.bks.cpg/sg15_40_cif.got.tgz:78133.got - 2010.06.03 18:47:42.
