data_PCOD9258064
_publ_section_title
;
Structure prediction by ZEFSAII (Michael W. Deem and Ramdas Pophale) SiO2 
 PCOD9258064
Probable space group: C 2/C
;
_chemical_formula_sum "Si O2"
_cell_formula_units_Z 64
_cell_length_a 14.118936
_cell_length_b 24.037602
_cell_length_c 8.299742
_cell_angle_alpha 90.000000
_cell_angle_beta 88.506750
_cell_angle_gamma 90.000000
_cell_volume 2815.854378
_symmetry_space_group_name_H-M "C 2/C"
_symmetry_group_IT_number 15
_symmetry_cell_setting 'monoclinic'
loop_
_space_group_symop_operation_xyz
x,y,z
-x,y,1/2-z
-x,-y,-z
x,-y,1/2+z
1/2+x,1/2+y,z
1/2-x,1/2+y,1/2-z
1/2-x,1/2-y,-z
1/2+x,1/2-y,1/2+z
loop_
_atom_site_type_symbol
_atom_site_label
_atom_site_fract_x
_atom_site_fract_y
_atom_site_fract_z
Si Si1 0.195013 0.900987 0.496499
Si Si2 0.898990 0.996893 0.840631
Si Si3 0.074340 0.548374 0.954853
Si Si4 0.896194 0.880819 0.334742
Si Si5 0.213374 0.702212 0.385379
Si Si6 0.593166 0.260116 0.126415
Si Si7 0.490297 0.839820 0.554770
Si Si8 0.203012 0.507563 0.663048
O O1 0.109648 0.941640 0.552337
O O2 0.174164 0.879150 0.316875
O O3 0.215015 0.849970 0.613960
O O4 0.280314 0.945514 0.475050
O O5 0.000000 0.996208 0.750000
O O6 0.886804 0.058861 0.918051
O O7 0.806245 0.995297 0.730443
O O8 0.131159 0.533781 0.792780
O O9 0.022886 0.606532 0.959492
O O10 0.153993 0.546172 0.090737
O O11 0.000000 0.500000 0.000000
O O12 0.885108 0.822766 0.428993
O O13 0.000000 0.881132 0.250000
O O14 0.250000 0.750000 0.500000
O O15 0.178642 0.732035 0.223052
O O16 0.117796 0.676342 0.464780
O O17 0.500000 0.265297 0.250000
O O18 0.556234 0.212968 0.008082
O O19 0.500000 0.850642 0.750000
#
# Coordination Sequence:
#
# PCOD9258064 Si02
#       8
#     8   8   8   8   8   8   8   8
#     4  11  21  37  60  92 123 161 217 257 328 387
#     4  10  23  40  61  91 128 164 214 272 329 388
#     4  12  23  40  62  95 135 170 211 268 324 395
#     4   9  18  33  56  83 117 156 205 254 315 381
#     4  10  18  32  58  90 119 162 212 260 305 383
#     4   8  16  32  53  87 113 156 204 252 311 375
#     4   9  20  33  59  88 125 160 211 259 318 379
#     4  11  24  40  63  91 133 171 209 264 336 390
#
# _framework density 22.728448
#
# number of rings (size 3 to 8) (size 9 to 14) (size 15 to 20)
#    0.000    2.250    2.500    1.875    3.500    4.500 
#    0.000    0.000    0.000    4.500    0.000    0.000 
#    0.000    0.000    0.000    0.000    0.000    0.000 
#
# Total GULP energy -178599.306619 kJ/mol
# GULP energy per Si atom -5581.228332 kJ/mol
# Density = 2.267672 g / cm^3
# Si number density = 22.728448 Si / 1000 Ang^3
#
#
#
# Elastic Constant Matrix: (Units=GPa)
#
#
# Indices 1 2 3 4 5 6 
#
# 1 90.0782 41.3001 21.2219 0.0000 2.7583 0.0000
# 2 41.3001 170.3292 27.1795 0.0000 -5.5371 0.0000
# 3 21.2219 27.1795 33.7943 0.0000 -9.4051 0.0000
# 4 0.0000 0.0000 0.0000 19.4465 0.0000 0.2426
# 5 2.7583 -5.5371 -9.4051 0.0000 30.5178 0.0000
# 6 0.0000 0.0000 0.0000 0.2426 0.0000 11.0629
#
#
#
# Elastic Compliance Matrix: (Units=1/GPa)
#
#
# Indices 1 2 3 4 5 6 
#
# 1 0.014224 -0.002263 -0.008295 0.000000 -0.004253 0.000000
# 2 -0.002263 0.007102 -0.004239 0.000000 0.000187 0.000000
# 3 -0.008295 -0.004239 0.041788 0.000000 0.012859 0.000000
# 4 0.000000 0.000000 0.000000 0.051437 0.000000 -0.001128
# 5 -0.004253 0.000187 0.012859 0.000000 0.037149 0.000000
# 6 0.000000 0.000000 0.000000 -0.001128 0.000000 0.090417
#
#
# Mechanical properties :
#
#
# Convention : Reuss Voigt Hill
#
# Bulk Modulus (GPa) = 29.83393 52.62273 41.22833
# Shear Modulus (GPa) = 17.67507 25.83880 21.75694
#
# Velocity S-wave (km/s) = 2.79169 3.37538 3.09731
# Velocity P-wave (km/s) = 4.85243 6.19629 5.56507
#
# Compressibility (1/GPa) = 0.03351889
#
# Stress axis : x y z
#
# Youngs Moduli (GPa) = 70.30480 140.80056 23.93053
#
# Poissons Ratio (x) = 0.31869 0.19851
# Poissons Ratio (y) = 0.15913 0.10143
# Poissons Ratio (z) = 0.58320 0.59681
#
# Static dielectric constant tensor:
#      x y z
#    x 1.866100 0.000000 0.027980 
#    y 0.000000 1.877960 0.000000 
#    z 0.027980 0.000000 1.923200 
# 
# From -- ./inp_files/42636.got.cif
#   From: 2010.05.17/outbox.cif.g08.bks.cpg/sg15_22_cif.got.tgz:42636.got - 2010.06.03 18:47:42.
