data_PCOD9258582
_publ_section_title
;
Structure prediction by ZEFSAII (Michael W. Deem and Ramdas Pophale) SiO2 
 PCOD9258582
Probable space group: C 2/C
;
_chemical_formula_sum "Si O2"
_cell_formula_units_Z 36
_cell_length_a 18.442044
_cell_length_b 21.289086
_cell_length_c 8.981587
_cell_angle_alpha 90.000000
_cell_angle_beta 25.252993
_cell_angle_gamma 90.000000
_cell_volume 1504.375585
_symmetry_space_group_name_H-M "C 2/C"
_symmetry_group_IT_number 15
_symmetry_cell_setting 'monoclinic'
loop_
_space_group_symop_operation_xyz
x,y,z
-x,y,1/2-z
-x,-y,-z
x,-y,1/2+z
1/2+x,1/2+y,z
1/2-x,1/2+y,1/2-z
1/2-x,1/2-y,-z
1/2+x,1/2-y,1/2+z
loop_
_atom_site_type_symbol
_atom_site_label
_atom_site_fract_x
_atom_site_fract_y
_atom_site_fract_z
Si Si1 0.144181 0.587194 0.217080
Si Si2 0.013036 0.066999 0.553120
Si Si3 0.148863 0.190955 0.344610
Si Si4 0.500000 0.009065 0.750000
Si Si5 0.590399 0.222022 0.387727
O O1 0.111116 0.551644 0.433984
O O2 0.047744 0.652850 0.402371
O O3 0.100530 0.537591 0.171273
O O4 0.340845 0.603128 0.830357
O O5 0.000000 0.051764 0.750000
O O6 0.159485 0.119093 0.262895
O O7 0.000000 0.000000 0.500000
O O8 0.320875 0.210841 0.113624
O O9 0.068057 0.234170 0.365644
O O10 0.000000 0.189881 0.750000
O O11 0.750000 0.250000 0.000000
#
# Coordination Sequence:
#
# PCOD9258582 Si02
#       5
#     8   8   8   4   8
#     4  11  21  40  60  85 123 157 205 250 303 372
#     4  11  20  35  60  90 121 154 196 252 308 366
#     4   9  18  32  53  93 110 156 199 249 294 367
#     4  10  26  38  58  88 118 166 202 248 310 364
#     4  10  18  33  60  86 116 151 211 244 298 367
#
# _framework density 23.930194
#
# number of rings (size 3 to 8) (size 9 to 14) (size 15 to 20)
#    0.000    1.778    6.667    1.333    4.667    0.000 
#    0.000    0.000    2.444    1.333    0.000    0.000 
#    0.000    0.000    0.000    0.000    0.000    0.000 
#
# Total GULP energy -100473.602875 kJ/mol
# GULP energy per Si atom -5581.866826 kJ/mol
# Density = 2.387573 g / cm^3
# Si number density = 23.930194 Si / 1000 Ang^3
#
#
#
# Elastic Constant Matrix: (Units=GPa)
#
#
# Indices 1 2 3 4 5 6 
#
# 1 115.8639 85.2553 33.7447 0.0023 -20.6700 -0.0015
# 2 85.2553 199.0669 15.6328 0.0043 -0.6873 -0.0015
# 3 33.7447 15.6328 58.9353 0.0113 -22.4909 -0.0035
# 4 0.0023 0.0043 0.0113 15.8144 -0.0026 -7.1497
# 5 -20.6700 -0.6873 -22.4909 -0.0026 43.0920 0.0005
# 6 -0.0015 -0.0015 -0.0035 -7.1497 0.0005 55.7292
#
#
#
# Elastic Compliance Matrix: (Units=1/GPa)
#
#
# Indices 1 2 3 4 5 6 
#
# 1 0.015663 -0.006253 -0.005595 0.000004 0.004493 0.000000
# 2 -0.006253 0.007648 0.000566 -0.000002 -0.002582 0.000000
# 3 -0.005595 0.000566 0.023726 -0.000015 0.009709 -0.000001
# 4 0.000004 -0.000002 -0.000015 0.067127 -0.000002 0.008612
# 5 0.004493 -0.002582 0.009709 -0.000002 0.030388 0.000000
# 6 0.000000 0.000000 -0.000001 0.008612 0.000000 0.019049
#
#
# Mechanical properties :
#
#
# Convention : Reuss Voigt Hill
#
# Bulk Modulus (GPa) = 40.85972 71.45908 56.15940
# Shear Modulus (GPa) = 25.73051 38.87601 32.30326
#
# Velocity S-wave (km/s) = 3.28263 4.03495 3.67808
# Velocity P-wave (km/s) = 5.61063 7.18569 6.44644
#
# Compressibility (1/GPa) = 0.02447398
#
# Stress axis : x y z
#
# Youngs Moduli (GPa) = 63.84397 130.75043 42.14791
#
# Poissons Ratio (x) = 0.81762 0.23581
# Poissons Ratio (y) = 0.39923 -0.02387
# Poissons Ratio (z) = 0.35720 -0.07406
#
# Static dielectric constant tensor:
#      x y z
#    x 1.938760 0.000000 -0.036560 
#    y 0.000000 1.945720 0.000000 
#    z -0.036560 0.000000 2.039230 
# 
# From -- ./inp_files/50542.got.cif
#   From: 2010.05.17/outbox.cif.g08.bks.cpg/sg15_26_cif.got.tgz:50542.got - 2010.06.03 18:47:42.
