data_PCOD9258739
_publ_section_title
;
Structure prediction by ZEFSAII (Michael W. Deem and Ramdas Pophale) SiO2 
 PCOD9258739
Probable space group: C 2/C
;
_chemical_formula_sum "Si O2"
_cell_formula_units_Z 44
_cell_length_a 14.632649
_cell_length_b 8.452581
_cell_length_c 14.435468
_cell_angle_alpha 90.000000
_cell_angle_beta 71.337158
_cell_angle_gamma 90.000000
_cell_volume 1691.549842
_symmetry_space_group_name_H-M "C 2/C"
_symmetry_group_IT_number 15
_symmetry_cell_setting 'monoclinic'
loop_
_space_group_symop_operation_xyz
x,y,z
-x,y,1/2-z
-x,-y,-z
x,-y,1/2+z
1/2+x,1/2+y,z
1/2-x,1/2+y,1/2-z
1/2-x,1/2-y,-z
1/2+x,1/2-y,1/2+z
loop_
_atom_site_type_symbol
_atom_site_label
_atom_site_fract_x
_atom_site_fract_y
_atom_site_fract_z
Si Si1 0.006581 0.821150 0.901846
Si Si2 0.342989 0.097423 0.413837
Si Si3 0.602959 0.576535 0.668158
Si Si4 0.318951 0.459582 0.163927
Si Si5 0.169997 0.327023 0.955522
Si Si6 0.500000 0.093526 0.750000
O O1 0.921911 0.919766 0.878936
O O2 0.083141 0.954098 0.903730
O O3 0.943921 0.717164 0.991757
O O4 0.052157 0.708457 0.807646
O O5 0.260902 0.052757 0.366758
O O6 0.325315 0.010972 0.517637
O O7 0.433493 0.012530 0.335665
O O8 0.361467 0.282835 0.408221
O O9 0.500000 0.623030 0.750000
O O10 0.675140 0.535216 0.727674
O O11 0.310880 0.273170 0.142627
O O12 0.250000 0.250000 0.000000
#
# Coordination Sequence:
#
# PCOD9258739 Si02
#       6
#     8   8   8   8   8   4
#     4  10  19  36  59  77 112 149 184 223 285 329
#     4  10  21  34  58  80 114 142 189 227 277 325
#     4  10  20  37  56  83 113 141 185 231 273 320
#     4  10  20  34  58  82 109 145 187 226 276 332
#     4   9  20  37  56  79 113 151 184 225 279 334
#     4  10  18  34  54  78 108 150 178 224 278 330
#
# _framework density 26.011648000000001
#
# number of rings (size 3 to 8) (size 9 to 14) (size 15 to 20)
#    0.000    2.182    3.636    0.545    2.545    1.455 
#    0.000    7.273    4.000    0.000    0.000    0.000 
#    0.000    0.000    0.000    0.000    0.000    0.000 
#
# Total GULP energy -122973.449357 kJ/mol
# GULP energy per Si atom -5589.702243 kJ/mol
# Density = 2.595244 g / cm^3
# Si number density = 26.011648 Si / 1000 Ang^3
#
#
#
# Elastic Constant Matrix: (Units=GPa)
#
#
# Indices 1 2 3 4 5 6 
#
# 1 67.8074 22.2028 23.5236 0.0000 1.9608 0.0000
# 2 22.2028 98.9697 18.3925 0.0000 -9.6082 0.0000
# 3 23.5236 18.3925 51.0272 0.0000 0.4449 0.0000
# 4 0.0000 0.0000 0.0000 37.2395 0.0000 -6.9268
# 5 1.9608 -9.6082 0.4449 0.0000 31.6843 0.0000
# 6 0.0000 0.0000 0.0000 -6.9268 0.0000 36.5393
#
#
#
# Elastic Compliance Matrix: (Units=1/GPa)
#
#
# Indices 1 2 3 4 5 6 
#
# 1 0.018319 -0.002925 -0.007374 0.000000 -0.001917 0.000000
# 2 -0.002925 0.011662 -0.002888 0.000000 0.003758 0.000000
# 3 -0.007374 -0.002888 0.024044 0.000000 -0.000757 0.000000
# 4 0.000000 0.000000 0.000000 0.027835 0.000000 0.005277
# 5 -0.001917 0.003758 -0.000757 0.000000 0.032830 0.000000
# 6 0.000000 0.000000 0.000000 0.005277 0.000000 0.028368
#
#
# Mechanical properties :
#
#
# Convention : Reuss Voigt Hill
#
# Bulk Modulus (GPa) = 36.16479 38.44912 37.30696
# Shear Modulus (GPa) = 27.98779 31.33832 29.66306
#
# Velocity S-wave (km/s) = 3.28376 3.47476 3.38061
# Velocity P-wave (km/s) = 5.32080 5.55987 5.44165
#
# Compressibility (1/GPa) = 0.02765121
#
# Stress axis : x y z
#
# Youngs Moduli (GPa) = 54.58768 85.74963 41.59009
#
# Poissons Ratio (x) = 0.25086 0.30668
# Poissons Ratio (y) = 0.15969 0.12009
# Poissons Ratio (z) = 0.40253 0.24761
#
# Static dielectric constant tensor:
#      x y z
#    x 2.044820 0.000000 -0.053660 
#    y 0.000000 2.008290 0.000000 
#    z -0.053660 0.000000 2.091860 
# 
# From -- ./inp_files/202619.got.cif
#   From: 2010.05.17/outbox.cif.g08.bks.cpg/sg15_102_cif.got.tgz:202619.got - 2010.06.03 18:47:42.
