data_PCOD9258707
_publ_section_title
;
Structure prediction by ZEFSAII (Michael W. Deem and Ramdas Pophale) SiO2 
 PCOD9258707
Probable space group: C 2/C
;
_chemical_formula_sum "Si O2"
_cell_formula_units_Z 52
_cell_length_a 33.213922
_cell_length_b 10.586161
_cell_length_c 13.690390
_cell_angle_alpha 90.000000
_cell_angle_beta 146.970990
_cell_angle_gamma 90.000000
_cell_volume 2623.745201
_symmetry_space_group_name_H-M "C 2/C"
_symmetry_group_IT_number 15
_symmetry_cell_setting 'monoclinic'
loop_
_space_group_symop_operation_xyz
x,y,z
-x,y,1/2-z
-x,-y,-z
x,-y,1/2+z
1/2+x,1/2+y,z
1/2-x,1/2+y,1/2-z
1/2-x,1/2-y,-z
1/2+x,1/2-y,1/2+z
loop_
_atom_site_type_symbol
_atom_site_label
_atom_site_fract_x
_atom_site_fract_y
_atom_site_fract_z
Si Si1 0.577675 0.189852 0.365156
Si Si2 0.500000 0.434542 0.250000
Si Si3 0.418392 0.999976 0.790500
Si Si4 0.465427 0.245468 0.785889
Si Si5 0.174618 0.650242 0.751033
Si Si6 0.158362 0.889310 0.862801
Si Si7 0.938287 0.930396 0.438504
O O1 0.500000 0.133740 0.250000
O O2 0.555319 0.336752 0.307656
O O3 0.638135 0.169073 0.571566
O O4 0.598249 0.122110 0.307310
O O5 0.547870 0.512853 0.424764
O O6 0.423356 0.117646 0.725859
O O7 0.363834 0.038317 0.765990
O O8 0.500000 0.000000 0.000000
O O9 0.500000 0.238245 0.750000
O O10 0.403787 0.352281 0.683761
O O11 0.534371 0.285977 0.996332
O O12 0.157495 0.778478 0.778101
O O13 0.261220 0.620730 0.926731
O O14 0.136602 0.019138 0.762994
O O15 0.000000 0.000000 0.500000
#
# Coordination Sequence:
#
# PCOD9258707 Si02
#       7
#     8   4   8   8   8   8   8
#     4  10  19  32  57  81 110 148 195 235 273 338
#     4  10  18  34  52  84 108 138 200 226 276 336
#     4  11  21  35  57  86 112 151 189 241 280 333
#     4  10  21  35  57  84 112 145 189 233 283 332
#     4  10  19  36  57  84 115 148 193 231 283 350
#     4   9  19  37  58  80 115 152 181 234 292 342
#     4  10  19  34  56  81 108 144 186 233 276 337
#
# _framework density 19.818998000000001
#
# number of rings (size 3 to 8) (size 9 to 14) (size 15 to 20)
#    0.462    1.538    3.846    0.462    4.308    0.000 
#    2.769    0.000    0.000    0.923    0.000    0.000 
#    0.000    0.000    0.000    0.000    0.000    0.000 
#
# Total GULP energy -144860.247844 kJ/mol
# GULP energy per Si atom -5571.547994 kJ/mol
# Density = 1.977389 g / cm^3
# Si number density = 19.818998 Si / 1000 Ang^3
#
#
#
# Elastic Constant Matrix: (Units=GPa)
#
#
# Indices 1 2 3 4 5 6 
#
# 1 60.8162 -1.1401 23.4243 0.0000 2.1171 0.0000
# 2 -1.1401 37.3227 1.5286 0.0000 -3.9881 0.0000
# 3 23.4243 1.5286 118.5806 0.0000 2.5786 0.0000
# 4 0.0000 0.0000 0.0000 22.9899 0.0000 -3.0925
# 5 2.1171 -3.9881 2.5786 0.0000 28.6085 0.0000
# 6 0.0000 0.0000 0.0000 -3.0925 0.0000 23.1227
#
#
#
# Elastic Compliance Matrix: (Units=1/GPa)
#
#
# Indices 1 2 3 4 5 6 
#
# 1 0.017839 0.000590 -0.003511 0.000000 -0.000921 0.000000
# 2 0.000590 0.027240 -0.000550 0.000000 0.003803 0.000000
# 3 -0.003511 -0.000550 0.009148 0.000000 -0.000641 0.000000
# 4 0.000000 0.000000 0.000000 0.044294 0.000000 0.005924
# 5 -0.000921 0.003803 -0.000641 0.000000 0.035611 0.000000
# 6 0.000000 0.000000 0.000000 0.005924 0.000000 0.044040
#
#
# Mechanical properties :
#
#
# Convention : Reuss Voigt Hill
#
# Bulk Modulus (GPa) = 21.14900 29.37169 25.26034
# Shear Modulus (GPa) = 24.89099 27.80468 26.34784
#
# Velocity S-wave (km/s) = 3.54774 3.74963 3.65008
# Velocity P-wave (km/s) = 5.24177 5.79642 5.52606
#
# Compressibility (1/GPa) = 0.04728355
#
# Stress axis : x y z
#
# Youngs Moduli (GPa) = 56.05817 36.71028 109.31634
#
# Poissons Ratio (x) = -0.02167 0.38385
# Poissons Ratio (y) = -0.03309 0.06017
# Poissons Ratio (z) = 0.19684 0.02021
#
# Static dielectric constant tensor:
#      x y z
#    x 1.707050 0.000000 -0.010660 
#    y 0.000000 1.806350 0.000000 
#    z -0.010660 0.000000 1.702490 
# 
# From -- ./inp_files/126472.got.cif
#   From: 2010.05.17/outbox.cif.g08.bks.cpg/sg15_64_cif.got.tgz:126472.got - 2010.06.03 18:47:42.
