data_PCOD9258250
_publ_section_title
;
Structure prediction by ZEFSAII (Michael W. Deem and Ramdas Pophale) SiO2 
 PCOD9258250
Probable space group: C 2/C
;
_chemical_formula_sum "Si O2"
_cell_formula_units_Z 48
_cell_length_a 21.040951
_cell_length_b 5.344988
_cell_length_c 19.325786
_cell_angle_alpha 90.000000
_cell_angle_beta 76.065154
_cell_angle_gamma 90.000000
_cell_volume 2109.483918
_symmetry_space_group_name_H-M "C 2/C"
_symmetry_group_IT_number 15
_symmetry_cell_setting 'monoclinic'
loop_
_space_group_symop_operation_xyz
x,y,z
-x,y,1/2-z
-x,-y,-z
x,-y,1/2+z
1/2+x,1/2+y,z
1/2-x,1/2+y,1/2-z
1/2-x,1/2-y,-z
1/2+x,1/2-y,1/2+z
loop_
_atom_site_type_symbol
_atom_site_label
_atom_site_fract_x
_atom_site_fract_y
_atom_site_fract_z
Si Si1 0.959642 0.176059 0.662211
Si Si2 0.559980 0.974200 0.699448
Si Si3 0.224413 0.680470 0.845495
Si Si4 0.393260 0.923243 0.559085
Si Si5 0.196434 0.682798 0.691508
Si Si6 0.012702 0.208365 0.055450
O O1 0.024689 0.356311 0.642372
O O2 0.931944 0.247279 0.745238
O O3 0.902190 0.232166 0.621808
O O4 0.992681 0.917974 0.632457
O O5 0.500000 0.122484 0.750000
O O6 0.626211 0.120647 0.678182
O O7 0.170682 0.589406 0.914849
O O8 0.192847 0.669287 0.776485
O O9 0.255039 0.956754 0.844614
O O10 0.278054 0.458688 0.832627
O O11 0.413238 0.794161 0.481635
O O12 0.455313 0.097764 0.556153
O O13 0.000000 0.000000 0.000000
#
# Coordination Sequence:
#
# PCOD9258250 Si02
#       6
#     8   8   8   8   8   8
#     4   8  17  33  52  78 107 142 175 234 275 333
#     4   8  17  35  53  79 112 141 184 225 282 336
#     4  10  21  32  57  76 117 145 185 229 278 339
#     4  10  18  33  52  84 103 145 182 236 280 321
#     4  10  20  36  50  84 109 151 182 226 282 340
#     4   9  19  31  54  80 108 135 190 232 279 321
#
# _framework density 22.754382
#
# number of rings (size 3 to 8) (size 9 to 14) (size 15 to 20)
#    1.000    1.667    1.667    0.000    4.667    1.333 
#    3.000    2.500    0.000    2.000    0.000    0.000 
#    0.000    0.000    0.000    0.000    0.000    0.000 
#
# Total GULP energy -133601.898371 kJ/mol
# GULP energy per Si atom -5566.745765 kJ/mol
# Density = 2.270259 g / cm^3
# Si number density = 22.754382 Si / 1000 Ang^3
#
#
#
# Elastic Constant Matrix: (Units=GPa)
#
#
# Indices 1 2 3 4 5 6 
#
# 1 71.4690 -3.7758 -0.2166 0.0000 -3.4865 0.0000
# 2 -3.7758 45.4785 19.6255 0.0000 5.2471 0.0000
# 3 -0.2166 19.6255 54.4549 0.0000 -8.8242 0.0000
# 4 0.0000 0.0000 0.0000 31.1303 0.0000 -11.4586
# 5 -3.4865 5.2471 -8.8242 0.0000 26.8508 0.0000
# 6 0.0000 0.0000 0.0000 -11.4586 0.0000 -16.8348
#
#
#
# Elastic Compliance Matrix: (Units=1/GPa)
#
#
# Indices 1 2 3 4 5 6 
#
# 1 0.014124 0.001004 -0.000042 0.000000 0.001624 0.000000
# 2 0.001004 0.028152 -0.011632 0.000000 -0.009194 0.000000
# 3 -0.000042 -0.011632 0.024213 0.000000 0.010225 0.000000
# 4 0.000000 0.000000 0.000000 0.025687 0.000000 -0.017484
# 5 0.001624 -0.009194 0.010225 0.000000 0.042611 0.000000
# 6 0.000000 0.000000 0.000000 -0.017484 0.000000 -0.047500
#
#
# Mechanical properties :
#
#
# Convention : Reuss Voigt Hill
#
# Bulk Modulus (GPa) = 22.14954 22.51873 22.33413
# Shear Modulus (GPa) = 40.42793 18.61388 29.52091
#
# Velocity S-wave (km/s) = 4.21968 2.86323 3.60581
# Velocity P-wave (km/s) = 5.78759 4.56604 5.21272
#
# Compressibility (1/GPa) = 0.04514767
#
# Stress axis : x y z
#
# Youngs Moduli (GPa) = 70.80054 35.52151 41.30078
#
# Poissons Ratio (x) = -0.03565 0.00175
# Poissons Ratio (y) = -0.07105 0.48040
# Poissons Ratio (z) = 0.00300 0.41318
#
# Static dielectric constant tensor:
#      x y z
#    x 1.828930 0.000000 0.001560 
#    y 0.000000 2.038240 0.000000 
#    z 0.001560 0.000000 1.955700 
# 
# From -- ./inp_files/250794.got.cif
#   From: 2010.05.17/outbox.cif.g08.bks.cpg/sg15_126_cif.got.tgz:250794.got - 2010.06.03 18:47:42.
