data_PCOD9258150
_publ_section_title
;
Structure prediction by ZEFSAII (Michael W. Deem and Ramdas Pophale) SiO2 
 PCOD9258150
Probable space group: C 2/C
;
_chemical_formula_sum "Si O2"
_cell_formula_units_Z 44
_cell_length_a 8.786730
_cell_length_b 11.918376
_cell_length_c 32.568094
_cell_angle_alpha 90.000000
_cell_angle_beta 33.019746
_cell_angle_gamma 90.000000
_cell_volume 1858.556890
_symmetry_space_group_name_H-M "C 2/C"
_symmetry_group_IT_number 15
_symmetry_cell_setting 'monoclinic'
loop_
_space_group_symop_operation_xyz
x,y,z
-x,y,1/2-z
-x,-y,-z
x,-y,1/2+z
1/2+x,1/2+y,z
1/2-x,1/2+y,1/2-z
1/2-x,1/2-y,-z
1/2+x,1/2-y,1/2+z
loop_
_atom_site_type_symbol
_atom_site_label
_atom_site_fract_x
_atom_site_fract_y
_atom_site_fract_z
Si Si1 0.343273 0.548995 0.394253
Si Si2 0.364449 0.231762 0.695531
Si Si3 0.744829 0.175020 0.864058
Si Si4 0.500000 0.278222 0.750000
Si Si5 0.882030 0.318825 0.905173
Si Si6 0.716600 0.600941 0.522148
O O1 0.564605 0.637247 0.327605
O O2 0.288975 0.442356 0.377074
O O3 0.410514 0.502868 0.424215
O O4 0.041073 0.606875 0.463241
O O5 0.443817 0.174372 0.634221
O O6 0.498793 0.204118 0.709091
O O7 0.045916 0.208455 0.778369
O O8 0.700559 0.271015 0.908479
O O9 0.203448 0.345741 0.819020
O O10 0.731950 0.405067 0.969623
O O11 0.914193 0.212430 0.928950
#
# Coordination Sequence:
#
# PCOD9258150 Si02
#       6
#     8   8   8   4   8   8
#     4  10  19  37  64  88 116 170 206 246 313 375
#     4  10  20  38  60  92 124 160 205 263 306 362
#     4   9  21  38  59  90 126 157 207 263 305 361
#     4  10  18  32  62  86 110 166 200 242 318 356
#     4   9  17  35  59  88 123 163 199 256 311 359
#     4   9  18  34  61  87 122 163 206 243 308 382
#
# _framework density 23.674281000000001
#
# number of rings (size 3 to 8) (size 9 to 14) (size 15 to 20)
#    0.000    2.545    1.818    0.000    0.000    1.455 
#    0.000   25.455    0.000    0.000    0.000    0.000 
#    0.000    0.000    0.000    0.000    0.000    0.000 
#
# Total GULP energy -122492.618881 kJ/mol
# GULP energy per Si atom -5567.846313 kJ/mol
# Density = 2.362040 g / cm^3
# Si number density = 23.674281 Si / 1000 Ang^3
#
#
#
# Elastic Constant Matrix: (Units=GPa)
#
#
# Indices 1 2 3 4 5 6 
#
# 1 81.9720 25.8028 47.2893 -0.0012 42.5605 -0.0183
# 2 25.8028 75.9896 42.9185 0.0013 9.7683 -0.0054
# 3 47.2893 42.9185 112.9193 -0.0148 35.6504 -0.0248
# 4 -0.0012 0.0013 -0.0148 35.8095 0.0080 -2.4821
# 5 42.5605 9.7683 35.6504 0.0080 36.1918 0.0070
# 6 -0.0183 -0.0054 -0.0248 -2.4821 0.0070 28.7855
#
#
#
# Elastic Compliance Matrix: (Units=1/GPa)
#
#
# Indices 1 2 3 4 5 6 
#
# 1 0.034355 -0.006986 0.000621 0.000013 -0.039126 0.000032
# 2 -0.006986 0.018340 -0.007367 -0.000007 0.010523 -0.000011
# 3 0.000621 -0.007367 0.015963 0.000011 -0.014466 0.000017
# 4 0.000013 -0.000007 0.000011 0.028093 -0.000031 0.002422
# 5 -0.039126 0.010523 -0.014466 -0.000031 0.085051 -0.000059
# 6 0.000032 -0.000011 0.000017 0.002422 -0.000059 0.034949
#
#
# Mechanical properties :
#
#
# Convention : Reuss Voigt Hill
#
# Bulk Modulus (GPa) = 24.27615 55.87802 40.07709
# Shear Modulus (GPa) = 19.38374 30.48208 24.93291
#
# Velocity S-wave (km/s) = 2.86452 3.59215 3.24877
# Velocity P-wave (km/s) = 4.60620 6.39209 5.57117
#
# Compressibility (1/GPa) = 0.04119269
#
# Stress axis : x y z
#
# Youngs Moduli (GPa) = 29.10785 54.52498 62.64433
#
# Poissons Ratio (x) = 0.38094 -0.03889
# Poissons Ratio (y) = 0.20336 0.46151
# Poissons Ratio (z) = -0.01807 0.40169
#
# Static dielectric constant tensor:
#      x y z
#    x 2.097020 0.000000 0.064450 
#    y 0.000000 1.909340 0.000010 
#    z 0.064450 0.000010 1.921860 
# 
# From -- ./inp_files/307710.got.cif
#   From: 2010.05.17/outbox.cif.g08.bks.cpg/sg15_154_cif.got.tgz:307710.got - 2010.06.03 18:47:42.
