data_PCOD9258496
_publ_section_title
;
Structure prediction by ZEFSAII (Michael W. Deem and Ramdas Pophale) SiO2 
 PCOD9258496
Probable space group: C 2/C
;
_chemical_formula_sum "Si O2"
_cell_formula_units_Z 64
_cell_length_a 9.172532
_cell_length_b 21.388840
_cell_length_c 23.028130
_cell_angle_alpha 90.000000
_cell_angle_beta 130.040705
_cell_angle_gamma 90.000000
_cell_volume 3458.836433
_symmetry_space_group_name_H-M "C 2/C"
_symmetry_group_IT_number 15
_symmetry_cell_setting 'monoclinic'
loop_
_space_group_symop_operation_xyz
x,y,z
-x,y,1/2-z
-x,-y,-z
x,-y,1/2+z
1/2+x,1/2+y,z
1/2-x,1/2+y,1/2-z
1/2-x,1/2-y,-z
1/2+x,1/2-y,1/2+z
loop_
_atom_site_type_symbol
_atom_site_label
_atom_site_fract_x
_atom_site_fract_y
_atom_site_fract_z
Si Si1 0.365160 0.581451 0.356527
Si Si2 0.299374 0.879951 0.993672
Si Si3 0.254412 0.869074 0.551240
Si Si4 0.306466 0.956378 0.164979
Si Si5 0.823735 0.167478 0.913636
Si Si6 0.929256 0.495091 0.571419
Si Si7 0.380448 0.192156 0.402720
Si Si8 0.710177 0.580184 0.293182
O O1 0.582189 0.604178 0.418606
O O2 0.251602 0.610436 0.382326
O O3 0.352162 0.506108 0.356830
O O4 0.271955 0.594924 0.270473
O O5 0.393344 0.833856 0.971577
O O6 0.282607 0.846559 0.052302
O O7 0.409734 0.946708 0.023034
O O8 0.304765 0.932821 0.529059
O O9 0.418013 0.819491 0.577666
O O10 0.046505 0.844989 0.482680
O O11 0.500000 0.966959 0.250000
O O12 0.245755 0.884635 0.149631
O O13 0.345138 0.974262 0.108347
O O14 0.807276 0.237582 0.886861
O O15 0.134708 0.467570 0.641336
O O16 0.237977 0.144938 0.334063
O O17 0.500000 0.554827 0.250000
#
# Coordination Sequence:
#
# PCOD9258496 Si02
#       8
#     8   8   8   8   8   8   8   8
#     4  10  19  37  59  82 111 139 182 232 286 323
#     4  10  20  37  57  82 111 147 185 233 273 325
#     4   9  20  35  59  80 105 141 183 235 269 324
#     4  10  18  33  58  80 106 143 178 226 269 330
#     4  10  21  37  55  80 110 147 188 222 270 325
#     4   9  19  34  56  85 106 137 188 225 283 323
#     4  11  22  35  55  81 112 148 187 223 271 330
#     4  11  21  35  55  86 115 145 179 231 285 339
#
# _framework density 18.503332
#
# number of rings (size 3 to 8) (size 9 to 14) (size 15 to 20)
#    0.000    2.000    2.500    1.500    0.000    5.500 
#    2.250    0.000    0.000    0.000    0.000    0.000 
#    0.000    0.000    0.000    0.000    0.000    0.000 
#
# Total GULP energy -178438.477029 kJ/mol
# GULP energy per Si atom -5576.202407 kJ/mol
# Density = 1.846122 g / cm^3
# Si number density = 18.503332 Si / 1000 Ang^3
#
#
#
# Elastic Constant Matrix: (Units=GPa)
#
#
# Indices 1 2 3 4 5 6 
#
# 1 64.0563 16.2929 1.2936 0.0000 1.3349 0.0000
# 2 16.2929 105.6096 -5.3102 0.0000 -4.4715 0.0000
# 3 1.2936 -5.3102 13.7408 0.0000 -0.0560 0.0000
# 4 0.0000 0.0000 0.0000 11.0091 0.0000 -9.3221
# 5 1.3349 -4.4715 -0.0560 0.0000 21.5904 0.0000
# 6 0.0000 0.0000 0.0000 -9.3221 0.0000 6.1931
#
#
#
# Elastic Compliance Matrix: (Units=1/GPa)
#
#
# Indices 1 2 3 4 5 6 
#
# 1 0.016390 -0.002727 -0.002603 0.000000 -0.001585 0.000000
# 2 -0.002727 0.010198 0.004207 0.000000 0.002292 0.000000
# 3 -0.002603 0.004207 0.074652 0.000001 0.001226 0.000002
# 4 0.000000 0.000000 0.000001 -0.330801 0.000001 -0.497936
# 5 -0.001585 0.002292 0.001226 0.000001 0.046893 0.000001
# 6 0.000000 0.000000 0.000002 -0.497936 0.000001 -0.588043
#
#
# Mechanical properties :
#
#
# Convention : Reuss Voigt Hill
#
# Bulk Modulus (GPa) = 10.10154 23.10660 16.60407
# Shear Modulus (GPa) = -6.79839 19.16721 6.18441
#
# Velocity S-wave (km/s) = -1.91889 3.22200 1.83019
# Velocity P-wave (km/s) = 0.74944 5.13387 3.66867
#
# Compressibility (1/GPa) = 0.09899481
#
# Stress axis : x y z
#
# Youngs Moduli (GPa) = 61.01133 98.05802 13.39552
#
# Poissons Ratio (x) = 0.26737 0.03487
# Poissons Ratio (y) = 0.16635 -0.05636
# Poissons Ratio (z) = 0.15883 -0.41254
#
# Static dielectric constant tensor:
#      x y z
#    x 1.680160 0.000000 -0.037810 
#    y 0.000000 1.639590 0.000000 
#    z -0.037810 0.000000 1.683380 
# 
# From -- ./inp_files/266070.got.cif
#   From: 2010.05.17/outbox.cif.g08.bks.cpg/sg15_134_cif.got.tgz:266070.got - 2010.06.03 18:47:42.
