data_PCOD9258001
_publ_section_title
;
Structure prediction by ZEFSAII (Michael W. Deem and Ramdas Pophale) SiO2 
 PCOD9258001
Probable space group: C 2/C
;
_chemical_formula_sum "Si O2"
_cell_formula_units_Z 48
_cell_length_a 12.180608
_cell_length_b 12.662581
_cell_length_c 28.616136
_cell_angle_alpha 90.000000
_cell_angle_beta 154.518493
_cell_angle_gamma 90.000000
_cell_volume 1898.858227
_symmetry_space_group_name_H-M "C 2/C"
_symmetry_group_IT_number 15
_symmetry_cell_setting 'monoclinic'
loop_
_space_group_symop_operation_xyz
x,y,z
-x,y,1/2-z
-x,-y,-z
x,-y,1/2+z
1/2+x,1/2+y,z
1/2-x,1/2+y,1/2-z
1/2-x,1/2-y,-z
1/2+x,1/2-y,1/2+z
loop_
_atom_site_type_symbol
_atom_site_label
_atom_site_fract_x
_atom_site_fract_y
_atom_site_fract_z
Si Si1 0.018383 0.659668 0.808483
Si Si2 0.897177 0.190745 0.773141
Si Si3 0.366247 0.918211 0.758341
Si Si4 0.050410 0.037654 0.324706
Si Si5 0.567691 0.580388 0.484884
Si Si6 0.114360 0.354428 0.471338
O O1 0.000000 0.702561 0.750000
O O2 0.792335 0.695971 0.754892
O O3 0.987776 0.532108 0.796551
O O4 0.303673 0.675835 0.937001
O O5 0.016624 0.307377 0.816679
O O6 0.686919 0.165023 0.651508
O O7 0.071519 0.088047 0.843067
O O8 0.198181 0.928578 0.740655
O O9 0.171552 0.903946 0.640340
O O10 0.000000 0.053104 0.250000
O O11 0.277081 0.100867 0.438256
O O12 0.500000 0.500000 0.500000
O O13 0.787554 0.558098 0.529805
O O14 0.250000 0.250000 0.500000
#
# Coordination Sequence:
#
# PCOD9258001 Si02
#       6
#     8   8   8   8   8   8
#     4  10  20  32  57  89 114 149 196 247 283 343
#     4  10  21  38  60  84 118 160 191 241 299 348
#     4  10  20  39  57  83 120 154 194 239 295 350
#     4  10  22  38  59  91 117 154 204 241 286 356
#     4  10  18  32  57  86 115 150 188 241 295 343
#     4  10  19  39  62  84 118 158 194 240 296 350
#
# _framework density 25.278348000000001
#
# number of rings (size 3 to 8) (size 9 to 14) (size 15 to 20)
#    0.000    2.000    5.000    0.000    0.000    2.000 
#    0.000    0.000    0.000   25.000    0.000    0.000 
#    0.000    0.000    0.000    0.000    0.000    0.000 
#
# Total GULP energy -133838.944341 kJ/mol
# GULP energy per Si atom -5576.622681 kJ/mol
# Density = 2.522081 g / cm^3
# Si number density = 25.278348 Si / 1000 Ang^3
#
#
#
# Elastic Constant Matrix: (Units=GPa)
#
#
# Indices 1 2 3 4 5 6 
#
# 1 114.3661 14.8754 9.1203 0.0003 -47.2270 0.0001
# 2 14.8754 164.7102 -12.4647 0.0008 1.9387 0.0001
# 3 9.1203 -12.4647 86.5626 0.0030 -36.5911 0.0001
# 4 0.0003 0.0008 0.0030 15.4868 0.0004 3.5526
# 5 -47.2270 1.9387 -36.5911 0.0004 57.6671 0.0002
# 6 0.0001 0.0001 0.0001 3.5526 0.0002 29.3262
#
#
#
# Elastic Compliance Matrix: (Units=1/GPa)
#
#
# Indices 1 2 3 4 5 6 
#
# 1 0.014743 -0.001157 0.004647 -0.000002 0.015062 0.000000
# 2 -0.001157 0.006239 0.000726 0.000000 -0.000697 0.000000
# 3 0.004647 0.000726 0.017445 -0.000004 0.014850 0.000000
# 4 -0.000002 0.000000 -0.000004 0.066417 -0.000004 -0.008046
# 5 0.015062 -0.000697 0.014850 -0.000004 0.039122 0.000000
# 6 0.000000 0.000000 0.000000 -0.008046 0.000000 0.035074
#
#
# Mechanical properties :
#
#
# Convention : Reuss Voigt Hill
#
# Bulk Modulus (GPa) = 21.34127 43.18897 32.26512
# Shear Modulus (GPa) = 26.84876 44.10320 35.47598
#
# Velocity S-wave (km/s) = 3.26256 4.18150 3.75028
# Velocity P-wave (km/s) = 4.75954 6.35890 5.61644
#
# Compressibility (1/GPa) = 0.04685756
#
# Stress axis : x y z
#
# Youngs Moduli (GPa) = 67.82670 160.28480 57.32439
#
# Poissons Ratio (x) = 0.18547 -0.26637
# Poissons Ratio (y) = 0.07849 -0.04160
# Poissons Ratio (z) = -0.31517 -0.11632
#
# Static dielectric constant tensor:
#      x y z
#    x 2.068540 0.000000 -0.011040 
#    y 0.000000 2.146080 0.000000 
#    z -0.011040 0.000000 2.137500 
# 
# From -- ./inp_files/296455.got.cif
#   From: 2010.05.17/outbox.cif.g08.bks.cpg/sg15_149_cif.got.tgz:296455.got - 2010.06.03 18:47:42.
