data_PCOD9258697
_publ_section_title
;
Structure prediction by ZEFSAII (Michael W. Deem and Ramdas Pophale) SiO2 
 PCOD9258697
Probable space group: C 2/C
;
_chemical_formula_sum "Si O2"
_cell_formula_units_Z 40
_cell_length_a 16.029678
_cell_length_b 25.663778
_cell_length_c 16.374165
_cell_angle_alpha 90.000000
_cell_angle_beta 161.678349
_cell_angle_gamma 90.000000
_cell_volume 2117.481761
_symmetry_space_group_name_H-M "C 2/C"
_symmetry_group_IT_number 15
_symmetry_cell_setting 'monoclinic'
loop_
_space_group_symop_operation_xyz
x,y,z
-x,y,1/2-z
-x,-y,-z
x,-y,1/2+z
1/2+x,1/2+y,z
1/2-x,1/2+y,1/2-z
1/2-x,1/2-y,-z
1/2+x,1/2-y,1/2+z
loop_
_atom_site_type_symbol
_atom_site_label
_atom_site_fract_x
_atom_site_fract_y
_atom_site_fract_z
Si Si1 0.434376 0.217585 0.284361
Si Si2 0.275330 0.382786 0.817362
Si Si3 0.500000 0.108150 0.750000
Si Si4 0.826833 0.994512 0.920587
Si Si5 0.500000 0.464474 0.750000
Si Si6 0.637295 0.106533 0.708868
O O1 0.500000 0.208230 0.250000
O O2 0.706993 0.238092 0.577069
O O3 0.316124 0.166330 0.215425
O O4 0.213816 0.436476 0.809013
O O5 0.103100 0.383926 0.575087
O O6 0.584777 0.381882 0.078403
O O7 0.252973 0.073057 0.490812
O O8 0.601446 0.136021 0.761916
O O9 0.641819 0.045049 0.738071
O O10 0.000000 0.000000 0.000000
O O11 0.983327 0.002271 0.151049
#
# Coordination Sequence:
#
# PCOD9258697 Si02
#       6
#     8   8   4   8   4   8
#     4  10  22  43  62  82 112 145 190 249 294 334
#     4  11  21  36  57  85 108 149 191 234 292 338
#     4  10  18  34  52  76 114 156 190 214 266 330
#     4   9  19  35  50  78 119 151 184 236 272 333
#     4  10  20  32  48  74 108 162 196 218 272 326
#     4  10  20  34  55  82 118 151 187 226 273 343
#
# _framework density 18.890363000000001
#
# number of rings (size 3 to 8) (size 9 to 14) (size 15 to 20)
#    0.000    2.000    0.000    5.400    0.000    4.800 
#   19.800    0.000    0.000    0.000    0.000   14.000 
#    0.000    0.000    0.000    0.000    0.000    0.000 
#
# Total GULP energy -111492.184671 kJ/mol
# GULP energy per Si atom -5574.609234 kJ/mol
# Density = 1.884737 g / cm^3
# Si number density = 18.890363 Si / 1000 Ang^3
#
#
#
# Elastic Constant Matrix: (Units=GPa)
#
#
# Indices 1 2 3 4 5 6 
#
# 1 75.0050 26.1751 20.1478 0.0025 -6.5193 0.0035
# 2 26.1751 68.3239 -0.3869 0.0021 0.1993 0.0026
# 3 20.1478 -0.3869 79.6548 0.0095 -1.8116 0.0099
# 4 0.0025 0.0021 0.0095 15.5137 0.0018 5.2963
# 5 -6.5193 0.1993 -1.8116 0.0018 33.9651 0.0037
# 6 0.0035 0.0026 0.0099 5.2963 0.0037 15.4213
#
#
#
# Elastic Compliance Matrix: (Units=1/GPa)
#
#
# Indices 1 2 3 4 5 6 
#
# 1 0.017037 -0.006560 -0.004271 0.000001 0.003081 -0.000001
# 2 -0.006560 0.017163 0.001714 -0.000002 -0.001268 -0.000002
# 3 -0.004271 0.001714 0.013640 -0.000006 -0.000102 -0.000006
# 4 0.000001 -0.000002 -0.000006 0.073021 -0.000001 -0.025078
# 5 0.003081 -0.001268 -0.000102 -0.000001 0.030035 -0.000007
# 6 -0.000001 -0.000002 -0.000006 -0.025078 -0.000007 0.073458
#
#
# Mechanical properties :
#
#
# Convention : Reuss Voigt Hill
#
# Bulk Modulus (GPa) = 33.77755 34.98395 34.38075
# Shear Modulus (GPa) = 19.80532 24.78322 22.29427
#
# Velocity S-wave (km/s) = 3.24147 3.62602 3.43912
# Velocity P-wave (km/s) = 5.65059 6.00752 5.83179
#
# Compressibility (1/GPa) = 0.02960546
#
# Stress axis : x y z
#
# Youngs Moduli (GPa) = 58.69641 58.26576 73.31118
#
# Poissons Ratio (x) = 0.38222 0.31312
# Poissons Ratio (y) = 0.38505 -0.12564
# Poissons Ratio (z) = 0.25070 -0.09986
#
# Static dielectric constant tensor:
#      x y z
#    x 1.173450 0.000000 -0.130890 
#    y 0.000000 1.656560 0.000000 
#    z -0.130890 0.000000 1.618420 
# 
# From -- ./inp_files/157172.got.cif
#   From: 2010.05.17/outbox.cif.g08.bks.cpg/sg15_79_cif.got.tgz:157172.got - 2010.06.03 18:47:42.
