data_PCOD9258278
_publ_section_title
;
Structure prediction by ZEFSAII (Michael W. Deem and Ramdas Pophale) SiO2 
 PCOD9258278
Probable space group: C 2/C
;
_chemical_formula_sum "Si O2"
_cell_formula_units_Z 64
_cell_length_a 16.370953
_cell_length_b 16.512260
_cell_length_c 12.094550
_cell_angle_alpha 90.000000
_cell_angle_beta 63.160552
_cell_angle_gamma 90.000000
_cell_volume 2917.218818
_symmetry_space_group_name_H-M "C 2/C"
_symmetry_group_IT_number 15
_symmetry_cell_setting 'monoclinic'
loop_
_space_group_symop_operation_xyz
x,y,z
-x,y,1/2-z
-x,-y,-z
x,-y,1/2+z
1/2+x,1/2+y,z
1/2-x,1/2+y,1/2-z
1/2-x,1/2-y,-z
1/2+x,1/2-y,1/2+z
loop_
_atom_site_type_symbol
_atom_site_label
_atom_site_fract_x
_atom_site_fract_y
_atom_site_fract_z
Si Si1 0.723324 0.550041 0.798475
Si Si2 0.521157 0.448232 0.351537
Si Si3 0.336279 0.725279 0.580924
Si Si4 0.284083 0.099057 0.377106
Si Si5 0.830457 0.792969 0.723236
Si Si6 0.457510 0.837451 0.664278
Si Si7 0.514680 0.625116 0.091947
Si Si8 0.858408 0.370642 0.066536
O O1 0.627871 0.526553 0.797979
O O2 0.701379 0.640670 0.849396
O O3 0.743901 0.490481 0.886968
O O4 0.811030 0.557391 0.664982
O O5 0.500000 0.405449 0.250000
O O6 0.465228 0.532923 0.384591
O O7 0.497571 0.392706 0.470695
O O8 0.243852 0.778423 0.633616
O O9 0.400980 0.773193 0.627314
O O10 0.406716 0.692404 0.447048
O O11 0.221354 0.155450 0.339327
O O12 0.383954 0.100104 0.258738
O O13 0.296465 0.132884 0.492891
O O14 0.922142 0.839850 0.698337
O O15 0.855894 0.709189 0.645042
O O16 0.500000 0.799293 0.750000
O O17 0.538110 0.876627 0.541987
#
# Coordination Sequence:
#
# PCOD9258278 Si02
#       8
#     8   8   8   8   8   8   8   8
#     4  10  21  33  49  83 111 148 181 222 276 335
#     4  10  22  35  52  82 112 150 192 225 280 344
#     4   9  19  32  51  80 108 140 182 221 274 338
#     4  10  20  34  51  78 118 141 185 230 273 336
#     4  10  18  33  53  80 110 143 180 228 285 333
#     4   9  18  33  52  81 108 143 182 236 283 326
#     4  10  19  35  57  77 115 148 177 239 285 322
#     4  10  20  33  55  80 106 147 182 224 286 324
#
# _framework density 21.938703
#
# number of rings (size 3 to 8) (size 9 to 14) (size 15 to 20)
#    0.000    2.250    2.500    0.375    1.750    3.500 
#    2.250    0.000    0.000    0.750    9.750    0.000 
#    0.000    0.000    0.000    0.000    0.000    0.000 
#
# Total GULP energy -178353.973681 kJ/mol
# GULP energy per Si atom -5573.561678 kJ/mol
# Density = 2.188877 g / cm^3
# Si number density = 21.938703 Si / 1000 Ang^3
#
#
#
# Elastic Constant Matrix: (Units=GPa)
#
#
# Indices 1 2 3 4 5 6 
#
# 1 76.0857 23.4202 21.9354 0.0000 -19.7158 0.0000
# 2 23.4202 50.2645 12.9771 0.0000 -8.5757 0.0000
# 3 21.9354 12.9771 78.8421 0.0000 -17.5926 0.0000
# 4 0.0000 0.0000 0.0000 688.0738 0.0000 -431.2133
# 5 -19.7158 -8.5757 -17.5926 0.0000 39.9493 0.0000
# 6 0.0000 0.0000 0.0000 -431.2133 0.0000 281.0301
#
#
#
# Elastic Compliance Matrix: (Units=1/GPa)
#
#
# Indices 1 2 3 4 5 6 
#
# 1 0.017415 -0.006442 -0.002413 0.000000 0.006149 0.000000
# 2 -0.006442 0.023555 -0.001847 0.000000 0.001063 0.000000
# 3 -0.002413 -0.001847 0.014755 0.000000 0.004910 0.000000
# 4 0.000000 0.000000 0.000000 0.037852 0.000000 0.058079
# 5 0.006149 0.001063 0.004910 0.000000 0.030457 0.000000
# 6 0.000000 0.000000 0.000000 0.058079 0.000000 0.092676
#
#
# Mechanical properties :
#
#
# Convention : Reuss Voigt Hill
#
# Bulk Modulus (GPa) = 29.13778 35.76199 32.44988
# Shear Modulus (GPa) = 20.03577 211.60127 115.81852
#
# Velocity S-wave (km/s) = 3.02530 9.83161 7.27368
# Velocity P-wave (km/s) = 5.05109 12.05060 9.23933
#
# Compressibility (1/GPa) = 0.03431970
#
# Stress axis : x y z
#
# Youngs Moduli (GPa) = 57.42132 42.45409 67.77559
#
# Poissons Ratio (x) = 0.27350 0.16352
# Poissons Ratio (y) = 0.36993 0.12521
# Poissons Ratio (z) = 0.13854 0.07843
#
# Static dielectric constant tensor:
#      x y z
#    x 1.826420 0.000000 -0.050810 
#    y 0.000000 1.774750 0.000000 
#    z -0.050810 0.000000 1.902330 
# 
# From -- ./inp_files/162258.got.cif
#   From: 2010.05.17/outbox.cif.g08.bks.cpg/sg15_82_cif.got.tgz:162258.got - 2010.06.03 18:47:42.
