data_PCOD9258066
_publ_section_title
;
Structure prediction by ZEFSAII (Michael W. Deem and Ramdas Pophale) SiO2 
 PCOD9258066
Probable space group: C 2/C
;
_chemical_formula_sum "Si O2"
_cell_formula_units_Z 52
_cell_length_a 16.843115
_cell_length_b 14.844298
_cell_length_c 10.732538
_cell_angle_alpha 90.000000
_cell_angle_beta 124.928479
_cell_angle_gamma 90.000000
_cell_volume 2200.027578
_symmetry_space_group_name_H-M "C 2/C"
_symmetry_group_IT_number 15
_symmetry_cell_setting 'monoclinic'
loop_
_space_group_symop_operation_xyz
x,y,z
-x,y,1/2-z
-x,-y,-z
x,-y,1/2+z
1/2+x,1/2+y,z
1/2-x,1/2+y,1/2-z
1/2-x,1/2-y,-z
1/2+x,1/2-y,1/2+z
loop_
_atom_site_type_symbol
_atom_site_label
_atom_site_fract_x
_atom_site_fract_y
_atom_site_fract_z
Si Si1 0.334285 0.037027 0.480915
Si Si2 0.980182 0.933653 0.596411
Si Si3 0.000000 0.377956 0.250000
Si Si4 0.269651 0.337339 0.427143
Si Si5 0.821103 0.698148 0.296600
Si Si6 0.391853 0.845603 0.596235
Si Si7 0.459555 0.752132 0.420441
O O1 0.446716 0.060923 0.602332
O O2 0.288269 0.079424 0.564448
O O3 0.296198 0.100188 0.334883
O O4 0.336289 0.930204 0.483739
O O5 0.875178 0.885936 0.510462
O O6 0.000000 0.975466 0.750000
O O7 0.050809 0.849159 0.634979
O O8 0.000000 0.000000 0.500000
O O9 0.064429 0.312862 0.221388
O O10 0.250000 0.250000 0.500000
O O11 0.258661 0.282776 0.287610
O O12 0.831628 0.688464 0.159787
O O13 0.927421 0.722713 0.449093
O O14 0.500000 0.869589 0.750000
O O15 0.411466 0.772297 0.508515
#
# Coordination Sequence:
#
# PCOD9258066 Si02
#       7
#     8   8   4   8   8   8   8
#     4  10  19  32  56  88 125 162 208 255 319 387
#     4  11  24  45  71  97 126 174 231 276 330 402
#     4  10  18  32  58  90 122 164 208 252 310 400
#     4   9  20  42  62  88 122 171 216 263 327 392
#     4   8  18  33  53  79 117 162 202 251 315 373
#     4  10  19  31  54  89 125 152 197 257 319 376
#     4   9  19  34  59  85 117 159 204 254 312 381
#
# _framework density 23.636066
#
# number of rings (size 3 to 8) (size 9 to 14) (size 15 to 20)
#    0.000    2.462    1.538    0.923    2.154    4.923 
#    5.538    0.000    0.000    1.846    0.000    0.000 
#    0.000    0.000    0.000    0.000    0.000    0.000 
#
# Total GULP energy -144903.098097 kJ/mol
# GULP energy per Si atom -5573.196081 kJ/mol
# Density = 2.358227 g / cm^3
# Si number density = 23.636066 Si / 1000 Ang^3
#
#
#
# Elastic Constant Matrix: (Units=GPa)
#
#
# Indices 1 2 3 4 5 6 
#
# 1 72.0833 30.5737 32.6275 0.0000 -28.3184 0.0000
# 2 30.5737 64.7236 31.0574 0.0000 -26.4181 0.0000
# 3 32.6275 31.0574 93.6960 0.0000 -30.6014 0.0000
# 4 0.0000 0.0000 0.0000 20.4037 0.0000 -10.0990
# 5 -28.3184 -26.4181 -30.6014 0.0000 48.5708 0.0000
# 6 0.0000 0.0000 0.0000 -10.0990 0.0000 25.5373
#
#
#
# Elastic Compliance Matrix: (Units=1/GPa)
#
#
# Indices 1 2 3 4 5 6 
#
# 1 0.020222 -0.005233 -0.003005 0.000000 0.007051 0.000000
# 2 -0.005233 0.022379 -0.003295 0.000000 0.007045 0.000000
# 3 -0.003005 -0.003295 0.014673 0.000000 0.005701 0.000000
# 4 0.000000 0.000000 0.000000 0.060939 0.000000 0.024099
# 5 0.007051 0.007045 0.005701 0.000000 0.032123 0.000000
# 6 0.000000 0.000000 0.000000 0.024099 0.000000 0.048688
#
#
# Mechanical properties :
#
#
# Convention : Reuss Voigt Hill
#
# Bulk Modulus (GPa) = 29.23089 46.55777 37.89433
# Shear Modulus (GPa) = 21.41402 27.98532 24.69967
#
# Velocity S-wave (km/s) = 3.01323 3.44468 3.23615
# Velocity P-wave (km/s) = 4.94975 5.96335 5.48004
#
# Compressibility (1/GPa) = 0.03421038
#
# Stress axis : x y z
#
# Youngs Moduli (GPa) = 49.45021 44.68520 68.15210
#
# Poissons Ratio (x) = 0.23382 0.20477
# Poissons Ratio (y) = 0.25876 0.22454
# Poissons Ratio (z) = 0.14857 0.14722
#
# Static dielectric constant tensor:
#      x y z
#    x 2.145590 0.000000 0.160840 
#    y 0.000000 1.876790 0.000000 
#    z 0.160840 0.000000 1.975250 
# 
# From -- ./inp_files/104953.got.cif
#   From: 2010.05.17/outbox.cif.g08.bks.cpg/sg15_53_cif.got.tgz:104953.got - 2010.06.03 18:47:42.
