data_PCOD9258871
_publ_section_title
;
Structure prediction by ZEFSAII (Michael W. Deem and Ramdas Pophale) SiO2 
 PCOD9258871
Probable space group: C 2/C
;
_chemical_formula_sum "Si O2"
_cell_formula_units_Z 40
_cell_length_a 23.643245
_cell_length_b 7.982950
_cell_length_c 28.660959
_cell_angle_alpha 90.000000
_cell_angle_beta 162.671962
_cell_angle_gamma 90.000000
_cell_volume 1611.191754
_symmetry_space_group_name_H-M "C 2/C"
_symmetry_group_IT_number 15
_symmetry_cell_setting 'monoclinic'
loop_
_space_group_symop_operation_xyz
x,y,z
-x,y,1/2-z
-x,-y,-z
x,-y,1/2+z
1/2+x,1/2+y,z
1/2-x,1/2+y,1/2-z
1/2-x,1/2-y,-z
1/2+x,1/2-y,1/2+z
loop_
_atom_site_type_symbol
_atom_site_label
_atom_site_fract_x
_atom_site_fract_y
_atom_site_fract_z
Si Si1 0.812464 0.235033 0.904538
Si Si2 0.128065 0.664842 0.497865
Si Si3 0.089583 0.945389 0.203296
Si Si4 0.311978 0.949230 0.283896
Si Si5 0.279513 0.328154 0.573359
O O1 0.644072 0.372286 0.765567
O O2 0.783227 0.109333 0.839277
O O3 0.780482 0.194619 0.933633
O O4 0.016782 0.326546 0.063832
O O5 0.280342 0.666805 0.659226
O O6 0.169730 0.502026 0.498325
O O7 0.102432 0.838762 0.451113
O O8 0.926607 0.619289 0.363573
O O9 0.166035 0.965434 0.210754
O O10 0.500000 0.370793 0.750000
O O11 0.250000 0.250000 0.500000
#
# Coordination Sequence:
#
# PCOD9258871 Si02
#       5
#     8   8   8   8   8
#     4  10  21  34  57  89 115 151 201 242 287 352
#     4  10  22  36  58  88 120 159 199 237 291 355
#     4  10  19  36  54  85 128 156 184 239 296 354
#     4  10  18  34  56  85 120 160 193 233 287 352
#     4  10  20  40  64  87 112 148 201 261 294 327
#
# _framework density 24.826342
#
# number of rings (size 3 to 8) (size 9 to 14) (size 15 to 20)
#    0.000    2.400    0.000    7.200    0.000    1.600 
#    0.000   12.000    0.000    6.000    0.000    1.400 
#    0.000    0.000    0.000    0.000    0.000    0.000 
#
# Total GULP energy -111783.044100 kJ/mol
# GULP energy per Si atom -5589.152205 kJ/mol
# Density = 2.476984 g / cm^3
# Si number density = 24.826342 Si / 1000 Ang^3
#
#
#
# Elastic Constant Matrix: (Units=GPa)
#
#
# Indices 1 2 3 4 5 6 
#
# 1 150.2677 20.0824 16.1054 -0.0150 -26.0437 0.0049
# 2 20.0824 86.1070 17.3154 -0.0506 -18.6095 -0.0060
# 3 16.1054 17.3154 45.2849 -0.1278 -18.4265 -0.0202
# 4 -0.0150 -0.0506 -0.1278 37.3689 0.0048 -10.5140
# 5 -26.0437 -18.6095 -18.4265 0.0048 47.5433 0.0166
# 6 0.0049 -0.0060 -0.0202 -10.5140 0.0166 17.0574
#
#
#
# Elastic Compliance Matrix: (Units=1/GPa)
#
#
# Indices 1 2 3 4 5 6 
#
# 1 0.007454 -0.000812 -0.000960 -0.000005 0.003394 -0.000010
# 2 -0.000812 0.013221 -0.003374 0.000006 0.003423 0.000001
# 3 -0.000960 -0.003374 0.027262 0.000113 0.008720 0.000093
# 4 -0.000005 0.000006 0.000113 0.032375 0.000033 0.019956
# 5 0.003394 0.003423 0.008720 0.000033 0.027612 0.000004
# 6 -0.000010 0.000001 0.000093 0.019956 0.000004 0.070926
#
#
# Mechanical properties :
#
#
# Convention : Reuss Voigt Hill
#
# Bulk Modulus (GPa) = 26.56309 43.18510 34.87410
# Shear Modulus (GPa) = 24.79040 35.60434 30.19737
#
# Velocity S-wave (km/s) = 3.16342 3.79111 3.49140
# Velocity P-wave (km/s) = 4.90568 6.04946 5.50734
#
# Compressibility (1/GPa) = 0.03764622
#
# Stress axis : x y z
#
# Youngs Moduli (GPa) = 134.14990 75.63729 36.68078
#
# Poissons Ratio (x) = 0.06143 0.03520
# Poissons Ratio (y) = 0.10895 0.12375
# Poissons Ratio (z) = 0.12875 0.25518
#
# Static dielectric constant tensor:
#      x y z
#    x 2.001320 0.000010 0.020740 
#    y 0.000010 2.072430 -0.000020 
#    z 0.020740 -0.000020 2.019390 
# 
# From -- ./inp_files/318534.got.cif
#   From: 2010.05.17/outbox.cif.g08.bks.cpg/sg15_160_cif.got.tgz:318534.got - 2010.06.03 18:47:42.
