data_PCOD9258634
_publ_section_title
;
Structure prediction by ZEFSAII (Michael W. Deem and Ramdas Pophale) SiO2 
 PCOD9258634
Probable space group: C 2/C
;
_chemical_formula_sum "Si O2"
_cell_formula_units_Z 64
_cell_length_a 17.039594
_cell_length_b 12.113238
_cell_length_c 21.131363
_cell_angle_alpha 90.000000
_cell_angle_beta 129.981754
_cell_angle_gamma 90.000000
_cell_volume 3342.081081
_symmetry_space_group_name_H-M "C 2/C"
_symmetry_group_IT_number 15
_symmetry_cell_setting 'monoclinic'
loop_
_space_group_symop_operation_xyz
x,y,z
-x,y,1/2-z
-x,-y,-z
x,-y,1/2+z
1/2+x,1/2+y,z
1/2-x,1/2+y,1/2-z
1/2-x,1/2-y,-z
1/2+x,1/2-y,1/2+z
loop_
_atom_site_type_symbol
_atom_site_label
_atom_site_fract_x
_atom_site_fract_y
_atom_site_fract_z
Si Si1 0.122385 0.155367 0.742183
Si Si2 0.491481 0.384981 0.534811
Si Si3 0.118784 0.718009 0.108434
Si Si4 0.748343 0.020962 0.122632
Si Si5 0.422979 0.490327 0.111093
Si Si6 0.107785 0.634508 0.476005
Si Si7 0.319879 0.643905 0.441979
Si Si8 0.394963 0.133830 0.176238
O O1 0.140294 0.217740 0.685035
O O2 0.212682 0.070728 0.806976
O O3 0.108331 0.249584 0.788174
O O4 0.016916 0.086025 0.681813
O O5 0.500000 0.500000 0.500000
O O6 0.406075 0.308915 0.458251
O O7 0.469921 0.408180 0.596156
O O8 0.603366 0.340342 0.576693
O O9 0.205750 0.631416 0.133335
O O10 0.007735 0.658893 0.060867
O O11 0.845888 0.027703 0.125753
O O12 0.655204 0.973834 0.031719
O O13 0.363861 0.421804 0.025330
O O14 0.187022 0.731306 0.536656
O O15 0.103649 0.639883 0.398422
O O16 0.216418 0.585941 0.366276
O O17 0.500000 0.075886 0.250000
#
# Coordination Sequence:
#
# PCOD9258634 Si02
#       8
#     8   8   8   8   8   8   8   8
#     4  12  23  38  62  96 131 166 218 280 327 386
#     4   9  19  40  66  87 116 164 216 262 304 394
#     4  11  24  42  60  94 133 169 214 270 325 397
#     4  12  25  38  62  95 130 168 213 279 337 384
#     4  11  21  40  66  92 118 168 228 272 309 392
#     4  11  20  38  59  87 127 167 209 260 337 387
#     4  10  18  33  62  89 119 163 213 263 316 382
#     4  12  20  32  60  94 125 159 213 273 326 380
#
# _framework density 19.149744999999999
#
# number of rings (size 3 to 8) (size 9 to 14) (size 15 to 20)
#    0.000    1.000    7.500    2.625    0.000    1.500 
#    0.000    0.000    0.000    0.000    0.000    0.000 
#    0.000    0.000    0.000    0.000    0.000    0.000 
#
# Total GULP energy -178402.423910 kJ/mol
# GULP energy per Si atom -5575.075747 kJ/mol
# Density = 1.910616 g / cm^3
# Si number density = 19.149745 Si / 1000 Ang^3
#
#
#
# Elastic Constant Matrix: (Units=GPa)
#
#
# Indices 1 2 3 4 5 6 
#
# 1 102.6016 41.8303 50.0085 0.0000 -16.1330 0.0000
# 2 41.8303 53.9455 34.0440 0.0000 -12.3007 0.0000
# 3 50.0085 34.0440 112.2504 0.0000 2.7997 0.0000
# 4 0.0000 0.0000 0.0000 22.1227 0.0000 -1.1806
# 5 -16.1330 -12.3007 2.7997 0.0000 28.9555 0.0000
# 6 0.0000 0.0000 0.0000 -1.1806 0.0000 26.2848
#
#
#
# Elastic Compliance Matrix: (Units=1/GPa)
#
#
# Indices 1 2 3 4 5 6 
#
# 1 0.016523 -0.008233 -0.005019 0.000000 0.006194 0.000000
# 2 -0.008233 0.030673 -0.005860 0.000000 0.009010 0.000000
# 3 -0.005019 -0.005860 0.013085 0.000000 -0.006551 0.000000
# 4 0.000000 0.000000 0.000000 0.045311 0.000000 0.002035
# 5 0.006194 0.009010 -0.006551 0.000000 0.042448 0.000000
# 6 0.000000 0.000000 0.000000 0.002035 0.000000 0.038136
#
#
# Mechanical properties :
#
#
# Convention : Reuss Voigt Hill
#
# Bulk Modulus (GPa) = 45.33269 57.84032 51.58651
# Shear Modulus (GPa) = 21.57477 25.00026 23.28752
#
# Velocity S-wave (km/s) = 3.36018 3.61711 3.49101
# Velocity P-wave (km/s) = 6.22724 6.90756 6.57621
#
# Compressibility (1/GPa) = 0.02205913
#
# Stress axis : x y z
#
# Youngs Moduli (GPa) = 60.52202 32.60146 76.42241
#
# Poissons Ratio (x) = 0.26839 0.38355
# Poissons Ratio (y) = 0.49825 0.44783
# Poissons Ratio (z) = 0.30375 0.19104
#
# Static dielectric constant tensor:
#      x y z
#    x 1.770530 0.000000 0.034490 
#    y 0.000000 1.734720 0.000000 
#    z 0.034490 0.000000 1.701520 
# 
# From -- ./inp_files/248656.got.cif
#   From: 2010.05.17/outbox.cif.g08.bks.cpg/sg15_125_cif.got.tgz:248656.got - 2010.06.03 18:47:42.
