data_PCOD9258738
_publ_section_title
;
Structure prediction by ZEFSAII (Michael W. Deem and Ramdas Pophale) SiO2 
 PCOD9258738
Probable space group: C 2/C
;
_chemical_formula_sum "Si O2"
_cell_formula_units_Z 40
_cell_length_a 17.302470
_cell_length_b 19.513775
_cell_length_c 5.511477
_cell_angle_alpha 90.000000
_cell_angle_beta 92.094245
_cell_angle_gamma 90.000000
_cell_volume 1859.632904
_symmetry_space_group_name_H-M "C 2/C"
_symmetry_group_IT_number 15
_symmetry_cell_setting 'monoclinic'
loop_
_space_group_symop_operation_xyz
x,y,z
-x,y,1/2-z
-x,-y,-z
x,-y,1/2+z
1/2+x,1/2+y,z
1/2-x,1/2+y,1/2-z
1/2-x,1/2-y,-z
1/2+x,1/2-y,1/2+z
loop_
_atom_site_type_symbol
_atom_site_label
_atom_site_fract_x
_atom_site_fract_y
_atom_site_fract_z
Si Si1 0.409288 0.815265 0.930922
Si Si2 0.163688 0.536387 0.598017
Si Si3 0.000000 0.203410 0.250000
Si Si4 0.273884 0.820561 0.235438
Si Si5 0.871292 0.218288 0.542603
Si Si6 0.000000 0.573980 0.750000
O O1 0.412336 0.786222 0.660505
O O2 0.444606 0.752708 0.088459
O O3 0.318941 0.827517 0.986190
O O4 0.455356 0.879942 0.041005
O O5 0.188083 0.502137 0.348460
O O6 0.196287 0.613255 0.615117
O O7 0.070140 0.538342 0.614326
O O8 0.937791 0.171953 0.429305
O O9 0.182025 0.816030 0.257610
O O10 0.310537 0.750576 0.346908
#
# Coordination Sequence:
#
# PCOD9258738 Si02
#       6
#     8   8   4   8   8   4
#     4   9  17  32  51  75 111 141 178 226 280 337
#     4  11  24  41  56  81 116 157 204 236 272 332
#     4   9  18  28  42  82 104 138 166 213 284 350
#     4   9  21  34  53  80 101 151 191 235 286 338
#     4  10  18  34  54  77 114 139 185 234 297 344
#     4   9  20  36  54  82 108 160 192 229 278 334
#
# _framework density 21.509623000000001
#
# number of rings (size 3 to 8) (size 9 to 14) (size 15 to 20)
#    0.000    2.400    0.000    3.000    5.600    0.000 
#   10.800    0.000    0.000    0.000    0.000    1.400 
#    0.000    0.000    0.000    0.000    0.000    0.000 
#
# Total GULP energy -111431.544887 kJ/mol
# GULP energy per Si atom -5571.577244 kJ/mol
# Density = 2.146067 g / cm^3
# Si number density = 21.509623 Si / 1000 Ang^3
#
#
#
# Elastic Constant Matrix: (Units=GPa)
#
#
# Indices 1 2 3 4 5 6 
#
# 1 128.3481 17.5992 37.7777 0.0000 -37.5344 0.0000
# 2 17.5992 40.5056 11.0203 0.0000 2.9132 0.0000
# 3 37.7777 11.0203 79.3493 0.0000 -11.7244 0.0000
# 4 0.0000 0.0000 0.0000 20.4997 0.0000 4.1354
# 5 -37.5344 2.9132 -11.7244 0.0000 40.6623 0.0000
# 6 0.0000 0.0000 0.0000 4.1354 0.0000 24.5072
#
#
#
# Elastic Compliance Matrix: (Units=1/GPa)
#
#
# Indices 1 2 3 4 5 6 
#
# 1 0.012918 -0.005403 -0.003740 0.000000 0.011233 0.000000
# 2 -0.005403 0.028271 -0.002497 0.000000 -0.007733 0.000000
# 3 -0.003740 -0.002497 0.014880 0.000000 0.001017 0.000000
# 4 0.000000 0.000000 0.000000 0.050500 0.000000 -0.008522
# 5 0.011233 -0.007733 0.001017 0.000000 0.035809 0.000000
# 6 0.000000 0.000000 0.000000 -0.008522 0.000000 0.042242
#
#
# Mechanical properties :
#
#
# Convention : Reuss Voigt Hill
#
# Bulk Modulus (GPa) = 30.49736 42.33305 36.41521
# Shear Modulus (GPa) = 22.84879 29.25420 26.05149
#
# Velocity S-wave (km/s) = 3.26277 3.69189 3.48394
# Velocity P-wave (km/s) = 5.32949 6.15606 5.75763
#
# Compressibility (1/GPa) = 0.03278972
#
# Stress axis : x y z
#
# Youngs Moduli (GPa) = 77.41104 35.37207 67.20374
#
# Poissons Ratio (x) = 0.19112 0.25135
# Poissons Ratio (y) = 0.41826 0.16778
# Poissons Ratio (z) = 0.28952 0.08831
#
# Static dielectric constant tensor:
#      x y z
#    x 1.864870 0.000000 -0.040970 
#    y 0.000000 1.784520 0.000000 
#    z -0.040970 0.000000 1.978880 
# 
# From -- ./inp_files/10191.got.cif
#   From: 2010.05.17/outbox.cif.g08.bks.cpg/sg15_6_cif.got.tgz:10191.got - 2010.06.03 18:47:42.
