data_PCOD9258409
_publ_section_title
;
Structure prediction by ZEFSAII (Michael W. Deem and Ramdas Pophale) SiO2 
 PCOD9258409
Probable space group: C 2/C
;
_chemical_formula_sum "Si O2"
_cell_formula_units_Z 64
_cell_length_a 10.788462
_cell_length_b 21.727522
_cell_length_c 17.567175
_cell_angle_alpha 90.000000
_cell_angle_beta 108.945014
_cell_angle_gamma 90.000000
_cell_volume 3894.798688
_symmetry_space_group_name_H-M "C 2/C"
_symmetry_group_IT_number 15
_symmetry_cell_setting 'monoclinic'
loop_
_space_group_symop_operation_xyz
x,y,z
-x,y,1/2-z
-x,-y,-z
x,-y,1/2+z
1/2+x,1/2+y,z
1/2-x,1/2+y,1/2-z
1/2-x,1/2-y,-z
1/2+x,1/2-y,1/2+z
loop_
_atom_site_type_symbol
_atom_site_label
_atom_site_fract_x
_atom_site_fract_y
_atom_site_fract_z
Si Si1 0.423717 0.819309 0.541967
Si Si2 0.386507 0.514256 0.360084
Si Si3 0.866763 0.188039 0.459357
Si Si4 0.598919 0.946559 0.049210
Si Si5 0.121171 0.506688 0.718969
Si Si6 0.620152 0.561977 0.967615
Si Si7 0.895060 0.361321 0.796795
Si Si8 0.406635 0.352732 0.800571
O O1 0.291452 0.822504 0.567898
O O2 0.405565 0.755332 0.495108
O O3 0.434344 0.878481 0.488873
O O4 0.548277 0.824281 0.621017
O O5 0.256093 0.488914 0.293573
O O6 0.363431 0.536843 0.442552
O O7 0.504372 0.467274 0.395352
O O8 0.427247 0.574502 0.320621
O O9 0.910098 0.134083 0.525773
O O10 0.923960 0.177782 0.386785
O O11 0.610151 0.951881 0.142163
O O12 0.744429 0.955222 0.045207
O O13 0.500000 0.000000 0.000000
O O14 0.107707 0.435140 0.689827
O O15 0.000000 0.519318 0.750000
O O16 0.746540 0.343581 0.749082
O O17 0.000000 0.352282 0.750000
O O18 0.500000 0.332984 0.750000
#
# Coordination Sequence:
#
# PCOD9258409 Si02
#       8
#     8   8   8   8   8   8   8   8
#     4  10  19  35  58  78 103 143 189 228 266 320
#     4   9  19  33  52  76 107 141 171 217 274 325
#     4   9  19  37  55  76 107 143 184 225 269 321
#     4  11  20  31  52  81 107 134 178 227 271 323
#     4  10  20  32  51  78 110 137 172 224 277 323
#     4   9  19  34  53  78 106 140 177 221 272 328
#     4  10  18  33  56  80 102 137 186 230 264 321
#     4  10  20  32  54  82 110 139 177 225 275 325
#
# _framework density 16.432172000000001
#
# number of rings (size 3 to 8) (size 9 to 14) (size 15 to 20)
#    0.000    2.250    2.500    0.750    7.000    0.000 
#    0.000    2.500    0.000    0.000    0.000    0.000 
#    0.000    0.000    0.000    0.000    0.000    0.000 
#
# Total GULP energy -178211.660314 kJ/mol
# GULP energy per Si atom -5569.114385 kJ/mol
# Density = 1.639477 g / cm^3
# Si number density = 16.432172 Si / 1000 Ang^3
#
#
#
# Elastic Constant Matrix: (Units=GPa)
#
#
# Indices 1 2 3 4 5 6 
#
# 1 89.2700 50.0552 48.8171 0.0000 -4.7226 0.0000
# 2 50.0552 85.6079 43.4522 0.0000 9.8569 0.0000
# 3 48.8171 43.4522 89.0901 0.0000 7.9367 0.0000
# 4 0.0000 0.0000 0.0000 14.0716 0.0000 5.0713
# 5 -4.7226 9.8569 7.9367 0.0000 32.1460 0.0000
# 6 0.0000 0.0000 0.0000 5.0713 0.0000 16.2444
#
#
#
# Elastic Compliance Matrix: (Units=1/GPa)
#
#
# Indices 1 2 3 4 5 6 
#
# 1 0.021036 -0.009300 -0.007690 0.000000 0.007841 0.000000
# 2 -0.009300 0.019915 -0.004041 0.000000 -0.006475 0.000000
# 3 -0.007690 -0.004041 0.017790 0.000000 -0.004283 0.000000
# 4 0.000000 0.000000 0.000000 0.080074 0.000000 -0.024998
# 5 0.007841 -0.006475 -0.004283 0.000000 0.035303 0.000000
# 6 0.000000 0.000000 0.000000 -0.024998 0.000000 0.069363
#
#
# Mechanical properties :
#
#
# Convention : Reuss Voigt Hill
#
# Bulk Modulus (GPa) = 59.94477 60.95745 60.45111
# Shear Modulus (GPa) = 17.17604 20.60196 18.88900
#
# Velocity S-wave (km/s) = 3.23657 3.54469 3.39413
# Velocity P-wave (km/s) = 7.10820 7.34370 7.22691
#
# Compressibility (1/GPa) = 0.01668202
#
# Stress axis : x y z
#
# Youngs Moduli (GPa) = 47.53683 50.21275 56.20995
#
# Poissons Ratio (x) = 0.46697 0.43223
# Poissons Ratio (y) = 0.44208 0.22713
# Poissons Ratio (z) = 0.36554 0.20289
#
# Static dielectric constant tensor:
#      x y z
#    x 1.553740 0.000000 -0.003510 
#    y 0.000000 1.549970 0.000000 
#    z -0.003510 0.000000 1.552330 
# 
# From -- ./inp_files/147148.got.cif
#   From: 2010.05.17/outbox.cif.g08.bks.cpg/sg15_74_cif.got.tgz:147148.got - 2010.06.03 18:47:42.
