data_PCOD9258775
_publ_section_title
;
Structure prediction by ZEFSAII (Michael W. Deem and Ramdas Pophale) SiO2 
 PCOD9258775
Probable space group: C 2/C
;
_chemical_formula_sum "Si O2"
_cell_formula_units_Z 56
_cell_length_a 11.215742
_cell_length_b 13.458285
_cell_length_c 26.316627
_cell_angle_alpha 90.000000
_cell_angle_beta 131.434636
_cell_angle_gamma 90.000000
_cell_volume 2978.118216
_symmetry_space_group_name_H-M "C 2/C"
_symmetry_group_IT_number 15
_symmetry_cell_setting 'monoclinic'
loop_
_space_group_symop_operation_xyz
x,y,z
-x,y,1/2-z
-x,-y,-z
x,-y,1/2+z
1/2+x,1/2+y,z
1/2-x,1/2+y,1/2-z
1/2-x,1/2-y,-z
1/2+x,1/2-y,1/2+z
loop_
_atom_site_type_symbol
_atom_site_label
_atom_site_fract_x
_atom_site_fract_y
_atom_site_fract_z
Si Si1 0.550399 0.986354 0.863628
Si Si2 0.613484 0.186783 0.668534
Si Si3 0.737517 0.206599 0.587587
Si Si4 0.562773 0.789996 0.711228
Si Si5 0.845777 0.510891 0.990003
Si Si6 0.137281 0.175318 0.435180
Si Si7 0.886491 0.079776 0.440172
O O1 0.440707 0.081750 0.824562
O O2 0.444814 0.889326 0.824014
O O3 0.614977 0.994491 0.939461
O O4 0.716849 0.971853 0.879716
O O5 0.653723 0.179960 0.618645
O O6 0.768681 0.236530 0.736579
O O7 0.458751 0.256253 0.630539
O O8 0.719641 0.118542 0.542916
O O9 0.667190 0.313892 0.550035
O O10 0.923688 0.220249 0.650826
O O11 0.500000 0.817185 0.750000
O O12 0.740094 0.416307 0.945162
O O13 0.000000 0.500000 0.000000
O O14 0.250000 0.250000 0.500000
O O15 0.996844 0.120700 0.426585
O O16 0.000000 0.000000 0.500000
#
# Coordination Sequence:
#
# PCOD9258775 Si02
#       7
#     8   8   8   8   8   8   8
#     4  11  21  36  64  87 117 153 202 251 298 351
#     4  10  19  39  62  81 116 162 199 234 296 371
#     4   9  20  35  58  88 118 154 194 240 301 366
#     4   9  21  39  59  80 114 162 203 238 289 361
#     4  12  21  35  60  95 121 150 192 250 310 360
#     4  11  20  36  59  87 118 159 195 237 305 370
#     4  10  18  34  54  85 115 154 189 235 295 357
#
# _framework density 18.803820000000002
#
# number of rings (size 3 to 8) (size 9 to 14) (size 15 to 20)
#    0.000    1.714    4.286    1.714    0.000    3.429 
#    0.000    0.000    3.143    0.000    0.000    0.000 
#    0.000    0.000    0.000    0.000    0.000    0.000 
#
# Total GULP energy -155981.677399 kJ/mol
# GULP energy per Si atom -5570.774193 kJ/mol
# Density = 1.876102 g / cm^3
# Si number density = 18.803820 Si / 1000 Ang^3
#
#
#
# Elastic Constant Matrix: (Units=GPa)
#
#
# Indices 1 2 3 4 5 6 
#
# 1 81.3087 39.5033 18.3142 0.0000 31.9953 0.0000
# 2 39.5033 122.5040 35.4530 0.0000 31.0518 0.0000
# 3 18.3142 35.4530 62.3634 0.0000 31.5294 0.0000
# 4 0.0000 0.0000 0.0000 33.4737 0.0000 3.3785
# 5 31.9953 31.0518 31.5294 0.0000 27.4431 0.0000
# 6 0.0000 0.0000 0.0000 3.3785 0.0000 31.9374
#
#
#
# Elastic Compliance Matrix: (Units=1/GPa)
#
#
# Indices 1 2 3 4 5 6 
#
# 1 0.032386 -0.001165 0.022843 0.000000 -0.062684 0.000000
# 2 -0.001165 0.011488 -0.000725 0.000000 -0.010807 0.000000
# 3 0.022843 -0.000725 0.054370 0.000000 -0.088277 0.000000
# 4 0.000000 0.000000 0.000000 0.030197 0.000000 -0.003194
# 5 -0.062684 -0.010807 -0.088277 0.000000 0.223171 0.000000
# 6 0.000000 0.000000 0.000000 -0.003194 0.000000 0.031649
#
#
# Mechanical properties :
#
#
# Convention : Reuss Voigt Hill
#
# Bulk Modulus (GPa) = 7.13522 50.30190 28.71856
# Shear Modulus (GPa) = 12.88425 30.09789 21.49107
#
# Velocity S-wave (km/s) = 2.62046 4.00512 3.38436
# Velocity P-wave (km/s) = 3.59980 6.94240 5.52972
#
# Compressibility (1/GPa) = 0.14014988
#
# Stress axis : x y z
#
# Youngs Moduli (GPa) = 30.87736 87.04817 18.39266
#
# Poissons Ratio (x) = 0.10145 -0.42015
# Poissons Ratio (y) = 0.03599 0.01333
# Poissons Ratio (z) = -0.70534 0.06308
#
# Static dielectric constant tensor:
#      x y z
#    x 1.681970 0.000000 -0.013140 
#    y 0.000000 1.629330 0.000000 
#    z -0.013140 0.000000 1.677620 
# 
# From -- ./inp_files/268743.got.cif
#   From: 2010.05.17/outbox.cif.g08.bks.cpg/sg15_135_cif.got.tgz:268743.got - 2010.06.03 18:47:42.
