data_PCOD9258392
_publ_section_title
;
Structure prediction by ZEFSAII (Michael W. Deem and Ramdas Pophale) SiO2 
 PCOD9258392
Probable space group: C 2/C
;
_chemical_formula_sum "Si O2"
_cell_formula_units_Z 48
_cell_length_a 14.461059
_cell_length_b 24.379662
_cell_length_c 8.364890
_cell_angle_alpha 90.000000
_cell_angle_beta 43.359768
_cell_angle_gamma 90.000000
_cell_volume 2024.777756
_symmetry_space_group_name_H-M "C 2/C"
_symmetry_group_IT_number 15
_symmetry_cell_setting 'monoclinic'
loop_
_space_group_symop_operation_xyz
x,y,z
-x,y,1/2-z
-x,-y,-z
x,-y,1/2+z
1/2+x,1/2+y,z
1/2-x,1/2+y,1/2-z
1/2-x,1/2-y,-z
1/2+x,1/2-y,1/2+z
loop_
_atom_site_type_symbol
_atom_site_label
_atom_site_fract_x
_atom_site_fract_y
_atom_site_fract_z
Si Si1 0.017558 0.437915 0.417670
Si Si2 0.767031 0.078067 0.129174
Si Si3 0.347101 0.222303 0.507453
Si Si4 0.119611 0.176382 0.321954
Si Si5 0.335076 0.645153 0.581554
Si Si6 0.293059 0.541237 0.732405
O O1 0.167960 0.431154 0.291242
O O2 0.000000 0.434754 0.250000
O O3 0.000000 0.500000 0.500000
O O4 0.891059 0.406525 0.651497
O O5 0.852232 0.130049 0.078174
O O6 0.797730 0.023350 0.196977
O O7 0.786097 0.055027 0.927296
O O8 0.250000 0.250000 0.500000
O O9 0.340261 0.264739 0.663145
O O10 0.281229 0.166222 0.652497
O O11 0.500000 0.217138 0.250000
O O12 0.963365 0.180991 0.473971
O O13 0.194564 0.157205 0.066336
O O14 0.399004 0.583827 0.528012
#
# Coordination Sequence:
#
# PCOD9258392 Si02
#       6
#     8   8   8   8   8   8
#     4  10  18  33  55  85 128 171 223 277 330 399
#     4  11  22  38  64  95 136 185 226 283 348 412
#     4  12  25  47  75 104 139 179 234 293 356 414
#     4  11  25  46  70  98 141 182 231 289 349 418
#     4  11  25  46  70 100 138 182 232 289 349 419
#     4  11  22  38  63  97 137 178 233 280 344 419
#
# _framework density 23.706303999999999
#
# number of rings (size 3 to 8) (size 9 to 14) (size 15 to 20)
#    0.000    1.000    1.667    8.000    0.000    3.333 
#    0.000    1.667    0.000    0.000    0.000    0.000 
#    0.000    0.000    0.000    0.000    0.000    0.000 
#
# Total GULP energy -133991.739077 kJ/mol
# GULP energy per Si atom -5582.989128 kJ/mol
# Density = 2.365235 g / cm^3
# Si number density = 23.706304 Si / 1000 Ang^3
#
#
#
# Elastic Constant Matrix: (Units=GPa)
#
#
# Indices 1 2 3 4 5 6 
#
# 1 83.7677 -1.0579 8.9473 0.0000 15.3075 0.0000
# 2 -1.0579 85.4221 -0.4041 0.0000 3.9557 0.0000
# 3 8.9473 -0.4041 97.7794 0.0000 17.0731 0.0000
# 4 0.0000 0.0000 0.0000 26.7038 0.0000 6.1330
# 5 15.3075 3.9557 17.0731 0.0000 37.9189 0.0000
# 6 0.0000 0.0000 0.0000 6.1330 0.0000 34.5782
#
#
#
# Elastic Compliance Matrix: (Units=1/GPa)
#
#
# Indices 1 2 3 4 5 6 
#
# 1 0.012910 0.000396 -0.000285 0.000000 -0.005125 0.000000
# 2 0.000396 0.011783 0.000277 0.000000 -0.001514 0.000000
# 3 -0.000285 0.000277 0.011113 0.000000 -0.004917 0.000000
# 4 0.000000 0.000000 0.000000 0.039038 0.000000 -0.006924
# 5 -0.005125 -0.001514 -0.004917 0.000000 0.030813 0.000000
# 6 0.000000 0.000000 0.000000 -0.006924 0.000000 0.030148
#
#
# Mechanical properties :
#
#
# Convention : Reuss Voigt Hill
#
# Bulk Modulus (GPa) = 27.33665 31.32664 29.33164
# Shear Modulus (GPa) = 33.96220 37.13912 35.55066
#
# Velocity S-wave (km/s) = 3.78911 3.96237 3.87671
# Velocity P-wave (km/s) = 5.54072 5.84611 5.69546
#
# Compressibility (1/GPa) = 0.03658093
#
# Stress axis : x y z
#
# Youngs Moduli (GPa) = 77.46149 84.86890 89.98512
#
# Poissons Ratio (x) = -0.03359 0.02563
# Poissons Ratio (y) = -0.03066 -0.02490
# Poissons Ratio (z) = 0.02207 -0.02349
#
# Static dielectric constant tensor:
#      x y z
#    x 1.953760 0.000000 -0.069310 
#    y 0.000000 2.111240 0.000000 
#    z -0.069310 0.000000 2.078960 
# 
# From -- ./inp_files/43829.got.cif
#   From: 2010.05.17/outbox.cif.g08.bks.cpg/sg15_22_cif.got.tgz:43829.got - 2010.06.03 18:47:42.
