data_PCOD9258574
_publ_section_title
;
Structure prediction by ZEFSAII (Michael W. Deem and Ramdas Pophale) SiO2 
 PCOD9258574
Probable space group: C 2/C
;
_chemical_formula_sum "Si O2"
_cell_formula_units_Z 60
_cell_length_a 17.301167
_cell_length_b 22.688483
_cell_length_c 8.377874
_cell_angle_alpha 90.000000
_cell_angle_beta 111.129875
_cell_angle_gamma 90.000000
_cell_volume 3067.518913
_symmetry_space_group_name_H-M "C 2/C"
_symmetry_group_IT_number 15
_symmetry_cell_setting 'monoclinic'
loop_
_space_group_symop_operation_xyz
x,y,z
-x,y,1/2-z
-x,-y,-z
x,-y,1/2+z
1/2+x,1/2+y,z
1/2-x,1/2+y,1/2-z
1/2-x,1/2-y,-z
1/2+x,1/2-y,1/2+z
loop_
_atom_site_type_symbol
_atom_site_label
_atom_site_fract_x
_atom_site_fract_y
_atom_site_fract_z
Si Si1 0.413220 0.573394 0.751637
Si Si2 0.720742 0.469455 0.826048
Si Si3 0.640610 0.370996 0.996462
Si Si4 0.317528 0.273724 0.681800
Si Si5 0.801267 0.655925 0.814199
Si Si6 0.284878 0.631177 0.429805
Si Si7 0.383730 0.041365 0.896458
Si Si8 0.500000 0.033162 0.250000
O O1 0.500000 0.550926 0.750000
O O2 0.346586 0.521690 0.733297
O O3 0.369985 0.617898 0.591742
O O4 0.427252 0.603836 0.934151
O O5 0.684605 0.423483 0.929003
O O6 0.729730 0.430327 0.673076
O O7 0.809791 0.500893 0.912306
O O8 0.619765 0.316613 0.865895
O O9 0.710969 0.345918 0.166924
O O10 0.250000 0.250000 0.500000
O O11 0.346293 0.215069 0.793396
O O12 0.284711 0.317515 0.796662
O O13 0.845290 0.597725 0.783768
O O14 0.783097 0.647354 0.987739
O O15 0.439795 0.005751 0.815473
O O16 0.441323 0.065462 0.081812
#
# Coordination Sequence:
#
# PCOD9258574 Si02
#       8
#     8   8   8   8   8   8   8   4
#     4  11  23  36  56  89 124 158 198 243 298 354
#     4  11  20  34  60  88 121 158 191 236 293 360
#     4   9  19  34  54  87 117 153 194 242 294 341
#     4   9  19  35  57  87 111 144 204 252 290 339
#     4  10  18  33  60  83 114 149 195 244 284 355
#     4  10  20  34  57  89 117 154 192 242 292 342
#     4  11  20  36  56  85 118 150 192 231 301 352
#     4  10  24  34  54  86 122 152 182 246 296 364
#
# _framework density 19.559781999999998
#
# number of rings (size 3 to 8) (size 9 to 14) (size 15 to 20)
#    0.000    1.867    2.667    2.800    0.000    2.133 
#    0.000    2.000    4.400    0.000    0.000    0.000 
#    0.000    0.000    0.000    0.000    0.000    0.000 
#
# Total GULP energy -167075.097922 kJ/mol
# GULP energy per Si atom -5569.169931 kJ/mol
# Density = 1.951526 g / cm^3
# Si number density = 19.559782 Si / 1000 Ang^3
#
#
#
# Elastic Constant Matrix: (Units=GPa)
#
#
# Indices 1 2 3 4 5 6 
#
# 1 82.5881 23.4658 21.6061 0.0000 -13.2065 0.0000
# 2 23.4658 83.0272 18.0071 0.0000 -14.8086 0.0000
# 3 21.6061 18.0071 56.4287 0.0000 -19.1850 0.0000
# 4 0.0000 0.0000 0.0000 20.6722 0.0000 -8.6082
# 5 -13.2065 -14.8086 -19.1850 0.0000 26.5704 0.0000
# 6 0.0000 0.0000 0.0000 -8.6082 0.0000 5.6612
#
#
#
# Elastic Compliance Matrix: (Units=1/GPa)
#
#
# Indices 1 2 3 4 5 6 
#
# 1 0.014301 -0.002730 -0.003585 0.000000 0.002998 0.000000
# 2 -0.002730 0.014123 -0.001653 0.000000 0.005321 0.000000
# 3 -0.003585 -0.001653 0.024788 0.000000 0.015195 0.000000
# 4 0.000000 0.000000 0.000000 0.131872 0.000000 0.200519
# 5 0.002998 0.005321 0.015195 0.000000 0.053063 0.000000
# 6 0.000000 0.000000 0.000000 0.200519 0.000000 0.481539
#
#
# Mechanical properties :
#
#
# Convention : Reuss Voigt Hill
#
# Bulk Modulus (GPa) = 26.82620 38.68912 32.75766
# Shear Modulus (GPa) = 6.68407 21.17843 13.93125
#
# Velocity S-wave (km/s) = 1.85059 3.29409 2.67168
# Velocity P-wave (km/s) = 4.27913 5.85585 5.12845
#
# Compressibility (1/GPa) = 0.03727698
#
# Stress axis : x y z
#
# Youngs Moduli (GPa) = 69.92387 70.80528 40.34264
#
# Poissons Ratio (x) = 0.19327 0.14465
# Poissons Ratio (y) = 0.19086 0.06667
# Poissons Ratio (z) = 0.25071 0.11701
#
# Static dielectric constant tensor:
#      x y z
#    x 1.670180 0.000000 -0.021160 
#    y 0.000000 1.706980 0.000000 
#    z -0.021160 0.000000 1.764860 
# 
# From -- ./inp_files/50680.got.cif
#   From: 2010.05.17/outbox.cif.g08.bks.cpg/sg15_26_cif.got.tgz:50680.got - 2010.06.03 18:47:42.
