data_PCOD9258734
_publ_section_title
;
Structure prediction by ZEFSAII (Michael W. Deem and Ramdas Pophale) SiO2 
 PCOD9258734
Probable space group: C 2/C
;
_chemical_formula_sum "Si O2"
_cell_formula_units_Z 44
_cell_length_a 21.213783
_cell_length_b 11.627323
_cell_length_c 21.034412
_cell_angle_alpha 90.000000
_cell_angle_beta 20.251127
_cell_angle_gamma 90.000000
_cell_volume 1795.867919
_symmetry_space_group_name_H-M "C 2/C"
_symmetry_group_IT_number 15
_symmetry_cell_setting 'monoclinic'
loop_
_space_group_symop_operation_xyz
x,y,z
-x,y,1/2-z
-x,-y,-z
x,-y,1/2+z
1/2+x,1/2+y,z
1/2-x,1/2+y,1/2-z
1/2-x,1/2-y,-z
1/2+x,1/2-y,1/2+z
loop_
_atom_site_type_symbol
_atom_site_label
_atom_site_fract_x
_atom_site_fract_y
_atom_site_fract_z
Si Si1 0.117124 0.430405 0.439055
Si Si2 0.000000 0.465583 0.750000
Si Si3 0.232724 0.100579 0.097399
Si Si4 0.705578 0.092807 0.171674
Si Si5 0.876693 0.151986 0.495780
Si Si6 0.026735 0.865457 0.457661
O O1 0.213941 0.522204 0.392667
O O2 0.269620 0.354779 0.261473
O O3 0.000000 0.500000 0.500000
O O4 0.962563 0.369657 0.625842
O O5 0.870467 0.389558 0.827010
O O6 0.143713 0.544520 0.574723
O O7 0.014078 0.103027 0.312165
O O8 0.285973 0.233410 0.055544
O O9 0.739085 0.953000 0.141627
O O10 0.883152 0.146119 0.035979
O O11 0.977870 0.187668 0.466768
O O12 0.000000 0.000000 0.500000
#
# Coordination Sequence:
#
# PCOD9258734 Si02
#       6
#     8   4   8   8   8   8
#     4  11  17  32  56  74 102 138 181 231 276 312
#     4  10  24  36  52  74 114 158 186 216 262 332
#     4  11  22  34  48  79 109 152 182 219 267 328
#     4  10  20  36  51  77 102 142 189 220 267 319
#     4  11  21  34  53  74 109 147 187 227 273 317
#     4  10  18  34  54  76  96 142 185 236 269 310
#
# _framework density 24.500689000000001
#
# number of rings (size 3 to 8) (size 9 to 14) (size 15 to 20)
#    0.000    1.455    7.273    2.182    0.000    3.636 
#    0.000    0.000    0.000    0.000    0.000    0.000 
#    0.000   13.091    1.455    4.545    0.000    0.000 
#
# Total GULP energy -122884.131288 kJ/mol
# GULP energy per Si atom -5585.642331 kJ/mol
# Density = 2.444492 g / cm^3
# Si number density = 24.500689 Si / 1000 Ang^3
#
#
#
# Elastic Constant Matrix: (Units=GPa)
#
#
# Indices 1 2 3 4 5 6 
#
# 1 135.4227 3.6064 39.3649 0.0014 0.3640 -0.0004
# 2 3.6064 68.9184 20.3074 0.0035 3.7522 0.0008
# 3 39.3649 20.3074 156.2241 -0.0010 15.1552 -0.0005
# 4 0.0014 0.0035 -0.0010 24.7947 -0.0014 -15.4009
# 5 0.3640 3.7522 15.1552 -0.0014 47.0485 0.0000
# 6 -0.0004 0.0008 -0.0005 -15.4009 0.0000 -0.5741
#
#
#
# Elastic Compliance Matrix: (Units=1/GPa)
#
#
# Indices 1 2 3 4 5 6 
#
# 1 0.007986 0.000166 -0.002092 0.000000 0.000599 0.000001
# 2 0.000166 0.015107 -0.001949 0.000001 -0.000578 0.000005
# 3 -0.002092 -0.001949 0.007396 0.000000 -0.002211 -0.000001
# 4 0.000000 0.000001 0.000000 0.002284 0.000000 -0.061255
# 5 0.000599 -0.000578 -0.002211 0.000000 0.022008 -0.000002
# 6 0.000001 0.000005 -0.000001 -0.061255 -0.000002 -0.098617
#
#
# Mechanical properties :
#
#
# Convention : Reuss Voigt Hill
#
# Bulk Modulus (GPa) = 43.97852 54.12474 49.05163
# Shear Modulus (GPa) = -175.40894 34.07291 -70.66802
#
# Velocity S-wave (km/s) = -8.47047 3.73324 -5.37642
# Velocity P-wave (km/s) = 8.81342 6.38137 4.29851
#
# Compressibility (1/GPa) = 0.02273837
#
# Stress axis : x y z
#
# Youngs Moduli (GPa) = 125.21318 66.19390 135.20666
#
# Poissons Ratio (x) = -0.01098 0.28286
# Poissons Ratio (y) = -0.02078 0.26358
# Poissons Ratio (z) = 0.26195 0.12904
#
# Static dielectric constant tensor:
#      x y z
#    x 1.985860 0.000000 -0.039830 
#    y 0.000000 1.921870 0.000010 
#    z -0.039830 0.000010 1.979830 
# 
# From -- ./inp_files/253205.got.cif
#   From: 2010.05.17/outbox.cif.g08.bks.cpg/sg15_127_cif.got.tgz:253205.got - 2010.06.03 18:47:42.
