data_PCOD9258658
_publ_section_title
;
Structure prediction by ZEFSAII (Michael W. Deem and Ramdas Pophale) SiO2 
 PCOD9258658
Probable space group: C 2/C
;
_chemical_formula_sum "Si O2"
_cell_formula_units_Z 56
_cell_length_a 11.416207
_cell_length_b 14.526952
_cell_length_c 26.835708
_cell_angle_alpha 90.000000
_cell_angle_beta 31.280768
_cell_angle_gamma 90.000000
_cell_volume 2310.846366
_symmetry_space_group_name_H-M "C 2/C"
_symmetry_group_IT_number 15
_symmetry_cell_setting 'monoclinic'
loop_
_space_group_symop_operation_xyz
x,y,z
-x,y,1/2-z
-x,-y,-z
x,-y,1/2+z
1/2+x,1/2+y,z
1/2-x,1/2+y,1/2-z
1/2-x,1/2-y,-z
1/2+x,1/2-y,1/2+z
loop_
_atom_site_type_symbol
_atom_site_label
_atom_site_fract_x
_atom_site_fract_y
_atom_site_fract_z
Si Si1 0.413536 0.854540 0.950675
Si Si2 0.608019 0.602786 0.465380
Si Si3 0.985967 0.798032 0.149754
Si Si4 0.500000 0.333444 0.250000
Si Si5 0.125073 0.989429 0.818974
Si Si6 0.147761 0.528399 0.863287
Si Si7 0.716519 0.645614 0.994587
Si Si8 0.500000 0.084003 0.250000
O O1 0.243861 0.889513 0.967884
O O2 0.581886 0.782766 0.862817
O O3 0.530139 0.942386 0.932088
O O4 0.258283 0.798832 0.045148
O O5 0.500000 0.500000 0.500000
O O6 0.393615 0.655729 0.520581
O O7 0.802397 0.627963 0.354677
O O8 0.914444 0.781704 0.232411
O O9 0.924466 0.901788 0.157855
O O10 0.701196 0.401505 0.160557
O O11 0.187594 0.982141 0.737973
O O12 0.358801 0.973846 0.762070
O O13 0.945559 0.918226 0.909472
O O14 0.952046 0.589880 0.909036
O O15 0.750000 0.750000 0.000000
#
# Coordination Sequence:
#
# PCOD9258658 Si02
#       8
#     8   8   8   4   8   8   8   4
#     4  11  21  40  66  93 132 176 219 286 340 409
#     4  11  20  38  64  97 130 177 220 281 354 399
#     4  10  23  41  63  93 130 179 229 271 339 418
#     4  10  26  43  67  96 134 188 234 275 353 422
#     4  10  20  40  62  98 133 179 217 284 345 403
#     4  11  22  44  62  95 138 177 224 286 343 409
#     4  11  24  40  67 102 141 175 232 287 342 417
#     4  10  18  33  67  92 126 170 212 273 347 402
#
# _framework density 24.233546
#
# number of rings (size 3 to 8) (size 9 to 14) (size 15 to 20)
#    0.000    1.429    4.286    0.857    2.000    3.429 
#    0.000    0.714    0.000    0.000    0.000    0.000 
#    0.000    0.000    0.000    0.000    0.000    0.000 
#
# Total GULP energy -156097.248037 kJ/mol
# GULP energy per Si atom -5574.901716 kJ/mol
# Density = 2.417839 g / cm^3
# Si number density = 24.233546 Si / 1000 Ang^3
#
#
#
# Elastic Constant Matrix: (Units=GPa)
#
#
# Indices 1 2 3 4 5 6 
#
# 1 49.5817 -2.3330 3.1338 0.0795 -4.1237 0.0011
# 2 -2.3330 133.9481 9.7887 0.1010 -10.9694 0.0016
# 3 3.1338 9.7887 68.9230 0.5211 0.6734 0.0090
# 4 0.0795 0.1010 0.5211 -335.0167 -0.0754 1.4776
# 5 -4.1237 -10.9694 0.6734 -0.0754 41.1709 -0.0059
# 6 0.0011 0.0016 0.0090 1.4776 -0.0059 36.3238
#
#
#
# Elastic Compliance Matrix: (Units=1/GPa)
#
#
# Indices 1 2 3 4 5 6 
#
# 1 0.020449 0.000615 -0.001039 0.000003 0.002229 0.000000
# 2 0.000615 0.007735 -0.001147 0.000000 0.002141 0.000000
# 3 -0.001039 -0.001147 0.014725 0.000022 -0.000651 -0.000005
# 4 0.000003 0.000000 0.000022 -0.002984 -0.000005 0.000121
# 5 0.002229 0.002141 -0.000651 -0.000005 0.025093 0.000004
# 6 0.000000 0.000000 -0.000005 0.000121 0.000004 0.027525
#
#
# Mechanical properties :
#
#
# Convention : Reuss Voigt Hill
#
# Bulk Modulus (GPa) = 25.14708 30.40354 27.77531
# Shear Modulus (GPa) = 45.89572 -35.38018 5.25777
#
# Velocity S-wave (km/s) = 4.35661 -3.82510 1.47456
# Velocity P-wave (km/s) = 5.97547 2.63348 3.79282
#
# Compressibility (1/GPa) = 0.03976606
#
# Stress axis : x y z
#
# Youngs Moduli (GPa) = 48.90289 129.27415 67.91014
#
# Poissons Ratio (x) = -0.07945 0.07055
# Poissons Ratio (y) = -0.03006 0.07793
# Poissons Ratio (z) = 0.05080 0.14834
#
# Static dielectric constant tensor:
#      x y z
#    x 1.952130 -0.000030 0.064810 
#    y -0.000030 2.025650 -0.000020 
#    z 0.064810 -0.000020 2.050350 
# 
# From -- ./inp_files/311353.got.cif
#   From: 2010.05.17/outbox.cif.g08.bks.cpg/sg15_156_cif.got.tgz:311353.got - 2010.06.03 18:47:42.
