data_PCOD9258731
_publ_section_title
;
Structure prediction by ZEFSAII (Michael W. Deem and Ramdas Pophale) SiO2 
 PCOD9258731
Probable space group: C 2/C
;
_chemical_formula_sum "Si O2"
_cell_formula_units_Z 24
_cell_length_a 14.761799
_cell_length_b 10.925707
_cell_length_c 17.795522
_cell_angle_alpha 90.000000
_cell_angle_beta 160.282524
_cell_angle_gamma 90.000000
_cell_volume 968.326902
_symmetry_space_group_name_H-M "C 2/C"
_symmetry_group_IT_number 15
_symmetry_cell_setting 'monoclinic'
loop_
_space_group_symop_operation_xyz
x,y,z
-x,y,1/2-z
-x,-y,-z
x,-y,1/2+z
1/2+x,1/2+y,z
1/2-x,1/2+y,1/2-z
1/2-x,1/2-y,-z
1/2+x,1/2-y,1/2+z
loop_
_atom_site_type_symbol
_atom_site_label
_atom_site_fract_x
_atom_site_fract_y
_atom_site_fract_z
Si Si1 0.691542 0.443084 0.333359
Si Si2 0.749034 0.414057 0.216169
Si Si3 0.279677 0.354250 0.461330
O O1 0.500000 0.389898 0.250000
O O2 0.722052 0.365819 0.280163
O O3 0.982711 0.501366 0.579108
O O4 0.519790 0.560046 0.172054
O O5 0.725966 0.315840 0.130576
O O6 0.500000 0.500000 0.000000
O O7 0.250000 0.250000 0.500000
O O8 0.000000 0.428665 0.250000
#
# Coordination Sequence:
#
# PCOD9258731 Si02
#       3
#     8   8   8
#     4  10  18  34  54  75 110 147 187 234 285 336
#     4   9  20  33  49  77 112 145 187 232 286 337
#     4  11  21  31  49  80 115 147 182 228 284 340
#
# _framework density 24.785017
#
# number of rings (size 3 to 8) (size 9 to 14) (size 15 to 20)
#    0.000    2.000    3.333    1.000    0.000    0.000 
#    0.000    0.000    0.000    0.000    0.000    2.333 
#    0.000    1.333    0.000    0.000    0.000    0.000 
#
# Total GULP energy -66907.167084 kJ/mol
# GULP energy per Si atom -5575.597257 kJ/mol
# Density = 2.472861 g / cm^3
# Si number density = 24.785017 Si / 1000 Ang^3
#
#
#
# Elastic Constant Matrix: (Units=GPa)
#
#
# Indices 1 2 3 4 5 6 
#
# 1 259.5642 13.2195 38.8234 0.0030 -40.9772 0.0035
# 2 13.2195 18.9216 7.7721 0.0380 -3.0633 0.0056
# 3 38.8234 7.7721 202.9608 0.0382 23.0595 0.0064
# 4 0.0030 0.0380 0.0382 19.1179 0.0088 2.3845
# 5 -40.9772 -3.0633 23.0595 0.0088 58.0577 -0.0003
# 6 0.0035 0.0056 0.0064 2.3845 -0.0003 44.9184
#
#
#
# Elastic Compliance Matrix: (Units=1/GPa)
#
#
# Indices 1 2 3 4 5 6 
#
# 1 0.004739 -0.002196 -0.001245 0.000004 0.003723 0.000000
# 2 -0.002196 0.055535 -0.001951 -0.000107 0.002155 -0.000001
# 3 -0.001245 -0.001951 0.005604 -0.000006 -0.003208 0.000000
# 4 0.000004 -0.000107 -0.000006 0.052656 -0.000008 -0.002795
# 5 0.003723 0.002155 -0.003208 -0.000008 0.021240 0.000000
# 6 0.000000 -0.000001 0.000000 -0.002795 0.000000 0.022411
#
#
# Mechanical properties :
#
#
# Convention : Reuss Voigt Hill
#
# Bulk Modulus (GPa) = 18.15154 66.78626 42.46890
# Shear Modulus (GPa) = 26.13232 52.52759 39.32995
#
# Velocity S-wave (km/s) = 3.25061 4.60861 3.98784
# Velocity P-wave (km/s) = 4.62905 7.43800 6.19483
#
# Compressibility (1/GPa) = 0.05509176
#
# Stress axis : x y z
#
# Youngs Moduli (GPa) = 211.03702 18.00679 178.42923
#
# Poissons Ratio (x) = 0.03955 0.22220
# Poissons Ratio (y) = 0.46349 0.34817
# Poissons Ratio (z) = 0.26281 0.03514
#
# Static dielectric constant tensor:
#      x y z
#    x 2.269280 -0.000030 0.065000 
#    y -0.000030 1.953820 -0.000040 
#    z 0.065000 -0.000040 2.012540 
# 
# From -- ./inp_files/6145.got.cif
#   From: 2010.05.17/outbox.cif.g08.bks.cpg/sg15_4_cif.got.tgz:6145.got - 2010.06.03 18:47:42.
