data_PCOD9258686
_publ_section_title
;
Structure prediction by ZEFSAII (Michael W. Deem and Ramdas Pophale) SiO2 
 PCOD9258686
Probable space group: C 2/C
;
_chemical_formula_sum "Si O2"
_cell_formula_units_Z 64
_cell_length_a 15.526660
_cell_length_b 27.301867
_cell_length_c 8.969423
_cell_angle_alpha 90.000000
_cell_angle_beta 117.024931
_cell_angle_gamma 90.000000
_cell_volume 3387.033101
_symmetry_space_group_name_H-M "C 2/C"
_symmetry_group_IT_number 15
_symmetry_cell_setting 'monoclinic'
loop_
_space_group_symop_operation_xyz
x,y,z
-x,y,1/2-z
-x,-y,-z
x,-y,1/2+z
1/2+x,1/2+y,z
1/2-x,1/2+y,1/2-z
1/2-x,1/2-y,-z
1/2+x,1/2-y,1/2+z
loop_
_atom_site_type_symbol
_atom_site_label
_atom_site_fract_x
_atom_site_fract_y
_atom_site_fract_z
Si Si1 0.104529 0.672356 0.383346
Si Si2 0.625560 0.685215 0.706088
Si Si3 0.222910 0.610952 0.706474
Si Si4 0.367564 0.978289 0.260460
Si Si5 0.106434 0.338951 0.385873
Si Si6 0.580964 0.278901 0.503708
Si Si7 0.078194 0.560154 0.011551
Si Si8 0.224024 0.280458 0.702758
O O1 0.166853 0.632333 0.519154
O O2 0.080774 0.720636 0.466607
O O3 0.166668 0.693471 0.294408
O O4 0.000000 0.653228 0.250000
O O5 0.669027 0.632140 0.712337
O O6 0.525808 0.701077 0.550038
O O7 0.706370 0.723259 0.715102
O O8 0.611493 0.695840 0.870863
O O9 0.215890 0.553023 0.727019
O O10 0.163545 0.635091 0.797056
O O11 0.371517 0.967436 0.088787
O O12 0.465629 0.953515 0.404919
O O13 0.377139 0.035139 0.308202
O O14 0.089955 0.382533 0.493627
O O15 0.172566 0.298307 0.513300
O O16 0.000000 0.322295 0.250000
O O17 0.662620 0.290198 0.688840
#
# Coordination Sequence:
#
# PCOD9258686 Si02
#       8
#     8   8   8   8   8   8   8   8
#     4  11  18  30  53  74  98 136 186 220 253 302
#     4  10  19  33  54  73 106 136 179 228 265 297
#     4  11  20  34  49  78 106 140 173 211 263 318
#     4   9  18  31  52  70 106 132 165 206 258 317
#     4  11  22  35  49  73 115 145 166 212 268 312
#     4  10  18  34  51  73 102 139 176 233 262 279
#     4   9  17  35  49  73 101 140 163 206 258 314
#     4  11  20  33  52  74 101 144 182 218 255 308
#
# _framework density 18.895592000000001
#
# number of rings (size 3 to 8) (size 9 to 14) (size 15 to 20)
#    0.000    1.750    7.500    1.500    0.000    1.500 
#    2.250    0.625    0.000    0.000    0.000    0.875 
#    0.000    0.000    0.000    0.000    0.000    0.000 
#
# Total GULP energy -178678.492738 kJ/mol
# GULP energy per Si atom -5583.702898 kJ/mol
# Density = 1.885258 g / cm^3
# Si number density = 18.895592 Si / 1000 Ang^3
#
#
#
# Elastic Constant Matrix: (Units=GPa)
#
#
# Indices 1 2 3 4 5 6 
#
# 1 51.1677 8.4598 19.9437 0.0000 23.4010 0.0000
# 2 8.4598 30.0213 15.1085 0.0000 4.4727 0.0000
# 3 19.9437 15.1085 64.6369 0.0000 24.4630 0.0000
# 4 0.0000 0.0000 0.0000 22.4747 0.0000 0.4256
# 5 23.4010 4.4727 24.4630 0.0000 33.5858 0.0000
# 6 0.0000 0.0000 0.0000 0.4256 0.0000 23.1407
#
#
#
# Elastic Compliance Matrix: (Units=1/GPa)
#
#
# Indices 1 2 3 4 5 6 
#
# 1 0.029516 -0.005149 -0.000524 0.000000 -0.019498 0.000000
# 2 -0.005149 0.038740 -0.009487 0.000000 0.005338 0.000000
# 3 -0.000524 -0.009487 0.023793 0.000000 -0.015701 0.000000
# 4 0.000000 0.000000 0.000000 0.044510 0.000000 -0.000819
# 5 -0.019498 0.005338 -0.015701 0.000000 0.054085 0.000000
# 6 0.000000 0.000000 0.000000 -0.000819 0.000000 0.043229
#
#
# Mechanical properties :
#
#
# Convention : Reuss Voigt Hill
#
# Bulk Modulus (GPa) = 16.19994 25.87222 21.03608
# Shear Modulus (GPa) = 17.55808 22.66116 20.10962
#
# Velocity S-wave (km/s) = 3.05161 3.46682 3.26582
# Velocity P-wave (km/s) = 4.58350 5.45409 5.03763
#
# Compressibility (1/GPa) = 0.06172863
#
# Stress axis : x y z
#
# Youngs Moduli (GPa) = 33.87940 25.81344 42.02961
#
# Poissons Ratio (x) = 0.13291 0.02204
# Poissons Ratio (y) = 0.17444 0.39873
# Poissons Ratio (z) = 0.01777 0.24489
#
# Static dielectric constant tensor:
#      x y z
#    x 1.681440 0.000000 -0.026440 
#    y 0.000000 1.680660 0.000000 
#    z -0.026440 0.000000 1.691430 
# 
# From -- ./inp_files/44567.got.cif
#   From: 2010.05.17/outbox.cif.g08.bks.cpg/sg15_23_cif.got.tgz:44567.got - 2010.06.03 18:47:42.
