data_PCOD9258498
_publ_section_title
;
Structure prediction by ZEFSAII (Michael W. Deem and Ramdas Pophale) SiO2 
 PCOD9258498
Probable space group: C 2/C
;
_chemical_formula_sum "Si O2"
_cell_formula_units_Z 64
_cell_length_a 18.229002
_cell_length_b 21.684966
_cell_length_c 24.583036
_cell_angle_alpha 90.000000
_cell_angle_beta 19.665463
_cell_angle_gamma 90.000000
_cell_volume 3270.227484
_symmetry_space_group_name_H-M "C 2/C"
_symmetry_group_IT_number 15
_symmetry_cell_setting 'monoclinic'
loop_
_space_group_symop_operation_xyz
x,y,z
-x,y,1/2-z
-x,-y,-z
x,-y,1/2+z
1/2+x,1/2+y,z
1/2-x,1/2+y,1/2-z
1/2-x,1/2-y,-z
1/2+x,1/2-y,1/2+z
loop_
_atom_site_type_symbol
_atom_site_label
_atom_site_fract_x
_atom_site_fract_y
_atom_site_fract_z
Si Si1 0.403630 0.214714 0.062868
Si Si2 0.317012 0.206307 0.303672
Si Si3 0.868265 0.631680 0.681747
Si Si4 0.694175 0.998394 0.320372
Si Si5 0.477146 0.786071 0.329146
Si Si6 0.055594 0.179977 0.587638
Si Si7 0.082288 0.929157 0.247752
Si Si8 0.048098 0.377639 0.878968
O O1 0.391031 0.183878 0.130478
O O2 0.174145 0.239750 0.204518
O O3 0.590506 0.267158 0.934578
O O4 0.472405 0.159454 0.975180
O O5 0.255818 0.195670 0.409049
O O6 0.481375 0.261175 0.174109
O O7 0.410254 0.144346 0.211277
O O8 0.851335 0.558147 0.688730
O O9 0.636902 0.658861 0.820817
O O10 0.963132 0.657878 0.671665
O O11 0.889023 0.977112 0.223377
O O12 0.500000 0.000000 0.500000
O O13 0.698765 0.064082 0.288560
O O14 0.500000 0.803757 0.250000
O O15 0.250000 0.750000 0.500000
O O16 0.067174 0.124626 0.622874
O O17 0.000000 0.959167 0.250000
O O18 0.309195 0.896612 0.069169
#
# Coordination Sequence:
#
# PCOD9258498 Si02
#       8
#     8   8   8   8   8   8   8   8
#     4  11  18  35  60  83 116 152 194 238 293 349
#     4  11  18  33  60  87 112 145 201 237 282 348
#     4  10  18  35  56  79 117 155 195 242 276 346
#     4   9  18  37  63  83 110 158 208 232 277 356
#     4  12  24  34  54  90 128 157 188 245 304 343
#     4  10  18  33  58  82 113 153 183 232 298 351
#     4  10  20  38  60  86 118 147 190 252 300 330
#     4  11  20  36  64  89 110 156 207 236 279 364
#
# _framework density 19.570504
#
# number of rings (size 3 to 8) (size 9 to 14) (size 15 to 20)
#    0.000    1.500    8.750    0.750    0.000    0.000 
#    0.000    8.750    0.000    0.000    0.000    0.000 
#    0.000    0.000    0.000    0.000    0.000    0.000 
#
# Total GULP energy -178370.749403 kJ/mol
# GULP energy per Si atom -5574.085919 kJ/mol
# Density = 1.952596 g / cm^3
# Si number density = 19.570504 Si / 1000 Ang^3
#
#
#
# Elastic Constant Matrix: (Units=GPa)
#
#
# Indices 1 2 3 4 5 6 
#
# 1 72.6115 2.8497 26.0540 -0.0147 6.1334 -0.0179
# 2 2.8497 66.7016 22.5889 -0.0270 3.3494 -0.0261
# 3 26.0540 22.5889 82.6901 0.1846 10.8017 -0.1729
# 4 -0.0147 -0.0270 0.1846 13.7344 -0.0365 14.9051
# 5 6.1334 3.3494 10.8017 -0.0365 36.2631 0.0076
# 6 -0.0179 -0.0261 -0.1729 14.9051 0.0076 14.6605
#
#
#
# Elastic Compliance Matrix: (Units=1/GPa)
#
#
# Indices 1 2 3 4 5 6 
#
# 1 0.015651 0.001110 -0.005067 -0.001209 -0.001242 0.001191
# 2 0.001110 0.016599 -0.004842 -0.001224 -0.000280 0.001218
# 3 -0.005067 -0.004842 0.015425 0.004008 -0.003285 -0.003906
# 4 -0.001209 -0.001224 0.004008 -0.703473 -0.001734 0.715253
# 5 -0.001242 -0.000280 -0.003285 -0.001734 0.028789 0.001707
# 6 0.001191 0.001218 -0.003906 0.715253 0.001707 -0.659019
#
#
# Mechanical properties :
#
#
# Convention : Reuss Voigt Hill
#
# Bulk Modulus (GPa) = 33.24961 36.10983 34.67972
# Shear Modulus (GPa) = -3.97329 24.29897 10.16284
#
# Velocity S-wave (km/s) = -1.42641 3.52747 2.28127
# Velocity P-wave (km/s) = 3.78334 5.92300 4.96969
#
# Compressibility (1/GPa) = 0.03007554
#
# Stress axis : x y z
#
# Youngs Moduli (GPa) = 63.89166 60.24604 64.83087
#
# Poissons Ratio (x) = -0.06685 0.32851
# Poissons Ratio (y) = -0.07090 0.31392
# Poissons Ratio (z) = 0.32375 0.29172
#
# Static dielectric constant tensor:
#      x y z
#    x 1.767910 -0.000010 -0.036410 
#    y -0.000010 1.691810 0.000750 
#    z -0.036410 0.000750 1.747030 
# 
# From -- ./inp_files/278240.got.cif
#   From: 2010.05.17/outbox.cif.g08.bks.cpg/sg15_140_cif.got.tgz:278240.got - 2010.06.03 18:47:42.
