data_PCOD9258795
_publ_section_title
;
Structure prediction by ZEFSAII (Michael W. Deem and Ramdas Pophale) SiO2 
 PCOD9258795
Probable space group: C 2/C
;
_chemical_formula_sum "Si O2"
_cell_formula_units_Z 40
_cell_length_a 13.287394
_cell_length_b 23.487932
_cell_length_c 9.098873
_cell_angle_alpha 90.000000
_cell_angle_beta 49.687055
_cell_angle_gamma 90.000000
_cell_volume 2165.332914
_symmetry_space_group_name_H-M "C 2/C"
_symmetry_group_IT_number 15
_symmetry_cell_setting 'monoclinic'
loop_
_space_group_symop_operation_xyz
x,y,z
-x,y,1/2-z
-x,-y,-z
x,-y,1/2+z
1/2+x,1/2+y,z
1/2-x,1/2+y,1/2-z
1/2-x,1/2-y,-z
1/2+x,1/2-y,1/2+z
loop_
_atom_site_type_symbol
_atom_site_label
_atom_site_fract_x
_atom_site_fract_y
_atom_site_fract_z
Si Si1 0.130810 0.317049 0.217441
Si Si2 0.435213 0.576347 0.057278
Si Si3 0.754424 0.577407 0.757490
Si Si4 0.700226 0.499774 0.064166
Si Si5 0.374671 0.687403 0.263232
O O1 0.172340 0.363091 0.298501
O O2 0.115977 0.253079 0.294115
O O3 0.000000 0.331420 0.250000
O O4 0.247938 0.317194 0.986962
O O5 0.388495 0.538482 0.241681
O O6 0.376236 0.639146 0.137839
O O7 0.593683 0.582634 0.902398
O O8 0.379633 0.542699 0.968962
O O9 0.788849 0.539054 0.585700
O O10 0.777701 0.542450 0.885060
O O11 0.500000 0.675505 0.250000
#
# Coordination Sequence:
#
# PCOD9258795 Si02
#       5
#     8   8   8   8   8
#     4  10  21  33  52  77 107 137 175 210 258 308
#     4  11  17  31  53  83 104 130 171 225 257 299
#     4  11  18  33  51  80 106 137 168 218 258 309
#     4  10  20  29  54  82 108 131 174 217 263 299
#     4  10  18  34  55  78 100 136 176 221 252 298
#
# _framework density 18.472909999999999
#
# number of rings (size 3 to 8) (size 9 to 14) (size 15 to 20)
#    0.000    1.600    4.000    4.800    0.000    0.000 
#    0.000    2.000    0.000    0.000    0.000    0.000 
#    0.000    0.000    0.000    0.000    0.000    0.000 
#
# Total GULP energy -111589.454987 kJ/mol
# GULP energy per Si atom -5579.472749 kJ/mol
# Density = 1.843087 g / cm^3
# Si number density = 18.472910 Si / 1000 Ang^3
#
#
#
# Elastic Constant Matrix: (Units=GPa)
#
#
# Indices 1 2 3 4 5 6 
#
# 1 60.8415 35.0565 22.7125 0.0000 2.0021 0.0000
# 2 35.0565 124.3044 16.0306 0.0000 14.1972 0.0000
# 3 22.7125 16.0306 41.7543 0.0000 13.8122 0.0000
# 4 0.0000 0.0000 0.0000 23.3479 0.0000 1.8223
# 5 2.0021 14.1972 13.8122 0.0000 30.8895 0.0000
# 6 0.0000 0.0000 0.0000 1.8223 0.0000 37.6169
#
#
#
# Elastic Compliance Matrix: (Units=1/GPa)
#
#
# Indices 1 2 3 4 5 6 
#
# 1 0.024736 -0.006058 -0.013520 0.000000 0.007226 0.000000
# 2 -0.006058 0.010168 0.000948 0.000000 -0.004705 0.000000
# 3 -0.013520 0.000948 0.036140 0.000000 -0.015719 0.000000
# 4 0.000000 0.000000 0.000000 0.042993 0.000000 -0.002083
# 5 0.007226 -0.004705 -0.015719 0.000000 0.041096 0.000000
# 6 0.000000 0.000000 0.000000 -0.002083 0.000000 0.026685
#
#
# Mechanical properties :
#
#
# Convention : Reuss Voigt Hill
#
# Bulk Modulus (GPa) = 29.60007 41.61104 35.60556
# Shear Modulus (GPa) = 21.70706 28.57757 25.14231
#
# Velocity S-wave (km/s) = 3.43166 3.93746 3.69323
# Velocity P-wave (km/s) = 5.63560 6.57615 6.12396
#
# Compressibility (1/GPa) = 0.03378370
#
# Stress axis : x y z
#
# Youngs Moduli (GPa) = 40.42700 98.34453 27.67020
#
# Poissons Ratio (x) = 0.59576 0.37410
# Poissons Ratio (y) = 0.24490 -0.02622
# Poissons Ratio (z) = 0.54657 -0.09319
#
# Static dielectric constant tensor:
#      x y z
#    x 1.638800 0.000000 -0.003780 
#    y 0.000000 1.687930 0.000000 
#    z -0.003780 0.000000 1.645060 
# 
# From -- ./inp_files/31731.got.cif
#   From: 2010.05.17/outbox.cif.g08.bks.cpg/sg15_16_cif.got.tgz:31731.got - 2010.06.03 18:47:42.
