data_PCOD9258992
_publ_section_title
;
Structure prediction by ZEFSAII (Michael W. Deem and Ramdas Pophale) SiO2 
 PCOD9258992
Probable space group: C 2/C
;
_chemical_formula_sum "Si O2"
_cell_formula_units_Z 44
_cell_length_a 22.668603
_cell_length_b 16.116821
_cell_length_c 12.620706
_cell_angle_alpha 90.000000
_cell_angle_beta 22.141766
_cell_angle_gamma 90.000000
_cell_volume 1737.854527
_symmetry_space_group_name_H-M "C 2/C"
_symmetry_group_IT_number 15
_symmetry_cell_setting 'monoclinic'
loop_
_space_group_symop_operation_xyz
x,y,z
-x,y,1/2-z
-x,-y,-z
x,-y,1/2+z
1/2+x,1/2+y,z
1/2-x,1/2+y,1/2-z
1/2-x,1/2-y,-z
1/2+x,1/2-y,1/2+z
loop_
_atom_site_type_symbol
_atom_site_label
_atom_site_fract_x
_atom_site_fract_y
_atom_site_fract_z
Si Si1 0.721843 0.926717 0.758827
Si Si2 0.823068 0.158910 0.893733
Si Si3 0.500000 0.170951 0.750000
Si Si4 0.467090 0.050275 0.178633
Si Si5 0.985935 0.814625 0.614242
Si Si6 0.224229 0.891418 0.367063
O O1 0.816071 0.863859 0.528759
O O2 0.809836 0.014094 0.613544
O O3 0.657250 0.880936 0.968183
O O4 0.551672 0.964058 0.998506
O O5 0.707480 0.083688 0.046299
O O6 0.750000 0.250000 0.000000
O O7 0.981184 0.164494 0.562013
O O8 0.463188 0.224400 0.704953
O O9 0.500000 0.045066 0.250000
O O10 0.591091 0.120022 0.935649
O O11 0.149814 0.835868 0.400435
O O12 0.858590 0.871571 0.884795
#
# Coordination Sequence:
#
# PCOD9258992 Si02
#       6
#     8   8   4   8   8   8
#     4  10  19  35  59  83 111 147 202 229 273 342
#     4  12  22  34  58  91 117 146 189 245 285 330
#     4  10  18  34  58  82 112 150 190 226 274 354
#     4  10  19  37  60  82 110 155 197 230 276 350
#     4  10  20  38  60  81 118 155 181 234 299 331
#     4   8  19  36  61  77 108 156 196 217 285 344
#
# _framework density 25.318573000000001
#
# number of rings (size 3 to 8) (size 9 to 14) (size 15 to 20)
#    1.091    1.091    4.545    0.545    0.000    0.727 
#    0.000    0.909   20.000    0.000    0.000    0.000 
#    0.000    0.000    0.000    0.000    0.000    0.000 
#
# Total GULP energy -122518.852666 kJ/mol
# GULP energy per Si atom -5569.038758 kJ/mol
# Density = 2.526095 g / cm^3
# Si number density = 25.318573 Si / 1000 Ang^3
#
#
#
# Elastic Constant Matrix: (Units=GPa)
#
#
# Indices 1 2 3 4 5 6 
#
# 1 32.5032 4.3471 22.2877 -0.0052 0.7932 0.0049
# 2 4.3471 120.7282 37.4683 -0.0038 15.3373 0.0036
# 3 22.2877 37.4683 157.1186 -0.0025 36.3821 0.0026
# 4 -0.0052 -0.0038 -0.0025 -7.3680 0.0038 62.0792
# 5 0.7932 15.3373 36.3821 0.0038 32.7340 -0.0038
# 6 0.0049 0.0036 0.0026 62.0792 -0.0038 -28.2836
#
#
#
# Elastic Compliance Matrix: (Units=1/GPa)
#
#
# Indices 1 2 3 4 5 6 
#
# 1 0.035018 -0.000073 -0.006412 -0.000001 0.006312 0.000002
# 2 -0.000073 0.009094 -0.001578 0.000000 -0.002505 0.000001
# 3 -0.006412 -0.001578 0.010023 0.000000 -0.010245 0.000000
# 4 -0.000001 0.000000 0.000000 0.007759 0.000002 0.017029
# 5 0.006312 -0.002505 -0.010245 0.000002 0.042957 -0.000002
# 6 0.000002 0.000001 0.000000 0.017029 -0.000002 0.002021
#
#
# Mechanical properties :
#
#
# Convention : Reuss Voigt Hill
#
# Bulk Modulus (GPa) = 26.30925 48.72847 37.51886
# Shear Modulus (GPa) = 36.85501 15.83294 26.34398
#
# Velocity S-wave (km/s) = 3.81944 2.50341 3.22918
# Velocity P-wave (km/s) = 5.46486 5.25776 5.36231
#
# Compressibility (1/GPa) = 0.03800944
#
# Stress axis : x y z
#
# Youngs Moduli (GPa) = 28.55643 109.96589 99.77260
#
# Poissons Ratio (x) = 0.00802 0.63970
# Poissons Ratio (y) = 0.00208 0.15746
# Poissons Ratio (z) = 0.18309 0.17355
#
# Static dielectric constant tensor:
#      x y z
#    x 2.107420 0.000000 0.058290 
#    y 0.000000 2.058340 0.000000 
#    z 0.058290 0.000000 2.056300 
# 
# From -- ./inp_files/182716.got.cif
#   From: 2010.05.17/outbox.cif.g08.bks.cpg/sg15_92_cif.got.tgz:182716.got - 2010.06.03 18:47:42.
