data_PCOD9258560
_publ_section_title
;
Structure prediction by ZEFSAII (Michael W. Deem and Ramdas Pophale) SiO2 
 PCOD9258560
Probable space group: C 2/C
;
_chemical_formula_sum "Si O2"
_cell_formula_units_Z 56
_cell_length_a 12.290190
_cell_length_b 15.712397
_cell_length_c 24.680155
_cell_angle_alpha 90.000000
_cell_angle_beta 145.921306
_cell_angle_gamma 90.000000
_cell_volume 2670.506256
_symmetry_space_group_name_H-M "C 2/C"
_symmetry_group_IT_number 15
_symmetry_cell_setting 'monoclinic'
loop_
_space_group_symop_operation_xyz
x,y,z
-x,y,1/2-z
-x,-y,-z
x,-y,1/2+z
1/2+x,1/2+y,z
1/2-x,1/2+y,1/2-z
1/2-x,1/2-y,-z
1/2+x,1/2-y,1/2+z
loop_
_atom_site_type_symbol
_atom_site_label
_atom_site_fract_x
_atom_site_fract_y
_atom_site_fract_z
Si Si1 0.397202 0.426432 0.655752
Si Si2 0.686633 0.068891 0.642354
Si Si3 0.589101 0.911585 0.944862
Si Si4 0.457790 0.439516 0.354058
Si Si5 0.561881 0.193419 0.021551
Si Si6 0.092947 0.108284 0.542714
Si Si7 0.165486 0.541633 0.362843
O O1 0.500000 0.384352 0.750000
O O2 0.304189 0.510049 0.647477
O O3 0.523178 0.461875 0.658110
O O4 0.240804 0.359962 0.572117
O O5 0.617586 0.155403 0.586169
O O6 0.813044 0.091393 0.747293
O O7 0.510975 0.002717 0.582829
O O8 0.478430 0.841286 0.934239
O O9 0.579020 0.903857 0.876366
O O10 0.818440 0.908395 0.052767
O O11 0.386949 0.416737 0.384941
O O12 0.603991 0.292070 0.038575
O O13 0.260698 0.050848 0.585070
O O14 0.875509 0.081521 0.434602
O O15 0.000000 0.533691 0.250000
#
# Coordination Sequence:
#
# PCOD9258560 Si02
#       7
#     8   8   8   8   8   8   8
#     4   9  17  32  58  87 114 153 190 230 285 344
#     4  10  18  33  59  89 119 149 188 236 284 348
#     4  10  19  36  63  84 114 156 191 230 286 344
#     4  10  18  34  59  83 113 161 189 221 288 351
#     4  11  20  37  57  93 120 139 190 255 286 321
#     4  10  24  40  60  85 119 149 194 245 280 339
#     4  10  22  44  63  77 114 166 197 221 288 356
#
# _framework density 20.969806999999999
#
# number of rings (size 3 to 8) (size 9 to 14) (size 15 to 20)
#    0.000    2.000    2.857    1.714    0.000    2.857 
#    5.143    0.714    0.000    0.000    0.000    0.000 
#    0.000    0.000    0.000    0.000    0.000    0.000 
#
# Total GULP energy -156000.258906 kJ/mol
# GULP energy per Si atom -5571.437818 kJ/mol
# Density = 2.092208 g / cm^3
# Si number density = 20.969807 Si / 1000 Ang^3
#
#
#
# Elastic Constant Matrix: (Units=GPa)
#
#
# Indices 1 2 3 4 5 6 
#
# 1 32.2388 -1.1448 11.8507 0.0001 -2.0813 0.0000
# 2 -1.1448 83.1598 39.4902 0.0001 -7.6434 0.0000
# 3 11.8507 39.4902 125.6605 0.0003 -5.6979 0.0001
# 4 0.0001 0.0001 0.0003 10.7003 0.0001 0.0900
# 5 -2.0813 -7.6434 -5.6979 0.0001 10.3036 0.0001
# 6 0.0000 0.0000 0.0001 0.0900 0.0001 7.9214
#
#
#
# Elastic Compliance Matrix: (Units=1/GPa)
#
#
# Indices 1 2 3 4 5 6 
#
# 1 0.032906 0.002819 -0.003685 0.000000 0.006700 0.000000
# 2 0.002819 0.015092 -0.004590 0.000000 0.009226 0.000000
# 3 -0.003685 -0.004590 0.009806 0.000000 0.001273 0.000000
# 4 0.000000 0.000000 0.000000 0.093464 -0.000001 -0.001062
# 5 0.006700 0.009226 0.001273 -0.000001 0.105955 -0.000001
# 6 0.000000 0.000000 0.000000 -0.001062 -0.000001 0.126252
#
#
# Mechanical properties :
#
#
# Convention : Reuss Voigt Hill
#
# Bulk Modulus (GPa) = 21.32655 37.93902 29.63278
# Shear Modulus (GPa) = 12.19460 18.50927 15.35193
#
# Velocity S-wave (km/s) = 2.41411 2.97419 2.70866
# Velocity P-wave (km/s) = 4.23825 5.47045 4.89329
#
# Compressibility (1/GPa) = 0.04688991
#
# Stress axis : x y z
#
# Youngs Moduli (GPa) = 30.38973 66.26200 101.98096
#
# Poissons Ratio (x) = -0.18678 0.37583
# Poissons Ratio (y) = -0.08566 0.46811
# Poissons Ratio (z) = 0.11200 0.30416
#
# Static dielectric constant tensor:
#      x y z
#    x 1.827970 0.000000 -0.000530 
#    y 0.000000 1.733080 0.000000 
#    z -0.000530 0.000000 1.821010 
# 
# From -- ./inp_files/296594.got.cif
#   From: 2010.05.17/outbox.cif.g08.bks.cpg/sg15_149_cif.got.tgz:296594.got - 2010.06.03 18:47:42.
