data_PCOD9258386
_publ_section_title
;
Structure prediction by ZEFSAII (Michael W. Deem and Ramdas Pophale) SiO2 
 PCOD9258386
Probable space group: C 2/C
;
_chemical_formula_sum "Si O2"
_cell_formula_units_Z 56
_cell_length_a 25.930077
_cell_length_b 10.333742
_cell_length_c 14.019980
_cell_angle_alpha 90.000000
_cell_angle_beta 32.108230
_cell_angle_gamma 90.000000
_cell_volume 1996.772718
_symmetry_space_group_name_H-M "C 2/C"
_symmetry_group_IT_number 15
_symmetry_cell_setting 'monoclinic'
loop_
_space_group_symop_operation_xyz
x,y,z
-x,y,1/2-z
-x,-y,-z
x,-y,1/2+z
1/2+x,1/2+y,z
1/2-x,1/2+y,1/2-z
1/2-x,1/2-y,-z
1/2+x,1/2-y,1/2+z
loop_
_atom_site_type_symbol
_atom_site_label
_atom_site_fract_x
_atom_site_fract_y
_atom_site_fract_z
Si Si1 0.370862 0.113504 0.840231
Si Si2 0.500000 0.315282 0.750000
Si Si3 0.384374 0.755584 0.055943
Si Si4 0.629699 0.367695 0.122200
Si Si5 0.166714 0.163451 0.855168
Si Si6 0.139573 0.626372 0.250691
Si Si7 0.848314 0.067474 0.271440
Si Si8 0.000000 0.563330 0.250000
O O1 0.394511 0.022264 0.711415
O O2 0.406154 0.015702 0.866748
O O3 0.437303 0.233284 0.767984
O O4 0.254883 0.125326 0.032203
O O5 0.588958 0.377883 0.554611
O O6 0.272934 0.803230 0.229118
O O7 0.400609 0.677978 0.127690
O O8 0.399004 0.662703 0.940626
O O9 0.456448 0.867128 0.911400
O O10 0.619195 0.236981 0.201850
O O11 0.592660 0.491561 0.239021
O O12 0.744492 0.390468 0.938001
O O13 0.126384 0.295788 0.869449
O O14 0.176055 0.050279 0.763073
#
# Coordination Sequence:
#
# PCOD9258386 Si02
#       8
#     8   4   8   8   8   8   8   4
#     4  10  18  33  55  84 103 131 186 224 262 317
#     4  11  22  31  52  84 112 135 170 223 278 330
#     4  11  19  34  57  82 107 144 179 226 268 309
#     4   8  15  30  53  81 104 136 186 217 255 320
#     4  10  20  35  54  79 111 141 175 221 273 320
#     4   8  14  30  55  76 102 136 176 228 257 306
#     4  10  19  35  60  78 106 149 176 218 272 322
#     4  11  20  31  56  82 108 135 182 227 256 308
#
# _framework density 28.045255000000001
#
# number of rings (size 3 to 8) (size 9 to 14) (size 15 to 20)
#    0.000    2.286    4.286    1.714    0.000    1.143 
#    0.000    0.714    3.143    0.857    0.000    0.000 
#    0.000    0.000    0.000    0.000    0.000    0.000 
#
# Total GULP energy -156602.311745 kJ/mol
# GULP energy per Si atom -5592.939705 kJ/mol
# Density = 2.798142 g / cm^3
# Si number density = 28.045255 Si / 1000 Ang^3
#
#
#
# Elastic Constant Matrix: (Units=GPa)
#
#
# Indices 1 2 3 4 5 6 
#
# 1 79.0058 15.6000 37.4075 0.0000 14.3564 0.0000
# 2 15.6000 118.2785 26.9898 0.0000 13.2501 0.0000
# 3 37.4075 26.9898 163.9999 0.0000 -1.7404 0.0000
# 4 0.0000 0.0000 0.0000 24.1639 0.0000 22.6062
# 5 14.3564 13.2501 -1.7404 0.0000 41.8702 0.0000
# 6 0.0000 0.0000 0.0000 22.6062 0.0000 61.7946
#
#
#
# Elastic Compliance Matrix: (Units=1/GPa)
#
#
# Indices 1 2 3 4 5 6 
#
# 1 0.015367 -0.000656 -0.003452 0.000000 -0.005205 0.000000
# 2 -0.000656 0.009164 -0.001388 0.000000 -0.002733 0.000000
# 3 -0.003452 -0.001388 0.007134 0.000000 0.001919 0.000000
# 4 0.000000 0.000000 0.000000 0.062917 0.000000 -0.023017
# 5 -0.005205 -0.002733 0.001919 0.000000 0.026613 0.000000
# 6 0.000000 0.000000 0.000000 -0.023017 0.000000 0.024603
#
#
# Mechanical properties :
#
#
# Convention : Reuss Voigt Hill
#
# Bulk Modulus (GPa) = 48.37195 57.91987 53.14591
# Shear Modulus (GPa) = 30.54734 44.31821 37.43277
#
# Velocity S-wave (km/s) = 3.30391 3.97953 3.65736
# Velocity P-wave (km/s) = 5.64267 6.46628 6.06846
#
# Compressibility (1/GPa) = 0.02067314
#
# Stress axis : x y z
#
# Youngs Moduli (GPa) = 65.07313 109.12408 140.17825
#
# Poissons Ratio (x) = 0.07158 0.48396
# Poissons Ratio (y) = 0.04268 0.19450
# Poissons Ratio (z) = 0.22466 0.15141
#
# Static dielectric constant tensor:
#      x y z
#    x 2.233740 0.000000 0.028320 
#    y 0.000000 2.306850 0.000000 
#    z 0.028320 0.000000 2.074270 
# 
# From -- ./inp_files/181941.got.cif
#   From: 2010.05.17/outbox.cif.g08.bks.cpg/sg15_91_cif.got.tgz:181941.got - 2010.06.03 18:47:42.
