data_PCOD9258851
_publ_section_title
;
Structure prediction by ZEFSAII (Michael W. Deem and Ramdas Pophale) SiO2 
 PCOD9258851
Probable space group: C 2/C
;
_chemical_formula_sum "Si O2"
_cell_formula_units_Z 52
_cell_length_a 17.412345
_cell_length_b 29.505961
_cell_length_c 5.752988
_cell_angle_alpha 90.000000
_cell_angle_beta 65.796477
_cell_angle_gamma 90.000000
_cell_volume 2695.879817
_symmetry_space_group_name_H-M "C 2/C"
_symmetry_group_IT_number 15
_symmetry_cell_setting 'monoclinic'
loop_
_space_group_symop_operation_xyz
x,y,z
-x,y,1/2-z
-x,-y,-z
x,-y,1/2+z
1/2+x,1/2+y,z
1/2-x,1/2+y,1/2-z
1/2-x,1/2-y,-z
1/2+x,1/2-y,1/2+z
loop_
_atom_site_type_symbol
_atom_site_label
_atom_site_fract_x
_atom_site_fract_y
_atom_site_fract_z
Si Si1 0.000000 0.665019 0.250000
Si Si2 0.587612 0.314553 0.020102
Si Si3 0.647919 0.847275 0.853098
Si Si4 0.804019 0.117058 0.396470
Si Si5 0.099298 0.974332 0.628231
Si Si6 0.880992 0.725849 0.726505
Si Si7 0.274856 0.308717 0.313800
O O1 0.936956 0.636439 0.166052
O O2 0.941116 0.697350 0.479369
O O3 0.634795 0.359180 0.869665
O O4 0.586055 0.277043 0.818200
O O5 0.500000 0.324710 0.250000
O O6 0.645426 0.290851 0.146177
O O7 0.706833 0.880882 0.929233
O O8 0.711599 0.829636 0.579660
O O9 0.620994 0.803761 0.038772
O O10 0.840664 0.069009 0.421323
O O11 0.805268 0.151242 0.610728
O O12 0.000000 0.961360 0.750000
O O13 0.112846 0.997698 0.355830
O O14 0.784045 0.724718 0.757972
#
# Coordination Sequence:
#
# PCOD9258851 Si02
#       7
#     4   8   8   8   8   8   8
#     4  10  18  34  56  80 116 156 210 254 288 358
#     4  11  23  34  52  83 114 162 208 256 301 350
#     4   9  20  36  58  81 116 156 205 253 305 351
#     4  10  23  39  59  87 120 153 201 255 312 374
#     4  10  24  43  70  97 125 162 202 253 316 386
#     4  10  19  36  52  79 114 162 209 249 295 350
#     4   9  21  36  53  76 116 156 202 252 303 350
#
# _framework density 19.288694
#
# number of rings (size 3 to 8) (size 9 to 14) (size 15 to 20)
#    0.000    2.154    0.769    0.923    6.462    8.615 
#    2.769    0.000    0.000    0.000    0.000    1.077 
#    0.000    0.000    0.000    0.000    0.000    0.000 
#
# Total GULP energy -145024.899431 kJ/mol
# GULP energy per Si atom -5577.880747 kJ/mol
# Density = 1.924479 g / cm^3
# Si number density = 19.288694 Si / 1000 Ang^3
#
#
#
# Elastic Constant Matrix: (Units=GPa)
#
#
# Indices 1 2 3 4 5 6 
#
# 1 139.7493 53.4101 40.8922 0.0000 4.9329 0.0000
# 2 53.4101 64.8924 25.7003 0.0000 0.2755 0.0000
# 3 40.8922 25.7003 103.6259 0.0000 -0.7495 0.0000
# 4 0.0000 0.0000 0.0000 16.7049 0.0000 -7.2227
# 5 4.9329 0.2755 -0.7495 0.0000 25.6095 0.0000
# 6 0.0000 0.0000 0.0000 -7.2227 0.0000 -1.2530
#
#
#
# Elastic Compliance Matrix: (Units=1/GPa)
#
#
# Indices 1 2 3 4 5 6 
#
# 1 0.011027 -0.008137 -0.002349 0.000000 -0.002105 0.000000
# 2 -0.008137 0.023095 -0.002508 0.000000 0.001245 0.000000
# 3 -0.002349 -0.002508 0.011205 0.000000 0.000807 0.000000
# 4 0.000000 0.000000 0.000000 0.017142 0.000000 -0.098807
# 5 -0.002105 0.001245 0.000807 0.000000 0.039464 0.000000
# 6 0.000000 0.000000 0.000000 -0.098807 0.000000 -0.228525
#
#
# Mechanical properties :
#
#
# Convention : Reuss Voigt Hill
#
# Bulk Modulus (GPa) = 51.70581 60.91921 56.31251
# Shear Modulus (GPa) = -53.10157 20.76328 -16.16915
#
# Velocity S-wave (km/s) = -5.25259 3.28449 -2.89843
# Velocity P-wave (km/s) = 3.14988 6.78493 4.24932
#
# Compressibility (1/GPa) = 0.01934019
#
# Stress axis : x y z
#
# Youngs Moduli (GPa) = 90.68697 43.29926 89.24797
#
# Poissons Ratio (x) = 0.35231 0.20961
# Poissons Ratio (y) = 0.73789 0.22383
# Poissons Ratio (z) = 0.21299 0.10859
#
# Static dielectric constant tensor:
#      x y z
#    x 1.750750 0.000000 0.046500 
#    y 0.000000 1.636760 0.000000 
#    z 0.046500 0.000000 1.711270 
# 
# From -- ./inp_files/11450.got.cif
#   From: 2010.05.17/outbox.cif.g08.bks.cpg/sg15_6_cif.got.tgz:11450.got - 2010.06.03 18:47:42.
