data_PCOD9258067
_publ_section_title
;
Structure prediction by ZEFSAII (Michael W. Deem and Ramdas Pophale) SiO2 
 PCOD9258067
Probable space group: C 2/C
;
_chemical_formula_sum "Si O2"
_cell_formula_units_Z 60
_cell_length_a 7.387937
_cell_length_b 21.224788
_cell_length_c 22.830892
_cell_angle_alpha 90.000000
_cell_angle_beta 41.945946
_cell_angle_gamma 90.000000
_cell_volume 2393.011825
_symmetry_space_group_name_H-M "C 2/C"
_symmetry_group_IT_number 15
_symmetry_cell_setting 'monoclinic'
loop_
_space_group_symop_operation_xyz
x,y,z
-x,y,1/2-z
-x,-y,-z
x,-y,1/2+z
1/2+x,1/2+y,z
1/2-x,1/2+y,1/2-z
1/2-x,1/2-y,-z
1/2+x,1/2-y,1/2+z
loop_
_atom_site_type_symbol
_atom_site_label
_atom_site_fract_x
_atom_site_fract_y
_atom_site_fract_z
Si Si1 0.000000 0.209855 0.250000
Si Si2 0.110597 0.007469 0.318175
Si Si3 0.129428 0.084928 0.532106
Si Si4 0.932131 0.373320 0.475930
Si Si5 0.033563 0.215727 0.915275
Si Si6 0.638456 0.352273 0.829827
Si Si7 0.688683 0.275636 0.156674
Si Si8 0.053769 0.496774 0.377485
O O1 0.180195 0.248285 0.158823
O O2 0.168608 0.166367 0.253977
O O3 0.212095 0.074791 0.316063
O O4 0.314536 0.986142 0.217743
O O5 0.812741 0.013959 0.357640
O O6 0.063512 0.961262 0.384268
O O7 0.345856 0.108857 0.528426
O O8 0.974167 0.148502 0.550782
O O9 0.316530 0.048930 0.440160
O O10 0.667887 0.355825 0.574433
O O11 0.033282 0.311926 0.417547
O O12 0.922934 0.433665 0.436133
O O13 0.986265 0.210769 0.857793
O O14 0.750000 0.250000 0.000000
O O15 0.767307 0.297309 0.838258
O O16 0.500000 0.306894 0.250000
#
# Coordination Sequence:
#
# PCOD9258067 Si02
#       8
#     4   8   8   8   8   8   8   8
#     4  12  24  40  68  94 128 176 218 266 318 398
#     4  10  20  31  58  93 122 170 206 266 320 380
#     4  10  19  38  58  90 133 157 212 271 317 380
#     4  10  20  34  59  92 126 164 212 270 325 374
#     4  11  26  44  68  97 132 171 217 271 331 385
#     4  12  22  39  63  95 129 165 218 259 325 387
#     4  11  24  41  61  94 132 167 209 269 322 390
#     4  10  18  32  58  90 130 157 216 270 319 369
#
# _framework density 25.073007
#
# number of rings (size 3 to 8) (size 9 to 14) (size 15 to 20)
#    0.000    1.333    4.000    3.600    7.467    0.000 
#    0.000    0.000    1.467    0.800    0.000    0.000 
#    0.000    0.000    0.000    0.000    0.000    0.000 
#
# Total GULP energy -167693.312534 kJ/mol
# GULP energy per Si atom -5589.777084 kJ/mol
# Density = 2.501594 g / cm^3
# Si number density = 25.073007 Si / 1000 Ang^3
#
#
#
# Elastic Constant Matrix: (Units=GPa)
#
#
# Indices 1 2 3 4 5 6 
#
# 1 46.0045 19.4880 17.1579 0.0002 -10.5412 -0.0001
# 2 19.4880 119.4843 39.3111 0.0000 -27.3991 0.0000
# 3 17.1579 39.3111 149.1614 0.0001 -10.4961 0.0002
# 4 0.0002 0.0000 0.0001 41.4593 -0.0001 -2.4647
# 5 -10.5412 -27.3991 -10.4961 -0.0001 29.0186 0.0000
# 6 -0.0001 0.0000 0.0002 -2.4647 0.0000 39.2613
#
#
#
# Elastic Compliance Matrix: (Units=1/GPa)
#
#
# Indices 1 2 3 4 5 6 
#
# 1 0.024742 -0.001929 -0.001881 0.000000 0.006486 0.000000
# 2 -0.001929 0.011557 -0.002160 0.000000 0.009430 0.000000
# 3 -0.001881 -0.002160 0.007489 0.000000 -0.000014 0.000000
# 4 0.000000 0.000000 0.000000 0.024210 0.000000 0.001520
# 5 0.006486 0.009430 -0.000014 0.000000 0.045715 0.000000
# 6 0.000000 0.000000 0.000000 0.001520 0.000000 0.025566
#
#
# Mechanical properties :
#
#
# Convention : Reuss Voigt Hill
#
# Bulk Modulus (GPa) = 31.40082 51.84046 41.62064
# Shear Modulus (GPa) = 30.89539 37.86072 34.37805
#
# Velocity S-wave (km/s) = 3.51410 3.89011 3.70688
# Velocity P-wave (km/s) = 5.38667 6.39515 5.91245
#
# Compressibility (1/GPa) = 0.03184630
#
# Stress axis : x y z
#
# Youngs Moduli (GPa) = 40.41713 86.52658 133.53123
#
# Poissons Ratio (x) = 0.16693 0.25120
# Poissons Ratio (y) = 0.07798 0.28848
# Poissons Ratio (z) = 0.07603 0.18693
#
# Static dielectric constant tensor:
#      x y z
#    x 2.106620 0.000000 -0.107420 
#    y 0.000000 2.059750 0.000000 
#    z -0.107420 0.000000 1.905750 
# 
# From -- ./inp_files/266236.got.cif
#   From: 2010.05.17/outbox.cif.g08.bks.cpg/sg15_134_cif.got.tgz:266236.got - 2010.06.03 18:47:42.
