data_PCOD9258095
_publ_section_title
;
Structure prediction by ZEFSAII (Michael W. Deem and Ramdas Pophale) SiO2 
 PCOD9258095
Probable space group: C 2/C
;
_chemical_formula_sum "Si O2"
_cell_formula_units_Z 60
_cell_length_a 24.460313
_cell_length_b 8.393457
_cell_length_c 17.815423
_cell_angle_alpha 90.000000
_cell_angle_beta 124.427640
_cell_angle_gamma 90.000000
_cell_volume 3016.957437
_symmetry_space_group_name_H-M "C 2/C"
_symmetry_group_IT_number 15
_symmetry_cell_setting 'monoclinic'
loop_
_space_group_symop_operation_xyz
x,y,z
-x,y,1/2-z
-x,-y,-z
x,-y,1/2+z
1/2+x,1/2+y,z
1/2-x,1/2+y,1/2-z
1/2-x,1/2-y,-z
1/2+x,1/2-y,1/2+z
loop_
_atom_site_type_symbol
_atom_site_label
_atom_site_fract_x
_atom_site_fract_y
_atom_site_fract_z
Si Si1 0.841372 0.064108 0.288637
Si Si2 0.181363 0.783855 0.578526
Si Si3 0.500000 0.999979 0.750000
Si Si4 0.379169 0.848082 0.609127
Si Si5 0.169303 0.705220 0.270326
Si Si6 0.823342 0.695555 0.533479
Si Si7 0.431249 0.689556 0.226793
Si Si8 0.690779 0.083371 0.136336
O O1 0.854280 0.117417 0.383752
O O2 0.896770 0.120862 0.273332
O O3 0.767993 0.130452 0.210095
O O4 0.831844 0.876894 0.269736
O O5 0.148303 0.779365 0.471178
O O6 0.258087 0.835534 0.639650
O O7 0.184146 0.598204 0.604622
O O8 0.547570 0.125318 0.743909
O O9 0.455282 0.900368 0.658360
O O10 0.376224 0.792021 0.692541
O O11 0.336623 0.011428 0.567871
O O12 0.155513 0.592211 0.189423
O O13 0.750000 0.750000 0.500000
O O14 0.876775 0.801924 0.618611
O O15 0.832731 0.692769 0.450868
O O16 0.500000 0.613352 0.250000
#
# Coordination Sequence:
#
# PCOD9258095 Si02
#       8
#     8   8   4   8   8   8   8   8
#     4  10  19  36  53  82 117 154 185 236 304 338
#     4   9  20  35  58  85 117 148 193 243 292 348
#     4   8  20  36  58  84 106 158 208 230 294 348
#     4  10  20  38  57  86 119 154 201 245 286 358
#     4  10  21  35  57  87 124 148 187 244 306 342
#     4  10  18  32  59  88 111 147 199 245 288 343
#     4   9  19  35  56  80 114 153 193 238 289 350
#     4   9  19  32  54  87 111 147 192 240 286 345
#
# _framework density 19.887584
#
# number of rings (size 3 to 8) (size 9 to 14) (size 15 to 20)
#    0.400    2.133    1.333    0.400    3.733    2.133 
#    3.600    2.000    0.000    1.600    0.000    0.000 
#    0.000    0.000    0.000    0.000    0.000    0.000 
#
# Total GULP energy -167112.859369 kJ/mol
# GULP energy per Si atom -5570.428646 kJ/mol
# Density = 1.984232 g / cm^3
# Si number density = 19.887584 Si / 1000 Ang^3
#
#
#
# Elastic Constant Matrix: (Units=GPa)
#
#
# Indices 1 2 3 4 5 6 
#
# 1 73.4261 6.1990 35.6631 0.0000 -7.4631 0.0000
# 2 6.1990 9.1408 11.1067 0.0000 -2.3424 0.0000
# 3 35.6631 11.1067 76.1035 0.0000 -8.7775 0.0000
# 4 0.0000 0.0000 0.0000 21.5553 0.0000 -8.6202
# 5 -7.4631 -2.3424 -8.7775 0.0000 32.5938 0.0000
# 6 0.0000 0.0000 0.0000 -8.6202 0.0000 15.0664
#
#
#
# Elastic Compliance Matrix: (Units=1/GPa)
#
#
# Indices 1 2 3 4 5 6 
#
# 1 0.017776 -0.002094 -0.007815 0.000000 0.001815 0.000000
# 2 -0.002094 0.133861 -0.018061 0.000000 0.004277 0.000000
# 3 -0.007815 -0.018061 0.019694 0.000000 0.002216 0.000000
# 4 0.000000 0.000000 0.000000 0.060157 0.000000 0.034419
# 5 0.001815 0.004277 0.002216 0.000000 0.032001 0.000000
# 6 0.000000 0.000000 0.000000 0.034419 0.000000 0.086065
#
#
# Mechanical properties :
#
#
# Convention : Reuss Voigt Hill
#
# Bulk Modulus (GPa) = 8.66627 29.40090 19.03359
# Shear Modulus (GPa) = 11.26232 20.88987 16.07609
#
# Velocity S-wave (km/s) = 2.38229 3.24450 2.84623
# Velocity P-wave (km/s) = 3.45458 5.37134 4.51583
#
# Compressibility (1/GPa) = 0.11538985
#
# Stress axis : x y z
#
# Youngs Moduli (GPa) = 56.25471 7.47043 50.77742
#
# Poissons Ratio (x) = 0.01564 0.39684
# Poissons Ratio (y) = 0.11781 0.91710
# Poissons Ratio (z) = 0.43964 0.13493
#
# Static dielectric constant tensor:
#      x y z
#    x 1.712470 0.000000 0.003700 
#    y 0.000000 1.730200 0.000000 
#    z 0.003700 0.000000 1.718500 
# 
# From -- ./inp_files/218638.got.cif
#   From: 2010.05.17/outbox.cif.g08.bks.cpg/sg15_110_cif.got.tgz:218638.got - 2010.06.03 18:47:42.
