data_PCOD9258385
_publ_section_title
;
Structure prediction by ZEFSAII (Michael W. Deem and Ramdas Pophale) SiO2 
 PCOD9258385
Probable space group: C 2/C
;
_chemical_formula_sum "Si O2"
_cell_formula_units_Z 56
_cell_length_a 23.051953
_cell_length_b 5.477770
_cell_length_c 28.025980
_cell_angle_alpha 90.000000
_cell_angle_beta 120.713033
_cell_angle_gamma 90.000000
_cell_volume 3042.548416
_symmetry_space_group_name_H-M "C 2/C"
_symmetry_group_IT_number 15
_symmetry_cell_setting 'monoclinic'
loop_
_space_group_symop_operation_xyz
x,y,z
-x,y,1/2-z
-x,-y,-z
x,-y,1/2+z
1/2+x,1/2+y,z
1/2-x,1/2+y,1/2-z
1/2-x,1/2-y,-z
1/2+x,1/2-y,1/2+z
loop_
_atom_site_type_symbol
_atom_site_label
_atom_site_fract_x
_atom_site_fract_y
_atom_site_fract_z
Si Si1 0.459332 0.248812 0.970524
Si Si2 0.603639 0.620247 0.399344
Si Si3 0.706470 0.991315 0.437765
Si Si4 0.095257 0.747605 0.323378
Si Si5 0.960052 0.758871 0.858929
Si Si6 0.653649 0.703352 0.000741
Si Si7 0.054387 0.282553 0.701706
O O1 0.443988 0.264669 0.907939
O O2 0.500000 0.500000 0.000000
O O3 0.391762 0.232105 0.973709
O O4 0.500000 0.000000 0.000000
O O5 0.592635 0.524140 0.341590
O O6 0.541260 0.785286 0.388440
O O7 0.604281 0.418898 0.440983
O O8 0.678941 0.720277 0.429408
O O9 0.656003 0.120137 0.378105
O O10 0.689140 0.091637 0.483374
O O11 0.783781 0.032638 0.458077
O O12 0.098942 0.734371 0.268318
O O13 0.021481 0.663850 0.310391
O O14 0.926666 0.521281 0.820841
O O15 0.946747 0.022641 0.827450
#
# Coordination Sequence:
#
# PCOD9258385 Si02
#       7
#     8   8   8   8   8   8   8
#     4  12  24  39  61  84 117 158 194 236 283 348
#     4  10  18  33  55  83 116 151 186 239 297 353
#     4  10  19  36  57  83 122 147 192 239 297 357
#     4   9  20  31  54  82 113 146 191 233 297 338
#     4  11  21  35  57  81 118 147 193 234 286 335
#     4  10  22  35  55  88 116 156 192 236 297 351
#     4  10  21  35  55  84 113 151 188 243 283 339
#
# _framework density 18.405622999999999
#
# number of rings (size 3 to 8) (size 9 to 14) (size 15 to 20)
#    0.000    1.714    2.857    2.143    4.000    1.143 
#    0.000    0.000    0.000    1.714    0.000    0.000 
#    0.000    0.000    0.000    0.000    0.000    0.000 
#
# Total GULP energy -155885.770496 kJ/mol
# GULP energy per Si atom -5567.348946 kJ/mol
# Density = 1.836373 g / cm^3
# Si number density = 18.405623 Si / 1000 Ang^3
#
#
#
# Elastic Constant Matrix: (Units=GPa)
#
#
# Indices 1 2 3 4 5 6 
#
# 1 98.3388 27.9489 48.2932 0.0000 -17.1608 0.0032
# 2 27.9489 76.9177 45.7069 -0.0001 -20.8385 0.0085
# 3 48.2932 45.7069 136.1693 -0.0001 -32.2219 0.0008
# 4 0.0000 -0.0001 -0.0001 19.9908 0.0001 2.5048
# 5 -17.1608 -20.8385 -32.2219 0.0001 29.9251 -0.0001
# 6 0.0032 0.0085 0.0008 2.5048 -0.0001 18.3607
#
#
#
# Elastic Compliance Matrix: (Units=1/GPa)
#
#
# Indices 1 2 3 4 5 6 
#
# 1 0.012777 -0.002051 -0.003284 0.000000 0.002363 -0.000001
# 2 -0.002051 0.017851 -0.003491 0.000001 0.007496 -0.000008
# 3 -0.003284 -0.003491 0.011620 0.000000 0.008198 0.000002
# 4 0.000000 0.000001 0.000000 0.050893 0.000000 -0.006943
# 5 0.002363 0.007496 0.008198 0.000000 0.048819 -0.000004
# 6 -0.000001 -0.000008 0.000002 -0.006943 -0.000004 0.055411
#
#
# Mechanical properties :
#
#
# Convention : Reuss Voigt Hill
#
# Bulk Modulus (GPa) = 40.65573 61.70263 51.17918
# Shear Modulus (GPa) = 22.39928 26.28712 24.34320
#
# Velocity S-wave (km/s) = 3.49231 3.78327 3.64070
# Velocity P-wave (km/s) = 6.19664 7.25815 6.74830
#
# Compressibility (1/GPa) = 0.02459678
#
# Stress axis : x y z
#
# Youngs Moduli (GPa) = 78.26663 56.01820 86.05835
#
# Poissons Ratio (x) = 0.11490 0.28259
# Poissons Ratio (y) = 0.16054 0.30041
# Poissons Ratio (z) = 0.25701 0.19555
#
# Static dielectric constant tensor:
#      x y z
#    x 1.632560 0.000000 0.033170 
#    y 0.000000 1.768340 0.000000 
#    z 0.033170 0.000000 1.660530 
# 
# From -- ./inp_files/278972.got.cif
#   From: 2010.05.17/outbox.cif.g08.bks.cpg/sg15_140_cif.got.tgz:278972.got - 2010.06.03 18:47:42.
