data_PCOD9258063
_publ_section_title
;
Structure prediction by ZEFSAII (Michael W. Deem and Ramdas Pophale) SiO2 
 PCOD9258063
Probable space group: C 2/C
;
_chemical_formula_sum "Si O2"
_cell_formula_units_Z 48
_cell_length_a 10.328329
_cell_length_b 13.827817
_cell_length_c 20.842575
_cell_angle_alpha 90.000000
_cell_angle_beta 141.645255
_cell_angle_gamma 90.000000
_cell_volume 1847.127413
_symmetry_space_group_name_H-M "C 2/C"
_symmetry_group_IT_number 15
_symmetry_cell_setting 'monoclinic'
loop_
_space_group_symop_operation_xyz
x,y,z
-x,y,1/2-z
-x,-y,-z
x,-y,1/2+z
1/2+x,1/2+y,z
1/2-x,1/2+y,1/2-z
1/2-x,1/2-y,-z
1/2+x,1/2-y,1/2+z
loop_
_atom_site_type_symbol
_atom_site_label
_atom_site_fract_x
_atom_site_fract_y
_atom_site_fract_z
Si Si1 0.730014 0.898947 0.957945
Si Si2 0.000000 0.448238 0.750000
Si Si3 0.059569 0.614571 0.523486
Si Si4 0.500000 0.594034 0.750000
Si Si5 0.166029 0.904258 0.180927
Si Si6 0.229989 0.127184 0.502211
Si Si7 0.484824 0.736828 0.316551
O O1 0.588760 0.858601 0.960831
O O2 0.617077 0.883578 0.847680
O O3 0.747092 0.015629 0.973161
O O4 0.971638 0.874616 0.060696
O O5 0.827315 0.519594 0.714040
O O6 0.283712 0.638621 0.641199
O O7 0.000000 0.500000 0.500000
O O8 0.885759 0.652096 0.503595
O O9 0.423554 0.548066 0.787776
O O10 0.284381 0.805131 0.243585
O O11 0.327817 0.185198 0.599280
O O12 0.013989 0.161105 0.386156
O O13 0.500000 0.695662 0.250000
#
# Coordination Sequence:
#
# PCOD9258063 Si02
#       7
#     8   4   8   4   8   8   8
#     4  10  21  35  62  99 127 168 216 267 332 382
#     4  12  20  38  58  96 138 174 210 274 326 386
#     4   9  17  34  55  92 128 155 208 262 320 382
#     4  10  18  32  58  90 116 168 202 264 324 366
#     4  11  20  36  64  92 129 171 220 266 331 384
#     4  10  20  39  62  93 129 173 218 268 316 400
#     4  11  21  38  62  92 126 173 222 264 321 386
#
# _framework density 25.986297
#
# number of rings (size 3 to 8) (size 9 to 14) (size 15 to 20)
#    0.000    1.667    4.167    1.500    0.000    0.000 
#   16.500    0.000    0.000    5.000    0.000    0.000 
#    0.000    0.000    0.000    0.000    0.000    0.000 
#
# Total GULP energy -134111.253661 kJ/mol
# GULP energy per Si atom -5587.968903 kJ/mol
# Density = 2.592715 g / cm^3
# Si number density = 25.986297 Si / 1000 Ang^3
#
#
#
# Elastic Constant Matrix: (Units=GPa)
#
#
# Indices 1 2 3 4 5 6 
#
# 1 129.7155 -8.4003 56.5080 0.0000 2.1075 0.0000
# 2 -8.4003 56.8114 30.3793 0.0000 7.6431 0.0000
# 3 56.5080 30.3793 200.4694 0.0000 -30.0913 0.0000
# 4 0.0000 0.0000 0.0000 33.5377 0.0000 0.3441
# 5 2.1075 7.6431 -30.0913 0.0000 47.4822 0.0000
# 6 0.0000 0.0000 0.0000 0.3441 0.0000 8.7143
#
#
#
# Elastic Compliance Matrix: (Units=1/GPa)
#
#
# Indices 1 2 3 4 5 6 
#
# 1 0.009709 0.003978 -0.003869 0.000000 -0.003523 0.000000
# 2 0.003978 0.022146 -0.005569 0.000000 -0.007271 0.000000
# 3 -0.003869 -0.005569 0.007828 0.000000 0.006029 0.000000
# 4 0.000000 0.000000 0.000000 0.029829 0.000000 -0.001178
# 5 -0.003523 -0.007271 0.006029 0.000000 0.026208 0.000000
# 6 0.000000 0.000000 0.000000 -0.001178 0.000000 0.114801
#
#
# Mechanical properties :
#
#
# Convention : Reuss Voigt Hill
#
# Bulk Modulus (GPa) = 34.76440 60.44117 47.60278
# Shear Modulus (GPa) = 21.64244 38.51412 30.07828
#
# Velocity S-wave (km/s) = 2.88903 3.85397 3.40585
# Velocity P-wave (km/s) = 4.95335 6.56609 5.81589
#
# Compressibility (1/GPa) = 0.02876506
#
# Stress axis : x y z
#
# Youngs Moduli (GPa) = 102.99415 45.15421 127.75332
#
# Poissons Ratio (x) = -0.17963 0.49422
# Poissons Ratio (y) = -0.40974 0.71143
# Poissons Ratio (z) = 0.39843 0.25146
#
# Static dielectric constant tensor:
#      x y z
#    x 2.000670 0.000000 0.125440 
#    y 0.000000 2.055240 0.000000 
#    z 0.125440 0.000000 1.818660 
# 
# From -- ./inp_files/270671.got.cif
#   From: 2010.05.17/outbox.cif.g08.bks.cpg/sg15_136_cif.got.tgz:270671.got - 2010.06.03 18:47:42.
