data_PCOD9258119
_publ_section_title
;
Structure prediction by ZEFSAII (Michael W. Deem and Ramdas Pophale) SiO2 
 PCOD9258119
Probable space group: C 2/C
;
_chemical_formula_sum "Si O2"
_cell_formula_units_Z 44
_cell_length_a 13.567853
_cell_length_b 18.709823
_cell_length_c 7.945345
_cell_angle_alpha 90.000000
_cell_angle_beta 82.388257
_cell_angle_gamma 90.000000
_cell_volume 1999.170270
_symmetry_space_group_name_H-M "C 2/C"
_symmetry_group_IT_number 15
_symmetry_cell_setting 'monoclinic'
loop_
_space_group_symop_operation_xyz
x,y,z
-x,y,1/2-z
-x,-y,-z
x,-y,1/2+z
1/2+x,1/2+y,z
1/2-x,1/2+y,1/2-z
1/2-x,1/2-y,-z
1/2+x,1/2-y,1/2+z
loop_
_atom_site_type_symbol
_atom_site_label
_atom_site_fract_x
_atom_site_fract_y
_atom_site_fract_z
Si Si1 0.787457 0.067577 0.411791
Si Si2 0.500000 0.856127 0.750000
Si Si3 0.395902 0.961032 0.007804
Si Si4 0.885143 0.933358 0.243472
Si Si5 0.190816 0.297031 0.760112
Si Si6 0.781461 0.337048 0.127329
O O1 0.849761 0.084552 0.564016
O O2 0.751613 0.138299 0.326711
O O3 0.691455 0.018635 0.482514
O O4 0.853658 0.015142 0.282801
O O5 0.581072 0.912164 0.658976
O O6 0.574527 0.805561 0.840618
O O7 0.361996 0.899668 0.149497
O O8 0.500000 0.000000 0.000000
O O9 0.818835 0.882894 0.378343
O O10 0.000000 0.922905 0.250000
O O11 0.185275 0.301781 0.556000
O O12 0.251772 0.223220 0.768268
#
# Coordination Sequence:
#
# PCOD9258119 Si02
#       6
#     8   4   8   8   8   8
#     4  11  22  38  63  93 126 160 215 268 315 375
#     4  10  18  32  60  88 122 170 202 246 320 374
#     4  10  19  34  59  93 123 160 207 257 312 370
#     4  11  23  40  63  88 119 166 216 264 317 375
#     4  10  20  39  60  88 128 166 202 257 315 380
#     4   9  22  38  59  88 128 163 204 259 314 374
#
# _framework density 22.009131
#
# number of rings (size 3 to 8) (size 9 to 14) (size 15 to 20)
#    0.000    1.818    1.818    3.818    3.818    0.727 
#    0.000    0.000    0.000    2.182    0.000    0.000 
#    0.000    0.000    0.000    0.000    0.000    0.000 
#
# Total GULP energy -122510.283943 kJ/mol
# GULP energy per Si atom -5568.649270 kJ/mol
# Density = 2.195904 g / cm^3
# Si number density = 22.009131 Si / 1000 Ang^3
#
#
#
# Elastic Constant Matrix: (Units=GPa)
#
#
# Indices 1 2 3 4 5 6 
#
# 1 124.9222 39.0862 -0.2814 0.0000 -7.1285 0.0000
# 2 39.0862 117.6368 11.0610 0.0000 -11.8039 0.0000
# 3 -0.2814 11.0610 28.6011 0.0000 5.3828 0.0000
# 4 0.0000 0.0000 0.0000 36.8912 0.0000 -18.3850
# 5 -7.1285 -11.8039 5.3828 0.0000 24.1797 0.0000
# 6 0.0000 0.0000 0.0000 -18.3850 0.0000 32.8199
#
#
#
# Elastic Compliance Matrix: (Units=1/GPa)
#
#
# Indices 1 2 3 4 5 6 
#
# 1 0.008999 -0.002995 0.001067 0.000000 0.000953 0.000000
# 2 -0.002995 0.010517 -0.005111 0.000000 0.005389 0.000000
# 3 0.001067 -0.005111 0.038995 0.000000 -0.010861 0.000000
# 4 0.000000 0.000000 0.000000 0.037605 0.000000 0.021065
# 5 0.000953 0.005389 -0.010861 0.000000 0.046687 0.000000
# 6 0.000000 0.000000 0.000000 0.021065 0.000000 0.042270
#
#
# Mechanical properties :
#
#
# Convention : Reuss Voigt Hill
#
# Bulk Modulus (GPa) = 22.50532 41.21020 31.85776
# Shear Modulus (GPa) = 23.36881 33.53110 28.44995
#
# Velocity S-wave (km/s) = 3.26203 3.90745 3.59924
# Velocity P-wave (km/s) = 4.94322 6.25478 5.63728
#
# Compressibility (1/GPa) = 0.04443395
#
# Stress axis : x y z
#
# Youngs Moduli (GPa) = 111.12632 95.08357 25.64433
#
# Poissons Ratio (x) = 0.28474 -0.02737
# Poissons Ratio (y) = 0.33278 0.13107
# Poissons Ratio (z) = -0.11860 0.48597
#
# Static dielectric constant tensor:
#      x y z
#    x 1.828540 0.000000 -0.029040 
#    y 0.000000 1.928890 0.000000 
#    z -0.029040 0.000000 1.951050 
# 
# From -- ./inp_files/30850.got.cif
#   From: 2010.05.17/outbox.cif.g08.bks.cpg/sg15_16_cif.got.tgz:30850.got - 2010.06.03 18:47:42.
