data_PCOD9258387
_publ_section_title
;
Structure prediction by ZEFSAII (Michael W. Deem and Ramdas Pophale) SiO2 
 PCOD9258387
Probable space group: C 2/C
;
_chemical_formula_sum "Si O2"
_cell_formula_units_Z 48
_cell_length_a 31.203098
_cell_length_b 11.107980
_cell_length_c 13.835968
_cell_angle_alpha 90.000000
_cell_angle_beta 150.855140
_cell_angle_gamma 90.000000
_cell_volume 2335.546802
_symmetry_space_group_name_H-M "C 2/C"
_symmetry_group_IT_number 15
_symmetry_cell_setting 'monoclinic'
loop_
_space_group_symop_operation_xyz
x,y,z
-x,y,1/2-z
-x,-y,-z
x,-y,1/2+z
1/2+x,1/2+y,z
1/2-x,1/2+y,1/2-z
1/2-x,1/2-y,-z
1/2+x,1/2-y,1/2+z
loop_
_atom_site_type_symbol
_atom_site_label
_atom_site_fract_x
_atom_site_fract_y
_atom_site_fract_z
Si Si1 0.927444 0.982979 0.746363
Si Si2 0.305746 0.223456 0.868243
Si Si3 0.739516 0.632651 0.043867
Si Si4 0.389658 0.553899 0.454446
Si Si5 0.194043 0.504316 0.494110
Si Si6 0.181051 0.238681 0.451964
O O1 0.898065 0.851841 0.724104
O O2 0.858309 0.078329 0.652650
O O3 0.907102 0.988251 0.590613
O O4 0.028475 0.021426 0.952025
O O5 0.252447 0.319145 0.831375
O O6 0.380551 0.304838 0.964835
O O7 0.239153 0.184055 0.653771
O O8 0.336566 0.113618 0.996909
O O9 0.750000 0.750000 0.000000
O O10 0.803576 0.540544 0.114771
O O11 0.296393 0.515462 0.226558
O O12 0.151189 0.373579 0.420027
O O13 0.250000 0.250000 0.500000
#
# Coordination Sequence:
#
# PCOD9258387 Si02
#       6
#     8   8   8   8   8   8
#     4  10  18  34  51  82 117 138 186 229 277 328
#     4   9  19  35  52  79 107 148 187 226 271 332
#     4   9  18  32  53  76 103 145 189 229 266 327
#     4   9  19  32  56  80 111 146 179 233 279 318
#     4  10  18  33  55  84 107 145 189 226 276 330
#     4  11  20  31  53  83 114 146 182 231 276 331
#
# _framework density 20.551932999999998
#
# number of rings (size 3 to 8) (size 9 to 14) (size 15 to 20)
#    0.000    2.333    3.333    0.000    0.000    0.667 
#    0.000    0.000    0.000   12.000    0.000   10.500 
#    0.000    0.000    0.000    0.000    0.000    0.000 
#
# Total GULP energy -133771.261374 kJ/mol
# GULP energy per Si atom -5573.802557 kJ/mol
# Density = 2.050516 g / cm^3
# Si number density = 20.551933 Si / 1000 Ang^3
#
#
#
# Elastic Constant Matrix: (Units=GPa)
#
#
# Indices 1 2 3 4 5 6 
#
# 1 93.8488 44.8590 24.1880 0.0000 8.6580 0.0000
# 2 44.8590 134.7634 29.2492 0.0000 25.0173 0.0000
# 3 24.1880 29.2492 46.6066 0.0000 4.5609 0.0000
# 4 0.0000 0.0000 0.0000 22.5524 0.0000 -0.4366
# 5 8.6580 25.0173 4.5609 0.0000 34.3160 0.0000
# 6 0.0000 0.0000 0.0000 -0.4366 0.0000 32.1030
#
#
#
# Elastic Compliance Matrix: (Units=1/GPa)
#
#
# Indices 1 2 3 4 5 6 
#
# 1 0.013566 -0.003403 -0.004876 0.000000 -0.000294 0.000000
# 2 -0.003403 0.010666 -0.004307 0.000000 -0.006345 0.000000
# 3 -0.004876 -0.004307 0.026608 0.000000 0.000833 0.000000
# 4 0.000000 0.000000 0.000000 0.044353 0.000000 0.000603
# 5 -0.000294 -0.006345 0.000833 0.000000 0.033730 0.000000
# 6 0.000000 0.000000 0.000000 0.000603 0.000000 0.031158
#
#
# Mechanical properties :
#
#
# Convention : Reuss Voigt Hill
#
# Bulk Modulus (GPa) = 38.95853 52.42346 45.69099
# Shear Modulus (GPa) = 25.79884 29.58912 27.69398
#
# Velocity S-wave (km/s) = 3.54686 3.79849 3.67483
# Velocity P-wave (km/s) = 5.98088 6.69337 6.34713
#
# Compressibility (1/GPa) = 0.02566832
#
# Stress axis : x y z
#
# Youngs Moduli (GPa) = 73.71480 93.75897 37.58267
#
# Poissons Ratio (x) = 0.31904 0.18326
# Poissons Ratio (y) = 0.25084 0.16185
# Poissons Ratio (z) = 0.35944 0.40379
#
# Static dielectric constant tensor:
#      x y z
#    x 1.827280 0.000000 -0.048060 
#    y 0.000000 1.790400 0.000000 
#    z -0.048060 0.000000 1.740570 
# 
# From -- ./inp_files/181824.got.cif
#   From: 2010.05.17/outbox.cif.g08.bks.cpg/sg15_91_cif.got.tgz:181824.got - 2010.06.03 18:47:42.
