data_PCOD9258436
_publ_section_title
;
Structure prediction by ZEFSAII (Michael W. Deem and Ramdas Pophale) SiO2 
 PCOD9258436
Probable space group: C 2/C
;
_chemical_formula_sum "Si O2"
_cell_formula_units_Z 60
_cell_length_a 15.345234
_cell_length_b 17.465190
_cell_length_c 12.210129
_cell_angle_alpha 90.000000
_cell_angle_beta 76.049953
_cell_angle_gamma 90.000000
_cell_volume 3175.889843
_symmetry_space_group_name_H-M "C 2/C"
_symmetry_group_IT_number 15
_symmetry_cell_setting 'monoclinic'
loop_
_space_group_symop_operation_xyz
x,y,z
-x,y,1/2-z
-x,-y,-z
x,-y,1/2+z
1/2+x,1/2+y,z
1/2-x,1/2+y,1/2-z
1/2-x,1/2-y,-z
1/2+x,1/2-y,1/2+z
loop_
_atom_site_type_symbol
_atom_site_label
_atom_site_fract_x
_atom_site_fract_y
_atom_site_fract_z
Si Si1 0.172388 0.166383 0.467094
Si Si2 0.499205 0.747526 0.882590
Si Si3 0.503436 0.920220 0.877180
Si Si4 0.289596 0.817945 0.143086
Si Si5 0.157068 0.003683 0.034391
Si Si6 0.500000 0.528260 0.750000
Si Si7 0.863106 0.127760 0.644131
Si Si8 0.147988 0.527528 0.927802
O O1 0.254742 0.170577 0.527959
O O2 0.187735 0.227010 0.363352
O O3 0.151437 0.075854 0.464553
O O4 0.089442 0.203636 0.555291
O O5 0.500000 0.746297 0.750000
O O6 0.500277 0.834075 0.922090
O O7 0.581657 0.701857 0.908523
O O8 0.500000 0.914675 0.750000
O O9 0.595108 0.962700 0.879038
O O10 0.414865 0.963078 0.946657
O O11 0.214351 0.840477 0.253496
O O12 0.356888 0.889964 0.131994
O O13 0.249124 0.994223 0.076586
O O14 0.069847 0.010723 0.141414
O O15 0.164426 0.073856 0.947981
O O16 0.432937 0.579280 0.697145
#
# Coordination Sequence:
#
# PCOD9258436 Si02
#       8
#     8   8   8   8   8   4   8   8
#     4  10  18  33  56  88 116 155 190 249 304 340
#     4  11  18  34  56  86 119 146 196 253 290 344
#     4  10  23  36  63  86 110 153 205 252 305 349
#     4  10  19  34  57  81 124 149 195 252 301 352
#     4  11  24  36  64  89 128 163 199 241 310 367
#     4  12  20  38  54  92 126 156 202 248 284 368
#     4  12  21  37  58  90 123 161 195 251 303 355
#     4  10  21  41  53  88 120 154 195 256 298 362
#
# _framework density 18.892341999999999
#
# number of rings (size 3 to 8) (size 9 to 14) (size 15 to 20)
#    0.000    1.333    7.333    0.400    1.867    0.000 
#    0.000    0.667    0.000    0.000    8.667    0.000 
#    0.000    0.000    0.000    0.000    0.000    0.000 
#
# Total GULP energy -167036.159227 kJ/mol
# GULP energy per Si atom -5567.871974 kJ/mol
# Density = 1.884934 g / cm^3
# Si number density = 18.892342 Si / 1000 Ang^3
#
#
#
# Elastic Constant Matrix: (Units=GPa)
#
#
# Indices 1 2 3 4 5 6 
#
# 1 62.7620 30.5857 27.4761 0.0000 -23.7491 0.0000
# 2 30.5857 100.0187 27.4223 0.0000 -0.1684 0.0000
# 3 27.4761 27.4223 56.2005 0.0000 -13.8370 0.0000
# 4 0.0000 0.0000 0.0000 3016.8881 0.0000-1043.4585
# 5 -23.7491 -0.1684 -13.8370 0.0000 16.0547 0.0000
# 6 0.0000 0.0000 0.0000-1043.4585 0.0000 389.6553
#
#
#
# Elastic Compliance Matrix: (Units=1/GPa)
#
#
# Indices 1 2 3 4 5 6 
#
# 1 0.054390 -0.017007 0.001869 0.000000 0.081890 0.000000
# 2 -0.017007 0.017335 -0.007988 0.000000 -0.031861 0.000000
# 3 0.001869 -0.007988 0.027212 0.000000 0.026134 0.000000
# 4 0.000000 0.000000 0.000000 0.004492 0.000000 0.012030
# 5 0.081890 -0.031861 0.026134 0.000000 0.205614 0.000000
# 6 0.000000 0.000000 0.000000 0.012030 0.000000 0.034781
#
#
# Mechanical properties :
#
#
# Convention : Reuss Voigt Hill
#
# Bulk Modulus (GPa) = 18.98074 43.32769 31.15421
# Shear Modulus (GPa) = 12.26580 693.41943 352.84261
#
# Velocity S-wave (km/s) = 2.55080 19.17900 13.68102
# Velocity P-wave (km/s) = 4.32944 22.65898 16.31216
#
# Compressibility (1/GPa) = 0.05268500
#
# Stress axis : x y z
#
# Youngs Moduli (GPa) = 18.38576 57.68526 36.74875
#
# Poissons Ratio (x) = 0.98106 -0.06870
# Poissons Ratio (y) = 0.31269 0.29356
# Poissons Ratio (z) = -0.03437 0.46081
#
# Static dielectric constant tensor:
#      x y z
#    x 1.735850 0.000000 -0.055910 
#    y 0.000000 1.723390 0.000000 
#    z -0.055910 0.000000 1.673360 
# 
# From -- ./inp_files/98722.got.cif
#   From: 2010.05.17/outbox.cif.g08.bks.cpg/sg15_50_cif.got.tgz:98722.got - 2010.06.03 18:47:42.
