data_PCOD9258943
_publ_section_title
;
Structure prediction by ZEFSAII (Michael W. Deem and Ramdas Pophale) SiO2 
 PCOD9258943
Probable space group: C 2/C
;
_chemical_formula_sum "Si O2"
_cell_formula_units_Z 44
_cell_length_a 18.579486
_cell_length_b 21.366223
_cell_length_c 8.728986
_cell_angle_alpha 90.000000
_cell_angle_beta 137.367775
_cell_angle_gamma 90.000000
_cell_volume 2346.928329
_symmetry_space_group_name_H-M "C 2/C"
_symmetry_group_IT_number 15
_symmetry_cell_setting 'monoclinic'
loop_
_space_group_symop_operation_xyz
x,y,z
-x,y,1/2-z
-x,-y,-z
x,-y,1/2+z
1/2+x,1/2+y,z
1/2-x,1/2+y,1/2-z
1/2-x,1/2-y,-z
1/2+x,1/2-y,1/2+z
loop_
_atom_site_type_symbol
_atom_site_label
_atom_site_fract_x
_atom_site_fract_y
_atom_site_fract_z
Si Si1 0.873959 0.047942 0.514995
Si Si2 0.953995 0.854265 0.912958
Si Si3 0.616345 0.237403 0.881507
Si Si4 0.203337 0.301531 0.198886
Si Si5 0.000000 0.760764 0.250000
Si Si6 0.831168 0.079635 0.790344
O O1 0.875625 0.102032 0.388321
O O2 0.822548 0.068100 0.594581
O O3 0.000000 0.037787 0.750000
O O4 0.823330 0.985327 0.368342
O O5 0.899567 0.808469 0.707666
O O6 0.008973 0.806490 0.118784
O O7 0.047947 0.896418 0.995166
O O8 0.500000 0.215918 0.750000
O O9 0.659447 0.198394 0.805186
O O10 0.704551 0.247908 0.149939
O O11 0.252212 0.366628 0.222239
O O12 0.105277 0.279472 0.941719
#
# Coordination Sequence:
#
# PCOD9258943 Si02
#       6
#     8   8   8   8   4   8
#     4  10  21  33  56  92 118 157 192 246 321 349
#     4  10  18  34  57  87 124 147 190 247 306 362
#     4  10  20  37  58  90 121 157 191 251 307 356
#     4  10  23  36  58  87 122 160 203 237 303 358
#     4  10  20  40  54  84 124 154 202 234 288 366
#     4  11  21  35  56  88 121 153 195 245 302 363
#
# _framework density 18.747910000000001
#
# number of rings (size 3 to 8) (size 9 to 14) (size 15 to 20)
#    0.000    1.818    4.545    2.182    5.091    0.727 
#    0.000    0.000    0.000    1.091    0.000    0.000 
#    0.000    0.000    0.000    0.000    0.000    0.000 
#
# Total GULP energy -122839.026488 kJ/mol
# GULP energy per Si atom -5583.592113 kJ/mol
# Density = 1.870524 g / cm^3
# Si number density = 18.747910 Si / 1000 Ang^3
#
#
#
# Elastic Constant Matrix: (Units=GPa)
#
#
# Indices 1 2 3 4 5 6 
#
# 1 118.6491 59.1224 25.7374 0.0000 3.1417 0.0000
# 2 59.1224 101.3435 24.0652 0.0000 -10.5698 0.0000
# 3 25.7374 24.0652 77.1637 0.0000 8.3234 0.0000
# 4 0.0000 0.0000 0.0000 12.5134 0.0000 5.6571
# 5 3.1417 -10.5698 8.3234 0.0000 19.8926 0.0000
# 6 0.0000 0.0000 0.0000 5.6571 0.0000 30.2315
#
#
#
# Elastic Compliance Matrix: (Units=1/GPa)
#
#
# Indices 1 2 3 4 5 6 
#
# 1 0.012669 -0.007679 -0.001230 0.000000 -0.005566 0.000000
# 2 -0.007679 0.016459 -0.003818 0.000000 0.011556 0.000000
# 3 -0.001230 -0.003818 0.015456 0.000000 -0.008302 0.000000
# 4 0.000000 0.000000 0.000000 0.087300 0.000000 -0.016336
# 5 -0.005566 0.011556 -0.008302 0.000000 0.060763 0.000000
# 6 0.000000 0.000000 0.000000 -0.016336 0.000000 0.036135
#
#
# Mechanical properties :
#
#
# Convention : Reuss Voigt Hill
#
# Bulk Modulus (GPa) = 52.27761 57.22292 54.75026
# Shear Modulus (GPa) = 19.18543 25.07625 22.13084
#
# Velocity S-wave (km/s) = 3.20243 3.66122 3.43949
# Velocity P-wave (km/s) = 6.45129 6.96141 6.71120
#
# Compressibility (1/GPa) = 0.01912865
#
# Stress axis : x y z
#
# Youngs Moduli (GPa) = 78.93225 60.75530 64.69930
#
# Poissons Ratio (x) = 0.46656 0.07960
# Poissons Ratio (y) = 0.60615 0.24704
# Poissons Ratio (z) = 0.09711 0.23199
#
# Static dielectric constant tensor:
#      x y z
#    x 1.686050 0.000000 -0.027770 
#    y 0.000000 1.642190 0.000000 
#    z -0.027770 0.000000 1.715500 
# 
# From -- ./inp_files/49912.got.cif
#   From: 2010.05.17/outbox.cif.g08.bks.cpg/sg15_25_cif.got.tgz:49912.got - 2010.06.03 18:47:42.
