data_PCOD9258649
_publ_section_title
;
Structure prediction by ZEFSAII (Michael W. Deem and Ramdas Pophale) SiO2 
 PCOD9258649
Probable space group: C 2/C
;
_chemical_formula_sum "Si O2"
_cell_formula_units_Z 48
_cell_length_a 11.133842
_cell_length_b 15.434291
_cell_length_c 24.665495
_cell_angle_alpha 90.000000
_cell_angle_beta 147.435300
_cell_angle_gamma 90.000000
_cell_volume 2281.428912
_symmetry_space_group_name_H-M "C 2/C"
_symmetry_group_IT_number 15
_symmetry_cell_setting 'monoclinic'
loop_
_space_group_symop_operation_xyz
x,y,z
-x,y,1/2-z
-x,-y,-z
x,-y,1/2+z
1/2+x,1/2+y,z
1/2-x,1/2+y,1/2-z
1/2-x,1/2-y,-z
1/2+x,1/2-y,1/2+z
loop_
_atom_site_type_symbol
_atom_site_label
_atom_site_fract_x
_atom_site_fract_y
_atom_site_fract_z
Si Si1 0.971262 0.584522 0.913786
Si Si2 0.753920 0.465631 0.650629
Si Si3 0.389946 0.110490 0.007652
Si Si4 0.862855 0.105967 0.805174
Si Si5 0.243510 0.758515 0.834259
Si Si6 0.314761 0.625203 0.956742
O O1 0.950057 0.615984 0.966934
O O2 0.738831 0.592085 0.792835
O O3 0.157709 0.632767 0.949019
O O4 0.051043 0.485015 0.948543
O O5 0.687625 0.520625 0.678467
O O6 0.757313 0.537882 0.603894
O O7 0.568881 0.394206 0.569046
O O8 0.000000 0.428857 0.750000
O O9 0.125378 0.124420 0.910884
O O10 0.553692 0.177054 0.099590
O O11 0.733412 0.185797 0.783824
O O12 0.295875 0.704037 0.908390
O O13 0.000000 0.800767 0.750000
#
# Coordination Sequence:
#
# PCOD9258649 Si02
#       6
#     8   8   8   8   8   8
#     4  11  22  42  64  90 126 171 207 252 314 385
#     4  10  18  33  63  96 120 155 217 264 303 366
#     4  11  26  39  62  94 129 164 211 255 310 388
#     4  11  20  41  65  89 124 166 208 262 318 367
#     4  11  23  43  65  90 124 165 211 266 324 365
#     4  10  19  37  65  90 124 165 207 260 316 365
#
# _framework density 21.039445000000001
#
# number of rings (size 3 to 8) (size 9 to 14) (size 15 to 20)
#    0.000    1.333    5.000    2.000    0.000    3.333 
#    0.000    1.667    0.000    0.000    0.000    0.000 
#    0.000    0.000    0.000    0.000    0.000    0.000 
#
# Total GULP energy -134181.765238 kJ/mol
# GULP energy per Si atom -5590.906885 kJ/mol
# Density = 2.099156 g / cm^3
# Si number density = 21.039445 Si / 1000 Ang^3
#
#
#
# Elastic Constant Matrix: (Units=GPa)
#
#
# Indices 1 2 3 4 5 6 
#
# 1 49.0320 5.4978 2.8107 -0.0001 5.7485 0.0000
# 2 5.4978 19.9736 16.0482 -0.0001 2.7447 0.0000
# 3 2.8107 16.0482 135.2334 -0.0004 29.4831 0.0000
# 4 -0.0001 -0.0001 -0.0004 18.1931 0.0000 11.5236
# 5 5.7485 2.7447 29.4831 0.0000 46.5813 0.0000
# 6 0.0000 0.0000 0.0000 11.5236 0.0000 3.5618
#
#
#
# Elastic Compliance Matrix: (Units=1/GPa)
#
#
# Indices 1 2 3 4 5 6 
#
# 1 0.021375 -0.006228 0.000916 0.000000 -0.002851 0.000000
# 2 -0.006228 0.057201 -0.007066 0.000000 0.001871 0.000000
# 3 0.000916 -0.007066 0.009452 0.000000 -0.005679 0.000001
# 4 0.000000 0.000000 0.000000 -0.052385 0.000000 0.169481
# 5 -0.002851 0.001871 -0.005679 0.000000 0.025304 0.000000
# 6 0.000000 0.000000 0.000001 0.169481 0.000000 -0.267570
#
#
# Mechanical properties :
#
#
# Convention : Reuss Voigt Hill
#
# Bulk Modulus (GPa) = 15.80480 28.10581 21.95530
# Shear Modulus (GPa) = -31.09925 25.65940 -2.71993
#
# Velocity S-wave (km/s) = -3.84883 3.49604 -1.13824
# Velocity P-wave (km/s) = 3.49615 5.44831 2.95474
#
# Compressibility (1/GPa) = 0.06327194
#
# Stress axis : x y z
#
# Youngs Moduli (GPa) = 46.78386 17.48226 105.79348
#
# Poissons Ratio (x) = 0.10888 -0.09694
# Poissons Ratio (y) = 0.29137 0.74759
# Poissons Ratio (z) = -0.04287 0.12354
#
# Static dielectric constant tensor:
#      x y z
#    x 1.748250 0.000000 0.001890 
#    y 0.000000 1.726630 0.000000 
#    z 0.001890 0.000000 1.768930 
# 
# From -- ./inp_files/144054.got.cif
#   From: 2010.05.17/outbox.cif.g08.bks.cpg/sg15_73_cif.got.tgz:144054.got - 2010.06.03 18:47:42.
