data_PCOD9258908
_publ_section_title
;
Structure prediction by ZEFSAII (Michael W. Deem and Ramdas Pophale) SiO2 
 PCOD9258908
Probable space group: C 2/C
;
_chemical_formula_sum "Si O2"
_cell_formula_units_Z 56
_cell_length_a 7.446942
_cell_length_b 24.171113
_cell_length_c 16.947204
_cell_angle_alpha 90.000000
_cell_angle_beta 123.366147
_cell_angle_gamma 90.000000
_cell_volume 2547.704804
_symmetry_space_group_name_H-M "C 2/C"
_symmetry_group_IT_number 15
_symmetry_cell_setting 'monoclinic'
loop_
_space_group_symop_operation_xyz
x,y,z
-x,y,1/2-z
-x,-y,-z
x,-y,1/2+z
1/2+x,1/2+y,z
1/2-x,1/2+y,1/2-z
1/2-x,1/2-y,-z
1/2+x,1/2-y,1/2+z
loop_
_atom_site_type_symbol
_atom_site_label
_atom_site_fract_x
_atom_site_fract_y
_atom_site_fract_z
Si Si1 0.284804 0.462646 0.752461
Si Si2 0.536308 0.619073 0.415217
Si Si3 0.394132 0.670932 0.895344
Si Si4 0.540475 0.059731 0.045365
Si Si5 0.234925 0.091375 0.763298
Si Si6 0.167919 0.346532 0.064174
Si Si7 0.748517 0.780292 0.583848
O O1 0.500000 0.462939 0.750000
O O2 0.350807 0.423295 0.841611
O O3 0.105149 0.437745 0.651894
O O4 0.218305 0.527072 0.743610
O O5 0.538114 0.646668 0.502397
O O6 0.758987 0.585331 0.455278
O O7 0.566867 0.673397 0.366359
O O8 0.275323 0.622469 0.821232
O O9 0.609640 0.683299 0.897071
O O10 0.261303 0.727768 0.862476
O O11 0.327795 0.094946 0.979948
O O12 0.500000 0.000000 0.000000
O O13 0.367884 0.131207 0.855456
O O14 0.000000 0.090792 0.750000
O O15 0.977631 0.312814 0.977044
O O16 0.750000 0.750000 0.500000
#
# Coordination Sequence:
#
# PCOD9258908 Si02
#       7
#     8   8   8   8   8   8   8
#     4   9  17  33  55  81 113 149 188 230 283 347
#     4   9  20  35  57  82 112 149 190 234 284 341
#     4  10  20  36  57  83 114 147 191 237 285 337
#     4  10  18  34  57  79 111 152 189 223 283 345
#     4   9  18  32  54  84 111 145 187 230 286 345
#     4  10  19  35  59  83 111 148 190 233 286 339
#     4   9  19  38  57  78 108 148 191 234 285 338
#
# _framework density 21.980568000000002
#
# number of rings (size 3 to 8) (size 9 to 14) (size 15 to 20)
#    0.000    2.571    1.429    0.429    2.000    0.571 
#    0.000   20.000    0.000    0.000    0.000    0.000 
#    0.000    0.000    0.000    0.000    0.000    0.000 
#
# Total GULP energy -155897.810108 kJ/mol
# GULP energy per Si atom -5567.778932 kJ/mol
# Density = 2.193054 g / cm^3
# Si number density = 21.980568 Si / 1000 Ang^3
#
#
#
# Elastic Constant Matrix: (Units=GPa)
#
#
# Indices 1 2 3 4 5 6 
#
# 1 38.6166 18.9887 4.1560 0.0000 -7.2445 0.0000
# 2 18.9887 107.9379 21.1199 0.0000 -22.3896 0.0000
# 3 4.1560 21.1199 92.6773 0.0000 -18.1769 0.0000
# 4 0.0000 0.0000 0.0000 8.4217 0.0000 -15.0110
# 5 -7.2445 -22.3896 -18.1769 0.0000 14.7335 0.0000
# 6 0.0000 0.0000 0.0000 -15.0110 0.0000 15.6975
#
#
#
# Elastic Compliance Matrix: (Units=1/GPa)
#
#
# Indices 1 2 3 4 5 6 
#
# 1 0.029451 -0.003028 0.001724 0.000000 0.012007 0.000000
# 2 -0.003028 0.013952 0.001085 0.000000 0.021052 0.000000
# 3 0.001724 0.001085 0.014452 0.000000 0.020327 0.000000
# 4 0.000000 0.000000 0.000000 -0.168553 0.000000 -0.161181
# 5 0.012007 0.021052 0.020327 0.000000 0.130845 0.000000
# 6 0.000000 0.000000 0.000000 -0.161181 0.000000 -0.090428
#
#
# Mechanical properties :
#
#
# Convention : Reuss Voigt Hill
#
# Bulk Modulus (GPa) = 17.41592 36.41787 26.91689
# Shear Modulus (GPa) = -98.61106 20.76835 -38.92136
#
# Velocity S-wave (km/s) = -6.70524 3.07718 -4.21255
# Velocity P-wave (km/s) = 7.21155 5.40643 3.37468
#
# Compressibility (1/GPa) = 0.05741873
#
# Stress axis : x y z
#
# Youngs Moduli (GPa) = 33.95418 71.67617 69.19345
#
# Poissons Ratio (x) = 0.21703 -0.11931
# Poissons Ratio (y) = 0.10281 -0.07509
# Poissons Ratio (z) = -0.05855 -0.07779
#
# Static dielectric constant tensor:
#      x y z
#    x 1.913030 0.000000 -0.005660 
#    y 0.000000 1.766810 0.000000 
#    z -0.005660 0.000000 1.829810 
# 
# From -- ./inp_files/137480.got.cif
#   From: 2010.05.17/outbox.cif.g08.bks.cpg/sg15_69_cif.got.tgz:137480.got - 2010.06.03 18:47:42.
