data_PCOD9258234
_publ_section_title
;
Structure prediction by ZEFSAII (Michael W. Deem and Ramdas Pophale) SiO2 
 PCOD9258234
Probable space group: C 2/C
;
_chemical_formula_sum "Si O2"
_cell_formula_units_Z 56
_cell_length_a 5.405824
_cell_length_b 22.180730
_cell_length_c 28.977722
_cell_angle_alpha 90.000000
_cell_angle_beta 111.906524
_cell_angle_gamma 90.000000
_cell_volume 3223.691206
_symmetry_space_group_name_H-M "C 2/C"
_symmetry_group_IT_number 15
_symmetry_cell_setting 'monoclinic'
loop_
_space_group_symop_operation_xyz
x,y,z
-x,y,1/2-z
-x,-y,-z
x,-y,1/2+z
1/2+x,1/2+y,z
1/2-x,1/2+y,1/2-z
1/2-x,1/2-y,-z
1/2+x,1/2-y,1/2+z
loop_
_atom_site_type_symbol
_atom_site_label
_atom_site_fract_x
_atom_site_fract_y
_atom_site_fract_z
Si Si1 0.191493 0.611848 0.720747
Si Si2 0.630087 0.580088 0.190042
Si Si3 0.867957 0.320636 0.559002
Si Si4 0.859943 0.825680 0.054993
Si Si5 0.014844 0.817702 0.882397
Si Si6 0.851407 0.530202 0.300705
Si Si7 0.023226 0.672516 0.886590
O O1 0.500000 0.628845 0.750000
O O2 0.179553 0.539282 0.714780
O O3 0.000000 0.628847 0.750000
O O4 0.083248 0.641056 0.666626
O O5 0.590411 0.647905 0.170214
O O6 0.749174 0.569619 0.249587
O O7 0.345075 0.547362 0.171859
O O8 0.842377 0.547367 0.171858
O O9 0.860915 0.247524 0.555480
O O10 0.755309 0.344486 0.502656
O O11 0.674549 0.336214 0.588064
O O12 0.177602 0.336213 0.588074
O O13 0.664879 0.843884 0.083135
O O14 0.167561 0.843884 0.083147
O O15 0.007534 0.745176 0.878745
#
# Coordination Sequence:
#
# PCOD9258234 Si02
#       7
#     8   8   8   8   8   8   8
#     4  12  21  38  55  74 104 133 181 222 249 296
#     4  10  18  33  52  73 101 130 169 225 244 298
#     4   9  17  30  53  75 108 141 166 209 242 311
#     4   9  17  33  51  76 107 140 174 199 250 309
#     4  10  19  32  49  83 111 132 169 204 266 313
#     4  10  19  35  53  71  93 131 188 217 241 290
#     4  10  21  33  51  80 110 137 167 209 261 316
#
# _framework density 17.371390000000002
#
# number of rings (size 3 to 8) (size 9 to 14) (size 15 to 20)
#    0.000    2.000    2.857    2.571    0.000    3.429 
#    5.143    0.000    0.000    0.000    0.000   20.000 
#    0.000    0.000    0.000    0.000    0.000    0.000 
#
# Total GULP energy -155997.293067 kJ/mol
# GULP energy per Si atom -5571.331895 kJ/mol
# Density = 1.733185 g / cm^3
# Si number density = 17.371390 Si / 1000 Ang^3
#
#
#
# Elastic Constant Matrix: (Units=GPa)
#
#
# Indices 1 2 3 4 5 6 
#
# 1 182.8106 31.6226 49.9499 0.0000 2.3750 0.0000
# 2 31.6226 30.2304 48.1439 0.0000 -0.4578 0.0000
# 3 49.9499 48.1439 105.2504 0.0000 -0.1513 0.0000
# 4 0.0000 0.0000 0.0000 0.0142 0.0000 0.2080
# 5 2.3750 -0.4578 -0.1513 0.0000 24.7317 0.0000
# 6 0.0000 0.0000 0.0000 0.2080 0.0000 7.4339
#
#
#
# Elastic Compliance Matrix: (Units=1/GPa)
#
#
# Indices 1 2 3 4 5 6 
#
# 1 0.006694 -0.007192 0.000112 0.000000 -0.000775 0.000000
# 2 -0.007192 0.129647 -0.055886 0.000000 0.002749 0.000000
# 3 0.000112 -0.055886 0.035011 0.000000 -0.000831 0.000000
# 4 0.000000 0.000000 0.000000119.358790 0.000000 -3.339654
# 5 -0.000775 0.002749 -0.000831 0.000000 0.040554 0.000000
# 6 0.000000 0.000000 0.000000 -3.339654 0.000000 0.227962
#
#
# Mechanical properties :
#
#
# Convention : Reuss Voigt Hill
#
# Bulk Modulus (GPa) = 22.01748 64.19159 43.10453
# Shear Modulus (GPa) = 0.04169 19.00762 9.52465
#
# Velocity S-wave (km/s) = 0.15508 3.31144 2.34411
# Velocity P-wave (km/s) = 3.56849 7.18704 5.67396
#
# Compressibility (1/GPa) = 0.04541846
#
# Stress axis : x y z
#
# Youngs Moduli (GPa) = 149.39407 7.71323 28.56283
#
# Poissons Ratio (x) = 0.05547 -0.00320
# Poissons Ratio (y) = 1.07446 1.59628
# Poissons Ratio (z) = -0.01674 0.43107
#
# Static dielectric constant tensor:
#      x y z
#    x 1.610540 0.000000 0.000810 
#    y 0.000000 1.568100 0.000000 
#    z 0.000810 0.000000 1.580940 
# 
# From -- ./inp_files/286637.got.cif
#   From: 2010.05.17/outbox.cif.g08.bks.cpg/sg15_144_cif.got.tgz:286637.got - 2010.06.03 18:47:42.
