data_PCOD9258800
_publ_section_title
;
Structure prediction by ZEFSAII (Michael W. Deem and Ramdas Pophale) SiO2 
 PCOD9258800
Probable space group: C 2/C
;
_chemical_formula_sum "Si O2"
_cell_formula_units_Z 48
_cell_length_a 10.003711
_cell_length_b 9.359679
_cell_length_c 24.898172
_cell_angle_alpha 90.000000
_cell_angle_beta 89.147257
_cell_angle_gamma 90.000000
_cell_volume 2330.995592
_symmetry_space_group_name_H-M "C 2/C"
_symmetry_group_IT_number 15
_symmetry_cell_setting 'monoclinic'
loop_
_space_group_symop_operation_xyz
x,y,z
-x,y,1/2-z
-x,-y,-z
x,-y,1/2+z
1/2+x,1/2+y,z
1/2-x,1/2+y,1/2-z
1/2-x,1/2-y,-z
1/2+x,1/2-y,1/2+z
loop_
_atom_site_type_symbol
_atom_site_label
_atom_site_fract_x
_atom_site_fract_y
_atom_site_fract_z
Si Si1 0.103802 0.538697 0.204007
Si Si2 0.376929 0.078604 0.526652
Si Si3 0.146932 0.101912 0.845430
Si Si4 0.648287 0.066081 0.364249
Si Si5 0.843981 0.834287 0.329257
Si Si6 0.796355 0.153972 0.075187
O O1 0.236212 0.447405 0.195409
O O2 0.151132 0.702991 0.212706
O O3 0.000000 0.493820 0.250000
O O4 0.006351 0.538327 0.151958
O O5 0.276418 0.106246 0.478536
O O6 0.406547 0.231228 0.554977
O O7 0.500000 0.000000 0.500000
O O8 0.324842 0.980578 0.575124
O O9 0.174596 0.266497 0.859175
O O10 0.992820 0.102626 0.828417
O O11 0.157281 0.984714 0.892863
O O12 0.740236 0.964101 0.326813
O O13 0.798950 0.748433 0.384363
#
# Coordination Sequence:
#
# PCOD9258800 Si02
#       6
#     8   8   8   8   8   8
#     4  10  22  40  59  80 109 143 180 228 283 334
#     4  10  18  34  55  78 113 152 185 222 268 318
#     4  10  20  37  58  83 112 144 184 226 274 330
#     4  10  22  37  56  84 112 142 186 231 272 325
#     4   9  20  39  58  80 111 144 182 228 275 326
#     4   9  20  35  54  80 113 150 184 221 269 323
#
# _framework density 20.592058999999999
#
# number of rings (size 3 to 8) (size 9 to 14) (size 15 to 20)
#    0.000    2.333    0.000    3.000    0.000    8.667 
#    0.000   14.167    0.000    0.000    0.000    0.000 
#    0.000    0.000    0.000    0.000    0.000    0.000 
#
# Total GULP energy -133777.884185 kJ/mol
# GULP energy per Si atom -5574.078508 kJ/mol
# Density = 2.054519 g / cm^3
# Si number density = 20.592059 Si / 1000 Ang^3
#
#
#
# Elastic Constant Matrix: (Units=GPa)
#
#
# Indices 1 2 3 4 5 6 
#
# 1 106.7352 74.8760 6.5659 0.0000 -12.3935 0.0000
# 2 74.8760 128.3623 16.8956 0.0000 -5.2597 0.0000
# 3 6.5659 16.8956 48.1901 0.0000 -3.1893 0.0000
# 4 0.0000 0.0000 0.0000 9.5121 0.0000 -2.5873
# 5 -12.3935 -5.2597 -3.1893 0.0000 12.4789 0.0000
# 6 0.0000 0.0000 0.0000 -2.5873 0.0000 42.9206
#
#
#
# Elastic Compliance Matrix: (Units=1/GPa)
#
#
# Indices 1 2 3 4 5 6 
#
# 1 0.018059 -0.010225 0.002061 0.000000 0.014152 0.000000
# 2 -0.010225 0.014052 -0.003879 0.000000 -0.005224 0.000000
# 3 0.002061 -0.003879 0.022234 0.000000 0.006094 0.000000
# 4 0.000000 0.000000 0.000000 0.106881 0.000000 0.006443
# 5 0.014152 -0.005224 0.006094 0.000000 0.093546 0.000000
# 6 0.000000 0.000000 0.000000 0.006443 0.000000 0.023687
#
#
# Mechanical properties :
#
#
# Convention : Reuss Voigt Hill
#
# Bulk Modulus (GPa) = 33.04980 53.32917 43.18948
# Shear Modulus (GPa) = 15.99333 25.31235 20.65284
#
# Velocity S-wave (km/s) = 2.78991 3.50984 3.17038
# Velocity P-wave (km/s) = 5.14420 6.50995 5.86695
#
# Compressibility (1/GPa) = 0.03025737
#
# Stress axis : x y z
#
# Youngs Moduli (GPa) = 55.37516 71.16638 44.97685
#
# Poissons Ratio (x) = 0.72770 -0.09270
# Poissons Ratio (y) = 0.56623 0.17447
# Poissons Ratio (z) = -0.11414 0.27606
#
# Static dielectric constant tensor:
#      x y z
#    x 1.740530 0.000000 -0.073630 
#    y 0.000000 1.768330 0.000000 
#    z -0.073630 0.000000 2.010010 
# 
# From -- ./inp_files/306682.got.cif
#   From: 2010.05.17/outbox.cif.g08.bks.cpg/sg15_154_cif.got.tgz:306682.got - 2010.06.03 18:47:42.
