data_PCOD9258155
_publ_section_title
;
Structure prediction by ZEFSAII (Michael W. Deem and Ramdas Pophale) SiO2 
 PCOD9258155
Probable space group: C 2/C
;
_chemical_formula_sum "Si O2"
_cell_formula_units_Z 52
_cell_length_a 7.935408
_cell_length_b 16.755608
_cell_length_c 29.129237
_cell_angle_alpha 90.000000
_cell_angle_beta 137.615174
_cell_angle_gamma 90.000000
_cell_volume 2610.882130
_symmetry_space_group_name_H-M "C 2/C"
_symmetry_group_IT_number 15
_symmetry_cell_setting 'monoclinic'
loop_
_space_group_symop_operation_xyz
x,y,z
-x,y,1/2-z
-x,-y,-z
x,-y,1/2+z
1/2+x,1/2+y,z
1/2-x,1/2+y,1/2-z
1/2-x,1/2-y,-z
1/2+x,1/2-y,1/2+z
loop_
_atom_site_type_symbol
_atom_site_label
_atom_site_fract_x
_atom_site_fract_y
_atom_site_fract_z
Si Si1 0.012344 0.196100 0.964295
Si Si2 0.371588 0.874588 0.773562
Si Si3 0.890574 0.147273 0.417780
Si Si4 0.897302 0.813784 0.639017
Si Si5 0.500000 0.504219 0.250000
Si Si6 0.690816 0.990118 0.605991
Si Si7 0.361245 0.517243 0.536406
O O1 0.048820 0.105378 0.956566
O O2 0.776267 0.237657 0.893592
O O3 0.250000 0.250000 0.000000
O O4 0.003131 0.193772 0.017587
O O5 0.500000 0.897345 0.750000
O O6 0.594473 0.844114 0.850314
O O7 0.155463 0.810845 0.718773
O O8 0.213357 0.944987 0.765600
O O9 0.026779 0.173041 0.398654
O O10 0.945428 0.053099 0.434958
O O11 0.751513 0.895175 0.623870
O O12 0.662942 0.465309 0.323647
O O13 0.394593 0.000835 0.542786
O O14 0.797037 0.013437 0.577607
#
# Coordination Sequence:
#
# PCOD9258155 Si02
#       7
#     8   8   8   8   4   8   8
#     4  12  22  34  57  93 123 159 201 250 306 363
#     4   9  19  35  60  90 116 152 208 254 296 367
#     4  10  21  37  61  87 116 161 207 251 298 367
#     4   9  19  37  58  89 119 157 200 252 310 365
#     4  10  18  32  62  88 114 158 208 244 304 362
#     4   9  18  35  59  91 117 160 200 254 298 362
#     4  10  20  36  59  91 126 154 208 256 299 355
#
# _framework density 19.916640000000001
#
# number of rings (size 3 to 8) (size 9 to 14) (size 15 to 20)
#    0.000    2.154    1.538    2.769    2.154    0.000 
#    0.000    0.000    0.000   16.615    6.000    0.000 
#    0.000    0.000    0.000    0.000    0.000    0.000 
#
# Total GULP energy -145080.365360 kJ/mol
# GULP energy per Si atom -5580.014052 kJ/mol
# Density = 1.987131 g / cm^3
# Si number density = 19.916640 Si / 1000 Ang^3
#
#
#
# Elastic Constant Matrix: (Units=GPa)
#
#
# Indices 1 2 3 4 5 6 
#
# 1 58.7803 10.2433 26.2849 -0.0001 5.9012 0.0000
# 2 10.2433 48.3581 28.8461 0.0000 12.7578 0.0000
# 3 26.2849 28.8461 151.4370 -0.0002 12.8207 -0.0001
# 4 -0.0001 0.0000 -0.0002 23.0089 -0.0001 1.9272
# 5 5.9012 12.7578 12.8207 -0.0001 25.8545 -0.0001
# 6 0.0000 0.0000 -0.0001 1.9272 -0.0001 8.4625
#
#
#
# Elastic Compliance Matrix: (Units=1/GPa)
#
#
# Indices 1 2 3 4 5 6 
#
# 1 0.018756 -0.001802 -0.002740 0.000000 -0.002033 0.000000
# 2 -0.001802 0.026102 -0.003761 0.000000 -0.010603 0.000000
# 3 -0.002740 -0.003761 0.007918 0.000000 -0.001445 0.000000
# 4 0.000000 0.000000 0.000000 0.044307 0.000000 -0.010090
# 5 -0.002033 -0.010603 -0.001445 0.000000 0.045090 0.000000
# 6 0.000000 0.000000 0.000000 -0.010090 0.000000 0.120466
#
#
# Mechanical properties :
#
#
# Convention : Reuss Voigt Hill
#
# Bulk Modulus (GPa) = 27.64851 43.25822 35.45337
# Shear Modulus (GPa) = 17.16430 24.34527 20.75478
#
# Velocity S-wave (km/s) = 2.93884 3.50002 3.23163
# Velocity P-wave (km/s) = 5.04261 6.17254 5.63597
#
# Compressibility (1/GPa) = 0.03616831
#
# Stress axis : x y z
#
# Youngs Moduli (GPa) = 53.31652 38.31144 126.29751
#
# Poissons Ratio (x) = 0.06904 0.34606
# Poissons Ratio (y) = 0.09608 0.47507
# Poissons Ratio (z) = 0.14609 0.14411
#
# Static dielectric constant tensor:
#      x y z
#    x 1.739610 0.000000 -0.024720 
#    y 0.000000 1.660150 0.000000 
#    z -0.024720 0.000000 1.741680 
# 
# From -- ./inp_files/289620.got.cif
#   From: 2010.05.17/outbox.cif.g08.bks.cpg/sg15_145_cif.got.tgz:289620.got - 2010.06.03 18:47:42.
