data_PCOD9258887
_publ_section_title
;
Structure prediction by ZEFSAII (Michael W. Deem and Ramdas Pophale) SiO2 
 PCOD9258887
Probable space group: C 2/C
;
_chemical_formula_sum "Si O2"
_cell_formula_units_Z 60
_cell_length_a 15.560623
_cell_length_b 17.100329
_cell_length_c 13.255237
_cell_angle_alpha 90.000000
_cell_angle_beta 49.406753
_cell_angle_gamma 90.000000
_cell_volume 2678.303566
_symmetry_space_group_name_H-M "C 2/C"
_symmetry_group_IT_number 15
_symmetry_cell_setting 'monoclinic'
loop_
_space_group_symop_operation_xyz
x,y,z
-x,y,1/2-z
-x,-y,-z
x,-y,1/2+z
1/2+x,1/2+y,z
1/2-x,1/2+y,1/2-z
1/2-x,1/2-y,-z
1/2+x,1/2-y,1/2+z
loop_
_atom_site_type_symbol
_atom_site_label
_atom_site_fract_x
_atom_site_fract_y
_atom_site_fract_z
Si Si1 0.112978 0.677183 0.107804
Si Si2 0.500000 0.564470 0.750000
Si Si3 0.971833 0.177354 0.962010
Si Si4 0.742795 0.463579 0.101220
Si Si5 0.098884 0.412730 0.927173
Si Si6 0.754785 0.707541 0.294348
Si Si7 0.786263 0.867078 0.175037
Si Si8 0.420696 0.050503 0.714206
O O1 0.065956 0.739186 0.060476
O O2 0.186374 0.718681 0.140851
O O3 0.000000 0.648564 0.250000
O O4 0.188682 0.605412 0.008995
O O5 0.493716 0.622340 0.849882
O O6 0.381562 0.518898 0.846660
O O7 0.084927 0.162201 0.941636
O O8 0.857346 0.155983 0.107564
O O9 0.822155 0.537225 0.058394
O O10 0.715157 0.428913 0.232583
O O11 0.157924 0.335555 0.844687
O O12 0.087726 0.467047 0.835957
O O13 0.982714 0.401289 0.076262
O O14 0.728492 0.789447 0.263424
O O15 0.699572 0.910067 0.166261
O O16 0.500000 0.047635 0.750000
#
# Coordination Sequence:
#
# PCOD9258887 Si02
#       8
#     8   4   8   8   8   8   8   8
#     4  12  21  31  62 101 131 169 205 263 342 397
#     4  10  18  34  56  88 130 170 206 254 326 410
#     4  11  20  34  57  97 134 165 205 260 338 399
#     4  10  21  39  57  92 134 169 210 267 324 406
#     4  10  26  41  65 100 127 167 231 269 330 393
#     4  12  23  36  61  96 138 168 214 270 327 394
#     4  10  22  38  62  91 129 166 210 269 327 387
#     4  10  24  47  70  91 128 175 221 282 329 386
#
# _framework density 22.402239999999999
#
# number of rings (size 3 to 8) (size 9 to 14) (size 15 to 20)
#    0.000    1.333    4.667    1.200    9.333    0.000 
#    0.000    8.000    1.467    0.000    0.000    0.000 
#    0.000    0.000    0.000    0.000    0.000    0.000 
#
# Total GULP energy -167476.065972 kJ/mol
# GULP energy per Si atom -5582.535532 kJ/mol
# Density = 2.235125 g / cm^3
# Si number density = 22.402240 Si / 1000 Ang^3
#
#
#
# Elastic Constant Matrix: (Units=GPa)
#
#
# Indices 1 2 3 4 5 6 
#
# 1 133.6969 33.6576 20.9184 0.0000 -27.5740 0.0000
# 2 33.6576 44.0837 7.0202 0.0000 -0.1805 0.0000
# 3 20.9184 7.0202 51.7009 0.0000 -30.7192 0.0000
# 4 0.0000 0.0000 0.0000 27.3338 0.0000 -11.8413
# 5 -27.5740 -0.1805 -30.7192 0.0000 41.7272 0.0000
# 6 0.0000 0.0000 0.0000 -11.8413 0.0000 20.4467
#
#
#
# Elastic Compliance Matrix: (Units=1/GPa)
#
#
# Indices 1 2 3 4 5 6 
#
# 1 0.011211 -0.008818 0.001850 0.000000 0.008732 0.000000
# 2 -0.008818 0.030492 -0.007033 0.000000 -0.010873 0.000000
# 3 0.001850 -0.007033 0.036007 0.000000 0.027700 0.000000
# 4 0.000000 0.000000 0.000000 0.048837 0.000000 0.028283
# 5 0.008732 -0.010873 0.027700 0.000000 0.050081 0.000000
# 6 0.000000 0.000000 0.000000 0.028283 0.000000 0.065287
#
#
# Mechanical properties :
#
#
# Convention : Reuss Voigt Hill
#
# Bulk Modulus (GPa) = 20.11773 39.18598 29.65186
# Shear Modulus (GPa) = 17.45275 29.09391 23.27333
#
# Velocity S-wave (km/s) = 2.79420 3.60767 3.22667
# Velocity P-wave (km/s) = 4.40565 5.90624 5.21025
#
# Compressibility (1/GPa) = 0.04970739
#
# Stress axis : x y z
#
# Youngs Moduli (GPa) = 89.19722 32.79511 27.77238
#
# Poissons Ratio (x) = 0.28920 -0.05137
# Poissons Ratio (y) = 0.78658 0.19532
# Poissons Ratio (z) = -0.16498 0.23064
#
# Static dielectric constant tensor:
#      x y z
#    x 1.920920 0.000000 -0.058450 
#    y 0.000000 1.821810 0.000000 
#    z -0.058450 0.000000 1.878390 
# 
# From -- ./inp_files/156000.got.cif
#   From: 2010.05.17/outbox.cif.g08.bks.cpg/sg15_78_cif.got.tgz:156000.got - 2010.06.03 18:47:42.
