data_PCOD9258172
_publ_section_title
;
Structure prediction by ZEFSAII (Michael W. Deem and Ramdas Pophale) SiO2 
 PCOD9258172
Probable space group: C 2/C
;
_chemical_formula_sum "Si O2"
_cell_formula_units_Z 52
_cell_length_a 15.794431
_cell_length_b 17.965650
_cell_length_c 14.888287
_cell_angle_alpha 90.000000
_cell_angle_beta 40.345042
_cell_angle_gamma 90.000000
_cell_volume 2734.998292
_symmetry_space_group_name_H-M "C 2/C"
_symmetry_group_IT_number 15
_symmetry_cell_setting 'monoclinic'
loop_
_space_group_symop_operation_xyz
x,y,z
-x,y,1/2-z
-x,-y,-z
x,-y,1/2+z
1/2+x,1/2+y,z
1/2-x,1/2+y,1/2-z
1/2-x,1/2-y,-z
1/2+x,1/2-y,1/2+z
loop_
_atom_site_type_symbol
_atom_site_label
_atom_site_fract_x
_atom_site_fract_y
_atom_site_fract_z
Si Si1 0.695574 0.693898 0.424100
Si Si2 0.914640 0.561587 0.518586
Si Si3 0.209963 0.955295 0.331230
Si Si4 0.980707 0.304439 0.666625
Si Si5 0.000000 0.054246 0.250000
Si Si6 0.439394 0.395753 0.613381
Si Si7 0.748562 0.465110 0.975293
O O1 0.835809 0.728964 0.287491
O O2 0.596499 0.746508 0.556643
O O3 0.628231 0.669758 0.385818
O O4 0.720847 0.618162 0.460714
O O5 0.800461 0.580130 0.682153
O O6 0.845850 0.535770 0.481207
O O7 0.000000 0.500000 0.500000
O O8 0.004136 0.631297 0.419004
O O9 0.088276 0.904532 0.458800
O O10 0.140609 0.029255 0.347127
O O11 0.286903 0.985015 0.357357
O O12 0.000000 0.338464 0.750000
O O13 0.057370 0.104878 0.282484
O O14 0.112137 0.001427 0.118441
#
# Coordination Sequence:
#
# PCOD9258172 Si02
#       7
#     8   8   8   8   4   8   8
#     4  11  25  41  62  86 133 163 210 256 312 385
#     4  12  24  37  62  86 132 161 204 257 326 365
#     4   9  19  34  56  91 115 163 201 255 309 366
#     4  12  27  42  61  94 123 170 207 256 317 381
#     4  10  18  32  64  96 116 168 206 264 314 362
#     4   9  18  35  59  87 124 154 214 254 310 365
#     4  10  21  36  61  92 127 160 210 256 311 373
#
# _framework density 19.012809000000001
#
# number of rings (size 3 to 8) (size 9 to 14) (size 15 to 20)
#    0.000    1.538    3.077    3.231    3.231    0.000 
#    0.000    0.000    0.000    2.769    0.000    0.000 
#    0.000    0.000    0.000    0.000    0.000    0.000 
#
# Total GULP energy -145145.499614 kJ/mol
# GULP energy per Si atom -5582.519216 kJ/mol
# Density = 1.896954 g / cm^3
# Si number density = 19.012809 Si / 1000 Ang^3
#
#
#
# Elastic Constant Matrix: (Units=GPa)
#
#
# Indices 1 2 3 4 5 6 
#
# 1 125.4130 24.4175 39.5487 0.0000 14.3703 0.0000
# 2 24.4175 43.8666 33.9316 0.0000 -2.4384 0.0000
# 3 39.5487 33.9316 127.9976 0.0000 0.2763 0.0000
# 4 0.0000 0.0000 0.0000 29.7543 0.0000 0.5916
# 5 14.3703 -2.4384 0.2763 0.0000 31.3949 0.0000
# 6 0.0000 0.0000 0.0000 0.5916 0.0000 19.5348
#
#
#
# Elastic Compliance Matrix: (Units=1/GPa)
#
#
# Indices 1 2 3 4 5 6 
#
# 1 0.009986 -0.004342 -0.001924 0.000000 -0.004891 0.000000
# 2 -0.004342 0.030731 -0.006815 0.000000 0.004434 0.000000
# 3 -0.001924 -0.006815 0.010213 0.000000 0.000261 0.000000
# 4 0.000000 0.000000 0.000000 0.033629 0.000000 -0.001018
# 5 -0.004891 0.004434 0.000261 0.000000 0.034433 0.000000
# 6 0.000000 0.000000 0.000000 -0.001018 0.000000 0.051222
#
#
# Mechanical properties :
#
#
# Convention : Reuss Voigt Hill
#
# Bulk Modulus (GPa) = 40.37331 54.78587 47.57959
# Shear Modulus (GPa) = 24.43407 29.42875 26.93141
#
# Velocity S-wave (km/s) = 3.58877 3.93853 3.76771
# Velocity P-wave (km/s) = 6.20107 7.03992 6.63377
#
# Compressibility (1/GPa) = 0.02476884
#
# Stress axis : x y z
#
# Youngs Moduli (GPa) = 100.13761 32.54017 97.91422
#
# Poissons Ratio (x) = 0.14130 0.18837
# Poissons Ratio (y) = 0.43484 0.66724
# Poissons Ratio (z) = 0.19265 0.22175
#
# Static dielectric constant tensor:
#      x y z
#    x 1.691160 0.000000 -0.015500 
#    y 0.000000 1.641200 0.000000 
#    z -0.015500 0.000000 1.694560 
# 
# From -- ./inp_files/155420.got.cif
#   From: 2010.05.17/outbox.cif.g08.bks.cpg/sg15_78_cif.got.tgz:155420.got - 2010.06.03 18:47:42.
