data_PCOD9258536
_publ_section_title
;
Structure prediction by ZEFSAII (Michael W. Deem and Ramdas Pophale) SiO2 
 PCOD9258536
Probable space group: C 2/C
;
_chemical_formula_sum "Si O2"
_cell_formula_units_Z 56
_cell_length_a 9.318679
_cell_length_b 22.354671
_cell_length_c 11.055958
_cell_angle_alpha 90.000000
_cell_angle_beta 70.328636
_cell_angle_gamma 90.000000
_cell_volume 2168.719619
_symmetry_space_group_name_H-M "C 2/C"
_symmetry_group_IT_number 15
_symmetry_cell_setting 'monoclinic'
loop_
_space_group_symop_operation_xyz
x,y,z
-x,y,1/2-z
-x,-y,-z
x,-y,1/2+z
1/2+x,1/2+y,z
1/2-x,1/2+y,1/2-z
1/2-x,1/2-y,-z
1/2+x,1/2-y,1/2+z
loop_
_atom_site_type_symbol
_atom_site_label
_atom_site_fract_x
_atom_site_fract_y
_atom_site_fract_z
Si Si1 0.489231 0.358342 0.972631
Si Si2 0.551984 0.769978 0.374439
Si Si3 0.339069 0.138842 0.067334
Si Si4 0.656929 0.511357 0.638213
Si Si5 0.275507 0.625306 0.761628
Si Si6 0.844208 0.462388 0.399979
Si Si7 0.713039 0.925884 0.697770
O O1 0.568081 0.294077 0.930790
O O2 0.339588 0.359099 0.924724
O O3 0.622457 0.404688 0.899142
O O4 0.414434 0.363565 0.128029
O O5 0.500000 0.762269 0.250000
O O6 0.422283 0.804578 0.487224
O O7 0.696877 0.813926 0.324751
O O8 0.351085 0.129888 0.207353
O O9 0.415983 0.081309 0.978301
O O10 0.500000 0.506442 0.750000
O O11 0.694879 0.581225 0.635186
O O12 0.677215 0.478690 0.504986
O O13 0.759226 0.473703 0.702338
O O14 0.168911 0.582279 0.708337
O O15 0.884812 0.531530 0.364209
#
# Coordination Sequence:
#
# PCOD9258536 Si02
#       7
#     8   8   8   8   8   8   8
#     4  11  21  32  56  81 113 146 181 231 284 332
#     4  12  22  36  54  76 121 152 180 227 273 344
#     4  10  20  34  52  81 114 146 181 223 288 338
#     4  10  18  33  59  82 114 140 179 238 284 327
#     4  10  22  36  53  88 111 144 190 221 285 334
#     4   9  18  34  55  80 112 140 178 237 277 327
#     4  10  19  32  55  88 108 138 188 232 285 329
#
# _framework density 25.82169
#
# number of rings (size 3 to 8) (size 9 to 14) (size 15 to 20)
#    0.000    1.714    2.857    5.143    2.000    4.000 
#    0.000    7.857    0.000    3.429    0.000    0.000 
#    0.000    0.000    0.000    0.000    0.000    0.000 
#
# Total GULP energy -156219.284837 kJ/mol
# GULP energy per Si atom -5579.260173 kJ/mol
# Density = 2.576292 g / cm^3
# Si number density = 25.821690 Si / 1000 Ang^3
#
#
#
# Elastic Constant Matrix: (Units=GPa)
#
#
# Indices 1 2 3 4 5 6 
#
# 1 63.1989 27.6349 19.3051 0.0000 -10.3449 0.0000
# 2 27.6349 163.1639 41.0155 0.0000 -13.9672 0.0000
# 3 19.3051 41.0155 92.3593 0.0000 -27.5638 0.0000
# 4 0.0000 0.0000 0.0000 60.6843 0.0000 -20.2870
# 5 -10.3449 -13.9672 -27.5638 0.0000 33.2560 0.0000
# 6 0.0000 0.0000 0.0000 -20.2870 0.0000 51.6397
#
#
#
# Elastic Compliance Matrix: (Units=1/GPa)
#
#
# Indices 1 2 3 4 5 6 
#
# 1 0.017890 -0.002315 -0.001781 0.000000 0.003116 0.000000
# 2 -0.002315 0.007204 -0.002694 0.000000 0.000073 0.000000
# 3 -0.001781 -0.002694 0.015801 0.000000 0.011411 0.000000
# 4 0.000000 0.000000 0.000000 0.018970 0.000000 0.007453
# 5 0.003116 0.000073 0.011411 0.000000 0.040528 0.000000
# 6 0.000000 0.000000 0.000000 0.007453 0.000000 0.022293
#
#
# Mechanical properties :
#
#
# Convention : Reuss Voigt Hill
#
# Bulk Modulus (GPa) = 36.60968 54.95924 45.78446
# Shear Modulus (GPa) = 34.39463 44.50044 39.44754
#
# Velocity S-wave (km/s) = 3.65362 4.15586 3.91281
# Velocity P-wave (km/s) = 5.65750 6.66022 6.17923
#
# Compressibility (1/GPa) = 0.02731518
#
# Stress axis : x y z
#
# Youngs Moduli (GPa) = 55.89814 138.80553 63.28552
#
# Poissons Ratio (x) = 0.32140 0.11271
# Poissons Ratio (y) = 0.12943 0.17047
# Poissons Ratio (z) = 0.09956 0.37389
#
# Static dielectric constant tensor:
#      x y z
#    x 2.152280 0.000000 -0.016010 
#    y 0.000000 2.028730 0.000000 
#    z -0.016010 0.000000 2.218820 
# 
# From -- ./inp_files/90706.got.cif
#   From: 2010.05.17/outbox.cif.g08.bks.cpg/sg15_46_cif.got.tgz:90706.got - 2010.06.03 18:47:42.
