data_PCOD9258481
_publ_section_title
;
Structure prediction by ZEFSAII (Michael W. Deem and Ramdas Pophale) SiO2 
 PCOD9258481
Probable space group: C 2/C
;
_chemical_formula_sum "Si O2"
_cell_formula_units_Z 48
_cell_length_a 8.765974
_cell_length_b 14.254840
_cell_length_c 16.369678
_cell_angle_alpha 90.000000
_cell_angle_beta 80.382333
_cell_angle_gamma 90.000000
_cell_volume 2016.764371
_symmetry_space_group_name_H-M "C 2/C"
_symmetry_group_IT_number 15
_symmetry_cell_setting 'monoclinic'
loop_
_space_group_symop_operation_xyz
x,y,z
-x,y,1/2-z
-x,-y,-z
x,-y,1/2+z
1/2+x,1/2+y,z
1/2-x,1/2+y,1/2-z
1/2-x,1/2-y,-z
1/2+x,1/2-y,1/2+z
loop_
_atom_site_type_symbol
_atom_site_label
_atom_site_fract_x
_atom_site_fract_y
_atom_site_fract_z
Si Si1 0.621547 0.293551 0.570193
Si Si2 0.427533 0.153077 0.494131
Si Si3 0.230083 0.475339 0.924354
Si Si4 0.811985 0.519826 0.264636
Si Si5 0.179285 0.323958 0.217369
Si Si6 0.349803 0.788740 0.822567
O O1 0.750000 0.250000 0.500000
O O2 0.472569 0.232791 0.556454
O O3 0.628956 0.405948 0.563737
O O4 0.683460 0.260356 0.653158
O O5 0.577868 0.087313 0.461489
O O6 0.390550 0.206482 0.413355
O O7 0.298312 0.077161 0.532940
O O8 0.232696 0.485684 0.826093
O O9 0.761368 0.425576 0.316313
O O10 0.757439 0.615464 0.310478
O O11 0.000000 0.523407 0.250000
O O12 0.260263 0.298186 0.293897
O O13 0.000000 0.336510 0.250000
O O14 0.500000 0.789707 0.750000
#
# Coordination Sequence:
#
# PCOD9258481 Si02
#       6
#     8   8   8   8   8   8
#     4  10  20  35  57  93 126 155 210 270 315 377
#     4  10  19  31  58  89 116 160 206 256 316 367
#     4  10  18  33  57  88 119 156 207 260 309 373
#     4  10  18  34  58  84 114 154 208 251 299 376
#     4  11  23  38  63  90 122 163 205 256 323 380
#     4  11  20  39  60  89 123 156 209 262 307 374
#
# _framework density 23.8005
#
# number of rings (size 3 to 8) (size 9 to 14) (size 15 to 20)
#    0.000    1.667    5.000    3.000    4.667    0.000 
#    0.000    4.167    0.000    2.000    0.000    0.000 
#    0.000    0.000    0.000    0.000    0.000    0.000 
#
# Total GULP energy -133972.116537 kJ/mol
# GULP energy per Si atom -5582.171522 kJ/mol
# Density = 2.374633 g / cm^3
# Si number density = 23.800500 Si / 1000 Ang^3
#
#
#
# Elastic Constant Matrix: (Units=GPa)
#
#
# Indices 1 2 3 4 5 6 
#
# 1 29.5728 38.7394 15.5195 0.0000 9.9699 0.0000
# 2 38.7394 148.0236 23.1501 0.0000 18.3956 0.0000
# 3 15.5195 23.1501 94.6604 0.0000 20.1980 0.0000
# 4 0.0000 0.0000 0.0000 57.4220 0.0000 22.5702
# 5 9.9699 18.3956 20.1980 0.0000 28.1263 0.0000
# 6 0.0000 0.0000 0.0000 22.5702 0.0000 39.1638
#
#
#
# Elastic Compliance Matrix: (Units=1/GPa)
#
#
# Indices 1 2 3 4 5 6 
#
# 1 0.055705 -0.012890 -0.004211 0.000000 -0.008291 0.000000
# 2 -0.012890 0.010403 0.000054 0.000000 -0.002274 0.000000
# 3 -0.004211 0.000054 0.012908 0.000000 -0.007812 0.000000
# 4 0.000000 0.000000 0.000000 0.022515 0.000000 -0.012976
# 5 -0.008291 -0.002274 -0.007812 0.000000 0.045590 0.000000
# 6 0.000000 0.000000 0.000000 -0.012976 0.000000 0.033012
#
#
# Mechanical properties :
#
#
# Convention : Reuss Voigt Hill
#
# Bulk Modulus (GPa) = 22.26035 47.45278 34.85656
# Shear Modulus (GPa) = 21.81489 37.93228 29.87358
#
# Velocity S-wave (km/s) = 3.03078 3.99652 3.54668
# Velocity P-wave (km/s) = 4.64981 6.42474 5.60794
#
# Compressibility (1/GPa) = 0.04492293
#
# Stress axis : x y z
#
# Youngs Moduli (GPa) = 17.95166 96.12481 77.47017
#
# Poissons Ratio (x) = 1.23901 0.32626
# Poissons Ratio (y) = 0.23139 -0.00420
# Poissons Ratio (z) = 0.07560 -0.00522
#
# Static dielectric constant tensor:
#      x y z
#    x 1.820270 0.000000 -0.337040 
#    y 0.000000 2.032330 0.000000 
#    z -0.337040 0.000000 1.106540 
# 
# From -- ./inp_files/189272.got.cif
#   From: 2010.05.17/outbox.cif.g08.bks.cpg/sg15_95_cif.got.tgz:189272.got - 2010.06.03 18:47:42.
