data_PCOD9258264
_publ_section_title
;
Structure prediction by ZEFSAII (Michael W. Deem and Ramdas Pophale) SiO2 
 PCOD9258264
Probable space group: C 2/C
;
_chemical_formula_sum "Si O2"
_cell_formula_units_Z 48
_cell_length_a 18.417357
_cell_length_b 12.248607
_cell_length_c 12.281553
_cell_angle_alpha 90.000000
_cell_angle_beta 118.739528
_cell_angle_gamma 90.000000
_cell_volume 2429.266113
_symmetry_space_group_name_H-M "C 2/C"
_symmetry_group_IT_number 15
_symmetry_cell_setting 'monoclinic'
loop_
_space_group_symop_operation_xyz
x,y,z
-x,y,1/2-z
-x,-y,-z
x,-y,1/2+z
1/2+x,1/2+y,z
1/2-x,1/2+y,1/2-z
1/2-x,1/2-y,-z
1/2+x,1/2-y,1/2+z
loop_
_atom_site_type_symbol
_atom_site_label
_atom_site_fract_x
_atom_site_fract_y
_atom_site_fract_z
Si Si1 0.213767 0.782093 0.855412
Si Si2 0.828257 0.396705 0.567409
Si Si3 0.637202 0.068936 0.729503
Si Si4 0.705279 0.469493 0.313130
Si Si5 0.997781 0.402902 0.615516
Si Si6 0.137637 0.756650 0.204845
O O1 0.145752 0.696336 0.761784
O O2 0.291639 0.769766 0.830678
O O3 0.183554 0.906706 0.825310
O O4 0.250000 0.750000 0.000000
O O5 0.846380 0.509310 0.643042
O O6 0.741603 0.411020 0.446656
O O7 0.835194 0.303291 0.662975
O O8 0.900307 0.386567 0.528272
O O9 0.716190 0.031971 0.713637
O O10 0.549327 0.014632 0.630290
O O11 0.636251 0.386833 0.218421
O O12 0.053224 0.304011 0.611479
O O13 0.000000 0.392917 0.750000
#
# Coordination Sequence:
#
# PCOD9258264 Si02
#       6
#     8   8   8   8   8   8
#     4  11  19  30  49  74 106 129 163 206 262 300
#     4  10  18  33  53  75  99 133 177 209 248 292
#     4   9  18  31  45  73 104 129 165 207 255 292
#     4  11  19  30  52  77 102 134 163 214 253 298
#     4   8  16  33  53  70 100 136 169 210 247 294
#     4   9  19  34  47  75 104 129 170 209 250 298
#
# _framework density 19.759053999999999
#
# number of rings (size 3 to 8) (size 9 to 14) (size 15 to 20)
#    0.000    2.667    5.000    0.500    0.000    0.667 
#    0.000    0.000    0.000    9.000    0.000   15.167 
#    0.000    0.000    0.000    0.000    0.000    0.000 
#
# Total GULP energy -133638.571353 kJ/mol
# GULP energy per Si atom -5568.273806 kJ/mol
# Density = 1.971408 g / cm^3
# Si number density = 19.759054 Si / 1000 Ang^3
#
#
#
# Elastic Constant Matrix: (Units=GPa)
#
#
# Indices 1 2 3 4 5 6 
#
# 1 67.0252 41.0170 19.3722 0.0000 -9.9475 0.0000
# 2 41.0170 178.5272 28.6200 0.0000 5.1925 0.0000
# 3 19.3722 28.6200 32.9811 0.0000 1.6421 0.0000
# 4 0.0000 0.0000 0.0000 18.4725 0.0000 -4.1324
# 5 -9.9475 5.1925 1.6421 0.0000 23.6542 0.0000
# 6 0.0000 0.0000 0.0000 -4.1324 0.0000 27.9926
#
#
#
# Elastic Compliance Matrix: (Units=1/GPa)
#
#
# Indices 1 2 3 4 5 6 
#
# 1 0.021647 -0.003669 -0.010059 0.000000 0.010607 0.000000
# 2 -0.003669 0.007154 -0.003911 0.000000 -0.002842 0.000000
# 3 -0.010059 -0.003911 0.039929 0.000000 -0.006143 0.000000
# 4 0.000000 0.000000 0.000000 0.055983 0.000000 0.008264
# 5 0.010607 -0.002842 -0.006143 0.000000 0.047787 0.000000
# 6 0.000000 0.000000 0.000000 0.008264 0.000000 0.036944
#
#
# Mechanical properties :
#
#
# Convention : Reuss Voigt Hill
#
# Bulk Modulus (GPa) = 29.89473 50.72799 40.31136
# Shear Modulus (GPa) = 19.54098 26.65880 23.09989
#
# Velocity S-wave (km/s) = 3.14819 3.67712 3.42289
# Velocity P-wave (km/s) = 5.32703 6.61493 6.00561
#
# Compressibility (1/GPa) = 0.03345072
#
# Stress axis : x y z
#
# Youngs Moduli (GPa) = 46.19623 139.77939 25.04468
#
# Poissons Ratio (x) = 0.51290 0.25192
# Poissons Ratio (y) = 0.16951 0.09796
# Poissons Ratio (z) = 0.46467 0.54673
#
# Static dielectric constant tensor:
#      x y z
#    x 1.714300 0.000000 0.010220 
#    y 0.000000 1.714770 0.000000 
#    z 0.010220 0.000000 1.810610 
# 
# From -- ./inp_files/160477.got.cif
#   From: 2010.05.17/outbox.cif.g08.bks.cpg/sg15_81_cif.got.tgz:160477.got - 2010.06.03 18:47:42.
