data_PCOD9258415
_publ_section_title
;
Structure prediction by ZEFSAII (Michael W. Deem and Ramdas Pophale) SiO2 
 PCOD9258415
Probable space group: C 2/C
;
_chemical_formula_sum "Si O2"
_cell_formula_units_Z 56
_cell_length_a 21.903866
_cell_length_b 14.452507
_cell_length_c 26.261875
_cell_angle_alpha 90.000000
_cell_angle_beta 157.786301
_cell_angle_gamma 90.000000
_cell_volume 3143.061552
_symmetry_space_group_name_H-M "C 2/C"
_symmetry_group_IT_number 15
_symmetry_cell_setting 'monoclinic'
loop_
_space_group_symop_operation_xyz
x,y,z
-x,y,1/2-z
-x,-y,-z
x,-y,1/2+z
1/2+x,1/2+y,z
1/2-x,1/2+y,1/2-z
1/2-x,1/2-y,-z
1/2+x,1/2-y,1/2+z
loop_
_atom_site_type_symbol
_atom_site_label
_atom_site_fract_x
_atom_site_fract_y
_atom_site_fract_z
Si Si1 0.349342 0.661798 0.096167
Si Si2 0.405503 0.851956 0.392775
Si Si3 0.879905 0.137994 0.376881
Si Si4 0.340561 0.967595 0.973543
Si Si5 0.018415 0.862017 0.094072
Si Si6 0.538188 0.463807 0.663765
Si Si7 0.001287 0.648767 0.418379
O O1 0.500000 0.687123 0.250000
O O2 0.233781 0.593312 0.038797
O O3 0.423433 0.604629 0.106305
O O4 0.250000 0.750000 0.000000
O O5 0.433171 0.742980 0.404517
O O6 0.504719 0.915420 0.430872
O O7 0.213497 0.865383 0.243054
O O8 0.467282 0.870344 0.497524
O O9 0.922487 0.076497 0.361438
O O10 0.688099 0.136618 0.237347
O O11 0.959584 0.112946 0.492065
O O12 0.201331 0.972272 0.822914
O O13 0.394388 0.071317 0.029507
O O14 0.962304 0.757080 0.062112
O O15 0.966194 0.935211 0.096330
#
# Coordination Sequence:
#
# PCOD9258415 Si02
#       7
#     8   8   8   8   8   8   8
#     4  10  24  44  62  82 110 147 191 233 270 325
#     4  10  18  33  56  82 115 145 181 227 277 337
#     4  10  20  32  53  87 117 141 178 228 289 325
#     4  11  20  36  61  79 105 155 193 219 272 336
#     4  10  21  33  54  87 117 141 176 235 283 327
#     4  11  20  37  58  80 111 148 189 228 271 333
#     4  10  19  34  55  82 113 144 180 228 277 337
#
# _framework density 17.817022999999999
#
# number of rings (size 3 to 8) (size 9 to 14) (size 15 to 20)
#    0.000    1.714    2.857    2.571    0.000    0.000 
#    5.143    0.714    0.000    0.000    0.000    0.000 
#    0.000    0.000    0.000    0.000    0.000    0.000 
#
# Total GULP energy -156273.887549 kJ/mol
# GULP energy per Si atom -5581.210270 kJ/mol
# Density = 1.777647 g / cm^3
# Si number density = 17.817023 Si / 1000 Ang^3
#
#
#
# Elastic Constant Matrix: (Units=GPa)
#
#
# Indices 1 2 3 4 5 6 
#
# 1 51.0750 64.8440 31.5198 0.0004 -5.3230 0.0002
# 2 64.8440 137.1504 41.9106 -0.0028 1.6982 -0.0018
# 3 31.5198 41.9106 84.2004 -0.0014 -10.9930 -0.0016
# 4 0.0004 -0.0028 -0.0014 30.0440 -0.0017 0.3702
# 5 -5.3230 1.6982 -10.9930 -0.0017 19.5848 -0.0019
# 6 0.0002 -0.0018 -0.0016 0.3702 -0.0019 25.5063
#
#
#
# Elastic Compliance Matrix: (Units=1/GPa)
#
#
# Indices 1 2 3 4 5 6 
#
# 1 0.057196 -0.025021 -0.007170 -0.000003 0.013691 -0.000002
# 2 -0.025021 0.019759 -0.001705 0.000001 -0.009471 0.000001
# 3 -0.007170 -0.001705 0.016374 0.000001 0.007390 0.000001
# 4 -0.000003 0.000001 0.000001 0.033291 0.000003 -0.000483
# 5 0.013691 -0.009471 0.007390 0.000003 0.059750 0.000004
# 6 -0.000002 0.000001 0.000001 -0.000483 0.000004 0.039213
#
#
# Mechanical properties :
#
#
# Convention : Reuss Voigt Hill
#
# Bulk Modulus (GPa) = 39.15681 60.99718 50.07700
# Shear Modulus (GPa) = 16.56243 23.97043 20.26643
#
# Velocity S-wave (km/s) = 3.05222 3.67190 3.37631
# Velocity P-wave (km/s) = 5.86909 7.23096 6.58533
#
# Compressibility (1/GPa) = 0.02553834
#
# Stress axis : x y z
#
# Youngs Moduli (GPa) = 17.48360 50.60888 61.07257
#
# Poissons Ratio (x) = 1.26628 0.43786
# Poissons Ratio (y) = 0.43745 0.10415
# Poissons Ratio (z) = 0.12535 0.08631
#
# Static dielectric constant tensor:
#      x y z
#    x 1.570810 0.000000 -0.002590 
#    y 0.000000 1.670580 0.000000 
#    z -0.002590 0.000000 1.594940 
# 
# From -- ./inp_files/112422.got.cif
#   From: 2010.05.17/outbox.cif.g08.bks.cpg/sg15_57_cif.got.tgz:112422.got - 2010.06.03 18:47:42.
