data_PCOD9258311
_publ_section_title
;
Structure prediction by ZEFSAII (Michael W. Deem and Ramdas Pophale) SiO2 
 PCOD9258311
Probable space group: C 2/C
;
_chemical_formula_sum "Si O2"
_cell_formula_units_Z 40
_cell_length_a 17.269276
_cell_length_b 20.330087
_cell_length_c 12.207965
_cell_angle_alpha 90.000000
_cell_angle_beta 31.691085
_cell_angle_gamma 90.000000
_cell_volume 2251.627285
_symmetry_space_group_name_H-M "C 2/C"
_symmetry_group_IT_number 15
_symmetry_cell_setting 'monoclinic'
loop_
_space_group_symop_operation_xyz
x,y,z
-x,y,1/2-z
-x,-y,-z
x,-y,1/2+z
1/2+x,1/2+y,z
1/2-x,1/2+y,1/2-z
1/2-x,1/2-y,-z
1/2+x,1/2-y,1/2+z
loop_
_atom_site_type_symbol
_atom_site_label
_atom_site_fract_x
_atom_site_fract_y
_atom_site_fract_z
Si Si1 0.675547 0.189096 0.529940
Si Si2 0.154224 0.430485 0.617913
Si Si3 0.165693 0.386839 0.835483
Si Si4 0.337902 0.925513 0.289819
Si Si5 0.330292 0.479876 0.204033
O O1 0.500000 0.197834 0.750000
O O2 0.750000 0.250000 0.500000
O O3 0.710633 0.173037 0.360806
O O4 0.711709 0.123435 0.555382
O O5 0.201870 0.385650 0.663173
O O6 0.126128 0.502870 0.704053
O O7 0.275991 0.442935 0.378484
O O8 0.000000 0.408461 0.750000
O O9 0.237829 0.452943 0.798484
O O10 0.989183 0.397088 0.057685
O O11 0.215572 0.935567 0.344500
O O12 0.500000 0.500000 0.000000
#
# Coordination Sequence:
#
# PCOD9258311 Si02
#       5
#     8   8   8   8   8
#     4  10  21  37  56  79 106 144 191 238 274 326
#     4  11  16  32  57  78 109 147 181 218 271 344
#     4  10  19  33  53  77 106 147 187 215 272 343
#     4  10  18  33  54  76 108 145 185 213 272 341
#     4  11  21  30  50  86 117 141 173 232 283 324
#
# _framework density 17.764928999999999
#
# number of rings (size 3 to 8) (size 9 to 14) (size 15 to 20)
#    0.000    1.600    6.000    1.800    0.000    4.800 
#    0.000    0.000    0.000    1.200    0.000    0.000 
#    0.000    0.000    0.000    0.000    0.000    0.000 
#
# Total GULP energy -111527.443923 kJ/mol
# GULP energy per Si atom -5576.372196 kJ/mol
# Density = 1.772450 g / cm^3
# Si number density = 17.764929 Si / 1000 Ang^3
#
#
#
# Elastic Constant Matrix: (Units=GPa)
#
#
# Indices 1 2 3 4 5 6 
#
# 1 153.8935 46.7174 66.3590 0.0005 16.7329 0.0006
# 2 46.7174 49.9520 3.7266 0.0018 3.5248 -0.0008
# 3 66.3590 3.7266 82.7004 0.0012 7.5325 -0.0003
# 4 0.0005 0.0018 0.0012 8.1412 0.0009 2.8638
# 5 16.7329 3.5248 7.5325 0.0009 28.1519 -0.0015
# 6 0.0006 -0.0008 -0.0003 2.8638 -0.0015 40.5699
#
#
#
# Elastic Compliance Matrix: (Units=1/GPa)
#
#
# Indices 1 2 3 4 5 6 
#
# 1 0.016679 -0.014341 -0.012297 0.000005 -0.004828 -0.000001
# 2 -0.014341 0.032568 0.009875 -0.000008 0.001804 0.000002
# 3 -0.012297 0.009875 0.021485 -0.000005 0.000324 0.000001
# 4 0.000005 -0.000008 -0.000005 0.125959 -0.000005 -0.008891
# 5 -0.004828 0.001804 0.000324 -0.000005 0.038078 0.000002
# 6 -0.000001 0.000002 0.000001 -0.008891 0.000002 0.025276
#
#
# Mechanical properties :
#
#
# Convention : Reuss Voigt Hill
#
# Bulk Modulus (GPa) = 26.87779 57.79467 42.33623
# Shear Modulus (GPa) = 16.34131 26.68879 21.51505
#
# Velocity S-wave (km/s) = 3.03622 3.88020 3.48386
# Velocity P-wave (km/s) = 5.23966 7.25797 6.32978
#
# Compressibility (1/GPa) = 0.03720544
#
# Stress axis : x y z
#
# Youngs Moduli (GPa) = 59.95552 30.70545 46.54461
#
# Poissons Ratio (x) = 0.44034 0.57238
# Poissons Ratio (y) = 0.85982 -0.45964
# Poissons Ratio (z) = 0.73730 -0.30323
#
# Static dielectric constant tensor:
#      x y z
#    x 1.644600 0.000000 0.030800 
#    y 0.000000 1.594220 0.000000 
#    z 0.030800 0.000000 1.626670 
# 
# From -- ./inp_files/30163.got.cif
#   From: 2010.05.17/outbox.cif.g08.bks.cpg/sg15_16_cif.got.tgz:30163.got - 2010.06.03 18:47:42.
