data_PCOD9258600
_publ_section_title
;
Structure prediction by ZEFSAII (Michael W. Deem and Ramdas Pophale) SiO2 
 PCOD9258600
Probable space group: C 2/C
;
_chemical_formula_sum "Si O2"
_cell_formula_units_Z 56
_cell_length_a 17.408644
_cell_length_b 23.824655
_cell_length_c 9.959704
_cell_angle_alpha 90.000000
_cell_angle_beta 36.198109
_cell_angle_gamma 90.000000
_cell_volume 2439.585377
_symmetry_space_group_name_H-M "C 2/C"
_symmetry_group_IT_number 15
_symmetry_cell_setting 'monoclinic'
loop_
_space_group_symop_operation_xyz
x,y,z
-x,y,1/2-z
-x,-y,-z
x,-y,1/2+z
1/2+x,1/2+y,z
1/2-x,1/2+y,1/2-z
1/2-x,1/2-y,-z
1/2+x,1/2-y,1/2+z
loop_
_atom_site_type_symbol
_atom_site_label
_atom_site_fract_x
_atom_site_fract_y
_atom_site_fract_z
Si Si1 0.856478 0.545241 0.005297
Si Si2 0.844010 0.787030 0.203047
Si Si3 0.389394 0.289536 0.551240
Si Si4 0.369186 0.392004 0.019869
Si Si5 0.500000 0.238288 0.750000
Si Si6 0.500000 0.396414 0.250000
Si Si7 0.793268 0.339918 0.476523
Si Si8 0.707570 0.508580 0.467676
O O1 0.836336 0.611946 0.018996
O O2 0.821968 0.528409 0.205549
O O3 0.759243 0.517363 0.033645
O O4 0.000000 0.531092 0.750000
O O5 0.709290 0.751790 0.391291
O O6 0.849991 0.855362 0.183017
O O7 0.900145 0.772276 0.977704
O O8 0.962199 0.768688 0.134171
O O9 0.414220 0.351454 0.455072
O O10 0.318816 0.304081 0.792180
O O11 0.500000 0.379834 0.750000
O O12 0.252519 0.370339 0.091546
O O13 0.359942 0.459272 0.027147
O O14 0.583973 0.198297 0.726402
O O15 0.390273 0.441155 0.359511
#
# Coordination Sequence:
#
# PCOD9258600 Si02
#       8
#     8   8   8   8   4   4   8   8
#     4  11  23  44  66 102 141 184 234 285 362 425
#     4  11  22  39  64  99 131 176 232 290 363 409
#     4  11  24  41  66  90 135 179 234 291 346 425
#     4  11  20  35  60  99 131 166 223 292 348 417
#     4  10  18  33  60  94 125 162 222 284 344 408
#     4  12  26  45  68  98 137 188 240 282 356 434
#     4  10  19  34  60  91 127 173 213 286 346 408
#     4  11  26  41  72 102 142 186 234 295 353 432
#
# _framework density 22.954720999999999
#
# number of rings (size 3 to 8) (size 9 to 14) (size 15 to 20)
#    0.000    1.143    5.000    1.286    2.000    3.429 
#    0.000    0.000    1.571    0.000    0.000    0.000 
#    0.000    0.000    0.000    0.000    0.000    0.000 
#
# Total GULP energy -156087.029313 kJ/mol
# GULP energy per Si atom -5574.536761 kJ/mol
# Density = 2.290247 g / cm^3
# Si number density = 22.954721 Si / 1000 Ang^3
#
#
#
# Elastic Constant Matrix: (Units=GPa)
#
#
# Indices 1 2 3 4 5 6 
#
# 1 64.1786 42.7797 20.6022 0.0002 -23.8728 0.0000
# 2 42.7797 136.1570 36.4635 0.0001 -14.8863 0.0000
# 3 20.6022 36.4635 90.6246 0.0005 -3.2830 0.0000
# 4 0.0002 0.0001 0.0005 24.6599 -0.0002 -3.0489
# 5 -23.8728 -14.8863 -3.2830 -0.0002 25.5025 0.0000
# 6 0.0000 0.0000 0.0000 -3.0489 0.0000 26.9743
#
#
#
# Elastic Compliance Matrix: (Units=1/GPa)
#
#
# Indices 1 2 3 4 5 6 
#
# 1 0.029293 -0.005675 -0.003519 0.000000 0.023656 0.000000
# 2 -0.005675 0.009853 -0.002671 0.000000 0.000095 0.000000
# 3 -0.003519 -0.002671 0.012793 0.000000 -0.003206 0.000000
# 4 0.000000 0.000000 0.000000 0.041126 0.000000 0.004649
# 5 0.023656 0.000095 -0.003206 0.000000 0.060999 0.000000
# 6 0.000000 0.000000 0.000000 0.004649 0.000000 0.037598
#
#
# Mechanical properties :
#
#
# Convention : Reuss Voigt Hill
#
# Bulk Modulus (GPa) = 35.44900 54.51678 44.98289
# Shear Modulus (GPa) = 22.24243 28.16833 25.20538
#
# Velocity S-wave (km/s) = 3.11621 3.50684 3.31728
# Velocity P-wave (km/s) = 5.33143 6.34023 5.85759
#
# Compressibility (1/GPa) = 0.02820954
#
# Stress axis : x y z
#
# Youngs Moduli (GPa) = 34.13754 101.48947 78.16749
#
# Poissons Ratio (x) = 0.57596 0.27507
# Poissons Ratio (y) = 0.19373 0.20878
# Poissons Ratio (z) = 0.12013 0.27107
#
# Static dielectric constant tensor:
#      x y z
#    x 1.954700 0.000000 0.009280 
#    y 0.000000 1.915140 0.000000 
#    z 0.009280 0.000000 1.873650 
# 
# From -- ./inp_files/114730.got.cif
#   From: 2010.05.17/outbox.cif.g08.bks.cpg/sg15_58_cif.got.tgz:114730.got - 2010.06.03 18:47:42.
