data_PCOD9258652
_publ_section_title
;
Structure prediction by ZEFSAII (Michael W. Deem and Ramdas Pophale) SiO2 
 PCOD9258652
Probable space group: C 2/C
;
_chemical_formula_sum "Si O2"
_cell_formula_units_Z 56
_cell_length_a 20.961907
_cell_length_b 14.921262
_cell_length_c 24.758415
_cell_angle_alpha 90.000000
_cell_angle_beta 20.627887
_cell_angle_gamma 90.000000
_cell_volume 2728.150864
_symmetry_space_group_name_H-M "C 2/C"
_symmetry_group_IT_number 15
_symmetry_cell_setting 'monoclinic'
loop_
_space_group_symop_operation_xyz
x,y,z
-x,y,1/2-z
-x,-y,-z
x,-y,1/2+z
1/2+x,1/2+y,z
1/2-x,1/2+y,1/2-z
1/2-x,1/2-y,-z
1/2+x,1/2-y,1/2+z
loop_
_atom_site_type_symbol
_atom_site_label
_atom_site_fract_x
_atom_site_fract_y
_atom_site_fract_z
Si Si1 0.807661 0.848133 0.430465
Si Si2 0.463575 0.949535 0.215264
Si Si3 0.314676 0.126139 0.365916
Si Si4 0.107777 0.303847 0.490070
Si Si5 0.800306 0.249197 0.192759
Si Si6 0.282719 0.676977 0.425129
Si Si7 0.808601 0.802370 0.103074
O O1 0.750000 0.750000 0.500000
O O2 0.800319 0.907187 0.490553
O O3 0.679430 0.866224 0.481035
O O4 0.000000 0.848439 0.250000
O O5 0.500000 0.945607 0.250000
O O6 0.293552 0.886813 0.338907
O O7 0.382487 0.049315 0.272274
O O8 0.643846 0.906329 0.045164
O O9 0.500000 0.154136 0.250000
O O10 0.206318 0.207284 0.424321
O O11 0.162910 0.320777 0.384418
O O12 0.893777 0.294492 0.664266
O O13 0.783211 0.285124 0.266613
O O14 0.978858 0.188088 0.052866
O O15 0.500000 0.656542 0.250000
O O16 0.250000 0.750000 0.500000
O O17 0.226740 0.724007 0.412821
#
# Coordination Sequence:
#
# PCOD9258652 Si02
#       7
#     8   8   8   8   8   8   8
#     4  10  18  33  64  93 116 158 207 256 310 370
#     4  11  22  37  59  92 123 158 196 259 333 376
#     4  10  21  37  59  88 130 158 194 254 336 383
#     4  10  18  35  57  89 118 160 203 261 292 363
#     4  10  21  31  56  88 113 155 217 250 286 347
#     4  12  19  34  64  91 114 153 210 266 313 360
#     4  11  19  35  56  87 116 152 207 263 288 358
#
# _framework density 20.526724999999999
#
# number of rings (size 3 to 8) (size 9 to 14) (size 15 to 20)
#    0.000    1.429    4.286    4.286    0.000    0.000 
#    0.000    5.714    0.000    0.857    0.000    0.000 
#    0.000    0.000    0.000    0.000    0.000    0.000 
#
# Total GULP energy -155911.078928 kJ/mol
# GULP energy per Si atom -5568.252819 kJ/mol
# Density = 2.048000 g / cm^3
# Si number density = 20.526725 Si / 1000 Ang^3
#
#
#
# Elastic Constant Matrix: (Units=GPa)
#
#
# Indices 1 2 3 4 5 6 
#
# 1 82.9093 13.6892 17.7461 -0.0109 14.4418 -0.0013
# 2 13.6892 69.9178 42.0683 0.0219 0.2375 0.0086
# 3 17.7461 42.0683 142.3541 0.0166 3.9480 0.0050
# 4 -0.0109 0.0219 0.0166 18.1033 0.0063 4.3235
# 5 14.4418 0.2375 3.9480 0.0063 57.3067 -0.0016
# 6 -0.0013 0.0086 0.0050 4.3235 -0.0016 7.6589
#
#
#
# Elastic Compliance Matrix: (Units=1/GPa)
#
#
# Indices 1 2 3 4 5 6 
#
# 1 0.013160 -0.001986 -0.000964 0.000013 -0.003242 -0.000003
# 2 -0.001986 0.017700 -0.005004 -0.000016 0.000772 -0.000007
# 3 -0.000964 -0.005004 0.008633 -0.000003 -0.000331 0.000001
# 4 0.000013 -0.000016 -0.000003 0.063846 -0.000011 -0.036042
# 5 -0.003242 0.000772 -0.000331 -0.000011 0.018287 0.000009
# 6 -0.000003 -0.000007 0.000001 -0.036042 0.000009 0.150913
#
#
# Mechanical properties :
#
#
# Convention : Reuss Voigt Hill
#
# Bulk Modulus (GPa) = 42.39994 49.13205 45.76599
# Shear Modulus (GPa) = 16.87428 31.39230 24.13329
#
# Velocity S-wave (km/s) = 2.87028 3.91492 3.43257
# Velocity P-wave (km/s) = 5.62898 6.66506 6.16881
#
# Compressibility (1/GPa) = 0.02358494
#
# Stress axis : x y z
#
# Youngs Moduli (GPa) = 75.98647 56.49790 115.83476
#
# Poissons Ratio (x) = 0.11219 0.11165
# Poissons Ratio (y) = 0.15089 0.57969
# Poissons Ratio (z) = 0.07324 0.28274
#
# Static dielectric constant tensor:
#      x y z
#    x 1.794790 0.000000 0.014660 
#    y 0.000000 1.815120 0.000050 
#    z 0.014660 0.000050 2.201810 
# 
# From -- ./inp_files/280409.got.cif
#   From: 2010.05.17/outbox.cif.g08.bks.cpg/sg15_141_cif.got.tgz:280409.got - 2010.06.03 18:47:42.
