data_PCOD9258798
_publ_section_title
;
Structure prediction by ZEFSAII (Michael W. Deem and Ramdas Pophale) SiO2 
 PCOD9258798
Probable space group: C 2/C
;
_chemical_formula_sum "Si O2"
_cell_formula_units_Z 48
_cell_length_a 11.527956
_cell_length_b 23.249940
_cell_length_c 10.434561
_cell_angle_alpha 90.000000
_cell_angle_beta 107.128153
_cell_angle_gamma 90.000000
_cell_volume 2672.676989
_symmetry_space_group_name_H-M "C 2/C"
_symmetry_group_IT_number 15
_symmetry_cell_setting 'monoclinic'
loop_
_space_group_symop_operation_xyz
x,y,z
-x,y,1/2-z
-x,-y,-z
x,-y,1/2+z
1/2+x,1/2+y,z
1/2-x,1/2+y,1/2-z
1/2-x,1/2-y,-z
1/2+x,1/2-y,1/2+z
loop_
_atom_site_type_symbol
_atom_site_label
_atom_site_fract_x
_atom_site_fract_y
_atom_site_fract_z
Si Si1 0.310077 0.559189 0.347500
Si Si2 0.617638 0.848207 0.731953
Si Si3 0.289534 0.993637 0.438106
Si Si4 0.013283 0.414580 0.462673
Si Si5 0.308665 0.275943 0.645620
Si Si6 0.500000 0.817228 0.250000
Si Si7 0.000000 0.873038 0.750000
O O1 0.211446 0.610527 0.336581
O O2 0.268220 0.521887 0.208657
O O3 0.304082 0.525337 0.480556
O O4 0.433729 0.588950 0.337275
O O5 0.500000 0.817859 0.750000
O O6 0.700927 0.801006 0.694206
O O7 0.447550 0.892662 0.885732
O O8 0.383863 0.038318 0.536367
O O9 0.381020 0.943243 0.421644
O O10 0.020272 0.359606 0.374667
O O11 0.250000 0.250000 0.500000
O O12 0.387046 0.225268 0.734374
O O13 0.398769 0.330521 0.656229
#
# Coordination Sequence:
#
# PCOD9258798 Si02
#       7
#     8   8   8   8   8   4   4
#     4  10  20  35  55  82 115 151 183 229 276 343
#     4  10  18  34  55  78 108 144 181 229 285 323
#     4  10  20  33  56  86 115 145 186 226 283 332
#     4  10  19  31  55  84 112 138 181 235 273 323
#     4  10  20  37  58  81 106 148 191 228 279 340
#     4  11  20  34  56  88 110 140 188 233 276 332
#     4   9  22  38  56  80 110 154 188 225 284 342
#
# _framework density 17.959520999999999
#
# number of rings (size 3 to 8) (size 9 to 14) (size 15 to 20)
#    0.000    2.000    3.333    1.000    0.000    0.667 
#    0.000    2.500    0.000    0.000    0.000    0.000 
#    0.000    0.000    0.000    0.000    0.000    0.000 
#
# Total GULP energy -133613.361817 kJ/mol
# GULP energy per Si atom -5567.223409 kJ/mol
# Density = 1.791864 g / cm^3
# Si number density = 17.959521 Si / 1000 Ang^3
#
#
#
# Elastic Constant Matrix: (Units=GPa)
#
#
# Indices 1 2 3 4 5 6 
#
# 1 131.1418 48.7372 14.7640 0.0000 -14.9808 0.0000
# 2 48.7372 82.5942 11.3858 0.0000 -11.4635 0.0000
# 3 14.7640 11.3858 30.0130 0.0000 -7.0981 0.0000
# 4 0.0000 0.0000 0.0000 17.8246 0.0000 1.8368
# 5 -14.9808 -11.4635 -7.0981 0.0000 17.0441 0.0000
# 6 0.0000 0.0000 0.0000 1.8368 0.0000 -2.9558
#
#
#
# Elastic Compliance Matrix: (Units=1/GPa)
#
#
# Indices 1 2 3 4 5 6 
#
# 1 0.010306 -0.005145 -0.001990 0.000000 0.004769 0.000000
# 2 -0.005145 0.016217 -0.002342 0.000000 0.005410 0.000000
# 3 -0.001990 -0.002342 0.038158 0.000000 0.012567 0.000000
# 4 0.000000 0.000000 0.000000 0.052726 0.000000 0.032765
# 5 0.004769 0.005410 0.012567 0.000000 0.071735 0.000000
# 6 0.000000 0.000000 0.000000 0.032765 0.000000 -0.317952
#
#
# Mechanical properties :
#
#
# Convention : Reuss Voigt Hill
#
# Bulk Modulus (GPa) = 21.86855 43.72480 32.79667
# Shear Modulus (GPa) = -52.84710 17.64004 -17.60353
#
# Velocity S-wave (km/s) = -5.43043 3.13742 -3.13418
# Velocity P-wave (km/s) = 5.20734 6.12566 2.28116
#
# Compressibility (1/GPa) = 0.04572777
#
# Stress axis : x y z
#
# Youngs Moduli (GPa) = 97.02729 61.66298 26.20660
#
# Poissons Ratio (x) = 0.31728 0.05215
# Poissons Ratio (y) = 0.49924 0.06137
# Poissons Ratio (z) = 0.19309 0.14440
#
# Static dielectric constant tensor:
#      x y z
#    x 1.690520 0.000000 -0.039700 
#    y 0.000000 1.637390 0.000000 
#    z -0.039700 0.000000 1.699090 
# 
# From -- ./inp_files/32079.got.cif
#   From: 2010.05.17/outbox.cif.g08.bks.cpg/sg15_17_cif.got.tgz:32079.got - 2010.06.03 18:47:42.
