data_PCOD9258222
_publ_section_title
;
Structure prediction by ZEFSAII (Michael W. Deem and Ramdas Pophale) SiO2 
 PCOD9258222
Probable space group: C 2/C
;
_chemical_formula_sum "Si O2"
_cell_formula_units_Z 64
_cell_length_a 25.033254
_cell_length_b 7.296553
_cell_length_c 13.600414
_cell_angle_alpha 90.000000
_cell_angle_beta 70.518551
_cell_angle_gamma 90.000000
_cell_volume 2341.981694
_symmetry_space_group_name_H-M "C 2/C"
_symmetry_group_IT_number 15
_symmetry_cell_setting 'monoclinic'
loop_
_space_group_symop_operation_xyz
x,y,z
-x,y,1/2-z
-x,-y,-z
x,-y,1/2+z
1/2+x,1/2+y,z
1/2-x,1/2+y,1/2-z
1/2-x,1/2-y,-z
1/2+x,1/2-y,1/2+z
loop_
_atom_site_type_symbol
_atom_site_label
_atom_site_fract_x
_atom_site_fract_y
_atom_site_fract_z
Si Si1 0.940495 0.301513 0.566364
Si Si2 0.188758 0.763146 0.841205
Si Si3 0.567927 0.036393 0.215417
Si Si4 0.741325 0.573476 0.117448
Si Si5 0.057740 0.297721 0.469151
Si Si6 0.352533 0.671391 0.814084
Si Si7 0.324571 0.343745 0.107161
Si Si8 0.056901 0.856955 0.760554
O O1 0.919414 0.398547 0.679866
O O2 0.945695 0.487462 0.498492
O O3 0.892606 0.170503 0.551259
O O4 0.001698 0.216602 0.556786
O O5 0.218499 0.580023 0.856765
O O6 0.204142 0.802719 0.717277
O O7 0.123132 0.749225 0.913939
O O8 0.204333 0.959334 0.876993
O O9 0.500000 0.061408 0.250000
O O10 0.614278 0.176422 0.141695
O O11 0.580485 0.823152 0.190348
O O12 0.694642 0.442148 0.096753
O O13 0.790019 0.714516 0.054799
O O14 0.037637 0.239288 0.372543
O O15 0.322233 0.716974 0.726451
O O16 0.399589 0.520380 0.756278
O O17 0.000000 0.932376 0.750000
#
# Coordination Sequence:
#
# PCOD9258222 Si02
#       8
#     8   8   8   8   8   8   8   8
#     4   9  19  32  52  75 109 137 164 212 262 310
#     4  11  19  29  48  69 104 137 165 211 260 307
#     4   9  19  34  51  73 106 136 173 208 253 313
#     4  11  19  29  46  74 102 131 169 211 263 297
#     4  10  18  33  51  76 109 135 167 213 263 306
#     4  10  19  29  49  71 101 135 162 216 253 302
#     4  10  19  30  46  72 103 135 163 207 254 315
#     4  10  19  32  50  72 105 136 172 207 253 310
#
# _framework density 27.327286000000001
#
# number of rings (size 3 to 8) (size 9 to 14) (size 15 to 20)
#    0.000    2.000    6.250    0.375    0.000    1.500 
#    0.000    0.000    0.000    0.000    0.000    1.750 
#    3.750    0.000    0.000    0.000    0.000    0.000 
#
# Total GULP energy -178246.076872 kJ/mol
# GULP energy per Si atom -5570.189902 kJ/mol
# Density = 2.726509 g / cm^3
# Si number density = 27.327286 Si / 1000 Ang^3
#
#
#
# Elastic Constant Matrix: (Units=GPa)
#
#
# Indices 1 2 3 4 5 6 
#
# 1 95.9399 28.1179 13.5924 0.0000 -27.2268 0.0000
# 2 28.1179 113.7412 -11.7245 0.0000 -14.2759 0.0000
# 3 13.5924 -11.7245 62.5585 0.0000 -10.3605 0.0000
# 4 0.0000 0.0000 0.0000 26.0324 0.0000 -16.3416
# 5 -27.2268 -14.2759 -10.3605 0.0000 46.5563 0.0000
# 6 0.0000 0.0000 0.0000 -16.3416 0.0000 39.1633
#
#
#
# Elastic Compliance Matrix: (Units=1/GPa)
#
#
# Indices 1 2 3 4 5 6 
#
# 1 0.013396 -0.002742 -0.002353 0.000000 0.006470 0.000000
# 2 -0.002742 0.010024 0.002822 0.000000 0.002098 0.000000
# 3 -0.002353 0.002822 0.017589 0.000000 0.003403 0.000000
# 4 0.000000 0.000000 0.000000 0.052046 0.000000 0.021717
# 5 0.006470 0.002098 0.003403 0.000000 0.026664 0.000000
# 6 0.000000 0.000000 0.000000 0.021717 0.000000 0.034596
#
#
# Mechanical properties :
#
#
# Convention : Reuss Voigt Hill
#
# Bulk Modulus (GPa) = 27.42553 36.91235 32.16894
# Shear Modulus (GPa) = 29.23697 38.50067 33.86882
#
# Velocity S-wave (km/s) = 3.27445 3.75757 3.52430
# Velocity P-wave (km/s) = 4.93496 5.68881 5.32524
#
# Compressibility (1/GPa) = 0.03646237
#
# Stress axis : x y z
#
# Youngs Moduli (GPa) = 74.64728 99.76049 56.85424
#
# Poissons Ratio (x) = 0.27356 0.13379
# Poissons Ratio (y) = 0.20470 -0.16044
# Poissons Ratio (z) = 0.17566 -0.28152
#
# Static dielectric constant tensor:
#      x y z
#    x 2.171200 0.000000 -0.025620 
#    y 0.000000 2.247600 0.000000 
#    z -0.025620 0.000000 2.470280 
# 
# From -- ./inp_files/279375.got.cif
#   From: 2010.05.17/outbox.cif.g08.bks.cpg/sg15_140_cif.got.tgz:279375.got - 2010.06.03 18:47:42.
