data_PCOD9258260
_publ_section_title
;
Structure prediction by ZEFSAII (Michael W. Deem and Ramdas Pophale) SiO2 
 PCOD9258260
Probable space group: C 2/C
;
_chemical_formula_sum "Si O2"
_cell_formula_units_Z 48
_cell_length_a 18.123579
_cell_length_b 25.411308
_cell_length_c 17.059578
_cell_angle_alpha 90.000000
_cell_angle_beta 163.571532
_cell_angle_gamma 90.000000
_cell_volume 2222.012097
_symmetry_space_group_name_H-M "C 2/C"
_symmetry_group_IT_number 15
_symmetry_cell_setting 'monoclinic'
loop_
_space_group_symop_operation_xyz
x,y,z
-x,y,1/2-z
-x,-y,-z
x,-y,1/2+z
1/2+x,1/2+y,z
1/2-x,1/2+y,1/2-z
1/2-x,1/2-y,-z
1/2+x,1/2-y,1/2+z
loop_
_atom_site_type_symbol
_atom_site_label
_atom_site_fract_x
_atom_site_fract_y
_atom_site_fract_z
Si Si1 0.045546 0.772928 0.173145
Si Si2 0.232338 0.440231 0.430332
Si Si3 0.282720 0.688299 0.807990
Si Si4 0.769307 0.318227 0.072360
Si Si5 0.740153 0.485158 0.689844
Si Si6 0.740113 0.637929 0.196900
O O1 0.839853 0.733516 0.003255
O O2 0.888609 0.827678 0.005257
O O3 0.128399 0.767415 0.164404
O O4 0.173013 0.379607 0.347081
O O5 0.264359 0.479316 0.391505
O O6 0.000000 0.458025 0.250000
O O7 0.500000 0.438847 0.750000
O O8 0.244942 0.708410 0.857184
O O9 0.026682 0.658299 0.513890
O O10 0.533218 0.648986 0.056763
O O11 0.000000 0.300162 0.250000
O O12 0.500000 0.316389 0.750000
O O13 0.500000 0.500000 0.500000
O O14 0.742502 0.422822 0.677728
O O15 0.000000 0.500000 0.000000
#
# Coordination Sequence:
#
# PCOD9258260 Si02
#       6
#     8   8   8   8   8   8
#     4  10  18  33  53  73  98 129 164 215 280 332
#     4  10  21  36  51  74 110 153 187 219 265 325
#     4  10  19  32  51  72 100 123 173 214 275 308
#     4  10  19  30  47  66  92 132 180 213 245 304
#     4  12  23  35  56  83 118 148 186 233 272 319
#     4  10  20  32  52  77 101 131 169 210 269 324
#
# _framework density 21.602042000000001
#
# number of rings (size 3 to 8) (size 9 to 14) (size 15 to 20)
#    1.000    0.667    1.667    5.000    0.000    2.667 
#    0.000    0.000    0.000    3.000    0.000    0.000 
#    0.000    4.000    0.000    0.000    0.000    0.000 
#
# Total GULP energy -133885.012774 kJ/mol
# GULP energy per Si atom -5578.542199 kJ/mol
# Density = 2.155288 g / cm^3
# Si number density = 21.602042 Si / 1000 Ang^3
#
#
#
# Elastic Constant Matrix: (Units=GPa)
#
#
# Indices 1 2 3 4 5 6 
#
# 1 83.4553 21.5606 30.1237 0.0119 11.8471 0.0020
# 2 21.5606 117.9847 32.8625 0.0136 5.2946 0.0027
# 3 30.1237 32.8625 151.2728 0.0772 36.7818 0.0080
# 4 0.0119 0.0136 0.0772 -54.7118 0.0200 4.1880
# 5 11.8471 5.2946 36.7818 0.0200 33.9947 0.0014
# 6 0.0020 0.0027 0.0080 4.1880 0.0014 19.8017
#
#
#
# Elastic Compliance Matrix: (Units=1/GPa)
#
#
# Indices 1 2 3 4 5 6 
#
# 1 0.013429 -0.001883 -0.001626 -0.000001 -0.002627 0.000000
# 2 -0.001883 0.009309 -0.001974 0.000000 0.001342 0.000000
# 3 -0.001626 -0.001974 0.009703 0.000009 -0.009625 -0.000005
# 4 -0.000001 0.000000 0.000009 -0.017986 0.000001 0.003804
# 5 -0.002627 0.001342 -0.009625 0.000001 0.040537 0.000001
# 6 0.000000 0.000000 -0.000005 0.003804 0.000001 0.049696
#
#
# Mechanical properties :
#
#
# Convention : Reuss Voigt Hill
#
# Bulk Modulus (GPa) = 46.56461 57.97848 52.27155
# Shear Modulus (GPa) = 40.71234 17.69465 29.20350
#
# Velocity S-wave (km/s) = 4.34597 2.86513 3.68079
# Velocity P-wave (km/s) = 6.84001 6.15166 6.50494
#
# Compressibility (1/GPa) = 0.02147554
#
# Stress axis : x y z
#
# Youngs Moduli (GPa) = 74.46609 107.41949 103.05628
#
# Poissons Ratio (x) = 0.20229 0.16760
# Poissons Ratio (y) = 0.14023 0.20339
# Poissons Ratio (z) = 0.12111 0.21200
#
# Static dielectric constant tensor:
#      x y z
#    x 1.776290 -0.000010 -0.013870 
#    y -0.000010 1.831820 0.000000 
#    z -0.013870 0.000000 1.840600 
# 
# From -- ./inp_files/157703.got.cif
#   From: 2010.05.17/outbox.cif.g08.bks.cpg/sg15_79_cif.got.tgz:157703.got - 2010.06.03 18:47:42.
