data_PCOD9258607
_publ_section_title
;
Structure prediction by ZEFSAII (Michael W. Deem and Ramdas Pophale) SiO2 
 PCOD9258607
Probable space group: C 2/C
;
_chemical_formula_sum "Si O2"
_cell_formula_units_Z 36
_cell_length_a 24.380976
_cell_length_b 14.316132
_cell_length_c 8.813395
_cell_angle_alpha 90.000000
_cell_angle_beta 148.154185
_cell_angle_gamma 90.000000
_cell_volume 1623.131826
_symmetry_space_group_name_H-M "C 2/C"
_symmetry_group_IT_number 15
_symmetry_cell_setting 'monoclinic'
loop_
_space_group_symop_operation_xyz
x,y,z
-x,y,1/2-z
-x,-y,-z
x,-y,1/2+z
1/2+x,1/2+y,z
1/2-x,1/2+y,1/2-z
1/2-x,1/2-y,-z
1/2+x,1/2-y,1/2+z
loop_
_atom_site_type_symbol
_atom_site_label
_atom_site_fract_x
_atom_site_fract_y
_atom_site_fract_z
Si Si1 0.340512 0.577412 0.315329
Si Si2 0.000000 0.539323 0.750000
Si Si3 0.000000 0.931286 0.750000
Si Si4 0.910513 0.621302 0.252631
Si Si5 0.710705 0.407227 0.126035
Si Si6 0.000000 0.765202 0.250000
O O1 0.431613 0.501815 0.484229
O O2 0.288192 0.516924 0.323751
O O3 0.399842 0.669007 0.504984
O O4 0.268608 0.598779 0.003351
O O5 0.062429 0.470915 0.783589
O O6 0.928903 0.600161 0.470983
O O7 0.909081 0.877150 0.623415
O O8 0.986182 0.700117 0.363948
O O9 0.792806 0.643324 0.925915
#
# Coordination Sequence:
#
# PCOD9258607 Si02
#       6
#     8   4   4   8   8   4
#     4   9  19  35  58  85 115 149 184 241 275 334
#     4   9  20  39  57  77 116 158 196 225 278 351
#     4   7  18  29  55  84 107 140 184 237 258 327
#     4  10  20  37  60  85 111 154 191 237 280 344
#     4  10  18  33  61  85 107 150 199 221 277 346
#     4  10  22  36  56  83 125 146 182 240 300 310
#
# _framework density 22.179345000000001
#
# number of rings (size 3 to 8) (size 9 to 14) (size 15 to 20)
#    1.333    1.333    0.000    2.000    0.000    0.889 
#    0.000    3.333    0.000    8.000    0.000    0.000 
#    0.000    0.000    0.000    0.000    0.000    0.000 
#
# Total GULP energy -100254.328613 kJ/mol
# GULP energy per Si atom -5569.684923 kJ/mol
# Density = 2.212886 g / cm^3
# Si number density = 22.179345 Si / 1000 Ang^3
#
#
#
# Elastic Constant Matrix: (Units=GPa)
#
#
# Indices 1 2 3 4 5 6 
#
# 1 35.7479 14.9117 18.2618 0.0000 -14.1995 0.0000
# 2 14.9117 50.6370 9.1295 0.0000 -5.3212 0.0000
# 3 18.2618 9.1295 101.1483 0.0000 -20.5501 0.0000
# 4 0.0000 0.0000 0.0000 28.5514 0.0000 -6.2610
# 5 -14.1995 -5.3212 -20.5501 0.0000 42.3497 0.0000
# 6 0.0000 0.0000 0.0000 -6.2610 0.0000 29.1051
#
#
#
# Elastic Compliance Matrix: (Units=1/GPa)
#
#
# Indices 1 2 3 4 5 6 
#
# 1 0.037726 -0.009383 -0.004031 0.000000 0.009514 0.000000
# 2 -0.009383 0.022536 -0.000448 0.000000 -0.000532 0.000000
# 3 -0.004031 -0.000448 0.011503 0.000000 0.004174 0.000000
# 4 0.000000 0.000000 0.000000 0.036758 0.000000 0.007907
# 5 0.009514 -0.000532 0.004174 0.000000 0.028761 0.000000
# 6 0.000000 0.000000 0.000000 0.007907 0.000000 0.036059
#
#
# Mechanical properties :
#
#
# Convention : Reuss Voigt Hill
#
# Bulk Modulus (GPa) = 22.70652 30.23770 26.47211
# Shear Modulus (GPa) = 23.17500 29.68326 26.42913
#
# Velocity S-wave (km/s) = 3.23598 3.66229 3.45572
# Velocity P-wave (km/s) = 4.92159 5.61658 5.28053
#
# Compressibility (1/GPa) = 0.04404022
#
# Stress axis : x y z
#
# Youngs Moduli (GPa) = 26.50678 44.37255 86.93592
#
# Poissons Ratio (x) = 0.41635 0.35047
# Poissons Ratio (y) = 0.24872 0.03896
# Poissons Ratio (z) = 0.10686 0.01988
#
# Static dielectric constant tensor:
#      x y z
#    x 1.858160 0.000000 0.035660 
#    y 0.000000 1.806550 0.000000 
#    z 0.035660 0.000000 1.875580 
# 
# From -- ./inp_files/37681.got.cif
#   From: 2010.05.17/outbox.cif.g08.bks.cpg/sg15_19_cif.got.tgz:37681.got - 2010.06.03 18:47:42.
