data_PCOD9258075
_publ_section_title
;
Structure prediction by ZEFSAII (Michael W. Deem and Ramdas Pophale) SiO2 
 PCOD9258075
Probable space group: C 2/C
;
_chemical_formula_sum "Si O2"
_cell_formula_units_Z 64
_cell_length_a 24.215766
_cell_length_b 19.760629
_cell_length_c 17.760514
_cell_angle_alpha 90.000000
_cell_angle_beta 21.708756
_cell_angle_gamma 90.000000
_cell_volume 3143.587996
_symmetry_space_group_name_H-M "C 2/C"
_symmetry_group_IT_number 15
_symmetry_cell_setting 'monoclinic'
loop_
_space_group_symop_operation_xyz
x,y,z
-x,y,1/2-z
-x,-y,-z
x,-y,1/2+z
1/2+x,1/2+y,z
1/2-x,1/2+y,1/2-z
1/2-x,1/2-y,-z
1/2+x,1/2-y,1/2+z
loop_
_atom_site_type_symbol
_atom_site_label
_atom_site_fract_x
_atom_site_fract_y
_atom_site_fract_z
Si Si1 0.848366 0.186133 0.620074
Si Si2 0.187206 0.871505 0.172045
Si Si3 0.126783 0.643336 0.212966
Si Si4 0.469776 0.939521 0.097029
Si Si5 0.405604 0.021793 0.441103
Si Si6 0.592563 0.412253 0.055061
Si Si7 0.038536 0.711073 0.957871
Si Si8 0.126077 0.062268 0.025984
O O1 0.795230 0.164430 0.770675
O O2 0.710451 0.223410 0.756459
O O3 0.882618 0.121699 0.524485
O O4 0.980391 0.236902 0.470519
O O5 0.014695 0.872782 0.365857
O O6 0.289553 0.845065 0.972977
O O7 0.250680 0.947058 0.109024
O O8 0.002925 0.584748 0.353627
O O9 0.049840 0.707389 0.350337
O O10 0.251503 0.618237 0.114745
O O11 0.482127 0.865443 0.046470
O O12 0.295786 0.942011 0.343742
O O13 0.588514 0.959061 0.010333
O O14 0.500000 0.000000 0.000000
O O15 0.500000 0.000518 0.250000
O O16 0.500000 0.416029 0.250000
O O17 0.608530 0.489419 0.008839
O O18 0.000000 0.070525 0.250000
#
# Coordination Sequence:
#
# PCOD9258075 Si02
#       8
#     8   8   8   8   8   8   8   8
#     4  11  25  43  56  85 116 163 204 253 297 368
#     4  10  21  35  58  91 130 151 194 250 305 356
#     4  10  18  36  61  87 119 163 192 241 299 377
#     4  11  19  39  68  91 115 163 203 253 312 369
#     4  10  18  32  58  93 119 146 193 248 303 357
#     4   9  18  33  59  92 119 152 194 241 300 365
#     4  11  24  41  61  82 121 158 211 247 304 364
#     4  10  21  40  65  86 123 164 201 251 319 364
#
# _framework density 20.358900999999999
#
# number of rings (size 3 to 8) (size 9 to 14) (size 15 to 20)
#    0.000    1.750    3.750    0.750    3.500    1.000 
#    2.250    3.125    0.000    0.000    0.000    0.000 
#    0.000    0.000    0.000    0.000    0.000    0.000 
#
# Total GULP energy -178480.481081 kJ/mol
# GULP energy per Si atom -5577.515034 kJ/mol
# Density = 2.031256 g / cm^3
# Si number density = 20.358901 Si / 1000 Ang^3
#
#
#
# Elastic Constant Matrix: (Units=GPa)
#
#
# Indices 1 2 3 4 5 6 
#
# 1 83.9881 20.0390 16.2617 0.0035 -13.6366 -0.0043
# 2 20.0390 35.9620 9.1085 0.0020 -4.1565 -0.0037
# 3 16.2617 9.1085 78.1923 0.0026 -11.6658 -0.0030
# 4 0.0035 0.0020 0.0026 15.9227 -0.0014 -11.2341
# 5 -13.6366 -4.1565 -11.6658 -0.0014 25.3647 0.0024
# 6 -0.0043 -0.0037 -0.0030 -11.2341 0.0024 29.9547
#
#
#
# Elastic Compliance Matrix: (Units=1/GPa)
#
#
# Indices 1 2 3 4 5 6 
#
# 1 0.014902 -0.007249 -0.001328 -0.000002 0.006213 0.000000
# 2 -0.007249 0.032454 -0.002213 0.000000 0.000403 0.000003
# 3 -0.001328 -0.002213 0.014132 -0.000001 0.005423 0.000000
# 4 -0.000002 0.000000 -0.000001 0.085401 0.000000 0.032029
# 5 0.006213 0.000403 0.005423 0.000000 0.045325 -0.000002
# 6 0.000000 0.000003 0.000000 0.032029 -0.000002 0.045396
#
#
# Mechanical properties :
#
#
# Convention : Reuss Voigt Hill
#
# Bulk Modulus (GPa) = 25.05764 32.10674 28.58219
# Shear Modulus (GPa) = 18.34915 24.43063 21.38989
#
# Velocity S-wave (km/s) = 3.00540 3.46786 3.24488
# Velocity P-wave (km/s) = 4.93740 5.64263 5.30175
#
# Compressibility (1/GPa) = 0.03990799
#
# Stress axis : x y z
#
# Youngs Moduli (GPa) = 67.10537 30.81311 70.76154
#
# Poissons Ratio (x) = 0.22338 0.09395
# Poissons Ratio (y) = 0.48647 0.15657
# Poissons Ratio (z) = 0.08910 0.06818
#
# Static dielectric constant tensor:
#      x y z
#    x 1.744070 0.000000 -0.008190 
#    y 0.000000 1.741770 0.000000 
#    z -0.008190 0.000000 1.785150 
# 
# From -- ./inp_files/220243.got.cif
#   From: 2010.05.17/outbox.cif.g08.bks.cpg/sg15_111_cif.got.tgz:220243.got - 2010.06.03 18:47:42.
