data_PCOD9258402
_publ_section_title
;
Structure prediction by ZEFSAII (Michael W. Deem and Ramdas Pophale) SiO2 
 PCOD9258402
Probable space group: C 2/C
;
_chemical_formula_sum "Si O2"
_cell_formula_units_Z 64
_cell_length_a 24.756742
_cell_length_b 12.788109
_cell_length_c 22.172593
_cell_angle_alpha 90.000000
_cell_angle_beta 159.696275
_cell_angle_gamma 90.000000
_cell_volume 2435.799616
_symmetry_space_group_name_H-M "C 2/C"
_symmetry_group_IT_number 15
_symmetry_cell_setting 'monoclinic'
loop_
_space_group_symop_operation_xyz
x,y,z
-x,y,1/2-z
-x,-y,-z
x,-y,1/2+z
1/2+x,1/2+y,z
1/2-x,1/2+y,1/2-z
1/2-x,1/2-y,-z
1/2+x,1/2-y,1/2+z
loop_
_atom_site_type_symbol
_atom_site_label
_atom_site_fract_x
_atom_site_fract_y
_atom_site_fract_z
Si Si1 0.538647 0.901367 0.912111
Si Si2 0.536372 0.343761 0.853298
Si Si3 0.804670 0.016441 0.641429
Si Si4 0.283115 0.979170 0.575611
Si Si5 0.511421 0.874933 0.510000
Si Si6 0.922025 0.184043 0.580982
Si Si7 0.847342 0.132499 0.895965
Si Si8 0.645348 0.379687 0.622263
O O1 0.422606 0.989951 0.767885
O O2 0.475245 0.850792 0.905547
O O3 0.548782 0.804792 0.876581
O O4 0.708320 0.951646 0.098842
O O5 0.500000 0.286013 0.750000
O O6 0.385905 0.405318 0.721372
O O7 0.654932 0.433229 0.954537
O O8 0.610614 0.312513 0.995415
O O9 0.683310 0.016147 0.459338
O O10 0.929202 0.107837 0.760832
O O11 0.203730 0.868608 0.507654
O O12 0.336376 0.844136 0.306544
O O13 0.687886 0.854881 0.671136
O O14 0.500000 0.000000 0.500000
O O15 0.859348 0.175704 0.447403
O O16 0.858932 0.003306 0.903645
O O17 0.990742 0.153955 0.998772
#
# Coordination Sequence:
#
# PCOD9258402 Si02
#       8
#     8   8   8   8   8   8   8   8
#     4  12  22  31  47  69  97 135 175 215 252 294
#     4   9  18  35  53  70  99 130 164 214 256 293
#     4  10  21  30  48  66  92 139 180 210 248 288
#     4  10  19  34  44  65 100 134 176 217 244 281
#     4  10  21  34  51  72  96 127 171 216 256 303
#     4  11  20  34  46  64 101 134 171 215 255 291
#     4  10  18  33  56  72  93 128 173 199 257 319
#     4  10  19  33  51  73  98 130 165 216 252 298
#
# _framework density 26.274739
#
# number of rings (size 3 to 8) (size 9 to 14) (size 15 to 20)
#    0.000    1.750    3.750    3.750    3.500    3.000 
#    0.000    0.000    0.000    0.000    0.000    0.000 
#    0.000    1.000    0.000    0.250    0.000    0.000 
#
# Total GULP energy -178492.471206 kJ/mol
# GULP energy per Si atom -5577.889725 kJ/mol
# Density = 2.621494 g / cm^3
# Si number density = 26.274739 Si / 1000 Ang^3
#
#
#
# Elastic Constant Matrix: (Units=GPa)
#
#
# Indices 1 2 3 4 5 6 
#
# 1 98.8200 6.6163 53.4364 0.0022 -5.3689 0.0016
# 2 6.6163 17.7254 11.9195 0.0058 4.5845 0.0043
# 3 53.4364 11.9195 170.4332 0.0040 -1.4868 0.0027
# 4 0.0022 0.0058 0.0040 19.3843 0.0026 0.4188
# 5 -5.3689 4.5845 -1.4868 0.0026 45.6486 0.0016
# 6 0.0016 0.0043 0.0027 0.4188 0.0016 18.9857
#
#
#
# Elastic Compliance Matrix: (Units=1/GPa)
#
#
# Indices 1 2 3 4 5 6 
#
# 1 0.012370 -0.002550 -0.003686 0.000000 0.001591 0.000000
# 2 -0.002550 0.061464 -0.003557 -0.000016 -0.006589 -0.000012
# 3 -0.003686 -0.003557 0.007273 0.000000 0.000161 0.000000
# 4 0.000000 -0.000016 0.000000 0.051613 -0.000001 -0.001138
# 5 0.001591 -0.006589 0.000161 -0.000001 0.022761 -0.000001
# 6 0.000000 -0.000012 0.000000 -0.001138 -0.000001 0.052696
#
#
# Mechanical properties :
#
#
# Convention : Reuss Voigt Hill
#
# Bulk Modulus (GPa) = 16.25451 47.88034 32.06743
# Shear Modulus (GPa) = 20.13947 31.13747 25.63847
#
# Velocity S-wave (km/s) = 2.77157 3.44622 3.12714
# Velocity P-wave (km/s) = 4.05486 5.83933 5.02691
#
# Compressibility (1/GPa) = 0.06152139
#
# Stress axis : x y z
#
# Youngs Moduli (GPa) = 80.84184 16.26981 137.48991
#
# Poissons Ratio (x) = 0.04149 0.50681
# Poissons Ratio (y) = 0.20614 0.48899
# Poissons Ratio (z) = 0.29799 0.05786
#
# Static dielectric constant tensor:
#      x y z
#    x 2.288260 0.000000 -0.038140 
#    y 0.000000 2.104780 0.000000 
#    z -0.038140 0.000000 2.134430 
# 
# From -- ./inp_files/283727.got.cif
#   From: 2010.05.17/outbox.cif.g08.bks.cpg/sg15_142_cif.got.tgz:283727.got - 2010.06.03 18:47:42.
