data_PCOD9258587
_publ_section_title
;
Structure prediction by ZEFSAII (Michael W. Deem and Ramdas Pophale) SiO2 
 PCOD9258587
Probable space group: C 2/C
;
_chemical_formula_sum "Si O2"
_cell_formula_units_Z 64
_cell_length_a 10.739077
_cell_length_b 20.459370
_cell_length_c 25.561448
_cell_angle_alpha 90.000000
_cell_angle_beta 146.466619
_cell_angle_gamma 90.000000
_cell_volume 3102.531482
_symmetry_space_group_name_H-M "C 2/C"
_symmetry_group_IT_number 15
_symmetry_cell_setting 'monoclinic'
loop_
_space_group_symop_operation_xyz
x,y,z
-x,y,1/2-z
-x,-y,-z
x,-y,1/2+z
1/2+x,1/2+y,z
1/2-x,1/2+y,1/2-z
1/2-x,1/2-y,-z
1/2+x,1/2-y,1/2+z
loop_
_atom_site_type_symbol
_atom_site_label
_atom_site_fract_x
_atom_site_fract_y
_atom_site_fract_z
Si Si1 0.219251 0.033980 0.757991
Si Si2 0.324254 0.210588 0.896954
Si Si3 0.801113 0.141096 0.065207
Si Si4 0.746069 0.011953 0.108537
Si Si5 0.868425 0.820544 0.283845
Si Si6 0.053216 0.595041 0.193342
Si Si7 0.838683 0.800443 0.742542
Si Si8 0.358226 0.361960 0.897940
O O1 0.251095 0.109127 0.754492
O O2 0.250378 0.013647 0.830285
O O3 0.367177 0.979569 0.781355
O O4 0.953456 0.024940 0.654205
O O5 0.215506 0.205538 0.801639
O O6 0.368265 0.287319 0.920834
O O7 0.139823 0.180785 0.872291
O O8 0.553974 0.170202 0.976512
O O9 0.805781 0.085956 0.112077
O O10 0.980876 0.195082 0.146694
O O11 0.902354 0.117826 0.044404
O O12 0.500000 0.000000 0.000000
O O13 0.793263 0.767447 0.299694
O O14 0.161085 0.639318 0.184808
O O15 0.189040 0.627043 0.289492
O O16 0.785447 0.600923 0.107572
O O17 0.000000 0.804215 0.750000
#
# Coordination Sequence:
#
# PCOD9258587 Si02
#       8
#     8   8   8   8   8   8   8   8
#     4  11  22  37  61  85 118 164 196 243 310 358
#     4  11  19  37  61  91 118 144 199 252 298 348
#     4  11  21  34  63  92 115 151 200 252 297 356
#     4  11  21  38  58  91 121 151 201 251 299 357
#     4  11  21  37  58  86 119 155 195 248 301 350
#     4  10  18  37  59  85 114 156 204 234 295 366
#     4  11  21  38  57  81 117 154 196 243 296 358
#     4  10  18  33  60  88 113 151 198 248 287 359
#
# _framework density 20.628316000000002
#
# number of rings (size 3 to 8) (size 9 to 14) (size 15 to 20)
#    0.000    1.250    6.250    4.875    0.000    0.000 
#    2.250    0.625    2.750    3.000    0.000    0.000 
#    0.000    0.000    0.000    0.000    0.000    0.000 
#
# Total GULP energy -178199.726092 kJ/mol
# GULP energy per Si atom -5568.741440 kJ/mol
# Density = 2.058136 g / cm^3
# Si number density = 20.628316 Si / 1000 Ang^3
#
#
#
# Elastic Constant Matrix: (Units=GPa)
#
#
# Indices 1 2 3 4 5 6 
#
# 1 113.2551 45.8855 18.0799 -0.0004 38.9082 0.0005
# 2 45.8855 127.6661 3.5313 -0.0004 20.2480 0.0016
# 3 18.0799 3.5313 55.3010 -0.0038 29.1138 0.0081
# 4 -0.0004 -0.0004 -0.0038 24.2145 -0.0003 -8.0798
# 5 38.9082 20.2480 29.1138 -0.0003 29.0671 0.0011
# 6 0.0005 0.0016 0.0081 -8.0798 0.0011 63.0582
#
#
#
# Elastic Compliance Matrix: (Units=1/GPa)
#
#
# Indices 1 2 3 4 5 6 
#
# 1 0.022627 -0.001188 0.017322 0.000002 -0.046810 -0.000001
# 2 -0.001188 0.009787 0.005322 0.000001 -0.010559 -0.000001
# 3 0.017322 0.005322 0.055508 0.000006 -0.082491 -0.000005
# 4 0.000002 0.000001 0.000006 0.043142 -0.000009 0.005528
# 5 -0.046810 -0.010559 -0.082491 -0.000009 0.187040 0.000007
# 6 -0.000001 -0.000001 -0.000005 0.005528 0.000007 0.016567
#
#
# Mechanical properties :
#
#
# Convention : Reuss Voigt Hill
#
# Bulk Modulus (GPa) = 7.64323 47.91286 27.77805
# Shear Modulus (GPa) = 14.90893 38.51633 26.71263
#
# Velocity S-wave (km/s) = 2.69130 4.32575 3.60244
# Velocity P-wave (km/s) = 3.65660 6.94454 5.54966
#
# Compressibility (1/GPa) = 0.13083469
#
# Stress axis : x y z
#
# Youngs Moduli (GPa) = 44.19545 102.17475 18.01539
#
# Poissons Ratio (x) = 0.12133 -0.31206
# Poissons Ratio (y) = 0.05248 -0.09588
# Poissons Ratio (z) = -0.76555 -0.54377
#
# Static dielectric constant tensor:
#      x y z
#    x 1.854070 0.000000 0.013910 
#    y 0.000000 1.786030 0.000000 
#    z 0.013910 0.000000 1.741580 
# 
# From -- ./inp_files/311646.got.cif
#   From: 2010.05.17/outbox.cif.g08.bks.cpg/sg15_156_cif.got.tgz:311646.got - 2010.06.03 18:47:42.
