data_PCOD9258343
_publ_section_title
;
Structure prediction by ZEFSAII (Michael W. Deem and Ramdas Pophale) SiO2 
 PCOD9258343
Probable space group: C 2/C
;
_chemical_formula_sum "Si O2"
_cell_formula_units_Z 60
_cell_length_a 25.429894
_cell_length_b 25.707383
_cell_length_c 16.448815
_cell_angle_alpha 90.000000
_cell_angle_beta 163.315939
_cell_angle_gamma 90.000000
_cell_volume 3087.174880
_symmetry_space_group_name_H-M "C 2/C"
_symmetry_group_IT_number 15
_symmetry_cell_setting 'monoclinic'
loop_
_space_group_symop_operation_xyz
x,y,z
-x,y,1/2-z
-x,-y,-z
x,-y,1/2+z
1/2+x,1/2+y,z
1/2-x,1/2+y,1/2-z
1/2-x,1/2-y,-z
1/2+x,1/2-y,1/2+z
loop_
_atom_site_type_symbol
_atom_site_label
_atom_site_fract_x
_atom_site_fract_y
_atom_site_fract_z
Si Si1 0.898376 0.409523 0.522838
Si Si2 0.061592 0.838150 0.021223
Si Si3 0.000000 0.869745 0.750000
Si Si4 0.609679 0.351211 0.572696
Si Si5 0.206270 0.653609 0.402130
Si Si6 0.706258 0.737445 0.088896
Si Si7 0.687738 0.045710 0.774563
Si Si8 0.294501 0.933507 0.738552
O O1 0.695774 0.387481 0.235792
O O2 0.886632 0.445595 0.427179
O O3 0.000000 0.434319 0.750000
O O4 0.031133 0.361338 0.695414
O O5 0.181438 0.787624 0.219597
O O6 0.012034 0.838808 0.852469
O O7 0.893539 0.842778 0.835369
O O8 0.827037 0.908242 0.498263
O O9 0.694807 0.303782 0.646396
O O10 0.697258 0.405477 0.670657
O O11 0.395027 0.349157 0.230203
O O12 0.191725 0.708081 0.334327
O O13 0.223443 0.609804 0.358033
O O14 0.500000 0.747181 0.750000
O O15 0.510692 0.053921 0.569172
O O16 0.775504 0.988486 0.900911
#
# Coordination Sequence:
#
# PCOD9258343 Si02
#       8
#     8   8   4   8   8   8   8   8
#     4  10  18  33  54  83 116 146 186 244 291 345
#     4  11  22  37  56  79 119 156 198 242 283 344
#     4  10  24  42  56  80 114 164 204 230 280 352
#     4  10  20  34  57  91 116 144 196 248 298 347
#     4   9  18  32  56  87 119 143 183 243 309 348
#     4   9  20  33  57  88 115 147 187 244 310 350
#     4   9  20  37  62  81 114 156 192 227 296 342
#     4   9  18  37  59  87 113 151 186 240 294 349
#
# _framework density 19.435244000000001
#
# number of rings (size 3 to 8) (size 9 to 14) (size 15 to 20)
#    0.000    2.400    1.333    1.600    3.733    1.067 
#    0.000    8.000    0.000    0.000    0.000    0.000 
#    0.000    0.000    0.000    0.000    0.000    0.000 
#
# Total GULP energy -167249.954757 kJ/mol
# GULP energy per Si atom -5574.998492 kJ/mol
# Density = 1.939101 g / cm^3
# Si number density = 19.435244 Si / 1000 Ang^3
#
#
#
# Elastic Constant Matrix: (Units=GPa)
#
#
# Indices 1 2 3 4 5 6 
#
# 1 99.8733 33.9453 28.3407 0.0000 0.7679 0.0000
# 2 33.9453 92.8674 19.3623 0.0000 -8.4778 0.0000
# 3 28.3407 19.3623 48.7553 -0.0001 -11.4594 0.0000
# 4 0.0000 0.0000 -0.0001 15.3189 0.0000 8.2432
# 5 0.7679 -8.4778 -11.4594 0.0000 27.2379 0.0000
# 6 0.0000 0.0000 0.0000 8.2432 0.0000 13.4810
#
#
#
# Elastic Compliance Matrix: (Units=1/GPa)
#
#
# Indices 1 2 3 4 5 6 
#
# 1 0.013440 -0.003796 -0.007404 0.000000 -0.004675 0.000000
# 2 -0.003796 0.012899 -0.002161 0.000000 0.003213 0.000000
# 3 -0.007404 -0.002161 0.028369 0.000000 0.011471 0.000000
# 4 0.000000 0.000000 0.000000 0.097291 0.000000 -0.059490
# 5 -0.004675 0.003213 0.011471 0.000000 0.042671 0.000000
# 6 0.000000 0.000000 0.000000 -0.059490 0.000000 0.110554
#
#
# Mechanical properties :
#
#
# Convention : Reuss Voigt Hill
#
# Bulk Modulus (GPa) = 35.73163 44.97695 40.35429
# Shear Modulus (GPa) = 14.65098 21.86408 18.25753
#
# Velocity S-wave (km/s) = 2.74859 3.35770 3.06829
# Velocity P-wave (km/s) = 5.33834 6.18259 5.77591
#
# Compressibility (1/GPa) = 0.02798641
#
# Stress axis : x y z
#
# Youngs Moduli (GPa) = 74.40679 77.52327 35.25003
#
# Poissons Ratio (x) = 0.29425 0.26098
# Poissons Ratio (y) = 0.28242 0.07619
# Poissons Ratio (z) = 0.55089 0.16755
#
# Static dielectric constant tensor:
#      x y z
#    x 1.748870 0.000000 0.010020 
#    y 0.000000 1.688930 0.000000 
#    z 0.010020 0.000000 1.680560 
# 
# From -- ./inp_files/174942.got.cif
#   From: 2010.05.17/outbox.cif.g08.bks.cpg/sg15_88_cif.got.tgz:174942.got - 2010.06.03 18:47:42.
