data_PCOD9258037
_publ_section_title
;
Structure prediction by ZEFSAII (Michael W. Deem and Ramdas Pophale) SiO2 
 PCOD9258037
Probable space group: C 2/C
;
_chemical_formula_sum "Si O2"
_cell_formula_units_Z 40
_cell_length_a 9.721917
_cell_length_b 18.464926
_cell_length_c 11.278620
_cell_angle_alpha 90.000000
_cell_angle_beta 108.472893
_cell_angle_gamma 90.000000
_cell_volume 1920.351475
_symmetry_space_group_name_H-M "C 2/C"
_symmetry_group_IT_number 15
_symmetry_cell_setting 'monoclinic'
loop_
_space_group_symop_operation_xyz
x,y,z
-x,y,1/2-z
-x,-y,-z
x,-y,1/2+z
1/2+x,1/2+y,z
1/2-x,1/2+y,1/2-z
1/2-x,1/2-y,-z
1/2+x,1/2-y,1/2+z
loop_
_atom_site_type_symbol
_atom_site_label
_atom_site_fract_x
_atom_site_fract_y
_atom_site_fract_z
Si Si1 0.769251 0.281281 0.697959
Si Si2 0.348405 0.015098 0.023293
Si Si3 0.000000 0.167047 0.250000
Si Si4 0.084900 0.075757 0.504685
Si Si5 0.348912 0.355863 0.078658
Si Si6 0.000000 0.612638 0.250000
O O1 0.633998 0.283557 0.747840
O O2 0.716764 0.320111 0.560698
O O3 0.824487 0.203652 0.671899
O O4 0.895067 0.331380 0.789245
O O5 0.396229 0.060286 0.150315
O O6 0.242682 0.070465 0.923155
O O7 0.500000 0.000000 0.000000
O O8 0.252710 0.946504 0.037323
O O9 0.041035 0.115442 0.371104
O O10 0.014217 0.123716 0.590145
O O11 0.000000 0.000000 0.500000
#
# Coordination Sequence:
#
# PCOD9258037 Si02
#       6
#     8   8   4   8   8   4
#     4   9  17  33  54  75 104 141 187 226 272 336
#     4  10  19  33  54  79 111 142 179 231 278 328
#     4  10  18  32  58  84 110 152 192 232 284 334
#     4   9  18  33  55  83 115 148 188 231 280 342
#     4   8  17  34  53  74 103 143 182 227 276 327
#     4  10  20  34  52  76 108 148 180 220 284 330
#
# _framework density 20.829519999999999
#
# number of rings (size 3 to 8) (size 9 to 14) (size 15 to 20)
#    0.000    2.800    0.000    2.400    0.000    0.000 
#    0.000    9.000    0.000    9.600    0.000    0.000 
#    0.000    0.000    0.000    0.000    0.000    0.000 
#
# Total GULP energy -111430.810751 kJ/mol
# GULP energy per Si atom -5571.540538 kJ/mol
# Density = 2.078211 g / cm^3
# Si number density = 20.829520 Si / 1000 Ang^3
#
#
#
# Elastic Constant Matrix: (Units=GPa)
#
#
# Indices 1 2 3 4 5 6 
#
# 1 198.1718 72.3646 32.3472 0.0000 -22.5893 0.0000
# 2 72.3646 102.1391 38.6636 0.0000 -12.9603 0.0000
# 3 32.3472 38.6636 38.3019 0.0000 -3.9670 0.0000
# 4 0.0000 0.0000 0.0000 10.7334 0.0000 -5.3423
# 5 -22.5893 -12.9603 -3.9670 0.0000 30.0752 0.0000
# 6 0.0000 0.0000 0.0000 -5.3423 0.0000 44.2467
#
#
#
# Elastic Compliance Matrix: (Units=1/GPa)
#
#
# Indices 1 2 3 4 5 6 
#
# 1 0.007176 -0.004028 -0.001639 0.000000 0.003438 0.000000
# 2 -0.004028 0.018815 -0.015273 0.000000 0.003068 0.000000
# 3 -0.001639 -0.015273 0.042684 0.000000 -0.002182 0.000000
# 4 0.000000 0.000000 0.000000 0.099124 0.000000 0.011968
# 5 0.003438 0.003068 -0.002182 0.000000 0.036867 0.000000
# 6 0.000000 0.000000 0.000000 0.011968 0.000000 0.024046
#
#
# Mechanical properties :
#
#
# Convention : Reuss Voigt Hill
#
# Bulk Modulus (GPa) = 37.31969 69.48486 53.40228
# Shear Modulus (GPa) = 17.88758 30.02688 23.95723
#
# Velocity S-wave (km/s) = 2.93364 3.80090 3.39508
# Velocity P-wave (km/s) = 5.42500 7.25904 6.40798
#
# Compressibility (1/GPa) = 0.02679550
#
# Stress axis : x y z
#
# Youngs Moduli (GPa) = 139.34730 53.14879 23.42801
#
# Poissons Ratio (x) = 0.21407 0.03839
# Poissons Ratio (y) = 0.56126 0.35783
# Poissons Ratio (z) = 0.22835 0.81176
#
# Static dielectric constant tensor:
#      x y z
#    x 1.762410 0.000000 0.043030 
#    y 0.000000 1.822920 0.000000 
#    z 0.043030 0.000000 1.773250 
# 
# From -- ./inp_files/76974.got.cif
#   From: 2010.05.17/outbox.cif.g08.bks.cpg/sg15_39_cif.got.tgz:76974.got - 2010.06.03 18:47:42.
