data_PCOD9258192
_publ_section_title
;
Structure prediction by ZEFSAII (Michael W. Deem and Ramdas Pophale) SiO2 
 PCOD9258192
Probable space group: C 2/C
;
_chemical_formula_sum "Si O2"
_cell_formula_units_Z 56
_cell_length_a 19.721468
_cell_length_b 17.733147
_cell_length_c 14.091156
_cell_angle_alpha 90.000000
_cell_angle_beta 138.374269
_cell_angle_gamma 90.000000
_cell_volume 3273.490377
_symmetry_space_group_name_H-M "C 2/C"
_symmetry_group_IT_number 15
_symmetry_cell_setting 'monoclinic'
loop_
_space_group_symop_operation_xyz
x,y,z
-x,y,1/2-z
-x,-y,-z
x,-y,1/2+z
1/2+x,1/2+y,z
1/2-x,1/2+y,1/2-z
1/2-x,1/2-y,-z
1/2+x,1/2-y,1/2+z
loop_
_atom_site_type_symbol
_atom_site_label
_atom_site_fract_x
_atom_site_fract_y
_atom_site_fract_z
Si Si1 0.298949 0.145424 0.663543
Si Si2 0.036982 0.359271 0.688736
Si Si3 0.378620 0.698824 0.912706
Si Si4 0.598833 0.166781 0.916458
Si Si5 0.477680 0.972115 0.371759
Si Si6 0.085640 0.247082 0.072375
Si Si7 0.734302 0.226940 0.374228
O O1 0.186938 0.141195 0.592382
O O2 0.308996 0.160382 0.561863
O O3 0.371191 0.073129 0.755608
O O4 0.352105 0.214830 0.776497
O O5 0.154726 0.341286 0.792809
O O6 0.000000 0.325118 0.750000
O O7 0.023359 0.448010 0.680153
O O8 0.972134 0.317220 0.539678
O O9 0.322197 0.711131 0.752515
O O10 0.377159 0.775884 0.974146
O O11 0.498373 0.690126 0.016449
O O12 0.500000 0.192591 0.750000
O O13 0.561478 0.086566 0.919273
O O14 0.500000 0.000000 0.500000
O O15 0.161761 0.212828 0.074148
O O16 0.750000 0.250000 0.500000
#
# Coordination Sequence:
#
# PCOD9258192 Si02
#       7
#     8   8   8   8   8   8   8
#     4  10  19  32  50  74 106 135 171 209 263 315
#     4  11  19  30  51  73 103 136 166 215 266 306
#     4  10  19  31  51  72 101 138 172 219 259 305
#     4  10  18  33  50  75 106 136 169 213 264 316
#     4  11  19  32  51  75 109 137 165 212 267 319
#     4  10  18  33  48  73 101 136 174 215 259 309
#     4  10  20  32  48  73 106 135 177 214 264 319
#
# _framework density 17.107123000000001
#
# number of rings (size 3 to 8) (size 9 to 14) (size 15 to 20)
#    0.000    1.714    5.714    2.571    0.000    0.000 
#    0.000    0.000    0.000    0.857    0.000    0.000 
#    8.571    0.000    0.000    0.000    0.000    0.000 
#
# Total GULP energy -155897.792663 kJ/mol
# GULP energy per Si atom -5567.778309 kJ/mol
# Density = 1.706819 g / cm^3
# Si number density = 17.107123 Si / 1000 Ang^3
#
#
#
# Elastic Constant Matrix: (Units=GPa)
#
#
# Indices 1 2 3 4 5 6 
#
# 1 149.7796 20.5725 34.4684 0.0000 -0.0399 0.0000
# 2 20.5725 37.5413 12.5607 0.0000 -5.3957 0.0000
# 3 34.4684 12.5607 52.1040 0.0000 -6.6484 0.0000
# 4 0.0000 0.0000 0.0000 15.8669 0.0000 1.7278
# 5 -0.0399 -5.3957 -6.6484 0.0000 33.5355 0.0000
# 6 0.0000 0.0000 0.0000 1.7278 0.0000 26.1646
#
#
#
# Elastic Compliance Matrix: (Units=1/GPa)
#
#
# Indices 1 2 3 4 5 6 
#
# 1 0.008223 -0.003082 -0.004882 0.000000 -0.001454 0.000000
# 2 -0.003082 0.030503 -0.004811 0.000000 0.003950 0.000000
# 3 -0.004882 -0.004811 0.024092 0.000000 0.003996 0.000000
# 4 0.000000 0.000000 0.000000 0.063481 0.000000 -0.004192
# 5 -0.001454 0.003950 0.003996 0.000000 0.031245 0.000000
# 6 0.000000 0.000000 0.000000 -0.004192 0.000000 0.038496
#
#
# Mechanical properties :
#
#
# Convention : Reuss Voigt Hill
#
# Bulk Modulus (GPa) = 26.83214 41.62535 34.22874
# Shear Modulus (GPa) = 21.36631 26.56827 23.96729
#
# Velocity S-wave (km/s) = 3.53791 3.94515 3.74707
# Velocity P-wave (km/s) = 5.69280 6.71843 6.22677
#
# Compressibility (1/GPa) = 0.03726874
#
# Stress axis : x y z
#
# Youngs Moduli (GPa) = 121.61136 32.78318 41.50769
#
# Poissons Ratio (x) = 0.10102 0.20266
# Poissons Ratio (y) = 0.37475 0.19969
# Poissons Ratio (z) = 0.59375 0.15771
#
# Static dielectric constant tensor:
#      x y z
#    x 1.487020 0.000000 -0.091660 
#    y 0.000000 1.561870 0.000000 
#    z -0.091660 0.000000 1.632030 
# 
# From -- ./inp_files/168498.got.cif
#   From: 2010.05.17/outbox.cif.g08.bks.cpg/sg15_85_cif.got.tgz:168498.got - 2010.06.03 18:47:42.
