data_PCOD9258160
_publ_section_title
;
Structure prediction by ZEFSAII (Michael W. Deem and Ramdas Pophale) SiO2 
 PCOD9258160
Probable space group: C 2/C
;
_chemical_formula_sum "Si O2"
_cell_formula_units_Z 36
_cell_length_a 9.225981
_cell_length_b 13.434236
_cell_length_c 21.032616
_cell_angle_alpha 90.000000
_cell_angle_beta 30.158927
_cell_angle_gamma 90.000000
_cell_volume 1309.690485
_symmetry_space_group_name_H-M "C 2/C"
_symmetry_group_IT_number 15
_symmetry_cell_setting 'monoclinic'
loop_
_space_group_symop_operation_xyz
x,y,z
-x,y,1/2-z
-x,-y,-z
x,-y,1/2+z
1/2+x,1/2+y,z
1/2-x,1/2+y,1/2-z
1/2-x,1/2-y,-z
1/2+x,1/2-y,1/2+z
loop_
_atom_site_type_symbol
_atom_site_label
_atom_site_fract_x
_atom_site_fract_y
_atom_site_fract_z
Si Si1 0.792365 0.590920 0.519355
Si Si2 0.000000 0.075518 0.750000
Si Si3 0.591867 0.258490 0.878262
Si Si4 0.204760 0.557279 0.117074
Si Si5 0.301524 0.252826 0.164111
O O1 0.652022 0.528421 0.630023
O O2 0.910160 0.540539 0.410936
O O3 0.529583 0.660447 0.592867
O O4 0.042713 0.671116 0.439418
O O5 0.745847 0.152052 0.826647
O O6 0.701396 0.333270 0.891648
O O7 0.721284 0.297003 0.762149
O O8 0.250000 0.250000 0.000000
O O9 0.000000 0.517862 0.250000
O O10 0.500000 0.500000 0.000000
O O11 0.000000 0.287495 0.250000
#
# Coordination Sequence:
#
# PCOD9258160 Si02
#       5
#     8   4   8   8   8
#     4  10  20  37  58  92 129 159 210 262 320 384
#     4  10  20  36  66  96 130 156 204 282 328 376
#     4  11  20  36  64  97 128 163 220 269 333 383
#     4  12  25  44  65  93 136 180 219 270 335 407
#     4  10  18  32  62  93 126 160 203 267 327 374
#
# _framework density 27.487409
#
# number of rings (size 3 to 8) (size 9 to 14) (size 15 to 20)
#    0.000    1.333    3.333    5.333    0.000    4.444 
#    0.000    0.000    2.444    4.000    0.000    0.000 
#    0.000    0.000    0.000    0.000    0.000    0.000 
#
# Total GULP energy -100705.882925 kJ/mol
# GULP energy per Si atom -5594.771274 kJ/mol
# Density = 2.742485 g / cm^3
# Si number density = 27.487409 Si / 1000 Ang^3
#
#
#
# Elastic Constant Matrix: (Units=GPa)
#
#
# Indices 1 2 3 4 5 6 
#
# 1 94.6856 29.0437 57.7505 -0.0042 17.3895 0.0044
# 2 29.0437 76.8412 32.0697 0.0058 -0.3947 0.0001
# 3 57.7505 32.0697 215.0296 0.0279 31.6249 0.0016
# 4 -0.0042 0.0058 0.0279 18.4413 -0.0133 -15.1577
# 5 17.3895 -0.3947 31.6249 -0.0133 101.2860 -0.0029
# 6 0.0044 0.0001 0.0016 -15.1577 -0.0029 20.1310
#
#
#
# Elastic Compliance Matrix: (Units=1/GPa)
#
#
# Indices 1 2 3 4 5 6 
#
# 1 0.013837 -0.004029 -0.002897 0.000014 -0.001487 0.000007
# 2 -0.004029 0.015103 -0.001343 -0.000005 0.001170 -0.000003
# 3 -0.002897 -0.001343 0.005824 -0.000026 -0.001326 -0.000020
# 4 0.000014 -0.000005 -0.000026 0.142285 0.000028 0.107135
# 5 -0.001487 0.001170 -0.001326 0.000028 0.010547 0.000023
# 6 0.000007 -0.000003 -0.000020 0.107135 0.000023 0.130342
#
#
# Mechanical properties :
#
#
# Convention : Reuss Voigt Hill
#
# Bulk Modulus (GPa) = 54.86110 69.36492 62.11301
# Shear Modulus (GPa) = 14.68216 45.81781 30.24998
#
# Velocity S-wave (km/s) = 2.31366 4.08716 3.32098
# Velocity P-wave (km/s) = 5.20954 6.89660 6.11156
#
# Compressibility (1/GPa) = 0.01822785
#
# Stress axis : x y z
#
# Youngs Moduli (GPa) = 72.27110 66.21264 171.71028
#
# Poissons Ratio (x) = 0.26675 0.49738
# Poissons Ratio (y) = 0.29115 0.23052
# Poissons Ratio (z) = 0.20934 0.08889
#
# Static dielectric constant tensor:
#      x y z
#    x 2.313950 -0.000060 0.110180 
#    y -0.000060 2.143960 0.000020 
#    z 0.110180 0.000020 2.158230 
# 
# From -- ./inp_files/232981.got.cif
#   From: 2010.05.17/outbox.cif.g08.bks.cpg/sg15_117_cif.got.tgz:232981.got - 2010.06.03 18:47:42.
