data_PCOD9258115
_publ_section_title
;
Structure prediction by ZEFSAII (Michael W. Deem and Ramdas Pophale) SiO2 
 PCOD9258115
Probable space group: C 2/C
;
_chemical_formula_sum "Si O2"
_cell_formula_units_Z 48
_cell_length_a 16.968164
_cell_length_b 23.715408
_cell_length_c 9.460462
_cell_angle_alpha 90.000000
_cell_angle_beta 33.421343
_cell_angle_gamma 90.000000
_cell_volume 2096.839439
_symmetry_space_group_name_H-M "C 2/C"
_symmetry_group_IT_number 15
_symmetry_cell_setting 'monoclinic'
loop_
_space_group_symop_operation_xyz
x,y,z
-x,y,1/2-z
-x,-y,-z
x,-y,1/2+z
1/2+x,1/2+y,z
1/2-x,1/2+y,1/2-z
1/2-x,1/2-y,-z
1/2+x,1/2-y,1/2+z
loop_
_atom_site_type_symbol
_atom_site_label
_atom_site_fract_x
_atom_site_fract_y
_atom_site_fract_z
Si Si1 0.330975 0.216273 0.752554
Si Si2 0.441477 0.376628 0.489094
Si Si3 0.654368 0.878911 0.070749
Si Si4 0.839863 0.484926 0.940953
Si Si5 0.359617 0.502825 0.021330
Si Si6 0.929828 0.210050 0.512729
O O1 0.324569 0.151549 0.811760
O O2 0.486538 0.243268 0.521366
O O3 0.250000 0.250000 0.000000
O O4 0.235954 0.223047 0.757422
O O5 0.432175 0.444186 0.493101
O O6 0.540090 0.349440 0.459675
O O7 0.280186 0.360374 0.776453
O O8 0.500000 0.357403 0.250000
O O9 0.500000 0.859007 0.250000
O O10 0.653265 0.946455 0.079283
O O11 0.755351 0.471750 0.921104
O O12 0.000000 0.466463 0.750000
O O13 0.734514 0.469593 0.226119
O O14 0.500000 0.471941 0.750000
O O15 0.000000 0.209174 0.250000
#
# Coordination Sequence:
#
# PCOD9258115 Si02
#       6
#     8   8   8   8   8   8
#     4  10  18  32  60  88 111 143 199 240 281 332
#     4  10  21  38  58  84 125 155 184 243 305 340
#     4  10  19  35  60  88 114 153 200 240 282 349
#     4  10  21  38  61  87 117 155 200 243 293 348
#     4  10  21  40  58  86 119 158 194 245 295 347
#     4  10  19  35  61  87 111 155 197 239 282 351
#
# _framework density 22.891594000000001
#
# number of rings (size 3 to 8) (size 9 to 14) (size 15 to 20)
#    0.000    2.000    3.333    2.500    0.000    0.000 
#   12.000    0.833    0.000    0.000    0.000    0.000 
#    0.000    0.000    0.000    0.000    0.000    0.000 
#
# Total GULP energy -133893.937055 kJ/mol
# GULP energy per Si atom -5578.914044 kJ/mol
# Density = 2.283949 g / cm^3
# Si number density = 22.891594 Si / 1000 Ang^3
#
#
#
# Elastic Constant Matrix: (Units=GPa)
#
#
# Indices 1 2 3 4 5 6 
#
# 1 136.5600 22.6341 49.9469 -0.0001 -36.3469 0.0001
# 2 22.6341 51.8389 22.7226 0.0000 -8.7357 0.0000
# 3 49.9469 22.7226 85.0715 -0.0001 -20.5266 0.0000
# 4 -0.0001 0.0000 -0.0001 7.1439 0.0001 -1.9178
# 5 -36.3469 -8.7357 -20.5266 0.0001 33.7402 0.0000
# 6 0.0001 0.0000 0.0000 -1.9178 0.0000 39.4508
#
#
#
# Elastic Compliance Matrix: (Units=1/GPa)
#
#
# Indices 1 2 3 4 5 6 
#
# 1 0.011657 -0.001681 -0.004067 0.000000 0.009648 0.000000
# 2 -0.001681 0.022268 -0.004696 0.000000 0.001098 0.000000
# 3 -0.004067 -0.004696 0.016463 0.000000 0.004419 0.000000
# 4 0.000000 0.000000 0.000000 0.141831 0.000000 0.006895
# 5 0.009648 0.001098 0.004419 0.000000 0.043004 0.000000
# 6 0.000000 0.000000 0.000000 0.006895 0.000000 0.025683
#
#
# Mechanical properties :
#
#
# Convention : Reuss Voigt Hill
#
# Bulk Modulus (GPa) = 33.89862 51.56416 42.73139
# Shear Modulus (GPa) = 17.14516 27.94475 22.54496
#
# Velocity S-wave (km/s) = 2.73970 3.49770 3.14165
# Velocity P-wave (km/s) = 4.98482 6.23588 5.64511
#
# Compressibility (1/GPa) = 0.02949973
#
# Stress axis : x y z
#
# Youngs Moduli (GPa) = 85.78667 44.90774 60.74208
#
# Poissons Ratio (x) = 0.07550 0.24704
# Poissons Ratio (y) = 0.14422 0.28524
# Poissons Ratio (z) = 0.34889 0.21088
#
# Static dielectric constant tensor:
#      x y z
#    x 1.919860 0.000000 -0.019990 
#    y 0.000000 1.866270 0.000000 
#    z -0.019990 0.000000 1.906920 
# 
# From -- ./inp_files/44438.got.cif
#   From: 2010.05.17/outbox.cif.g08.bks.cpg/sg15_23_cif.got.tgz:44438.got - 2010.06.03 18:47:42.
