data_PCOD9258277
_publ_section_title
;
Structure prediction by ZEFSAII (Michael W. Deem and Ramdas Pophale) SiO2 
 PCOD9258277
Probable space group: C 2/C
;
_chemical_formula_sum "Si O2"
_cell_formula_units_Z 56
_cell_length_a 9.408872
_cell_length_b 15.676919
_cell_length_c 20.187388
_cell_angle_alpha 90.000000
_cell_angle_beta 114.548430
_cell_angle_gamma 90.000000
_cell_volume 2708.531135
_symmetry_space_group_name_H-M "C 2/C"
_symmetry_group_IT_number 15
_symmetry_cell_setting 'monoclinic'
loop_
_space_group_symop_operation_xyz
x,y,z
-x,y,1/2-z
-x,-y,-z
x,-y,1/2+z
1/2+x,1/2+y,z
1/2-x,1/2+y,1/2-z
1/2-x,1/2-y,-z
1/2+x,1/2-y,1/2+z
loop_
_atom_site_type_symbol
_atom_site_label
_atom_site_fract_x
_atom_site_fract_y
_atom_site_fract_z
Si Si1 0.048420 0.386034 0.191017
Si Si2 0.042047 0.647812 0.477361
Si Si3 0.242451 0.065785 0.887458
Si Si4 0.815325 0.114949 0.140978
Si Si5 0.889560 0.255626 0.638601
Si Si6 0.094010 0.735996 0.928801
Si Si7 0.754471 0.282685 0.747600
O O1 0.150464 0.437816 0.158140
O O2 0.150224 0.302685 0.230939
O O3 0.000000 0.429854 0.250000
O O4 0.906984 0.344689 0.121160
O O5 0.144574 0.570920 0.526597
O O6 0.124601 0.695422 0.433137
O O7 0.865760 0.623739 0.420762
O O8 0.029175 0.711508 0.538342
O O9 0.151857 0.155412 0.870188
O O10 0.138757 0.981799 0.863947
O O11 0.919475 0.181098 0.119421
O O12 0.812132 0.145403 0.216499
O O13 0.787602 0.299516 0.676752
O O14 0.072614 0.261790 0.691817
O O15 0.250000 0.750000 0.000000
#
# Coordination Sequence:
#
# PCOD9258277 Si02
#       7
#     8   8   8   8   8   8   8
#     4  10  18  34  53  77 103 138 179 212 256 326
#     4   9  18  33  55  75 104 145 182 207 261 324
#     4  10  20  32  53  81 109 135 171 229 269 301
#     4  10  18  33  53  80 109 134 177 224 271 298
#     4   9  18  34  53  73 105 144 182 207 260 328
#     4   9  18  32  55  79 101 139 176 213 255 319
#     4   9  18  33  55  74 100 144 178 214 258 320
#
# _framework density 20.675412999999999
#
# number of rings (size 3 to 8) (size 9 to 14) (size 15 to 20)
#    0.000    2.571    1.429    0.857    0.000    0.000 
#    5.143    6.429    0.000    0.000    0.000    0.000 
#    0.000    0.000    0.000    0.000    0.000    0.000 
#
# Total GULP energy -156152.216283 kJ/mol
# GULP energy per Si atom -5576.864867 kJ/mol
# Density = 2.062836 g / cm^3
# Si number density = 20.675413 Si / 1000 Ang^3
#
#
#
# Elastic Constant Matrix: (Units=GPa)
#
#
# Indices 1 2 3 4 5 6 
#
# 1 46.6988 7.0553 16.2111 0.0000 -9.4577 0.0000
# 2 7.0553 75.3624 16.9218 0.0000 -18.6385 0.0000
# 3 16.2111 16.9218 105.1636 0.0000 -24.8099 0.0000
# 4 0.0000 0.0000 0.0000 17.8610 0.0000 1.1119
# 5 -9.4577 -18.6385 -24.8099 0.0000 37.0834 0.0000
# 6 0.0000 0.0000 0.0000 1.1119 0.0000 21.7746
#
#
#
# Elastic Compliance Matrix: (Units=1/GPa)
#
#
# Indices 1 2 3 4 5 6 
#
# 1 0.023183 -0.000636 -0.002555 0.000000 0.003883 0.000000
# 2 -0.000636 0.015222 -0.000694 0.000000 0.007024 0.000000
# 3 -0.002555 -0.000694 0.011611 0.000000 0.006768 0.000000
# 4 0.000000 0.000000 0.000000 0.056166 0.000000 -0.002868
# 5 0.003883 0.007024 0.006768 0.000000 0.036015 0.000000
# 6 0.000000 0.000000 0.000000 -0.002868 0.000000 0.046071
#
#
# Mechanical properties :
#
#
# Convention : Reuss Voigt Hill
#
# Bulk Modulus (GPa) = 23.67135 34.17791 28.92463
# Shear Modulus (GPa) = 23.79569 27.81291 25.80430
#
# Velocity S-wave (km/s) = 3.39620 3.67170 3.53663
# Velocity P-wave (km/s) = 5.18197 5.87722 5.54051
#
# Compressibility (1/GPa) = 0.04224516
#
# Stress axis : x y z
#
# Youngs Moduli (GPa) = 43.13416 65.69524 86.12380
#
# Poissons Ratio (x) = 0.04180 0.22007
# Poissons Ratio (y) = 0.02744 0.05979
# Poissons Ratio (z) = 0.11022 0.04560
#
# Static dielectric constant tensor:
#      x y z
#    x 1.787260 0.000000 0.027190 
#    y 0.000000 1.714500 0.000000 
#    z 0.027190 0.000000 1.801730 
# 
# From -- ./inp_files/238414.got.cif
#   From: 2010.05.17/outbox.cif.g08.bks.cpg/sg15_120_cif.got.tgz:238414.got - 2010.06.03 18:47:42.
