data_PCOD9258616
_publ_section_title
;
Structure prediction by ZEFSAII (Michael W. Deem and Ramdas Pophale) SiO2 
 PCOD9258616
Probable space group: C 2/C
;
_chemical_formula_sum "Si O2"
_cell_formula_units_Z 60
_cell_length_a 11.383055
_cell_length_b 18.928082
_cell_length_c 28.532214
_cell_angle_alpha 90.000000
_cell_angle_beta 150.455945
_cell_angle_gamma 90.000000
_cell_volume 3031.303574
_symmetry_space_group_name_H-M "C 2/C"
_symmetry_group_IT_number 15
_symmetry_cell_setting 'monoclinic'
loop_
_space_group_symop_operation_xyz
x,y,z
-x,y,1/2-z
-x,-y,-z
x,-y,1/2+z
1/2+x,1/2+y,z
1/2-x,1/2+y,1/2-z
1/2-x,1/2-y,-z
1/2+x,1/2-y,1/2+z
loop_
_atom_site_type_symbol
_atom_site_label
_atom_site_fract_x
_atom_site_fract_y
_atom_site_fract_z
Si Si1 0.500000 0.936304 0.750000
Si Si2 0.018956 0.971059 0.955240
Si Si3 0.481333 0.036066 0.067783
Si Si4 0.624531 0.101097 0.570324
Si Si5 0.855903 0.810909 0.589876
Si Si6 0.438657 0.307734 0.513738
Si Si7 0.164909 0.640546 0.212522
Si Si8 0.580249 0.261680 0.331525
O O1 0.459757 0.892228 0.784035
O O2 0.753241 0.975627 0.841658
O O3 0.086897 0.890094 0.988943
O O4 0.227414 0.008254 0.998890
O O5 0.000000 0.000000 0.000000
O O6 0.585928 0.092889 0.141169
O O7 0.639511 0.965910 0.110747
O O8 0.433772 0.072375 0.001523
O O9 0.389022 0.146111 0.502765
O O10 0.843730 0.155933 0.641734
O O11 0.773303 0.736625 0.583059
O O12 0.963741 0.787629 0.577447
O O13 0.049267 0.858757 0.682544
O O14 0.678842 0.281697 0.573659
O O15 0.099874 0.724318 0.194548
O O16 0.500000 0.248603 0.250000
#
# Coordination Sequence:
#
# PCOD9258616 Si02
#       8
#     4   8   8   8   8   8   8   8
#     4  12  20  36  60  96 120 156 212 274 318 380
#     4  12  21  38  63  94 129 166 210 269 330 384
#     4  11  24  42  60  88 133 174 208 258 332 394
#     4  10  24  43  58  88 133 174 206 254 326 399
#     4  10  19  35  63  86 116 160 213 260 305 377
#     4  10  18  33  61  89 118 154 203 265 314 364
#     4  12  20  37  67  94 117 163 224 270 318 380
#     4  11  19  37  63  94 118 155 217 269 313 375
#
# _framework density 19.793465000000001
#
# number of rings (size 3 to 8) (size 9 to 14) (size 15 to 20)
#    0.000    1.067    7.333    0.000    0.000    1.067 
#    7.200    1.333    0.000    0.000    0.000    0.000 
#    0.000    0.000    0.000    0.000    0.000    0.000 
#
# Total GULP energy -167023.431357 kJ/mol
# GULP energy per Si atom -5567.447712 kJ/mol
# Density = 1.974841 g / cm^3
# Si number density = 19.793465 Si / 1000 Ang^3
#
#
#
# Elastic Constant Matrix: (Units=GPa)
#
#
# Indices 1 2 3 4 5 6 
#
# 1 52.9118 28.3681 13.2774 0.0004 -14.2755 0.0003
# 2 28.3681 100.2326 50.2900 0.0004 -5.7532 0.0002
# 3 13.2774 50.2900 63.2435 -0.0003 -7.8334 -0.0012
# 4 0.0004 0.0004 -0.0003 38.5510 -0.0001 4.1062
# 5 -14.2755 -5.7532 -7.8334 -0.0001 17.5487 -0.0002
# 6 0.0003 0.0002 -0.0012 4.1062 -0.0002 15.2788
#
#
#
# Elastic Compliance Matrix: (Units=1/GPa)
#
#
# Indices 1 2 3 4 5 6 
#
# 1 0.028557 -0.008616 0.003582 0.000000 0.022005 0.000000
# 2 -0.008616 0.019203 -0.014342 0.000000 -0.007116 -0.000001
# 3 0.003582 -0.014342 0.027779 0.000000 0.010612 0.000002
# 4 0.000000 0.000000 0.000000 0.026704 0.000000 -0.007177
# 5 0.022005 -0.007116 0.010612 0.000000 0.077289 0.000001
# 6 0.000000 -0.000001 0.000002 -0.007177 0.000001 0.067379
#
#
# Mechanical properties :
#
#
# Convention : Reuss Voigt Hill
#
# Bulk Modulus (GPa) = 27.18481 44.47320 35.82900
# Shear Modulus (GPa) = 16.78268 22.57251 19.67760
#
# Velocity S-wave (km/s) = 2.91501 3.38065 3.15643
# Velocity P-wave (km/s) = 5.00937 6.14457 5.60578
#
# Compressibility (1/GPa) = 0.03678525
#
# Stress axis : x y z
#
# Youngs Moduli (GPa) = 35.01776 52.07533 35.99845
#
# Poissons Ratio (x) = 0.44870 -0.12894
# Poissons Ratio (y) = 0.30172 0.51630
# Poissons Ratio (z) = -0.12543 0.74688
#
# Static dielectric constant tensor:
#      x y z
#    x 1.634200 0.000000 -0.047520 
#    y 0.000000 1.761590 0.000000 
#    z -0.047520 0.000000 1.596310 
# 
# From -- ./inp_files/311753.got.cif
#   From: 2010.05.17/outbox.cif.g08.bks.cpg/sg15_156_cif.got.tgz:311753.got - 2010.06.03 18:47:42.
