data_PCOD9258132
_publ_section_title
;
Structure prediction by ZEFSAII (Michael W. Deem and Ramdas Pophale) SiO2 
 PCOD9258132
Probable space group: C 2/C
;
_chemical_formula_sum "Si O2"
_cell_formula_units_Z 52
_cell_length_a 9.804827
_cell_length_b 14.717638
_cell_length_c 22.729662
_cell_angle_alpha 90.000000
_cell_angle_beta 43.941981
_cell_angle_gamma 90.000000
_cell_volume 2276.074322
_symmetry_space_group_name_H-M "C 2/C"
_symmetry_group_IT_number 15
_symmetry_cell_setting 'monoclinic'
loop_
_space_group_symop_operation_xyz
x,y,z
-x,y,1/2-z
-x,-y,-z
x,-y,1/2+z
1/2+x,1/2+y,z
1/2-x,1/2+y,1/2-z
1/2-x,1/2-y,-z
1/2+x,1/2-y,1/2+z
loop_
_atom_site_type_symbol
_atom_site_label
_atom_site_fract_x
_atom_site_fract_y
_atom_site_fract_z
Si Si1 0.557313 0.576190 0.935101
Si Si2 0.000000 0.635516 0.250000
Si Si3 0.019827 0.381482 0.153232
Si Si4 0.155742 0.781522 0.923331
Si Si5 0.543163 0.675954 0.141620
Si Si6 0.042786 0.600688 0.510632
Si Si7 0.820248 0.990063 0.712800
O O1 0.793974 0.589100 0.865407
O O2 0.527381 0.536990 0.879423
O O3 0.500000 0.500000 0.000000
O O4 0.432988 0.663193 0.994087
O O5 0.876643 0.692742 0.335891
O O6 0.844479 0.569543 0.268871
O O7 0.990489 0.276438 0.178520
O O8 0.811532 0.432703 0.217579
O O9 0.093432 0.399609 0.064139
O O10 0.023558 0.814116 0.907310
O O11 0.131560 0.674312 0.940112
O O12 0.771151 0.651675 0.075637
O O13 0.434768 0.592627 0.206778
O O14 0.000000 0.500000 0.500000
#
# Coordination Sequence:
#
# PCOD9258132 Si02
#       7
#     8   4   8   8   8   8   8
#     4  12  17  33  67  90 113 152 198 255 298 345
#     4  10  18  32  60  94 116 144 192 258 302 346
#     4  11  20  39  61  88 119 159 204 243 295 366
#     4  10  19  36  62  87 117 155 203 243 301 361
#     4  10  20  40  62  83 118 165 201 234 302 373
#     4  11  22  41  60  83 117 170 208 235 295 372
#     4  11  21  35  60  98 120 147 201 257 303 348
#
# _framework density 22.846354000000002
#
# number of rings (size 3 to 8) (size 9 to 14) (size 15 to 20)
#    0.000    1.231    7.692    0.923    0.000    0.000 
#   11.077    0.000    0.000    2.769    0.000    0.000 
#    0.000    0.000    0.000    0.000    0.000    0.000 
#
# Total GULP energy -145049.588078 kJ/mol
# GULP energy per Si atom -5578.830311 kJ/mol
# Density = 2.279435 g / cm^3
# Si number density = 22.846354 Si / 1000 Ang^3
#
#
#
# Elastic Constant Matrix: (Units=GPa)
#
#
# Indices 1 2 3 4 5 6 
#
# 1 27.3560 24.2588 13.6708 0.0000 2.7609 -0.0001
# 2 24.2588 190.9812 58.0484 0.0000 -11.2282 0.0000
# 3 13.6708 58.0484 88.5547 0.0000 -26.4849 -0.0001
# 4 0.0000 0.0000 0.0000 38.5733 0.0000 -4.5797
# 5 2.7609 -11.2282 -26.4849 0.0000 19.5101 0.0001
# 6 -0.0001 0.0000 -0.0001 -4.5797 0.0001 12.0381
#
#
#
# Elastic Compliance Matrix: (Units=1/GPa)
#
#
# Indices 1 2 3 4 5 6 
#
# 1 0.049293 -0.003844 -0.013195 0.000000 -0.027099 0.000001
# 2 -0.003844 0.006980 -0.004408 0.000000 -0.001422 0.000000
# 3 -0.013195 -0.004408 0.026967 0.000000 0.035938 0.000000
# 4 0.000000 0.000000 0.000000 0.027151 0.000000 0.010329
# 5 -0.027099 -0.001422 0.035938 0.000000 0.103057 -0.000001
# 6 0.000001 0.000000 0.000000 0.010329 -0.000001 0.086999
#
#
# Mechanical properties :
#
#
# Convention : Reuss Voigt Hill
#
# Bulk Modulus (GPa) = 24.78475 55.42754 40.10614
# Shear Modulus (GPa) = 14.01386 28.08523 21.04954
#
# Velocity S-wave (km/s) = 2.47937 3.50995 3.03867
# Velocity P-wave (km/s) = 4.36673 6.38279 5.46847
#
# Compressibility (1/GPa) = 0.04034740
#
# Stress axis : x y z
#
# Youngs Moduli (GPa) = 20.28701 143.25667 37.08236
#
# Poissons Ratio (x) = 0.55067 0.48929
# Poissons Ratio (y) = 0.07798 0.16345
# Poissons Ratio (z) = 0.26768 0.63143
#
# Static dielectric constant tensor:
#      x y z
#    x 1.930790 0.000000 -0.003410 
#    y 0.000000 1.877390 0.000000 
#    z -0.003410 0.000000 1.937370 
# 
# From -- ./inp_files/269905.got.cif
#   From: 2010.05.17/outbox.cif.g08.bks.cpg/sg15_135_cif.got.tgz:269905.got - 2010.06.03 18:47:42.
