data_PCOD9258015
_publ_section_title
;
Structure prediction by ZEFSAII (Michael W. Deem and Ramdas Pophale) SiO2 
 PCOD9258015
Probable space group: C 2/C
;
_chemical_formula_sum "Si O2"
_cell_formula_units_Z 60
_cell_length_a 11.624423
_cell_length_b 17.055703
_cell_length_c 18.761334
_cell_angle_alpha 90.000000
_cell_angle_beta 129.470971
_cell_angle_gamma 90.000000
_cell_volume 2871.389385
_symmetry_space_group_name_H-M "C 2/C"
_symmetry_group_IT_number 15
_symmetry_cell_setting 'monoclinic'
loop_
_space_group_symop_operation_xyz
x,y,z
-x,y,1/2-z
-x,-y,-z
x,-y,1/2+z
1/2+x,1/2+y,z
1/2-x,1/2+y,1/2-z
1/2-x,1/2-y,-z
1/2+x,1/2-y,1/2+z
loop_
_atom_site_type_symbol
_atom_site_label
_atom_site_fract_x
_atom_site_fract_y
_atom_site_fract_z
Si Si1 0.084186 0.889063 0.539776
Si Si2 0.000000 0.983522 0.250000
Si Si3 0.224235 0.754494 0.405723
Si Si4 0.721050 0.448442 0.064762
Si Si5 0.552448 0.343784 0.165565
Si Si6 0.063742 0.386318 0.074534
Si Si7 0.291181 0.959931 0.932309
Si Si8 0.370685 0.840079 0.241162
O O1 0.207444 0.823056 0.603878
O O2 0.920863 0.892648 0.511770
O O3 0.035289 0.874510 0.438494
O O4 0.155825 0.974076 0.576077
O O5 0.124460 0.036484 0.336855
O O6 0.071417 0.921730 0.221400
O O7 0.250000 0.750000 0.500000
O O8 0.324577 0.824240 0.415084
O O9 0.053189 0.781157 0.337681
O O10 0.821856 0.405204 0.163066
O O11 0.789683 0.476180 0.016896
O O12 0.500000 0.793003 0.250000
O O13 0.709768 0.307748 0.202841
O O14 0.130067 0.470856 0.080862
O O15 0.061950 0.371696 0.158165
O O16 0.899781 0.384610 0.973787
#
# Coordination Sequence:
#
# PCOD9258015 Si02
#       8
#     8   4   8   8   8   8   8   8
#     4   9  19  33  60  91 124 164 209 268 321 385
#     4  12  18  34  62  94 126 166 218 270 320 380
#     4  10  19  38  63  90 126 159 212 272 328 388
#     4  10  19  36  61  97 127 169 215 260 334 382
#     4  10  18  32  57  90 119 169 211 258 317 390
#     4  11  22  37  61  99 126 175 220 268 329 392
#     4  11  21  34  60  93 131 166 222 273 315 386
#     4  11  21  36  61  89 135 170 219 266 318 397
#
# _framework density 20.895807999999999
#
# number of rings (size 3 to 8) (size 9 to 14) (size 15 to 20)
#    0.000    1.600    5.333    0.800    0.000    0.000 
#    0.000    0.667    4.400   12.800    0.000    0.000 
#    0.000    0.000    0.000    0.000    0.000    0.000 
#
# Total GULP energy -167010.408396 kJ/mol
# GULP energy per Si atom -5567.013613 kJ/mol
# Density = 2.084825 g / cm^3
# Si number density = 20.895808 Si / 1000 Ang^3
#
#
#
# Elastic Constant Matrix: (Units=GPa)
#
#
# Indices 1 2 3 4 5 6 
#
# 1 141.8748 37.2476 37.5964 0.0000 8.6078 0.0000
# 2 37.2476 35.1863 6.0902 0.0000 14.9458 0.0000
# 3 37.5964 6.0902 95.0864 0.0000 4.3516 0.0000
# 4 0.0000 0.0000 0.0000 11.4592 0.0000 -3.7752
# 5 8.6078 14.9458 4.3516 0.0000 38.5487 0.0000
# 6 0.0000 0.0000 0.0000 -3.7752 0.0000 11.3794
#
#
#
# Elastic Compliance Matrix: (Units=1/GPa)
#
#
# Indices 1 2 3 4 5 6 
#
# 1 0.011082 -0.012228 -0.003721 0.000000 0.002687 0.000000
# 2 -0.012228 0.047755 0.002512 0.000000 -0.016068 0.000000
# 3 -0.003721 0.002512 0.011895 0.000000 -0.001486 0.000000
# 4 0.000000 0.000000 0.000000 0.097974 0.000000 0.032504
# 5 0.002687 -0.016068 -0.001486 0.000000 0.031739 0.000000
# 6 0.000000 0.000000 0.000000 0.032504 0.000000 0.098662
#
#
# Mechanical properties :
#
#
# Convention : Reuss Voigt Hill
#
# Bulk Modulus (GPa) = 22.80165 48.22397 35.51281
# Shear Modulus (GPa) = 14.67986 25.02501 19.85244
#
# Velocity S-wave (km/s) = 2.65340 3.46440 3.08566
# Velocity P-wave (km/s) = 4.50812 6.25549 5.45226
#
# Compressibility (1/GPa) = 0.04385648
#
# Stress axis : x y z
#
# Youngs Moduli (GPa) = 90.23609 20.94005 84.06665
#
# Poissons Ratio (x) = 0.25606 0.31285
# Poissons Ratio (y) = 1.10343 -0.21115
# Poissons Ratio (z) = 0.33581 -0.05259
#
# Static dielectric constant tensor:
#      x y z
#    x 1.868200 0.000000 0.051520 
#    y 0.000000 1.728790 0.000000 
#    z 0.051520 0.000000 1.774230 
# 
# From -- ./inp_files/199547.got.cif
#   From: 2010.05.17/outbox.cif.g08.bks.cpg/sg15_100_cif.got.tgz:199547.got - 2010.06.03 18:47:42.
