data_PCOD9258663
_publ_section_title
;
Structure prediction by ZEFSAII (Michael W. Deem and Ramdas Pophale) SiO2 
 PCOD9258663
Probable space group: C 2/C
;
_chemical_formula_sum "Si O2"
_cell_formula_units_Z 60
_cell_length_a 12.398779
_cell_length_b 24.179558
_cell_length_c 17.758939
_cell_angle_alpha 90.000000
_cell_angle_beta 148.674177
_cell_angle_gamma 90.000000
_cell_volume 2768.009557
_symmetry_space_group_name_H-M "C 2/C"
_symmetry_group_IT_number 15
_symmetry_cell_setting 'monoclinic'
loop_
_space_group_symop_operation_xyz
x,y,z
-x,y,1/2-z
-x,-y,-z
x,-y,1/2+z
1/2+x,1/2+y,z
1/2-x,1/2+y,1/2-z
1/2-x,1/2-y,-z
1/2+x,1/2-y,1/2+z
loop_
_atom_site_type_symbol
_atom_site_label
_atom_site_fract_x
_atom_site_fract_y
_atom_site_fract_z
Si Si1 0.347965 0.251215 0.289234
Si Si2 0.414479 0.443895 0.410690
Si Si3 0.588738 0.069051 0.115513
Si Si4 0.500000 0.671458 0.750000
Si Si5 0.145392 0.654725 0.434622
Si Si6 0.029578 0.982761 0.856111
Si Si7 0.066771 0.175021 0.034555
Si Si8 0.541707 0.051547 0.921430
O O1 0.370398 0.291480 0.231325
O O2 0.547735 0.211797 0.404497
O O3 0.154406 0.210294 0.157344
O O4 0.387003 0.288944 0.385658
O O5 0.500000 0.500000 0.500000
O O6 0.513004 0.458260 0.387687
O O7 0.486418 0.387550 0.491963
O O8 0.167129 0.440104 0.250297
O O9 0.525218 0.109320 0.145218
O O10 0.829278 0.052689 0.260894
O O11 0.466534 0.012435 0.057355
O O12 0.543125 0.086072 0.001003
O O13 0.336000 0.639685 0.602317
O O14 0.239187 0.666831 0.408472
O O15 0.000000 0.990844 0.750000
O O16 0.241493 0.948175 0.993814
#
# Coordination Sequence:
#
# PCOD9258663 Si02
#       8
#     8   8   8   4   8   8   8   8
#     4  11  20  38  53  83 120 165 201 242 308 379
#     4  11  25  38  58  93 127 162 211 253 315 384
#     4   9  19  32  57  86 107 156 209 249 295 367
#     4  10  18  34  48  82 120 154 190 240 290 372
#     4  11  20  32  57  83 121 160 202 245 300 362
#     4   9  19  41  59  80 121 162 206 253 303 373
#     4  11  23  37  58  85 131 166 199 250 315 373
#     4   9  19  37  53  79 119 154 205 250 300 367
#
# _framework density 21.676224999999999
#
# number of rings (size 3 to 8) (size 9 to 14) (size 15 to 20)
#    0.000    1.867    2.667    2.400    7.467    0.533 
#    7.200    0.000    0.000    0.000    0.000    0.933 
#   12.000    0.133    0.000    0.000    0.000    0.000 
#
# Total GULP energy -167300.649202 kJ/mol
# GULP energy per Si atom -5576.688307 kJ/mol
# Density = 2.162689 g / cm^3
# Si number density = 21.676225 Si / 1000 Ang^3
#
#
#
# Elastic Constant Matrix: (Units=GPa)
#
#
# Indices 1 2 3 4 5 6 
#
# 1 38.7368 22.9119 28.5776 0.0003 7.7334 -0.0004
# 2 22.9119 102.7225 50.0012 -0.0003 -3.8831 0.0000
# 3 28.5776 50.0012 146.9119 0.0040 -2.7678 0.0000
# 4 0.0003 -0.0003 0.0040 27.0324 0.0012 1.1197
# 5 7.7334 -3.8831 -2.7678 0.0012 25.3719 -0.0004
# 6 -0.0004 0.0000 0.0000 1.1197 -0.0004 29.7311
#
#
#
# Elastic Compliance Matrix: (Units=1/GPa)
#
#
# Indices 1 2 3 4 5 6 
#
# 1 0.035548 -0.005891 -0.005142 0.000001 -0.012298 0.000000
# 2 -0.005891 0.012691 -0.003109 0.000001 0.003399 0.000000
# 3 -0.005142 -0.003109 0.008904 -0.000001 0.002063 0.000000
# 4 0.000001 0.000001 -0.000001 0.037050 -0.000002 -0.001395
# 5 -0.012298 0.003399 0.002063 -0.000002 0.043907 0.000001
# 6 0.000000 0.000000 0.000000 -0.001395 0.000001 0.033687
#
#
# Mechanical properties :
#
#
# Convention : Reuss Voigt Hill
#
# Bulk Modulus (GPa) = 34.65120 54.59475 44.62297
# Shear Modulus (GPa) = 23.84459 28.88579 26.36519
#
# Velocity S-wave (km/s) = 3.32027 3.65444 3.49136
# Velocity P-wave (km/s) = 5.54252 6.56108 6.07319
#
# Compressibility (1/GPa) = 0.02885903
#
# Stress axis : x y z
#
# Youngs Moduli (GPa) = 28.13110 78.79638 112.30818
#
# Poissons Ratio (x) = 0.46419 0.57744
# Poissons Ratio (y) = 0.16572 0.34921
# Poissons Ratio (z) = 0.14464 0.24501
#
# Static dielectric constant tensor:
#      x y z
#    x 1.892530 0.000000 -0.054970 
#    y 0.000000 1.814030 0.000000 
#    z -0.054970 0.000000 1.912040 
# 
# From -- ./inp_files/245458.got.cif
#   From: 2010.05.17/outbox.cif.g08.bks.cpg/sg15_123_cif.got.tgz:245458.got - 2010.06.03 18:47:42.
