data_PCOD9258701
_publ_section_title
;
Structure prediction by ZEFSAII (Michael W. Deem and Ramdas Pophale) SiO2 
 PCOD9258701
Probable space group: C 2/C
;
_chemical_formula_sum "Si O2"
_cell_formula_units_Z 56
_cell_length_a 27.885658
_cell_length_b 8.413880
_cell_length_c 18.571190
_cell_angle_alpha 90.000000
_cell_angle_beta 34.955466
_cell_angle_gamma 90.000000
_cell_volume 2496.466587
_symmetry_space_group_name_H-M "C 2/C"
_symmetry_group_IT_number 15
_symmetry_cell_setting 'monoclinic'
loop_
_space_group_symop_operation_xyz
x,y,z
-x,y,1/2-z
-x,-y,-z
x,-y,1/2+z
1/2+x,1/2+y,z
1/2-x,1/2+y,1/2-z
1/2-x,1/2-y,-z
1/2+x,1/2-y,1/2+z
loop_
_atom_site_type_symbol
_atom_site_label
_atom_site_fract_x
_atom_site_fract_y
_atom_site_fract_z
Si Si1 0.273836 0.838586 0.664304
Si Si2 0.536235 0.861055 0.591844
Si Si3 0.632821 0.924723 0.343989
Si Si4 0.195142 0.453119 0.625455
Si Si5 0.862247 0.864071 0.942635
Si Si6 0.000000 0.875213 0.250000
Si Si7 0.209704 0.364170 0.449536
Si Si8 0.500000 0.872741 0.250000
O O1 0.193263 0.729510 0.775662
O O2 0.340447 0.718849 0.545362
O O3 0.317756 0.931012 0.676064
O O4 0.251804 0.980587 0.635607
O O5 0.548055 0.885606 0.492312
O O6 0.481487 0.730065 0.701254
O O7 0.631186 0.815891 0.498003
O O8 0.519878 0.021238 0.656299
O O9 0.630943 0.977047 0.262752
O O10 0.272907 0.576407 0.524700
O O11 0.171853 0.417711 0.572529
O O12 0.230058 0.284430 0.612300
O O13 0.919253 0.735468 0.831922
O O14 0.922206 0.015719 0.867310
#
# Coordination Sequence:
#
# PCOD9258701 Si02
#       8
#     8   8   8   8   8   4   8   4
#     4  10  20  32  54  79 111 131 177 220 273 312
#     4  10  19  35  56  80 105 142 176 224 264 317
#     4  10  19  32  51  83 107 135 172 227 274 311
#     4  10  21  34  57  80 111 138 176 222 277 313
#     4  10  19  32  51  86 100 138 179 224 257 312
#     4  10  20  32  54  76 110 140 186 214 254 320
#     4  10  19  37  51  83 107 144 176 216 270 326
#     4  10  18  34  52  78 108 138 178 218 256 314
#
# _framework density 22.431702000000001
#
# number of rings (size 3 to 8) (size 9 to 14) (size 15 to 20)
#    0.000    2.000    4.286    1.714    2.000    2.286 
#    0.000    0.000    0.000    3.429    0.000    5.000 
#    0.000    0.000    0.000    0.000    0.000    0.000 
#
# Total GULP energy -156278.867870 kJ/mol
# GULP energy per Si atom -5581.388138 kJ/mol
# Density = 2.238065 g / cm^3
# Si number density = 22.431702 Si / 1000 Ang^3
#
#
#
# Elastic Constant Matrix: (Units=GPa)
#
#
# Indices 1 2 3 4 5 6 
#
# 1 44.0259 2.8743 17.4730 0.0002 16.2042 -0.0005
# 2 2.8743 117.1847 56.1536 -0.0029 5.8173 0.0006
# 3 17.4730 56.1536 135.9171 -0.0006 12.0461 -0.0008
# 4 0.0002 -0.0029 -0.0006 49.1907 0.0007 7.0338
# 5 16.2042 5.8173 12.0461 0.0007 37.1930 0.0001
# 6 -0.0005 0.0006 -0.0008 7.0338 0.0001 21.1666
#
#
#
# Elastic Compliance Matrix: (Units=1/GPa)
#
#
# Indices 1 2 3 4 5 6 
#
# 1 0.028090 0.001401 -0.003177 0.000000 -0.011428 0.000001
# 2 0.001401 0.010712 -0.004533 0.000001 -0.000817 -0.000001
# 3 -0.003177 -0.004533 0.009733 0.000000 -0.001059 0.000000
# 4 0.000000 0.000001 0.000000 0.021343 0.000000 -0.007093
# 5 -0.011428 -0.000817 -0.001059 0.000000 0.032337 0.000000
# 6 0.000001 -0.000001 0.000000 -0.007093 0.000000 0.049601
#
#
# Mechanical properties :
#
#
# Convention : Reuss Voigt Hill
#
# Bulk Modulus (GPa) = 27.84337 50.01439 38.92888
# Shear Modulus (GPa) = 28.34375 36.21853 32.28114
#
# Velocity S-wave (km/s) = 3.55851 4.02258 3.79764
# Velocity P-wave (km/s) = 5.41511 6.62719 6.05157
#
# Compressibility (1/GPa) = 0.03591519
#
# Stress axis : x y z
#
# Youngs Moduli (GPa) = 35.60047 93.35286 102.74749
#
# Poissons Ratio (x) = -0.13076 0.32642
# Poissons Ratio (y) = -0.04986 0.46578
# Poissons Ratio (z) = 0.11310 0.42319
#
# Static dielectric constant tensor:
#      x y z
#    x 1.868320 0.000000 -0.007260 
#    y 0.000000 1.843060 0.000000 
#    z -0.007260 0.000000 1.897770 
# 
# From -- ./inp_files/218345.got.cif
#   From: 2010.05.17/outbox.cif.g08.bks.cpg/sg15_110_cif.got.tgz:218345.got - 2010.06.03 18:47:42.
