data_PCOD9258323
_publ_section_title
;
Structure prediction by ZEFSAII (Michael W. Deem and Ramdas Pophale) SiO2 
 PCOD9258323
Probable space group: C 2/C
;
_chemical_formula_sum "Si O2"
_cell_formula_units_Z 64
_cell_length_a 10.413065
_cell_length_b 26.045389
_cell_length_c 12.938568
_cell_angle_alpha 90.000000
_cell_angle_beta 103.977483
_cell_angle_gamma 90.000000
_cell_volume 3405.197276
_symmetry_space_group_name_H-M "C 2/C"
_symmetry_group_IT_number 15
_symmetry_cell_setting 'monoclinic'
loop_
_space_group_symop_operation_xyz
x,y,z
-x,y,1/2-z
-x,-y,-z
x,-y,1/2+z
1/2+x,1/2+y,z
1/2-x,1/2+y,1/2-z
1/2-x,1/2-y,-z
1/2+x,1/2-y,1/2+z
loop_
_atom_site_type_symbol
_atom_site_label
_atom_site_fract_x
_atom_site_fract_y
_atom_site_fract_z
Si Si1 0.479328 0.184335 0.500775
Si Si2 0.152752 0.209087 0.572859
Si Si3 0.401994 0.347303 0.095639
Si Si4 0.794098 0.691750 0.119096
Si Si5 0.239619 0.884026 0.961999
Si Si6 0.283540 0.799638 0.299282
Si Si7 0.007166 0.060494 0.491507
Si Si8 0.868854 0.881884 0.773590
O O1 0.386116 0.234283 0.469806
O O2 0.567994 0.182418 0.413004
O O3 0.390931 0.133485 0.497573
O O4 0.577251 0.193048 0.616312
O O5 0.165175 0.169119 0.481231
O O6 0.277295 0.205802 0.674789
O O7 0.032773 0.187259 0.619617
O O8 0.311138 0.345289 0.178473
O O9 0.313927 0.319086 0.990810
O O10 0.439795 0.404313 0.066490
O O11 0.780650 0.747943 0.164832
O O12 0.742050 0.653649 0.196828
O O13 0.204316 0.903553 0.840990
O O14 0.162557 0.923848 0.019108
O O15 0.931798 0.080421 0.372023
O O16 0.000000 0.000000 0.500000
O O17 0.000000 0.854578 0.750000
#
# Coordination Sequence:
#
# PCOD9258323 Si02
#       8
#     8   8   8   8   8   8   8   8
#     4  11  21  34  51  80 121 160 202 236 280 349
#     4  11  20  33  50  77 117 160 203 234 276 347
#     4   9  17  33  53  79 111 141 196 249 284 348
#     4  10  18  33  54  79 115 162 198 238 281 341
#     4  10  22  36  50  81 118 147 186 239 285 349
#     4  11  20  31  52  78 114 162 198 236 287 338
#     4   9  19  38  63  84 106 137 186 254 304 345
#     4   9  19  35  58  82 112 143 187 234 290 344
#
# _framework density 18.794799999999999
#
# number of rings (size 3 to 8) (size 9 to 14) (size 15 to 20)
#    0.000    2.000    2.500    3.000    0.000    2.000 
#    0.000    7.500    0.000    6.750    0.000   10.500 
#    0.000    0.000    0.000    0.000    0.000    0.000 
#
# Total GULP energy -178221.967342 kJ/mol
# GULP energy per Si atom -5569.436479 kJ/mol
# Density = 1.875202 g / cm^3
# Si number density = 18.794800 Si / 1000 Ang^3
#
#
#
# Elastic Constant Matrix: (Units=GPa)
#
#
# Indices 1 2 3 4 5 6 
#
# 1 86.6128 42.3105 19.5585 0.0000 3.4686 0.0000
# 2 42.3105 108.1460 22.1690 0.0000 -3.1034 0.0000
# 3 19.5585 22.1690 60.5359 0.0000 -1.6449 0.0000
# 4 0.0000 0.0000 0.0000 1.9865 0.0000 6.8370
# 5 3.4686 -3.1034 -1.6449 0.0000 17.4927 0.0000
# 6 0.0000 0.0000 0.0000 6.8370 0.0000 17.8392
#
#
#
# Elastic Compliance Matrix: (Units=1/GPa)
#
#
# Indices 1 2 3 4 5 6 
#
# 1 0.015021 -0.005383 -0.002996 0.000000 -0.004215 0.000000
# 2 -0.005383 0.011963 -0.002561 0.000000 0.002949 0.000000
# 3 -0.002996 -0.002561 0.018476 0.000000 0.001877 0.000000
# 4 0.000000 0.000000 0.000000 -1.577521 0.000000 0.604601
# 5 -0.004215 0.002949 0.001877 0.000000 0.058702 0.000000
# 6 0.000000 0.000000 0.000000 0.604601 0.000000 -0.175663
#
#
# Mechanical properties :
#
#
# Convention : Reuss Voigt Hill
#
# Bulk Modulus (GPa) = 42.41300 47.04118 44.72709
# Shear Modulus (GPa) = -3.08779 18.88078 7.89649
#
# Velocity S-wave (km/s) = -1.28315 3.17294 2.05196
# Velocity P-wave (km/s) = 4.51886 6.20537 5.42801
#
# Compressibility (1/GPa) = 0.02357768
#
# Stress axis : x y z
#
# Youngs Moduli (GPa) = 66.57411 83.59363 54.12381
#
# Poissons Ratio (x) = 0.45002 0.16216
# Poissons Ratio (y) = 0.35840 0.13863
# Poissons Ratio (z) = 0.19947 0.21412
#
# Static dielectric constant tensor:
#      x y z
#    x 1.741520 0.000000 -0.025730 
#    y 0.000000 1.614460 0.000000 
#    z -0.025730 0.000000 1.744350 
# 
# From -- ./inp_files/138673.got.cif
#   From: 2010.05.17/outbox.cif.g08.bks.cpg/sg15_70_cif.got.tgz:138673.got - 2010.06.03 18:47:42.
