data_PCOD9258176
_publ_section_title
;
Structure prediction by ZEFSAII (Michael W. Deem and Ramdas Pophale) SiO2 
 PCOD9258176
Probable space group: C 2/C
;
_chemical_formula_sum "Si O2"
_cell_formula_units_Z 60
_cell_length_a 5.468855
_cell_length_b 16.379001
_cell_length_c 28.319630
_cell_angle_alpha 90.000000
_cell_angle_beta 94.342321
_cell_angle_gamma 90.000000
_cell_volume 2529.431653
_symmetry_space_group_name_H-M "C 2/C"
_symmetry_group_IT_number 15
_symmetry_cell_setting 'monoclinic'
loop_
_space_group_symop_operation_xyz
x,y,z
-x,y,1/2-z
-x,-y,-z
x,-y,1/2+z
1/2+x,1/2+y,z
1/2-x,1/2+y,1/2-z
1/2-x,1/2-y,-z
1/2+x,1/2-y,1/2+z
loop_
_atom_site_type_symbol
_atom_site_label
_atom_site_fract_x
_atom_site_fract_y
_atom_site_fract_z
Si Si1 0.151032 0.383376 0.374225
Si Si2 0.336281 0.444909 0.093435
Si Si3 0.500000 0.654191 0.250000
Si Si4 0.994592 0.406203 0.582459
Si Si5 0.654350 0.720985 0.424276
Si Si6 0.104455 0.218868 0.704612
Si Si7 0.849875 0.157431 0.498423
Si Si8 0.774073 0.152344 0.340812
O O1 0.380832 0.444028 0.386574
O O2 0.149170 0.317123 0.417200
O O3 0.239303 0.335402 0.329006
O O4 0.870142 0.414109 0.371907
O O5 0.216252 0.531570 0.077825
O O6 0.343693 0.384619 0.048750
O O7 0.714099 0.711072 0.273867
O O8 0.390664 0.613366 0.295358
O O9 0.080253 0.312100 0.583939
O O10 0.798033 0.405216 0.537908
O O11 0.892665 0.411727 0.633800
O O12 0.595856 0.678845 0.473243
O O13 0.473381 0.683477 0.381810
O O14 0.000000 0.175252 0.750000
O O15 0.881743 0.267856 0.676808
O O16 0.750000 0.250000 0.500000
#
# Coordination Sequence:
#
# PCOD9258176 Si02
#       8
#     8   8   4   8   8   8   8   8
#     4  12  24  45  67 100 134 177 229 280 341 407
#     4  12  29  43  67  97 144 186 224 278 350 412
#     4  10  18  32  66 104 128 158 222 292 344 392
#     4  11  25  42  64  96 138 184 227 280 345 413
#     4  11  22  39  70  90 137 173 233 285 329 400
#     4  10  21  36  68 102 131 165 225 287 338 404
#     4  11  24  42  68  98 133 180 238 290 332 397
#     4  10  19  37  63 101 130 170 222 284 343 399
#
# _framework density 23.720742000000001
#
# number of rings (size 3 to 8) (size 9 to 14) (size 15 to 20)
#    0.000    1.067    4.000    2.000    7.467    1.600 
#    0.000    0.000    1.467    1.600    0.000    0.000 
#    0.000    0.000    0.000    0.000    0.000    0.000 
#
# Total GULP energy -167455.176924 kJ/mol
# GULP energy per Si atom -5581.839231 kJ/mol
# Density = 2.366675 g / cm^3
# Si number density = 23.720742 Si / 1000 Ang^3
#
#
#
# Elastic Constant Matrix: (Units=GPa)
#
#
# Indices 1 2 3 4 5 6 
#
# 1 90.6073 15.6506 45.0564 0.0000 -20.3932 0.0000
# 2 15.6506 67.0560 10.7569 0.0000 -8.5455 0.0000
# 3 45.0564 10.7569 111.0717 0.0000 -27.2121 0.0000
# 4 0.0000 0.0000 0.0000 17.6421 0.0000 -5.2092
# 5 -20.3932 -8.5455 -27.2121 0.0000 45.6058 0.0000
# 6 0.0000 0.0000 0.0000 -5.2092 0.0000 43.9800
#
#
#
# Elastic Compliance Matrix: (Units=1/GPa)
#
#
# Indices 1 2 3 4 5 6 
#
# 1 0.014580 -0.002209 -0.004924 0.000000 0.003167 0.000000
# 2 -0.002209 0.015692 -0.000170 0.000000 0.001851 0.000000
# 3 -0.004924 -0.000170 0.012263 0.000000 0.005083 0.000000
# 4 0.000000 0.000000 0.000000 0.058737 0.000000 0.006957
# 5 0.003167 0.001851 0.005083 0.000000 0.026723 0.000000
# 6 0.000000 0.000000 0.000000 0.006957 0.000000 0.023562
#
#
# Mechanical properties :
#
#
# Convention : Reuss Voigt Hill
#
# Bulk Modulus (GPa) = 35.80803 45.74031 40.77417
# Shear Modulus (GPa) = 28.49458 34.59698 31.54578
#
# Velocity S-wave (km/s) = 3.46967 3.82319 3.65071
# Velocity P-wave (km/s) = 5.58390 6.23007 5.91581
#
# Compressibility (1/GPa) = 0.02792670
#
# Stress axis : x y z
#
# Youngs Moduli (GPa) = 68.58765 63.72795 81.54903
#
# Poissons Ratio (x) = 0.14079 0.40158
# Poissons Ratio (y) = 0.15153 0.01386
# Poissons Ratio (z) = 0.33775 0.01083
#
# Static dielectric constant tensor:
#      x y z
#    x 2.003600 0.000000 -0.058320 
#    y 0.000000 1.923220 0.000000 
#    z -0.058320 0.000000 2.005190 
# 
# From -- ./inp_files/305682.got.cif
#   From: 2010.05.17/outbox.cif.g08.bks.cpg/sg15_153_cif.got.tgz:305682.got - 2010.06.03 18:47:42.
