data_PCOD9258397
_publ_section_title
;
Structure prediction by ZEFSAII (Michael W. Deem and Ramdas Pophale) SiO2 
 PCOD9258397
Probable space group: C 2/C
;
_chemical_formula_sum "Si O2"
_cell_formula_units_Z 60
_cell_length_a 14.465252
_cell_length_b 22.148775
_cell_length_c 15.789154
_cell_angle_alpha 90.000000
_cell_angle_beta 144.743944
_cell_angle_gamma 90.000000
_cell_volume 2920.011766
_symmetry_space_group_name_H-M "C 2/C"
_symmetry_group_IT_number 15
_symmetry_cell_setting 'monoclinic'
loop_
_space_group_symop_operation_xyz
x,y,z
-x,y,1/2-z
-x,-y,-z
x,-y,1/2+z
1/2+x,1/2+y,z
1/2-x,1/2+y,1/2-z
1/2-x,1/2-y,-z
1/2+x,1/2-y,1/2+z
loop_
_atom_site_type_symbol
_atom_site_label
_atom_site_fract_x
_atom_site_fract_y
_atom_site_fract_z
Si Si1 0.500000 0.497634 0.250000
Si Si2 0.479184 0.410784 0.887782
Si Si3 0.193889 0.415061 0.053951
Si Si4 0.317065 0.762956 0.867193
Si Si5 0.900950 0.865558 0.353605
Si Si6 0.464734 0.281408 0.628031
Si Si7 0.133250 0.627607 0.195914
Si Si8 0.229802 0.182112 0.024727
O O1 0.501111 0.535712 0.163814
O O2 0.331873 0.460984 0.126121
O O3 0.560944 0.352852 0.901982
O O4 0.292495 0.398457 0.769693
O O5 0.552546 0.412188 0.037125
O O6 0.259080 0.393323 0.193093
O O7 0.201443 0.358839 0.996929
O O8 0.002230 0.424546 0.906584
O O9 0.358521 0.696859 0.867080
O O10 0.133615 0.772990 0.705762
O O11 0.419009 0.815904 0.901922
O O12 0.342555 0.760789 0.986983
O O13 0.049045 0.842966 0.405668
O O14 0.500000 0.264731 0.750000
O O15 0.181129 0.661109 0.320855
O O16 0.250000 0.250000 0.000000
#
# Coordination Sequence:
#
# PCOD9258397 Si02
#       8
#     4   8   8   8   8   8   8   8
#     4  12  24  44  66  84 116 166 228 270 298 362
#     4   9  22  41  65  81 118 169 215 256 310 370
#     4  12  23  38  61  93 120 155 210 256 310 374
#     4  10  19  32  56  87 121 156 184 236 302 380
#     4  10  20  38  58  92 124 161 202 245 316 383
#     4  10  18  33  55  88 115 156 199 244 300 360
#     4  10  22  39  61  94 130 162 198 249 324 378
#     4  11  21  38  63  95 131 165 189 240 309 393
#
# _framework density 20.547861999999999
#
# number of rings (size 3 to 8) (size 9 to 14) (size 15 to 20)
#    0.000    1.600    2.000    4.000    0.000    2.133 
#    0.000    0.000    2.933    0.000    0.000    0.000 
#    0.000    0.000    0.000    0.000    0.000    0.000 
#
# Total GULP energy -167053.115825 kJ/mol
# GULP energy per Si atom -5568.437194 kJ/mol
# Density = 2.050109 g / cm^3
# Si number density = 20.547862 Si / 1000 Ang^3
#
#
#
# Elastic Constant Matrix: (Units=GPa)
#
#
# Indices 1 2 3 4 5 6 
#
# 1 65.4062 28.9155 37.3007 0.0000 -12.0203 0.0001
# 2 28.9155 53.6449 31.5201 0.0000 -4.2614 0.0000
# 3 37.3007 31.5201 105.8000 0.0000 -7.0295 0.0001
# 4 0.0000 0.0000 0.0000 21.6321 0.0000 -3.7833
# 5 -12.0203 -4.2614 -7.0295 0.0000 36.8992 0.0001
# 6 0.0001 0.0000 0.0001 -3.7833 0.0001 -10.7452
#
#
#
# Elastic Compliance Matrix: (Units=1/GPa)
#
#
# Indices 1 2 3 4 5 6 
#
# 1 0.023243 -0.009078 -0.005121 0.000000 0.005547 0.000000
# 2 -0.009078 0.026209 -0.004662 0.000000 -0.000819 0.000000
# 3 -0.005121 -0.004662 0.012660 0.000000 0.000205 0.000000
# 4 0.000000 0.000000 0.000000 0.043546 0.000000 -0.015332
# 5 0.005547 -0.000819 0.000205 0.000000 0.028852 0.000000
# 6 0.000000 0.000000 0.000000 -0.015332 0.000000 -0.087667
#
#
# Mechanical properties :
#
#
# Convention : Reuss Voigt Hill
#
# Bulk Modulus (GPa) = 41.00344 46.70264 43.85304
# Shear Modulus (GPa) = 53.94013 18.03156 35.98584
#
# Velocity S-wave (km/s) = 5.12913 2.96554 4.18942
# Velocity P-wave (km/s) = 7.42130 5.87401 6.69252
#
# Compressibility (1/GPa) = 0.02438819
#
# Stress axis : x y z
#
# Youngs Moduli (GPa) = 43.02434 38.15534 78.99035
#
# Poissons Ratio (x) = 0.34639 0.40452
# Poissons Ratio (y) = 0.39060 0.36824
# Poissons Ratio (z) = 0.22033 0.17787
#
# Static dielectric constant tensor:
#      x y z
#    x 1.853280 0.000000 0.035300 
#    y 0.000000 1.740460 0.000000 
#    z 0.035300 0.000000 1.794900 
# 
# From -- ./inp_files/156397.got.cif
#   From: 2010.05.17/outbox.cif.g08.bks.cpg/sg15_79_cif.got.tgz:156397.got - 2010.06.03 18:47:42.
