data_PCOD9258460
_publ_section_title
;
Structure prediction by ZEFSAII (Michael W. Deem and Ramdas Pophale) SiO2 
 PCOD9258460
Probable space group: C 2/C
;
_chemical_formula_sum "Si O2"
_cell_formula_units_Z 28
_cell_length_a 10.637007
_cell_length_b 8.323748
_cell_length_c 17.681175
_cell_angle_alpha 90.000000
_cell_angle_beta 42.922342
_cell_angle_gamma 90.000000
_cell_volume 1066.106833
_symmetry_space_group_name_H-M "C 2/C"
_symmetry_group_IT_number 15
_symmetry_cell_setting 'monoclinic'
loop_
_space_group_symop_operation_xyz
x,y,z
-x,y,1/2-z
-x,-y,-z
x,-y,1/2+z
1/2+x,1/2+y,z
1/2-x,1/2+y,1/2-z
1/2-x,1/2-y,-z
1/2+x,1/2-y,1/2+z
loop_
_atom_site_type_symbol
_atom_site_label
_atom_site_fract_x
_atom_site_fract_y
_atom_site_fract_z
Si Si1 0.500000 0.884338 0.750000
Si Si2 0.698775 0.620713 0.954065
Si Si3 0.692648 0.938544 0.883473
Si Si4 0.033459 0.077302 0.835933
O O1 0.542620 0.758345 0.800106
O O2 0.354614 0.000349 0.855855
O O3 0.858315 0.008482 0.862570
O O4 0.750000 0.750000 0.000000
O O5 0.534426 0.510556 0.058163
O O6 0.766623 0.004127 0.771870
O O7 0.676200 0.747691 0.895901
O O8 0.500000 0.000000 0.000000
#
# Coordination Sequence:
#
# PCOD9258460 Si02
#       4
#     4   8   8   8
#     4  10  18  34  58  80 112 154 194 234 278 346
#     4  10  18  33  57  81 110 153 190 232 291 341
#     4   9  18  36  57  82 112 146 194 242 281 341
#     4   9  20  36  54  83 117 152 189 236 292 340
#
# _framework density 26.263784999999999
#
# number of rings (size 3 to 8) (size 9 to 14) (size 15 to 20)
#    0.000    2.857    0.000    4.286    0.000    0.000 
#    0.000   22.857    0.000    0.000    0.000    0.000 
#    0.000    0.000    0.000    0.000    0.000    0.000 
#
# Total GULP energy -78071.898622 kJ/mol
# GULP energy per Si atom -5576.564187 kJ/mol
# Density = 2.620401 g / cm^3
# Si number density = 26.263785 Si / 1000 Ang^3
#
#
#
# Elastic Constant Matrix: (Units=GPa)
#
#
# Indices 1 2 3 4 5 6 
#
# 1 68.9981 47.2765 54.1259 0.0000 -3.5562 0.0000
# 2 47.2765 310.0382 145.3441 0.0000 -33.3393 0.0000
# 3 54.1259 145.3441 317.1250 0.0000 -38.6360 0.0000
# 4 0.0000 0.0000 0.0000 82.6210 0.0000 -20.8744
# 5 -3.5562 -33.3393 -38.6360 0.0000 67.9687 0.0000
# 6 0.0000 0.0000 0.0000 -20.8744 0.0000 54.0110
#
#
#
# Elastic Compliance Matrix: (Units=1/GPa)
#
#
# Indices 1 2 3 4 5 6 
#
# 1 0.017433 -0.001690 -0.002354 0.000000 -0.001255 0.000000
# 2 -0.001690 0.004338 -0.001559 0.000000 0.001153 0.000000
# 3 -0.002354 -0.001559 0.004471 0.000000 0.001654 0.000000
# 4 0.000000 0.000000 0.000000 0.013413 0.000000 0.005184
# 5 -0.001255 0.001153 0.001654 0.000000 0.016153 0.000000
# 6 0.000000 0.000000 0.000000 0.005184 0.000000 0.020518
#
#
# Mechanical properties :
#
#
# Convention : Reuss Voigt Hill
#
# Bulk Modulus (GPa) = 66.50585 132.18380 99.34482
# Shear Modulus (GPa) = 54.02848 70.88113 62.45480
#
# Velocity S-wave (km/s) = 4.54050 5.20065 4.88175
# Velocity P-wave (km/s) = 7.27086 9.30059 8.34764
#
# Compressibility (1/GPa) = 0.01503627
#
# Stress axis : x y z
#
# Youngs Moduli (GPa) = 57.36346 230.51725 223.65360
#
# Poissons Ratio (x) = 0.38951 0.52643
# Poissons Ratio (y) = 0.09693 0.34875
# Poissons Ratio (z) = 0.13502 0.35945
#
# Static dielectric constant tensor:
#      x y z
#    x 2.195710 0.000000 0.169700 
#    y 0.000000 2.014980 0.000000 
#    z 0.169700 0.000000 2.058090 
# 
# From -- ./inp_files/278567.got.cif
#   From: 2010.05.17/outbox.cif.g08.bks.cpg/sg15_140_cif.got.tgz:278567.got - 2010.06.03 18:47:42.
