data_PCOD9258005
_publ_section_title
;
Structure prediction by ZEFSAII (Michael W. Deem and Ramdas Pophale) SiO2 
 PCOD9258005
Probable space group: C 2/C
;
_chemical_formula_sum "Si O2"
_cell_formula_units_Z 60
_cell_length_a 16.383527
_cell_length_b 9.751053
_cell_length_c 14.963376
_cell_angle_alpha 90.000000
_cell_angle_beta 64.933361
_cell_angle_gamma 90.000000
_cell_volume 2165.351086
_symmetry_space_group_name_H-M "C 2/C"
_symmetry_group_IT_number 15
_symmetry_cell_setting 'monoclinic'
loop_
_space_group_symop_operation_xyz
x,y,z
-x,y,1/2-z
-x,-y,-z
x,-y,1/2+z
1/2+x,1/2+y,z
1/2-x,1/2+y,1/2-z
1/2-x,1/2-y,-z
1/2+x,1/2-y,1/2+z
loop_
_atom_site_type_symbol
_atom_site_label
_atom_site_fract_x
_atom_site_fract_y
_atom_site_fract_z
Si Si1 0.631936 0.806368 0.893592
Si Si2 0.267222 0.632779 0.769328
Si Si3 0.683862 0.397885 0.621846
Si Si4 0.699842 0.484897 0.935122
Si Si5 0.572768 0.079205 0.843456
Si Si6 0.538106 0.678279 0.578864
Si Si7 0.500000 0.543702 0.250000
Si Si8 0.405567 0.968894 0.866958
O O1 0.667902 0.760548 0.777218
O O2 0.728221 0.810592 0.897868
O O3 0.596969 0.960329 0.902674
O O4 0.546018 0.709401 0.946813
O O5 0.294717 0.546913 0.843352
O O6 0.289508 0.538179 0.671060
O O7 0.161747 0.671865 0.816037
O O8 0.667276 0.406294 0.524851
O O9 0.588602 0.362734 0.711171
O O10 0.798951 0.456262 0.928639
O O11 0.626424 0.366666 0.983740
O O12 0.463536 0.087281 0.892681
O O13 0.586022 0.014535 0.739207
O O14 0.510012 0.558372 0.660820
O O15 0.555527 0.820919 0.622819
#
# Coordination Sequence:
#
# PCOD9258005 Si02
#       8
#     8   8   8   8   8   8   4   8
#     4  10  19  35  57  80 117 153 195 233 299 346
#     4  10  20  38  58  81 115 155 192 243 295 352
#     4  10  22  39  59  86 118 154 197 249 295 353
#     4  10  22  35  58  85 119 152 198 248 293 354
#     4   8  17  31  56  82 110 147 187 234 294 349
#     4  10  18  32  57  87 111 151 192 250 292 343
#     4  10  18  36  60  88 114 154 204 248 292 344
#     4   9  16  32  55  85 114 140 187 246 299 344
#
# _framework density 27.709133999999999
#
# number of rings (size 3 to 8) (size 9 to 14) (size 15 to 20)
#    0.000    2.400    1.333    2.000    1.867    1.067 
#    2.400    8.667    0.000    0.000    0.000    0.000 
#    0.000    0.000    0.000    0.000    0.000    0.000 
#
# Total GULP energy -167651.627074 kJ/mol
# GULP energy per Si atom -5588.387569 kJ/mol
# Density = 2.764607 g / cm^3
# Si number density = 27.709134 Si / 1000 Ang^3
#
#
#
# Elastic Constant Matrix: (Units=GPa)
#
#
# Indices 1 2 3 4 5 6 
#
# 1 195.1483 14.7977 45.0304 0.0000 -44.6624 0.0000
# 2 14.7977 48.2071 20.0637 0.0000 4.0462 0.0000
# 3 45.0304 20.0637 123.7107 0.0000 5.6932 0.0000
# 4 0.0000 0.0000 0.0000 29.7323 0.0000 5.8880
# 5 -44.6624 4.0462 5.6932 0.0000 57.1090 0.0000
# 6 0.0000 0.0000 0.0000 5.8880 0.0000 48.0320
#
#
#
# Elastic Compliance Matrix: (Units=1/GPa)
#
#
# Indices 1 2 3 4 5 6 
#
# 1 0.007242 -0.001627 -0.002650 0.000000 0.006043 0.000000
# 2 -0.001627 0.022696 -0.002970 0.000000 -0.002585 0.000000
# 3 -0.002650 -0.002970 0.009660 0.000000 -0.002825 0.000000
# 4 0.000000 0.000000 0.000000 0.034470 0.000000 -0.004225
# 5 0.006043 -0.002585 -0.002825 0.000000 0.022702 0.000000
# 6 0.000000 0.000000 0.000000 -0.004225 0.000000 0.021337
#
#
# Mechanical properties :
#
#
# Convention : Reuss Voigt Hill
#
# Bulk Modulus (GPa) = 39.83473 58.53883 49.18678
# Shear Modulus (GPa) = 35.46847 46.11961 40.79404
#
# Velocity S-wave (km/s) = 3.58163 4.08416 3.84112
# Velocity P-wave (km/s) = 5.61350 6.58881 6.12061
#
# Compressibility (1/GPa) = 0.02510372
#
# Stress axis : x y z
#
# Youngs Moduli (GPa) = 138.07531 44.06012 103.52202
#
# Poissons Ratio (x) = 0.07170 0.27438
# Poissons Ratio (y) = 0.22469 0.30742
# Poissons Ratio (z) = 0.36596 0.13084
#
# Static dielectric constant tensor:
#      x y z
#    x 2.210260 0.000000 -0.121610 
#    y 0.000000 2.191290 0.000000 
#    z -0.121610 0.000000 2.232650 
# 
# From -- ./inp_files/210621.got.cif
#   From: 2010.05.17/outbox.cif.g08.bks.cpg/sg15_106_cif.got.tgz:210621.got - 2010.06.03 18:47:42.
