data_PCOD9258356
_publ_section_title
;
Structure prediction by ZEFSAII (Michael W. Deem and Ramdas Pophale) SiO2 
 PCOD9258356
Probable space group: C 2/C
;
_chemical_formula_sum "Si O2"
_cell_formula_units_Z 32
_cell_length_a 8.822416
_cell_length_b 8.693354
_cell_length_c 16.761827
_cell_angle_alpha 90.000000
_cell_angle_beta 65.298163
_cell_angle_gamma 90.000000
_cell_volume 1167.935036
_symmetry_space_group_name_H-M "C 2/C"
_symmetry_group_IT_number 15
_symmetry_cell_setting 'monoclinic'
loop_
_space_group_symop_operation_xyz
x,y,z
-x,y,1/2-z
-x,-y,-z
x,-y,1/2+z
1/2+x,1/2+y,z
1/2-x,1/2+y,1/2-z
1/2-x,1/2-y,-z
1/2+x,1/2-y,1/2+z
loop_
_atom_site_type_symbol
_atom_site_label
_atom_site_fract_x
_atom_site_fract_y
_atom_site_fract_z
Si Si1 0.683533 0.500001 0.673442
Si Si2 0.314836 0.834665 0.326904
Si Si3 0.314836 0.834667 0.826904
Si Si4 0.834589 0.500001 0.981042
O O1 0.500000 0.500002 0.750000
O O2 0.763229 0.331709 0.673458
O O3 0.763229 0.668293 0.673457
O O4 0.683926 0.500000 0.576514
O O5 0.500000 0.832668 0.250000
O O6 0.329509 0.140315 0.419142
O O7 0.329510 0.859683 0.419142
O O8 0.500000 0.832670 0.750000
O O9 0.236468 0.000001 0.818781
O O10 0.000000 0.500000 0.000000
#
# Coordination Sequence:
#
# PCOD9258356 Si02
#       4
#     8   8   8   8
#     4  10  18  33  55  75  95 135 175 196 235 310
#     4   8  17  33  55  71  97 134 173 195 241 301
#     4   8  17  33  55  71  97 134 173 195 241 301
#     4  10  19  33  52  77 106 125 159 218 254 274
#
# _framework density 27.398783999999999
#
# number of rings (size 3 to 8) (size 9 to 14) (size 15 to 20)
#    1.500    1.500    0.000    1.500    0.000    0.000 
#    0.000   11.250    0.000    0.000    0.000    0.000 
#    0.000    0.000    0.000    0.000    0.000    0.000 
#
# Total GULP energy -89295.592109 kJ/mol
# GULP energy per Si atom -5580.974507 kJ/mol
# Density = 2.733642 g / cm^3
# Si number density = 27.398784 Si / 1000 Ang^3
#
#
#
# Elastic Constant Matrix: (Units=GPa)
#
#
# Indices 1 2 3 4 5 6 
#
# 1 129.3164 51.8034 37.7616 0.0000 20.5170 0.0000
# 2 51.8034 338.8078 40.5591 0.0000 39.1108 0.0000
# 3 37.7616 40.5591 226.6751 0.0000 -15.8773 0.0000
# 4 0.0000 0.0000 0.0000 55.9890 0.0000 25.1051
# 5 20.5170 39.1108 -15.8773 0.0000 28.8994 0.0000
# 6 0.0000 0.0000 0.0000 25.1051 0.0000 31.3415
#
#
#
# Elastic Compliance Matrix: (Units=1/GPa)
#
#
# Indices 1 2 3 4 5 6 
#
# 1 0.009677 -0.000364 -0.002074 0.000000 -0.007517 0.000000
# 2 -0.000364 0.003742 -0.000983 0.000000 -0.005346 0.000000
# 3 -0.002074 -0.000983 0.005335 0.000000 0.005734 0.000000
# 4 0.000000 0.000000 0.000000 0.027871 0.000000 -0.022325
# 5 -0.007517 -0.005346 0.005734 0.000000 0.050325 0.000000
# 6 0.000000 0.000000 0.000000 -0.022325 0.000000 0.049789
#
#
# Mechanical properties :
#
#
# Convention : Reuss Voigt Hill
#
# Bulk Modulus (GPa) = 83.94735 106.11640 95.03187
# Shear Modulus (GPa) = 31.73574 60.89100 46.31337
#
# Velocity S-wave (km/s) = 3.40706 4.71935 4.11584
# Velocity P-wave (km/s) = 6.79581 8.27712 7.57277
#
# Compressibility (1/GPa) = 0.01191223
#
# Stress axis : x y z
#
# Youngs Moduli (GPa) = 103.34049 267.23492 187.45465
#
# Poissons Ratio (x) = 0.09717 0.38869
# Poissons Ratio (y) = 0.03757 0.18436
# Poissons Ratio (z) = 0.21428 0.26282
#
# Static dielectric constant tensor:
#      x y z
#    x 2.030480 0.000000 0.144040 
#    y 0.000000 2.235710 0.000000 
#    z 0.144040 0.000000 2.222580 
# 
# From -- ./inp_files/102256.got.cif
#   From: 2010.05.17/outbox.cif.g08.bks.cpg/sg15_52_cif.got.tgz:102256.got - 2010.06.03 18:47:42.
