data_PCOD9258665
_publ_section_title
;
Structure prediction by ZEFSAII (Michael W. Deem and Ramdas Pophale) SiO2 
 PCOD9258665
Probable space group: C 2/C
;
_chemical_formula_sum "Si O2"
_cell_formula_units_Z 60
_cell_length_a 28.483067
_cell_length_b 13.034478
_cell_length_c 9.159612
_cell_angle_alpha 90.000000
_cell_angle_beta 105.743849
_cell_angle_gamma 90.000000
_cell_volume 3273.038837
_symmetry_space_group_name_H-M "C 2/C"
_symmetry_group_IT_number 15
_symmetry_cell_setting 'monoclinic'
loop_
_space_group_symop_operation_xyz
x,y,z
-x,y,1/2-z
-x,-y,-z
x,-y,1/2+z
1/2+x,1/2+y,z
1/2-x,1/2+y,1/2-z
1/2-x,1/2-y,-z
1/2+x,1/2-y,1/2+z
loop_
_atom_site_type_symbol
_atom_site_label
_atom_site_fract_x
_atom_site_fract_y
_atom_site_fract_z
Si Si1 0.500000 0.511018 0.750000
Si Si2 0.228367 0.217462 0.734685
Si Si3 0.195886 0.923059 0.477163
Si Si4 0.833427 0.372145 0.386984
Si Si5 0.432615 0.536309 0.937864
Si Si6 0.800127 0.436627 0.677691
Si Si7 0.380605 0.677613 0.367981
Si Si8 0.652491 0.627179 0.461501
O O1 0.458899 0.568535 0.810580
O O2 0.469984 0.449336 0.603181
O O3 0.208922 0.156477 0.861770
O O4 0.285799 0.192408 0.789191
O O5 0.212724 0.335228 0.740152
O O6 0.200184 0.177100 0.569847
O O7 0.245575 0.970030 0.584238
O O8 0.163925 0.870810 0.575491
O O9 0.165200 0.019023 0.394930
O O10 0.825170 0.402879 0.548135
O O11 0.829461 0.476172 0.288448
O O12 0.879859 0.296208 0.418686
O O13 0.420700 0.413303 0.919695
O O14 0.384553 0.598824 0.939695
O O15 0.371551 0.689369 0.187961
#
# Coordination Sequence:
#
# PCOD9258665 Si02
#       8
#     4   8   8   8   8   8   8   8
#     4  10  20  38  60  86 118 142 168 220 290 356
#     4  11  21  35  50  74 108 152 201 237 265 322
#     4  10  18  34  49  70 106 146 196 231 272 308
#     4  11  23  36  52  71 108 150 200 243 273 305
#     4  10  21  37  58  87 117 145 173 221 282 353
#     4  11  22  35  49  72 101 150 200 244 271 302
#     4  11  21  35  51  78 111 149 183 224 277 326
#     4  11  22  31  54  82 109 152 188 220 268 336
#
# _framework density 18.331589000000001
#
# number of rings (size 3 to 8) (size 9 to 14) (size 15 to 20)
#    0.000    1.333    5.333    2.400    5.600    0.533 
#    0.000    0.000    0.000    0.000    0.000    0.000 
#    0.000   18.133    0.000    0.000    0.000    0.000 
#
# Total GULP energy -167189.775104 kJ/mol
# GULP energy per Si atom -5572.992503 kJ/mol
# Density = 1.828987 g / cm^3
# Si number density = 18.331589 Si / 1000 Ang^3
#
#
#
# Elastic Constant Matrix: (Units=GPa)
#
#
# Indices 1 2 3 4 5 6 
#
# 1 33.6260 8.5532 -5.8220 0.0000 -0.8752 0.0000
# 2 8.5532 89.2313 17.0323 0.0000 -1.4244 0.0000
# 3 -5.8220 17.0323 56.9185 0.0000 2.6647 0.0000
# 4 0.0000 0.0000 0.0000 17.0164 0.0000 -3.3301
# 5 -0.8752 -1.4244 2.6647 0.0000 17.3878 0.0000
# 6 0.0000 0.0000 0.0000 -3.3301 0.0000 7.1858
#
#
#
# Elastic Compliance Matrix: (Units=1/GPa)
#
#
# Indices 1 2 3 4 5 6 
#
# 1 0.031482 -0.003836 0.004340 0.000000 0.000605 0.000000
# 2 -0.003836 0.012394 -0.004170 0.000000 0.001461 0.000000
# 3 0.004340 -0.004170 0.019406 0.000000 -0.003097 0.000000
# 4 0.000000 0.000000 0.000000 0.064628 0.000000 0.029951
# 5 0.000605 0.001461 -0.003097 0.000000 0.058136 0.000000
# 6 0.000000 0.000000 0.000000 0.029951 0.000000 0.153043
#
#
# Mechanical properties :
#
#
# Convention : Reuss Voigt Hill
#
# Bulk Modulus (GPa) = 17.87343 24.36700 21.12022
# Shear Modulus (GPa) = 13.69598 18.98550 16.34074
#
# Velocity S-wave (km/s) = 2.73632 3.22168 2.98887
# Velocity P-wave (km/s) = 4.44461 5.21154 4.84328
#
# Compressibility (1/GPa) = 0.05594898
#
# Stress axis : x y z
#
# Youngs Moduli (GPa) = 31.76431 80.68578 51.53164
#
# Poissons Ratio (x) = 0.30954 -0.22364
# Poissons Ratio (y) = 0.12186 0.21486
# Poissons Ratio (z) = -0.13785 0.33642
#
# Static dielectric constant tensor:
#      x y z
#    x 1.668200 0.000000 -0.006450 
#    y 0.000000 1.665820 0.000000 
#    z -0.006450 0.000000 1.656370 
# 
# From -- ./inp_files/69089.got.cif
#   From: 2010.05.17/outbox.cif.g08.bks.cpg/sg15_35_cif.got.tgz:69089.got - 2010.06.03 18:47:42.
