data_PCOD9258467
_publ_section_title
;
Structure prediction by ZEFSAII (Michael W. Deem and Ramdas Pophale) SiO2 
 PCOD9258467
Probable space group: C 2/C
;
_chemical_formula_sum "Si O2"
_cell_formula_units_Z 52
_cell_length_a 10.364186
_cell_length_b 20.701227
_cell_length_c 14.241598
_cell_angle_alpha 90.000000
_cell_angle_beta 48.100291
_cell_angle_gamma 90.000000
_cell_volume 2274.294724
_symmetry_space_group_name_H-M "C 2/C"
_symmetry_group_IT_number 15
_symmetry_cell_setting 'monoclinic'
loop_
_space_group_symop_operation_xyz
x,y,z
-x,y,1/2-z
-x,-y,-z
x,-y,1/2+z
1/2+x,1/2+y,z
1/2-x,1/2+y,1/2-z
1/2-x,1/2-y,-z
1/2+x,1/2-y,1/2+z
loop_
_atom_site_type_symbol
_atom_site_label
_atom_site_fract_x
_atom_site_fract_y
_atom_site_fract_z
Si Si1 0.793143 0.187268 0.570704
Si Si2 0.500000 0.903379 0.250000
Si Si3 0.132331 0.760980 0.819048
Si Si4 0.949260 0.086918 0.945903
Si Si5 0.211389 0.685995 0.957565
Si Si6 0.266117 0.504600 0.201943
Si Si7 0.607851 0.872970 0.794118
O O1 0.627950 0.141689 0.625002
O O2 0.703712 0.238302 0.684565
O O3 0.929029 0.223437 0.435600
O O4 0.921539 0.136912 0.563491
O O5 0.624364 0.950965 0.246590
O O6 0.207753 0.706611 0.852178
O O7 0.231894 0.825972 0.800683
O O8 0.837763 0.129427 0.929103
O O9 0.833664 0.045349 0.076829
O O10 0.069350 0.033016 0.839229
O O11 0.250000 0.750000 0.000000
O O12 0.020345 0.663518 0.075538
O O13 0.175189 0.560550 0.304318
O O14 0.500000 0.883568 0.750000
#
# Coordination Sequence:
#
# PCOD9258467 Si02
#       7
#     8   4   8   8   8   8   8
#     4  11  23  39  58  88 119 153 194 242 297 347
#     4  10  22  38  60  84 114 156 202 244 282 344
#     4  12  23  36  59  90 122 149 190 246 303 358
#     4  10  19  32  54  88 114 148 188 248 286 334
#     4  12  19  31  54  88 120 146 182 241 303 345
#     4  10  18  33  57  83 115 152 207 236 276 344
#     4  12  18  31  55  88 115 148 190 241 290 340
#
# _framework density 22.864229000000002
#
# number of rings (size 3 to 8) (size 9 to 14) (size 15 to 20)
#    0.000    0.923    8.462    0.000    0.000    0.615 
#    0.000    0.000    0.000   10.154    0.000    0.000 
#    0.000    0.000    0.000    0.000    0.000    0.000 
#
# Total GULP energy -145247.510791 kJ/mol
# GULP energy per Si atom -5586.442723 kJ/mol
# Density = 2.281219 g / cm^3
# Si number density = 22.864229 Si / 1000 Ang^3
#
#
#
# Elastic Constant Matrix: (Units=GPa)
#
#
# Indices 1 2 3 4 5 6 
#
# 1 77.5804 47.1849 55.5489 0.0000 -16.4280 0.0000
# 2 47.1849 151.1697 72.6569 0.0000 -21.9845 0.0000
# 3 55.5489 72.6569 130.1279 0.0000 -35.0316 0.0000
# 4 0.0000 0.0000 0.0000 59.2694 0.0000 -33.2376
# 5 -16.4280 -21.9845 -35.0316 0.0000 36.8630 0.0000
# 6 0.0000 0.0000 0.0000 -33.2376 0.0000 37.8447
#
#
#
# Elastic Compliance Matrix: (Units=1/GPa)
#
#
# Indices 1 2 3 4 5 6 
#
# 1 0.019433 -0.002824 -0.006505 0.000000 0.000794 0.000000
# 2 -0.002824 0.009469 -0.003897 0.000000 0.000685 0.000000
# 3 -0.006505 -0.003897 0.015093 0.000000 0.009120 0.000000
# 4 0.000000 0.000000 0.000000 0.033247 0.000000 0.029200
# 5 0.000794 0.000685 0.009120 0.000000 0.036557 0.000000
# 6 0.000000 0.000000 0.000000 0.029200 0.000000 0.052069
#
#
# Mechanical properties :
#
#
# Convention : Reuss Voigt Hill
#
# Bulk Modulus (GPa) = 57.00261 78.85104 67.92683
# Shear Modulus (GPa) = 25.23113 39.02790 32.12951
#
# Velocity S-wave (km/s) = 3.32553 4.13600 3.75271
# Velocity P-wave (km/s) = 6.30322 7.57431 6.96781
#
# Compressibility (1/GPa) = 0.01754306
#
# Stress axis : x y z
#
# Youngs Moduli (GPa) = 51.45813 105.60496 66.25643
#
# Poissons Ratio (x) = 0.29818 0.43101
# Poissons Ratio (y) = 0.14530 0.25822
# Poissons Ratio (z) = 0.33475 0.41158
#
# Static dielectric constant tensor:
#      x y z
#    x 1.844990 0.000000 -0.035140 
#    y 0.000000 1.864400 0.000000 
#    z -0.035140 0.000000 1.877910 
# 
# From -- ./inp_files/200326.got.cif
#   From: 2010.05.17/outbox.cif.g08.bks.cpg/sg15_101_cif.got.tgz:200326.got - 2010.06.03 18:47:42.
