data_PCOD9258755
_publ_section_title
;
Structure prediction by ZEFSAII (Michael W. Deem and Ramdas Pophale) SiO2 
 PCOD9258755
Probable space group: C 2/C
;
_chemical_formula_sum "Si O2"
_cell_formula_units_Z 48
_cell_length_a 14.478032
_cell_length_b 14.243721
_cell_length_c 13.220896
_cell_angle_alpha 90.000000
_cell_angle_beta 72.087795
_cell_angle_gamma 90.000000
_cell_volume 2594.274144
_symmetry_space_group_name_H-M "C 2/C"
_symmetry_group_IT_number 15
_symmetry_cell_setting 'monoclinic'
loop_
_space_group_symop_operation_xyz
x,y,z
-x,y,1/2-z
-x,-y,-z
x,-y,1/2+z
1/2+x,1/2+y,z
1/2-x,1/2+y,1/2-z
1/2-x,1/2-y,-z
1/2+x,1/2-y,1/2+z
loop_
_atom_site_type_symbol
_atom_site_label
_atom_site_fract_x
_atom_site_fract_y
_atom_site_fract_z
Si Si1 0.255430 0.389335 0.022728
Si Si2 0.043882 0.400725 0.461842
Si Si3 0.103479 0.672202 0.742044
Si Si4 0.748707 0.606568 0.506805
Si Si5 0.367796 0.225378 0.083659
Si Si6 0.725046 0.246906 0.181006
O O1 0.163679 0.372304 0.129571
O O2 0.279434 0.498085 0.998516
O O3 0.340870 0.325597 0.041834
O O4 0.216784 0.343040 0.932146
O O5 0.070431 0.403986 0.334889
O O6 0.139803 0.389973 0.495135
O O7 0.000000 0.500000 0.500000
O O8 0.968861 0.317782 0.512671
O O9 0.181007 0.731054 0.780810
O O10 0.000000 0.719949 0.750000
O O11 0.699171 0.666314 0.614335
O O12 0.745772 0.662742 0.403000
O O13 0.357738 0.228923 0.207917
#
# Coordination Sequence:
#
# PCOD9258755 Si02
#       6
#     8   8   8   8   8   8
#     4  10  20  34  57  82 118 148 190 235 289 348
#     4  11  20  32  55  89 119 142 186 239 294 339
#     4  10  18  34  54  82 111 144 188 235 281 344
#     4  10  20  38  54  82 114 155 191 240 284 350
#     4  10  20  34  51  88 114 153 184 233 292 352
#     4   9  22  34  54  78 115 155 192 231 294 339
#
# _framework density 18.502285000000001
#
# number of rings (size 3 to 8) (size 9 to 14) (size 15 to 20)
#    0.000    2.000    3.333    0.000    2.333    2.000 
#    0.000    0.000    0.000    9.000    0.000    0.000 
#    0.000    0.000    0.000    0.000    0.000    0.000 
#
# Total GULP energy -133702.853566 kJ/mol
# GULP energy per Si atom -5570.952232 kJ/mol
# Density = 1.846017 g / cm^3
# Si number density = 18.502285 Si / 1000 Ang^3
#
#
#
# Elastic Constant Matrix: (Units=GPa)
#
#
# Indices 1 2 3 4 5 6 
#
# 1 17.4488 0.8206 5.3849 0.0000 -3.4575 0.0000
# 2 0.8206 127.2874 49.5634 0.0000 -1.0124 0.0000
# 3 5.3849 49.5634 126.6510 0.0000 -0.5079 0.0000
# 4 0.0000 0.0000 0.0000 17.0122 0.0000 -0.9096
# 5 -3.4575 -1.0124 -0.5079 0.0000 25.4787 0.0000
# 6 0.0000 0.0000 0.0000 -0.9096 0.0000 18.8124
#
#
#
# Elastic Compliance Matrix: (Units=1/GPa)
#
#
# Indices 1 2 3 4 5 6 
#
# 1 0.059743 0.000773 -0.002810 0.000000 0.008082 0.000000
# 2 0.000773 0.009281 -0.003663 0.000000 0.000401 0.000000
# 3 -0.002810 -0.003663 0.009447 0.000000 -0.000339 0.000000
# 4 0.000000 0.000000 0.000000 0.058934 0.000000 0.002849
# 5 0.008082 0.000401 -0.000339 0.000000 0.040354 0.000000
# 6 0.000000 0.000000 0.000000 0.002849 0.000000 0.053294
#
#
# Mechanical properties :
#
#
# Convention : Reuss Voigt Hill
#
# Bulk Modulus (GPa) = 14.90965 42.54722 28.72844
# Shear Modulus (GPa) = 18.88142 26.63521 22.75832
#
# Velocity S-wave (km/s) = 3.19798 3.79827 3.51098
# Velocity P-wave (km/s) = 4.65960 6.50242 5.65656
#
# Compressibility (1/GPa) = 0.06707067
#
# Stress axis : x y z
#
# Youngs Moduli (GPa) = 16.73843 107.74901 105.84920
#
# Poissons Ratio (x) = -0.08334 0.29748
# Poissons Ratio (y) = -0.01295 0.38775
# Poissons Ratio (z) = 0.04704 0.39471
#
# Static dielectric constant tensor:
#      x y z
#    x 0.843440 0.000000 0.092920 
#    y 0.000000 1.651530 0.000000 
#    z 0.092920 0.000000 1.670800 
# 
# From -- ./inp_files/96306.got.cif
#   From: 2010.05.17/outbox.cif.g08.bks.cpg/sg15_49_cif.got.tgz:96306.got - 2010.06.03 18:47:42.
