data_PCOD9258183
_publ_section_title
;
Structure prediction by ZEFSAII (Michael W. Deem and Ramdas Pophale) SiO2 
 PCOD9258183
Probable space group: C 2/C
;
_chemical_formula_sum "Si O2"
_cell_formula_units_Z 56
_cell_length_a 17.290433
_cell_length_b 23.183196
_cell_length_c 7.815680
_cell_angle_alpha 90.000000
_cell_angle_beta 81.855849
_cell_angle_gamma 90.000000
_cell_volume 3101.299849
_symmetry_space_group_name_H-M "C 2/C"
_symmetry_group_IT_number 15
_symmetry_cell_setting 'monoclinic'
loop_
_space_group_symop_operation_xyz
x,y,z
-x,y,1/2-z
-x,-y,-z
x,-y,1/2+z
1/2+x,1/2+y,z
1/2-x,1/2+y,1/2-z
1/2-x,1/2-y,-z
1/2+x,1/2-y,1/2+z
loop_
_atom_site_type_symbol
_atom_site_label
_atom_site_fract_x
_atom_site_fract_y
_atom_site_fract_z
Si Si1 0.667039 0.073941 0.983003
Si Si2 0.618599 0.258849 0.597392
Si Si3 0.807403 0.698349 0.431190
Si Si4 0.827458 0.548713 0.114866
Si Si5 0.762412 0.335315 0.559633
Si Si6 0.032408 0.725402 0.973766
Si Si7 0.005848 0.596671 0.456451
O O1 0.696886 0.139680 0.952109
O O2 0.670415 0.063403 0.185376
O O3 0.576241 0.071553 0.955941
O O4 0.702546 0.016281 0.893401
O O5 0.675049 0.313274 0.559587
O O6 0.676702 0.204224 0.562182
O O7 0.578164 0.249878 0.794290
O O8 0.546955 0.261573 0.486052
O O9 0.750000 0.750000 0.500000
O O10 0.784448 0.680328 0.248211
O O11 0.898098 0.718038 0.411736
O O12 0.776669 0.597014 0.034542
O O13 0.916656 0.561121 0.024063
O O14 0.995465 0.661217 0.968245
O O15 0.000000 0.601203 0.250000
#
# Coordination Sequence:
#
# PCOD9258183 Si02
#       7
#     8   8   8   8   8   8   8
#     4   9  20  30  48  69  99 135 173 203 248 297
#     4  10  20  32  46  78 101 131 170 216 255 297
#     4  10  19  35  53  73 101 137 172 209 253 307
#     4  10  18  33  46  69  99 137 167 207 246 302
#     4  10  20  34  51  69 109 134 165 213 265 291
#     4  10  19  31  51  74 101 133 175 206 246 309
#     4   9  17  31  48  69 100 140 171 202 242 296
#
# _framework density 18.056944999999999
#
# number of rings (size 3 to 8) (size 9 to 14) (size 15 to 20)
#    0.000    2.286    2.857    1.286    0.000    2.286 
#    0.000    0.000    0.000    0.000    0.000    1.000 
#    0.000    0.000    0.000    0.000    0.000    0.000 
#
# Total GULP energy -155977.830698 kJ/mol
# GULP energy per Si atom -5570.636811 kJ/mol
# Density = 1.801585 g / cm^3
# Si number density = 18.056945 Si / 1000 Ang^3
#
#
#
# Elastic Constant Matrix: (Units=GPa)
#
#
# Indices 1 2 3 4 5 6 
#
# 1 112.2385 60.8849 5.2242 0.0000 6.0283 0.0000
# 2 60.8849 122.3237 15.9870 0.0000 0.1256 0.0000
# 3 5.2242 15.9870 9.4909 0.0000 -8.0733 0.0000
# 4 0.0000 0.0000 0.0000 20.9156 0.0000 -0.5374
# 5 6.0283 0.1256 -8.0733 0.0000 12.3366 0.0000
# 6 0.0000 0.0000 0.0000 -0.5374 0.0000 20.9340
#
#
#
# Elastic Compliance Matrix: (Units=1/GPa)
#
#
# Indices 1 2 3 4 5 6 
#
# 1 0.012757 -0.005401 -0.007175 0.000000 -0.010874 0.000000
# 2 -0.005401 0.018693 -0.059621 0.000000 -0.036568 0.000000
# 3 -0.007175 -0.059621 0.481006 0.000000 0.318894 0.000000
# 4 0.000000 0.000000 0.000000 0.047843 0.000000 0.001228
# 5 -0.010874 -0.036568 0.318894 0.000000 0.295437 0.000000
# 6 0.000000 0.000000 0.000000 0.001228 0.000000 0.047801
#
#
# Mechanical properties :
#
#
# Convention : Reuss Voigt Hill
#
# Bulk Modulus (GPa) = 2.71692 45.36060 24.03876
# Shear Modulus (GPa) = 4.27125 21.63437 12.95281
#
# Velocity S-wave (km/s) = 1.53967 3.46514 2.68121
# Velocity P-wave (km/s) = 2.16071 6.41755 4.78820
#
# Compressibility (1/GPa) = 0.36806345
#
# Stress axis : x y z
#
# Youngs Moduli (GPa) = 78.38585 53.49618 2.07898
#
# Poissons Ratio (x) = 0.28893 0.01492
# Poissons Ratio (y) = 0.42336 0.12395
# Poissons Ratio (z) = 0.56239 3.18949
#
# Static dielectric constant tensor:
#      x y z
#    x 1.637360 0.000000 0.023090 
#    y 0.000000 1.660910 0.000000 
#    z 0.023090 0.000000 1.703740 
# 
# From -- ./inp_files/50950.got.cif
#   From: 2010.05.17/outbox.cif.g08.bks.cpg/sg15_26_cif.got.tgz:50950.got - 2010.06.03 18:47:42.
