data_PCOD9258781
_publ_section_title
;
Structure prediction by ZEFSAII (Michael W. Deem and Ramdas Pophale) SiO2 
 PCOD9258781
Probable space group: C 2/C
;
_chemical_formula_sum "Si O2"
_cell_formula_units_Z 48
_cell_length_a 20.466509
_cell_length_b 11.352646
_cell_length_c 20.532034
_cell_angle_alpha 90.000000
_cell_angle_beta 151.271193
_cell_angle_gamma 90.000000
_cell_volume 2293.056947
_symmetry_space_group_name_H-M "C 2/C"
_symmetry_group_IT_number 15
_symmetry_cell_setting 'monoclinic'
loop_
_space_group_symop_operation_xyz
x,y,z
-x,y,1/2-z
-x,-y,-z
x,-y,1/2+z
1/2+x,1/2+y,z
1/2-x,1/2+y,1/2-z
1/2-x,1/2-y,-z
1/2+x,1/2-y,1/2+z
loop_
_atom_site_type_symbol
_atom_site_label
_atom_site_fract_x
_atom_site_fract_y
_atom_site_fract_z
Si Si1 0.641704 0.514773 0.848694
Si Si2 0.254689 0.608514 0.937424
Si Si3 0.534226 0.727857 0.191462
Si Si4 0.974487 0.306970 0.005456
Si Si5 0.172629 0.542656 0.602266
Si Si6 0.856065 0.062296 0.885560
O O1 0.500000 0.570364 0.750000
O O2 0.592615 0.394835 0.769213
O O3 0.730011 0.578942 0.871448
O O4 0.732015 0.476688 0.989447
O O5 0.111731 0.669895 0.797602
O O6 0.302328 0.545364 0.912085
O O7 0.371100 0.709351 0.051628
O O8 0.563381 0.749038 0.140873
O O9 0.899930 0.417718 0.974123
O O10 0.878141 0.202723 0.898207
O O11 0.061287 0.360219 0.022954
O O12 0.254577 0.522685 0.740838
O O13 0.000000 0.000000 0.000000
#
# Coordination Sequence:
#
# PCOD9258781 Si02
#       6
#     8   8   8   8   8   8
#     4  10  20  34  58  88 124 160 195 245 314 363
#     4  10  20  33  55  87 122 156 195 247 312 370
#     4  10  18  34  54  86 123 155 193 247 306 373
#     4  10  23  38  61  90 122 159 201 250 307 352
#     4  11  22  39  60  87 126 157 201 252 295 367
#     4  11  22  36  63  88 119 158 205 250 300 358
#
# _framework density 20.932756000000001
#
# number of rings (size 3 to 8) (size 9 to 14) (size 15 to 20)
#    0.000    1.667    1.667    5.500    2.333    2.667 
#    0.000    0.000    0.000    4.000    0.000    0.000 
#    0.000    0.000    0.000    0.000    0.000    0.000 
#
# Total GULP energy -134064.516529 kJ/mol
# GULP energy per Si atom -5586.021522 kJ/mol
# Density = 2.088511 g / cm^3
# Si number density = 20.932756 Si / 1000 Ang^3
#
#
#
# Elastic Constant Matrix: (Units=GPa)
#
#
# Indices 1 2 3 4 5 6 
#
# 1 138.5124 13.8595 23.3286 0.0000 0.0183 0.0000
# 2 13.8595 22.9488 -7.6317 0.0000 -2.0691 0.0000
# 3 23.3286 -7.6317 76.6209 0.0001 -9.0500 0.0000
# 4 0.0000 0.0000 0.0001 8.0178 0.0001 -6.3178
# 5 0.0183 -2.0691 -9.0500 0.0001 37.0600 0.0000
# 6 0.0000 0.0000 0.0000 -6.3178 0.0000 15.6943
#
#
#
# Elastic Compliance Matrix: (Units=1/GPa)
#
#
# Indices 1 2 3 4 5 6 
#
# 1 0.008409 -0.006289 -0.003325 0.000000 -0.001167 0.000000
# 2 -0.006289 0.050276 0.007470 0.000000 0.004634 0.000000
# 3 -0.003325 0.007470 0.015298 0.000000 0.004154 0.000000
# 4 0.000000 0.000000 0.000000 0.182664 0.000000 0.073532
# 5 -0.001167 0.004634 0.004154 0.000000 0.028257 0.000000
# 6 0.000000 0.000000 0.000000 0.073532 0.000000 0.093318
#
#
# Mechanical properties :
#
#
# Convention : Reuss Voigt Hill
#
# Bulk Modulus (GPa) = 14.34828 33.02165 23.68497
# Shear Modulus (GPa) = 12.32312 26.05611 19.18961
#
# Velocity S-wave (km/s) = 2.42895 3.53193 3.03103
# Velocity P-wave (km/s) = 3.83871 5.69580 4.85684
#
# Compressibility (1/GPa) = 0.06969477
#
# Stress axis : x y z
#
# Youngs Moduli (GPa) = 118.92085 19.89038 65.36712
#
# Poissons Ratio (x) = 0.12510 0.21732
# Poissons Ratio (y) = 0.74792 -0.48828
# Poissons Ratio (z) = 0.39536 -0.14858
#
# Static dielectric constant tensor:
#      x y z
#    x 1.836750 0.000000 0.025150 
#    y 0.000000 1.735180 0.000000 
#    z 0.025150 0.000000 1.781810 
# 
# From -- ./inp_files/252620.got.cif
#   From: 2010.05.17/outbox.cif.g08.bks.cpg/sg15_127_cif.got.tgz:252620.got - 2010.06.03 18:47:42.
