data_PCOD9258997
_publ_section_title
;
Structure prediction by ZEFSAII (Michael W. Deem and Ramdas Pophale) SiO2 
 PCOD9258997
Probable space group: C 2/C
;
_chemical_formula_sum "Si O2"
_cell_formula_units_Z 52
_cell_length_a 10.815674
_cell_length_b 15.094972
_cell_length_c 22.019730
_cell_angle_alpha 90.000000
_cell_angle_beta 130.255529
_cell_angle_gamma 90.000000
_cell_volume 2743.590218
_symmetry_space_group_name_H-M "C 2/C"
_symmetry_group_IT_number 15
_symmetry_cell_setting 'monoclinic'
loop_
_space_group_symop_operation_xyz
x,y,z
-x,y,1/2-z
-x,-y,-z
x,-y,1/2+z
1/2+x,1/2+y,z
1/2-x,1/2+y,1/2-z
1/2-x,1/2-y,-z
1/2+x,1/2-y,1/2+z
loop_
_atom_site_type_symbol
_atom_site_label
_atom_site_fract_x
_atom_site_fract_y
_atom_site_fract_z
Si Si1 0.992932 0.925762 0.945123
Si Si2 0.678391 0.546424 0.706312
Si Si3 0.940267 0.198537 0.663560
Si Si4 0.683311 0.877747 0.906874
Si Si5 0.321764 0.960322 0.006195
Si Si6 0.192480 0.550062 0.622355
Si Si7 0.000000 0.498083 0.750000
O O1 0.856275 0.861250 0.928454
O O2 0.920942 0.972963 0.862350
O O3 0.000000 0.000000 0.000000
O O4 0.177443 0.901406 0.988227
O O5 0.575479 0.636036 0.676539
O O6 0.716243 0.520714 0.787668
O O7 0.850714 0.554388 0.727888
O O8 0.898738 0.283398 0.610395
O O9 0.786898 0.135559 0.627634
O O10 0.000000 0.227572 0.750000
O O11 0.699362 0.941956 0.969726
O O12 0.574159 0.935723 0.825904
O O13 0.504533 0.930249 0.076792
O O14 0.304135 0.975883 0.928807
#
# Coordination Sequence:
#
# PCOD9258997 Si02
#       7
#     8   8   8   8   8   8   4
#     4   9  19  34  54  81 107 141 184 228 258 325
#     4  10  19  35  57  78 109 143 188 219 278 325
#     4  10  20  34  55  84 109 140 181 232 274 323
#     4  10  19  34  57  81 108 136 184 229 272 311
#     4  10  19  35  54  79 112 144 187 219 266 332
#     4  10  20  33  53  80 109 148 182 221 270 332
#     4  10  18  34  58  82  96 146 180 226 262 326
#
# _framework density 18.953267
#
# number of rings (size 3 to 8) (size 9 to 14) (size 15 to 20)
#    0.000    2.154    3.846    0.000    0.000    0.615 
#    0.000    0.769    0.000    9.231    0.000    0.000 
#    0.000    0.000    0.000    0.000    0.000    0.000 
#
# Total GULP energy -144947.710139 kJ/mol
# GULP energy per Si atom -5574.911928 kJ/mol
# Density = 1.891013 g / cm^3
# Si number density = 18.953267 Si / 1000 Ang^3
#
#
#
# Elastic Constant Matrix: (Units=GPa)
#
#
# Indices 1 2 3 4 5 6 
#
# 1 125.5288 22.6067 20.4927 0.0000 36.0789 0.0000
# 2 22.6067 31.0763 7.1555 0.0000 5.6624 0.0000
# 3 20.4927 7.1555 88.8422 0.0000 -4.9635 0.0000
# 4 0.0000 0.0000 0.0000 13.7520 0.0000 1.0629
# 5 36.0789 5.6624 -4.9635 0.0000 37.9478 0.0000
# 6 0.0000 0.0000 0.0000 1.0629 0.0000 13.5488
#
#
#
# Elastic Compliance Matrix: (Units=1/GPa)
#
#
# Indices 1 2 3 4 5 6 
#
# 1 0.013083 -0.006632 -0.003146 0.000000 -0.011861 0.000000
# 2 -0.006632 0.037232 -0.001438 0.000000 0.000562 0.000000
# 3 -0.003146 -0.001438 0.012367 0.000000 0.004824 0.000000
# 4 0.000000 0.000000 0.000000 0.073160 0.000000 -0.005740
# 5 -0.011861 0.000562 0.004824 0.000000 0.038176 0.000000
# 6 0.000000 0.000000 0.000000 -0.005740 0.000000 0.074257
#
#
# Mechanical properties :
#
#
# Convention : Reuss Voigt Hill
#
# Bulk Modulus (GPa) = 24.84441 38.43967 31.64204
# Shear Modulus (GPa) = 17.59792 26.06256 21.83024
#
# Velocity S-wave (km/s) = 3.05042 3.71225 3.39749
# Velocity P-wave (km/s) = 5.05405 6.22091 5.66759
#
# Compressibility (1/GPa) = 0.04025050
#
# Stress axis : x y z
#
# Youngs Moduli (GPa) = 76.43322 26.85860 80.86078
#
# Poissons Ratio (x) = 0.17812 0.25442
# Poissons Ratio (y) = 0.50690 0.11624
# Poissons Ratio (z) = 0.24049 0.03861
#
# Static dielectric constant tensor:
#      x y z
#    x 1.705380 0.000000 0.007770 
#    y 0.000000 1.609390 0.000000 
#    z 0.007770 0.000000 1.709780 
# 
# From -- ./inp_files/197699.got.cif
#   From: 2010.05.17/outbox.cif.g08.bks.cpg/sg15_99_cif.got.tgz:197699.got - 2010.06.03 18:47:42.
