data_PCOD9258353
_publ_section_title
;
Structure prediction by ZEFSAII (Michael W. Deem and Ramdas Pophale) SiO2 
 PCOD9258353
Probable space group: C 2/C
;
_chemical_formula_sum "Si O2"
_cell_formula_units_Z 64
_cell_length_a 22.650218
_cell_length_b 16.576138
_cell_length_c 8.361809
_cell_angle_alpha 90.000000
_cell_angle_beta 91.908195
_cell_angle_gamma 90.000000
_cell_volume 3137.726490
_symmetry_space_group_name_H-M "C 2/C"
_symmetry_group_IT_number 15
_symmetry_cell_setting 'monoclinic'
loop_
_space_group_symop_operation_xyz
x,y,z
-x,y,1/2-z
-x,-y,-z
x,-y,1/2+z
1/2+x,1/2+y,z
1/2-x,1/2+y,1/2-z
1/2-x,1/2-y,-z
1/2+x,1/2-y,1/2+z
loop_
_atom_site_type_symbol
_atom_site_label
_atom_site_fract_x
_atom_site_fract_y
_atom_site_fract_z
Si Si1 0.550842 0.101649 0.867438
Si Si2 0.240984 0.472905 0.794781
Si Si3 0.250878 0.625741 0.618565
Si Si4 0.193273 0.162316 0.361631
Si Si5 0.316356 0.741282 0.814888
Si Si6 0.885127 0.406539 0.816827
Si Si7 0.128992 0.283591 0.145601
Si Si8 0.535328 0.184517 0.395948
O O1 0.500000 0.061461 0.750000
O O2 0.595203 0.152438 0.759207
O O3 0.589489 0.060386 0.012532
O O4 0.511618 0.160489 0.974255
O O5 0.247775 0.567869 0.773288
O O6 0.286231 0.426924 0.680421
O O7 0.172949 0.454330 0.741113
O O8 0.253806 0.431224 0.965061
O O9 0.303391 0.688782 0.655497
O O10 0.189527 0.673373 0.599048
O O11 0.253507 0.213973 0.338518
O O12 0.172615 0.181073 0.537865
O O13 0.145837 0.202762 0.240167
O O14 0.362872 0.813589 0.830119
O O15 0.934580 0.394777 0.684403
O O16 0.086709 0.269883 0.992027
O O17 0.500000 0.226699 0.250000
#
# Coordination Sequence:
#
# PCOD9258353 Si02
#       8
#     8   8   8   8   8   8   8   8
#     4   9  18  31  52  77 100 130 166 217 254 290
#     4  11  23  34  50  73 104 138 172 206 245 306
#     4  11  23  34  50  73 104 138 172 206 246 305
#     4   9  18  31  51  76 101 129 166 203 247 307
#     4   9  18  31  51  76 101 130 164 203 250 304
#     4  10  18  33  55  75 103 136 165 206 258 297
#     4  10  18  33  55  75 101 137 168 202 261 300
#     4   9  18  31  50  77 102 127 169 221 252 286
#
# _framework density 20.396934000000002
#
# number of rings (size 3 to 8) (size 9 to 14) (size 15 to 20)
#    0.000    2.250    2.500    0.750    5.250    1.500 
#    0.000    0.000    0.000   15.000    0.000    0.000 
#    0.000   20.000    0.000    0.000    0.000    0.000 
#
# Total GULP energy -178571.327330 kJ/mol
# GULP energy per Si atom -5580.353979 kJ/mol
# Density = 2.035051 g / cm^3
# Si number density = 20.396934 Si / 1000 Ang^3
#
#
#
# Elastic Constant Matrix: (Units=GPa)
#
#
# Indices 1 2 3 4 5 6 
#
# 1 67.1057 33.1328 38.4968 0.0000 10.0913 0.0000
# 2 33.1328 59.2537 27.5605 0.0000 17.1372 0.0000
# 3 38.4968 27.5605 116.0108 0.0000 30.8126 0.0000
# 4 0.0000 0.0000 0.0000 30.0637 0.0000 1.1088
# 5 10.0913 17.1372 30.8126 0.0000 36.9748 0.0000
# 6 0.0000 0.0000 0.0000 1.1088 0.0000 13.8200
#
#
#
# Elastic Compliance Matrix: (Units=1/GPa)
#
#
# Indices 1 2 3 4 5 6 
#
# 1 0.023458 -0.011422 -0.006134 0.000000 0.004003 0.000000
# 2 -0.011422 0.025821 0.000008 0.000000 -0.008857 0.000000
# 3 -0.006134 0.000008 0.013112 0.000000 -0.009256 0.000000
# 4 0.000000 0.000000 0.000000 0.033361 0.000000 -0.002677
# 5 0.004003 -0.008857 -0.009256 0.000000 0.037772 0.000000
# 6 0.000000 0.000000 0.000000 -0.002677 0.000000 0.072573
#
#
# Mechanical properties :
#
#
# Convention : Reuss Voigt Hill
#
# Bulk Modulus (GPa) = 36.63511 48.97230 42.80370
# Shear Modulus (GPa) = 19.97670 25.71706 22.84688
#
# Velocity S-wave (km/s) = 3.13293 3.55467 3.35044
# Velocity P-wave (km/s) = 5.57558 6.39604 5.99985
#
# Compressibility (1/GPa) = 0.02729622
#
# Stress axis : x y z
#
# Youngs Moduli (GPa) = 42.62894 38.72810 76.26626
#
# Poissons Ratio (x) = 0.44234 0.46783
# Poissons Ratio (y) = 0.48690 -0.00064
# Poissons Ratio (z) = 0.26149 -0.00033
#
# Static dielectric constant tensor:
#      x y z
#    x 1.751050 0.000000 -0.018310 
#    y 0.000000 1.692710 0.000000 
#    z -0.018310 0.000000 1.836350 
# 
# From -- ./inp_files/62521.got.cif
#   From: 2010.05.17/outbox.cif.g08.bks.cpg/sg15_32_cif.got.tgz:62521.got - 2010.06.03 18:47:42.
