data_PCOD9258360
_publ_section_title
;
Structure prediction by ZEFSAII (Michael W. Deem and Ramdas Pophale) SiO2 
 PCOD9258360
Probable space group: C 2/C
;
_chemical_formula_sum "Si O2"
_cell_formula_units_Z 56
_cell_length_a 7.498389
_cell_length_b 20.215364
_cell_length_c 21.214587
_cell_angle_alpha 90.000000
_cell_angle_beta 47.096234
_cell_angle_gamma 90.000000
_cell_volume 2355.540896
_symmetry_space_group_name_H-M "C 2/C"
_symmetry_group_IT_number 15
_symmetry_cell_setting 'monoclinic'
loop_
_space_group_symop_operation_xyz
x,y,z
-x,y,1/2-z
-x,-y,-z
x,-y,1/2+z
1/2+x,1/2+y,z
1/2-x,1/2+y,1/2-z
1/2-x,1/2-y,-z
1/2+x,1/2-y,1/2+z
loop_
_atom_site_type_symbol
_atom_site_label
_atom_site_fract_x
_atom_site_fract_y
_atom_site_fract_z
Si Si1 0.635419 0.647853 0.378127
Si Si2 0.842202 0.607344 0.202028
Si Si3 0.756597 0.265805 0.655802
Si Si4 0.406339 0.770951 0.025878
Si Si5 0.644439 0.430583 0.460989
Si Si6 0.522687 0.636176 0.628870
Si Si7 0.647528 0.040287 0.781165
O O1 0.670644 0.641924 0.295612
O O2 0.645235 0.720217 0.405604
O O3 0.412129 0.609531 0.462246
O O4 0.877450 0.609321 0.343841
O O5 0.835780 0.658364 0.146945
O O6 0.769610 0.531515 0.214951
O O7 0.500000 0.256958 0.750000
O O8 0.899757 0.208569 0.659405
O O9 0.820862 0.258172 0.566362
O O10 0.305180 0.843432 0.068179
O O11 0.250000 0.750000 0.000000
O O12 0.500000 0.500000 0.500000
O O13 0.526975 0.393006 0.428965
O O14 0.931316 0.435861 0.378697
O O15 0.374222 0.588407 0.711578
O O16 0.500000 0.032378 0.750000
#
# Coordination Sequence:
#
# PCOD9258360 Si02
#       7
#     8   8   8   8   8   8   8
#     4  11  18  32  50  82 111 138 184 219 277 324
#     4  11  20  34  52  79 112 144 179 227 275 324
#     4  11  21  36  58  78 107 145 188 224 265 329
#     4  10  18  33  55  77 105 148 184 217 262 333
#     4  11  17  26  48  79 117 138 165 225 283 330
#     4  10  19  32  52  81 108 142 180 223 272 325
#     4  10  19  29  49  82 112 138 175 228 287 318
#
# _framework density 23.773734000000001
#
# number of rings (size 3 to 8) (size 9 to 14) (size 15 to 20)
#    0.000    1.429    8.571    2.143    0.000    0.000 
#    0.000    0.714    0.000    2.571    0.000    0.000 
#    0.000    0.000    0.000    0.000    0.000    0.000 
#
# Total GULP energy -156267.247655 kJ/mol
# GULP energy per Si atom -5580.973131 kJ/mol
# Density = 2.371962 g / cm^3
# Si number density = 23.773734 Si / 1000 Ang^3
#
#
#
# Elastic Constant Matrix: (Units=GPa)
#
#
# Indices 1 2 3 4 5 6 
#
# 1 36.7691 18.9127 5.7750 0.0000 -7.1224 0.0000
# 2 18.9127 141.2690 58.7656 0.0000 -0.9494 0.0000
# 3 5.7750 58.7656 166.6392 0.0000 -17.9145 0.0000
# 4 0.0000 0.0000 0.0000 51.8907 0.0000 1.8294
# 5 -7.1224 -0.9494 -17.9145 0.0000 18.3022 0.0000
# 6 0.0000 0.0000 0.0000 1.8294 0.0000 1.6177
#
#
#
# Elastic Compliance Matrix: (Units=1/GPa)
#
#
# Indices 1 2 3 4 5 6 
#
# 1 0.032314 -0.005171 0.002265 0.000000 0.014524 -0.000001
# 2 -0.005171 0.009246 -0.003628 0.000000 -0.005084 0.000000
# 3 0.002265 -0.003628 0.008132 0.000000 0.008653 0.000000
# 4 0.000000 0.000000 0.000000 0.020072 0.000000 -0.022699
# 5 0.014524 -0.005084 0.008653 0.000000 0.068496 0.000000
# 6 -0.000001 0.000000 0.000000 -0.022699 0.000000 0.643840
#
#
# Mechanical properties :
#
#
# Convention : Reuss Voigt Hill
#
# Bulk Modulus (GPa) = 27.30389 56.84265 42.07327
# Shear Modulus (GPa) = 6.19290 31.77705 18.98498
#
# Velocity S-wave (km/s) = 1.61573 3.65998 2.82896
# Velocity P-wave (km/s) = 3.87177 6.46702 5.32978
#
# Compressibility (1/GPa) = 0.03662482
#
# Stress axis : x y z
#
# Youngs Moduli (GPa) = 30.94634 108.15581 122.96901
#
# Poissons Ratio (x) = 0.55924 -0.27852
# Poissons Ratio (y) = 0.16001 0.44612
# Poissons Ratio (z) = -0.07009 0.39238
#
# Static dielectric constant tensor:
#      x y z
#    x 2.024750 0.000000 -0.086990 
#    y 0.000000 1.909810 0.000000 
#    z -0.086990 0.000000 1.969280 
# 
# From -- ./inp_files/293671.got.cif
#   From: 2010.05.17/outbox.cif.g08.bks.cpg/sg15_147_cif.got.tgz:293671.got - 2010.06.03 18:47:42.
