data_PCOD9258007
_publ_section_title
;
Structure prediction by ZEFSAII (Michael W. Deem and Ramdas Pophale) SiO2 
 PCOD9258007
Probable space group: C 2/C
;
_chemical_formula_sum "Si O2"
_cell_formula_units_Z 56
_cell_length_a 9.008214
_cell_length_b 16.153866
_cell_length_c 23.184435
_cell_angle_alpha 90.000000
_cell_angle_beta 54.322078
_cell_angle_gamma 90.000000
_cell_volume 2740.517574
_symmetry_space_group_name_H-M "C 2/C"
_symmetry_group_IT_number 15
_symmetry_cell_setting 'monoclinic'
loop_
_space_group_symop_operation_xyz
x,y,z
-x,y,1/2-z
-x,-y,-z
x,-y,1/2+z
1/2+x,1/2+y,z
1/2-x,1/2+y,1/2-z
1/2-x,1/2-y,-z
1/2+x,1/2-y,1/2+z
loop_
_atom_site_type_symbol
_atom_site_label
_atom_site_fract_x
_atom_site_fract_y
_atom_site_fract_z
Si Si1 0.551734 0.757003 0.801599
Si Si2 0.817620 0.003920 0.162561
Si Si3 0.164108 0.879803 0.080165
Si Si4 0.303719 0.545010 0.038905
Si Si5 0.944363 0.452131 0.103378
Si Si6 0.212124 0.098099 0.214697
Si Si7 0.385477 0.142345 0.729956
O O1 0.500000 0.790569 0.750000
O O2 0.409692 0.702064 0.870940
O O3 0.646707 0.826371 0.819246
O O4 0.708076 0.690781 0.750398
O O5 0.758025 0.048598 0.116982
O O6 0.801562 0.069352 0.216339
O O7 0.683217 0.930747 0.212311
O O8 0.013373 0.955333 0.118931
O O9 0.346531 0.907270 0.072399
O O10 0.184440 0.876074 0.005938
O O11 0.142935 0.490468 0.046789
O O12 0.500000 0.500000 0.000000
O O13 0.802308 0.522883 0.157831
O O14 0.972409 0.391539 0.151888
O O15 0.000000 0.114198 0.250000
O O16 0.500000 0.195510 0.750000
#
# Coordination Sequence:
#
# PCOD9258007 Si02
#       7
#     8   8   8   8   8   8   8
#     4  11  23  36  58  89 121 156 193 250 306 355
#     4   9  19  34  59  88 115 151 197 250 294 348
#     4  10  20  39  60  86 120 156 199 241 297 358
#     4  10  21  36  58  91 119 151 202 254 292 352
#     4  11  20  36  63  89 115 160 203 245 298 354
#     4  11  23  38  61  89 125 155 199 252 304 355
#     4  10  18  32  57  87 116 148 200 247 299 350
#
# _framework density 20.434097999999999
#
# number of rings (size 3 to 8) (size 9 to 14) (size 15 to 20)
#    0.000    1.714    4.286    0.857    2.000    0.000 
#    0.000    0.714    0.000    0.857    0.000    0.000 
#    0.000    0.000    0.000    0.000    0.000    0.000 
#
# Total GULP energy -155946.617778 kJ/mol
# GULP energy per Si atom -5569.522064 kJ/mol
# Density = 2.038759 g / cm^3
# Si number density = 20.434098 Si / 1000 Ang^3
#
#
#
# Elastic Constant Matrix: (Units=GPa)
#
#
# Indices 1 2 3 4 5 6 
#
# 1 120.1926 18.0187 13.3921 -0.0001 0.4795 0.0001
# 2 18.0187 43.1909 5.8529 -0.0001 6.9830 0.0001
# 3 13.3921 5.8529 37.4637 -0.0002 13.8104 0.0002
# 4 -0.0001 -0.0001 -0.0002 11.1413 0.0001 -3.8593
# 5 0.4795 6.9830 13.8104 0.0001 38.4164 -0.0001
# 6 0.0001 0.0001 0.0002 -3.8593 -0.0001 26.1913
#
#
#
# Elastic Compliance Matrix: (Units=1/GPa)
#
#
# Indices 1 2 3 4 5 6 
#
# 1 0.009242 -0.003684 -0.003380 0.000000 0.001769 0.000000
# 2 -0.003684 0.025519 -0.001126 0.000000 -0.004188 0.000000
# 3 -0.003380 -0.001126 0.032261 0.000001 -0.011351 0.000000
# 4 0.000000 0.000000 0.000001 0.094584 -0.000001 0.013937
# 5 0.001769 -0.004188 -0.011351 -0.000001 0.030850 0.000000
# 6 0.000000 0.000000 0.000000 0.013937 0.000000 0.040234
#
#
# Mechanical properties :
#
#
# Convention : Reuss Voigt Hill
#
# Bulk Modulus (GPa) = 19.74656 30.59717 25.17187
# Shear Modulus (GPa) = 18.80040 26.05536 22.42788
#
# Velocity S-wave (km/s) = 3.03652 3.57472 3.31656
# Velocity P-wave (km/s) = 4.68812 5.66076 5.19724
#
# Compressibility (1/GPa) = 0.05064173
#
# Stress axis : x y z
#
# Youngs Moduli (GPa) = 108.20403 39.18575 30.99707
#
# Poissons Ratio (x) = 0.14434 0.10478
# Poissons Ratio (y) = 0.39858 0.03491
# Poissons Ratio (z) = 0.36578 0.04413
#
# Static dielectric constant tensor:
#      x y z
#    x 1.751040 0.000000 -0.021180 
#    y 0.000000 1.743820 0.000000 
#    z -0.021180 0.000000 1.766580 
# 
# From -- ./inp_files/232587.got.cif
#   From: 2010.05.17/outbox.cif.g08.bks.cpg/sg15_117_cif.got.tgz:232587.got - 2010.06.03 18:47:42.
