data_PCOD9258694
_publ_section_title
;
Structure prediction by ZEFSAII (Michael W. Deem and Ramdas Pophale) SiO2 
 PCOD9258694
Probable space group: C 2/C
;
_chemical_formula_sum "Si O2"
_cell_formula_units_Z 36
_cell_length_a 18.855013
_cell_length_b 6.737680
_cell_length_c 12.528124
_cell_angle_alpha 90.000000
_cell_angle_beta 48.620811
_cell_angle_gamma 90.000000
_cell_volume 1194.229663
_symmetry_space_group_name_H-M "C 2/C"
_symmetry_group_IT_number 15
_symmetry_cell_setting 'monoclinic'
loop_
_space_group_symop_operation_xyz
x,y,z
-x,y,1/2-z
-x,-y,-z
x,-y,1/2+z
1/2+x,1/2+y,z
1/2-x,1/2+y,1/2-z
1/2-x,1/2-y,-z
1/2+x,1/2-y,1/2+z
loop_
_atom_site_type_symbol
_atom_site_label
_atom_site_fract_x
_atom_site_fract_y
_atom_site_fract_z
Si Si1 0.856206 0.796007 0.355155
Si Si2 0.180546 0.190921 0.837082
Si Si3 0.888742 0.247545 0.050920
Si Si4 0.250000 0.250000 0.000000
Si Si5 0.418747 0.239574 0.748029
O O1 0.750000 0.750000 0.500000
O O2 0.874486 0.736789 0.214465
O O3 0.916359 0.732078 0.400052
O O4 0.865828 0.045536 0.333637
O O5 0.286291 0.162168 0.683403
O O6 0.131590 0.986003 0.916819
O O7 0.194763 0.291333 0.936766
O O8 0.950589 0.285440 0.095339
O O9 0.172191 0.390944 0.137613
O O10 0.500000 0.215641 0.750000
#
# Coordination Sequence:
#
# PCOD9258694 Si02
#       5
#     8   8   8   4   8
#     4   9  17  32  50  75 106 141 178 227 274 322
#     4   9  17  29  50  76 104 141 184 220 278 333
#     4   9  17  31  50  78 108 141 181 229 271 328
#     4  10  18  34  52  74 108 146 176 226 278 322
#     4  10  20  32  53  83 109 142 188 228 269 332
#
# _framework density 30.144956000000001
#
# number of rings (size 3 to 8) (size 9 to 14) (size 15 to 20)
#    0.000    2.667    2.222    0.000    0.000    0.889 
#    0.000    0.000    0.000    1.333    0.000   20.222 
#    0.000    0.000    0.000    0.000    0.000    0.000 
#
# Total GULP energy -100231.878752 kJ/mol
# GULP energy per Si atom -5568.437708 kJ/mol
# Density = 3.007634 g / cm^3
# Si number density = 30.144956 Si / 1000 Ang^3
#
#
#
# Elastic Constant Matrix: (Units=GPa)
#
#
# Indices 1 2 3 4 5 6 
#
# 1 239.4139 18.8594 104.6557 -0.0010 96.8449 0.0003
# 2 18.8594 106.6301 36.9278 -0.0041 18.9593 0.0038
# 3 104.6557 36.9278 244.5465 -0.0022 72.0021 0.0016
# 4 -0.0010 -0.0041 -0.0022 21.5225 0.0007 22.0851
# 5 96.8449 18.9593 72.0021 0.0007 103.6724 -0.0003
# 6 0.0003 0.0038 0.0016 22.0851 -0.0003 6.7477
#
#
#
# Elastic Compliance Matrix: (Units=1/GPa)
#
#
# Indices 1 2 3 4 5 6 
#
# 1 0.007060 0.000241 -0.001387 0.000000 -0.005676 0.000001
# 2 0.000241 0.009982 -0.001265 -0.000003 -0.001172 0.000005
# 3 -0.001387 -0.001265 0.005561 0.000000 -0.002336 0.000001
# 4 0.000000 -0.000003 0.000000 -0.019700 0.000002 0.064477
# 5 -0.005676 -0.001172 -0.002336 0.000002 0.016785 -0.000003
# 6 0.000001 0.000005 0.000001 0.064477 -0.000003 -0.062835
#
#
# Mechanical properties :
#
#
# Convention : Reuss Voigt Hill
#
# Bulk Modulus (GPa) = 56.23928 101.27514 78.75721
# Shear Modulus (GPa) = -154.33562 55.06504 -49.63529
#
# Velocity S-wave (km/s) = -7.16303 4.27860 -4.06218
# Velocity P-wave (km/s) = 7.05090 7.62086 2.04479
#
# Compressibility (1/GPa) = 0.01778117
#
# Stress axis : x y z
#
# Youngs Moduli (GPa) = 141.64197 100.17846 179.81042
#
# Poissons Ratio (x) = -0.02412 0.24931
# Poissons Ratio (y) = -0.03410 0.22754
# Poissons Ratio (z) = 0.19639 0.12677
#
# Static dielectric constant tensor:
#      x y z
#    x 2.949350 0.000000 -0.537530 
#    y 0.000000 2.275990 0.000000 
#    z -0.537530 0.000000 2.704320 
# 
# From -- ./inp_files/103403.got.cif
#   From: 2010.05.17/outbox.cif.g08.bks.cpg/sg15_52_cif.got.tgz:103403.got - 2010.06.03 18:47:42.
