data_PCOD9258516
_publ_section_title
;
Structure prediction by ZEFSAII (Michael W. Deem and Ramdas Pophale) SiO2 
 PCOD9258516
Probable space group: C 2/C
;
_chemical_formula_sum "Si O2"
_cell_formula_units_Z 40
_cell_length_a 11.518152
_cell_length_b 13.761569
_cell_length_c 23.155647
_cell_angle_alpha 90.000000
_cell_angle_beta 28.996865
_cell_angle_gamma 90.000000
_cell_volume 1779.246150
_symmetry_space_group_name_H-M "C 2/C"
_symmetry_group_IT_number 15
_symmetry_cell_setting 'monoclinic'
loop_
_space_group_symop_operation_xyz
x,y,z
-x,y,1/2-z
-x,-y,-z
x,-y,1/2+z
1/2+x,1/2+y,z
1/2-x,1/2+y,1/2-z
1/2-x,1/2-y,-z
1/2+x,1/2-y,1/2+z
loop_
_atom_site_type_symbol
_atom_site_label
_atom_site_fract_x
_atom_site_fract_y
_atom_site_fract_z
Si Si1 0.689918 0.682435 0.836822
Si Si2 0.000000 0.147655 0.250000
Si Si3 0.904503 0.876933 0.573955
Si Si4 0.238288 0.365116 0.982738
Si Si5 0.698117 0.671769 0.706506
Si Si6 0.500000 0.031256 0.750000
O O1 0.803039 0.785140 0.803733
O O2 0.584131 0.679476 0.819615
O O3 0.910251 0.605736 0.740559
O O4 0.529038 0.653424 0.960487
O O5 0.139171 0.108888 0.132469
O O6 0.767365 0.781327 0.656878
O O7 0.718764 0.961417 0.642209
O O8 0.095459 0.910508 0.539595
O O9 0.250000 0.250000 0.000000
O O10 0.954553 0.382585 0.097751
O O11 0.500000 0.629644 0.750000
#
# Coordination Sequence:
#
# PCOD9258516 Si02
#       6
#     8   4   8   8   8   4
#     4  11  21  37  63  90 125 165 202 253 321 359
#     4  11  16  32  58  90 111 156 194 247 308 356
#     4  11  21  39  64  95 123 160 211 265 299 373
#     4  10  18  33  58  86 123 153 203 256 306 349
#     4  11  22  38  61  94 126 159 214 262 300 365
#     4  11  24  40  62  94 127 160 212 255 308 376
#
# _framework density 22.481431000000001
#
# number of rings (size 3 to 8) (size 9 to 14) (size 15 to 20)
#    0.000    1.200    9.000    1.800    0.000    0.800 
#    3.600    0.000    2.200    2.400    0.000    0.000 
#    0.000    0.000    0.000    0.000    0.000    0.000 
#
# Total GULP energy -111570.818055 kJ/mol
# GULP energy per Si atom -5578.540903 kJ/mol
# Density = 2.243026 g / cm^3
# Si number density = 22.481431 Si / 1000 Ang^3
#
#
#
# Elastic Constant Matrix: (Units=GPa)
#
#
# Indices 1 2 3 4 5 6 
#
# 1 181.8909 -2.8906 93.4267 0.0009 23.5685 -0.0004
# 2 -2.8906 18.5656 6.4449 0.0048 5.1114 -0.0014
# 3 93.4267 6.4449 103.3902 -0.0007 17.1467 0.0030
# 4 0.0009 0.0048 -0.0007 12.8132 -0.0017 -3.9747
# 5 23.5685 5.1114 17.1467 -0.0017 51.5487 0.0001
# 6 -0.0004 -0.0014 0.0030 -3.9747 0.0001 -14.7965
#
#
#
# Elastic Compliance Matrix: (Units=1/GPa)
#
#
# Indices 1 2 3 4 5 6 
#
# 1 0.010966 0.005772 -0.009888 -0.000004 -0.002297 -0.000002
# 2 0.005772 0.059129 -0.007929 -0.000024 -0.005865 -0.000001
# 3 -0.009888 -0.007929 0.019285 0.000006 -0.001108 0.000003
# 4 -0.000004 -0.000024 0.000006 0.072042 0.000005 -0.019352
# 5 -0.002297 -0.005865 -0.001108 0.000005 0.021399 -0.000001
# 6 -0.000002 -0.000001 0.000003 -0.019352 -0.000001 -0.062385
#
#
# Mechanical properties :
#
#
# Convention : Reuss Voigt Hill
#
# Bulk Modulus (GPa) = 15.31618 55.31207 35.31412
# Shear Modulus (GPa) = 30.06783 23.70412 26.88598
#
# Velocity S-wave (km/s) = 3.66109 3.25065 3.46196
# Velocity P-wave (km/s) = 4.96981 6.22462 5.63227
#
# Compressibility (1/GPa) = 0.06529045
#
# Stress axis : x y z
#
# Youngs Moduli (GPa) = 91.18922 16.91211 51.85253
#
# Poissons Ratio (x) = -0.09762 0.51273
# Poissons Ratio (y) = -0.52639 0.41116
# Poissons Ratio (z) = 0.90171 0.13410
#
# Static dielectric constant tensor:
#      x y z
#    x 1.862150 0.000000 0.004710 
#    y 0.000000 1.857210 0.000000 
#    z 0.004710 0.000000 1.908720 
# 
# From -- ./inp_files/144578.got.cif
#   From: 2010.05.17/outbox.cif.g08.bks.cpg/sg15_73_cif.got.tgz:144578.got - 2010.06.03 18:47:42.
