data_PCOD9258463
_publ_section_title
;
Structure prediction by ZEFSAII (Michael W. Deem and Ramdas Pophale) SiO2 
 PCOD9258463
Probable space group: C 2/C
;
_chemical_formula_sum "Si O2"
_cell_formula_units_Z 40
_cell_length_a 12.644323
_cell_length_b 10.260681
_cell_length_c 16.432614
_cell_angle_alpha 90.000000
_cell_angle_beta 46.846257
_cell_angle_gamma 90.000000
_cell_volume 1555.307437
_symmetry_space_group_name_H-M "C 2/C"
_symmetry_group_IT_number 15
_symmetry_cell_setting 'monoclinic'
loop_
_space_group_symop_operation_xyz
x,y,z
-x,y,1/2-z
-x,-y,-z
x,-y,1/2+z
1/2+x,1/2+y,z
1/2-x,1/2+y,1/2-z
1/2-x,1/2-y,-z
1/2+x,1/2-y,1/2+z
loop_
_atom_site_type_symbol
_atom_site_label
_atom_site_fract_x
_atom_site_fract_y
_atom_site_fract_z
Si Si1 0.785357 0.548576 0.308842
Si Si2 0.000000 0.331808 0.250000
Si Si3 0.881113 0.899209 0.880295
Si Si4 0.500000 0.752261 0.750000
Si Si5 0.002319 0.102967 0.579435
Si Si6 0.092020 0.371870 0.931553
O O1 0.854876 0.657262 0.332780
O O2 0.620880 0.501251 0.382489
O O3 0.837920 0.600375 0.193699
O O4 0.870351 0.418561 0.287185
O O5 0.049813 0.244050 0.147031
O O6 0.727928 0.873355 0.920243
O O7 0.000000 0.945872 0.750000
O O8 0.870911 0.002362 0.958141
O O9 0.476397 0.671854 0.680564
O O10 0.994395 0.233477 0.527576
O O11 0.000000 0.500000 0.000000
#
# Coordination Sequence:
#
# PCOD9258463 Si02
#       6
#     8   4   8   4   8   8
#     4  10  18  33  57  82 108 150 188 234 273 334
#     4   9  17  32  58  86 103 137 206 232 262 331
#     4  10  18  34  58  83 104 148 194 222 275 342
#     4   9  19  28  52  90 103 131 202 234 262 321
#     4  11  18  36  59  80 112 150 192 231 270 340
#     4  11  23  36  55  88 120 146 183 242 295 326
#
# _framework density 25.718388999999998
#
# number of rings (size 3 to 8) (size 9 to 14) (size 15 to 20)
#    0.600    1.200    5.000    0.000    2.800    0.800 
#    0.000    1.000    0.000    1.200    0.000    0.000 
#    0.000    0.000    0.000    0.000    0.000    0.000 
#
# Total GULP energy -111548.698425 kJ/mol
# GULP energy per Si atom -5577.434921 kJ/mol
# Density = 2.565985 g / cm^3
# Si number density = 25.718389 Si / 1000 Ang^3
#
#
#
# Elastic Constant Matrix: (Units=GPa)
#
#
# Indices 1 2 3 4 5 6 
#
# 1 111.0189 55.4381 27.4930 0.0000 0.1751 0.0000
# 2 55.4381 162.6520 27.7968 0.0000 5.2132 0.0000
# 3 27.4930 27.7968 75.0003 0.0000 2.3208 0.0000
# 4 0.0000 0.0000 0.0000 45.9842 0.0000 -27.5960
# 5 0.1751 5.2132 2.3208 0.0000 35.2100 0.0000
# 6 0.0000 0.0000 0.0000 -27.5960 0.0000 69.6137
#
#
#
# Elastic Compliance Matrix: (Units=1/GPa)
#
#
# Indices 1 2 3 4 5 6 
#
# 1 0.011443 -0.003417 -0.002948 0.000000 0.000643 0.000000
# 2 -0.003417 0.007607 -0.001536 0.000000 -0.001008 0.000000
# 3 -0.002948 -0.001536 0.015006 0.000000 -0.000747 0.000000
# 4 0.000000 0.000000 0.000000 0.028535 0.000000 0.011312
# 5 0.000643 -0.001008 -0.000747 0.000000 0.028596 0.000000
# 6 0.000000 0.000000 0.000000 0.011312 0.000000 0.018849
#
#
# Mechanical properties :
#
#
# Convention : Reuss Voigt Hill
#
# Bulk Modulus (GPa) = 54.77970 63.34745 59.06357
# Shear Modulus (GPa) = 37.90070 46.02446 41.96258
#
# Velocity S-wave (km/s) = 3.84302 4.23490 4.04371
# Velocity P-wave (km/s) = 6.40607 6.97117 6.69459
#
# Compressibility (1/GPa) = 0.01825494
#
# Stress axis : x y z
#
# Youngs Moduli (GPa) = 87.39107 131.44929 66.63877
#
# Poissons Ratio (x) = 0.44916 0.19646
# Poissons Ratio (y) = 0.29861 0.10234
# Poissons Ratio (z) = 0.25764 0.20187
#
# Static dielectric constant tensor:
#      x y z
#    x 2.002560 0.000000 0.041130 
#    y 0.000000 2.129240 0.000000 
#    z 0.041130 0.000000 2.474970 
# 
# From -- ./inp_files/141868.got.cif
#   From: 2010.05.17/outbox.cif.g08.bks.cpg/sg15_71_cif.got.tgz:141868.got - 2010.06.03 18:47:42.
