data_PCOD9258420
_publ_section_title
;
Structure prediction by ZEFSAII (Michael W. Deem and Ramdas Pophale) SiO2 
 PCOD9258420
Probable space group: C 2/C
;
_chemical_formula_sum "Si O2"
_cell_formula_units_Z 48
_cell_length_a 11.148192
_cell_length_b 20.583409
_cell_length_c 10.541032
_cell_angle_alpha 90.000000
_cell_angle_beta 83.251608
_cell_angle_gamma 90.000000
_cell_volume 2402.069148
_symmetry_space_group_name_H-M "C 2/C"
_symmetry_group_IT_number 15
_symmetry_cell_setting 'monoclinic'
loop_
_space_group_symop_operation_xyz
x,y,z
-x,y,1/2-z
-x,-y,-z
x,-y,1/2+z
1/2+x,1/2+y,z
1/2-x,1/2+y,1/2-z
1/2-x,1/2-y,-z
1/2+x,1/2-y,1/2+z
loop_
_atom_site_type_symbol
_atom_site_label
_atom_site_fract_x
_atom_site_fract_y
_atom_site_fract_z
Si Si1 0.131776 0.440995 0.391625
Si Si2 0.000000 0.654932 0.750000
Si Si3 0.626099 0.750815 0.378522
Si Si4 0.805338 0.278526 0.621816
Si Si5 0.072261 0.586477 0.371469
Si Si6 0.687247 0.648467 0.544297
Si Si7 0.500000 0.702818 0.750000
O O1 0.109104 0.393602 0.272549
O O2 0.130924 0.515201 0.350001
O O3 0.250899 0.420813 0.454318
O O4 0.019973 0.424195 0.499325
O O5 0.993109 0.707900 0.638177
O O6 0.710608 0.739492 0.245592
O O7 0.613360 0.679497 0.438312
O O8 0.698781 0.801805 0.458555
O O9 0.750000 0.250000 0.500000
O O10 0.834793 0.355352 0.613863
O O11 0.931698 0.246334 0.653705
O O12 0.000000 0.601078 0.250000
O O13 0.601816 0.659335 0.673831
#
# Coordination Sequence:
#
# PCOD9258420 Si02
#       7
#     8   4   8   8   8   8   4
#     4  10  21  35  56  84 113 154 184 232 297 354
#     4  10  18  33  56  83 114 138 188 228 288 350
#     4   9  19  31  54  81 110 150 183 239 290 336
#     4  11  22  35  57  89 118 149 193 245 291 348
#     4  11  21  36  58  85 118 148 187 241 292 345
#     4   9  19  35  54  78 113 151 192 232 292 347
#     4  10  22  37  56  85 116 152 194 246 292 346
#
# _framework density 19.982772000000001
#
# number of rings (size 3 to 8) (size 9 to 14) (size 15 to 20)
#    0.000    2.000    1.667    2.000    9.333    0.000 
#    0.000    0.000    0.000    2.000    0.000    0.000 
#    0.000    0.000    0.000    0.000    0.000    0.000 
#
# Total GULP energy -133615.615660 kJ/mol
# GULP energy per Si atom -5567.317319 kJ/mol
# Density = 1.993729 g / cm^3
# Si number density = 19.982772 Si / 1000 Ang^3
#
#
#
# Elastic Constant Matrix: (Units=GPa)
#
#
# Indices 1 2 3 4 5 6 
#
# 1 53.0845 49.6198 8.0719 0.0000 11.7990 0.0000
# 2 49.6198 137.9523 32.8716 0.0000 21.1716 0.0000
# 3 8.0719 32.8716 64.7065 0.0000 18.3984 0.0000
# 4 0.0000 0.0000 0.0000 22.0304 0.0000 14.6951
# 5 11.7990 21.1716 18.3984 0.0000 27.0517 0.0000
# 6 0.0000 0.0000 0.0000 14.6951 0.0000 27.7328
#
#
#
# Elastic Compliance Matrix: (Units=1/GPa)
#
#
# Indices 1 2 3 4 5 6 
#
# 1 0.029631 -0.010416 0.003660 0.000000 -0.007261 0.000000
# 2 -0.010416 0.012369 -0.004368 0.000000 -0.002166 0.000000
# 3 0.003660 -0.004368 0.020702 0.000000 -0.012257 0.000000
# 4 0.000000 0.000000 0.000000 0.070206 0.000000 -0.037201
# 5 -0.007261 -0.002166 -0.012257 0.000000 0.050165 0.000000
# 6 0.000000 0.000000 0.000000 -0.037201 0.000000 0.055771
#
#
# Mechanical properties :
#
#
# Convention : Reuss Voigt Hill
#
# Bulk Modulus (GPa) = 24.71968 48.54111 36.63039
# Shear Modulus (GPa) = 18.20983 26.37497 22.29240
#
# Velocity S-wave (km/s) = 3.02201 3.63696 3.34365
# Velocity P-wave (km/s) = 4.95722 6.47927 5.76866
#
# Compressibility (1/GPa) = 0.04045360
#
# Stress axis : x y z
#
# Youngs Moduli (GPa) = 33.74825 80.85022 48.30409
#
# Poissons Ratio (x) = 0.84210 -0.17677
# Poissons Ratio (y) = 0.35151 0.21100
# Poissons Ratio (z) = -0.12350 0.35316
#
# Static dielectric constant tensor:
#      x y z
#    x 1.737760 0.000000 0.040830 
#    y 0.000000 1.723560 0.000000 
#    z 0.040830 0.000000 1.829470 
# 
# From -- ./inp_files/87414.got.cif
#   From: 2010.05.17/outbox.cif.g08.bks.cpg/sg15_44_cif.got.tgz:87414.got - 2010.06.03 18:47:42.
