data_PCOD9258644
_publ_section_title
;
Structure prediction by ZEFSAII (Michael W. Deem and Ramdas Pophale) SiO2 
 PCOD9258644
Probable space group: C 2/C
;
_chemical_formula_sum "Si O2"
_cell_formula_units_Z 36
_cell_length_a 10.236891
_cell_length_b 17.047261
_cell_length_c 11.150707
_cell_angle_alpha 90.000000
_cell_angle_beta 65.217904
_cell_angle_gamma 90.000000
_cell_volume 1766.717776
_symmetry_space_group_name_H-M "C 2/C"
_symmetry_group_IT_number 15
_symmetry_cell_setting 'monoclinic'
loop_
_space_group_symop_operation_xyz
x,y,z
-x,y,1/2-z
-x,-y,-z
x,-y,1/2+z
1/2+x,1/2+y,z
1/2-x,1/2+y,1/2-z
1/2-x,1/2-y,-z
1/2+x,1/2-y,1/2+z
loop_
_atom_site_type_symbol
_atom_site_label
_atom_site_fract_x
_atom_site_fract_y
_atom_site_fract_z
Si Si1 0.082449 0.160122 0.099818
Si Si2 0.501086 0.401377 0.118234
Si Si3 0.000000 0.311495 0.250000
Si Si4 0.223971 0.516968 0.482756
Si Si5 0.175811 0.455574 0.252516
O O1 0.223994 0.107252 0.037978
O O2 0.000000 0.126647 0.250000
O O3 0.088388 0.251547 0.131415
O O4 0.001792 0.148030 0.003822
O O5 0.500000 0.359940 0.250000
O O6 0.635315 0.460761 0.064474
O O7 0.349708 0.447566 0.175964
O O8 0.893839 0.369049 0.219744
O O9 0.148918 0.498426 0.386855
O O10 0.137141 0.506396 0.639240
#
# Coordination Sequence:
#
# PCOD9258644 Si02
#       5
#     8   8   4   8   8
#     4   9  17  32  54  74 110 138 172 212 266 320
#     4   9  17  31  57  85 101 128 187 234 252 294
#     4  10  24  34  50  80 122 142 164 214 288 320
#     4  10  18  33  63  82  97 138 194 225 250 306
#     4  10  20  35  54  81 109 141 177 225 262 319
#
# _framework density 20.376768999999999
#
# number of rings (size 3 to 8) (size 9 to 14) (size 15 to 20)
#    0.667    1.778    0.000    6.000    0.000    4.444 
#    0.000    4.444    4.889    0.000    0.000    0.000 
#    0.000    0.000    0.000    0.000    0.000    0.000 
#
# Total GULP energy -100234.926479 kJ/mol
# GULP energy per Si atom -5568.607027 kJ/mol
# Density = 2.033039 g / cm^3
# Si number density = 20.376769 Si / 1000 Ang^3
#
#
#
# Elastic Constant Matrix: (Units=GPa)
#
#
# Indices 1 2 3 4 5 6 
#
# 1 69.0234 36.8073 53.2487 0.0000 12.6673 0.0000
# 2 36.8073 108.3612 59.6231 0.0000 17.6862 0.0000
# 3 53.2487 59.6231 208.3766 0.0000 37.9498 0.0000
# 4 0.0000 0.0000 0.0000 -15.3497 0.0000 -15.1205
# 5 12.6673 17.6862 37.9498 0.0000 48.1763 0.0000
# 6 0.0000 0.0000 0.0000 -15.1205 0.0000 22.2465
#
#
#
# Elastic Compliance Matrix: (Units=1/GPa)
#
#
# Indices 1 2 3 4 5 6 
#
# 1 0.019891 -0.004650 -0.003632 0.000000 -0.000662 0.000000
# 2 -0.004650 0.012177 -0.001990 0.000000 -0.001680 0.000000
# 3 -0.003632 -0.001990 0.006993 0.000000 -0.003823 0.000000
# 4 0.000000 0.000000 0.000000 -0.039022 0.000000 -0.026522
# 5 -0.000662 -0.001680 -0.003823 0.000000 0.024559 0.000000
# 6 0.000000 0.000000 0.000000 -0.026522 0.000000 0.026924
#
#
# Mechanical properties :
#
#
# Convention : Reuss Voigt Hill
#
# Bulk Modulus (GPa) = 54.00459 76.12438 65.06448
# Shear Modulus (GPa) = 63.90727 26.75342 45.33034
#
# Velocity S-wave (km/s) = 5.60633 3.62738 4.72169
# Velocity P-wave (km/s) = 8.27456 7.41508 7.85658
#
# Compressibility (1/GPa) = 0.01851694
#
# Stress axis : x y z
#
# Youngs Moduli (GPa) = 50.27458 82.12183 143.00618
#
# Poissons Ratio (x) = 0.38186 0.51937
# Poissons Ratio (y) = 0.23378 0.28458
# Poissons Ratio (z) = 0.18259 0.16342
#
# Static dielectric constant tensor:
#      x y z
#    x 1.780270 0.000000 -0.006300 
#    y 0.000000 1.692510 0.000000 
#    z -0.006300 0.000000 1.816060 
# 
# From -- ./inp_files/84993.got.cif
#   From: 2010.05.17/outbox.cif.g08.bks.cpg/sg15_43_cif.got.tgz:84993.got - 2010.06.03 18:47:42.
