data_PCOD9258333
_publ_section_title
;
Structure prediction by ZEFSAII (Michael W. Deem and Ramdas Pophale) SiO2 
 PCOD9258333
Probable space group: C 2/C
;
_chemical_formula_sum "Si O2"
_cell_formula_units_Z 44
_cell_length_a 14.153796
_cell_length_b 23.329375
_cell_length_c 9.002699
_cell_angle_alpha 90.000000
_cell_angle_beta 57.842687
_cell_angle_gamma 90.000000
_cell_volume 2516.644485
_symmetry_space_group_name_H-M "C 2/C"
_symmetry_group_IT_number 15
_symmetry_cell_setting 'monoclinic'
loop_
_space_group_symop_operation_xyz
x,y,z
-x,y,1/2-z
-x,-y,-z
x,-y,1/2+z
1/2+x,1/2+y,z
1/2-x,1/2+y,1/2-z
1/2-x,1/2-y,-z
1/2+x,1/2-y,1/2+z
loop_
_atom_site_type_symbol
_atom_site_label
_atom_site_fract_x
_atom_site_fract_y
_atom_site_fract_z
Si Si1 0.927687 0.672335 0.157892
Si Si2 0.000000 0.498237 0.250000
Si Si3 0.536022 0.289924 0.551018
Si Si4 0.914330 0.420723 0.069936
Si Si5 0.675079 0.694758 0.435038
Si Si6 0.235668 0.820030 0.209135
O O1 0.796117 0.667763 0.300013
O O2 0.000000 0.676063 0.250000
O O3 0.948280 0.729245 0.045502
O O4 0.974576 0.618291 0.030907
O O5 0.923432 0.459312 0.208053
O O6 0.924388 0.538163 0.418886
O O7 0.500000 0.281616 0.750000
O O8 0.434767 0.324207 0.558530
O O9 0.655746 0.318632 0.418856
O O10 0.813424 0.375644 0.145897
O O11 0.692113 0.761577 0.371119
O O12 0.660414 0.685708 0.623217
#
# Coordination Sequence:
#
# PCOD9258333 Si02
#       6
#     8   4   8   8   8   8
#     4  11  19  34  58  77 117 150 185 216 276 335
#     4  10  24  34  58  82 114 134 204 230 296 306
#     4  11  23  32  47  86 121 152 183 215 266 348
#     4  11  20  39  55  87 107 150 178 248 271 329
#     4  10  18  33  54  82 109 155 184 209 259 358
#     4  10  19  34  58  73 113 151 189 217 273 330
#
# _framework density 17.483598000000001
#
# number of rings (size 3 to 8) (size 9 to 14) (size 15 to 20)
#    0.000    1.455    4.545    2.727    1.273    4.364 
#    0.000    0.000    0.000    0.000    0.000   31.818 
#    0.000    0.000    0.000    0.000    0.000    0.000 
#
# Total GULP energy -122685.079316 kJ/mol
# GULP energy per Si atom -5576.594514 kJ/mol
# Density = 1.744380 g / cm^3
# Si number density = 17.483598 Si / 1000 Ang^3
#
#
#
# Elastic Constant Matrix: (Units=GPa)
#
#
# Indices 1 2 3 4 5 6 
#
# 1 31.9440 30.9876 19.6757 0.0000 -6.8115 0.0000
# 2 30.9876 87.6655 35.9899 0.0000 -5.9853 0.0000
# 3 19.6757 35.9899 103.6986 0.0000 -5.0422 0.0000
# 4 0.0000 0.0000 0.0000 17.5583 0.0000 -2.5852
# 5 -6.8115 -5.9853 -5.0422 0.0000 16.9735 0.0000
# 6 0.0000 0.0000 0.0000 -2.5852 0.0000 23.9718
#
#
#
# Elastic Compliance Matrix: (Units=1/GPa)
#
#
# Indices 1 2 3 4 5 6 
#
# 1 0.052023 -0.015920 -0.003656 0.000000 0.014177 0.000000
# 2 -0.015920 0.018367 -0.003399 0.000000 -0.000922 0.000000
# 3 -0.003656 -0.003399 0.011554 0.000000 0.000767 0.000000
# 4 0.000000 0.000000 0.000000 0.057872 0.000000 0.006241
# 5 0.014177 -0.000922 0.000767 0.000000 0.064507 0.000000
# 6 0.000000 0.000000 0.000000 0.006241 0.000000 0.042389
#
#
# Mechanical properties :
#
#
# Convention : Reuss Voigt Hill
#
# Bulk Modulus (GPa) = 27.78234 44.06830 35.92532
# Shear Modulus (GPa) = 16.41175 20.81102 18.61139
#
# Velocity S-wave (km/s) = 3.06714 3.45384 3.26622
# Velocity P-wave (km/s) = 5.33555 6.41604 5.90058
#
# Compressibility (1/GPa) = 0.03599409
#
# Stress axis : x y z
#
# Youngs Moduli (GPa) = 19.22218 54.44663 86.55127
#
# Poissons Ratio (x) = 0.86679 0.31646
# Poissons Ratio (y) = 0.30602 0.29415
# Poissons Ratio (z) = 0.07028 0.18504
#
# Static dielectric constant tensor:
#      x y z
#    x 1.615940 0.000000 -0.001400 
#    y 0.000000 1.595850 0.000000 
#    z -0.001400 0.000000 1.644670 
# 
# From -- ./inp_files/40618.got.cif
#   From: 2010.05.17/outbox.cif.g08.bks.cpg/sg15_21_cif.got.tgz:40618.got - 2010.06.03 18:47:42.
