data_PCOD9258704
_publ_section_title
;
Structure prediction by ZEFSAII (Michael W. Deem and Ramdas Pophale) SiO2 
 PCOD9258704
Probable space group: C 2/C
;
_chemical_formula_sum "Si O2"
_cell_formula_units_Z 56
_cell_length_a 5.848692
_cell_length_b 30.775013
_cell_length_c 16.823697
_cell_angle_alpha 90.000000
_cell_angle_beta 125.269106
_cell_angle_gamma 90.000000
_cell_volume 2472.336180
_symmetry_space_group_name_H-M "C 2/C"
_symmetry_group_IT_number 15
_symmetry_cell_setting 'monoclinic'
loop_
_space_group_symop_operation_xyz
x,y,z
-x,y,1/2-z
-x,-y,-z
x,-y,1/2+z
1/2+x,1/2+y,z
1/2-x,1/2+y,1/2-z
1/2-x,1/2-y,-z
1/2+x,1/2-y,1/2+z
loop_
_atom_site_type_symbol
_atom_site_label
_atom_site_fract_x
_atom_site_fract_y
_atom_site_fract_z
Si Si1 0.392451 0.280122 0.098558
Si Si2 0.318959 0.338012 0.829789
Si Si3 0.075894 0.951313 0.535519
Si Si4 0.251205 0.632631 0.493374
Si Si5 0.923823 0.749368 0.617939
Si Si6 0.816836 0.911107 0.618098
Si Si7 0.000000 0.008403 0.250000
Si Si8 0.500000 0.986115 0.750000
O O1 0.722556 0.272005 0.144733
O O2 0.225994 0.268320 0.146549
O O3 0.250000 0.250000 0.000000
O O4 0.328056 0.331026 0.071683
O O5 0.354599 0.346980 0.930909
O O6 0.514921 0.298674 0.844980
O O7 0.400692 0.383990 0.808236
O O8 0.000000 0.326992 0.750000
O O9 0.150350 0.917651 0.480966
O O10 0.822768 0.926854 0.528264
O O11 0.325996 0.957073 0.651075
O O12 0.000000 0.000000 0.500000
O O13 0.922946 0.623779 0.418781
O O14 0.750000 0.750000 0.500000
O O15 0.824878 0.957378 0.661752
O O16 0.247675 0.988247 0.245334
#
# Coordination Sequence:
#
# PCOD9258704 Si02
#       8
#     8   8   8   8   8   8   4   4
#     4  10  19  33  56  75 109 150 194 225 272 332
#     4  11  22  31  52  85 118 150 190 236 299 360
#     4  10  23  38  56  88 120 155 201 243 304 370
#     4  11  20  34  56  84 114 153 190 244 294 358
#     4  10  19  36  50  75 112 149 189 225 267 337
#     4  10  20  32  53  78 124 152 186 239 301 362
#     4  10  18  34  52  80 116 155 177 222 300 372
#     4  10  20  40  58  82 118 155 181 244 298 356
#
# _framework density 22.650642999999999
#
# number of rings (size 3 to 8) (size 9 to 14) (size 15 to 20)
#    0.000    1.714    4.286    2.571    9.000    0.571 
#    0.000    0.000    0.000    0.000    3.714    0.000 
#    0.000    0.000    0.000    0.000    0.000    0.000 
#
# Total GULP energy -155886.481070 kJ/mol
# GULP energy per Si atom -5567.374324 kJ/mol
# Density = 2.259909 g / cm^3
# Si number density = 22.650643 Si / 1000 Ang^3
#
#
#
# Elastic Constant Matrix: (Units=GPa)
#
#
# Indices 1 2 3 4 5 6 
#
# 1 164.3575 30.1189 17.3741 0.0000 18.5161 0.0000
# 2 30.1189 138.5618 31.1087 0.0000 11.3420 0.0000
# 3 17.3741 31.1087 38.8000 0.0000 16.1327 0.0000
# 4 0.0000 0.0000 0.0000 7.3138 0.0000 1.2195
# 5 18.5161 11.3420 16.1327 0.0000 24.6714 0.0000
# 6 0.0000 0.0000 0.0000 1.2195 0.0000 7.4305
#
#
#
# Elastic Compliance Matrix: (Units=1/GPa)
#
#
# Indices 1 2 3 4 5 6 
#
# 1 0.006808 -0.001031 -0.000404 0.000000 -0.004371 0.000000
# 2 -0.001031 0.008968 -0.007329 0.000000 0.001444 0.000000
# 3 -0.000404 -0.007329 0.041619 0.000000 -0.023542 0.000000
# 4 0.000000 0.000000 0.000000 0.140575 0.000000 -0.023072
# 5 -0.004371 0.001444 -0.023542 0.000000 0.058544 0.000000
# 6 0.000000 0.000000 0.000000 -0.023072 0.000000 0.138366
#
#
# Mechanical properties :
#
#
# Convention : Reuss Voigt Hill
#
# Bulk Modulus (GPa) = 25.08361 55.43586 40.25973
# Shear Modulus (GPa) = 11.74537 25.42432 18.58484
#
# Velocity S-wave (km/s) = 2.27963 3.35394 2.86754
# Velocity P-wave (km/s) = 4.24583 6.28697 5.36438
#
# Compressibility (1/GPa) = 0.03986667
#
# Stress axis : x y z
#
# Youngs Moduli (GPa) = 146.87526 111.50159 24.02745
#
# Poissons Ratio (x) = 0.11500 0.00971
# Poissons Ratio (y) = 0.15148 0.17610
# Poissons Ratio (z) = 0.05938 0.81720
#
# Static dielectric constant tensor:
#      x y z
#    x 2.100800 0.000000 -0.007860 
#    y 0.000000 1.798140 0.000000 
#    z -0.007860 0.000000 1.923320 
# 
# From -- ./inp_files/262025.got.cif
#   From: 2010.05.17/outbox.cif.g08.bks.cpg/sg15_132_cif.got.tgz:262025.got - 2010.06.03 18:47:42.
