data_PCOD9258207
_publ_section_title
;
Structure prediction by ZEFSAII (Michael W. Deem and Ramdas Pophale) SiO2 
 PCOD9258207
Probable space group: C 2/C
;
_chemical_formula_sum "Si O2"
_cell_formula_units_Z 56
_cell_length_a 20.646529
_cell_length_b 5.454784
_cell_length_c 18.294868
_cell_angle_alpha 90.000000
_cell_angle_beta 83.502535
_cell_angle_gamma 90.000000
_cell_volume 2047.176835
_symmetry_space_group_name_H-M "C 2/C"
_symmetry_group_IT_number 15
_symmetry_cell_setting 'monoclinic'
loop_
_space_group_symop_operation_xyz
x,y,z
-x,y,1/2-z
-x,-y,-z
x,-y,1/2+z
1/2+x,1/2+y,z
1/2-x,1/2+y,1/2-z
1/2-x,1/2-y,-z
1/2+x,1/2-y,1/2+z
loop_
_atom_site_type_symbol
_atom_site_label
_atom_site_fract_x
_atom_site_fract_y
_atom_site_fract_z
Si Si1 0.813906 0.478052 0.445561
Si Si2 0.523041 0.063870 0.885314
Si Si3 0.500000 0.500000 0.000000
Si Si4 0.000000 0.711563 0.250000
Si Si5 0.394216 0.294465 0.051432
Si Si6 0.280276 0.469636 0.412267
Si Si7 0.860783 0.123955 0.719485
Si Si8 0.328361 0.880610 0.195499
O O1 0.862830 0.399210 0.503050
O O2 0.745854 0.506353 0.499925
O O3 0.826708 0.735055 0.406148
O O4 0.807913 0.239803 0.396088
O O5 0.497181 0.302748 0.927558
O O6 0.597152 0.110442 0.846958
O O7 0.484336 0.964940 0.820565
O O8 0.533004 0.814508 0.934962
O O9 0.580505 0.467815 0.991877
O O10 0.935701 0.864540 0.236302
O O11 0.359269 0.359430 0.130359
O O12 0.222278 0.403308 0.364134
O O13 0.825726 0.375396 0.744543
O O14 0.825448 0.872384 0.739042
#
# Coordination Sequence:
#
# PCOD9258207 Si02
#       8
#     8   8   4   4   8   8   8   8
#     4  10  20  28  49  73 107 147 188 221 278 346
#     4  10  21  37  53  82 112 156 194 244 285 362
#     4  12  22  34  60  74 118 166 194 230 294 364
#     4   8  20  38  54  78 112 150 196 250 300 328
#     4  10  21  35  48  76 112 155 190 225 284 350
#     4  10  19  29  49  75 105 150 177 229 284 350
#     4  10  19  32  53  74 107 145 179 236 272 342
#     4  10  18  33  50  76 110 145 185 223 293 339
#
# _framework density 27.354745000000001
#
# number of rings (size 3 to 8) (size 9 to 14) (size 15 to 20)
#    0.000    2.286    4.286    1.286    6.000    2.286 
#    0.000    0.000    0.000    0.000    0.000    0.000 
#    0.000   13.714    0.000    0.000    0.000    0.000 
#
# Total GULP energy -156200.352791 kJ/mol
# GULP energy per Si atom -5578.584028 kJ/mol
# Density = 2.729248 g / cm^3
# Si number density = 27.354745 Si / 1000 Ang^3
#
#
#
# Elastic Constant Matrix: (Units=GPa)
#
#
# Indices 1 2 3 4 5 6 
#
# 1 75.1461 37.3076 43.9419 0.0000 16.8529 0.0000
# 2 37.3076 233.4015 59.2101 0.0000 32.9873 0.0000
# 3 43.9419 59.2101 140.0444 0.0000 16.9205 0.0000
# 4 0.0000 0.0000 0.0000 21.1274 0.0000 18.2889
# 5 16.8529 32.9873 16.9205 0.0000 52.7237 0.0000
# 6 0.0000 0.0000 0.0000 18.2889 0.0000 31.3135
#
#
#
# Elastic Compliance Matrix: (Units=1/GPa)
#
#
# Indices 1 2 3 4 5 6 
#
# 1 0.017276 -0.001137 -0.004535 0.000000 -0.003356 0.000000
# 2 -0.001137 0.005198 -0.001552 0.000000 -0.002391 0.000000
# 3 -0.004535 -0.001552 0.009287 0.000000 -0.000560 0.000000
# 4 0.000000 0.000000 0.000000 0.095734 0.000000 -0.055914
# 5 -0.003356 -0.002391 -0.000560 0.000000 0.021715 0.000000
# 6 0.000000 0.000000 0.000000 -0.055914 0.000000 0.064592
#
#
# Mechanical properties :
#
#
# Convention : Reuss Voigt Hill
#
# Bulk Modulus (GPa) = 57.75657 81.05681 69.40669
# Shear Modulus (GPa) = 21.36571 41.57507 31.47039
#
# Velocity S-wave (km/s) = 2.79778 3.90275 3.39551
# Velocity P-wave (km/s) = 5.62108 7.07140 6.38753
#
# Compressibility (1/GPa) = 0.01731405
#
# Stress axis : x y z
#
# Youngs Moduli (GPa) = 57.88369 192.39001 107.67394
#
# Poissons Ratio (x) = 0.21871 0.48826
# Poissons Ratio (y) = 0.06580 0.16712
# Poissons Ratio (z) = 0.26248 0.29860
#
# Static dielectric constant tensor:
#      x y z
#    x 2.022600 0.000000 0.167300 
#    y 0.000000 1.512420 0.000000 
#    z 0.167300 0.000000 1.787270 
# 
# From -- ./inp_files/278693.got.cif
#   From: 2010.05.17/outbox.cif.g08.bks.cpg/sg15_140_cif.got.tgz:278693.got - 2010.06.03 18:47:42.
