data_PCOD9258578
_publ_section_title
;
Structure prediction by ZEFSAII (Michael W. Deem and Ramdas Pophale) SiO2 
 PCOD9258578
Probable space group: C 2/C
;
_chemical_formula_sum "Si O2"
_cell_formula_units_Z 64
_cell_length_a 18.616700
_cell_length_b 8.412607
_cell_length_c 18.998100
_cell_angle_alpha 90.000000
_cell_angle_beta 104.526717
_cell_angle_gamma 90.000000
_cell_volume 2880.266271
_symmetry_space_group_name_H-M "C 2/C"
_symmetry_group_IT_number 15
_symmetry_cell_setting 'monoclinic'
loop_
_space_group_symop_operation_xyz
x,y,z
-x,y,1/2-z
-x,-y,-z
x,-y,1/2+z
1/2+x,1/2+y,z
1/2-x,1/2+y,1/2-z
1/2-x,1/2-y,-z
1/2+x,1/2-y,1/2+z
loop_
_atom_site_type_symbol
_atom_site_label
_atom_site_fract_x
_atom_site_fract_y
_atom_site_fract_z
Si Si1 0.465183 0.309249 0.419858
Si Si2 0.245298 0.347282 0.083454
Si Si3 0.557158 0.101819 0.944964
Si Si4 0.452363 0.020658 0.309900
Si Si5 0.813864 0.927243 0.345305
Si Si6 0.119983 0.245116 0.972976
Si Si7 0.784670 0.436406 0.789332
Si Si8 0.785256 0.397845 0.046137
O O1 0.444000 0.207422 0.484983
O O2 0.399547 0.432014 0.388464
O O3 0.549213 0.370602 0.450633
O O4 0.464792 0.191443 0.351668
O O5 0.326273 0.277398 0.082597
O O6 0.237337 0.448952 0.151330
O O7 0.174685 0.231912 0.053102
O O8 0.226913 0.466712 0.014770
O O9 0.485500 0.098584 0.877678
O O10 0.629731 0.144735 0.918301
O O11 0.578264 0.917097 0.968423
O O12 0.500000 0.010796 0.250000
O O13 0.364069 0.003843 0.278340
O O14 0.799369 0.745262 0.314787
O O15 0.783272 0.049667 0.280884
O O16 0.758244 0.939398 0.395904
O O17 0.750000 0.250000 0.000000
#
# Coordination Sequence:
#
# PCOD9258578 Si02
#       8
#     8   8   8   8   8   8   8   8
#     4  10  19  35  57  83 116 156 191 235 295 345
#     4  10  20  35  59  86 115 153 188 246 295 347
#     4  10  18  33  60  85 111 150 199 244 285 341
#     4  10  19  32  53  85 111 141 192 246 288 338
#     4  11  23  38  60  86 115 160 196 242 292 356
#     4   9  18  32  57  89 113 141 198 244 289 335
#     4  11  23  39  58  84 121 152 191 243 305 351
#     4  11  18  36  60  79 109 154 204 227 283 358
#
# _framework density 22.220168999999999
#
# number of rings (size 3 to 8) (size 9 to 14) (size 15 to 20)
#    0.000    1.750    2.500    5.250    0.000    7.000 
#    0.000    0.625    2.750    1.500    0.000    0.000 
#    0.000    0.000    0.000    0.000    0.000    0.000 
#
# Total GULP energy -178489.293192 kJ/mol
# GULP energy per Si atom -5577.790412 kJ/mol
# Density = 2.216960 g / cm^3
# Si number density = 22.220169 Si / 1000 Ang^3
#
#
#
# Elastic Constant Matrix: (Units=GPa)
#
#
# Indices 1 2 3 4 5 6 
#
# 1 146.5122 11.3376 31.8398 0.0000 18.4003 0.0000
# 2 11.3376 38.9845 4.9295 0.0000 4.4566 0.0000
# 3 31.8398 4.9295 84.8124 0.0000 -4.6213 0.0000
# 4 0.0000 0.0000 0.0000 29.9747 0.0000 -0.7651
# 5 18.4003 4.4566 -4.6213 0.0000 40.4790 0.0000
# 6 0.0000 0.0000 0.0000 -0.7651 0.0000 28.9186
#
#
#
# Elastic Compliance Matrix: (Units=1/GPa)
#
#
# Indices 1 2 3 4 5 6 
#
# 1 0.008120 -0.001516 -0.003172 0.000000 -0.003886 0.000000
# 2 -0.001516 0.026500 -0.001099 0.000000 -0.002354 0.000000
# 3 -0.003172 -0.001099 0.013213 0.000000 0.003071 0.000000
# 4 0.000000 0.000000 0.000000 0.033384 0.000000 0.000883
# 5 -0.003886 -0.002354 0.003071 0.000000 0.027081 0.000000
# 6 0.000000 0.000000 0.000000 0.000883 0.000000 0.034603
#
#
# Mechanical properties :
#
#
# Convention : Reuss Voigt Hill
#
# Bulk Modulus (GPa) = 27.58001 40.72476 34.15239
# Shear Modulus (GPa) = 30.01883 34.68793 32.35338
#
# Velocity S-wave (km/s) = 3.67954 3.95536 3.81994
# Velocity P-wave (km/s) = 5.52188 6.26319 5.90418
#
# Compressibility (1/GPa) = 0.03625814
#
# Stress axis : x y z
#
# Youngs Moduli (GPa) = 123.15087 37.73544 75.68414
#
# Poissons Ratio (x) = 0.05721 0.24007
# Poissons Ratio (y) = 0.18671 0.08320
# Poissons Ratio (z) = 0.39064 0.04148
#
# Static dielectric constant tensor:
#      x y z
#    x 1.937600 0.000000 0.038080 
#    y 0.000000 1.990990 0.000000 
#    z 0.038080 0.000000 1.805770 
# 
# From -- ./inp_files/210342.got.cif
#   From: 2010.05.17/outbox.cif.g08.bks.cpg/sg15_106_cif.got.tgz:210342.got - 2010.06.03 18:47:42.
