data_PCOD9258818
_publ_section_title
;
Structure prediction by ZEFSAII (Michael W. Deem and Ramdas Pophale) SiO2 
 PCOD9258818
Probable space group: C 2/C
;
_chemical_formula_sum "Si O2"
_cell_formula_units_Z 64
_cell_length_a 23.536918
_cell_length_b 15.542831
_cell_length_c 12.613224
_cell_angle_alpha 90.000000
_cell_angle_beta 34.116437
_cell_angle_gamma 90.000000
_cell_volume 2588.052555
_symmetry_space_group_name_H-M "C 2/C"
_symmetry_group_IT_number 15
_symmetry_cell_setting 'monoclinic'
loop_
_space_group_symop_operation_xyz
x,y,z
-x,y,1/2-z
-x,-y,-z
x,-y,1/2+z
1/2+x,1/2+y,z
1/2-x,1/2+y,1/2-z
1/2-x,1/2-y,-z
1/2+x,1/2-y,1/2+z
loop_
_atom_site_type_symbol
_atom_site_label
_atom_site_fract_x
_atom_site_fract_y
_atom_site_fract_z
Si Si1 0.466601 0.438679 0.152035
Si Si2 0.648083 0.093730 0.268524
Si Si3 0.473014 0.233274 0.679171
Si Si4 0.845794 0.899829 0.889324
Si Si5 0.155387 0.224835 0.740472
Si Si6 0.193178 0.927821 0.790534
Si Si7 0.269179 0.886884 0.212715
Si Si8 0.090702 0.416066 0.340271
O O1 0.398540 0.506758 0.321190
O O2 0.398713 0.353940 0.236414
O O3 0.500000 0.500000 0.000000
O O4 0.579792 0.409278 0.009865
O O5 0.671100 0.180032 0.165712
O O6 0.722722 0.099389 0.253651
O O7 0.530926 0.080044 0.485275
O O8 0.654852 0.999408 0.201991
O O9 0.500000 0.193277 0.750000
O O10 0.431647 0.328038 0.758213
O O11 0.571296 0.247084 0.456603
O O12 0.391676 0.173181 0.747427
O O13 0.801386 0.893258 0.838097
O O14 0.782419 0.877987 0.092046
O O15 0.247541 0.191378 0.669736
O O16 0.215208 0.029963 0.746867
O O17 0.383038 0.904964 0.075476
#
# Coordination Sequence:
#
# PCOD9258818 Si02
#       8
#     8   8   8   8   8   8   8   8
#     4  10  18  34  55  84 120 150 178 236 299 351
#     4   9  21  38  57  74 109 158 203 235 277 336
#     4  11  20  32  54  86 120 150 184 239 298 344
#     4  11  21  32  55  91 123 145 180 239 302 359
#     4  11  19  33  57  86 113 147 192 239 286 348
#     4  10  20  37  55  81 118 154 186 234 293 351
#     4  11  21  34  57  86 120 150 191 236 297 348
#     4   9  22  39  50  77 115 158 197 234 279 345
#
# _framework density 24.729019000000001
#
# number of rings (size 3 to 8) (size 9 to 14) (size 15 to 20)
#    0.000    1.750    6.250    0.000    1.750    2.500 
#    0.000    0.000    0.000    3.000    3.250    0.000 
#    0.000    0.000    0.000    0.000    0.000    0.000 
#
# Total GULP energy -178503.288339 kJ/mol
# GULP energy per Si atom -5578.227761 kJ/mol
# Density = 2.467273 g / cm^3
# Si number density = 24.729019 Si / 1000 Ang^3
#
#
#
# Elastic Constant Matrix: (Units=GPa)
#
#
# Indices 1 2 3 4 5 6 
#
# 1 141.0466 65.0742 56.9030 0.0000 -23.9227 0.0000
# 2 65.0742 165.5411 -2.3390 0.0000 -12.7565 0.0000
# 3 56.9030 -2.3390 73.2456 0.0000 -6.0046 0.0000
# 4 0.0000 0.0000 0.0000 17.3872 0.0000 -11.9989
# 5 -23.9227 -12.7565 -6.0046 0.0000 44.1680 0.0000
# 6 0.0000 0.0000 0.0000 -11.9989 0.0000 38.6324
#
#
#
# Elastic Compliance Matrix: (Units=1/GPa)
#
#
# Indices 1 2 3 4 5 6 
#
# 1 0.015340 -0.005807 -0.011689 0.000000 0.005042 0.000000
# 2 -0.005807 0.008385 0.004773 0.000000 -0.000074 0.000000
# 3 -0.011689 0.004773 0.022734 0.000000 -0.001862 0.000000
# 4 0.000000 0.000000 0.000000 0.073204 0.000000 0.022737
# 5 0.005042 -0.000074 -0.001862 0.000000 0.025097 0.000000
# 6 0.000000 0.000000 0.000000 0.022737 0.000000 0.032947
#
#
# Mechanical properties :
#
#
# Convention : Reuss Voigt Hill
#
# Bulk Modulus (GPa) = 47.59155 68.78998 58.19076
# Shear Modulus (GPa) = 23.79166 37.38385 30.58775
#
# Velocity S-wave (km/s) = 3.10513 3.89233 3.52080
# Velocity P-wave (km/s) = 5.66946 6.93384 6.33328
#
# Compressibility (1/GPa) = 0.02101213
#
# Stress axis : x y z
#
# Youngs Moduli (GPa) = 65.18888 119.25868 43.98756
#
# Poissons Ratio (x) = 0.69251 0.51419
# Poissons Ratio (y) = 0.37854 -0.20994
# Poissons Ratio (z) = 0.76202 -0.56920
#
# Static dielectric constant tensor:
#      x y z
#    x 2.004370 0.000000 -0.043350 
#    y 0.000000 2.152200 0.000000 
#    z -0.043350 0.000000 2.189770 
# 
# From -- ./inp_files/173657.got.cif
#   From: 2010.05.17/outbox.cif.g08.bks.cpg/sg15_87_cif.got.tgz:173657.got - 2010.06.03 18:47:42.
