data_PCOD9258700
_publ_section_title
;
Structure prediction by ZEFSAII (Michael W. Deem and Ramdas Pophale) SiO2 
 PCOD9258700
Probable space group: C 2/C
;
_chemical_formula_sum "Si O2"
_cell_formula_units_Z 56
_cell_length_a 15.626218
_cell_length_b 12.714244
_cell_length_c 20.356860
_cell_angle_alpha 90.000000
_cell_angle_beta 46.097315
_cell_angle_gamma 90.000000
_cell_volume 2914.072933
_symmetry_space_group_name_H-M "C 2/C"
_symmetry_group_IT_number 15
_symmetry_cell_setting 'monoclinic'
loop_
_space_group_symop_operation_xyz
x,y,z
-x,y,1/2-z
-x,-y,-z
x,-y,1/2+z
1/2+x,1/2+y,z
1/2-x,1/2+y,1/2-z
1/2-x,1/2-y,-z
1/2+x,1/2-y,1/2+z
loop_
_atom_site_type_symbol
_atom_site_label
_atom_site_fract_x
_atom_site_fract_y
_atom_site_fract_z
Si Si1 0.415222 0.010080 0.705812
Si Si2 0.191541 0.827234 0.457524
Si Si3 0.078565 0.781488 0.894515
Si Si4 0.717394 0.445573 0.902232
Si Si5 0.388735 0.252018 0.766764
Si Si6 0.628895 0.954307 0.411991
Si Si7 0.190996 0.505499 0.519401
O O1 0.414009 0.129165 0.734633
O O2 0.343920 0.001737 0.674970
O O3 0.344295 0.941697 0.796831
O O4 0.552919 0.991541 0.614236
O O5 0.273503 0.749009 0.373278
O O6 0.063070 0.782098 0.539854
O O7 0.176360 0.932555 0.420649
O O8 0.263233 0.879198 0.480651
O O9 0.124412 0.870040 0.918723
O O10 0.128763 0.802172 0.794935
O O11 0.117341 0.669957 0.904207
O O12 0.737356 0.429310 0.969291
O O13 0.500000 0.291728 0.750000
O O14 0.706237 0.982365 0.434618
O O15 0.500000 0.000000 0.500000
#
# Coordination Sequence:
#
# PCOD9258700 Si02
#       7
#     8   8   8   8   8   8   8
#     4   9  15  34  55  76 102 144 188 229 271 328
#     4   9  20  36  58  77 114 149 187 231 285 341
#     4  11  22  35  53  88 114 147 191 233 288 334
#     4   9  19  33  57  76 113 150 190 223 285 339
#     4  10  18  34  52  78 107 143 185 232 276 328
#     4   9  20  34  53  80 113 139 186 241 277 332
#     4   9  17  33  59  78 105 151 188 224 286 328
#
# _framework density 19.217089999999999
#
# number of rings (size 3 to 8) (size 9 to 14) (size 15 to 20)
#    0.857    1.714    1.429    0.857    0.000    3.429 
#    2.571    0.000    0.000    0.000    0.000    0.000 
#    0.000    0.000    0.000    0.000    0.000    0.000 
#
# Total GULP energy -155912.275384 kJ/mol
# GULP energy per Si atom -5568.295549 kJ/mol
# Density = 1.917335 g / cm^3
# Si number density = 19.217090 Si / 1000 Ang^3
#
#
#
# Elastic Constant Matrix: (Units=GPa)
#
#
# Indices 1 2 3 4 5 6 
#
# 1 136.2501 18.8129 40.0965 0.0000 31.5234 0.0000
# 2 18.8129 21.2451 9.6792 0.0000 4.2332 0.0000
# 3 40.0965 9.6792 59.7276 0.0000 15.3994 0.0000
# 4 0.0000 0.0000 0.0000 9.3991 0.0000 4.1240
# 5 31.5234 4.2332 15.3994 0.0000 38.5547 0.0000
# 6 0.0000 0.0000 0.0000 4.1240 0.0000 22.3355
#
#
#
# Elastic Compliance Matrix: (Units=1/GPa)
#
#
# Indices 1 2 3 4 5 6 
#
# 1 0.011124 -0.006389 -0.004758 0.000000 -0.006493 0.000000
# 2 -0.006389 0.054718 -0.004879 0.000000 0.001165 0.000000
# 3 -0.004758 -0.004879 0.021835 0.000000 -0.004295 0.000000
# 4 0.000000 0.000000 0.000000 0.115773 0.000000 -0.021376
# 5 -0.006493 0.001165 -0.004295 0.000000 0.032834 0.000000
# 6 0.000000 0.000000 0.000000 -0.021376 0.000000 0.048719
#
#
# Mechanical properties :
#
#
# Convention : Reuss Voigt Hill
#
# Bulk Modulus (GPa) = 17.97739 39.37778 28.67758
# Shear Modulus (GPa) = 14.89885 23.96679 19.43282
#
# Velocity S-wave (km/s) = 2.78743 3.53535 3.18343
# Velocity P-wave (km/s) = 4.44239 6.09921 5.33551
#
# Compressibility (1/GPa) = 0.05562544
#
# Stress axis : x y z
#
# Youngs Moduli (GPa) = 89.89325 18.27553 45.79781
#
# Poissons Ratio (x) = 0.11676 0.21793
# Poissons Ratio (y) = 0.57433 0.22343
# Poissons Ratio (z) = 0.42775 0.08916
#
# Static dielectric constant tensor:
#      x y z
#    x 1.720750 0.000000 0.016830 
#    y 0.000000 1.694330 0.000000 
#    z 0.016830 0.000000 1.683650 
# 
# From -- ./inp_files/277048.got.cif
#   From: 2010.05.17/outbox.cif.g08.bks.cpg/sg15_139_cif.got.tgz:277048.got - 2010.06.03 18:47:42.
