data_PCOD9258985
_publ_section_title
;
Structure prediction by ZEFSAII (Michael W. Deem and Ramdas Pophale) SiO2 
 PCOD9258985
Probable space group: C 2/C
;
_chemical_formula_sum "Si O2"
_cell_formula_units_Z 48
_cell_length_a 8.879670
_cell_length_b 18.827108
_cell_length_c 14.505533
_cell_angle_alpha 90.000000
_cell_angle_beta 111.068680
_cell_angle_gamma 90.000000
_cell_volume 2262.901639
_symmetry_space_group_name_H-M "C 2/C"
_symmetry_group_IT_number 15
_symmetry_cell_setting 'monoclinic'
loop_
_space_group_symop_operation_xyz
x,y,z
-x,y,1/2-z
-x,-y,-z
x,-y,1/2+z
1/2+x,1/2+y,z
1/2-x,1/2+y,1/2-z
1/2-x,1/2-y,-z
1/2+x,1/2-y,1/2+z
loop_
_atom_site_type_symbol
_atom_site_label
_atom_site_fract_x
_atom_site_fract_y
_atom_site_fract_z
Si Si1 0.633240 0.646723 0.441032
Si Si2 0.767724 0.935017 0.199589
Si Si3 0.704323 0.736378 0.629570
Si Si4 0.500000 0.866765 0.250000
Si Si5 0.322836 0.991825 0.999823
Si Si6 0.118341 0.968735 0.606134
Si Si7 0.000000 0.193774 0.750000
O O1 0.617253 0.703583 0.520068
O O2 0.713284 0.689002 0.375058
O O3 0.762946 0.588060 0.502469
O O4 0.468110 0.604464 0.384737
O O5 0.586520 0.915733 0.192457
O O6 0.856752 0.861490 0.194970
O O7 0.778621 0.981496 0.110885
O O8 0.848967 0.977136 0.302978
O O9 0.574331 0.737489 0.682415
O O10 0.852726 0.683146 0.685028
O O11 0.500000 0.000000 0.000000
O O12 0.282636 0.036649 0.082546
O O13 0.000000 0.000000 0.500000
#
# Coordination Sequence:
#
# PCOD9258985 Si02
#       7
#     8   8   8   4   8   8   4
#     4  10  21  38  56  81 114 150 191 227 288 346
#     4  11  20  34  58  84 112 145 189 239 283 339
#     4  10  21  37  58  79 112 154 188 234 276 347
#     4  10  20  36  56  82 112 148 190 224 284 342
#     4  11  21  35  57  84 115 147 186 243 291 328
#     4  10  20  35  57  85 114 147 189 237 286 341
#     4  10  18  34  58  82 106 144 194 230 280 332
#
# _framework density 21.211703
#
# number of rings (size 3 to 8) (size 9 to 14) (size 15 to 20)
#    0.000    1.667    0.000    9.000    0.000    1.333 
#    0.000    5.833    0.000   12.000    0.000    0.000 
#    0.000    0.000    0.000    0.000    0.000    0.000 
#
# Total GULP energy -133917.801580 kJ/mol
# GULP energy per Si atom -5579.908399 kJ/mol
# Density = 2.116342 g / cm^3
# Si number density = 21.211703 Si / 1000 Ang^3
#
#
#
# Elastic Constant Matrix: (Units=GPa)
#
#
# Indices 1 2 3 4 5 6 
#
# 1 169.3877 53.8265 34.1617 0.0000 -37.5598 0.0000
# 2 53.8265 87.3492 24.5365 0.0000 -23.0441 0.0000
# 3 34.1617 24.5365 76.0149 0.0000 -23.3069 0.0000
# 4 0.0000 0.0000 0.0000 24.6305 0.0000 -16.3606
# 5 -37.5598 -23.0441 -23.3069 0.0000 36.9956 0.0000
# 6 0.0000 0.0000 0.0000 -16.3606 0.0000 23.9651
#
#
#
# Elastic Compliance Matrix: (Units=1/GPa)
#
#
# Indices 1 2 3 4 5 6 
#
# 1 0.008482 -0.003413 -0.000894 0.000000 0.005921 0.000000
# 2 -0.003413 0.015387 -0.001929 0.000000 0.004904 0.000000
# 3 -0.000894 -0.001929 0.016773 0.000000 0.008457 0.000000
# 4 0.000000 0.000000 0.000000 0.074287 0.000000 0.050714
# 5 0.005921 0.004904 0.008457 0.000000 0.041424 0.000000
# 6 0.000000 0.000000 0.000000 0.050714 0.000000 0.076349
#
#
# Mechanical properties :
#
#
# Convention : Reuss Voigt Hill
#
# Bulk Modulus (GPa) = 35.50108 61.97792 48.73950
# Shear Modulus (GPa) = 19.64131 31.80005 25.72068
#
# Velocity S-wave (km/s) = 3.04627 3.87612 3.48598
# Velocity P-wave (km/s) = 5.39869 7.02243 6.26340
#
# Compressibility (1/GPa) = 0.02816816
#
# Stress axis : x y z
#
# Youngs Moduli (GPa) = 117.90198 64.98896 59.61950
#
# Poissons Ratio (x) = 0.22182 0.05332
# Poissons Ratio (y) = 0.40242 0.11502
# Poissons Ratio (z) = 0.10545 0.12538
#
# Static dielectric constant tensor:
#      x y z
#    x 1.850210 0.000000 0.030450 
#    y 0.000000 1.757130 0.000000 
#    z 0.030450 0.000000 1.830250 
# 
# From -- ./inp_files/135933.got.cif
#   From: 2010.05.17/outbox.cif.g08.bks.cpg/sg15_68_cif.got.tgz:135933.got - 2010.06.03 18:47:42.
