data_PCOD9258786
_publ_section_title
;
Structure prediction by ZEFSAII (Michael W. Deem and Ramdas Pophale) SiO2 
 PCOD9258786
Probable space group: C 2/C
;
_chemical_formula_sum "Si O2"
_cell_formula_units_Z 52
_cell_length_a 29.619800
_cell_length_b 17.669002
_cell_length_c 14.473511
_cell_angle_alpha 90.000000
_cell_angle_beta 159.608753
_cell_angle_gamma 90.000000
_cell_volume 2639.259856
_symmetry_space_group_name_H-M "C 2/C"
_symmetry_group_IT_number 15
_symmetry_cell_setting 'monoclinic'
loop_
_space_group_symop_operation_xyz
x,y,z
-x,y,1/2-z
-x,-y,-z
x,-y,1/2+z
1/2+x,1/2+y,z
1/2-x,1/2+y,1/2-z
1/2-x,1/2-y,-z
1/2+x,1/2-y,1/2+z
loop_
_atom_site_type_symbol
_atom_site_label
_atom_site_fract_x
_atom_site_fract_y
_atom_site_fract_z
Si Si1 0.721212 0.804912 0.306863
Si Si2 0.229830 0.348908 0.056796
Si Si3 0.358819 0.158547 0.651092
Si Si4 0.835920 0.678653 0.275458
Si Si5 0.846698 0.441023 0.957955
Si Si6 0.000000 0.328921 0.750000
Si Si7 0.858183 0.071037 0.950502
O O1 0.676678 0.852432 0.310610
O O2 0.780686 0.728527 0.459003
O O3 0.820741 0.855548 0.439711
O O4 0.598166 0.786875 0.006534
O O5 0.268285 0.260897 0.149187
O O6 0.343201 0.400097 0.316622
O O7 0.208866 0.357894 0.907706
O O8 0.100750 0.367734 0.870466
O O9 0.328124 0.087874 0.526878
O O10 0.508629 0.183177 0.933025
O O11 0.816435 0.627567 0.328724
O O12 0.751743 0.508089 0.747794
O O13 0.000000 0.460345 0.250000
O O14 0.000000 0.044408 0.250000
#
# Coordination Sequence:
#
# PCOD9258786 Si02
#       7
#     8   8   8   8   8   4   8
#     4  10  21  36  65  88 120 155 203 253 304 355
#     4  10  21  36  65  88 120 155 203 253 304 355
#     4  10  20  40  61  93 117 156 201 256 301 363
#     4  10  20  40  61  93 117 156 201 256 301 363
#     4  10  23  39  61  84 123 161 205 244 305 357
#     4  10  18  34  54  94 118 154 196 244 292 360
#     4  11  24  42  59  87 122 167 200 248 303 371
#
# _framework density 19.702493
#
# number of rings (size 3 to 8) (size 9 to 14) (size 15 to 20)
#    0.000    1.846    1.538    2.769    4.308    2.462 
#    5.538    4.615    0.000    0.000    0.000    0.000 
#    0.000    0.000    0.000    0.000    0.000    0.000 
#
# Total GULP energy -144990.624130 kJ/mol
# GULP energy per Si atom -5576.562467 kJ/mol
# Density = 1.965765 g / cm^3
# Si number density = 19.702493 Si / 1000 Ang^3
#
#
#
# Elastic Constant Matrix: (Units=GPa)
#
#
# Indices 1 2 3 4 5 6 
#
# 1 83.0710 -1.5518 23.0908 0.0000 -25.6424 0.0000
# 2 -1.5518 23.2739 21.0213 0.0000 -6.0080 0.0000
# 3 23.0908 21.0213 113.6451 0.0000 -28.2655 0.0000
# 4 0.0000 0.0000 0.0000 36.1053 0.0000 9.1152
# 5 -25.6424 -6.0080 -28.2655 0.0000 30.6417 0.0000
# 6 0.0000 0.0000 0.0000 9.1152 0.0000 15.9285
#
#
#
# Elastic Compliance Matrix: (Units=1/GPa)
#
#
# Indices 1 2 3 4 5 6 
#
# 1 0.016824 0.005631 -0.000887 0.000000 0.014365 0.000000
# 2 0.005631 0.053538 -0.009427 0.000000 0.006514 0.000000
# 3 -0.000887 -0.009427 0.013080 0.000000 0.009475 0.000000
# 4 0.000000 0.000000 0.000000 0.032374 0.000000 -0.018526
# 5 0.014365 0.006514 0.009475 0.000000 0.054673 0.000000
# 6 0.000000 0.000000 0.000000 -0.018526 0.000000 0.073382
#
#
# Mechanical properties :
#
#
# Convention : Reuss Voigt Hill
#
# Bulk Modulus (GPa) = 13.49972 33.90117 23.70044
# Shear Modulus (GPa) = 17.99016 28.36377 23.17696
#
# Velocity S-wave (km/s) = 3.02502 3.79833 3.43351
# Velocity P-wave (km/s) = 4.36665 6.03989 5.27010
#
# Compressibility (1/GPa) = 0.07407562
#
# Stress axis : x y z
#
# Youngs Moduli (GPa) = 59.43965 18.67817 76.45313
#
# Poissons Ratio (x) = -0.10518 0.06783
# Poissons Ratio (y) = -0.33472 0.72074
# Poissons Ratio (z) = 0.05273 0.17608
#
# Static dielectric constant tensor:
#      x y z
#    x 1.712170 0.000000 0.003830 
#    y 0.000000 1.698350 0.000000 
#    z 0.003830 0.000000 1.686180 
# 
# From -- ./inp_files/182908.got.cif
#   From: 2010.05.17/outbox.cif.g08.bks.cpg/sg15_92_cif.got.tgz:182908.got - 2010.06.03 18:47:42.
