data_PCOD9258000
_publ_section_title
;
Structure prediction by ZEFSAII (Michael W. Deem and Ramdas Pophale) SiO2 
 PCOD9258000
Probable space group: C 2/C
;
_chemical_formula_sum "Si O2"
_cell_formula_units_Z 64
_cell_length_a 9.107710
_cell_length_b 18.415677
_cell_length_c 22.522274
_cell_angle_alpha 90.000000
_cell_angle_beta 61.069602
_cell_angle_gamma 90.000000
_cell_volume 3306.133602
_symmetry_space_group_name_H-M "C 2/C"
_symmetry_group_IT_number 15
_symmetry_cell_setting 'monoclinic'
loop_
_space_group_symop_operation_xyz
x,y,z
-x,y,1/2-z
-x,-y,-z
x,-y,1/2+z
1/2+x,1/2+y,z
1/2-x,1/2+y,1/2-z
1/2-x,1/2-y,-z
1/2+x,1/2-y,1/2+z
loop_
_atom_site_type_symbol
_atom_site_label
_atom_site_fract_x
_atom_site_fract_y
_atom_site_fract_z
Si Si1 0.909601 0.302809 0.471910
Si Si2 0.357559 0.582084 0.922026
Si Si3 0.330541 0.795780 0.816746
Si Si4 0.573228 0.610248 0.298981
Si Si5 0.183096 0.357640 0.344406
Si Si6 0.342576 0.419680 0.951881
Si Si7 0.377083 0.673113 0.031966
Si Si8 0.362412 0.549714 0.723377
O O1 0.750000 0.250000 0.500000
O O2 0.832554 0.377584 0.510186
O O3 0.002232 0.322387 0.392188
O O4 0.044087 0.254070 0.481004
O O5 0.227331 0.593567 0.893477
O O6 0.329468 0.505859 0.961226
O O7 0.539988 0.578035 0.853871
O O8 0.344097 0.645404 0.972675
O O9 0.500000 0.817104 0.750000
O O10 0.180659 0.826307 0.805844
O O11 0.314579 0.708847 0.821091
O O12 0.282193 0.825290 0.891918
O O13 0.500000 0.628633 0.250000
O O14 0.418557 0.592383 0.371961
O O15 0.678584 0.535107 0.276519
O O16 0.212698 0.402081 0.278594
O O17 0.480110 0.381325 0.968225
O O18 0.500000 0.551278 0.750000
#
# Coordination Sequence:
#
# PCOD9258000 Si02
#       8
#     8   8   8   8   8   8   8   8
#     4   9  19  36  54  72 109 151 179 226 283 326
#     4  10  18  32  57  86 105 141 192 223 273 345
#     4  10  20  36  54  78 115 148 176 231 290 324
#     4   9  18  36  57  80 106 145 190 224 275 344
#     4  10  20  36  57  76 112 146 183 227 284 328
#     4   9  18  35  56  79 110 148 180 227 282 327
#     4   9  19  35  56  78 114 145 181 227 282 333
#     4   8  16  33  57  77 106 143 179 226 277 327
#
# _framework density 19.357958
#
# number of rings (size 3 to 8) (size 9 to 14) (size 15 to 20)
#    0.000    2.750    0.000    3.000    0.000    2.500 
#    9.000    0.000    0.000    0.000    0.000    0.000 
#    0.000    0.000    0.000    0.000    0.000    0.000 
#
# Total GULP energy -178250.354980 kJ/mol
# GULP energy per Si atom -5570.323593 kJ/mol
# Density = 1.931390 g / cm^3
# Si number density = 19.357958 Si / 1000 Ang^3
#
#
#
# Elastic Constant Matrix: (Units=GPa)
#
#
# Indices 1 2 3 4 5 6 
#
# 1 17.3439 14.1301 27.2114 0.0000 -6.5028 0.0000
# 2 14.1301 92.3722 45.1916 0.0000 -10.3336 0.0000
# 3 27.2114 45.1916 103.8013 0.0000 -10.0554 0.0000
# 4 0.0000 0.0000 0.0000 36.0401 0.0000 -4.7402
# 5 -6.5028 -10.3336 -10.0554 0.0000 28.7645 0.0000
# 6 0.0000 0.0000 0.0000 -4.7402 0.0000 16.5525
#
#
#
# Elastic Compliance Matrix: (Units=1/GPa)
#
#
# Indices 1 2 3 4 5 6 
#
# 1 0.103704 -0.002112 -0.024913 0.000000 0.013977 0.000000
# 2 -0.002112 0.014045 -0.005298 0.000000 0.002716 0.000000
# 3 -0.024913 -0.005298 0.018363 0.000000 -0.001116 0.000000
# 4 0.000000 0.000000 0.000000 0.028833 0.000000 0.008257
# 5 0.013977 0.002716 -0.001116 0.000000 0.038510 0.000000
# 6 0.000000 0.000000 0.000000 0.008257 0.000000 0.062778
#
#
# Mechanical properties :
#
#
# Convention : Reuss Voigt Hill
#
# Bulk Modulus (GPa) = 13.99242 42.95375 28.47308
# Shear Modulus (GPa) = 14.09640 24.73703 19.41671
#
# Velocity S-wave (km/s) = 2.70144 3.57861 3.17051
# Velocity P-wave (km/s) = 4.11999 6.26998 5.30504
#
# Compressibility (1/GPa) = 0.07146726
#
# Stress axis : x y z
#
# Youngs Moduli (GPa) = 9.64280 71.20222 54.45738
#
# Poissons Ratio (x) = 0.15037 1.35668
# Poissons Ratio (y) = 0.02036 0.28850
# Poissons Ratio (z) = 0.24023 0.37721
#
# Static dielectric constant tensor:
#      x y z
#    x 1.684840 0.000000 -0.016140 
#    y 0.000000 1.720920 0.000000 
#    z -0.016140 0.000000 1.714940 
# 
# From -- ./inp_files/265922.got.cif
#   From: 2010.05.17/outbox.cif.g08.bks.cpg/sg15_133_cif.got.tgz:265922.got - 2010.06.03 18:47:42.
