data_PCOD9258772
_publ_section_title
;
Structure prediction by ZEFSAII (Michael W. Deem and Ramdas Pophale) SiO2 
 PCOD9258772
Probable space group: C 2/C
;
_chemical_formula_sum "Si O2"
_cell_formula_units_Z 44
_cell_length_a 5.891873
_cell_length_b 23.930470
_cell_length_c 18.226660
_cell_angle_alpha 90.000000
_cell_angle_beta 68.243391
_cell_angle_gamma 90.000000
_cell_volume 2386.812930
_symmetry_space_group_name_H-M "C 2/C"
_symmetry_group_IT_number 15
_symmetry_cell_setting 'monoclinic'
loop_
_space_group_symop_operation_xyz
x,y,z
-x,y,1/2-z
-x,-y,-z
x,-y,1/2+z
1/2+x,1/2+y,z
1/2-x,1/2+y,1/2-z
1/2-x,1/2-y,-z
1/2+x,1/2-y,1/2+z
loop_
_atom_site_type_symbol
_atom_site_label
_atom_site_fract_x
_atom_site_fract_y
_atom_site_fract_z
Si Si1 0.341374 0.959987 0.964372
Si Si2 0.649180 0.163799 0.018215
Si Si3 0.000000 0.904643 0.250000
Si Si4 0.367632 0.270659 0.061478
Si Si5 0.983571 0.349980 0.136930
Si Si6 0.345191 0.453118 0.116562
O O1 0.293526 0.991311 0.893537
O O2 0.427653 0.896513 0.942058
O O3 0.083599 0.950970 0.036745
O O4 0.500000 0.000000 0.000000
O O5 0.584312 0.159338 0.939822
O O6 0.933992 0.181669 0.982911
O O7 0.511874 0.216196 0.072093
O O8 0.765239 0.865424 0.292313
O O9 0.939448 0.943390 0.187459
O O10 0.155579 0.297479 0.136467
O O11 0.250000 0.250000 0.000000
O O12 0.156904 0.403548 0.123183
#
# Coordination Sequence:
#
# PCOD9258772 Si02
#       6
#     8   8   4   8   8   8
#     4  11  20  35  56  85 124 148 190 246 302 349
#     4  10  18  34  54  84 121 145 189 243 299 351
#     4  12  22  34  52  80 128 152 200 236 300 372
#     4   9  19  31  54  81 120 146 185 239 298 352
#     4  11  19  35  52  82 121 151 191 245 296 356
#     4  11  22  33  54  81 126 152 192 244 299 358
#
# _framework density 18.434623999999999
#
# number of rings (size 3 to 8) (size 9 to 14) (size 15 to 20)
#    0.000    1.455    5.455    0.545    0.000    0.000 
#    0.000    0.000    0.000    0.000    0.000    0.000 
#  496.364    0.000    0.000    0.000    0.000    0.000 
#
# Total GULP energy -122561.023213 kJ/mol
# GULP energy per Si atom -5570.955601 kJ/mol
# Density = 1.839267 g / cm^3
# Si number density = 18.434624 Si / 1000 Ang^3
#
#
#
# Elastic Constant Matrix: (Units=GPa)
#
#
# Indices 1 2 3 4 5 6 
#
# 1 99.9077 43.9840 34.7712 0.0000 -12.9272 0.0000
# 2 43.9840 142.2975 38.3767 0.0000 -12.8321 0.0000
# 3 34.7712 38.3767 66.5907 0.0000 -4.4291 0.0000
# 4 0.0000 0.0000 0.0000 15.3892 0.0000 1.2243
# 5 -12.9272 -12.8321 -4.4291 0.0000 35.0322 0.0000
# 6 0.0000 0.0000 0.0000 1.2243 0.0000 27.2970
#
#
#
# Elastic Compliance Matrix: (Units=1/GPa)
#
#
# Indices 1 2 3 4 5 6 
#
# 1 0.013367 -0.002374 -0.005387 0.000000 0.003382 0.000000
# 2 -0.002374 0.008958 -0.003795 0.000000 0.001926 0.000000
# 3 -0.005387 -0.003795 0.019960 0.000000 -0.000854 0.000000
# 4 0.000000 0.000000 0.000000 0.065213 0.000000 -0.002925
# 5 0.003382 0.001926 -0.000854 0.000000 0.030390 0.000000
# 6 0.000000 0.000000 0.000000 -0.002925 0.000000 0.036765
#
#
# Mechanical properties :
#
#
# Convention : Reuss Voigt Hill
#
# Bulk Modulus (GPa) = 52.15403 60.33997 56.24700
# Shear Modulus (GPa) = 24.49097 28.32127 26.40612
#
# Velocity S-wave (km/s) = 3.64886 3.92383 3.78884
# Velocity P-wave (km/s) = 6.79006 7.30284 7.05112
#
# Compressibility (1/GPa) = 0.01917398
#
# Stress axis : x y z
#
# Youngs Moduli (GPa) = 74.81320 111.62587 50.09991
#
# Poissons Ratio (x) = 0.26499 0.26986
# Poissons Ratio (y) = 0.17760 0.19014
# Poissons Ratio (z) = 0.40298 0.42364
#
# Static dielectric constant tensor:
#      x y z
#    x 1.707810 0.000000 -0.014580 
#    y 0.000000 1.695130 0.000000 
#    z -0.014580 0.000000 1.611220 
# 
# From -- ./inp_files/129405.got.cif
#   From: 2010.05.17/outbox.cif.g08.bks.cpg/sg15_65_cif.got.tgz:129405.got - 2010.06.03 18:47:42.
