data_PCOD9258660
_publ_section_title
;
Structure prediction by ZEFSAII (Michael W. Deem and Ramdas Pophale) SiO2 
 PCOD9258660
Probable space group: C 2/C
;
_chemical_formula_sum "Si O2"
_cell_formula_units_Z 64
_cell_length_a 22.360660
_cell_length_b 22.787193
_cell_length_c 9.425993
_cell_angle_alpha 90.000000
_cell_angle_beta 46.924800
_cell_angle_gamma 90.000000
_cell_volume 3508.308586
_symmetry_space_group_name_H-M "C 2/C"
_symmetry_group_IT_number 15
_symmetry_cell_setting 'monoclinic'
loop_
_space_group_symop_operation_xyz
x,y,z
-x,y,1/2-z
-x,-y,-z
x,-y,1/2+z
1/2+x,1/2+y,z
1/2-x,1/2+y,1/2-z
1/2-x,1/2-y,-z
1/2+x,1/2-y,1/2+z
loop_
_atom_site_type_symbol
_atom_site_label
_atom_site_fract_x
_atom_site_fract_y
_atom_site_fract_z
Si Si1 0.586691 0.831402 0.692629
Si Si2 0.100534 0.196331 0.322029
Si Si3 0.931215 0.066804 0.187214
Si Si4 0.034722 0.284988 0.048797
Si Si5 0.115347 0.970833 0.428677
Si Si6 0.808315 0.773515 0.087025
Si Si7 0.259648 0.626181 0.860566
Si Si8 0.825099 0.206399 0.015678
O O1 0.500000 0.836772 0.750000
O O2 0.661143 0.875238 0.535370
O O3 0.628112 0.766211 0.606820
O O4 0.567381 0.833521 0.890119
O O5 0.078429 0.136086 0.281524
O O6 0.117568 0.179232 0.456516
O O7 0.031980 0.246216 0.425818
O O8 0.174181 0.223953 0.109260
O O9 0.893814 0.035680 0.387389
O O10 0.886280 0.037059 0.126560
O O11 0.028318 0.055581 0.016551
O O12 0.000000 0.310990 0.250000
O O13 0.102823 0.239341 0.990663
O O14 0.189917 0.933393 0.243243
O O15 0.776079 0.835773 0.192669
O O16 0.751861 0.727403 0.263652
O O17 0.296623 0.665188 0.932589
#
# Coordination Sequence:
#
# PCOD9258660 Si02
#       8
#     8   8   8   8   8   8   8   8
#     4  11  20  35  49  79 110 146 187 224 256 329
#     4  11  21  31  52  76 106 147 179 221 259 327
#     4  10  22  38  56  76 109 136 186 219 273 324
#     4  10  19  31  49  70 107 152 181 212 264 313
#     4  10  22  39  55  79 105 143 175 234 269 318
#     4  10  18  34  47  72 107 146 181 211 267 311
#     4  11  20  35  55  73 111 150 182 222 279 317
#     4  11  21  30  50  77 111 143 180 218 256 331
#
# _framework density 18.242408999999999
#
# number of rings (size 3 to 8) (size 9 to 14) (size 15 to 20)
#    0.000    1.500    5.000    1.875    5.250    0.000 
#    0.000    0.000    0.000    0.000    0.000    0.875 
#    0.000    0.000    0.000    0.000    0.000    0.000 
#
# Total GULP energy -178230.838790 kJ/mol
# GULP energy per Si atom -5569.713712 kJ/mol
# Density = 1.820089 g / cm^3
# Si number density = 18.242409 Si / 1000 Ang^3
#
#
#
# Elastic Constant Matrix: (Units=GPa)
#
#
# Indices 1 2 3 4 5 6 
#
# 1 60.9454 -4.5108 27.3504 0.0000 -5.6438 0.0000
# 2 -4.5108 25.2075 11.4905 0.0000 -10.9048 0.0000
# 3 27.3504 11.4905 101.3941 0.0000 -13.4614 0.0000
# 4 0.0000 0.0000 0.0000 19.7074 0.0000 -0.9635
# 5 -5.6438 -10.9048 -13.4614 0.0000 26.8421 0.0000
# 6 0.0000 0.0000 0.0000 -0.9635 0.0000 13.9639
#
#
#
# Elastic Compliance Matrix: (Units=1/GPa)
#
#
# Indices 1 2 3 4 5 6 
#
# 1 0.020010 0.008206 -0.005706 0.000000 0.004679 0.000000
# 2 0.008206 0.052399 -0.005460 0.000000 0.020274 0.000000
# 3 -0.005706 -0.005460 0.012392 0.000000 0.002797 0.000000
# 4 0.000000 0.000000 0.000000 0.050914 0.000000 0.003513
# 5 0.004679 0.020274 0.002797 0.000000 0.047878 0.000000
# 6 0.000000 0.000000 0.000000 0.003513 0.000000 0.071856
#
#
# Mechanical properties :
#
#
# Convention : Reuss Voigt Hill
#
# Bulk Modulus (GPa) = 12.67755 28.46748 20.57251
# Shear Modulus (GPa) = 17.38158 22.31715 19.84937
#
# Velocity S-wave (km/s) = 3.09011 3.50146 3.30220
# Velocity P-wave (km/s) = 4.43805 5.65561 5.08342
#
# Compressibility (1/GPa) = 0.07887962
#
# Stress axis : x y z
#
# Youngs Moduli (GPa) = 49.97622 19.08447 80.69894
#
# Poissons Ratio (x) = -0.15661 0.46048
# Poissons Ratio (y) = -0.41010 0.44061
# Poissons Ratio (z) = 0.28517 0.10420
#
# Static dielectric constant tensor:
#      x y z
#    x 1.710080 0.000000 0.002030 
#    y 0.000000 1.591970 0.000000 
#    z 0.002030 0.000000 1.695220 
# 
# From -- ./inp_files/59029.got.cif
#   From: 2010.05.17/outbox.cif.g08.bks.cpg/sg15_30_cif.got.tgz:59029.got - 2010.06.03 18:47:42.
