data_PCOD9258590
_publ_section_title
;
Structure prediction by ZEFSAII (Michael W. Deem and Ramdas Pophale) SiO2 
 PCOD9258590
Probable space group: C 2/C
;
_chemical_formula_sum "Si O2"
_cell_formula_units_Z 44
_cell_length_a 18.407998
_cell_length_b 16.726134
_cell_length_c 8.452019
_cell_angle_alpha 90.000000
_cell_angle_beta 126.038719
_cell_angle_gamma 90.000000
_cell_volume 2104.296141
_symmetry_space_group_name_H-M "C 2/C"
_symmetry_group_IT_number 15
_symmetry_cell_setting 'monoclinic'
loop_
_space_group_symop_operation_xyz
x,y,z
-x,y,1/2-z
-x,-y,-z
x,-y,1/2+z
1/2+x,1/2+y,z
1/2-x,1/2+y,1/2-z
1/2-x,1/2-y,-z
1/2+x,1/2-y,1/2+z
loop_
_atom_site_type_symbol
_atom_site_label
_atom_site_fract_x
_atom_site_fract_y
_atom_site_fract_z
Si Si1 0.000000 0.874595 0.750000
Si Si2 0.856602 0.041164 0.843274
Si Si3 0.191750 0.424699 0.341852
Si Si4 0.894307 0.431853 0.597040
Si Si5 0.338497 0.638772 0.224653
Si Si6 0.734761 0.659250 0.025030
O O1 0.941074 0.926557 0.549892
O O2 0.924941 0.824441 0.749760
O O3 0.773218 0.028769 0.857063
O O4 0.824406 0.108245 0.676767
O O5 0.866772 0.955512 0.775450
O O6 0.140175 0.478571 0.403780
O O7 0.248653 0.356581 0.503056
O O8 0.129908 0.405544 0.112886
O O9 0.833576 0.380722 0.640154
O O10 0.000000 0.426249 0.750000
O O11 0.313787 0.661442 0.369089
O O12 0.750000 0.750000 0.000000
#
# Coordination Sequence:
#
# PCOD9258590 Si02
#       6
#     4   8   8   8   8   8
#     4  10  22  32  58  96 116 160 212 260 290 352
#     4  10  19  37  60  88 125 160 209 248 307 364
#     4  10  18  33  60  88 118 159 198 263 314 355
#     4  11  20  36  59  90 120 154 214 255 309 370
#     4  11  19  38  61  89 127 157 210 250 308 372
#     4  11  23  41  63  88 124 173 198 252 323 370
#
# _framework density 20.909606
#
# number of rings (size 3 to 8) (size 9 to 14) (size 15 to 20)
#    0.000    1.455    5.455    2.182    0.000    0.727 
#    3.273    8.182    0.000    0.000    9.455    0.000 
#    0.000    0.000    0.000    0.000    0.000    0.000 
#
# Total GULP energy -122685.083467 kJ/mol
# GULP energy per Si atom -5576.594703 kJ/mol
# Density = 2.086201 g / cm^3
# Si number density = 20.909606 Si / 1000 Ang^3
#
#
#
# Elastic Constant Matrix: (Units=GPa)
#
#
# Indices 1 2 3 4 5 6 
#
# 1 153.0877 37.1115 90.5963 0.0000 3.2173 0.0000
# 2 37.1115 43.8549 7.3721 0.0000 -4.6227 0.0000
# 3 90.5963 7.3721 148.0270 0.0000 7.4033 0.0000
# 4 0.0000 0.0000 0.0000 5.8111 0.0000 -2.6579
# 5 3.2173 -4.6227 7.4033 0.0000 49.2454 0.0000
# 6 0.0000 0.0000 0.0000 -2.6579 0.0000 11.4653
#
#
#
# Elastic Compliance Matrix: (Units=1/GPa)
#
#
# Indices 1 2 3 4 5 6 
#
# 1 0.013683 -0.010336 -0.007825 0.000000 -0.000688 0.000000
# 2 -0.010336 0.031076 0.004634 0.000000 0.002896 0.000000
# 3 -0.007825 0.004634 0.011352 0.000000 -0.000760 0.000000
# 4 0.000000 0.000000 0.000000 0.192495 0.000000 0.044625
# 5 -0.000688 0.002896 -0.000760 0.000000 0.020738 0.000000
# 6 0.000000 0.000000 0.000000 0.044625 0.000000 0.097565
#
#
# Mechanical properties :
#
#
# Convention : Reuss Voigt Hill
#
# Bulk Modulus (GPa) = 34.41743 68.34773 51.38258
# Shear Modulus (GPa) = 12.38695 27.29701 19.84198
#
# Velocity S-wave (km/s) = 2.43658 3.61706 3.08383
# Velocity P-wave (km/s) = 4.94082 7.08536 6.10795
#
# Compressibility (1/GPa) = 0.02905505
#
# Stress axis : x y z
#
# Youngs Moduli (GPa) = 73.08080 32.17934 88.08884
#
# Poissons Ratio (x) = 0.33262 0.68934
# Poissons Ratio (y) = 0.75540 -0.40818
# Poissons Ratio (z) = 0.57189 -0.14911
#
# Static dielectric constant tensor:
#      x y z
#    x 1.764950 0.000000 -0.012120 
#    y 0.000000 1.809920 0.000000 
#    z -0.012120 0.000000 1.784450 
# 
# From -- ./inp_files/39738.got.cif
#   From: 2010.05.17/outbox.cif.g08.bks.cpg/sg15_20_cif.got.tgz:39738.got - 2010.06.03 18:47:42.
