data_PCOD9258761
_publ_section_title
;
Structure prediction by ZEFSAII (Michael W. Deem and Ramdas Pophale) SiO2 
 PCOD9258761
Probable space group: C 2/C
;
_chemical_formula_sum "Si O2"
_cell_formula_units_Z 56
_cell_length_a 27.876382
_cell_length_b 5.407861
_cell_length_c 22.401354
_cell_angle_alpha 90.000000
_cell_angle_beta 119.682216
_cell_angle_gamma 90.000000
_cell_volume 2933.922511
_symmetry_space_group_name_H-M "C 2/C"
_symmetry_group_IT_number 15
_symmetry_cell_setting 'monoclinic'
loop_
_space_group_symop_operation_xyz
x,y,z
-x,y,1/2-z
-x,-y,-z
x,-y,1/2+z
1/2+x,1/2+y,z
1/2-x,1/2+y,1/2-z
1/2-x,1/2-y,-z
1/2+x,1/2-y,1/2+z
loop_
_atom_site_type_symbol
_atom_site_label
_atom_site_fract_x
_atom_site_fract_y
_atom_site_fract_z
Si Si1 0.650509 0.596449 0.856469
Si Si2 0.721257 0.385245 0.208365
Si Si3 0.389035 0.706033 0.789855
Si Si4 0.450917 0.817430 0.304869
Si Si5 0.250426 0.760472 0.903947
Si Si6 0.186230 0.526595 0.462283
Si Si7 0.072547 0.717984 0.847060
O O1 0.640458 0.762670 0.792485
O O2 0.692161 0.394336 0.855142
O O3 0.592392 0.495521 0.844288
O O4 0.678771 0.698629 0.933390
O O5 0.743838 0.650649 0.244502
O O6 0.659127 0.342046 0.192627
O O7 0.726674 0.367124 0.140454
O O8 0.422991 0.448447 0.802554
O O9 0.425566 0.949280 0.824432
O O10 0.440029 0.874297 0.227776
O O11 0.517094 0.799371 0.350718
O O12 0.231923 0.575511 0.944343
O O13 0.293214 0.954531 0.959760
O O14 0.126404 0.406216 0.409897
#
# Coordination Sequence:
#
# PCOD9258761 Si02
#       7
#     8   8   8   8   8   8   8
#     4  10  18  34  54  83 115 148 183 236 292 346
#     4  12  24  39  61  84 117 157 192 235 283 344
#     4  11  21  35  57  81 116 148 188 235 284 337
#     4  10  21  35  55  84 114 147 190 241 287 330
#     4  10  22  35  55  89 114 156 190 235 290 350
#     4  10  19  36  58  82 122 147 192 235 296 346
#     4   9  20  31  54  83 111 146 189 237 291 338
#
# _framework density 19.087074000000001
#
# number of rings (size 3 to 8) (size 9 to 14) (size 15 to 20)
#    0.000    1.714    2.857    2.143    4.000    1.143 
#    0.000    0.000    0.000    1.714    0.000    0.000 
#    0.000    0.000    0.000    0.000    0.000    0.000 
#
# Total GULP energy -155987.006279 kJ/mol
# GULP energy per Si atom -5570.964510 kJ/mol
# Density = 1.904363 g / cm^3
# Si number density = 19.087074 Si / 1000 Ang^3
#
#
#
# Elastic Constant Matrix: (Units=GPa)
#
#
# Indices 1 2 3 4 5 6 
#
# 1 129.1425 27.8747 21.6565 -0.0004 9.4712 0.0002
# 2 27.8747 56.0288 0.0553 -0.0045 4.6136 0.0042
# 3 21.6565 0.0553 51.7456 0.0006 2.6971 0.0002
# 4 -0.0004 -0.0045 0.0006 18.8493 0.0001 1.8215
# 5 9.4712 4.6136 2.6971 0.0001 18.8383 0.0003
# 6 0.0002 0.0042 0.0002 1.8215 0.0003 17.0389
#
#
#
# Elastic Compliance Matrix: (Units=1/GPa)
#
#
# Indices 1 2 3 4 5 6 
#
# 1 0.009594 -0.004508 -0.003845 -0.000001 -0.003169 0.000001
# 2 -0.004508 0.020336 0.002022 0.000005 -0.003003 -0.000005
# 3 -0.003845 0.002022 0.021014 0.000000 -0.001570 -0.000001
# 4 -0.000001 0.000005 0.000000 0.053606 -0.000001 -0.005731
# 5 -0.003169 -0.003003 -0.001570 -0.000001 0.055637 0.000000
# 6 0.000001 -0.000005 -0.000001 -0.005731 0.000000 0.059302
#
#
# Mechanical properties :
#
#
# Convention : Reuss Voigt Hill
#
# Bulk Modulus (GPa) = 26.12295 37.34331 31.73313
# Shear Modulus (GPa) = 20.41543 23.43399 21.92471
#
# Velocity S-wave (km/s) = 3.27401 3.50772 3.39288
# Velocity P-wave (km/s) = 5.29227 6.00105 5.65777
#
# Compressibility (1/GPa) = 0.03828052
#
# Stress axis : x y z
#
# Youngs Moduli (GPa) = 104.23566 49.17362 47.58673
#
# Poissons Ratio (x) = 0.22168 0.18298
# Poissons Ratio (y) = 0.46991 -0.09620
# Poissons Ratio (z) = 0.40080 -0.09941
#
# Static dielectric constant tensor:
#      x y z
#    x 1.656620 0.000000 0.030960 
#    y 0.000000 1.788100 0.000000 
#    z 0.030960 0.000000 1.697710 
# 
# From -- ./inp_files/254394.got.cif
#   From: 2010.05.17/outbox.cif.g08.bks.cpg/sg15_128_cif.got.tgz:254394.got - 2010.06.03 18:47:42.
