data_PCOD9258736
_publ_section_title
;
Structure prediction by ZEFSAII (Michael W. Deem and Ramdas Pophale) SiO2 
 PCOD9258736
Probable space group: C 2/C
;
_chemical_formula_sum "Si O2"
_cell_formula_units_Z 48
_cell_length_a 8.119528
_cell_length_b 18.040862
_cell_length_c 17.566097
_cell_angle_alpha 90.000000
_cell_angle_beta 89.861385
_cell_angle_gamma 90.000000
_cell_volume 2573.132048
_symmetry_space_group_name_H-M "C 2/C"
_symmetry_group_IT_number 15
_symmetry_cell_setting 'monoclinic'
loop_
_space_group_symop_operation_xyz
x,y,z
-x,y,1/2-z
-x,-y,-z
x,-y,1/2+z
1/2+x,1/2+y,z
1/2-x,1/2+y,1/2-z
1/2-x,1/2-y,-z
1/2+x,1/2-y,1/2+z
loop_
_atom_site_type_symbol
_atom_site_label
_atom_site_fract_x
_atom_site_fract_y
_atom_site_fract_z
Si Si1 0.474837 0.778920 0.002535
Si Si2 0.400238 0.425967 0.900964
Si Si3 0.899884 0.956474 0.179045
Si Si4 0.308049 0.645024 0.551127
Si Si5 0.215445 0.180763 0.390091
Si Si6 0.695738 0.905280 0.750237
O O1 0.544806 0.705311 0.959199
O O2 0.375703 0.830024 0.943187
O O3 0.636866 0.814913 0.036287
O O4 0.356415 0.756073 0.072946
O O5 0.465603 0.506293 0.877478
O O6 0.563450 0.375143 0.901351
O O7 0.277327 0.399380 0.833770
O O8 0.324801 0.415544 0.983766
O O9 0.808974 0.894599 0.131703
O O10 0.000000 0.925394 0.250000
O O11 0.785233 0.023329 0.210945
O O12 0.263976 0.166188 0.302712
O O13 0.500000 0.915778 0.750000
#
# Coordination Sequence:
#
# PCOD9258736 Si02
#       6
#     8   8   8   8   8   8
#     4   9  19  32  52  77 105 138 174 208 250 310
#     4   9  18  33  56  77  99 134 173 215 259 307
#     4   9  19  35  52  75 105 134 168 214 266 308
#     4  10  18  34  54  77 106 137 172 213 255 307
#     4   9  17  34  52  74 104 134 168 216 255 292
#     4  10  19  34  55  77 101 132 175 220 257 303
#
# _framework density 18.654306999999999
#
# number of rings (size 3 to 8) (size 9 to 14) (size 15 to 20)
#    0.000    2.667    0.000    3.000    0.000    0.000 
#    0.000   25.000    0.000    0.000    0.000    0.000 
#    0.000    0.000    0.000    0.000    0.000    0.000 
#
# Total GULP energy -133607.914290 kJ/mol
# GULP energy per Si atom -5566.996429 kJ/mol
# Density = 1.861185 g / cm^3
# Si number density = 18.654307 Si / 1000 Ang^3
#
#
#
# Elastic Constant Matrix: (Units=GPa)
#
#
# Indices 1 2 3 4 5 6 
#
# 1 89.5988 6.9954 32.7683 0.0000 18.5826 0.0000
# 2 6.9954 19.5323 26.1219 0.0000 14.4732 0.0000
# 3 32.7683 26.1219 94.9620 0.0000 20.6581 0.0000
# 4 0.0000 0.0000 0.0000 24.1330 0.0000 10.2700
# 5 18.5826 14.4732 20.6581 0.0000 32.6011 0.0000
# 6 0.0000 0.0000 0.0000 10.2700 0.0000 6.7374
#
#
#
# Elastic Compliance Matrix: (Units=1/GPa)
#
#
# Indices 1 2 3 4 5 6 
#
# 1 0.014214 0.008295 -0.005362 0.000000 -0.008386 0.000000
# 2 0.008295 0.109035 -0.024701 0.000000 -0.037481 0.000000
# 3 -0.005362 -0.024701 0.018703 0.000000 0.002171 0.000000
# 4 0.000000 0.000000 0.000000 0.117950 0.000000 -0.179794
# 5 -0.008386 -0.037481 0.002171 0.000000 0.050718 0.000000
# 6 0.000000 0.000000 0.000000 -0.179794 0.000000 0.422489
#
#
# Mechanical properties :
#
#
# Convention : Reuss Voigt Hill
#
# Bulk Modulus (GPa) = 10.16116 37.31825 23.73970
# Shear Modulus (GPa) = 6.17702 21.90813 14.04258
#
# Velocity S-wave (km/s) = 1.82168 3.43071 2.74666
# Velocity P-wave (km/s) = 3.14382 5.97843 4.77625
#
# Compressibility (1/GPa) = 0.09841400
#
# Stress axis : x y z
#
# Youngs Moduli (GPa) = 70.35539 9.17140 53.46658
#
# Poissons Ratio (x) = -0.07607 0.28668
# Poissons Ratio (y) = -0.58356 1.32070
# Poissons Ratio (z) = 0.37724 0.22655
#
# Static dielectric constant tensor:
#      x y z
#    x 1.660100 0.000000 -0.008810 
#    y 0.000000 1.661920 0.000000 
#    z -0.008810 0.000000 1.662140 
# 
# From -- ./inp_files/134879.got.cif
#   From: 2010.05.17/outbox.cif.g08.bks.cpg/sg15_68_cif.got.tgz:134879.got - 2010.06.03 18:47:42.
