data_PCOD9258285
_publ_section_title
;
Structure prediction by ZEFSAII (Michael W. Deem and Ramdas Pophale) SiO2 
 PCOD9258285
Probable space group: C 2/C
;
_chemical_formula_sum "Si O2"
_cell_formula_units_Z 52
_cell_length_a 13.277038
_cell_length_b 25.893695
_cell_length_c 8.468630
_cell_angle_alpha 90.000000
_cell_angle_beta 95.759717
_cell_angle_gamma 90.000000
_cell_volume 2896.745238
_symmetry_space_group_name_H-M "C 2/C"
_symmetry_group_IT_number 15
_symmetry_cell_setting 'monoclinic'
loop_
_space_group_symop_operation_xyz
x,y,z
-x,y,1/2-z
-x,-y,-z
x,-y,1/2+z
1/2+x,1/2+y,z
1/2-x,1/2+y,1/2-z
1/2-x,1/2-y,-z
1/2+x,1/2-y,1/2+z
loop_
_atom_site_type_symbol
_atom_site_label
_atom_site_fract_x
_atom_site_fract_y
_atom_site_fract_z
Si Si1 0.159780 0.246433 0.688432
Si Si2 0.393438 0.522241 0.328432
Si Si3 0.321149 0.425622 0.516170
Si Si4 0.434264 0.275159 0.014703
Si Si5 0.810600 0.331297 0.052711
Si Si6 0.974125 0.110762 0.558981
Si Si7 0.000000 0.709101 0.750000
O O1 0.139700 0.250435 0.870154
O O2 0.195587 0.299103 0.611683
O O3 0.235539 0.200465 0.655870
O O4 0.050085 0.232149 0.595688
O O5 0.500000 0.513908 0.250000
O O6 0.346506 0.470405 0.393267
O O7 0.417354 0.561258 0.476855
O O8 0.321874 0.548798 0.188301
O O9 0.226301 0.389627 0.467782
O O10 0.419672 0.388711 0.518379
O O11 0.416335 0.336352 0.012875
O O12 0.433052 0.246802 0.848572
O O13 0.923884 0.324749 0.134745
O O14 0.000000 0.108543 0.750000
#
# Coordination Sequence:
#
# PCOD9258285 Si02
#       7
#     8   8   8   8   8   8   4
#     4   9  18  33  53  79 107 155 182 225 269 350
#     4  10  22  32  53  82 114 141 186 227 280 349
#     4  11  20  36  52  77 110 150 182 233 275 338
#     4  10  18  33  53  81 118 145 181 222 281 333
#     4  10  20  36  56  75 113 150 195 232 286 321
#     4  11  18  30  54  83 116 153 171 214 280 349
#     4  10  24  34  54  84 110 150 196 244 264 336
#
# _framework density 17.951181999999999
#
# number of rings (size 3 to 8) (size 9 to 14) (size 15 to 20)
#    0.000    1.846    3.077    3.231    3.231    0.615 
#    0.000    3.077    0.000    0.923    0.000    0.000 
#    0.000    0.000    0.000    0.000    0.000    0.000 
#
# Total GULP energy -145115.194624 kJ/mol
# GULP energy per Si atom -5581.353639 kJ/mol
# Density = 1.791032 g / cm^3
# Si number density = 17.951182 Si / 1000 Ang^3
#
#
#
# Elastic Constant Matrix: (Units=GPa)
#
#
# Indices 1 2 3 4 5 6 
#
# 1 43.8454 35.8267 24.6318 0.0000 -3.9012 0.0000
# 2 35.8267 126.7154 61.8089 0.0000 1.2711 0.0000
# 3 24.6318 61.8089 96.7766 0.0000 -9.7043 0.0000
# 4 0.0000 0.0000 0.0000 11.0856 0.0000 4.8721
# 5 -3.9012 1.2711 -9.7043 0.0000 26.7728 0.0000
# 6 0.0000 0.0000 0.0000 4.8721 0.0000 30.1802
#
#
#
# Elastic Compliance Matrix: (Units=1/GPa)
#
#
# Indices 1 2 3 4 5 6 
#
# 1 0.030720 -0.007405 -0.002703 0.000000 0.003848 0.000000
# 2 -0.007405 0.013539 -0.007197 0.000000 -0.004330 0.000000
# 3 -0.002703 -0.007197 0.016201 0.000000 0.005820 0.000000
# 4 0.000000 0.000000 0.000000 0.097096 0.000000 -0.015675
# 5 0.003848 -0.004330 0.005820 0.000000 0.040227 0.000000
# 6 0.000000 0.000000 0.000000 -0.015675 0.000000 0.035665
#
#
# Mechanical properties :
#
#
# Convention : Reuss Voigt Hill
#
# Bulk Modulus (GPa) = 38.68585 56.87469 47.78027
# Shear Modulus (GPa) = 18.07175 23.27906 20.67540
#
# Velocity S-wave (km/s) = 3.17632 3.60501 3.39744
# Velocity P-wave (km/s) = 5.92025 7.00571 6.48573
#
# Compressibility (1/GPa) = 0.02584924
#
# Stress axis : x y z
#
# Youngs Moduli (GPa) = 32.55254 73.85936 61.72457
#
# Poissons Ratio (x) = 0.54696 0.16686
# Poissons Ratio (y) = 0.24107 0.44421
# Poissons Ratio (z) = 0.08800 0.53153
#
# Static dielectric constant tensor:
#      x y z
#    x 1.621040 0.000000 0.011580 
#    y 0.000000 1.625240 0.000000 
#    z 0.011580 0.000000 1.668090 
# 
# From -- ./inp_files/41780.got.cif
#   From: 2010.05.17/outbox.cif.g08.bks.cpg/sg15_21_cif.got.tgz:41780.got - 2010.06.03 18:47:42.
