data_PCOD9258157
_publ_section_title
;
Structure prediction by ZEFSAII (Michael W. Deem and Ramdas Pophale) SiO2 
 PCOD9258157
Probable space group: C 2/C
;
_chemical_formula_sum "Si O2"
_cell_formula_units_Z 60
_cell_length_a 25.645330
_cell_length_b 8.800969
_cell_length_c 25.105959
_cell_angle_alpha 90.000000
_cell_angle_beta 145.041869
_cell_angle_gamma 90.000000
_cell_volume 3246.783332
_symmetry_space_group_name_H-M "C 2/C"
_symmetry_group_IT_number 15
_symmetry_cell_setting 'monoclinic'
loop_
_space_group_symop_operation_xyz
x,y,z
-x,y,1/2-z
-x,-y,-z
x,-y,1/2+z
1/2+x,1/2+y,z
1/2-x,1/2+y,1/2-z
1/2-x,1/2-y,-z
1/2+x,1/2-y,1/2+z
loop_
_atom_site_type_symbol
_atom_site_label
_atom_site_fract_x
_atom_site_fract_y
_atom_site_fract_z
Si Si1 0.843882 0.842042 0.958410
Si Si2 0.560827 0.046972 0.193080
Si Si3 0.933148 0.439104 0.490019
Si Si4 0.749232 0.569815 0.691508
Si Si5 0.000000 0.450937 0.750000
Si Si6 0.153090 0.149250 0.803466
Si Si7 0.262236 0.570133 0.203327
Si Si8 0.856365 0.204718 0.589219
O O1 0.911495 0.741255 0.978382
O O2 0.749403 0.742970 0.881935
O O3 0.817959 0.999999 0.909064
O O4 0.875790 0.856958 0.046392
O O5 0.545319 0.968959 0.237403
O O6 0.580984 0.225386 0.222666
O O7 0.650574 0.989630 0.239104
O O8 0.477338 0.022193 0.083832
O O9 0.836919 0.516372 0.399050
O O10 0.000000 0.500000 0.500000
O O11 0.721685 0.500193 0.725104
O O12 0.757458 0.749620 0.701438
O O13 0.920820 0.348321 0.656559
O O14 0.132385 0.106694 0.847397
O O15 0.165584 0.004869 0.776443
O O16 0.750000 0.250000 0.500000
#
# Coordination Sequence:
#
# PCOD9258157 Si02
#       8
#     8   8   8   8   4   8   8   8
#     4   9  18  34  54  81 112 147 192 239 285 348
#     4  10  19  35  60  87 110 147 198 242 288 345
#     4  11  20  33  58  85 118 148 191 248 297 345
#     4  11  22  38  58  80 114 158 198 241 293 363
#     4  10  18  32  62  90 112 152 198 246 292 350
#     4   8  18  33  57  81 106 146 190 237 287 346
#     4  11  22  38  57  80 115 156 195 239 300 357
#     4   9  16  31  55  86 112 144 195 244 287 348
#
# _framework density 18.479828000000001
#
# number of rings (size 3 to 8) (size 9 to 14) (size 15 to 20)
#    0.000    2.133    2.667    3.200    0.000    0.000 
#    0.000    2.667    0.000    0.800    0.000    0.000 
#    0.000    0.000    0.000    0.000    0.000    0.000 
#
# Total GULP energy -167094.327829 kJ/mol
# GULP energy per Si atom -5569.810928 kJ/mol
# Density = 1.843777 g / cm^3
# Si number density = 18.479828 Si / 1000 Ang^3
#
#
#
# Elastic Constant Matrix: (Units=GPa)
#
#
# Indices 1 2 3 4 5 6 
#
# 1 77.5698 28.1428 21.6524 0.0000 -27.9460 0.0000
# 2 28.1428 91.8222 10.9844 0.0000 -28.9040 0.0000
# 3 21.6524 10.9844 79.9170 0.0000 -28.3928 0.0000
# 4 0.0000 0.0000 0.0000 19.0357 0.0000 -3.8627
# 5 -27.9460 -28.9040 -28.3928 0.0000 41.7447 0.0000
# 6 0.0000 0.0000 0.0000 -3.8627 0.0000 21.5717
#
#
#
# Elastic Compliance Matrix: (Units=1/GPa)
#
#
# Indices 1 2 3 4 5 6 
#
# 1 0.017375 -0.002258 -0.001081 0.000000 0.009333 0.000000
# 2 -0.002258 0.014464 0.002169 0.000000 0.009979 0.000000
# 3 -0.001081 0.002169 0.016858 0.000000 0.012244 0.000000
# 4 0.000000 0.000000 0.000000 0.054514 0.000000 0.009761
# 5 0.009333 0.009979 0.012244 0.000000 0.045439 0.000000
# 6 0.000000 0.000000 0.000000 0.009761 0.000000 0.048105
#
#
# Mechanical properties :
#
#
# Convention : Reuss Voigt Hill
#
# Bulk Modulus (GPa) = 21.57240 41.20759 31.38999
# Shear Modulus (GPa) = 23.30476 29.03905 26.17191
#
# Velocity S-wave (km/s) = 3.55504 3.96838 3.76738
# Velocity P-wave (km/s) = 5.34321 6.58365 5.99560
#
# Compressibility (1/GPa) = 0.04635553
#
# Stress axis : x y z
#
# Youngs Moduli (GPa) = 57.55397 69.13546 59.31978
#
# Poissons Ratio (x) = 0.15612 0.06415
# Poissons Ratio (y) = 0.12997 -0.12866
# Poissons Ratio (z) = 0.06224 -0.14995
#
# Static dielectric constant tensor:
#      x y z
#    x 1.711580 0.000000 -0.026880 
#    y 0.000000 1.626280 0.000000 
#    z -0.026880 0.000000 1.688010 
# 
# From -- ./inp_files/283227.got.cif
#   From: 2010.05.17/outbox.cif.g08.bks.cpg/sg15_142_cif.got.tgz:283227.got - 2010.06.03 18:47:42.
