data_PCOD9258548
_publ_section_title
;
Structure prediction by ZEFSAII (Michael W. Deem and Ramdas Pophale) SiO2 
 PCOD9258548
Probable space group: C 2/C
;
_chemical_formula_sum "Si O2"
_cell_formula_units_Z 60
_cell_length_a 30.615476
_cell_length_b 17.352305
_cell_length_c 12.183728
_cell_angle_alpha 90.000000
_cell_angle_beta 28.915447
_cell_angle_gamma 90.000000
_cell_volume 3129.618366
_symmetry_space_group_name_H-M "C 2/C"
_symmetry_group_IT_number 15
_symmetry_cell_setting 'monoclinic'
loop_
_space_group_symop_operation_xyz
x,y,z
-x,y,1/2-z
-x,-y,-z
x,-y,1/2+z
1/2+x,1/2+y,z
1/2-x,1/2+y,1/2-z
1/2-x,1/2-y,-z
1/2+x,1/2-y,1/2+z
loop_
_atom_site_type_symbol
_atom_site_label
_atom_site_fract_x
_atom_site_fract_y
_atom_site_fract_z
Si Si1 0.363449 0.827450 0.818339
Si Si2 0.236992 0.704339 0.173564
Si Si3 0.958369 0.377208 0.166031
Si Si4 0.917490 0.217489 0.365488
Si Si5 0.306593 0.929432 0.143035
Si Si6 0.000000 0.499217 0.750000
Si Si7 0.205690 0.832071 0.552281
Si Si8 0.255796 0.913705 0.645379
O O1 0.318452 0.840518 0.798289
O O2 0.469415 0.848076 0.581606
O O3 0.328633 0.741538 0.924927
O O4 0.319154 0.880041 0.006513
O O5 0.168152 0.770863 0.366496
O O6 0.253625 0.651082 0.240832
O O7 0.948042 0.303653 0.267212
O O8 0.855836 0.403788 0.369345
O O9 0.999881 0.447199 0.142772
O O10 0.883244 0.184989 0.324696
O O11 0.000000 0.179457 0.250000
O O12 0.265604 0.878490 0.331065
O O13 0.253885 0.005810 0.215483
O O14 0.407229 0.953748 0.955971
O O15 0.250000 0.750000 0.500000
O O16 0.191477 0.888500 0.687227
#
# Coordination Sequence:
#
# PCOD9258548 Si02
#       8
#     8   8   8   8   8   4   8   8
#     4  11  20  33  56  91 124 160 213 257 313 374
#     4  10  20  36  57  87 122 163 211 266 307 373
#     4  10  18  33  59  86 124 172 195 245 316 390
#     4  11  19  38  62  88 118 168 224 253 312 381
#     4  11  25  35  58  94 131 172 204 257 328 389
#     4  10  22  36  54  92 144 168 194 240 326 406
#     4  12  23  41  65  92 124 170 224 265 308 380
#     4  10  23  39  59  85 131 165 208 256 316 388
#
# _framework density 19.171666999999999
#
# number of rings (size 3 to 8) (size 9 to 14) (size 15 to 20)
#    0.000    1.333    6.000    1.600    5.600    1.067 
#    0.000    0.000    0.000    0.800    0.000    0.000 
#    0.000    0.000    0.000    0.000    0.000    0.000 
#
# Total GULP energy -167123.902275 kJ/mol
# GULP energy per Si atom -5570.796743 kJ/mol
# Density = 1.912803 g / cm^3
# Si number density = 19.171667 Si / 1000 Ang^3
#
#
#
# Elastic Constant Matrix: (Units=GPa)
#
#
# Indices 1 2 3 4 5 6 
#
# 1 137.6045 34.5915 15.2653 0.0000 1.8004 0.0000
# 2 34.5915 60.6310 30.7398 0.0000 -7.3693 0.0000
# 3 15.2653 30.7398 61.1791 0.0000 12.9517 0.0000
# 4 0.0000 0.0000 0.0000 21.1356 0.0000 5.2121
# 5 1.8004 -7.3693 12.9517 0.0000 24.9802 0.0000
# 6 0.0000 0.0000 0.0000 5.2121 0.0000 -22.0436
#
#
#
# Elastic Compliance Matrix: (Units=1/GPa)
#
#
# Indices 1 2 3 4 5 6 
#
# 1 0.008684 -0.006188 0.001642 0.000000 -0.003303 0.000000
# 2 -0.006188 0.031787 -0.018543 0.000000 0.019437 0.000000
# 3 0.001642 -0.018543 0.029695 0.000000 -0.020985 0.000000
# 4 0.000000 0.000000 0.000000 0.044707 0.000000 0.010571
# 5 -0.003303 0.019437 -0.020985 0.000000 0.056884 0.000000
# 6 0.000000 0.000000 0.000000 0.010571 0.000000 -0.042865
#
#
# Mechanical properties :
#
#
# Convention : Reuss Voigt Hill
#
# Bulk Modulus (GPa) = 41.68711 46.73419 44.21065
# Shear Modulus (GPa) = 27.31255 16.73564 22.02409
#
# Velocity S-wave (km/s) = 3.77852 2.95775 3.39305
# Velocity P-wave (km/s) = 6.38965 6.00783 6.20168
#
# Compressibility (1/GPa) = 0.02398823
#
# Stress axis : x y z
#
# Youngs Moduli (GPa) = 115.15598 31.45921 33.67543
#
# Poissons Ratio (x) = 0.19467 -0.05528
# Poissons Ratio (y) = 0.71259 0.62443
# Poissons Ratio (z) = -0.18904 0.58333
#
# Static dielectric constant tensor:
#      x y z
#    x 1.743900 0.000000 -0.030640 
#    y 0.000000 1.707650 0.000000 
#    z -0.030640 0.000000 1.718430 
# 
# From -- ./inp_files/127224.got.cif
#   From: 2010.05.17/outbox.cif.g08.bks.cpg/sg15_64_cif.got.tgz:127224.got - 2010.06.03 18:47:42.
