data_PCOD9258698
_publ_section_title
;
Structure prediction by ZEFSAII (Michael W. Deem and Ramdas Pophale) SiO2 
 PCOD9258698
Probable space group: C 2/C
;
_chemical_formula_sum "Si O2"
_cell_formula_units_Z 36
_cell_length_a 26.482536
_cell_length_b 11.188776
_cell_length_c 5.234846
_cell_angle_alpha 90.000000
_cell_angle_beta 64.092706
_cell_angle_gamma 90.000000
_cell_volume 1395.237928
_symmetry_space_group_name_H-M "C 2/C"
_symmetry_group_IT_number 15
_symmetry_cell_setting 'monoclinic'
loop_
_space_group_symop_operation_xyz
x,y,z
-x,y,1/2-z
-x,-y,-z
x,-y,1/2+z
1/2+x,1/2+y,z
1/2-x,1/2+y,1/2-z
1/2-x,1/2-y,-z
1/2+x,1/2-y,1/2+z
loop_
_atom_site_type_symbol
_atom_site_label
_atom_site_fract_x
_atom_site_fract_y
_atom_site_fract_z
Si Si1 0.966304 0.684232 0.593015
Si Si2 0.226956 0.382799 0.517942
Si Si3 0.160625 0.954450 0.689441
Si Si4 0.660010 0.169383 0.659585
Si Si5 0.500000 0.582920 0.250000
O O1 0.904944 0.636489 0.670994
O O2 0.955376 0.813911 0.756301
O O3 0.000000 0.618460 0.750000
O O4 0.000000 0.696844 0.250000
O O5 0.250000 0.250000 0.500000
O O6 0.280627 0.471355 0.404484
O O7 0.194565 0.375192 0.324274
O O8 0.184736 0.387415 0.849424
O O9 0.168013 0.813908 0.636202
O O10 0.130347 0.019731 0.522930
O O11 0.500000 0.500000 0.500000
#
# Coordination Sequence:
#
# PCOD9258698 Si02
#       5
#     8   8   8   8   4
#     4  10  22  39  58  86 122 166 213 250 302 385
#     4  12  23  40  60  92 124 170 221 258 303 391
#     4  12  23  38  60  88 125 174 211 254 313 382
#     4  12  24  41  65  88 133 178 201 262 326 354
#     4  10  18  34  52  76 120 150 204 258 280 352
#
# _framework density 25.802052
#
# number of rings (size 3 to 8) (size 9 to 14) (size 15 to 20)
#    0.667    0.000    5.556    3.333    0.000    1.778 
#    0.000    0.000    0.000    0.000    0.000    0.000 
#    0.000   62.222    0.000    8.889    0.000    0.000 
#
# Total GULP energy -100650.805774 kJ/mol
# GULP energy per Si atom -5591.711432 kJ/mol
# Density = 2.574333 g / cm^3
# Si number density = 25.802052 Si / 1000 Ang^3
#
#
#
# Elastic Constant Matrix: (Units=GPa)
#
#
# Indices 1 2 3 4 5 6 
#
# 1 110.1946 7.7374 56.9373 0.0000 -9.3891 0.0000
# 2 7.7374 110.4764 -17.4808 0.0000 -9.8407 0.0000
# 3 56.9373 -17.4808 144.6195 0.0000 23.1123 0.0000
# 4 0.0000 0.0000 0.0000 72.6250 0.0000 10.5106
# 5 -9.3891 -9.8407 23.1123 0.0000 57.6772 0.0000
# 6 0.0000 0.0000 0.0000 10.5106 0.0000 33.6944
#
#
#
# Elastic Compliance Matrix: (Units=1/GPa)
#
#
# Indices 1 2 3 4 5 6 
#
# 1 0.012491 -0.001419 -0.005743 0.000000 0.004093 0.000000
# 2 -0.001419 0.009468 0.001583 0.000000 0.000750 0.000000
# 3 -0.005743 0.001583 0.010122 0.000000 -0.004721 0.000000
# 4 0.000000 0.000000 0.000000 0.014420 0.000000 -0.004498
# 5 0.004093 0.000750 -0.004721 0.000000 0.020024 0.000000
# 6 0.000000 0.000000 0.000000 -0.004498 0.000000 0.031082
#
#
# Mechanical properties :
#
#
# Convention : Reuss Voigt Hill
#
# Bulk Modulus (GPa) = 47.79455 51.07539 49.43497
# Shear Modulus (GPa) = 43.20074 54.00577 48.60325
#
# Velocity S-wave (km/s) = 4.09628 4.57998 4.34487
# Velocity P-wave (km/s) = 6.39816 6.91422 6.66119
#
# Compressibility (1/GPa) = 0.02092289
#
# Stress axis : x y z
#
# Youngs Moduli (GPa) = 80.05943 105.61423 98.79816
#
# Poissons Ratio (x) = 0.14987 0.56742
# Poissons Ratio (y) = 0.11361 -0.15643
# Poissons Ratio (z) = 0.45980 -0.16722
#
# Static dielectric constant tensor:
#      x y z
#    x -5.949040 0.000000 -11.916640 
#    y 0.000000 2.082400 0.000000 
#    z -11.916640 0.000000 -15.497840 
# 
# From -- ./inp_files/17977.got.cif
#   From: 2010.05.17/outbox.cif.g08.bks.cpg/sg15_9_cif.got.tgz:17977.got - 2010.06.03 18:47:42.
