data_PCOD9258702
_publ_section_title
;
Structure prediction by ZEFSAII (Michael W. Deem and Ramdas Pophale) SiO2 
 PCOD9258702
Probable space group: C 2/C
;
_chemical_formula_sum "Si O2"
_cell_formula_units_Z 64
_cell_length_a 22.555214
_cell_length_b 16.861614
_cell_length_c 8.091855
_cell_angle_alpha 90.000000
_cell_angle_beta 63.173933
_cell_angle_gamma 90.000000
_cell_volume 2746.276786
_symmetry_space_group_name_H-M "C 2/C"
_symmetry_group_IT_number 15
_symmetry_cell_setting 'monoclinic'
loop_
_space_group_symop_operation_xyz
x,y,z
-x,y,1/2-z
-x,-y,-z
x,-y,1/2+z
1/2+x,1/2+y,z
1/2-x,1/2+y,1/2-z
1/2-x,1/2-y,-z
1/2+x,1/2-y,1/2+z
loop_
_atom_site_type_symbol
_atom_site_label
_atom_site_fract_x
_atom_site_fract_y
_atom_site_fract_z
Si Si1 0.209068 0.370616 0.142516
Si Si2 0.352699 0.224236 0.222407
Si Si3 0.176935 0.909768 0.291503
Si Si4 0.400503 0.481752 0.817958
Si Si5 0.424423 0.137968 0.816383
Si Si6 0.430624 0.378881 0.488127
Si Si7 0.942806 0.705570 0.425301
Si Si8 0.213291 0.189644 0.260865
O O1 0.248223 0.414785 0.236106
O O2 0.143925 0.409122 0.141599
O O3 0.197479 0.280168 0.225061
O O4 0.262943 0.354498 0.933200
O O5 0.340483 0.318958 0.229814
O O6 0.384332 0.205675 0.361153
O O7 0.278162 0.189474 0.295336
O O8 0.398225 0.192158 0.007860
O O9 0.122188 0.931332 0.498777
O O10 0.165480 0.980000 0.177824
O O11 0.441690 0.429107 0.639505
O O12 0.435563 0.562115 0.830022
O O13 0.500000 0.106801 0.750000
O O14 0.433033 0.175259 0.622099
O O15 0.466459 0.295770 0.432671
O O16 0.352809 0.352243 0.594575
O O17 0.000000 0.661774 0.250000
#
# Coordination Sequence:
#
# PCOD9258702 Si02
#       8
#     8   8   8   8   8   8   8   8
#     4   9  17  31  54  83 107 138 172 218 280 342
#     4  10  21  36  57  84 109 140 178 227 279 338
#     4  10  18  34  52  80 110 136 175 220 275 321
#     4  10  21  31  54  75 108 141 177 222 271 319
#     4  11  21  35  55  79 114 146 175 223 277 325
#     4  11  20  37  52  77 105 143 179 226 272 317
#     4  12  23  37  54  78 108 148 193 224 267 327
#     4   9  17  31  56  81 108 133 169 224 288 334
#
# _framework density 23.304279000000001
#
# number of rings (size 3 to 8) (size 9 to 14) (size 15 to 20)
#    0.000    1.750    5.000    1.500    0.000    1.500 
#    0.000    0.625    0.000    0.000    0.000    0.875 
#    0.000    0.000    0.000    0.000    0.000    0.000 
#
# Total GULP energy -178338.915757 kJ/mol
# GULP energy per Si atom -5573.091117 kJ/mol
# Density = 2.325124 g / cm^3
# Si number density = 23.304279 Si / 1000 Ang^3
#
#
#
# Elastic Constant Matrix: (Units=GPa)
#
#
# Indices 1 2 3 4 5 6 
#
# 1 106.0990 -0.3961 11.8475 0.0000 -11.0456 0.0000
# 2 -0.3961 13.9097 5.9296 0.0000 4.4636 0.0000
# 3 11.8475 5.9296 89.1781 0.0000 11.3498 0.0000
# 4 0.0000 0.0000 0.0000 14.0751 0.0000 12.6373
# 5 -11.0456 4.4636 11.3498 0.0000 42.2529 0.0000
# 6 0.0000 0.0000 0.0000 12.6373 0.0000 9.1663
#
#
#
# Elastic Compliance Matrix: (Units=1/GPa)
#
#
# Indices 1 2 3 4 5 6 
#
# 1 0.009934 0.000032 -0.001710 0.000000 0.003053 0.000000
# 2 0.000032 0.075882 -0.004173 0.000000 -0.006887 0.000000
# 3 -0.001710 -0.004173 0.012134 0.000000 -0.003266 0.000000
# 4 0.000000 0.000000 0.000000 -0.298709 0.000000 0.411824
# 5 0.003053 -0.006887 -0.003266 0.000000 0.026070 0.000000
# 6 0.000000 0.000000 0.000000 0.411824 0.000000 -0.458679
#
#
# Mechanical properties :
#
#
# Convention : Reuss Voigt Hill
#
# Bulk Modulus (GPa) = 11.59459 27.10543 19.35001
# Shear Modulus (GPa) = -8.43291 25.88591 8.72650
#
# Velocity S-wave (km/s) = -1.90433 3.33645 1.93719
# Velocity P-wave (km/s) = 0.38835 5.14771 3.65032
#
# Compressibility (1/GPa) = 0.08624712
#
# Stress axis : x y z
#
# Youngs Moduli (GPa) = 100.66321 13.17833 82.41389
#
# Poissons Ratio (x) = -0.00043 0.14097
# Poissons Ratio (y) = -0.00325 0.34394
# Poissons Ratio (z) = 0.17218 0.05500
#
# Static dielectric constant tensor:
#      x y z
#    x 2.024370 0.000000 -0.026820 
#    y 0.000000 1.852020 0.000000 
#    z -0.026820 0.000000 2.005120 
# 
# From -- ./inp_files/63251.got.cif
#   From: 2010.05.17/outbox.cif.g08.bks.cpg/sg15_32_cif.got.tgz:63251.got - 2010.06.03 18:47:42.
