data_PCOD9258316
_publ_section_title
;
Structure prediction by ZEFSAII (Michael W. Deem and Ramdas Pophale) SiO2 
 PCOD9258316
Probable space group: C 2/C
;
_chemical_formula_sum "Si O2"
_cell_formula_units_Z 60
_cell_length_a 17.094637
_cell_length_b 9.950075
_cell_length_c 13.847807
_cell_angle_alpha 90.000000
_cell_angle_beta 79.944338
_cell_angle_gamma 90.000000
_cell_volume 2319.231457
_symmetry_space_group_name_H-M "C 2/C"
_symmetry_group_IT_number 15
_symmetry_cell_setting 'monoclinic'
loop_
_space_group_symop_operation_xyz
x,y,z
-x,y,1/2-z
-x,-y,-z
x,-y,1/2+z
1/2+x,1/2+y,z
1/2-x,1/2+y,1/2-z
1/2-x,1/2-y,-z
1/2+x,1/2-y,1/2+z
loop_
_atom_site_type_symbol
_atom_site_label
_atom_site_fract_x
_atom_site_fract_y
_atom_site_fract_z
Si Si1 0.365915 0.860085 0.937223
Si Si2 0.283713 0.229477 0.160616
Si Si3 0.364120 0.493219 0.121455
Si Si4 0.000000 0.289355 0.250000
Si Si5 0.286306 0.227473 0.619956
Si Si6 0.913546 0.538060 0.238945
Si Si7 0.474547 0.630830 0.870774
Si Si8 0.134757 0.913129 0.658029
O O1 0.299401 0.762625 0.905104
O O2 0.373539 0.974881 0.854367
O O3 0.446650 0.772783 0.920463
O O4 0.330601 0.887940 0.050101
O O5 0.314225 0.363039 0.103475
O O6 0.231638 0.284374 0.263491
O O7 0.356295 0.136047 0.188854
O O8 0.219557 0.146943 0.114488
O O9 0.338067 0.638318 0.091449
O O10 0.452760 0.440533 0.093354
O O11 0.352347 0.517937 0.239794
O O12 0.055416 0.391239 0.301292
O O13 0.063496 0.195219 0.183219
O O14 0.000000 0.598219 0.250000
O O15 0.500000 0.632539 0.750000
O O16 0.400952 0.529920 0.897839
#
# Coordination Sequence:
#
# PCOD9258316 Si02
#       8
#     8   8   8   4   8   8   8   8
#     4  10  18  34  52  76 109 139 178 208 262 318
#     4  10  20  33  55  81 103 134 180 220 259 317
#     4  10  19  33  54  79 103 130 179 222 262 304
#     4  10  20  32  50  80 106 136 172 214 268 310
#     4   9  20  32  50  82 106 138 169 217 266 309
#     4   9  19  32  54  79 105 137 179 218 257 303
#     4  10  18  33  54  77 106 138 173 224 261 303
#     4  10  19  32  49  81 107 133 169 222 269 304
#
# _framework density 25.870640000000002
#
# number of rings (size 3 to 8) (size 9 to 14) (size 15 to 20)
#    0.400    1.867    2.000    4.400    5.600    0.533 
#    0.000    0.000    0.000    4.000    6.933    0.000 
#    0.000    0.000    0.000    0.000    0.000    0.000 
#
# Total GULP energy -167367.724061 kJ/mol
# GULP energy per Si atom -5578.924135 kJ/mol
# Density = 2.581176 g / cm^3
# Si number density = 25.870640 Si / 1000 Ang^3
#
#
#
# Elastic Constant Matrix: (Units=GPa)
#
#
# Indices 1 2 3 4 5 6 
#
# 1 113.1114 28.3911 25.7465 0.0000 -14.0673 0.0000
# 2 28.3911 97.1464 15.4353 0.0000 -10.3610 0.0000
# 3 25.7465 15.4353 73.0537 0.0000 -0.3547 0.0000
# 4 0.0000 0.0000 0.0000 20.1179 0.0000 -7.9740
# 5 -14.0673 -10.3610 -0.3547 0.0000 25.7948 0.0000
# 6 0.0000 0.0000 0.0000 -7.9740 0.0000 31.6803
#
#
#
# Elastic Compliance Matrix: (Units=1/GPa)
#
#
# Indices 1 2 3 4 5 6 
#
# 1 0.010737 -0.002080 -0.003321 0.000000 0.004975 0.000000
# 2 -0.002080 0.011541 -0.001689 0.000000 0.003478 0.000000
# 3 -0.003321 -0.001689 0.015205 0.000000 -0.002280 0.000000
# 4 0.000000 0.000000 0.000000 0.055216 0.000000 0.013898
# 5 0.004975 0.003478 -0.002280 0.000000 0.042846 0.000000
# 6 0.000000 0.000000 0.000000 0.013898 0.000000 0.035063
#
#
# Mechanical properties :
#
#
# Convention : Reuss Voigt Hill
#
# Bulk Modulus (GPa) = 42.90965 46.93970 44.92467
# Shear Modulus (GPa) = 25.96670 29.76784 27.86727
#
# Velocity S-wave (km/s) = 3.17158 3.39579 3.28560
# Velocity P-wave (km/s) = 5.48034 5.79298 5.63883
#
# Compressibility (1/GPa) = 0.02330478
#
# Stress axis : x y z
#
# Youngs Moduli (GPa) = 93.13242 86.64896 65.76978
#
# Poissons Ratio (x) = 0.18022 0.21840
# Poissons Ratio (y) = 0.19370 0.11105
# Poissons Ratio (z) = 0.30926 0.14631
#
# Static dielectric constant tensor:
#      x y z
#    x 2.043140 0.000000 -0.007620 
#    y 0.000000 2.040690 0.000000 
#    z -0.007620 0.000000 2.148250 
# 
# From -- ./inp_files/248131.got.cif
#   From: 2010.05.17/outbox.cif.g08.bks.cpg/sg15_125_cif.got.tgz:248131.got - 2010.06.03 18:47:42.
